GAN.pdb
     RDKit          3D

 18 17  0  0  1  0  0  0  0  0999 V2000
    8.3647  -17.1557   15.9150 N   0  0  0  0  0  0  0  0  0  0  0  0
    8.0662  -16.5594   17.1749 C   0  0  0  0  0  0  0  0  0  0  0  0
    8.6452  -15.2158   17.3561 C   0  0  0  0  0  0  0  0  0  0  0  0
    9.6529  -14.9193   16.6629 O   0  0  0  0  0  0  0  0  0  0  0  0
    7.8986  -12.1442   19.3702 C   0  0  0  0  0  0  0  0  0  0  0  0
    8.8202  -13.0957   18.5926 C   0  0  2  0  0  0  0  0  0  0  0  0
    8.0846  -14.2948   18.2781 N   0  0  0  0  0  0  0  0  0  0  0  0
    9.9854  -13.3345   19.4419 C   0  0  0  0  0  0  0  0  0  0  0  0
   10.8241  -12.4178   19.6134 O   0  0  0  0  0  0  0  0  0  0  0  0
   11.5824  -16.9266   24.1709 N   0  0  0  0  0  0  0  0  0  0  0  0
   11.8266  -15.9449   23.1582 C   0  0  0  0  0  0  0  0  0  0  0  0
   12.9780  -15.4503   23.0938 O   0  0  0  0  0  0  0  0  0  0  0  0
   10.7179  -15.5680   22.2479 C   0  0  0  0  0  0  0  0  0  0  0  0
   11.2096  -14.8708   21.0143 C   0  0  2  0  0  0  0  0  0  0  0  0
   10.1507  -14.5987   20.0595 N   0  0  0  0  0  0  0  0  0  0  0  0
   12.2853  -15.6435   20.3414 C   0  0  0  0  0  0  0  0  0  0  0  0
   12.0087  -16.7214   19.5020 O   0  0  0  0  0  0  0  0  0  0  0  0
   13.4995  -15.3572   20.5006 O   0  0  0  0  0  0  0  0  0  0  0  0
  2  1  1  0
  3  2  1  0
  4  3  2  0
  6  5  1  1
  6  7  1  0
  7  3  1  0
  8  9  2  0
  8  6  1  0
 11 10  1  0
 11 13  1  0
 12 11  2  0
 14 13  1  1
 14 15  1  0
 15  8  1  0
 16 14  1  0
 17 16  1  0
 18 16  2  0
M  END
$$$$
