GAN.pdb
     RDKit          3D

 18 17  0  0  1  0  0  0  0  0999 V2000
    7.9036  -17.5141   16.4783 N   0  0  0  0  0  0  0  0  0  0  0  0
    7.2913  -16.5954   17.3801 C   0  0  0  0  0  0  0  0  0  0  0  0
    8.1479  -15.4536   17.7485 C   0  0  0  0  0  0  0  0  0  0  0  0
    9.3581  -15.5013   17.4064 O   0  0  0  0  0  0  0  0  0  0  0  0
    7.6778  -12.1152   19.3990 C   0  0  0  0  0  0  0  0  0  0  0  0
    8.5105  -13.2617   18.8061 C   0  0  2  0  0  0  0  0  0  0  0  0
    7.6240  -14.3449   18.4619 N   0  0  0  0  0  0  0  0  0  0  0  0
    9.5033  -13.6218   19.8164 C   0  0  0  0  0  0  0  0  0  0  0  0
   10.4085  -12.8057   20.1125 O   0  0  0  0  0  0  0  0  0  0  0  0
   11.9517  -16.0732   23.5786 N   0  0  0  0  0  0  0  0  0  0  0  0
   10.5494  -16.0318   23.8635 C   0  0  0  0  0  0  0  0  0  0  0  0
   10.1807  -16.3610   25.0168 O   0  0  0  0  0  0  0  0  0  0  0  0
    9.6161  -15.6066   22.7920 C   0  0  0  0  0  0  0  0  0  0  0  0
   10.3303  -15.2862   21.5126 C   0  0  2  0  0  0  0  0  0  0  0  0
    9.4287  -14.8882   20.4470 N   0  0  0  0  0  0  0  0  0  0  0  0
   11.1591  -16.4282   21.0481 C   0  0  0  0  0  0  0  0  0  0  0  0
   12.5379  -16.4726   21.2487 O   0  0  0  0  0  0  0  0  0  0  0  0
   10.6502  -17.4107   20.4501 O   0  0  0  0  0  0  0  0  0  0  0  0
  2  1  1  0
  3  2  1  0
  4  3  2  0
  6  5  1  1
  6  7  1  0
  7  3  1  0
  8  9  2  0
  8  6  1  0
 11 10  1  0
 11 13  1  0
 12 11  2  0
 14 13  1  1
 14 15  1  0
 15  8  1  0
 16 14  1  0
 17 16  1  0
 18 16  2  0
M  END
$$$$
