GAN.pdb
     RDKit          3D

 18 17  0  0  1  0  0  0  0  0999 V2000
    8.6701  -15.0643   14.3500 N   0  0  0  0  0  0  0  0  0  0  0  0
    7.7601  -14.7336   15.3964 C   0  0  0  0  0  0  0  0  0  0  0  0
    8.3945  -14.5794   16.7181 C   0  0  0  0  0  0  0  0  0  0  0  0
    9.4891  -15.1705   16.9095 O   0  0  0  0  0  0  0  0  0  0  0  0
    7.6674  -12.6936   19.8844 C   0  0  0  0  0  0  0  0  0  0  0  0
    8.4602  -13.6711   19.0040 C   0  0  2  0  0  0  0  0  0  0  0  0
    7.7908  -13.7935   17.7333 N   0  0  0  0  0  0  0  0  0  0  0  0
    8.5381  -14.9294   19.7435 C   0  0  0  0  0  0  0  0  0  0  0  0
    7.7626  -15.8697   19.4474 O   0  0  0  0  0  0  0  0  0  0  0  0
   11.1119  -19.2708   19.4163 N   0  0  0  0  0  0  0  0  0  0  0  0
   11.6061  -18.1151   20.1013 C   0  0  0  0  0  0  0  0  0  0  0  0
   12.5711  -18.2739   20.8875 O   0  0  0  0  0  0  0  0  0  0  0  0
   10.9586  -16.8049   19.8486 C   0  0  0  0  0  0  0  0  0  0  0  0
   10.1926  -16.3120   21.0403 C   0  0  2  0  0  0  0  0  0  0  0  0
    9.4888  -15.0687   20.7845 N   0  0  0  0  0  0  0  0  0  0  0  0
   11.0742  -16.1381   22.2233 C   0  0  0  0  0  0  0  0  0  0  0  0
   12.0784  -15.1721   22.2629 O   0  0  0  0  0  0  0  0  0  0  0  0
   10.9523  -16.8589   23.2467 O   0  0  0  0  0  0  0  0  0  0  0  0
  2  1  1  0
  3  2  1  0
  4  3  2  0
  6  5  1  1
  6  7  1  0
  7  3  1  0
  8  9  2  0
  8  6  1  0
 11 10  1  0
 11 13  1  0
 12 11  2  0
 14 13  1  6
 14 15  1  0
 15  8  1  0
 16 14  1  0
 17 16  1  0
 18 16  2  0
M  END
$$$$
