GAN.pdb
     RDKit          3D

 18 17  0  0  1  0  0  0  0  0999 V2000
   -0.9647  -26.6660   24.0478 N   0  0  0  0  0  0  0  0  0  0  0  0
   -2.0008  -27.6086   24.3125 C   0  0  0  0  0  0  0  0  0  0  0  0
   -3.2542  -27.0035   24.7980 C   0  0  0  0  0  0  0  0  0  0  0  0
   -3.1858  -25.8533   25.3044 O   0  0  0  0  0  0  0  0  0  0  0  0
   -6.9071  -27.7474   24.6503 C   0  0  0  0  0  0  0  0  0  0  0  0
   -5.6649  -27.1009   25.2815 C   0  0  2  0  0  0  0  0  0  0  0  0
   -4.4889  -27.6947   24.6965 N   0  0  0  0  0  0  0  0  0  0  0  0
   -5.7693  -27.3170   26.7232 C   0  0  0  0  0  0  0  0  0  0  0  0
   -4.8898  -27.9890   27.3131 O   0  0  0  0  0  0  0  0  0  0  0  0
   -7.2820  -27.3838   31.5668 N   0  0  0  0  0  0  0  0  0  0  0  0
   -6.1722  -26.5876   31.1384 C   0  0  0  0  0  0  0  0  0  0  0  0
   -5.4568  -26.0625   32.0256 O   0  0  0  0  0  0  0  0  0  0  0  0
   -5.9288  -26.4268   29.6842 C   0  0  0  0  0  0  0  0  0  0  0  0
   -7.0561  -26.9703   28.8575 C   0  0  2  0  0  0  0  0  0  0  0  0
   -6.8629  -26.7638   27.4338 N   0  0  0  0  0  0  0  0  0  0  0  0
   -8.3613  -26.3870   29.2615 C   0  0  0  0  0  0  0  0  0  0  0  0
   -9.0201  -25.4362   28.4835 O   0  0  0  0  0  0  0  0  0  0  0  0
   -8.9322  -26.7273   30.3291 O   0  0  0  0  0  0  0  0  0  0  0  0
  2  1  1  0
  3  2  1  0
  4  3  2  0
  6  5  1  6
  6  7  1  0
  7  3  1  0
  8  9  2  0
  8  6  1  0
 11 10  1  0
 11 13  1  0
 12 11  2  0
 14 13  1  1
 14 15  1  0
 15  8  1  0
 16 14  1  0
 17 16  1  0
 18 16  2  0
M  END
$$$$
