GAN.pdb
     RDKit          3D

 18 17  0  0  1  0  0  0  0  0999 V2000
   -4.7339  -24.2821   23.2443 N   0  0  0  0  0  0  0  0  0  0  0  0
   -4.5503  -25.3461   24.1751 C   0  0  0  0  0  0  0  0  0  0  0  0
   -3.8229  -24.9571   25.3969 C   0  0  0  0  0  0  0  0  0  0  0  0
   -3.5845  -25.8582   26.2426 O   0  0  0  0  0  0  0  0  0  0  0  0
   -2.0148  -21.9434   26.6605 C   0  0  0  0  0  0  0  0  0  0  0  0
   -2.7429  -23.2837   26.8417 C   0  0  2  0  0  0  0  0  0  0  0  0
   -3.4091  -23.6166   25.6076 N   0  0  0  0  0  0  0  0  0  0  0  0
   -3.6581  -23.1121   27.9683 C   0  0  0  0  0  0  0  0  0  0  0  0
   -3.2008  -23.0671   29.1353 O   0  0  0  0  0  0  0  0  0  0  0  0
   -9.4451  -22.1354   29.3328 N   0  0  0  0  0  0  0  0  0  0  0  0
   -8.0855  -21.7796   29.6046 C   0  0  0  0  0  0  0  0  0  0  0  0
   -7.8045  -21.4041   30.7685 O   0  0  0  0  0  0  0  0  0  0  0  0
   -7.0910  -21.8724   28.5081 C   0  0  0  0  0  0  0  0  0  0  0  0
   -6.0237  -22.8864   28.7954 C   0  0  2  0  0  0  0  0  0  0  0  0
   -5.0492  -22.9991   27.7256 N   0  0  0  0  0  0  0  0  0  0  0  0
   -6.6025  -24.2267   29.0702 C   0  0  0  0  0  0  0  0  0  0  0  0
   -6.6682  -25.2194   28.0937 O   0  0  0  0  0  0  0  0  0  0  0  0
   -7.0611  -24.5262   30.2023 O   0  0  0  0  0  0  0  0  0  0  0  0
  2  1  1  0
  3  2  1  0
  4  3  2  0
  6  5  1  6
  6  7  1  0
  7  3  1  0
  8  9  2  0
  8  6  1  0
 11 10  1  0
 11 13  1  0
 12 11  2  0
 14 13  1  6
 14 15  1  0
 15  8  1  0
 16 14  1  0
 17 16  1  0
 18 16  2  0
M  END
$$$$
