GAN.pdb
     RDKit          3D

 18 17  0  0  1  0  0  0  0  0999 V2000
    5.3869  -18.2942   20.5438 N   0  0  0  0  0  0  0  0  0  0  0  0
    5.1947  -16.8862   20.6575 C   0  0  0  0  0  0  0  0  0  0  0  0
    6.4474  -16.1125   20.7302 C   0  0  0  0  0  0  0  0  0  0  0  0
    7.5148  -16.7520   20.9192 O   0  0  0  0  0  0  0  0  0  0  0  0
    7.4791  -12.5523   20.1808 C   0  0  0  0  0  0  0  0  0  0  0  0
    7.7026  -13.9977   20.6501 C   0  0  2  0  0  0  0  0  0  0  0  0
    6.4455  -14.7006   20.5918 N   0  0  0  0  0  0  0  0  0  0  0  0
    8.2612  -13.9167   21.9983 C   0  0  0  0  0  0  0  0  0  0  0  0
    9.4349  -13.5041   22.1577 O   0  0  0  0  0  0  0  0  0  0  0  0
    6.7037  -12.3810   27.6000 N   0  0  0  0  0  0  0  0  0  0  0  0
    7.5651  -13.0202   26.6522 C   0  0  0  0  0  0  0  0  0  0  0  0
    8.6723  -13.4423   27.0653 O   0  0  0  0  0  0  0  0  0  0  0  0
    7.1087  -13.1487   25.2468 C   0  0  0  0  0  0  0  0  0  0  0  0
    7.9143  -14.1544   24.4791 C   0  0  2  0  0  0  0  0  0  0  0  0
    7.4684  -14.3055   23.1061 N   0  0  0  0  0  0  0  0  0  0  0  0
    7.9060  -15.4833   25.1429 C   0  0  0  0  0  0  0  0  0  0  0  0
    7.4890  -16.6382   24.4830 O   0  0  0  0  0  0  0  0  0  0  0  0
    8.2771  -15.6254   26.3362 O   0  0  0  0  0  0  0  0  0  0  0  0
  2  1  1  0
  3  2  1  0
  4  3  2  0
  6  5  1  1
  6  7  1  0
  7  3  1  0
  8  9  2  0
  8  6  1  0
 11 10  1  0
 11 13  1  0
 12 11  2  0
 14 13  1  1
 14 15  1  0
 15  8  1  0
 16 14  1  0
 17 16  1  0
 18 16  2  0
M  END
$$$$
