EEA.pdb
     RDKit          3D

 24 23  0  0  1  0  0  0  0  0999 V2000
   12.7523  -11.5921  -10.9941 N   0  0  0  0  0  0  0  0  0  0  0  0
   14.1851  -11.4042  -10.8669 C   0  0  1  0  0  0  0  0  0  0  0  0
   14.8659  -12.3845  -11.7696 C   0  0  0  0  0  0  0  0  0  0  0  0
   14.7213  -13.8175  -11.3818 C   0  0  0  0  0  0  0  0  0  0  0  0
   15.5614  -14.7532  -12.1411 C   0  0  0  0  0  0  0  0  0  0  0  0
   15.1403  -15.8704  -12.4948 O   0  0  0  0  0  0  0  0  0  0  0  0
   14.5994  -10.0443  -11.2922 C   0  0  0  0  0  0  0  0  0  0  0  0
   13.8472   -9.4100  -12.0634 O   0  0  0  0  0  0  0  0  0  0  0  0
   16.8475  -14.3832  -12.4690 O   0  0  0  0  0  0  0  0  0  0  0  0
   15.7959   -9.4458  -10.8650 N   0  0  0  0  0  0  0  0  0  0  0  0
   16.0950   -8.0694  -11.2774 C   0  0  1  0  0  0  0  0  0  0  0  0
   16.3164   -7.2153  -10.0773 C   0  0  0  0  0  0  0  0  0  0  0  0
   15.0947   -6.8403   -9.2995 C   0  0  0  0  0  0  0  0  0  0  0  0
   15.3894   -5.8619   -8.2285 C   0  0  0  0  0  0  0  0  0  0  0  0
   14.9163   -4.7136   -8.1239 O   0  0  0  0  0  0  0  0  0  0  0  0
   17.1808   -8.0494  -12.2804 C   0  0  0  0  0  0  0  0  0  0  0  0
   18.3508   -8.3685  -11.9756 O   0  0  0  0  0  0  0  0  0  0  0  0
   16.2915   -6.2575   -7.2244 O   0  0  0  0  0  0  0  0  0  0  0  0
   17.3551   -7.4712  -16.0050 C   0  0  0  0  0  0  0  0  0  0  0  0
   18.0193   -7.6617  -14.6352 C   0  0  2  0  0  0  0  0  0  0  0  0
   16.9683   -7.6696  -13.6451 N   0  0  0  0  0  0  0  0  0  0  0  0
   19.0147   -6.5990  -14.4047 C   0  0  0  0  0  0  0  0  0  0  0  0
   18.8647   -5.6110  -13.4421 O   0  0  0  0  0  0  0  0  0  0  0  0
   20.0618   -6.5575  -15.0973 O   0  0  0  0  0  0  0  0  0  0  0  0
  2  1  1  6
  2  3  1  0
  3  4  1  0
  4  5  1  0
  5  9  1  0
  6  5  2  0
  7  2  1  0
  7  8  2  0
 10  7  1  0
 11 10  1  0
 11 16  1  0
 11 12  1  1
 13 12  1  0
 13 14  1  0
 14 15  2  0
 16 17  2  0
 16 21  1  0
 18 14  1  0
 20 19  1  6
 20 22  1  0
 21 20  1  0
 22 24  2  0
 22 23  1  0
M  END
$$$$
