EEA.pdb
     RDKit          3D

 24 23  0  0  1  0  0  0  0  0999 V2000
   15.5429  -13.4199  -13.9645 N   0  0  0  0  0  0  0  0  0  0  0  0
   14.9852  -12.0824  -13.8978 C   0  0  1  0  0  0  0  0  0  0  0  0
   13.5842  -12.1865  -13.3824 C   0  0  0  0  0  0  0  0  0  0  0  0
   12.5716  -12.6527  -14.3735 C   0  0  0  0  0  0  0  0  0  0  0  0
   11.5977  -11.6351  -14.7905 C   0  0  0  0  0  0  0  0  0  0  0  0
   10.6231  -11.3320  -14.0771 O   0  0  0  0  0  0  0  0  0  0  0  0
   15.7427  -11.2190  -12.9585 C   0  0  0  0  0  0  0  0  0  0  0  0
   16.0531  -11.6880  -11.8420 O   0  0  0  0  0  0  0  0  0  0  0  0
   11.7691  -11.0014  -16.0019 O   0  0  0  0  0  0  0  0  0  0  0  0
   16.1221   -9.9038  -13.2726 N   0  0  0  0  0  0  0  0  0  0  0  0
   16.9400   -9.1471  -12.3172 C   0  0  1  0  0  0  0  0  0  0  0  0
   18.1340   -8.5820  -13.0053 C   0  0  0  0  0  0  0  0  0  0  0  0
   18.9984   -7.6741  -12.1888 C   0  0  0  0  0  0  0  0  0  0  0  0
   20.1634   -7.1719  -12.9516 C   0  0  0  0  0  0  0  0  0  0  0  0
   20.2625   -6.0595  -13.5048 O   0  0  0  0  0  0  0  0  0  0  0  0
   16.1109   -8.1708  -11.5790 C   0  0  0  0  0  0  0  0  0  0  0  0
   15.3033   -7.4247  -12.1747 O   0  0  0  0  0  0  0  0  0  0  0  0
   21.2737   -8.0272  -13.0697 O   0  0  0  0  0  0  0  0  0  0  0  0
   15.4768   -7.3874   -7.9492 C   0  0  0  0  0  0  0  0  0  0  0  0
   15.4325   -7.0111   -9.4359 C   0  0  2  0  0  0  0  0  0  0  0  0
   16.1763   -8.0174  -10.1564 N   0  0  0  0  0  0  0  0  0  0  0  0
   15.9717   -5.6528   -9.6291 C   0  0  0  0  0  0  0  0  0  0  0  0
   15.3030   -4.5043   -9.2305 O   0  0  0  0  0  0  0  0  0  0  0  0
   17.0897   -5.4926  -10.1789 O   0  0  0  0  0  0  0  0  0  0  0  0
  2  1  1  1
  2  3  1  0
  3  4  1  0
  4  5  1  0
  5  9  1  0
  6  5  2  0
  7  2  1  0
  7  8  2  0
 10  7  1  0
 11 10  1  0
 11 16  1  0
 11 12  1  6
 13 12  1  0
 13 14  1  0
 14 15  2  0
 16 17  2  0
 16 21  1  0
 18 14  1  0
 20 19  1  1
 20 22  1  0
 21 20  1  0
 22 24  2  0
 22 23  1  0
M  END
$$$$
