EEA.pdb
     RDKit          3D

 24 23  0  0  1  0  0  0  0  0999 V2000
   15.8866  -10.2008  -17.5604 N   0  0  0  0  0  0  0  0  0  0  0  0
   16.3674   -9.9215  -16.2205 C   0  0  1  0  0  0  0  0  0  0  0  0
   17.2366  -11.0610  -15.7900 C   0  0  0  0  0  0  0  0  0  0  0  0
   16.5254  -12.3480  -15.5395 C   0  0  0  0  0  0  0  0  0  0  0  0
   16.4768  -12.7659  -14.1320 C   0  0  0  0  0  0  0  0  0  0  0  0
   16.9285  -12.0473  -13.2210 O   0  0  0  0  0  0  0  0  0  0  0  0
   17.1944   -8.6902  -16.1806 C   0  0  0  0  0  0  0  0  0  0  0  0
   17.9614   -8.4605  -17.1407 O   0  0  0  0  0  0  0  0  0  0  0  0
   15.9169  -13.9841  -13.8145 O   0  0  0  0  0  0  0  0  0  0  0  0
   17.1495   -7.7786  -15.1132 N   0  0  0  0  0  0  0  0  0  0  0  0
   17.9363   -6.5423  -15.1940 C   0  0  1  0  0  0  0  0  0  0  0  0
   17.0783   -5.3706  -14.8631 C   0  0  0  0  0  0  0  0  0  0  0  0
   16.0150   -5.0289  -15.8585 C   0  0  0  0  0  0  0  0  0  0  0  0
   15.2384   -3.8327  -15.4621 C   0  0  0  0  0  0  0  0  0  0  0  0
   14.2824   -3.8018  -14.6631 O   0  0  0  0  0  0  0  0  0  0  0  0
   19.1798   -6.6626  -14.4035 C   0  0  0  0  0  0  0  0  0  0  0  0
   19.1505   -6.9713  -13.1921 O   0  0  0  0  0  0  0  0  0  0  0  0
   15.6080   -2.6041  -16.0387 O   0  0  0  0  0  0  0  0  0  0  0  0
   22.8524   -6.7079  -15.1897 C   0  0  0  0  0  0  0  0  0  0  0  0
   21.6974   -6.5345  -14.1948 C   0  0  2  0  0  0  0  0  0  0  0  0
   20.4788   -6.4373  -14.9634 N   0  0  0  0  0  0  0  0  0  0  0  0
   21.9349   -5.3525  -13.3466 C   0  0  0  0  0  0  0  0  0  0  0  0
   22.6983   -5.3874  -12.1884 O   0  0  0  0  0  0  0  0  0  0  0  0
   21.4355   -4.2433  -13.6599 O   0  0  0  0  0  0  0  0  0  0  0  0
  2  1  1  6
  2  3  1  0
  3  4  1  0
  4  5  1  0
  5  9  1  0
  6  5  2  0
  7  2  1  0
  7  8  2  0
 10  7  1  0
 11 10  1  0
 11 16  1  0
 11 12  1  1
 13 12  1  0
 13 14  1  0
 14 15  2  0
 16 17  2  0
 16 21  1  0
 18 14  1  0
 20 19  1  6
 20 22  1  0
 21 20  1  0
 22 24  2  0
 22 23  1  0
M  END
$$$$
