EEA.pdb
     RDKit          3D

 24 23  0  0  1  0  0  0  0  0999 V2000
   19.5488  -12.3873  -18.2635 N   0  0  0  0  0  0  0  0  0  0  0  0
   20.4875  -11.7025  -17.3950 C   0  0  1  0  0  0  0  0  0  0  0  0
   21.7873  -11.5710  -18.1246 C   0  0  0  0  0  0  0  0  0  0  0  0
   22.4967  -12.8534  -18.4027 C   0  0  0  0  0  0  0  0  0  0  0  0
   23.7774  -12.7133  -19.1083 C   0  0  0  0  0  0  0  0  0  0  0  0
   24.4678  -13.7039  -19.4125 O   0  0  0  0  0  0  0  0  0  0  0  0
   20.0245  -10.3334  -17.0587 C   0  0  0  0  0  0  0  0  0  0  0  0
   19.2031   -9.7816  -17.8227 O   0  0  0  0  0  0  0  0  0  0  0  0
   24.2240  -11.4529  -19.4407 O   0  0  0  0  0  0  0  0  0  0  0  0
   20.4703   -9.6377  -15.9231 N   0  0  0  0  0  0  0  0  0  0  0  0
   19.8991   -8.3199  -15.6208 C   0  0  1  0  0  0  0  0  0  0  0  0
   18.6117   -8.4791  -14.8888 C   0  0  0  0  0  0  0  0  0  0  0  0
   17.3716   -8.4745  -15.7256 C   0  0  0  0  0  0  0  0  0  0  0  0
   16.1406   -8.5288  -14.9053 C   0  0  0  0  0  0  0  0  0  0  0  0
   14.9682   -8.5175  -15.3278 O   0  0  0  0  0  0  0  0  0  0  0  0
   20.9015   -7.4553  -14.9627 C   0  0  0  0  0  0  0  0  0  0  0  0
   21.5466   -7.8522  -13.9678 O   0  0  0  0  0  0  0  0  0  0  0  0
   16.2988   -8.6002  -13.5095 O   0  0  0  0  0  0  0  0  0  0  0  0
   22.3407   -4.0388  -15.7002 C   0  0  0  0  0  0  0  0  0  0  0  0
   22.2811   -5.3366  -14.8842 C   0  0  2  0  0  0  0  0  0  0  0  0
   21.1954   -6.1278  -15.4135 N   0  0  0  0  0  0  0  0  0  0  0  0
   22.1177   -5.0257  -13.4525 C   0  0  0  0  0  0  0  0  0  0  0  0
   23.1685   -4.6410  -12.6320 O   0  0  0  0  0  0  0  0  0  0  0  0
   20.9837   -5.1032  -12.9178 O   0  0  0  0  0  0  0  0  0  0  0  0
  2  1  1  6
  2  3  1  0
  3  4  1  0
  4  5  1  0
  5  9  1  0
  6  5  2  0
  7  2  1  0
  7  8  2  0
 10  7  1  0
 11 10  1  0
 11 16  1  0
 11 12  1  1
 13 12  1  0
 13 14  1  0
 14 15  2  0
 16 17  2  0
 16 21  1  0
 18 14  1  0
 20 19  1  6
 20 22  1  0
 21 20  1  0
 22 24  2  0
 22 23  1  0
M  END
$$$$
