EEA.pdb
     RDKit          3D

 24 23  0  0  1  0  0  0  0  0999 V2000
   17.3203  -12.1470  -16.5744 N   0  0  0  0  0  0  0  0  0  0  0  0
   18.5197  -11.6467  -15.9296 C   0  0  1  0  0  0  0  0  0  0  0  0
   19.6936  -12.3859  -16.4907 C   0  0  0  0  0  0  0  0  0  0  0  0
   19.8509  -13.7909  -16.0152 C   0  0  0  0  0  0  0  0  0  0  0  0
   18.9752  -14.7698  -16.6731 C   0  0  0  0  0  0  0  0  0  0  0  0
   18.9070  -14.8560  -17.9134 O   0  0  0  0  0  0  0  0  0  0  0  0
   18.7285  -10.2037  -16.2046 C   0  0  0  0  0  0  0  0  0  0  0  0
   18.4695   -9.7755  -17.3502 O   0  0  0  0  0  0  0  0  0  0  0  0
   18.2111  -15.6128  -15.8959 O   0  0  0  0  0  0  0  0  0  0  0  0
   19.2029   -9.3058  -15.2345 N   0  0  0  0  0  0  0  0  0  0  0  0
   19.2083   -7.8684  -15.5310 C   0  0  1  0  0  0  0  0  0  0  0  0
   17.8322   -7.3153  -15.3935 C   0  0  0  0  0  0  0  0  0  0  0  0
   17.7006   -5.8312  -15.5288 C   0  0  0  0  0  0  0  0  0  0  0  0
   16.3172   -5.3654  -15.2832 C   0  0  0  0  0  0  0  0  0  0  0  0
   15.3390   -6.0766  -14.9820 O   0  0  0  0  0  0  0  0  0  0  0  0
   20.2523   -7.1773  -14.7448 C   0  0  0  0  0  0  0  0  0  0  0  0
   20.3464   -7.3393  -13.5085 O   0  0  0  0  0  0  0  0  0  0  0  0
   16.0717   -3.9853  -15.3986 O   0  0  0  0  0  0  0  0  0  0  0  0
   23.1735   -4.9404  -15.6103 C   0  0  0  0  0  0  0  0  0  0  0  0
   22.3186   -5.7250  -14.6066 C   0  0  2  0  0  0  0  0  0  0  0  0
   21.2092   -6.2912  -15.3371 N   0  0  0  0  0  0  0  0  0  0  0  0
   21.8890   -4.8397  -13.5090 C   0  0  0  0  0  0  0  0  0  0  0  0
   20.5856   -4.3875  -13.3613 O   0  0  0  0  0  0  0  0  0  0  0  0
   22.7197   -4.4574  -12.6479 O   0  0  0  0  0  0  0  0  0  0  0  0
  2  1  1  6
  2  3  1  0
  3  4  1  0
  4  5  1  0
  5  9  1  0
  6  5  2  0
  7  2  1  0
  7  8  2  0
 10  7  1  0
 11 10  1  0
 11 16  1  0
 11 12  1  1
 13 12  1  0
 13 14  1  0
 14 15  2  0
 16 17  2  0
 16 21  1  0
 18 14  1  0
 20 19  1  6
 20 22  1  0
 21 20  1  0
 22 24  2  0
 22 23  1  0
M  END
$$$$
