EEA.pdb
     RDKit          3D

 24 23  0  0  1  0  0  0  0  0999 V2000
   18.8021  -10.9077  -16.1967 N   0  0  0  0  0  0  0  0  0  0  0  0
   18.8588   -9.4776  -16.4338 C   0  0  1  0  0  0  0  0  0  0  0  0
   18.0738   -8.7951  -15.3580 C   0  0  0  0  0  0  0  0  0  0  0  0
   16.6260   -9.1492  -15.3009 C   0  0  0  0  0  0  0  0  0  0  0  0
   15.8390   -8.3861  -14.3231 C   0  0  0  0  0  0  0  0  0  0  0  0
   14.9528   -7.5868  -14.6783 O   0  0  0  0  0  0  0  0  0  0  0  0
   20.2496   -8.9653  -16.3641 C   0  0  0  0  0  0  0  0  0  0  0  0
   21.1817   -9.7373  -16.6773 O   0  0  0  0  0  0  0  0  0  0  0  0
   16.0898   -8.5608  -12.9795 O   0  0  0  0  0  0  0  0  0  0  0  0
   20.5579   -7.6553  -15.9625 N   0  0  0  0  0  0  0  0  0  0  0  0
   21.8976   -7.1202  -16.2327 C   0  0  1  0  0  0  0  0  0  0  0  0
   22.2488   -7.3272  -17.6654 C   0  0  0  0  0  0  0  0  0  0  0  0
   23.5477   -6.7390  -18.1183 C   0  0  0  0  0  0  0  0  0  0  0  0
   23.7293   -6.8405  -19.5839 C   0  0  0  0  0  0  0  0  0  0  0  0
   22.9504   -7.3846  -20.3905 O   0  0  0  0  0  0  0  0  0  0  0  0
   22.0121   -5.7293  -15.7451 C   0  0  0  0  0  0  0  0  0  0  0  0
   23.0922   -5.1035  -15.8185 O   0  0  0  0  0  0  0  0  0  0  0  0
   24.8929   -6.2697  -20.1303 O   0  0  0  0  0  0  0  0  0  0  0  0
   19.6003   -3.1149  -14.5211 C   0  0  0  0  0  0  0  0  0  0  0  0
   21.0234   -3.6725  -14.6540 C   0  0  2  0  0  0  0  0  0  0  0  0
   20.9118   -5.0180  -15.1662 N   0  0  0  0  0  0  0  0  0  0  0  0
   21.7133   -3.6108  -13.3527 C   0  0  0  0  0  0  0  0  0  0  0  0
   22.1042   -2.4219  -12.7537 O   0  0  0  0  0  0  0  0  0  0  0  0
   21.9753   -4.6694  -12.7293 O   0  0  0  0  0  0  0  0  0  0  0  0
  2  1  1  1
  2  3  1  0
  3  4  1  0
  4  5  1  0
  5  9  1  0
  6  5  2  0
  7  2  1  0
  7  8  2  0
 10  7  1  0
 11 10  1  0
 11 16  1  0
 11 12  1  6
 13 12  1  0
 13 14  1  0
 14 15  2  0
 16 17  2  0
 16 21  1  0
 18 14  1  0
 20 19  1  1
 20 22  1  0
 21 20  1  0
 22 24  2  0
 22 23  1  0
M  END
$$$$
