EEA.pdb
     RDKit          3D

 24 23  0  0  1  0  0  0  0  0999 V2000
   18.2268  -12.1047  -16.4735 N   0  0  0  0  0  0  0  0  0  0  0  0
   17.7309  -10.7462  -16.3592 C   0  0  1  0  0  0  0  0  0  0  0  0
   16.9573  -10.6380  -15.0828 C   0  0  0  0  0  0  0  0  0  0  0  0
   15.6607  -11.3750  -15.0571 C   0  0  0  0  0  0  0  0  0  0  0  0
   14.8245  -11.1176  -13.8771 C   0  0  0  0  0  0  0  0  0  0  0  0
   14.7757  -11.9170  -12.9236 O   0  0  0  0  0  0  0  0  0  0  0  0
   18.8393   -9.7619  -16.2935 C   0  0  0  0  0  0  0  0  0  0  0  0
   19.8239  -10.0261  -15.5700 O   0  0  0  0  0  0  0  0  0  0  0  0
   14.0759   -9.9619  -13.8265 O   0  0  0  0  0  0  0  0  0  0  0  0
   18.8254   -8.5527  -17.0076 N   0  0  0  0  0  0  0  0  0  0  0  0
   19.9688   -7.6398  -16.8920 C   0  0  1  0  0  0  0  0  0  0  0  0
   20.1121   -6.8429  -18.1422 C   0  0  0  0  0  0  0  0  0  0  0  0
   21.1865   -5.8018  -18.1419 C   0  0  0  0  0  0  0  0  0  0  0  0
   21.2487   -5.0588  -19.4207 C   0  0  0  0  0  0  0  0  0  0  0  0
   20.4227   -4.2205  -19.8309 O   0  0  0  0  0  0  0  0  0  0  0  0
   19.8841   -6.8529  -15.6433 C   0  0  0  0  0  0  0  0  0  0  0  0
   18.8333   -6.2551  -15.3238 O   0  0  0  0  0  0  0  0  0  0  0  0
   22.3446   -5.3173  -20.2637 O   0  0  0  0  0  0  0  0  0  0  0  0
   21.9728   -6.5453  -12.5539 C   0  0  0  0  0  0  0  0  0  0  0  0
   20.8985   -5.9848  -13.4949 C   0  0  2  0  0  0  0  0  0  0  0  0
   20.9816   -6.7253  -14.7318 N   0  0  0  0  0  0  0  0  0  0  0  0
   21.0965   -4.5359  -13.6809 C   0  0  0  0  0  0  0  0  0  0  0  0
   20.7498   -3.5912  -12.7255 O   0  0  0  0  0  0  0  0  0  0  0  0
   21.6017   -4.1020  -14.7459 O   0  0  0  0  0  0  0  0  0  0  0  0
  2  1  1  1
  2  3  1  0
  3  4  1  0
  4  5  1  0
  5  9  1  0
  6  5  2  0
  7  2  1  0
  7  8  2  0
 10  7  1  0
 11 10  1  0
 11 16  1  0
 11 12  1  6
 13 12  1  0
 13 14  1  0
 14 15  2  0
 16 17  2  0
 16 21  1  0
 18 14  1  0
 20 19  1  1
 20 22  1  0
 21 20  1  0
 22 24  2  0
 22 23  1  0
M  END
$$$$
