EEA.pdb
     RDKit          3D

 24 23  0  0  1  0  0  0  0  0999 V2000
   20.3396  -33.3926   -3.0215 N   0  0  0  0  0  0  0  0  0  0  0  0
   21.0916  -34.1474   -4.0060 C   0  0  1  0  0  0  0  0  0  0  0  0
   20.1683  -34.4967   -5.1306 C   0  0  0  0  0  0  0  0  0  0  0  0
   19.2040  -35.5988   -4.8469 C   0  0  0  0  0  0  0  0  0  0  0  0
   19.8190  -36.8932   -4.5241 C   0  0  0  0  0  0  0  0  0  0  0  0
   20.9077  -36.9680   -3.9243 O   0  0  0  0  0  0  0  0  0  0  0  0
   22.2052  -33.3489   -4.5752 C   0  0  0  0  0  0  0  0  0  0  0  0
   22.0982  -32.1033   -4.5813 O   0  0  0  0  0  0  0  0  0  0  0  0
   19.1732  -38.0522   -4.8955 O   0  0  0  0  0  0  0  0  0  0  0  0
   23.3673  -33.9339   -5.1039 N   0  0  0  0  0  0  0  0  0  0  0  0
   24.4417  -33.0674   -5.6029 C   0  0  1  0  0  0  0  0  0  0  0  0
   25.7018  -33.3379   -4.8561 C   0  0  0  0  0  0  0  0  0  0  0  0
   25.6263  -33.2142   -3.3671 C   0  0  0  0  0  0  0  0  0  0  0  0
   26.8970  -33.5901   -2.7073 C   0  0  0  0  0  0  0  0  0  0  0  0
   27.9319  -33.9961   -3.2707 O   0  0  0  0  0  0  0  0  0  0  0  0
   24.5437  -33.1577   -7.0749 C   0  0  0  0  0  0  0  0  0  0  0  0
   24.2065  -34.1955   -7.6856 O   0  0  0  0  0  0  0  0  0  0  0  0
   26.9523  -33.4819   -1.3061 O   0  0  0  0  0  0  0  0  0  0  0  0
   26.1559  -33.3304   -9.5953 C   0  0  0  0  0  0  0  0  0  0  0  0
   25.1813  -32.1783   -9.3182 C   0  0  2  0  0  0  0  0  0  0  0  0
   25.0274  -32.0805   -7.8858 N   0  0  0  0  0  0  0  0  0  0  0  0
   23.9051  -32.4178  -10.0160 C   0  0  0  0  0  0  0  0  0  0  0  0
   23.8030  -32.5462  -11.3938 O   0  0  0  0  0  0  0  0  0  0  0  0
   22.8385  -32.5155   -9.3598 O   0  0  0  0  0  0  0  0  0  0  0  0
  2  1  1  1
  2  3  1  0
  3  4  1  0
  4  5  1  0
  5  9  1  0
  6  5  2  0
  7  2  1  0
  7  8  2  0
 10  7  1  0
 11 10  1  0
 11 16  1  0
 11 12  1  1
 13 12  1  0
 13 14  1  0
 14 15  2  0
 16 17  2  0
 16 21  1  0
 18 14  1  0
 20 19  1  1
 20 22  1  0
 21 20  1  0
 22 24  2  0
 22 23  1  0
M  END
$$$$
