EEA.pdb
     RDKit          3D

 24 23  0  0  1  0  0  0  0  0999 V2000
   17.7131  -12.2351  -15.8544 N   0  0  0  0  0  0  0  0  0  0  0  0
   17.7047  -10.8059  -16.1030 C   0  0  1  0  0  0  0  0  0  0  0  0
   16.5588  -10.2081  -15.3487 C   0  0  0  0  0  0  0  0  0  0  0  0
   15.2027  -10.6105  -15.8222 C   0  0  0  0  0  0  0  0  0  0  0  0
   14.5813  -11.7055  -15.0655 C   0  0  0  0  0  0  0  0  0  0  0  0
   13.8611  -12.5567  -15.6198 O   0  0  0  0  0  0  0  0  0  0  0  0
   18.9467  -10.1574  -15.6145 C   0  0  0  0  0  0  0  0  0  0  0  0
   19.4102  -10.5206  -14.5117 O   0  0  0  0  0  0  0  0  0  0  0  0
   14.8024  -11.7908  -13.7081 O   0  0  0  0  0  0  0  0  0  0  0  0
   19.6175   -9.1579  -16.3378 N   0  0  0  0  0  0  0  0  0  0  0  0
   20.8996   -8.6492  -15.8361 C   0  0  1  0  0  0  0  0  0  0  0  0
   21.9912   -8.9915  -16.7900 C   0  0  0  0  0  0  0  0  0  0  0  0
   21.6810  -10.0570  -17.7934 C   0  0  0  0  0  0  0  0  0  0  0  0
   22.8414  -10.3690  -18.6579 C   0  0  0  0  0  0  0  0  0  0  0  0
   23.9899   -9.8961  -18.5548 O   0  0  0  0  0  0  0  0  0  0  0  0
   20.7907   -7.2180  -15.4824 C   0  0  0  0  0  0  0  0  0  0  0  0
   20.1706   -6.4149  -16.2134 O   0  0  0  0  0  0  0  0  0  0  0  0
   22.6382  -11.2891  -19.7022 O   0  0  0  0  0  0  0  0  0  0  0  0
   21.8501   -5.0815  -12.5590 C   0  0  0  0  0  0  0  0  0  0  0  0
   21.4036   -5.2493  -14.0171 C   0  0  2  0  0  0  0  0  0  0  0  0
   21.3782   -6.6653  -14.2987 N   0  0  0  0  0  0  0  0  0  0  0  0
   22.3084   -4.5041  -14.9111 C   0  0  0  0  0  0  0  0  0  0  0  0
   23.1673   -5.1196  -15.8105 O   0  0  0  0  0  0  0  0  0  0  0  0
   22.3274   -3.2485  -14.8819 O   0  0  0  0  0  0  0  0  0  0  0  0
  2  1  1  1
  2  3  1  0
  3  4  1  0
  4  5  1  0
  5  9  1  0
  6  5  2  0
  7  2  1  0
  7  8  2  0
 10  7  1  0
 11 10  1  0
 11 16  1  0
 11 12  1  6
 13 12  1  0
 13 14  1  0
 14 15  2  0
 16 17  2  0
 16 21  1  0
 18 14  1  0
 20 19  1  1
 20 22  1  0
 21 20  1  0
 22 24  2  0
 22 23  1  0
M  END
$$$$
