EEA.pdb
     RDKit          3D

 24 23  0  0  1  0  0  0  0  0999 V2000
   15.3660   -9.9731  -15.2676 N   0  0  0  0  0  0  0  0  0  0  0  0
   16.7503  -10.3467  -15.0471 C   0  0  1  0  0  0  0  0  0  0  0  0
   17.0483  -11.5490  -15.8867 C   0  0  0  0  0  0  0  0  0  0  0  0
   16.2997  -12.7860  -15.5200 C   0  0  0  0  0  0  0  0  0  0  0  0
   17.1330  -13.8940  -15.0343 C   0  0  0  0  0  0  0  0  0  0  0  0
   18.3719  -13.8829  -15.1579 O   0  0  0  0  0  0  0  0  0  0  0  0
   17.6817   -9.2696  -15.4643 C   0  0  0  0  0  0  0  0  0  0  0  0
   18.8025   -9.5962  -15.9115 O   0  0  0  0  0  0  0  0  0  0  0  0
   16.5259  -14.9717  -14.4272 O   0  0  0  0  0  0  0  0  0  0  0  0
   17.3555   -7.9065  -15.3769 N   0  0  0  0  0  0  0  0  0  0  0  0
   18.3469   -6.9053  -15.7880 C   0  0  1  0  0  0  0  0  0  0  0  0
   17.6612   -5.6467  -16.1935 C   0  0  0  0  0  0  0  0  0  0  0  0
   18.5490   -4.5058  -16.5786 C   0  0  0  0  0  0  0  0  0  0  0  0
   17.7802   -3.2951  -16.9453 C   0  0  0  0  0  0  0  0  0  0  0  0
   17.3719   -2.4129  -16.1654 O   0  0  0  0  0  0  0  0  0  0  0  0
   19.3945   -6.7539  -14.7559 C   0  0  0  0  0  0  0  0  0  0  0  0
   19.0995   -6.5508  -13.5579 O   0  0  0  0  0  0  0  0  0  0  0  0
   17.4751   -3.1130  -18.3062 O   0  0  0  0  0  0  0  0  0  0  0  0
   23.0794   -7.3990  -14.5999 C   0  0  0  0  0  0  0  0  0  0  0  0
   21.8228   -6.7126  -14.0488 C   0  0  2  0  0  0  0  0  0  0  0  0
   20.7934   -6.8286  -15.0547 N   0  0  0  0  0  0  0  0  0  0  0  0
   22.1249   -5.3131  -13.6977 C   0  0  0  0  0  0  0  0  0  0  0  0
   22.7439   -4.9420  -12.5127 O   0  0  0  0  0  0  0  0  0  0  0  0
   21.8196   -4.3866  -14.4890 O   0  0  0  0  0  0  0  0  0  0  0  0
  2  1  1  6
  2  3  1  0
  3  4  1  0
  4  5  1  0
  5  9  1  0
  6  5  2  0
  7  2  1  0
  7  8  2  0
 10  7  1  0
 11 10  1  0
 11 16  1  0
 11 12  1  1
 13 12  1  0
 13 14  1  0
 14 15  2  0
 16 17  2  0
 16 21  1  0
 18 14  1  0
 20 19  1  6
 20 22  1  0
 21 20  1  0
 22 24  2  0
 22 23  1  0
M  END
$$$$
