EEA.pdb
     RDKit          3D

 24 23  0  0  1  0  0  0  0  0999 V2000
   16.4323  -12.2500  -13.9908 N   0  0  0  0  0  0  0  0  0  0  0  0
   16.5451  -10.8571  -14.3802 C   0  0  1  0  0  0  0  0  0  0  0  0
   15.1703  -10.3403  -14.6669 C   0  0  0  0  0  0  0  0  0  0  0  0
   14.0604  -11.3061  -14.4212 C   0  0  0  0  0  0  0  0  0  0  0  0
   13.3396  -11.1136  -13.1558 C   0  0  0  0  0  0  0  0  0  0  0  0
   12.6876  -12.0341  -12.6285 O   0  0  0  0  0  0  0  0  0  0  0  0
   17.1147  -10.0276  -13.2897 C   0  0  0  0  0  0  0  0  0  0  0  0
   17.0042  -10.4379  -12.1140 O   0  0  0  0  0  0  0  0  0  0  0  0
   13.3876   -9.8826  -12.5388 O   0  0  0  0  0  0  0  0  0  0  0  0
   17.7688   -8.8074  -13.5252 N   0  0  0  0  0  0  0  0  0  0  0  0
   18.3727   -8.0893  -12.3966 C   0  0  1  0  0  0  0  0  0  0  0  0
   19.5988   -7.3732  -12.8466 C   0  0  0  0  0  0  0  0  0  0  0  0
   20.3028   -6.5547  -11.8109 C   0  0  0  0  0  0  0  0  0  0  0  0
   21.4516   -5.8078  -12.3710 C   0  0  0  0  0  0  0  0  0  0  0  0
   21.9668   -5.9746  -13.4935 O   0  0  0  0  0  0  0  0  0  0  0  0
   17.3647   -7.2535  -11.7105 C   0  0  0  0  0  0  0  0  0  0  0  0
   16.6183   -6.4813  -12.3511 O   0  0  0  0  0  0  0  0  0  0  0  0
   22.0257   -4.8087  -11.5645 O   0  0  0  0  0  0  0  0  0  0  0  0
   16.0775   -7.0828   -8.1670 C   0  0  0  0  0  0  0  0  0  0  0  0
   16.0722   -6.6212   -9.6301 C   0  0  2  0  0  0  0  0  0  0  0  0
   17.1791   -7.2724  -10.2903 N   0  0  0  0  0  0  0  0  0  0  0  0
   16.1515   -5.1507   -9.6958 C   0  0  0  0  0  0  0  0  0  0  0  0
   15.0701   -4.3179   -9.4461 O   0  0  0  0  0  0  0  0  0  0  0  0
   17.2376   -4.5922   -9.9897 O   0  0  0  0  0  0  0  0  0  0  0  0
  2  1  1  1
  2  3  1  0
  3  4  1  0
  4  5  1  0
  5  9  1  0
  6  5  2  0
  7  2  1  0
  7  8  2  0
 10  7  1  0
 11 10  1  0
 11 16  1  0
 11 12  1  6
 13 12  1  0
 13 14  1  0
 14 15  2  0
 16 17  2  0
 16 21  1  0
 18 14  1  0
 20 19  1  1
 20 22  1  0
 21 20  1  0
 22 24  2  0
 22 23  1  0
M  END
$$$$
