MVN.pdb
     RDKit          3D

 24 23  0  0  1  0  0  0  0  0999 V2000
    7.8829  -11.3847   18.9405 C   0  0  0  0  0  0  0  0  0  0  0  0
    7.1750  -12.9645   18.5183 S   0  0  0  0  0  0  0  0  0  0  0  0
    7.4647  -14.3190   19.5971 C   0  0  0  0  0  0  0  0  0  0  0  0
    7.9988  -14.0032   20.9261 C   0  0  0  0  0  0  0  0  0  0  0  0
    8.1759  -15.0952   21.9099 C   0  0  2  0  0  0  0  0  0  0  0  0
    6.9258  -15.7958   22.0986 N   0  0  0  0  0  0  0  0  0  0  0  0
    8.5231  -14.4565   23.2157 C   0  0  0  0  0  0  0  0  0  0  0  0
    9.6183  -13.8848   23.3385 O   0  0  0  0  0  0  0  0  0  0  0  0
    6.9629  -12.7200   27.5037 C   0  0  0  0  0  0  0  0  0  0  0  0
    6.7552  -13.2705   26.1106 C   0  0  1  0  0  0  0  0  0  0  0  0
    6.2323  -12.2348   25.1574 C   0  0  0  0  0  0  0  0  0  0  0  0
    7.9069  -14.0700   25.6204 C   0  0  2  0  0  0  0  0  0  0  0  0
    7.5830  -14.5279   24.2704 N   0  0  0  0  0  0  0  0  0  0  0  0
    8.2940  -15.2142   26.4318 C   0  0  0  0  0  0  0  0  0  0  0  0
    7.4691  -15.6442   27.2794 O   0  0  0  0  0  0  0  0  0  0  0  0
    6.2210  -18.2293   26.0578 N   0  0  0  0  0  0  0  0  0  0  0  0
    7.4759  -18.4097   26.6859 C   0  0  0  0  0  0  0  0  0  0  0  0
    7.4481  -18.7978   27.9084 O   0  0  0  0  0  0  0  0  0  0  0  0
    8.7630  -18.1769   26.0011 C   0  0  0  0  0  0  0  0  0  0  0  0
    9.6163  -17.2563   26.8295 C   0  0  2  0  0  0  0  0  0  0  0  0
    9.5318  -15.8864   26.3427 N   0  0  0  0  0  0  0  0  0  0  0  0
   11.0277  -17.6867   26.6493 C   0  0  0  0  0  0  0  0  0  0  0  0
   11.5993  -18.5860   27.3088 O   0  0  0  0  0  0  0  0  0  0  0  0
   11.7826  -17.0378   25.6647 O   0  0  0  0  0  0  0  0  0  0  0  0
  1  2  1  0
  3  2  1  0
  4  3  1  0
  5  4  1  0
  5  6  1  1
  7  8  2  0
  7  5  1  0
 10  9  1  1
 10 12  1  0
 11 10  1  0
 12 13  1  6
 13  7  1  0
 14 21  1  0
 14 12  1  0
 15 14  2  0
 17 16  1  0
 17 19  1  0
 18 17  2  0
 20 19  1  6
 20 21  1  0
 22 20  1  0
 23 22  2  0
 24 22  1  0
M  END
$$$$
