MVN.pdb
     RDKit          3D

 24 23  0  0  1  0  0  0  0  0999 V2000
    7.5321  -11.1993   27.1018 C   0  0  0  0  0  0  0  0  0  0  0  0
    5.8435  -11.6768   26.7924 S   0  0  0  0  0  0  0  0  0  0  0  0
    5.3799  -13.3404   27.1083 C   0  0  0  0  0  0  0  0  0  0  0  0
    5.6978  -14.3242   26.0679 C   0  0  0  0  0  0  0  0  0  0  0  0
    7.0198  -14.9904   26.0856 C   0  0  2  0  0  0  0  0  0  0  0  0
    8.0699  -13.9994   26.1517 N   0  0  0  0  0  0  0  0  0  0  0  0
    7.1691  -15.7024   24.7802 C   0  0  0  0  0  0  0  0  0  0  0  0
    6.3774  -16.6147   24.4934 O   0  0  0  0  0  0  0  0  0  0  0  0
    6.9847  -14.4483   21.4794 C   0  0  0  0  0  0  0  0  0  0  0  0
    8.3587  -15.0757   21.5519 C   0  0  1  0  0  0  0  0  0  0  0  0
    9.4589  -14.0634   21.4132 C   0  0  0  0  0  0  0  0  0  0  0  0
    8.5056  -16.0323   22.6785 C   0  0  2  0  0  0  0  0  0  0  0  0
    8.2152  -15.3065   23.9139 N   0  0  0  0  0  0  0  0  0  0  0  0
    9.7967  -16.6914   22.8053 C   0  0  0  0  0  0  0  0  0  0  0  0
   10.7370  -16.0513   23.3439 O   0  0  0  0  0  0  0  0  0  0  0  0
    9.4995  -20.4586   24.6692 N   0  0  0  0  0  0  0  0  0  0  0  0
   10.7928  -19.9440   24.4153 C   0  0  0  0  0  0  0  0  0  0  0  0
   11.4292  -19.4825   25.4292 O   0  0  0  0  0  0  0  0  0  0  0  0
   11.4063  -19.9271   23.0725 C   0  0  0  0  0  0  0  0  0  0  0  0
   11.4313  -18.5183   22.5465 C   0  0  2  0  0  0  0  0  0  0  0  0
   10.0809  -18.0031   22.3686 N   0  0  0  0  0  0  0  0  0  0  0  0
   12.0510  -18.5658   21.1961 C   0  0  0  0  0  0  0  0  0  0  0  0
   11.4725  -18.2711   20.1242 O   0  0  0  0  0  0  0  0  0  0  0  0
   13.3882  -18.9720   21.1104 O   0  0  0  0  0  0  0  0  0  0  0  0
  1  2  1  0
  3  2  1  0
  4  3  1  0
  5  4  1  0
  5  6  1  6
  7  8  2  0
  7  5  1  0
 10  9  1  1
 10 12  1  0
 11 10  1  0
 12 13  1  1
 13  7  1  0
 14 21  1  0
 14 12  1  0
 15 14  2  0
 17 16  1  0
 17 19  1  0
 18 17  2  0
 20 19  1  6
 20 21  1  0
 22 20  1  0
 23 22  2  0
 24 22  1  0
M  END
$$$$
