MVN.pdb
     RDKit          3D

 24 23  0  0  1  0  0  0  0  0999 V2000
   13.8208  -19.3991   19.3455 C   0  0  0  0  0  0  0  0  0  0  0  0
   14.1915  -18.7835   17.7149 S   0  0  0  0  0  0  0  0  0  0  0  0
   14.0003  -17.0646   17.4131 C   0  0  0  0  0  0  0  0  0  0  0  0
   13.0533  -16.3441   18.2707 C   0  0  0  0  0  0  0  0  0  0  0  0
   12.8104  -14.9044   18.0257 C   0  0  2  0  0  0  0  0  0  0  0  0
   14.0662  -14.1889   18.0087 N   0  0  0  0  0  0  0  0  0  0  0  0
   12.0264  -14.3883   19.1886 C   0  0  0  0  0  0  0  0  0  0  0  0
   12.6299  -13.9929   20.1990 O   0  0  0  0  0  0  0  0  0  0  0  0
    7.3755  -13.4527   20.7214 C   0  0  0  0  0  0  0  0  0  0  0  0
    8.4454  -13.5797   19.6603 C   0  0  1  0  0  0  0  0  0  0  0  0
    8.4377  -12.4272   18.6980 C   0  0  0  0  0  0  0  0  0  0  0  0
    9.7749  -13.9457   20.2119 C   0  0  2  0  0  0  0  0  0  0  0  0
   10.6150  -14.3696   19.0931 N   0  0  0  0  0  0  0  0  0  0  0  0
    9.7896  -14.9785   21.2369 C   0  0  0  0  0  0  0  0  0  0  0  0
    9.1529  -14.7645   22.3012 O   0  0  0  0  0  0  0  0  0  0  0  0
    9.1787  -20.1537   23.3636 N   0  0  0  0  0  0  0  0  0  0  0  0
   10.3222  -19.5407   22.7994 C   0  0  0  0  0  0  0  0  0  0  0  0
   11.4520  -19.8654   23.3132 O   0  0  0  0  0  0  0  0  0  0  0  0
   10.2547  -18.5804   21.6800 C   0  0  0  0  0  0  0  0  0  0  0  0
   10.3292  -17.1764   22.2141 C   0  0  2  0  0  0  0  0  0  0  0  0
   10.4670  -16.2122   21.1314 N   0  0  0  0  0  0  0  0  0  0  0  0
   11.5691  -17.0829   23.0289 C   0  0  0  0  0  0  0  0  0  0  0  0
   12.5972  -16.4414   22.7100 O   0  0  0  0  0  0  0  0  0  0  0  0
   11.5942  -17.7648   24.2515 O   0  0  0  0  0  0  0  0  0  0  0  0
  1  2  1  0
  3  2  1  0
  4  3  1  0
  5  4  1  0
  5  6  1  1
  7  8  2  0
  7  5  1  0
 10  9  1  1
 10 12  1  0
 11 10  1  0
 12 13  1  6
 13  7  1  0
 14 21  1  0
 14 12  1  0
 15 14  2  0
 17 16  1  0
 17 19  1  0
 18 17  2  0
 20 19  1  6
 20 21  1  0
 22 20  1  0
 23 22  2  0
 24 22  1  0
M  END
$$$$
