MVN.pdb
     RDKit          3D

 24 23  0  0  1  0  0  0  0  0999 V2000
    5.8174  -11.9820   27.3984 C   0  0  0  0  0  0  0  0  0  0  0  0
    6.8744  -12.4570   26.0449 S   0  0  0  0  0  0  0  0  0  0  0  0
    7.9237  -13.8482   26.2597 C   0  0  0  0  0  0  0  0  0  0  0  0
    7.2729  -15.1252   26.5713 C   0  0  0  0  0  0  0  0  0  0  0  0
    6.3338  -15.7141   25.5899 C   0  0  2  0  0  0  0  0  0  0  0  0
    5.7591  -16.9276   26.1249 N   0  0  0  0  0  0  0  0  0  0  0  0
    7.1382  -16.1002   24.3911 C   0  0  0  0  0  0  0  0  0  0  0  0
    7.7589  -17.1754   24.3982 O   0  0  0  0  0  0  0  0  0  0  0  0
    7.8986  -13.1517   21.3705 C   0  0  0  0  0  0  0  0  0  0  0  0
    7.4669  -14.5582   21.0212 C   0  0  1  0  0  0  0  0  0  0  0  0
    7.7922  -14.9213   19.6010 C   0  0  0  0  0  0  0  0  0  0  0  0
    7.8575  -15.5607   22.0451 C   0  0  2  0  0  0  0  0  0  0  0  0
    7.1620  -15.2188   23.2847 N   0  0  0  0  0  0  0  0  0  0  0  0
    9.2812  -15.6887   22.3171 C   0  0  0  0  0  0  0  0  0  0  0  0
    9.8224  -14.8241   23.0544 O   0  0  0  0  0  0  0  0  0  0  0  0
   10.4208  -18.9705   24.6263 N   0  0  0  0  0  0  0  0  0  0  0  0
   11.3541  -17.9936   24.2064 C   0  0  0  0  0  0  0  0  0  0  0  0
   11.6858  -17.1134   25.0790 O   0  0  0  0  0  0  0  0  0  0  0  0
   11.9354  -17.9619   22.8496 C   0  0  0  0  0  0  0  0  0  0  0  0
   11.5269  -16.6923   22.1547 C   0  0  2  0  0  0  0  0  0  0  0  0
   10.1107  -16.7146   21.8158 N   0  0  0  0  0  0  0  0  0  0  0  0
   12.2721  -16.6369   20.8697 C   0  0  0  0  0  0  0  0  0  0  0  0
   11.7673  -16.7945   19.7336 O   0  0  0  0  0  0  0  0  0  0  0  0
   13.6489  -16.3890   20.9289 O   0  0  0  0  0  0  0  0  0  0  0  0
  1  2  1  0
  3  2  1  0
  4  3  1  0
  5  4  1  0
  5  6  1  1
  7  8  2  0
  7  5  1  0
 10  9  1  1
 10 12  1  0
 11 10  1  0
 12 13  1  1
 13  7  1  0
 14 21  1  0
 14 12  1  0
 15 14  2  0
 17 16  1  0
 17 19  1  0
 18 17  2  0
 20 19  1  6
 20 21  1  0
 22 20  1  0
 23 22  2  0
 24 22  1  0
M  END
$$$$
