MVN.pdb
     RDKit          3D

 24 23  0  0  1  0  0  0  0  0999 V2000
    7.2710  -11.2974   26.6356 C   0  0  0  0  0  0  0  0  0  0  0  0
    6.1583  -12.4703   27.3846 S   0  0  0  0  0  0  0  0  0  0  0  0
    6.6674  -14.1473   27.4898 C   0  0  0  0  0  0  0  0  0  0  0  0
    7.2876  -14.7262   26.2933 C   0  0  0  0  0  0  0  0  0  0  0  0
    6.4377  -15.4440   25.3164 C   0  0  2  0  0  0  0  0  0  0  0  0
    5.8738  -16.6256   25.9287 N   0  0  0  0  0  0  0  0  0  0  0  0
    7.3332  -15.9057   24.2127 C   0  0  0  0  0  0  0  0  0  0  0  0
    7.8344  -17.0400   24.2731 O   0  0  0  0  0  0  0  0  0  0  0  0
    6.5520  -14.6632   20.4498 C   0  0  0  0  0  0  0  0  0  0  0  0
    8.0074  -14.5468   20.8434 C   0  0  1  0  0  0  0  0  0  0  0  0
    8.4572  -13.1190   20.9597 C   0  0  0  0  0  0  0  0  0  0  0  0
    8.3784  -15.4305   21.9780 C   0  0  2  0  0  0  0  0  0  0  0  0
    7.5777  -15.0258   23.1322 N   0  0  0  0  0  0  0  0  0  0  0  0
    9.7838  -15.4463   22.3548 C   0  0  0  0  0  0  0  0  0  0  0  0
   10.1087  -14.9146   23.4483 O   0  0  0  0  0  0  0  0  0  0  0  0
   10.5206  -17.5535   25.3680 N   0  0  0  0  0  0  0  0  0  0  0  0
   11.6328  -17.2649   24.5426 C   0  0  0  0  0  0  0  0  0  0  0  0
   12.5921  -16.6124   25.0904 O   0  0  0  0  0  0  0  0  0  0  0  0
   11.7185  -17.6793   23.1281 C   0  0  0  0  0  0  0  0  0  0  0  0
   12.0190  -16.4823   22.2686 C   0  0  2  0  0  0  0  0  0  0  0  0
   10.8206  -16.0159   21.5850 N   0  0  0  0  0  0  0  0  0  0  0  0
   12.9661  -16.9277   21.2129 C   0  0  0  0  0  0  0  0  0  0  0  0
   12.6690  -17.1261   20.0118 O   0  0  0  0  0  0  0  0  0  0  0  0
   14.2981  -17.1440   21.5864 O   0  0  0  0  0  0  0  0  0  0  0  0
  1  2  1  0
  3  2  1  0
  4  3  1  0
  5  4  1  0
  5  6  1  1
  7  8  2  0
  7  5  1  0
 10  9  1  1
 10 12  1  0
 11 10  1  0
 12 13  1  1
 13  7  1  0
 14 21  1  0
 14 12  1  0
 15 14  2  0
 17 16  1  0
 17 19  1  0
 18 17  2  0
 20 19  1  1
 20 21  1  0
 22 20  1  0
 23 22  2  0
 24 22  1  0
M  END
$$$$
