MVN.pdb
     RDKit          3D

 24 23  0  0  1  0  0  0  0  0999 V2000
    7.5810  -11.5247   27.0564 C   0  0  0  0  0  0  0  0  0  0  0  0
    6.5652  -12.9687   27.2970 S   0  0  0  0  0  0  0  0  0  0  0  0
    7.3543  -14.5351   27.3759 C   0  0  0  0  0  0  0  0  0  0  0  0
    7.6783  -15.1772   26.0976 C   0  0  0  0  0  0  0  0  0  0  0  0
    6.6275  -15.9419   25.3883 C   0  0  2  0  0  0  0  0  0  0  0  0
    6.3891  -17.1963   26.0657 N   0  0  0  0  0  0  0  0  0  0  0  0
    7.1639  -16.2696   24.0325 C   0  0  0  0  0  0  0  0  0  0  0  0
    7.4478  -17.4475   23.7615 O   0  0  0  0  0  0  0  0  0  0  0  0
    8.1921  -13.0093   21.5928 C   0  0  0  0  0  0  0  0  0  0  0  0
    7.5379  -14.2148   20.9561 C   0  0  1  0  0  0  0  0  0  0  0  0
    7.8117  -14.3037   19.4824 C   0  0  0  0  0  0  0  0  0  0  0  0
    7.7489  -15.4682   21.7244 C   0  0  2  0  0  0  0  0  0  0  0  0
    7.3290  -15.2169   23.1020 N   0  0  0  0  0  0  0  0  0  0  0  0
    9.1010  -16.0061   21.7289 C   0  0  0  0  0  0  0  0  0  0  0  0
    9.6447  -16.2483   20.6200 O   0  0  0  0  0  0  0  0  0  0  0  0
   13.1688  -17.3372   20.8559 N   0  0  0  0  0  0  0  0  0  0  0  0
   13.0696  -15.9802   21.2437 C   0  0  0  0  0  0  0  0  0  0  0  0
   13.9150  -15.1747   20.7122 O   0  0  0  0  0  0  0  0  0  0  0  0
   12.0601  -15.4851   22.2006 C   0  0  0  0  0  0  0  0  0  0  0  0
   11.2602  -16.6415   22.7341 C   0  0  2  0  0  0  0  0  0  0  0  0
    9.8579  -16.2799   22.8882 N   0  0  0  0  0  0  0  0  0  0  0  0
   11.7759  -16.9396   24.0961 C   0  0  0  0  0  0  0  0  0  0  0  0
   12.1644  -18.0632   24.4924 O   0  0  0  0  0  0  0  0  0  0  0  0
   11.8339  -15.8829   25.0129 O   0  0  0  0  0  0  0  0  0  0  0  0
  1  2  1  0
  3  2  1  0
  4  3  1  0
  5  4  1  0
  5  6  1  1
  7  8  2  0
  7  5  1  0
 10  9  1  1
 10 12  1  0
 11 10  1  0
 12 13  1  1
 13  7  1  0
 14 21  1  0
 14 12  1  0
 15 14  2  0
 17 16  1  0
 17 19  1  0
 18 17  2  0
 20 19  1  1
 20 21  1  0
 22 20  1  0
 23 22  2  0
 24 22  1  0
M  END
$$$$
