MVN.pdb
     RDKit          3D

 24 23  0  0  1  0  0  0  0  0999 V2000
    6.3893  -11.9396   27.2189 C   0  0  0  0  0  0  0  0  0  0  0  0
    7.5464  -13.1706   27.7853 S   0  0  0  0  0  0  0  0  0  0  0  0
    7.3881  -14.8059   27.1663 C   0  0  0  0  0  0  0  0  0  0  0  0
    6.6170  -14.9729   25.9298 C   0  0  0  0  0  0  0  0  0  0  0  0
    6.4360  -16.3320   25.3713 C   0  0  2  0  0  0  0  0  0  0  0  0
    6.8071  -17.3228   26.3561 N   0  0  0  0  0  0  0  0  0  0  0  0
    7.3914  -16.4675   24.2301 C   0  0  0  0  0  0  0  0  0  0  0  0
    8.1236  -17.4682   24.1681 O   0  0  0  0  0  0  0  0  0  0  0  0
    6.3613  -14.8475   20.6630 C   0  0  0  0  0  0  0  0  0  0  0  0
    7.7879  -14.5636   21.0766 C   0  0  1  0  0  0  0  0  0  0  0  0
    8.0186  -13.1110   21.3786 C   0  0  0  0  0  0  0  0  0  0  0  0
    8.3038  -15.5191   22.0899 C   0  0  2  0  0  0  0  0  0  0  0  0
    7.4253  -15.4421   23.2560 N   0  0  0  0  0  0  0  0  0  0  0  0
    9.6815  -15.3292   22.5178 C   0  0  0  0  0  0  0  0  0  0  0  0
    9.9065  -14.4973   23.4350 O   0  0  0  0  0  0  0  0  0  0  0  0
   13.0213  -19.1886   24.7939 N   0  0  0  0  0  0  0  0  0  0  0  0
   12.5320  -17.8634   24.7151 C   0  0  0  0  0  0  0  0  0  0  0  0
   13.1212  -16.9959   25.4542 O   0  0  0  0  0  0  0  0  0  0  0  0
   11.4111  -17.4667   23.8398 C   0  0  0  0  0  0  0  0  0  0  0  0
   11.8707  -16.4022   22.8820 C   0  0  2  0  0  0  0  0  0  0  0  0
   10.7954  -16.0101   21.9815 N   0  0  0  0  0  0  0  0  0  0  0  0
   12.9363  -17.0033   22.0375 C   0  0  0  0  0  0  0  0  0  0  0  0
   12.7416  -17.6865   21.0051 O   0  0  0  0  0  0  0  0  0  0  0  0
   14.2656  -16.7916   22.4230 O   0  0  0  0  0  0  0  0  0  0  0  0
  1  2  1  0
  3  2  1  0
  4  3  1  0
  5  4  1  0
  5  6  1  1
  7  8  2  0
  7  5  1  0
 10  9  1  1
 10 12  1  0
 11 10  1  0
 12 13  1  1
 13  7  1  0
 14 21  1  0
 14 12  1  0
 15 14  2  0
 17 16  1  0
 17 19  1  0
 18 17  2  0
 20 19  1  1
 20 21  1  0
 22 20  1  0
 23 22  2  0
 24 22  1  0
M  END
$$$$
