VRR.pdb
     RDKit          3D

 30 29  0  0  1  0  0  0  0  0999 V2000
    8.6722  -12.6583   20.8182 C   0  0  0  0  0  0  0  0  0  0  0  0
    7.9077  -13.5156   19.8180 C   0  0  1  0  0  0  0  0  0  0  0  0
    7.6479  -12.7837   18.5437 C   0  0  0  0  0  0  0  0  0  0  0  0
    8.5852  -14.8593   19.6385 C   0  0  2  0  0  0  0  0  0  0  0  0
    7.7931  -15.5437   18.6034 N   0  0  0  0  0  0  0  0  0  0  0  0
    8.5001  -15.6923   20.8593 C   0  0  0  0  0  0  0  0  0  0  0  0
    7.3941  -15.8332   21.4371 O   0  0  0  0  0  0  0  0  0  0  0  0
   13.8769  -20.5061   23.2868 N   0  0  0  0  0  0  0  0  0  0  0  0
   14.0628  -20.3662   21.8894 C   0  0  0  0  0  0  0  0  0  0  0  0
   15.2435  -20.2486   21.3984 N   0  0  0  0  0  0  0  0  0  0  0  0
   12.9226  -20.3575   21.0300 N   0  0  0  0  0  0  0  0  0  0  0  0
   11.5971  -20.1454   21.5675 C   0  0  0  0  0  0  0  0  0  0  0  0
   11.3444  -18.6735   21.9226 C   0  0  0  0  0  0  0  0  0  0  0  0
    9.9057  -18.5392   22.2877 C   0  0  0  0  0  0  0  0  0  0  0  0
    9.5061  -17.1099   22.6977 C   0  0  2  0  0  0  0  0  0  0  0  0
    9.5989  -16.3576   21.4367 N   0  0  0  0  0  0  0  0  0  0  0  0
   10.4315  -16.5510   23.7158 C   0  0  0  0  0  0  0  0  0  0  0  0
   11.5834  -17.0791   23.9050 O   0  0  0  0  0  0  0  0  0  0  0  0
   15.4352  -20.1234   20.3907 N   0  0  0  0  0  0  0  0  0  0  0  0
    7.0618  -11.3433   25.1677 C   0  0  0  0  0  0  0  0  0  0  0  0
    6.2471  -11.6159   26.3041 N   0  0  0  0  0  0  0  0  0  0  0  0
    6.1890  -10.7954   27.2921 N   0  0  0  0  0  0  0  0  0  0  0  0
    5.4669  -12.8225   26.3723 C   0  0  0  0  0  0  0  0  0  0  0  0
    5.9943  -14.0972   25.9786 C   0  0  0  0  0  0  0  0  0  0  0  0
    7.5057  -14.1615   26.1569 C   0  0  0  0  0  0  0  0  0  0  0  0
    8.0510  -15.5266   25.8439 C   0  0  2  0  0  0  0  0  0  0  0  0
    9.5262  -15.5514   25.8673 N   0  0  0  0  0  0  0  0  0  0  0  0
   10.0953  -15.4253   24.5128 C   0  0  0  0  0  0  0  0  0  0  0  0
   10.1639  -16.6643   26.5954 O   0  0  0  0  0  0  0  0  0  0  0  0
   10.5550  -16.6310   27.7867 O   0  0  0  0  0  0  0  0  0  0  0  0
  2  4  1  0
  2  1  1  1
  3  2  1  0
  4  6  1  0
  4  5  1  6
  6  7  2  0
  8  9  1  0
  9 11  1  0
 10  9  2  0
 11 12  1  0
 12 13  1  0
 14 13  1  0
 15 14  1  6
 16 15  1  0
 16  6  1  0
 17 18  2  0
 17 15  1  0
 19 20  1  0
 20 22  1  0
 21 20  2  0
 22 23  1  0
 23 24  1  0
 24 25  1  0
 26 25  1  1
 26 27  1  0
 26 28  1  0
 27 17  1  0
 28 30  1  0
 29 28  2  0
M  END
$$$$
