VRR.pdb
     RDKit          3D

 30 29  0  0  1  0  0  0  0  0999 V2000
    8.4431  -11.4869   25.6343 C   0  0  0  0  0  0  0  0  0  0  0  0
    7.2083  -11.9574   26.3919 C   0  0  1  0  0  0  0  0  0  0  0  0
    6.4519  -10.8156   26.9844 C   0  0  0  0  0  0  0  0  0  0  0  0
    6.3709  -12.8793   25.5285 C   0  0  2  0  0  0  0  0  0  0  0  0
    5.2879  -13.3405   26.4127 N   0  0  0  0  0  0  0  0  0  0  0  0
    7.1220  -14.0849   25.1115 C   0  0  0  0  0  0  0  0  0  0  0  0
    7.3784  -14.9780   25.9563 O   0  0  0  0  0  0  0  0  0  0  0  0
    6.6488  -13.3488   18.2057 N   0  0  0  0  0  0  0  0  0  0  0  0
    8.0249  -13.5102   18.5011 C   0  0  0  0  0  0  0  0  0  0  0  0
    8.8850  -12.6527   18.0841 N   0  0  0  0  0  0  0  0  0  0  0  0
    8.4475  -14.6375   19.2688 N   0  0  0  0  0  0  0  0  0  0  0  0
    7.4863  -15.6099   19.7394 C   0  0  0  0  0  0  0  0  0  0  0  0
    7.2371  -15.4943   21.2496 C   0  0  0  0  0  0  0  0  0  0  0  0
    8.5623  -15.3413   21.9142 C   0  0  0  0  0  0  0  0  0  0  0  0
    8.4920  -15.4137   23.4505 C   0  0  2  0  0  0  0  0  0  0  0  0
    7.5830  -14.3109   23.8001 N   0  0  0  0  0  0  0  0  0  0  0  0
    9.8261  -15.2160   24.0719 C   0  0  0  0  0  0  0  0  0  0  0  0
   10.0681  -14.1691   24.7698 O   0  0  0  0  0  0  0  0  0  0  0  0
    9.9051  -12.7545   18.2145 N   0  0  0  0  0  0  0  0  0  0  0  0
   11.9595  -19.7122   30.3355 C   0  0  0  0  0  0  0  0  0  0  0  0
   11.2351  -20.5450   29.4347 N   0  0  0  0  0  0  0  0  0  0  0  0
   11.2982  -21.8264   29.5178 N   0  0  0  0  0  0  0  0  0  0  0  0
   10.4125  -19.9676   28.4055 C   0  0  0  0  0  0  0  0  0  0  0  0
   10.2974  -18.5491   28.2248 C   0  0  0  0  0  0  0  0  0  0  0  0
   11.2885  -18.0302   27.1910 C   0  0  0  0  0  0  0  0  0  0  0  0
   10.5991  -17.3320   26.0524 C   0  0  1  0  0  0  0  0  0  0  0  0
   11.5611  -16.7683   25.0859 N   0  0  0  0  0  0  0  0  0  0  0  0
   10.8785  -16.1582   23.9298 C   0  0  0  0  0  0  0  0  0  0  0  0
   12.6516  -17.6533   24.6355 O   0  0  0  0  0  0  0  0  0  0  0  0
   13.7415  -17.8328   25.2299 O   0  0  0  0  0  0  0  0  0  0  0  0
  2  4  1  0
  2  1  1  6
  3  2  1  0
  4  6  1  0
  4  5  1  1
  6  7  2  0
  8  9  1  0
  9 11  1  0
 10  9  2  0
 11 12  1  0
 12 13  1  0
 14 13  1  0
 15 14  1  6
 16 15  1  0
 16  6  1  0
 17 18  2  0
 17 15  1  0
 19 20  1  0
 20 22  1  0
 21 20  2  0
 22 23  1  0
 23 24  1  0
 24 25  1  0
 26 25  1  1
 26 27  1  0
 26 28  1  0
 27 17  1  0
 28 30  1  0
 29 28  2  0
M  END
$$$$
