VRR.pdb
     RDKit          3D

 30 29  0  0  1  0  0  0  0  0999 V2000
    6.1940  -16.6936   26.3959 C   0  0  0  0  0  0  0  0  0  0  0  0
    7.1636  -16.5348   25.2320 C   0  0  1  0  0  0  0  0  0  0  0  0
    8.4491  -17.2514   25.4786 C   0  0  0  0  0  0  0  0  0  0  0  0
    6.4902  -16.8945   23.9229 C   0  0  2  0  0  0  0  0  0  0  0  0
    6.0346  -18.2825   24.1042 N   0  0  0  0  0  0  0  0  0  0  0  0
    7.4445  -16.9044   22.7912 C   0  0  0  0  0  0  0  0  0  0  0  0
    7.0955  -17.3994   21.6911 O   0  0  0  0  0  0  0  0  0  0  0  0
    9.6186  -14.3767   17.4658 N   0  0  0  0  0  0  0  0  0  0  0  0
    8.5505  -13.5535   17.0319 C   0  0  0  0  0  0  0  0  0  0  0  0
    8.4383  -13.2316   15.7938 N   0  0  0  0  0  0  0  0  0  0  0  0
    7.5975  -13.0842   17.9860 N   0  0  0  0  0  0  0  0  0  0  0  0
    7.8345  -13.2446   19.4034 C   0  0  0  0  0  0  0  0  0  0  0  0
    8.4034  -14.6293   19.7428 C   0  0  0  0  0  0  0  0  0  0  0  0
    8.5847  -14.6914   21.2208 C   0  0  0  0  0  0  0  0  0  0  0  0
    9.4677  -15.8649   21.6834 C   0  0  2  0  0  0  0  0  0  0  0  0
    8.7516  -16.3846   22.8589 N   0  0  0  0  0  0  0  0  0  0  0  0
   10.8330  -15.4130   22.0534 C   0  0  0  0  0  0  0  0  0  0  0  0
   11.0181  -14.6967   23.0995 O   0  0  0  0  0  0  0  0  0  0  0  0
    7.6613  -12.6636   15.4176 N   0  0  0  0  0  0  0  0  0  0  0  0
   10.4125  -19.7002   27.8857 C   0  0  0  0  0  0  0  0  0  0  0  0
   11.2512  -19.8499   26.7440 N   0  0  0  0  0  0  0  0  0  0  0  0
   11.8509  -20.9609   26.5011 N   0  0  0  0  0  0  0  0  0  0  0  0
   11.4478  -18.7549   25.8320 C   0  0  0  0  0  0  0  0  0  0  0  0
   12.5092  -18.7449   24.8669 C   0  0  0  0  0  0  0  0  0  0  0  0
   12.5160  -17.4594   24.0497 C   0  0  0  0  0  0  0  0  0  0  0  0
   12.5776  -17.7324   22.5731 C   0  0  2  0  0  0  0  0  0  0  0  0
   13.0809  -16.5699   21.8164 N   0  0  0  0  0  0  0  0  0  0  0  0
   11.9790  -15.7466   21.2848 C   0  0  0  0  0  0  0  0  0  0  0  0
   14.0801  -16.8388   20.7654 O   0  0  0  0  0  0  0  0  0  0  0  0
   13.8331  -17.0140   19.5482 O   0  0  0  0  0  0  0  0  0  0  0  0
  2  4  1  0
  2  1  1  1
  3  2  1  0
  4  6  1  0
  4  5  1  1
  6  7  2  0
  8  9  1  0
  9 11  1  0
 10  9  2  0
 11 12  1  0
 12 13  1  0
 14 13  1  0
 15 14  1  1
 16 15  1  0
 16  6  1  0
 17 18  2  0
 17 15  1  0
 19 20  1  0
 20 22  1  0
 21 20  2  0
 22 23  1  0
 23 24  1  0
 24 25  1  0
 26 25  1  1
 26 27  1  0
 26 28  1  0
 27 17  1  0
 28 30  1  0
 29 28  2  0
M  END
$$$$
