VRR.pdb
     RDKit          3D

 30 29  0  0  1  0  0  0  0  0999 V2000
   10.3441  -20.7457   20.7934 C   0  0  0  0  0  0  0  0  0  0  0  0
   10.9002  -20.1272   19.5174 C   0  0  1  0  0  0  0  0  0  0  0  0
   10.9437  -21.1115   18.3966 C   0  0  0  0  0  0  0  0  0  0  0  0
   10.1739  -18.8385   19.1879 C   0  0  2  0  0  0  0  0  0  0  0  0
   10.8613  -18.3145   17.9963 N   0  0  0  0  0  0  0  0  0  0  0  0
   10.3338  -17.8224   20.2526 C   0  0  0  0  0  0  0  0  0  0  0  0
   11.4771  -17.3727   20.5128 O   0  0  0  0  0  0  0  0  0  0  0  0
    6.1535  -12.5425   19.3174 N   0  0  0  0  0  0  0  0  0  0  0  0
    7.0892  -13.1503   18.4445 C   0  0  0  0  0  0  0  0  0  0  0  0
    6.7760  -13.3962   17.2236 N   0  0  0  0  0  0  0  0  0  0  0  0
    8.3868  -13.4875   18.9357 N   0  0  0  0  0  0  0  0  0  0  0  0
    8.5688  -13.9059   20.3078 C   0  0  0  0  0  0  0  0  0  0  0  0
    7.5995  -15.0280   20.7049 C   0  0  0  0  0  0  0  0  0  0  0  0
    8.0426  -15.5593   22.0250 C   0  0  0  0  0  0  0  0  0  0  0  0
    9.4349  -16.2157   21.9879 C   0  0  2  0  0  0  0  0  0  0  0  0
    9.2683  -17.3079   21.0163 N   0  0  0  0  0  0  0  0  0  0  0  0
    9.8280  -16.7467   23.3178 C   0  0  0  0  0  0  0  0  0  0  0  0
    9.0587  -17.5557   23.9466 O   0  0  0  0  0  0  0  0  0  0  0  0
    7.4121  -13.8537   16.5499 N   0  0  0  0  0  0  0  0  0  0  0  0
   15.6610  -14.9952   22.2936 C   0  0  0  0  0  0  0  0  0  0  0  0
   16.1145  -16.3369   22.1400 N   0  0  0  0  0  0  0  0  0  0  0  0
   16.7269  -16.7133   21.0740 N   0  0  0  0  0  0  0  0  0  0  0  0
   15.8959  -17.3065   23.1797 C   0  0  0  0  0  0  0  0  0  0  0  0
   15.1770  -16.9910   24.3806 C   0  0  0  0  0  0  0  0  0  0  0  0
   13.6797  -17.2184   24.2175 C   0  0  0  0  0  0  0  0  0  0  0  0
   12.9162  -16.8440   25.4567 C   0  0  2  0  0  0  0  0  0  0  0  0
   11.4572  -16.9364   25.2562 N   0  0  0  0  0  0  0  0  0  0  0  0
   11.0514  -16.3947   23.9461 C   0  0  0  0  0  0  0  0  0  0  0  0
   10.6002  -16.3959   26.3280 O   0  0  0  0  0  0  0  0  0  0  0  0
    9.8608  -15.3870   26.2354 O   0  0  0  0  0  0  0  0  0  0  0  0
  2  4  1  0
  2  1  1  1
  3  2  1  0
  4  6  1  0
  4  5  1  6
  6  7  2  0
  8  9  1  0
  9 11  1  0
 10  9  2  0
 11 12  1  0
 12 13  1  0
 14 13  1  0
 15 14  1  1
 16 15  1  0
 16  6  1  0
 17 18  2  0
 17 15  1  0
 19 20  1  0
 20 22  1  0
 21 20  2  0
 22 23  1  0
 23 24  1  0
 24 25  1  0
 26 25  1  6
 26 27  1  0
 26 28  1  0
 27 17  1  0
 28 30  1  0
 29 28  2  0
M  END
$$$$
