VRR.pdb
     RDKit          3D

 30 29  0  0  1  0  0  0  0  0999 V2000
    6.0246  -11.3193   27.3502 C   0  0  0  0  0  0  0  0  0  0  0  0
    6.2966  -11.9993   26.0147 C   0  0  1  0  0  0  0  0  0  0  0  0
    7.4884  -11.4193   25.3289 C   0  0  0  0  0  0  0  0  0  0  0  0
    6.3444  -13.5048   26.1818 C   0  0  2  0  0  0  0  0  0  0  0  0
    7.4706  -13.7450   27.0989 N   0  0  0  0  0  0  0  0  0  0  0  0
    6.6736  -14.1947   24.9140 C   0  0  0  0  0  0  0  0  0  0  0  0
    5.7951  -14.3069   24.0237 O   0  0  0  0  0  0  0  0  0  0  0  0
    8.7017  -12.5082   18.1994 N   0  0  0  0  0  0  0  0  0  0  0  0
    8.4376  -13.8080   17.7017 C   0  0  0  0  0  0  0  0  0  0  0  0
    8.6025  -14.0741   16.4563 N   0  0  0  0  0  0  0  0  0  0  0  0
    7.9857  -14.8219   18.5998 N   0  0  0  0  0  0  0  0  0  0  0  0
    7.4799  -14.4737   19.9089 C   0  0  0  0  0  0  0  0  0  0  0  0
    8.5745  -14.5196   20.9841 C   0  0  0  0  0  0  0  0  0  0  0  0
    7.9175  -14.3057   22.3047 C   0  0  0  0  0  0  0  0  0  0  0  0
    8.2489  -15.3959   23.3403 C   0  0  2  0  0  0  0  0  0  0  0  0
    7.9351  -14.7496   24.6242 N   0  0  0  0  0  0  0  0  0  0  0  0
    9.6791  -15.7916   23.2834 C   0  0  0  0  0  0  0  0  0  0  0  0
   10.5957  -14.9616   23.6189 O   0  0  0  0  0  0  0  0  0  0  0  0
    8.4249  -15.0033   16.0405 N   0  0  0  0  0  0  0  0  0  0  0  0
   11.0400  -21.0363   28.6168 C   0  0  0  0  0  0  0  0  0  0  0  0
   11.2359  -19.6254   28.5987 N   0  0  0  0  0  0  0  0  0  0  0  0
   10.5198  -18.8457   29.3281 N   0  0  0  0  0  0  0  0  0  0  0  0
   12.2448  -19.0377   27.7585 C   0  0  0  0  0  0  0  0  0  0  0  0
   12.3010  -19.2821   26.3459 C   0  0  0  0  0  0  0  0  0  0  0  0
   11.2333  -18.4971   25.5950 C   0  0  0  0  0  0  0  0  0  0  0  0
   11.1948  -18.8547   24.1358 C   0  0  2  0  0  0  0  0  0  0  0  0
   11.3838  -17.6735   23.2719 N   0  0  0  0  0  0  0  0  0  0  0  0
   10.0949  -17.0831   22.8657 C   0  0  0  0  0  0  0  0  0  0  0  0
   12.2702  -17.8350   22.1042 O   0  0  0  0  0  0  0  0  0  0  0  0
   11.9274  -18.2729   20.9799 O   0  0  0  0  0  0  0  0  0  0  0  0
  2  4  1  0
  2  1  1  1
  3  2  1  0
  4  6  1  0
  4  5  1  1
  6  7  2  0
  8  9  1  0
  9 11  1  0
 10  9  2  0
 11 12  1  0
 12 13  1  0
 14 13  1  0
 15 14  1  6
 16 15  1  0
 16  6  1  0
 17 18  2  0
 17 15  1  0
 19 20  1  0
 20 22  1  0
 21 20  2  0
 22 23  1  0
 23 24  1  0
 24 25  1  0
 26 25  1  1
 26 27  1  0
 26 28  1  0
 27 17  1  0
 28 30  1  0
 29 28  2  0
M  END
$$$$
