VRR.pdb
     RDKit          3D

 30 29  0  0  1  0  0  0  0  0999 V2000
    4.5639  -18.5554   23.1799 C   0  0  0  0  0  0  0  0  0  0  0  0
    4.8131  -19.3599   21.9107 C   0  0  1  0  0  0  0  0  0  0  0  0
    3.7654  -20.4011   21.6987 C   0  0  0  0  0  0  0  0  0  0  0  0
    5.0246  -18.4378   20.7267 C   0  0  2  0  0  0  0  0  0  0  0  0
    5.2565  -19.3389   19.5860 N   0  0  0  0  0  0  0  0  0  0  0  0
    6.2465  -17.6151   20.8742 C   0  0  0  0  0  0  0  0  0  0  0  0
    7.3660  -18.1780   20.9569 O   0  0  0  0  0  0  0  0  0  0  0  0
    7.6723  -13.0746   16.0206 N   0  0  0  0  0  0  0  0  0  0  0  0
    8.5077  -13.9942   16.7013 C   0  0  0  0  0  0  0  0  0  0  0  0
    9.1465  -14.8983   16.0505 N   0  0  0  0  0  0  0  0  0  0  0  0
    8.6334  -13.9060   18.1208 N   0  0  0  0  0  0  0  0  0  0  0  0
    7.8004  -12.9991   18.8788 C   0  0  0  0  0  0  0  0  0  0  0  0
    8.0586  -13.0997   20.3886 C   0  0  0  0  0  0  0  0  0  0  0  0
    6.9966  -13.9689   20.9699 C   0  0  0  0  0  0  0  0  0  0  0  0
    7.4543  -15.4183   21.2156 C   0  0  2  0  0  0  0  0  0  0  0  0
    6.2462  -16.2079   20.9295 N   0  0  0  0  0  0  0  0  0  0  0  0
    7.9004  -15.6239   22.6170 C   0  0  0  0  0  0  0  0  0  0  0  0
    7.0423  -15.8036   23.5513 O   0  0  0  0  0  0  0  0  0  0  0  0
    9.7344  -15.6199   16.4994 N   0  0  0  0  0  0  0  0  0  0  0  0
    7.7848  -22.5435   25.3933 C   0  0  0  0  0  0  0  0  0  0  0  0
    7.1046  -21.3070   25.1992 N   0  0  0  0  0  0  0  0  0  0  0  0
    5.8338  -21.2705   25.0080 N   0  0  0  0  0  0  0  0  0  0  0  0
    7.8285  -20.0640   25.2124 C   0  0  0  0  0  0  0  0  0  0  0  0
    9.2602  -20.0138   25.2900 C   0  0  0  0  0  0  0  0  0  0  0  0
    9.7741  -18.5799   25.3048 C   0  0  0  0  0  0  0  0  0  0  0  0
    9.3041  -17.8021   24.1078 C   0  0  2  0  0  0  0  0  0  0  0  0
    9.7807  -16.4058   24.1339 N   0  0  0  0  0  0  0  0  0  0  0  0
    9.2715  -15.6342   22.9850 C   0  0  0  0  0  0  0  0  0  0  0  0
   11.2320  -16.1984   24.2947 O   0  0  0  0  0  0  0  0  0  0  0  0
   11.9305  -16.6192   25.2477 O   0  0  0  0  0  0  0  0  0  0  0  0
  2  4  1  0
  2  1  1  1
  3  2  1  0
  4  6  1  0
  4  5  1  6
  6  7  2  0
  8  9  1  0
  9 11  1  0
 10  9  2  0
 11 12  1  0
 12 13  1  0
 14 13  1  0
 15 14  1  1
 16 15  1  0
 16  6  1  0
 17 18  2  0
 17 15  1  0
 19 20  1  0
 20 22  1  0
 21 20  2  0
 22 23  1  0
 23 24  1  0
 24 25  1  0
 26 25  1  1
 26 27  1  0
 26 28  1  0
 27 17  1  0
 28 30  1  0
 29 28  2  0
M  END
$$$$
