VRR.pdb
     RDKit          3D

 30 29  0  0  1  0  0  0  0  0999 V2000
    8.3721  -11.6810   25.8374 C   0  0  0  0  0  0  0  0  0  0  0  0
    7.1027  -12.1975   26.5022 C   0  0  1  0  0  0  0  0  0  0  0  0
    6.4798  -11.1680   27.3848 C   0  0  0  0  0  0  0  0  0  0  0  0
    6.1615  -12.7869   25.4710 C   0  0  2  0  0  0  0  0  0  0  0  0
    5.1523  -13.5155   26.2571 N   0  0  0  0  0  0  0  0  0  0  0  0
    6.8344  -13.7868   24.6114 C   0  0  0  0  0  0  0  0  0  0  0  0
    7.1193  -14.9160   25.0812 O   0  0  0  0  0  0  0  0  0  0  0  0
    8.0917  -15.4054   15.2143 N   0  0  0  0  0  0  0  0  0  0  0  0
    8.3546  -14.5639   16.3233 C   0  0  0  0  0  0  0  0  0  0  0  0
    9.3365  -13.7370   16.2946 N   0  0  0  0  0  0  0  0  0  0  0  0
    7.5155  -14.6439   17.4758 N   0  0  0  0  0  0  0  0  0  0  0  0
    7.8205  -13.8770   18.6631 C   0  0  0  0  0  0  0  0  0  0  0  0
    7.7853  -14.7375   19.9338 C   0  0  0  0  0  0  0  0  0  0  0  0
    8.0630  -13.8415   21.0920 C   0  0  0  0  0  0  0  0  0  0  0  0
    7.9260  -14.5405   22.4570 C   0  0  2  0  0  0  0  0  0  0  0  0
    7.1881  -13.5590   23.2674 N   0  0  0  0  0  0  0  0  0  0  0  0
    9.2510  -14.8342   23.0597 C   0  0  0  0  0  0  0  0  0  0  0  0
   10.0079  -13.8806   23.4590 O   0  0  0  0  0  0  0  0  0  0  0  0
    9.5768  -13.1053   17.0763 N   0  0  0  0  0  0  0  0  0  0  0  0
   11.1769  -19.1760   29.6246 C   0  0  0  0  0  0  0  0  0  0  0  0
   10.4010  -19.6531   28.5292 N   0  0  0  0  0  0  0  0  0  0  0  0
   10.3477  -20.9067   28.2488 N   0  0  0  0  0  0  0  0  0  0  0  0
    9.6558  -18.7377   27.7070 C   0  0  0  0  0  0  0  0  0  0  0  0
   10.2787  -17.6360   27.0314 C   0  0  0  0  0  0  0  0  0  0  0  0
    9.8889  -17.5839   25.5598 C   0  0  0  0  0  0  0  0  0  0  0  0
   11.0919  -17.5940   24.6590 C   0  0  2  0  0  0  0  0  0  0  0  0
   11.0913  -16.4533   23.7230 N   0  0  0  0  0  0  0  0  0  0  0  0
    9.7355  -16.1586   23.2233 C   0  0  0  0  0  0  0  0  0  0  0  0
   12.0546  -16.5043   22.6073 O   0  0  0  0  0  0  0  0  0  0  0  0
   11.7634  -16.4874   21.3874 O   0  0  0  0  0  0  0  0  0  0  0  0
  2  4  1  0
  2  1  1  6
  3  2  1  0
  4  6  1  0
  4  5  1  1
  6  7  2  0
  8  9  1  0
  9 11  1  0
 10  9  2  0
 11 12  1  0
 12 13  1  0
 14 13  1  0
 15 14  1  6
 16 15  1  0
 16  6  1  0
 17 18  2  0
 17 15  1  0
 19 20  1  0
 20 22  1  0
 21 20  2  0
 22 23  1  0
 23 24  1  0
 24 25  1  0
 26 25  1  1
 26 27  1  0
 26 28  1  0
 27 17  1  0
 28 30  1  0
 29 28  2  0
M  END
$$$$
