VRR.pdb
     RDKit          3D

 30 29  0  0  1  0  0  0  0  0999 V2000
    6.0495  -11.2640   27.0964 C   0  0  0  0  0  0  0  0  0  0  0  0
    6.8182  -12.2427   26.2182 C   0  0  1  0  0  0  0  0  0  0  0  0
    7.9021  -12.9347   26.9752 C   0  0  0  0  0  0  0  0  0  0  0  0
    5.8657  -13.1766   25.4988 C   0  0  2  0  0  0  0  0  0  0  0  0
    5.3978  -14.1086   26.5378 N   0  0  0  0  0  0  0  0  0  0  0  0
    6.5554  -13.9929   24.4743 C   0  0  0  0  0  0  0  0  0  0  0  0
    6.7372  -15.2186   24.6785 O   0  0  0  0  0  0  0  0  0  0  0  0
    9.6756  -15.2806   17.0116 N   0  0  0  0  0  0  0  0  0  0  0  0
    8.6029  -14.4454   16.6132 C   0  0  0  0  0  0  0  0  0  0  0  0
    8.4141  -14.1761   15.3719 N   0  0  0  0  0  0  0  0  0  0  0  0
    7.7315  -13.9049   17.6068 N   0  0  0  0  0  0  0  0  0  0  0  0
    7.6216  -14.5277   18.9072 C   0  0  0  0  0  0  0  0  0  0  0  0
    8.6302  -13.9536   19.9118 C   0  0  0  0  0  0  0  0  0  0  0  0
    7.8555  -13.3656   21.0412 C   0  0  0  0  0  0  0  0  0  0  0  0
    7.6894  -14.3215   22.2367 C   0  0  2  0  0  0  0  0  0  0  0  0
    7.0356  -13.4822   23.2529 N   0  0  0  0  0  0  0  0  0  0  0  0
    8.9989  -14.8215   22.7269 C   0  0  0  0  0  0  0  0  0  0  0  0
    9.8313  -14.0223   23.2838 O   0  0  0  0  0  0  0  0  0  0  0  0
    7.6610  -13.5578   15.0279 N   0  0  0  0  0  0  0  0  0  0  0  0
    8.0880  -20.3362   27.0771 C   0  0  0  0  0  0  0  0  0  0  0  0
    9.3109  -19.7087   27.4512 N   0  0  0  0  0  0  0  0  0  0  0  0
    9.3766  -18.9427   28.4816 N   0  0  0  0  0  0  0  0  0  0  0  0
   10.5068  -19.9188   26.6798 C   0  0  0  0  0  0  0  0  0  0  0  0
   10.5382  -19.7462   25.2559 C   0  0  0  0  0  0  0  0  0  0  0  0
   10.6135  -18.2752   24.8678 C   0  0  0  0  0  0  0  0  0  0  0  0
   10.7001  -18.0906   23.3787 C   0  0  2  0  0  0  0  0  0  0  0  0
   10.7239  -16.6650   22.9989 N   0  0  0  0  0  0  0  0  0  0  0  0
    9.3862  -16.1822   22.6086 C   0  0  0  0  0  0  0  0  0  0  0  0
   11.7327  -16.2556   22.0039 O   0  0  0  0  0  0  0  0  0  0  0  0
   12.9558  -16.0899   22.2270 O   0  0  0  0  0  0  0  0  0  0  0  0
  2  4  1  0
  2  1  1  1
  3  2  1  0
  4  6  1  0
  4  5  1  1
  6  7  2  0
  8  9  1  0
  9 11  1  0
 10  9  2  0
 11 12  1  0
 12 13  1  0
 14 13  1  0
 15 14  1  6
 16 15  1  0
 16  6  1  0
 17 18  2  0
 17 15  1  0
 19 20  1  0
 20 22  1  0
 21 20  2  0
 22 23  1  0
 23 24  1  0
 24 25  1  0
 26 25  1  1
 26 27  1  0
 26 28  1  0
 27 17  1  0
 28 30  1  0
 29 28  2  0
M  END
$$$$
