VRR.pdb
     RDKit          3D

 30 29  0  0  1  0  0  0  0  0999 V2000
   10.2974  -13.6474   26.7531 C   0  0  0  0  0  0  0  0  0  0  0  0
    9.1703  -13.8102   27.7647 C   0  0  1  0  0  0  0  0  0  0  0  0
    7.8592  -13.3604   27.2121 C   0  0  0  0  0  0  0  0  0  0  0  0
    9.1594  -15.2160   28.3306 C   0  0  2  0  0  0  0  0  0  0  0  0
   10.5064  -15.4043   28.8939 N   0  0  0  0  0  0  0  0  0  0  0  0
    8.9933  -16.2394   27.2739 C   0  0  0  0  0  0  0  0  0  0  0  0
    9.9473  -16.4866   26.4957 O   0  0  0  0  0  0  0  0  0  0  0  0
    5.1833  -23.8556   27.7795 N   0  0  0  0  0  0  0  0  0  0  0  0
    6.4640  -24.0211   27.1971 C   0  0  0  0  0  0  0  0  0  0  0  0
    6.9705  -25.1932   27.0608 N   0  0  0  0  0  0  0  0  0  0  0  0
    7.1880  -22.8700   26.7617 N   0  0  0  0  0  0  0  0  0  0  0  0
    6.6438  -21.5435   26.9495 C   0  0  0  0  0  0  0  0  0  0  0  0
    7.4916  -20.4662   26.2590 C   0  0  0  0  0  0  0  0  0  0  0  0
    6.9494  -19.1384   26.6644 C   0  0  0  0  0  0  0  0  0  0  0  0
    7.6532  -17.9519   25.9806 C   0  0  2  0  0  0  0  0  0  0  0  0
    7.8111  -16.9776   27.0716 N   0  0  0  0  0  0  0  0  0  0  0  0
    6.8321  -17.3853   24.8807 C   0  0  0  0  0  0  0  0  0  0  0  0
    6.1114  -16.3447   25.0789 O   0  0  0  0  0  0  0  0  0  0  0  0
    7.9089  -25.3696   26.6655 N   0  0  0  0  0  0  0  0  0  0  0  0
    7.7512  -11.1635   18.6134 C   0  0  0  0  0  0  0  0  0  0  0  0
    8.0579  -12.4387   19.1696 N   0  0  0  0  0  0  0  0  0  0  0  0
    8.6928  -13.3253   18.4887 N   0  0  0  0  0  0  0  0  0  0  0  0
    7.6614  -12.7651   20.5133 C   0  0  0  0  0  0  0  0  0  0  0  0
    8.2652  -13.8386   21.2491 C   0  0  0  0  0  0  0  0  0  0  0  0
    7.4408  -15.1164   21.1606 C   0  0  0  0  0  0  0  0  0  0  0  0
    7.4979  -15.9115   22.4347 C   0  0  1  0  0  0  0  0  0  0  0  0
    6.6813  -17.1381   22.3580 N   0  0  0  0  0  0  0  0  0  0  0  0
    6.8063  -17.9539   23.5801 C   0  0  0  0  0  0  0  0  0  0  0  0
    6.8473  -17.9769   21.1563 O   0  0  0  0  0  0  0  0  0  0  0  0
    6.7141  -17.5913   19.9702 O   0  0  0  0  0  0  0  0  0  0  0  0
  2  4  1  0
  2  1  1  6
  3  2  1  0
  4  6  1  0
  4  5  1  6
  6  7  2  0
  8  9  1  0
  9 11  1  0
 10  9  2  0
 11 12  1  0
 12 13  1  0
 14 13  1  0
 15 14  1  1
 16 15  1  0
 16  6  1  0
 17 18  2  0
 17 15  1  0
 19 20  1  0
 20 22  1  0
 21 20  2  0
 22 23  1  0
 23 24  1  0
 24 25  1  0
 26 25  1  1
 26 27  1  0
 26 28  1  0
 27 17  1  0
 28 30  1  0
 29 28  2  0
M  END
$$$$
