PKI.pdb
     RDKit          3D

 25 25  0  0  1  0  0  0  0  0999 V2000
   27.0383  -19.9443  -15.3364 N   0  0  0  0  0  0  0  0  0  0  0  0
   28.1500  -20.2891  -16.2081 C   0  0  0  0  0  0  0  0  0  0  0  0
   29.0146  -21.2385  -15.4308 C   0  0  0  0  0  0  0  0  0  0  0  0
   28.7716  -20.7543  -13.9932 C   0  0  0  0  0  0  0  0  0  0  0  0
   27.2602  -20.6155  -14.0924 C   0  0  1  0  0  0  0  0  0  0  0  0
   26.6209  -20.0137  -12.9382 C   0  0  0  0  0  0  0  0  0  0  0  0
   26.6606  -18.7540  -12.7097 O   0  0  0  0  0  0  0  0  0  0  0  0
   25.9148  -20.7851  -11.9930 N   0  0  0  0  0  0  0  0  0  0  0  0
   25.1904  -20.1512  -10.8793 C   0  0  1  0  0  0  0  0  0  0  0  0
   23.7336  -20.5307  -10.9817 C   0  0  0  0  0  0  0  0  0  0  0  0
   23.0658  -19.9807  -12.2145 C   0  0  0  0  0  0  0  0  0  0  0  0
   21.6375  -20.4039  -12.3359 C   0  0  0  0  0  0  0  0  0  0  0  0
   20.9944  -19.8980  -13.6092 C   0  0  0  0  0  0  0  0  0  0  0  0
   20.4396  -21.0446  -14.3195 N   0  0  0  0  0  0  0  0  0  0  0  0
   25.7071  -20.7753   -9.6297 C   0  0  0  0  0  0  0  0  0  0  0  0
   25.9598  -22.0017   -9.5845 O   0  0  0  0  0  0  0  0  0  0  0  0
   28.9068  -17.9893   -6.1222 C   0  0  0  0  0  0  0  0  0  0  0  0
   28.3198  -19.1148   -6.8884 C   0  0  0  0  0  0  0  0  0  0  0  0
   27.1837  -19.8483   -6.2933 C   0  0  2  0  0  0  0  0  0  0  0  0
   27.5721  -20.6318   -5.0478 C   0  0  0  0  0  0  0  0  0  0  0  0
   26.3804  -20.6563   -7.2445 C   0  0  2  0  0  0  0  0  0  0  0  0
   25.9350  -20.0144   -8.4423 N   0  0  0  0  0  0  0  0  0  0  0  0
   25.1966  -21.2456   -6.5327 C   0  0  0  0  0  0  0  0  0  0  0  0
   23.9214  -20.8981   -6.9378 O   0  0  0  0  0  0  0  0  0  0  0  0
   25.3183  -22.0481   -5.5760 O   0  0  0  0  0  0  0  0  0  0  0  0
  1  2  1  0
  2  3  1  0
  4  3  1  0
  5  1  1  0
  5  4  1  0
  5  6  1  1
  7  6  2  0
  8  6  1  0
  9  8  1  0
  9 10  1  6
 10 11  1  0
 11 12  1  0
 12 13  1  0
 13 14  1  0
 15  9  1  0
 16 15  2  0
 18 17  1  0
 18 19  1  0
 19 21  1  0
 19 20  1  1
 21 22  1  6
 22 15  1  0
 23 24  1  0
 23 21  1  0
 25 23  2  0
M  END
$$$$
