PKI.pdb
     RDKit          3D

 25 25  0  0  1  0  0  0  0  0999 V2000
   27.5225  -21.1888  -16.9004 N   0  0  0  0  0  0  0  0  0  0  0  0
   28.1736  -21.1545  -18.2001 C   0  0  0  0  0  0  0  0  0  0  0  0
   29.3643  -20.2530  -18.0498 C   0  0  0  0  0  0  0  0  0  0  0  0
   28.8654  -19.2768  -16.9736 C   0  0  0  0  0  0  0  0  0  0  0  0
   28.2609  -20.3152  -16.0409 C   0  0  1  0  0  0  0  0  0  0  0  0
   27.5198  -19.7753  -14.9174 C   0  0  0  0  0  0  0  0  0  0  0  0
   28.0269  -18.9252  -14.1045 O   0  0  0  0  0  0  0  0  0  0  0  0
   26.1893  -20.1577  -14.6515 N   0  0  0  0  0  0  0  0  0  0  0  0
   25.3851  -19.4635  -13.6327 C   0  0  1  0  0  0  0  0  0  0  0  0
   23.9470  -19.4502  -14.0891 C   0  0  0  0  0  0  0  0  0  0  0  0
   23.7084  -18.5352  -15.2613 C   0  0  0  0  0  0  0  0  0  0  0  0
   22.2670  -18.4554  -15.6483 C   0  0  0  0  0  0  0  0  0  0  0  0
   22.0470  -17.5896  -16.8702 C   0  0  0  0  0  0  0  0  0  0  0  0
   20.6095  -17.4808  -17.0918 N   0  0  0  0  0  0  0  0  0  0  0  0
   25.4361  -20.3077  -12.4069 C   0  0  0  0  0  0  0  0  0  0  0  0
   25.5523  -21.5524  -12.4920 O   0  0  0  0  0  0  0  0  0  0  0  0
   28.0112  -18.7677   -7.8017 C   0  0  0  0  0  0  0  0  0  0  0  0
   27.3942  -19.5355   -8.9100 C   0  0  0  0  0  0  0  0  0  0  0  0
   26.0274  -20.0629   -8.7190 C   0  0  2  0  0  0  0  0  0  0  0  0
   25.9227  -21.0242   -7.5438 C   0  0  0  0  0  0  0  0  0  0  0  0
   25.3721  -20.5889   -9.9424 C   0  0  2  0  0  0  0  0  0  0  0  0
   25.3559  -19.7444  -11.0965 N   0  0  0  0  0  0  0  0  0  0  0  0
   23.9669  -21.0106   -9.6216 C   0  0  0  0  0  0  0  0  0  0  0  0
   23.7526  -22.2099   -8.9685 O   0  0  0  0  0  0  0  0  0  0  0  0
   22.9697  -20.3123   -9.9248 O   0  0  0  0  0  0  0  0  0  0  0  0
  1  2  1  0
  2  3  1  0
  4  3  1  0
  5  1  1  0
  5  4  1  0
  5  6  1  1
  7  6  2  0
  8  6  1  0
  9  8  1  0
  9 10  1  6
 10 11  1  0
 11 12  1  0
 12 13  1  0
 13 14  1  0
 15  9  1  0
 16 15  2  0
 18 17  1  0
 18 19  1  0
 19 21  1  0
 19 20  1  1
 21 22  1  6
 22 15  1  0
 23 24  1  0
 23 21  1  0
 25 23  2  0
M  END
$$$$
