PKI.pdb
     RDKit          3D

 25 25  0  0  1  0  0  0  0  0999 V2000
   28.3931  -22.1489  -15.6654 N   0  0  0  0  0  0  0  0  0  0  0  0
   28.8920  -22.4517  -16.9973 C   0  0  0  0  0  0  0  0  0  0  0  0
   29.2586  -21.1351  -17.6180 C   0  0  0  0  0  0  0  0  0  0  0  0
   28.2501  -20.1949  -16.9406 C   0  0  0  0  0  0  0  0  0  0  0  0
   28.4173  -20.7253  -15.5248 C   0  0  1  0  0  0  0  0  0  0  0  0
   27.4913  -20.1806  -14.5508 C   0  0  0  0  0  0  0  0  0  0  0  0
   27.3915  -18.9236  -14.3256 O   0  0  0  0  0  0  0  0  0  0  0  0
   26.6419  -21.0080  -13.7886 N   0  0  0  0  0  0  0  0  0  0  0  0
   25.5333  -20.4442  -13.0012 C   0  0  1  0  0  0  0  0  0  0  0  0
   24.2359  -20.9817  -13.5530 C   0  0  0  0  0  0  0  0  0  0  0  0
   23.0306  -20.2092  -13.0852 C   0  0  0  0  0  0  0  0  0  0  0  0
   21.8027  -21.0560  -12.9896 C   0  0  0  0  0  0  0  0  0  0  0  0
   20.5349  -20.2294  -12.9669 C   0  0  0  0  0  0  0  0  0  0  0  0
   19.4028  -21.1444  -12.8751 N   0  0  0  0  0  0  0  0  0  0  0  0
   25.6713  -20.9935  -11.6238 C   0  0  0  0  0  0  0  0  0  0  0  0
   26.0049  -22.1876  -11.4420 O   0  0  0  0  0  0  0  0  0  0  0  0
   28.5627  -19.0863   -7.6930 C   0  0  0  0  0  0  0  0  0  0  0  0
   27.7280  -20.0287   -8.4764 C   0  0  0  0  0  0  0  0  0  0  0  0
   26.2975  -20.1513   -8.1277 C   0  0  2  0  0  0  0  0  0  0  0  0
   26.0742  -20.7437   -6.7438 C   0  0  0  0  0  0  0  0  0  0  0  0
   25.4433  -20.7871   -9.1616 C   0  0  2  0  0  0  0  0  0  0  0  0
   25.4330  -20.1951  -10.4635 N   0  0  0  0  0  0  0  0  0  0  0  0
   24.0326  -20.8914   -8.6575 C   0  0  0  0  0  0  0  0  0  0  0  0
   23.0231  -20.2269   -9.3285 O   0  0  0  0  0  0  0  0  0  0  0  0
   23.7294  -21.5635   -7.6424 O   0  0  0  0  0  0  0  0  0  0  0  0
  1  2  1  0
  2  3  1  0
  4  3  1  0
  5  1  1  0
  5  4  1  0
  5  6  1  1
  7  6  2  0
  8  6  1  0
  9  8  1  0
  9 10  1  6
 10 11  1  0
 11 12  1  0
 12 13  1  0
 13 14  1  0
 15  9  1  0
 16 15  2  0
 18 17  1  0
 18 19  1  0
 19 21  1  0
 19 20  1  1
 21 22  1  6
 22 15  1  0
 23 24  1  0
 23 21  1  0
 25 23  2  0
M  END
$$$$
