PKI.pdb
     RDKit          3D

 25 25  0  0  1  0  0  0  0  0999 V2000
   18.7440  -20.2806  -15.9847 N   0  0  0  0  0  0  0  0  0  0  0  0
   17.4257  -20.3560  -16.5936 C   0  0  0  0  0  0  0  0  0  0  0  0
   16.8991  -21.7277  -16.2869 C   0  0  0  0  0  0  0  0  0  0  0  0
   18.2011  -22.5411  -16.2296 C   0  0  0  0  0  0  0  0  0  0  0  0
   19.0032  -21.5568  -15.3921 C   0  0  1  0  0  0  0  0  0  0  0  0
   20.4041  -21.8916  -15.2236 C   0  0  0  0  0  0  0  0  0  0  0  0
   20.7953  -22.8538  -14.4742 O   0  0  0  0  0  0  0  0  0  0  0  0
   21.4244  -21.1720  -15.8781 N   0  0  0  0  0  0  0  0  0  0  0  0
   22.8357  -21.5744  -15.7634 C   0  0  1  0  0  0  0  0  0  0  0  0
   23.5426  -21.2011  -17.0430 C   0  0  0  0  0  0  0  0  0  0  0  0
   25.0391  -21.3449  -16.9541 C   0  0  0  0  0  0  0  0  0  0  0  0
   25.5069  -22.7281  -17.2730 C   0  0  0  0  0  0  0  0  0  0  0  0
   27.0131  -22.8573  -17.1972 C   0  0  0  0  0  0  0  0  0  0  0  0
   27.3671  -24.2219  -17.5708 N   0  0  0  0  0  0  0  0  0  0  0  0
   23.4286  -20.7331  -14.6871 C   0  0  0  0  0  0  0  0  0  0  0  0
   23.0368  -19.5568  -14.5058 O   0  0  0  0  0  0  0  0  0  0  0  0
   25.4370  -20.2301   -8.9991 C   0  0  0  0  0  0  0  0  0  0  0  0
   25.5055  -19.8583  -10.4329 C   0  0  0  0  0  0  0  0  0  0  0  0
   25.0407  -20.8414  -11.4330 C   0  0  2  0  0  0  0  0  0  0  0  0
   25.7019  -22.2031  -11.2762 C   0  0  0  0  0  0  0  0  0  0  0  0
   25.0441  -20.3676  -12.8395 C   0  0  2  0  0  0  0  0  0  0  0  0
   24.4569  -21.2222  -13.8245 N   0  0  0  0  0  0  0  0  0  0  0  0
   26.4468  -20.0289  -13.2553 C   0  0  0  0  0  0  0  0  0  0  0  0
   27.0663  -18.9210  -12.7078 O   0  0  0  0  0  0  0  0  0  0  0  0
   27.0861  -20.7168  -14.0872 O   0  0  0  0  0  0  0  0  0  0  0  0
  1  2  1  0
  2  3  1  0
  4  3  1  0
  5  1  1  0
  5  4  1  0
  5  6  1  6
  7  6  2  0
  8  6  1  0
  9  8  1  0
  9 10  1  6
 10 11  1  0
 11 12  1  0
 12 13  1  0
 13 14  1  0
 15  9  1  0
 16 15  2  0
 18 17  1  0
 18 19  1  0
 19 21  1  0
 19 20  1  6
 21 22  1  6
 22 15  1  0
 23 24  1  0
 23 21  1  0
 25 23  2  0
M  END
$$$$
