PKI.pdb
     RDKit          3D

 25 25  0  0  1  0  0  0  0  0999 V2000
   28.1433  -21.7263  -15.9602 N   0  0  0  0  0  0  0  0  0  0  0  0
   28.7866  -21.6940  -17.2639 C   0  0  0  0  0  0  0  0  0  0  0  0
   29.5215  -20.3873  -17.3376 C   0  0  0  0  0  0  0  0  0  0  0  0
   28.6327  -19.4951  -16.4576 C   0  0  0  0  0  0  0  0  0  0  0  0
   28.4417  -20.4834  -15.3172 C   0  0  1  0  0  0  0  0  0  0  0  0
   27.4989  -20.0692  -14.2961 C   0  0  0  0  0  0  0  0  0  0  0  0
   27.5864  -18.9402  -13.6975 O   0  0  0  0  0  0  0  0  0  0  0  0
   26.4245  -20.8907  -13.8988 N   0  0  0  0  0  0  0  0  0  0  0  0
   25.3024  -20.3522  -13.1129 C   0  0  1  0  0  0  0  0  0  0  0  0
   24.0140  -20.8524  -13.7182 C   0  0  0  0  0  0  0  0  0  0  0  0
   22.7916  -20.3875  -12.9713 C   0  0  0  0  0  0  0  0  0  0  0  0
   21.7864  -19.7296  -13.8604 C   0  0  0  0  0  0  0  0  0  0  0  0
   20.6091  -19.1765  -13.0864 C   0  0  0  0  0  0  0  0  0  0  0  0
   19.6748  -18.5946  -14.0432 N   0  0  0  0  0  0  0  0  0  0  0  0
   25.4034  -20.9635  -11.7587 C   0  0  0  0  0  0  0  0  0  0  0  0
   25.7786  -22.1509  -11.6193 O   0  0  0  0  0  0  0  0  0  0  0  0
   28.2051  -18.9343   -7.8706 C   0  0  0  0  0  0  0  0  0  0  0  0
   27.4231  -19.9168   -8.6591 C   0  0  0  0  0  0  0  0  0  0  0  0
   26.0213  -20.1705   -8.2674 C   0  0  2  0  0  0  0  0  0  0  0  0
   25.8976  -20.8116   -6.8927 C   0  0  0  0  0  0  0  0  0  0  0  0
   25.1894  -20.8537   -9.2890 C   0  0  2  0  0  0  0  0  0  0  0  0
   25.0815  -20.2339  -10.5734 N   0  0  0  0  0  0  0  0  0  0  0  0
   23.8118  -21.0932   -8.7412 C   0  0  0  0  0  0  0  0  0  0  0  0
   22.7398  -20.4080   -9.2818 O   0  0  0  0  0  0  0  0  0  0  0  0
   23.5914  -21.8975   -7.8038 O   0  0  0  0  0  0  0  0  0  0  0  0
  1  2  1  0
  2  3  1  0
  4  3  1  0
  5  1  1  0
  5  4  1  0
  5  6  1  1
  7  6  2  0
  8  6  1  0
  9  8  1  0
  9 10  1  6
 10 11  1  0
 11 12  1  0
 12 13  1  0
 13 14  1  0
 15  9  1  0
 16 15  2  0
 18 17  1  0
 18 19  1  0
 19 21  1  0
 19 20  1  1
 21 22  1  6
 22 15  1  0
 23 24  1  0
 23 21  1  0
 25 23  2  0
M  END
$$$$
