PKI.pdb
     RDKit          3D

 25 25  0  0  1  0  0  0  0  0999 V2000
   31.7778  -22.8704  -12.7959 N   0  0  0  0  0  0  0  0  0  0  0  0
   33.1894  -23.2170  -12.7540 C   0  0  0  0  0  0  0  0  0  0  0  0
   33.6764  -22.8314  -11.3875 C   0  0  0  0  0  0  0  0  0  0  0  0
   32.7629  -21.6374  -11.0713 C   0  0  0  0  0  0  0  0  0  0  0  0
   31.4592  -22.2668  -11.5383 C   0  0  1  0  0  0  0  0  0  0  0  0
   30.3152  -21.3757  -11.5481 C   0  0  0  0  0  0  0  0  0  0  0  0
   29.9790  -20.6778  -10.5280 O   0  0  0  0  0  0  0  0  0  0  0  0
   29.4996  -21.2252  -12.6879 N   0  0  0  0  0  0  0  0  0  0  0  0
   28.4527  -20.1921  -12.7459 C   0  0  1  0  0  0  0  0  0  0  0  0
   28.0211  -20.0317  -14.1828 C   0  0  0  0  0  0  0  0  0  0  0  0
   26.9275  -19.0115  -14.3601 C   0  0  0  0  0  0  0  0  0  0  0  0
   26.5484  -18.8135  -15.7922 C   0  0  0  0  0  0  0  0  0  0  0  0
   25.5752  -17.6688  -15.9762 C   0  0  0  0  0  0  0  0  0  0  0  0
   25.2513  -17.5772  -17.3953 N   0  0  0  0  0  0  0  0  0  0  0  0
   27.2803  -20.7367  -12.0064 C   0  0  0  0  0  0  0  0  0  0  0  0
   26.8863  -21.9092  -12.2066 O   0  0  0  0  0  0  0  0  0  0  0  0
   27.2156  -19.2982   -6.8669 C   0  0  0  0  0  0  0  0  0  0  0  0
   27.0433  -20.0805   -8.1146 C   0  0  0  0  0  0  0  0  0  0  0  0
   25.6970  -20.1437   -8.7198 C   0  0  2  0  0  0  0  0  0  0  0  0
   24.6914  -20.8847   -7.8504 C   0  0  0  0  0  0  0  0  0  0  0  0
   25.6567  -20.5855  -10.1361 C   0  0  2  0  0  0  0  0  0  0  0  0
   26.5617  -19.9578  -11.0484 N   0  0  0  0  0  0  0  0  0  0  0  0
   24.2572  -20.4581  -10.6656 C   0  0  0  0  0  0  0  0  0  0  0  0
   23.2900  -21.3513  -10.2440 O   0  0  0  0  0  0  0  0  0  0  0  0
   23.9262  -19.5657  -11.4829 O   0  0  0  0  0  0  0  0  0  0  0  0
  1  2  1  0
  2  3  1  0
  4  3  1  0
  5  1  1  0
  5  4  1  0
  5  6  1  6
  7  6  2  0
  8  6  1  0
  9  8  1  0
  9 10  1  6
 10 11  1  0
 11 12  1  0
 12 13  1  0
 13 14  1  0
 15  9  1  0
 16 15  2  0
 18 17  1  0
 18 19  1  0
 19 21  1  0
 19 20  1  1
 21 22  1  6
 22 15  1  0
 23 24  1  0
 23 21  1  0
 25 23  2  0
M  END
$$$$
