PKI.pdb
     RDKit          3D

 25 25  0  0  1  0  0  0  0  0999 V2000
   20.0723  -12.3039  -17.2574 N   0  0  0  0  0  0  0  0  0  0  0  0
   20.2838  -13.2478  -18.3431 C   0  0  0  0  0  0  0  0  0  0  0  0
   20.9215  -12.4702  -19.4576 C   0  0  0  0  0  0  0  0  0  0  0  0
   20.3189  -11.0754  -19.2309 C   0  0  0  0  0  0  0  0  0  0  0  0
   20.5161  -11.0260  -17.7235 C   0  0  1  0  0  0  0  0  0  0  0  0
   19.9196   -9.8813  -17.0626 C   0  0  0  0  0  0  0  0  0  0  0  0
   19.0135   -9.1640  -17.6150 O   0  0  0  0  0  0  0  0  0  0  0  0
   20.3055   -9.4872  -15.7653 N   0  0  0  0  0  0  0  0  0  0  0  0
   19.6002   -8.4084  -15.0543 C   0  0  1  0  0  0  0  0  0  0  0  0
   19.0825   -8.9583  -13.7481 C   0  0  0  0  0  0  0  0  0  0  0  0
   18.3732   -7.9253  -12.9127 C   0  0  0  0  0  0  0  0  0  0  0  0
   17.8805   -8.4726  -11.6121 C   0  0  0  0  0  0  0  0  0  0  0  0
   17.1030   -7.4474  -10.8147 C   0  0  0  0  0  0  0  0  0  0  0  0
   16.6137   -8.0961   -9.6036 N   0  0  0  0  0  0  0  0  0  0  0  0
   20.6280   -7.3871  -14.7099 C   0  0  0  0  0  0  0  0  0  0  0  0
   21.7826   -7.7322  -14.3665 O   0  0  0  0  0  0  0  0  0  0  0  0
   21.0079   -2.9828  -17.8291 C   0  0  0  0  0  0  0  0  0  0  0  0
   21.2628   -4.1197  -16.9121 C   0  0  0  0  0  0  0  0  0  0  0  0
   21.3871   -3.8381  -15.4670 C   0  0  2  0  0  0  0  0  0  0  0  0
   22.5156   -2.8681  -15.1481 C   0  0  0  0  0  0  0  0  0  0  0  0
   21.3988   -5.0319  -14.5853 C   0  0  2  0  0  0  0  0  0  0  0  0
   20.3479   -5.9870  -14.7549 N   0  0  0  0  0  0  0  0  0  0  0  0
   21.4422   -4.5982  -13.1482 C   0  0  0  0  0  0  0  0  0  0  0  0
   22.6376   -4.1610  -12.6089 O   0  0  0  0  0  0  0  0  0  0  0  0
   20.4283   -4.6166  -12.4095 O   0  0  0  0  0  0  0  0  0  0  0  0
  1  2  1  0
  2  3  1  0
  4  3  1  0
  5  1  1  0
  5  4  1  0
  5  6  1  1
  7  6  2  0
  8  6  1  0
  9  8  1  0
  9 10  1  1
 10 11  1  0
 11 12  1  0
 12 13  1  0
 13 14  1  0
 15  9  1  0
 16 15  2  0
 18 17  1  0
 18 19  1  0
 19 21  1  0
 19 20  1  6
 21 22  1  1
 22 15  1  0
 23 24  1  0
 23 21  1  0
 25 23  2  0
M  END
$$$$
