PKI.pdb
     RDKit          3D

 25 25  0  0  1  0  0  0  0  0999 V2000
   28.1114  -19.8901  -15.2728 N   0  0  0  0  0  0  0  0  0  0  0  0
   28.4630  -19.3682  -16.5837 C   0  0  0  0  0  0  0  0  0  0  0  0
   28.4129  -17.8725  -16.4677 C   0  0  0  0  0  0  0  0  0  0  0  0
   27.3244  -17.6924  -15.3987 C   0  0  0  0  0  0  0  0  0  0  0  0
   27.8210  -18.7636  -14.4397 C   0  0  1  0  0  0  0  0  0  0  0  0
   26.9490  -19.0319  -13.3125 C   0  0  0  0  0  0  0  0  0  0  0  0
   26.4958  -18.1015  -12.5578 O   0  0  0  0  0  0  0  0  0  0  0  0
   26.5474  -20.3411  -12.9782 N   0  0  0  0  0  0  0  0  0  0  0  0
   25.5217  -20.5855  -11.9511 C   0  0  1  0  0  0  0  0  0  0  0  0
   24.7659  -21.8377  -12.3216 C   0  0  0  0  0  0  0  0  0  0  0  0
   23.7378  -21.6095  -13.3984 C   0  0  0  0  0  0  0  0  0  0  0  0
   22.9538  -22.8408  -13.7193 C   0  0  0  0  0  0  0  0  0  0  0  0
   22.2638  -22.7489  -15.0634 C   0  0  0  0  0  0  0  0  0  0  0  0
   21.5196  -23.9856  -15.2728 N   0  0  0  0  0  0  0  0  0  0  0  0
   26.2517  -20.8856  -10.6882 C   0  0  0  0  0  0  0  0  0  0  0  0
   27.3009  -21.5706  -10.7032 O   0  0  0  0  0  0  0  0  0  0  0  0
   29.0939  -19.2720   -5.8002 C   0  0  0  0  0  0  0  0  0  0  0  0
   28.1091  -20.2010   -6.4049 C   0  0  0  0  0  0  0  0  0  0  0  0
   27.3936  -19.7658   -7.6221 C   0  0  2  0  0  0  0  0  0  0  0  0
   26.7293  -18.4058   -7.4639 C   0  0  0  0  0  0  0  0  0  0  0  0
   26.4845  -20.7751   -8.2203 C   0  0  2  0  0  0  0  0  0  0  0  0
   25.7952  -20.4127   -9.4198 N   0  0  0  0  0  0  0  0  0  0  0  0
   25.4840  -21.2250   -7.1946 C   0  0  0  0  0  0  0  0  0  0  0  0
   25.9241  -21.8921   -6.0668 O   0  0  0  0  0  0  0  0  0  0  0  0
   24.2530  -21.0182   -7.3204 O   0  0  0  0  0  0  0  0  0  0  0  0
  1  2  1  0
  2  3  1  0
  4  3  1  0
  5  1  1  0
  5  4  1  0
  5  6  1  1
  7  6  2  0
  8  6  1  0
  9  8  1  0
  9 10  1  6
 10 11  1  0
 11 12  1  0
 12 13  1  0
 13 14  1  0
 15  9  1  0
 16 15  2  0
 18 17  1  0
 18 19  1  0
 19 21  1  0
 19 20  1  1
 21 22  1  6
 22 15  1  0
 23 24  1  0
 23 21  1  0
 25 23  2  0
M  END
$$$$
