PKI.pdb
     RDKit          3D

 25 25  0  0  1  0  0  0  0  0999 V2000
   27.8522  -21.0169  -14.7551 N   0  0  0  0  0  0  0  0  0  0  0  0
   28.2902  -20.9829  -16.1413 C   0  0  0  0  0  0  0  0  0  0  0  0
   28.5742  -19.5431  -16.4570 C   0  0  0  0  0  0  0  0  0  0  0  0
   27.5691  -18.8324  -15.5378 C   0  0  0  0  0  0  0  0  0  0  0  0
   27.8311  -19.6636  -14.2912 C   0  0  1  0  0  0  0  0  0  0  0  0
   26.9389  -19.4012  -13.1785 C   0  0  0  0  0  0  0  0  0  0  0  0
   26.7296  -18.2201  -12.7293 O   0  0  0  0  0  0  0  0  0  0  0  0
   26.2460  -20.4376  -12.5207 N   0  0  0  0  0  0  0  0  0  0  0  0
   25.2444  -20.1463  -11.4820 C   0  0  1  0  0  0  0  0  0  0  0  0
   23.9819  -20.9035  -11.8124 C   0  0  0  0  0  0  0  0  0  0  0  0
   23.4017  -20.5280  -13.1506 C   0  0  0  0  0  0  0  0  0  0  0  0
   21.9929  -20.0386  -13.0531 C   0  0  0  0  0  0  0  0  0  0  0  0
   21.3682  -19.8108  -14.4129 C   0  0  0  0  0  0  0  0  0  0  0  0
   20.0099  -19.3207  -14.2077 N   0  0  0  0  0  0  0  0  0  0  0  0
   25.7699  -20.7251  -10.2144 C   0  0  0  0  0  0  0  0  0  0  0  0
   26.2957  -21.8624  -10.2003 O   0  0  0  0  0  0  0  0  0  0  0  0
   28.6064  -17.9760   -6.5254 C   0  0  0  0  0  0  0  0  0  0  0  0
   28.0076  -19.0538   -7.3490 C   0  0  0  0  0  0  0  0  0  0  0  0
   26.8729  -19.8148   -6.7867 C   0  0  2  0  0  0  0  0  0  0  0  0
   27.2428  -20.5847   -5.5271 C   0  0  0  0  0  0  0  0  0  0  0  0
   26.1204  -20.6458   -7.7593 C   0  0  2  0  0  0  0  0  0  0  0  0
   25.6991  -20.0198   -8.9741 N   0  0  0  0  0  0  0  0  0  0  0  0
   24.9283  -21.2601   -7.0833 C   0  0  0  0  0  0  0  0  0  0  0  0
   23.6580  -20.8951   -7.4881 O   0  0  0  0  0  0  0  0  0  0  0  0
   25.0389  -22.0991   -6.1572 O   0  0  0  0  0  0  0  0  0  0  0  0
  1  2  1  0
  2  3  1  0
  4  3  1  0
  5  1  1  0
  5  4  1  0
  5  6  1  1
  7  6  2  0
  8  6  1  0
  9  8  1  0
  9 10  1  6
 10 11  1  0
 11 12  1  0
 12 13  1  0
 13 14  1  0
 15  9  1  0
 16 15  2  0
 18 17  1  0
 18 19  1  0
 19 21  1  0
 19 20  1  1
 21 22  1  6
 22 15  1  0
 23 24  1  0
 23 21  1  0
 25 23  2  0
M  END
$$$$
