PKI.pdb
     RDKit          3D

 25 25  0  0  1  0  0  0  0  0999 V2000
   26.9782  -16.7738  -19.4027 N   0  0  0  0  0  0  0  0  0  0  0  0
   27.9631  -16.1830  -20.2946 C   0  0  0  0  0  0  0  0  0  0  0  0
   27.3297  -16.1466  -21.6550 C   0  0  0  0  0  0  0  0  0  0  0  0
   26.4108  -17.3760  -21.5891 C   0  0  0  0  0  0  0  0  0  0  0  0
   25.8419  -17.1137  -20.2030 C   0  0  1  0  0  0  0  0  0  0  0  0
   25.0016  -18.1703  -19.6732 C   0  0  0  0  0  0  0  0  0  0  0  0
   23.9856  -18.6236  -20.3079 O   0  0  0  0  0  0  0  0  0  0  0  0
   25.2546  -18.7634  -18.4197 N   0  0  0  0  0  0  0  0  0  0  0  0
   24.4147  -19.8603  -17.9114 C   0  0  1  0  0  0  0  0  0  0  0  0
   25.3189  -20.9612  -17.4145 C   0  0  0  0  0  0  0  0  0  0  0  0
   24.5643  -22.1718  -16.9315 C   0  0  0  0  0  0  0  0  0  0  0  0
   25.4661  -23.3011  -16.5505 C   0  0  0  0  0  0  0  0  0  0  0  0
   24.6964  -24.5447  -16.1604 C   0  0  0  0  0  0  0  0  0  0  0  0
   25.6613  -25.5709  -15.7821 N   0  0  0  0  0  0  0  0  0  0  0  0
   23.6979  -19.3264  -16.7202 C   0  0  0  0  0  0  0  0  0  0  0  0
   24.3129  -18.6798  -15.8404 O   0  0  0  0  0  0  0  0  0  0  0  0
   19.5525  -16.2278  -16.9788 C   0  0  0  0  0  0  0  0  0  0  0  0
   20.7270  -16.9696  -16.4602 C   0  0  0  0  0  0  0  0  0  0  0  0
   20.4878  -18.1140  -15.5567 C   0  0  2  0  0  0  0  0  0  0  0  0
   19.8382  -17.7049  -14.2427 C   0  0  0  0  0  0  0  0  0  0  0  0
   21.6459  -19.0208  -15.3591 C   0  0  2  0  0  0  0  0  0  0  0  0
   22.2961  -19.5243  -16.5291 N   0  0  0  0  0  0  0  0  0  0  0  0
   21.2415  -20.1741  -14.4863 C   0  0  0  0  0  0  0  0  0  0  0  0
   21.4205  -20.0831  -13.1186 O   0  0  0  0  0  0  0  0  0  0  0  0
   20.7430  -21.2271  -14.9518 O   0  0  0  0  0  0  0  0  0  0  0  0
  1  2  1  0
  2  3  1  0
  4  3  1  0
  5  1  1  0
  5  4  1  0
  5  6  1  1
  7  6  2  0
  8  6  1  0
  9  8  1  0
  9 10  1  1
 10 11  1  0
 11 12  1  0
 12 13  1  0
 13 14  1  0
 15  9  1  0
 16 15  2  0
 18 17  1  0
 18 19  1  0
 19 21  1  0
 19 20  1  1
 21 22  1  6
 22 15  1  0
 23 24  1  0
 23 21  1  0
 25 23  2  0
M  END
$$$$
