PKI.pdb
     RDKit          3D

 25 25  0  0  1  0  0  0  0  0999 V2000
   23.1214  -19.5693  -12.3570 N   0  0  0  0  0  0  0  0  0  0  0  0
   22.0848  -19.7614  -13.3585 C   0  0  0  0  0  0  0  0  0  0  0  0
   21.3063  -20.9713  -12.9307 C   0  0  0  0  0  0  0  0  0  0  0  0
   22.3922  -21.7856  -12.2110 C   0  0  0  0  0  0  0  0  0  0  0  0
   22.9933  -20.6378  -11.4141 C   0  0  1  0  0  0  0  0  0  0  0  0
   24.1988  -20.9655  -10.6777 C   0  0  0  0  0  0  0  0  0  0  0  0
   24.2562  -21.9452   -9.8546 O   0  0  0  0  0  0  0  0  0  0  0  0
   25.3857  -20.2194  -10.8245 N   0  0  0  0  0  0  0  0  0  0  0  0
   26.6504  -20.6715  -10.2220 C   0  0  1  0  0  0  0  0  0  0  0  0
   27.7897  -20.1746  -11.0775 C   0  0  0  0  0  0  0  0  0  0  0  0
   28.4839  -21.2765  -11.8338 C   0  0  0  0  0  0  0  0  0  0  0  0
   28.3663  -21.1236  -13.3159 C   0  0  0  0  0  0  0  0  0  0  0  0
   29.0138  -22.2684  -14.0650 C   0  0  0  0  0  0  0  0  0  0  0  0
   28.8112  -22.0442  -15.4919 N   0  0  0  0  0  0  0  0  0  0  0  0
   26.7663  -19.9753   -8.9106 C   0  0  0  0  0  0  0  0  0  0  0  0
   26.1478  -18.9066   -8.6970 O   0  0  0  0  0  0  0  0  0  0  0  0
   28.2759  -22.5282   -3.9832 C   0  0  0  0  0  0  0  0  0  0  0  0
   27.6578  -21.7251   -5.0655 C   0  0  0  0  0  0  0  0  0  0  0  0
   28.3264  -20.4731   -5.4759 C   0  0  2  0  0  0  0  0  0  0  0  0
   28.6123  -19.5436   -4.3052 C   0  0  0  0  0  0  0  0  0  0  0  0
   27.7035  -19.7662   -6.6227 C   0  0  2  0  0  0  0  0  0  0  0  0
   27.5766  -20.4871   -7.8513 N   0  0  0  0  0  0  0  0  0  0  0  0
   28.4341  -18.4796   -6.8804 C   0  0  0  0  0  0  0  0  0  0  0  0
   28.0642  -17.3410   -6.1893 O   0  0  0  0  0  0  0  0  0  0  0  0
   29.3756  -18.3947   -7.7052 O   0  0  0  0  0  0  0  0  0  0  0  0
  1  2  1  0
  2  3  1  0
  4  3  1  0
  5  1  1  0
  5  4  1  0
  5  6  1  6
  7  6  2  0
  8  6  1  0
  9  8  1  0
  9 10  1  6
 10 11  1  0
 11 12  1  0
 12 13  1  0
 13 14  1  0
 15  9  1  0
 16 15  2  0
 18 17  1  0
 18 19  1  0
 19 21  1  0
 19 20  1  1
 21 22  1  6
 22 15  1  0
 23 24  1  0
 23 21  1  0
 25 23  2  0
M  END
$$$$
