PKI.pdb
     RDKit          3D

 25 25  0  0  1  0  0  0  0  0999 V2000
   28.4640  -22.4083  -17.4800 N   0  0  0  0  0  0  0  0  0  0  0  0
   29.1698  -22.1753  -18.7298 C   0  0  0  0  0  0  0  0  0  0  0  0
   28.9961  -20.7181  -19.0451 C   0  0  0  0  0  0  0  0  0  0  0  0
   27.6224  -20.4387  -18.4165 C   0  0  0  0  0  0  0  0  0  0  0  0
   27.8635  -21.1657  -17.1024 C   0  0  1  0  0  0  0  0  0  0  0  0
   26.7047  -21.2724  -16.2371 C   0  0  0  0  0  0  0  0  0  0  0  0
   26.0370  -20.2488  -15.8535 O   0  0  0  0  0  0  0  0  0  0  0  0
   26.2427  -22.5170  -15.7631 N   0  0  0  0  0  0  0  0  0  0  0  0
   25.0455  -22.6124  -14.9119 C   0  0  1  0  0  0  0  0  0  0  0  0
   24.4910  -24.0110  -15.0253 C   0  0  0  0  0  0  0  0  0  0  0  0
   24.0878  -24.3738  -16.4304 C   0  0  0  0  0  0  0  0  0  0  0  0
   23.5882  -25.7778  -16.5441 C   0  0  0  0  0  0  0  0  0  0  0  0
   23.1719  -26.1271  -17.9569 C   0  0  0  0  0  0  0  0  0  0  0  0
   22.7778  -27.5312  -17.9758 N   0  0  0  0  0  0  0  0  0  0  0  0
   25.5122  -22.4510  -13.5069 C   0  0  0  0  0  0  0  0  0  0  0  0
   26.2845  -23.2909  -12.9890 O   0  0  0  0  0  0  0  0  0  0  0  0
   29.1133  -19.8057  -11.8582 C   0  0  0  0  0  0  0  0  0  0  0  0
   27.9272  -20.6899  -11.9574 C   0  0  0  0  0  0  0  0  0  0  0  0
   26.7623  -20.3961  -11.0974 C   0  0  2  0  0  0  0  0  0  0  0  0
   27.1215  -20.3183   -9.6206 C   0  0  0  0  0  0  0  0  0  0  0  0
   25.5615  -21.2321  -11.3461 C   0  0  2  0  0  0  0  0  0  0  0  0
   25.1061  -21.3464  -12.6970 N   0  0  0  0  0  0  0  0  0  0  0  0
   24.4278  -20.7575  -10.4833 C   0  0  0  0  0  0  0  0  0  0  0  0
   24.5502  -20.8236   -9.1079 O   0  0  0  0  0  0  0  0  0  0  0  0
   23.3635  -20.2988  -10.9639 O   0  0  0  0  0  0  0  0  0  0  0  0
  1  2  1  0
  2  3  1  0
  4  3  1  0
  5  1  1  0
  5  4  1  0
  5  6  1  6
  7  6  2  0
  8  6  1  0
  9  8  1  0
  9 10  1  1
 10 11  1  0
 11 12  1  0
 12 13  1  0
 13 14  1  0
 15  9  1  0
 16 15  2  0
 18 17  1  0
 18 19  1  0
 19 21  1  0
 19 20  1  1
 21 22  1  6
 22 15  1  0
 23 24  1  0
 23 21  1  0
 25 23  2  0
M  END
$$$$
