PKI.pdb
     RDKit          3D

 25 25  0  0  1  0  0  0  0  0999 V2000
   27.9247  -20.0974  -15.8460 N   0  0  0  0  0  0  0  0  0  0  0  0
   28.4191  -19.7628  -17.1720 C   0  0  0  0  0  0  0  0  0  0  0  0
   28.6030  -18.2731  -17.1882 C   0  0  0  0  0  0  0  0  0  0  0  0
   27.5060  -17.8265  -16.2099 C   0  0  0  0  0  0  0  0  0  0  0  0
   27.7774  -18.8658  -15.1329 C   0  0  1  0  0  0  0  0  0  0  0  0
   26.8194  -18.8879  -14.0444 C   0  0  0  0  0  0  0  0  0  0  0  0
   26.5616  -17.8532  -13.3348 O   0  0  0  0  0  0  0  0  0  0  0  0
   26.1120  -20.0576  -13.7002 N   0  0  0  0  0  0  0  0  0  0  0  0
   24.9569  -20.0102  -12.7890 C   0  0  1  0  0  0  0  0  0  0  0  0
   23.8824  -20.9179  -13.3349 C   0  0  0  0  0  0  0  0  0  0  0  0
   22.6430  -20.9461  -12.4796 C   0  0  0  0  0  0  0  0  0  0  0  0
   21.5993  -21.8781  -13.0049 C   0  0  0  0  0  0  0  0  0  0  0  0
   20.3102  -21.8011  -12.2152 C   0  0  0  0  0  0  0  0  0  0  0  0
   19.3897  -22.7934  -12.7585 N   0  0  0  0  0  0  0  0  0  0  0  0
   25.4088  -20.6093  -11.5027 C   0  0  0  0  0  0  0  0  0  0  0  0
   26.2074  -21.5749  -11.4925 O   0  0  0  0  0  0  0  0  0  0  0  0
   27.9561  -18.2298   -7.7145 C   0  0  0  0  0  0  0  0  0  0  0  0
   27.3328  -19.2925   -8.5395 C   0  0  0  0  0  0  0  0  0  0  0  0
   26.1039  -19.9390   -8.0346 C   0  0  2  0  0  0  0  0  0  0  0  0
   26.3189  -20.6727   -6.7187 C   0  0  0  0  0  0  0  0  0  0  0  0
   25.3628  -20.7576   -9.0262 C   0  0  2  0  0  0  0  0  0  0  0  0
   24.9585  -20.1172  -10.2394 N   0  0  0  0  0  0  0  0  0  0  0  0
   24.1608  -21.3771   -8.3728 C   0  0  0  0  0  0  0  0  0  0  0  0
   22.8968  -21.0182   -8.8021 O   0  0  0  0  0  0  0  0  0  0  0  0
   24.2576  -22.2152   -7.4442 O   0  0  0  0  0  0  0  0  0  0  0  0
  1  2  1  0
  2  3  1  0
  4  3  1  0
  5  1  1  0
  5  4  1  0
  5  6  1  1
  7  6  2  0
  8  6  1  0
  9  8  1  0
  9 10  1  6
 10 11  1  0
 11 12  1  0
 12 13  1  0
 13 14  1  0
 15  9  1  0
 16 15  2  0
 18 17  1  0
 18 19  1  0
 19 21  1  0
 19 20  1  1
 21 22  1  6
 22 15  1  0
 23 24  1  0
 23 21  1  0
 25 23  2  0
M  END
$$$$
