PKI.pdb
     RDKit          3D

 25 25  0  0  1  0  0  0  0  0999 V2000
   27.4078  -21.6336  -15.5324 N   0  0  0  0  0  0  0  0  0  0  0  0
   27.8483  -21.6201  -16.9181 C   0  0  0  0  0  0  0  0  0  0  0  0
   28.6737  -20.3775  -17.0846 C   0  0  0  0  0  0  0  0  0  0  0  0
   28.0074  -19.4384  -16.0676 C   0  0  0  0  0  0  0  0  0  0  0  0
   27.9053  -20.4374  -14.9251 C   0  0  1  0  0  0  0  0  0  0  0  0
   27.1658  -19.9736  -13.7671 C   0  0  0  0  0  0  0  0  0  0  0  0
   27.4490  -18.8798  -13.1638 O   0  0  0  0  0  0  0  0  0  0  0  0
   26.0855  -20.7049  -13.2330 N   0  0  0  0  0  0  0  0  0  0  0  0
   25.1802  -20.1100  -12.2363 C   0  0  1  0  0  0  0  0  0  0  0  0
   23.7667  -20.5146  -12.5757 C   0  0  0  0  0  0  0  0  0  0  0  0
   23.2903  -19.9500  -13.8881 C   0  0  0  0  0  0  0  0  0  0  0  0
   21.9076  -20.3944  -14.2407 C   0  0  0  0  0  0  0  0  0  0  0  0
   20.9337  -19.2380  -14.3155 C   0  0  0  0  0  0  0  0  0  0  0  0
   20.8544  -18.8056  -15.7062 N   0  0  0  0  0  0  0  0  0  0  0  0
   25.5065  -20.7521  -10.9328 C   0  0  0  0  0  0  0  0  0  0  0  0
   25.6830  -21.9902  -10.8561 O   0  0  0  0  0  0  0  0  0  0  0  0
   28.3617  -18.1080   -6.9900 C   0  0  0  0  0  0  0  0  0  0  0  0
   27.8136  -19.1732   -7.8639 C   0  0  0  0  0  0  0  0  0  0  0  0
   26.5857  -19.8706   -7.4297 C   0  0  2  0  0  0  0  0  0  0  0  0
   26.7792  -20.6669   -6.1473 C   0  0  0  0  0  0  0  0  0  0  0  0
   25.8920  -20.6522   -8.4837 C   0  0  2  0  0  0  0  0  0  0  0  0
   25.6315  -19.9958   -9.7273 N   0  0  0  0  0  0  0  0  0  0  0  0
   24.6055  -21.2037   -7.9396 C   0  0  0  0  0  0  0  0  0  0  0  0
   24.6396  -22.3125   -7.1147 O   0  0  0  0  0  0  0  0  0  0  0  0
   23.4901  -20.6947   -8.2055 O   0  0  0  0  0  0  0  0  0  0  0  0
  1  2  1  0
  2  3  1  0
  4  3  1  0
  5  1  1  0
  5  4  1  0
  5  6  1  1
  7  6  2  0
  8  6  1  0
  9  8  1  0
  9 10  1  6
 10 11  1  0
 11 12  1  0
 12 13  1  0
 13 14  1  0
 15  9  1  0
 16 15  2  0
 18 17  1  0
 18 19  1  0
 19 21  1  0
 19 20  1  1
 21 22  1  6
 22 15  1  0
 23 24  1  0
 23 21  1  0
 25 23  2  0
M  END
$$$$
