HEL.pdb
     RDKit          3D

 28 28  0  0  1  0  0  0  0  0999 V2000
    8.3023  -16.9858   19.1663 N   0  0  0  0  0  0  0  0  0  0  0  0
    8.5842  -15.9308   20.0859 C   0  0  1  0  0  0  0  0  0  0  0  0
    7.6646  -14.7575   19.9700 C   0  0  0  0  0  0  0  0  0  0  0  0
    7.7887  -14.1788   18.6110 C   0  0  0  0  0  0  0  0  0  0  0  0
    8.5578  -13.0701   18.2371 C   0  0  0  0  0  0  0  0  0  0  0  0
    8.4194  -12.8481   16.9161 N   0  0  0  0  0  0  0  0  0  0  0  0
    7.5788  -13.7946   16.4499 C   0  0  0  0  0  0  0  0  0  0  0  0
    7.2083  -14.5845   17.4731 N   0  0  0  0  0  0  0  0  0  0  0  0
    8.6914  -16.4611   21.4617 C   0  0  0  0  0  0  0  0  0  0  0  0
    7.6354  -16.5805   22.1346 O   0  0  0  0  0  0  0  0  0  0  0  0
    9.9519  -16.8352   22.0353 N   0  0  0  0  0  0  0  0  0  0  0  0
   10.0136  -17.1254   23.4276 C   0  0  1  0  0  0  0  0  0  0  0  0
   11.1433  -17.9809   23.8668 C   0  0  0  0  0  0  0  0  0  0  0  0
   11.2816  -18.3097   25.2951 C   0  0  0  0  0  0  0  0  0  0  0  0
   12.4187  -19.1067   25.7303 C   0  0  0  0  0  0  0  0  0  0  0  0
   13.5583  -18.5745   25.8093 O   0  0  0  0  0  0  0  0  0  0  0  0
    9.9228  -15.8855   24.2581 C   0  0  0  0  0  0  0  0  0  0  0  0
   10.5242  -14.8306   23.9632 O   0  0  0  0  0  0  0  0  0  0  0  0
   12.3274  -20.4452   26.0717 O   0  0  0  0  0  0  0  0  0  0  0  0
    7.0636  -13.0556   28.0704 C   0  0  0  0  0  0  0  0  0  0  0  0
    7.4860  -12.7032   26.6422 C   0  0  2  0  0  0  0  0  0  0  0  0
    6.3364  -11.8990   26.0722 C   0  0  0  0  0  0  0  0  0  0  0  0
    7.7738  -13.9517   25.8546 C   0  0  0  0  0  0  0  0  0  0  0  0
    8.9765  -14.7176   26.2473 C   0  0  2  0  0  0  0  0  0  0  0  0
    9.1207  -15.9206   25.4214 N   0  0  0  0  0  0  0  0  0  0  0  0
    9.0156  -15.0149   27.6860 C   0  0  0  0  0  0  0  0  0  0  0  0
    9.4991  -14.2753   28.5561 O   0  0  0  0  0  0  0  0  0  0  0  0
    8.4716  -16.2242   28.1232 O   0  0  0  0  0  0  0  0  0  0  0  0
  2  9  1  0
  2  1  1  6
  3  2  1  0
  4  3  1  0
  4  5  2  0
  6  5  1  0
  7  6  1  0
  8  7  2  0
  8  4  1  0
  9 11  1  0
 10  9  2  0
 11 12  1  0
 12 13  1  6
 13 14  1  0
 14 15  1  0
 15 19  1  0
 15 16  2  0
 17 18  2  0
 17 12  1  0
 21 20  1  1
 21 23  1  0
 22 21  1  0
 24 23  1  1
 24 25  1  0
 24 26  1  0
 25 17  1  0
 26 28  1  0
 27 26  2  0
M  END
$$$$
