HEL.pdb
     RDKit          3D

 28 28  0  0  1  0  0  0  0  0999 V2000
    6.6989  -16.8477   20.2194 N   0  0  0  0  0  0  0  0  0  0  0  0
    7.6562  -15.9794   20.8257 C   0  0  1  0  0  0  0  0  0  0  0  0
    7.2392  -14.5440   20.8668 C   0  0  0  0  0  0  0  0  0  0  0  0
    7.7765  -13.8505   19.6721 C   0  0  0  0  0  0  0  0  0  0  0  0
    8.5635  -14.4109   18.6586 C   0  0  0  0  0  0  0  0  0  0  0  0
    8.8551  -13.4704   17.7399 N   0  0  0  0  0  0  0  0  0  0  0  0
    8.2677  -12.3288   18.1537 C   0  0  0  0  0  0  0  0  0  0  0  0
    7.6256  -12.5687   19.3106 N   0  0  0  0  0  0  0  0  0  0  0  0
    8.0724  -16.5093   22.1416 C   0  0  0  0  0  0  0  0  0  0  0  0
    7.2003  -16.6105   23.0423 O   0  0  0  0  0  0  0  0  0  0  0  0
    9.4258  -16.9031   22.4080 N   0  0  0  0  0  0  0  0  0  0  0  0
    9.7486  -17.4259   23.6922 C   0  0  1  0  0  0  0  0  0  0  0  0
   10.9252  -18.3274   23.7534 C   0  0  0  0  0  0  0  0  0  0  0  0
   11.3599  -18.8528   25.0581 C   0  0  0  0  0  0  0  0  0  0  0  0
   12.5807  -19.6413   25.1316 C   0  0  0  0  0  0  0  0  0  0  0  0
   13.3511  -19.6906   24.1355 O   0  0  0  0  0  0  0  0  0  0  0  0
    9.8428  -16.3473   24.7234 C   0  0  0  0  0  0  0  0  0  0  0  0
   10.5194  -15.3103   24.5550 O   0  0  0  0  0  0  0  0  0  0  0  0
   12.9601  -20.3589   26.2531 O   0  0  0  0  0  0  0  0  0  0  0  0
    8.6647  -12.4859   26.4996 C   0  0  0  0  0  0  0  0  0  0  0  0
    7.6764  -13.6063   26.1675 C   0  0  2  0  0  0  0  0  0  0  0  0
    6.3033  -12.9851   26.3158 C   0  0  0  0  0  0  0  0  0  0  0  0
    7.8878  -14.7830   27.0799 C   0  0  0  0  0  0  0  0  0  0  0  0
    9.1869  -15.4809   26.9673 C   0  0  2  0  0  0  0  0  0  0  0  0
    9.1327  -16.5192   25.9334 N   0  0  0  0  0  0  0  0  0  0  0  0
    9.6684  -15.9956   28.2568 C   0  0  0  0  0  0  0  0  0  0  0  0
    9.6655  -17.1883   28.5968 O   0  0  0  0  0  0  0  0  0  0  0  0
   10.1693  -15.0809   29.1851 O   0  0  0  0  0  0  0  0  0  0  0  0
  2  9  1  0
  2  1  1  1
  3  2  1  0
  4  3  1  0
  4  5  2  0
  6  5  1  0
  7  6  1  0
  8  7  2  0
  8  4  1  0
  9 11  1  0
 10  9  2  0
 11 12  1  0
 12 13  1  6
 13 14  1  0
 14 15  1  0
 15 19  1  0
 15 16  2  0
 17 18  2  0
 17 12  1  0
 21 20  1  1
 21 23  1  0
 22 21  1  0
 24 23  1  1
 24 25  1  0
 24 26  1  0
 25 17  1  0
 26 28  1  0
 27 26  2  0
M  END
$$$$
