HEL.pdb
     RDKit          3D

 28 28  0  0  1  0  0  0  0  0999 V2000
    9.7327  -15.4692   19.6408 N   0  0  0  0  0  0  0  0  0  0  0  0
    8.6379  -14.8704   20.3343 C   0  0  1  0  0  0  0  0  0  0  0  0
    7.3494  -14.8914   19.5758 C   0  0  0  0  0  0  0  0  0  0  0  0
    7.6177  -14.5513   18.1583 C   0  0  0  0  0  0  0  0  0  0  0  0
    8.2251  -13.3861   17.6744 C   0  0  0  0  0  0  0  0  0  0  0  0
    8.2989  -13.4388   16.3308 N   0  0  0  0  0  0  0  0  0  0  0  0
    7.7505  -14.6135   15.9581 C   0  0  0  0  0  0  0  0  0  0  0  0
    7.3467  -15.2700   17.0600 N   0  0  0  0  0  0  0  0  0  0  0  0
    8.5264  -15.4262   21.6996 C   0  0  0  0  0  0  0  0  0  0  0  0
    7.4115  -15.3582   22.2778 O   0  0  0  0  0  0  0  0  0  0  0  0
    9.6433  -16.0302   22.3671 N   0  0  0  0  0  0  0  0  0  0  0  0
    9.4347  -16.6478   23.6327 C   0  0  1  0  0  0  0  0  0  0  0  0
   10.1328  -17.9383   23.8525 C   0  0  0  0  0  0  0  0  0  0  0  0
    9.9200  -18.6634   25.1159 C   0  0  0  0  0  0  0  0  0  0  0  0
   10.6145  -19.9235   25.3336 C   0  0  0  0  0  0  0  0  0  0  0  0
   10.1004  -20.7964   26.0832 O   0  0  0  0  0  0  0  0  0  0  0  0
    9.6871  -15.7003   24.7615 C   0  0  0  0  0  0  0  0  0  0  0  0
   10.7465  -15.0465   24.8694 O   0  0  0  0  0  0  0  0  0  0  0  0
   11.8341  -20.2332   24.7562 O   0  0  0  0  0  0  0  0  0  0  0  0
    8.0076  -11.8958   25.7709 C   0  0  0  0  0  0  0  0  0  0  0  0
    7.0974  -13.0799   26.1055 C   0  0  2  0  0  0  0  0  0  0  0  0
    5.7617  -12.4667   26.4702 C   0  0  0  0  0  0  0  0  0  0  0  0
    7.6880  -13.9003   27.2189 C   0  0  0  0  0  0  0  0  0  0  0  0
    8.9069  -14.6729   26.8950 C   0  0  2  0  0  0  0  0  0  0  0  0
    8.6785  -15.5464   25.7396 N   0  0  0  0  0  0  0  0  0  0  0  0
    9.4420  -15.4013   28.0538 C   0  0  0  0  0  0  0  0  0  0  0  0
    9.5245  -16.6352   28.1471 O   0  0  0  0  0  0  0  0  0  0  0  0
    9.8949  -14.6589   29.1461 O   0  0  0  0  0  0  0  0  0  0  0  0
  2  9  1  0
  2  1  1  6
  3  2  1  0
  4  3  1  0
  4  5  2  0
  6  5  1  0
  7  6  1  0
  8  7  2  0
  8  4  1  0
  9 11  1  0
 10  9  2  0
 11 12  1  0
 12 13  1  1
 13 14  1  0
 14 15  1  0
 15 19  1  0
 15 16  2  0
 17 18  2  0
 17 12  1  0
 21 20  1  1
 21 23  1  0
 22 21  1  0
 24 23  1  1
 24 25  1  0
 24 26  1  0
 25 17  1  0
 26 28  1  0
 27 26  2  0
M  END
$$$$
