HEL.pdb
     RDKit          3D

 28 28  0  0  1  0  0  0  0  0999 V2000
   10.0260  -15.1987   20.0392 N   0  0  0  0  0  0  0  0  0  0  0  0
    8.8941  -14.8087   20.8169 C   0  0  1  0  0  0  0  0  0  0  0  0
    7.5833  -14.9870   20.1199 C   0  0  0  0  0  0  0  0  0  0  0  0
    7.6473  -14.3269   18.7943 C   0  0  0  0  0  0  0  0  0  0  0  0
    8.7388  -13.6387   18.2505 C   0  0  0  0  0  0  0  0  0  0  0  0
    8.4198  -13.1807   17.0249 N   0  0  0  0  0  0  0  0  0  0  0  0
    7.1496  -13.5664   16.7853 C   0  0  0  0  0  0  0  0  0  0  0  0
    6.6983  -14.2512   17.8509 N   0  0  0  0  0  0  0  0  0  0  0  0
    8.9422  -15.4429   22.1515 C   0  0  0  0  0  0  0  0  0  0  0  0
    7.9558  -15.2889   22.9165 O   0  0  0  0  0  0  0  0  0  0  0  0
   10.0703  -16.2159   22.5846 N   0  0  0  0  0  0  0  0  0  0  0  0
   10.0222  -16.8451   23.8607 C   0  0  1  0  0  0  0  0  0  0  0  0
   10.9569  -17.9790   24.0653 C   0  0  0  0  0  0  0  0  0  0  0  0
   10.7645  -19.2165   23.2915 C   0  0  0  0  0  0  0  0  0  0  0  0
   11.7470  -20.2834   23.4083 C   0  0  0  0  0  0  0  0  0  0  0  0
   12.6023  -20.4449   22.4969 O   0  0  0  0  0  0  0  0  0  0  0  0
   10.1283  -15.8526   24.9738 C   0  0  0  0  0  0  0  0  0  0  0  0
   11.1227  -15.1107   25.1236 O   0  0  0  0  0  0  0  0  0  0  0  0
   11.8043  -21.1547   24.4827 O   0  0  0  0  0  0  0  0  0  0  0  0
    8.5331  -11.9307   26.0303 C   0  0  0  0  0  0  0  0  0  0  0  0
    7.6350  -13.1696   26.0594 C   0  0  2  0  0  0  0  0  0  0  0  0
    6.2195  -12.6356   26.1252 C   0  0  0  0  0  0  0  0  0  0  0  0
    7.9846  -14.0465   27.2301 C   0  0  0  0  0  0  0  0  0  0  0  0
    9.1756  -14.9097   27.0761 C   0  0  2  0  0  0  0  0  0  0  0  0
    9.0535  -15.7589   25.8869 N   0  0  0  0  0  0  0  0  0  0  0  0
    9.4783  -15.6813   28.2897 C   0  0  0  0  0  0  0  0  0  0  0  0
    9.7617  -15.1944   29.3946 O   0  0  0  0  0  0  0  0  0  0  0  0
    9.4517  -17.0748   28.2075 O   0  0  0  0  0  0  0  0  0  0  0  0
  2  9  1  0
  2  1  1  6
  3  2  1  0
  4  3  1  0
  4  5  2  0
  6  5  1  0
  7  6  1  0
  8  7  2  0
  8  4  1  0
  9 11  1  0
 10  9  2  0
 11 12  1  0
 12 13  1  6
 13 14  1  0
 14 15  1  0
 15 19  1  0
 15 16  2  0
 17 18  2  0
 17 12  1  0
 21 20  1  1
 21 23  1  0
 22 21  1  0
 24 23  1  1
 24 25  1  0
 24 26  1  0
 25 17  1  0
 26 28  1  0
 27 26  2  0
M  END
$$$$
