HEL.pdb
     RDKit          3D

 28 28  0  0  1  0  0  0  0  0999 V2000
    8.5471  -16.7760   19.2261 N   0  0  0  0  0  0  0  0  0  0  0  0
    8.5773  -15.6526   20.1065 C   0  0  1  0  0  0  0  0  0  0  0  0
    7.5091  -14.6403   19.8419 C   0  0  0  0  0  0  0  0  0  0  0  0
    7.6786  -14.1065   18.4695 C   0  0  0  0  0  0  0  0  0  0  0  0
    8.3890  -12.9590   18.0964 C   0  0  0  0  0  0  0  0  0  0  0  0
    8.3203  -12.7985   16.7611 N   0  0  0  0  0  0  0  0  0  0  0  0
    7.5813  -13.8218   16.2851 C   0  0  0  0  0  0  0  0  0  0  0  0
    7.2032  -14.5973   17.3166 N   0  0  0  0  0  0  0  0  0  0  0  0
    8.6269  -16.1019   21.5141 C   0  0  0  0  0  0  0  0  0  0  0  0
    7.5843  -16.5954   22.0156 O   0  0  0  0  0  0  0  0  0  0  0  0
    9.8177  -15.9883   22.3058 N   0  0  0  0  0  0  0  0  0  0  0  0
    9.8756  -16.6611   23.5591 C   0  0  1  0  0  0  0  0  0  0  0  0
   10.8663  -17.7603   23.6650 C   0  0  0  0  0  0  0  0  0  0  0  0
   10.9177  -18.5641   24.8972 C   0  0  0  0  0  0  0  0  0  0  0  0
   11.9588  -19.5704   25.0421 C   0  0  0  0  0  0  0  0  0  0  0  0
   12.0645  -20.2055   26.1255 O   0  0  0  0  0  0  0  0  0  0  0  0
   10.0114  -15.7026   24.6984 C   0  0  0  0  0  0  0  0  0  0  0  0
   10.9455  -14.8761   24.7769 O   0  0  0  0  0  0  0  0  0  0  0  0
   12.8635  -19.8830   24.0420 O   0  0  0  0  0  0  0  0  0  0  0  0
    8.0819  -12.1120   25.8401 C   0  0  0  0  0  0  0  0  0  0  0  0
    7.2931  -13.4004   26.0855 C   0  0  2  0  0  0  0  0  0  0  0  0
    5.8793  -12.9516   26.3905 C   0  0  0  0  0  0  0  0  0  0  0  0
    7.9105  -14.1911   27.2058 C   0  0  0  0  0  0  0  0  0  0  0  0
    9.1809  -14.8848   26.9025 C   0  0  2  0  0  0  0  0  0  0  0  0
    9.0373  -15.7424   25.7218 N   0  0  0  0  0  0  0  0  0  0  0  0
    9.7232  -15.6086   28.0609 C   0  0  0  0  0  0  0  0  0  0  0  0
   10.0741  -15.0869   29.1299 O   0  0  0  0  0  0  0  0  0  0  0  0
    9.8635  -16.9944   27.9644 O   0  0  0  0  0  0  0  0  0  0  0  0
  2  9  1  0
  2  1  1  6
  3  2  1  0
  4  3  1  0
  4  5  2  0
  6  5  1  0
  7  6  1  0
  8  7  2  0
  8  4  1  0
  9 11  1  0
 10  9  2  0
 11 12  1  0
 12 13  1  6
 13 14  1  0
 14 15  1  0
 15 19  1  0
 15 16  2  0
 17 18  2  0
 17 12  1  0
 21 20  1  1
 21 23  1  0
 22 21  1  0
 24 23  1  1
 24 25  1  0
 24 26  1  0
 25 17  1  0
 26 28  1  0
 27 26  2  0
M  END
$$$$
