HEL.pdb
     RDKit          3D

 28 28  0  0  1  0  0  0  0  0999 V2000
   10.1039  -15.0450   19.0985 N   0  0  0  0  0  0  0  0  0  0  0  0
    8.8366  -15.1164   19.7521 C   0  0  1  0  0  0  0  0  0  0  0  0
    7.7326  -15.6378   18.8890 C   0  0  0  0  0  0  0  0  0  0  0  0
    7.6699  -14.8328   17.6459 C   0  0  0  0  0  0  0  0  0  0  0  0
    8.5695  -13.8384   17.2430 C   0  0  0  0  0  0  0  0  0  0  0  0
    8.1842  -13.3339   16.0553 N   0  0  0  0  0  0  0  0  0  0  0  0
    7.0601  -13.9904   15.7016 C   0  0  0  0  0  0  0  0  0  0  0  0
    6.7625  -14.8844   16.6610 N   0  0  0  0  0  0  0  0  0  0  0  0
    8.9613  -15.8275   21.0422 C   0  0  0  0  0  0  0  0  0  0  0  0
    7.9138  -16.0396   21.7054 O   0  0  0  0  0  0  0  0  0  0  0  0
   10.2291  -16.2724   21.5446 N   0  0  0  0  0  0  0  0  0  0  0  0
   10.2809  -16.8926   22.8249 C   0  0  1  0  0  0  0  0  0  0  0  0
   11.4300  -17.7998   23.0651 C   0  0  0  0  0  0  0  0  0  0  0  0
   11.9893  -18.5637   21.9378 C   0  0  0  0  0  0  0  0  0  0  0  0
   13.1400  -19.4241   22.1683 C   0  0  0  0  0  0  0  0  0  0  0  0
   13.7890  -19.3210   23.2436 O   0  0  0  0  0  0  0  0  0  0  0  0
   10.1417  -15.8962   23.9309 C   0  0  0  0  0  0  0  0  0  0  0  0
   10.4029  -14.6831   23.7828 O   0  0  0  0  0  0  0  0  0  0  0  0
   13.5790  -20.3721   21.2599 O   0  0  0  0  0  0  0  0  0  0  0  0
    5.9966  -13.3080   26.1803 C   0  0  0  0  0  0  0  0  0  0  0  0
    7.3691  -13.7457   26.6969 C   0  0  2  0  0  0  0  0  0  0  0  0
    8.1461  -12.4626   26.9040 C   0  0  0  0  0  0  0  0  0  0  0  0
    8.0282  -14.6773   25.7174 C   0  0  0  0  0  0  0  0  0  0  0  0
    9.2270  -15.3988   26.1964 C   0  0  2  0  0  0  0  0  0  0  0  0
    9.6951  -16.3573   25.1902 N   0  0  0  0  0  0  0  0  0  0  0  0
    9.0278  -16.0187   27.5139 C   0  0  0  0  0  0  0  0  0  0  0  0
    9.2550  -15.4715   28.6034 O   0  0  0  0  0  0  0  0  0  0  0  0
    8.5479  -17.3291   27.5591 O   0  0  0  0  0  0  0  0  0  0  0  0
  2  9  1  0
  2  1  1  6
  3  2  1  0
  4  3  1  0
  4  5  2  0
  6  5  1  0
  7  6  1  0
  8  7  2  0
  8  4  1  0
  9 11  1  0
 10  9  2  0
 11 12  1  0
 12 13  1  1
 13 14  1  0
 14 15  1  0
 15 19  1  0
 15 16  2  0
 17 18  2  0
 17 12  1  0
 21 20  1  6
 21 23  1  0
 22 21  1  0
 24 23  1  6
 24 25  1  0
 24 26  1  0
 25 17  1  0
 26 28  1  0
 27 26  2  0
M  END
$$$$
