HEL.pdb
     RDKit          3D

 28 28  0  0  1  0  0  0  0  0999 V2000
    8.2998  -16.7234   19.4613 N   0  0  0  0  0  0  0  0  0  0  0  0
    8.4732  -15.6579   20.3956 C   0  0  1  0  0  0  0  0  0  0  0  0
    7.4489  -14.5744   20.2834 C   0  0  0  0  0  0  0  0  0  0  0  0
    7.6293  -13.8709   18.9912 C   0  0  0  0  0  0  0  0  0  0  0  0
    8.1236  -12.5745   18.8024 C   0  0  0  0  0  0  0  0  0  0  0  0
    8.1438  -12.2850   17.4874 N   0  0  0  0  0  0  0  0  0  0  0  0
    7.6725  -13.3726   16.8436 C   0  0  0  0  0  0  0  0  0  0  0  0
    7.3680  -14.3145   17.7538 N   0  0  0  0  0  0  0  0  0  0  0  0
    8.6169  -16.1925   21.7663 C   0  0  0  0  0  0  0  0  0  0  0  0
    7.6331  -16.7874   22.2764 O   0  0  0  0  0  0  0  0  0  0  0  0
    9.8330  -16.0490   22.5137 N   0  0  0  0  0  0  0  0  0  0  0  0
    9.9426  -16.6957   23.7772 C   0  0  1  0  0  0  0  0  0  0  0  0
   10.9396  -17.7907   23.8660 C   0  0  0  0  0  0  0  0  0  0  0  0
   11.0356  -18.5752   25.1080 C   0  0  0  0  0  0  0  0  0  0  0  0
   12.0365  -19.6269   25.2045 C   0  0  0  0  0  0  0  0  0  0  0  0
   12.1941  -20.2384   26.2952 O   0  0  0  0  0  0  0  0  0  0  0  0
   10.1214  -15.7135   24.8902 C   0  0  0  0  0  0  0  0  0  0  0  0
   11.1403  -14.9988   25.0021 O   0  0  0  0  0  0  0  0  0  0  0  0
   12.8474  -20.0088   24.1494 O   0  0  0  0  0  0  0  0  0  0  0  0
    8.6425  -11.9237   25.7643 C   0  0  0  0  0  0  0  0  0  0  0  0
    7.6537  -13.0578   26.0443 C   0  0  2  0  0  0  0  0  0  0  0  0
    6.3185  -12.3785   26.2654 C   0  0  0  0  0  0  0  0  0  0  0  0
    8.1020  -13.8669   27.2301 C   0  0  0  0  0  0  0  0  0  0  0  0
    9.2752  -14.7439   27.0257 C   0  0  2  0  0  0  0  0  0  0  0  0
    9.0886  -15.5978   25.8483 N   0  0  0  0  0  0  0  0  0  0  0  0
    9.6258  -15.5126   28.2282 C   0  0  0  0  0  0  0  0  0  0  0  0
    9.5406  -16.7449   28.3393 O   0  0  0  0  0  0  0  0  0  0  0  0
   10.0905  -14.8137   29.3439 O   0  0  0  0  0  0  0  0  0  0  0  0
  2  9  1  0
  2  1  1  6
  3  2  1  0
  4  3  1  0
  4  5  2  0
  6  5  1  0
  7  6  1  0
  8  7  2  0
  8  4  1  0
  9 11  1  0
 10  9  2  0
 11 12  1  0
 12 13  1  6
 13 14  1  0
 14 15  1  0
 15 19  1  0
 15 16  2  0
 17 18  2  0
 17 12  1  0
 21 20  1  1
 21 23  1  0
 22 21  1  0
 24 23  1  1
 24 25  1  0
 24 26  1  0
 25 17  1  0
 26 28  1  0
 27 26  2  0
M  END
$$$$
