HEL.pdb
     RDKit          3D

 28 28  0  0  1  0  0  0  0  0999 V2000
    8.5644  -17.1715   19.1935 N   0  0  0  0  0  0  0  0  0  0  0  0
    8.8889  -16.3736   20.3319 C   0  0  1  0  0  0  0  0  0  0  0  0
    7.9262  -15.2593   20.5914 C   0  0  0  0  0  0  0  0  0  0  0  0
    7.7826  -14.4481   19.3591 C   0  0  0  0  0  0  0  0  0  0  0  0
    8.4374  -14.6519   18.1383 C   0  0  0  0  0  0  0  0  0  0  0  0
    8.0481  -13.7139   17.2540 N   0  0  0  0  0  0  0  0  0  0  0  0
    7.1611  -12.9232   17.8926 C   0  0  0  0  0  0  0  0  0  0  0  0
    7.0107  -13.3724   19.1511 N   0  0  0  0  0  0  0  0  0  0  0  0
    9.1280  -17.2317   21.5118 C   0  0  0  0  0  0  0  0  0  0  0  0
    9.1700  -18.4770   21.3399 O   0  0  0  0  0  0  0  0  0  0  0  0
    9.3093  -16.6838   22.8250 N   0  0  0  0  0  0  0  0  0  0  0  0
   10.5553  -16.8802   23.4849 C   0  0  1  0  0  0  0  0  0  0  0  0
   11.7704  -16.5776   22.6893 C   0  0  0  0  0  0  0  0  0  0  0  0
   12.3943  -17.6493   21.8960 C   0  0  0  0  0  0  0  0  0  0  0  0
   13.7359  -18.0949   22.2410 C   0  0  0  0  0  0  0  0  0  0  0  0
   14.7328  -17.5472   21.6983 O   0  0  0  0  0  0  0  0  0  0  0  0
   10.5957  -16.1924   24.8118 C   0  0  0  0  0  0  0  0  0  0  0  0
   11.5740  -16.2752   25.5850 O   0  0  0  0  0  0  0  0  0  0  0  0
   13.9947  -19.1070   23.1495 O   0  0  0  0  0  0  0  0  0  0  0  0
    7.0061  -13.4589   24.4968 C   0  0  0  0  0  0  0  0  0  0  0  0
    7.1825  -13.7571   25.9875 C   0  0  2  0  0  0  0  0  0  0  0  0
    6.1930  -12.8553   26.6953 C   0  0  0  0  0  0  0  0  0  0  0  0
    8.6047  -13.5104   26.4096 C   0  0  0  0  0  0  0  0  0  0  0  0
    9.4904  -14.6933   26.4693 C   0  0  2  0  0  0  0  0  0  0  0  0
    9.4762  -15.4197   25.1956 N   0  0  0  0  0  0  0  0  0  0  0  0
    9.1984  -15.5639   27.6167 C   0  0  0  0  0  0  0  0  0  0  0  0
    9.1504  -15.1955   28.7999 O   0  0  0  0  0  0  0  0  0  0  0  0
    8.9567  -16.9169   27.3716 O   0  0  0  0  0  0  0  0  0  0  0  0
  2  9  1  0
  2  1  1  6
  3  2  1  0
  4  3  1  0
  4  5  2  0
  6  5  1  0
  7  6  1  0
  8  7  2  0
  8  4  1  0
  9 11  1  0
 10  9  2  0
 11 12  1  0
 12 13  1  6
 13 14  1  0
 14 15  1  0
 15 19  1  0
 15 16  2  0
 17 18  2  0
 17 12  1  0
 21 20  1  6
 21 23  1  0
 22 21  1  0
 24 23  1  6
 24 25  1  0
 24 26  1  0
 25 17  1  0
 26 28  1  0
 27 26  2  0
M  END
$$$$
