HEL.pdb
     RDKit          3D

 28 28  0  0  1  0  0  0  0  0999 V2000
    8.9636  -16.6938   19.3471 N   0  0  0  0  0  0  0  0  0  0  0  0
    8.8741  -15.6778   20.3460 C   0  0  1  0  0  0  0  0  0  0  0  0
    7.6993  -14.7665   20.1868 C   0  0  0  0  0  0  0  0  0  0  0  0
    7.7931  -14.0820   18.8755 C   0  0  0  0  0  0  0  0  0  0  0  0
    8.4511  -12.8765   18.6023 C   0  0  0  0  0  0  0  0  0  0  0  0
    8.3200  -12.5753   17.2963 N   0  0  0  0  0  0  0  0  0  0  0  0
    7.5930  -13.5666   16.7409 C   0  0  0  0  0  0  0  0  0  0  0  0
    7.2837  -14.4618   17.6954 N   0  0  0  0  0  0  0  0  0  0  0  0
    8.9803  -16.2711   21.6959 C   0  0  0  0  0  0  0  0  0  0  0  0
    8.0782  -17.0653   22.0666 O   0  0  0  0  0  0  0  0  0  0  0  0
   10.0709  -15.9651   22.5761 N   0  0  0  0  0  0  0  0  0  0  0  0
   10.1314  -16.6098   23.8439 C   0  0  1  0  0  0  0  0  0  0  0  0
   11.1844  -17.6431   24.0014 C   0  0  0  0  0  0  0  0  0  0  0  0
   11.2736  -18.7330   23.0158 C   0  0  0  0  0  0  0  0  0  0  0  0
   12.2805  -19.7681   23.1955 C   0  0  0  0  0  0  0  0  0  0  0  0
   13.4719  -19.4412   23.4444 O   0  0  0  0  0  0  0  0  0  0  0  0
   10.1727  -15.6239   24.9672 C   0  0  0  0  0  0  0  0  0  0  0  0
   11.0809  -14.7736   25.0853 O   0  0  0  0  0  0  0  0  0  0  0  0
   12.0077  -21.1225   23.1082 O   0  0  0  0  0  0  0  0  0  0  0  0
    8.2539  -12.0519   26.0189 C   0  0  0  0  0  0  0  0  0  0  0  0
    7.3965  -13.3024   26.2274 C   0  0  2  0  0  0  0  0  0  0  0  0
    5.9954  -12.7883   26.4832 C   0  0  0  0  0  0  0  0  0  0  0  0
    7.9342  -14.1264   27.3647 C   0  0  0  0  0  0  0  0  0  0  0  0
    9.2162  -14.8243   27.1263 C   0  0  2  0  0  0  0  0  0  0  0  0
    9.1366  -15.6651   25.9276 N   0  0  0  0  0  0  0  0  0  0  0  0
    9.6859  -15.5669   28.3042 C   0  0  0  0  0  0  0  0  0  0  0  0
    9.7672  -16.8017   28.3855 O   0  0  0  0  0  0  0  0  0  0  0  0
   10.0723  -14.8382   29.4308 O   0  0  0  0  0  0  0  0  0  0  0  0
  2  9  1  0
  2  1  1  6
  3  2  1  0
  4  3  1  0
  4  5  2  0
  6  5  1  0
  7  6  1  0
  8  7  2  0
  8  4  1  0
  9 11  1  0
 10  9  2  0
 11 12  1  0
 12 13  1  6
 13 14  1  0
 14 15  1  0
 15 19  1  0
 15 16  2  0
 17 18  2  0
 17 12  1  0
 21 20  1  1
 21 23  1  0
 22 21  1  0
 24 23  1  1
 24 25  1  0
 24 26  1  0
 25 17  1  0
 26 28  1  0
 27 26  2  0
M  END
$$$$
