HEL.pdb
     RDKit          3D

 28 28  0  0  1  0  0  0  0  0999 V2000
    7.7469  -16.9369   19.9674 N   0  0  0  0  0  0  0  0  0  0  0  0
    8.2521  -15.8262   20.7085 C   0  0  1  0  0  0  0  0  0  0  0  0
    7.4312  -14.5828   20.5814 C   0  0  0  0  0  0  0  0  0  0  0  0
    7.6296  -14.0091   19.2292 C   0  0  0  0  0  0  0  0  0  0  0  0
    8.3368  -12.8446   18.9063 C   0  0  0  0  0  0  0  0  0  0  0  0
    8.3000  -12.6475   17.5746 N   0  0  0  0  0  0  0  0  0  0  0  0
    7.5842  -13.6642   17.0518 C   0  0  0  0  0  0  0  0  0  0  0  0
    7.1885  -14.4721   18.0513 N   0  0  0  0  0  0  0  0  0  0  0  0
    8.5144  -16.2177   22.1098 C   0  0  0  0  0  0  0  0  0  0  0  0
    7.5566  -16.6711   22.7874 O   0  0  0  0  0  0  0  0  0  0  0  0
    9.8148  -16.0932   22.7023 N   0  0  0  0  0  0  0  0  0  0  0  0
   10.0500  -16.6892   23.9735 C   0  0  1  0  0  0  0  0  0  0  0  0
   11.1710  -17.6586   24.0428 C   0  0  0  0  0  0  0  0  0  0  0  0
   11.4638  -18.3272   25.3213 C   0  0  0  0  0  0  0  0  0  0  0  0
   12.6028  -19.2290   25.4031 C   0  0  0  0  0  0  0  0  0  0  0  0
   13.4676  -19.2246   24.4864 O   0  0  0  0  0  0  0  0  0  0  0  0
   10.1575  -15.6639   25.0564 C   0  0  0  0  0  0  0  0  0  0  0  0
   11.0141  -14.7543   25.0416 O   0  0  0  0  0  0  0  0  0  0  0  0
   12.8029  -20.1139   26.4488 O   0  0  0  0  0  0  0  0  0  0  0  0
    8.0725  -12.1744   26.0454 C   0  0  0  0  0  0  0  0  0  0  0  0
    7.4253  -13.5126   26.4093 C   0  0  2  0  0  0  0  0  0  0  0  0
    5.9754  -13.1888   26.7025 C   0  0  0  0  0  0  0  0  0  0  0  0
    8.1329  -14.1394   27.5790 C   0  0  0  0  0  0  0  0  0  0  0  0
    9.4015  -14.8403   27.2850 C   0  0  2  0  0  0  0  0  0  0  0  0
    9.2471  -15.7370   26.1351 N   0  0  0  0  0  0  0  0  0  0  0  0
    9.9581  -15.5241   28.4608 C   0  0  0  0  0  0  0  0  0  0  0  0
   10.2727  -14.9728   29.5263 O   0  0  0  0  0  0  0  0  0  0  0  0
   10.1573  -16.9040   28.3868 O   0  0  0  0  0  0  0  0  0  0  0  0
  2  9  1  0
  2  1  1  1
  3  2  1  0
  4  3  1  0
  4  5  2  0
  6  5  1  0
  7  6  1  0
  8  7  2  0
  8  4  1  0
  9 11  1  0
 10  9  2  0
 11 12  1  0
 12 13  1  6
 13 14  1  0
 14 15  1  0
 15 19  1  0
 15 16  2  0
 17 18  2  0
 17 12  1  0
 21 20  1  1
 21 23  1  0
 22 21  1  0
 24 23  1  1
 24 25  1  0
 24 26  1  0
 25 17  1  0
 26 28  1  0
 27 26  2  0
M  END
$$$$
