HEL.pdb
     RDKit          3D

 28 28  0  0  1  0  0  0  0  0999 V2000
    6.5636  -16.7791   20.3111 N   0  0  0  0  0  0  0  0  0  0  0  0
    7.6250  -15.9442   20.7744 C   0  0  1  0  0  0  0  0  0  0  0  0
    7.2709  -14.4936   20.8537 C   0  0  0  0  0  0  0  0  0  0  0  0
    7.6414  -13.8354   19.5783 C   0  0  0  0  0  0  0  0  0  0  0  0
    8.2251  -14.4413   18.4589 C   0  0  0  0  0  0  0  0  0  0  0  0
    8.4104  -13.5224   17.4922 N   0  0  0  0  0  0  0  0  0  0  0  0
    7.9552  -12.3497   17.9794 C   0  0  0  0  0  0  0  0  0  0  0  0
    7.4978  -12.5497   19.2280 N   0  0  0  0  0  0  0  0  0  0  0  0
    8.1931  -16.4809   22.0292 C   0  0  0  0  0  0  0  0  0  0  0  0
    7.3974  -16.9087   22.9044 O   0  0  0  0  0  0  0  0  0  0  0  0
    9.6074  -16.5229   22.2655 N   0  0  0  0  0  0  0  0  0  0  0  0
   10.0858  -17.1281   23.4619 C   0  0  1  0  0  0  0  0  0  0  0  0
   11.3669  -17.8684   23.3521 C   0  0  0  0  0  0  0  0  0  0  0  0
   11.9228  -18.5224   24.5482 C   0  0  0  0  0  0  0  0  0  0  0  0
   13.2142  -19.1865   24.4551 C   0  0  0  0  0  0  0  0  0  0  0  0
   14.2157  -18.5449   24.0383 O   0  0  0  0  0  0  0  0  0  0  0  0
   10.1204  -16.1586   24.5996 C   0  0  0  0  0  0  0  0  0  0  0  0
   10.8801  -15.1666   24.6176 O   0  0  0  0  0  0  0  0  0  0  0  0
   13.4191  -20.5106   24.8034 O   0  0  0  0  0  0  0  0  0  0  0  0
    8.4401  -12.5189   26.0996 C   0  0  0  0  0  0  0  0  0  0  0  0
    7.5670  -13.7630   25.9201 C   0  0  2  0  0  0  0  0  0  0  0  0
    6.1400  -13.2700   26.0366 C   0  0  0  0  0  0  0  0  0  0  0  0
    7.9129  -14.8026   26.9503 C   0  0  0  0  0  0  0  0  0  0  0  0
    9.2381  -15.4461   26.8200 C   0  0  2  0  0  0  0  0  0  0  0  0
    9.2534  -16.3839   25.6929 N   0  0  0  0  0  0  0  0  0  0  0  0
    9.6946  -16.0645   28.0726 C   0  0  0  0  0  0  0  0  0  0  0  0
    9.8451  -15.4697   29.1504 O   0  0  0  0  0  0  0  0  0  0  0  0
    9.9892  -17.4292   28.0638 O   0  0  0  0  0  0  0  0  0  0  0  0
  2  9  1  0
  2  1  1  1
  3  2  1  0
  4  3  1  0
  4  5  2  0
  6  5  1  0
  7  6  1  0
  8  7  2  0
  8  4  1  0
  9 11  1  0
 10  9  2  0
 11 12  1  0
 12 13  1  6
 13 14  1  0
 14 15  1  0
 15 19  1  0
 15 16  2  0
 17 18  2  0
 17 12  1  0
 21 20  1  1
 21 23  1  0
 22 21  1  0
 24 23  1  1
 24 25  1  0
 24 26  1  0
 25 17  1  0
 26 28  1  0
 27 26  2  0
M  END
$$$$
