HEL.pdb
     RDKit          3D

 28 28  0  0  1  0  0  0  0  0999 V2000
    9.9845  -15.7909   20.2407 N   0  0  0  0  0  0  0  0  0  0  0  0
    9.1243  -15.1831   21.2044 C   0  0  1  0  0  0  0  0  0  0  0  0
    7.7261  -14.9627   20.7222 C   0  0  0  0  0  0  0  0  0  0  0  0
    7.7713  -14.3405   19.3776 C   0  0  0  0  0  0  0  0  0  0  0  0
    7.8726  -12.9745   19.0871 C   0  0  0  0  0  0  0  0  0  0  0  0
    7.8883  -12.7958   17.7524 N   0  0  0  0  0  0  0  0  0  0  0  0
    7.7991  -14.0213   17.1960 C   0  0  0  0  0  0  0  0  0  0  0  0
    7.7296  -14.9371   18.1782 N   0  0  0  0  0  0  0  0  0  0  0  0
    9.1960  -15.9093   22.4901 C   0  0  0  0  0  0  0  0  0  0  0  0
    8.2543  -15.7568   23.3099 O   0  0  0  0  0  0  0  0  0  0  0  0
   10.2975  -16.7682   22.8166 N   0  0  0  0  0  0  0  0  0  0  0  0
   10.2191  -17.5688   23.9912 C   0  0  1  0  0  0  0  0  0  0  0  0
   10.8823  -18.8942   23.9236 C   0  0  0  0  0  0  0  0  0  0  0  0
   10.8547  -19.6470   22.6588 C   0  0  0  0  0  0  0  0  0  0  0  0
   11.5760  -20.9076   22.5704 C   0  0  0  0  0  0  0  0  0  0  0  0
   11.7146  -21.4685   21.4504 O   0  0  0  0  0  0  0  0  0  0  0  0
   10.6487  -16.8135   25.2080 C   0  0  0  0  0  0  0  0  0  0  0  0
   11.6876  -16.1197   25.2394 O   0  0  0  0  0  0  0  0  0  0  0  0
   12.1337  -21.5469   23.6644 O   0  0  0  0  0  0  0  0  0  0  0  0
    9.7770  -12.9760   27.4432 C   0  0  0  0  0  0  0  0  0  0  0  0
    8.8379  -14.1577   27.1905 C   0  0  2  0  0  0  0  0  0  0  0  0
    7.4445  -13.6226   27.4456 C   0  0  0  0  0  0  0  0  0  0  0  0
    9.1934  -15.3138   28.0841 C   0  0  0  0  0  0  0  0  0  0  0  0
   10.2540  -16.2226   27.5978 C   0  0  2  0  0  0  0  0  0  0  0  0
    9.8381  -16.8952   26.3630 N   0  0  0  0  0  0  0  0  0  0  0  0
   10.7081  -17.1676   28.6276 C   0  0  0  0  0  0  0  0  0  0  0  0
   11.2621  -16.8538   29.6919 O   0  0  0  0  0  0  0  0  0  0  0  0
   10.5099  -18.5313   28.4030 O   0  0  0  0  0  0  0  0  0  0  0  0
  2  9  1  0
  2  1  1  6
  3  2  1  0
  4  3  1  0
  4  5  2  0
  6  5  1  0
  7  6  1  0
  8  7  2  0
  8  4  1  0
  9 11  1  0
 10  9  2  0
 11 12  1  0
 12 13  1  6
 13 14  1  0
 14 15  1  0
 15 19  1  0
 15 16  2  0
 17 18  2  0
 17 12  1  0
 21 20  1  1
 21 23  1  0
 22 21  1  0
 24 23  1  1
 24 25  1  0
 24 26  1  0
 25 17  1  0
 26 28  1  0
 27 26  2  0
M  END
$$$$
