MGV.pdb
     RDKit          3D

 20 19  0  0  1  0  0  0  0  0999 V2000
    6.8587  -12.1375   27.5771 C   0  0  0  0  0  0  0  0  0  0  0  0
    6.0756  -11.5324   26.0728 S   0  0  0  0  0  0  0  0  0  0  0  0
    6.3598  -12.7001   24.7403 C   0  0  0  0  0  0  0  0  0  0  0  0
    7.8109  -12.9993   24.5157 C   0  0  0  0  0  0  0  0  0  0  0  0
    7.9953  -14.0541   23.4341 C   0  0  2  0  0  0  0  0  0  0  0  0
    7.3915  -13.5754   22.2295 N   0  0  0  0  0  0  0  0  0  0  0  0
    7.3131  -15.3002   23.8887 C   0  0  0  0  0  0  0  0  0  0  0  0
    6.6493  -15.9713   23.0512 O   0  0  0  0  0  0  0  0  0  0  0  0
    7.3927  -15.7471   25.2354 N   0  0  0  0  0  0  0  0  0  0  0  0
    6.8952  -17.0112   25.6455 C   0  0  0  0  0  0  0  0  0  0  0  0
    7.8880  -18.0797   25.8101 C   0  0  0  0  0  0  0  0  0  0  0  0
    7.4595  -19.2619   25.9298 O   0  0  0  0  0  0  0  0  0  0  0  0
   10.9839  -18.6243   23.6520 C   0  0  0  0  0  0  0  0  0  0  0  0
   11.4279  -18.8630   25.0762 C   0  0  1  0  0  0  0  0  0  0  0  0
   12.2439  -17.6635   25.5147 C   0  0  0  0  0  0  0  0  0  0  0  0
   10.2048  -19.0603   25.9097 C   0  0  2  0  0  0  0  0  0  0  0  0
    9.2830  -17.9470   25.8539 N   0  0  0  0  0  0  0  0  0  0  0  0
   10.6150  -19.2790   27.3139 C   0  0  0  0  0  0  0  0  0  0  0  0
   11.2612  -20.4302   27.7343 O   0  0  0  0  0  0  0  0  0  0  0  0
   10.3457  -18.3463   28.1508 O   0  0  0  0  0  0  0  0  0  0  0  0
  1  2  1  0
  3  4  1  0
  3  2  1  0
  4  5  1  0
  5  7  1  0
  5  6  1  6
  7  8  2  0
  9 10  1  0
  9  7  1  0
 11 10  1  0
 11 17  1  0
 12 11  2  0
 14 13  1  6
 14 15  1  0
 14 16  1  0
 16 17  1  1
 16 18  1  0
 18 20  2  0
 18 19  1  0
M  END
$$$$
