MGV.pdb
     RDKit          3D

 20 19  0  0  1  0  0  0  0  0999 V2000
    7.0780  -11.9787   19.9761 C   0  0  0  0  0  0  0  0  0  0  0  0
    8.0617  -12.4773   18.5527 S   0  0  0  0  0  0  0  0  0  0  0  0
    9.1605  -13.8149   19.0252 C   0  0  0  0  0  0  0  0  0  0  0  0
    8.4938  -14.8573   19.8705 C   0  0  0  0  0  0  0  0  0  0  0  0
    9.4720  -15.9536   20.2674 C   0  0  2  0  0  0  0  0  0  0  0  0
    9.3973  -16.9988   19.2943 N   0  0  0  0  0  0  0  0  0  0  0  0
    9.0631  -16.4697   21.6057 C   0  0  0  0  0  0  0  0  0  0  0  0
    8.7267  -17.6810   21.7146 O   0  0  0  0  0  0  0  0  0  0  0  0
    9.0436  -15.6339   22.7549 N   0  0  0  0  0  0  0  0  0  0  0  0
    8.7593  -16.1346   24.0519 C   0  0  0  0  0  0  0  0  0  0  0  0
    9.8635  -16.1043   25.0184 C   0  0  0  0  0  0  0  0  0  0  0  0
   10.9886  -15.7032   24.6077 O   0  0  0  0  0  0  0  0  0  0  0  0
    8.6968  -14.7706   28.3570 C   0  0  0  0  0  0  0  0  0  0  0  0
   10.1160  -14.5603   27.8835 C   0  0  1  0  0  0  0  0  0  0  0  0
   10.9152  -14.0064   29.0460 C   0  0  0  0  0  0  0  0  0  0  0  0
   10.6375  -15.8744   27.4032 C   0  0  2  0  0  0  0  0  0  0  0  0
    9.8231  -16.4753   26.3698 N   0  0  0  0  0  0  0  0  0  0  0  0
   10.7236  -16.8019   28.5522 C   0  0  0  0  0  0  0  0  0  0  0  0
   11.7977  -16.8118   29.4274 O   0  0  0  0  0  0  0  0  0  0  0  0
    9.7485  -17.6175   28.7159 O   0  0  0  0  0  0  0  0  0  0  0  0
  1  2  1  0
  3  4  1  0
  3  2  1  0
  4  5  1  0
  5  7  1  0
  5  6  1  6
  7  8  2  0
  9 10  1  0
  9  7  1  0
 11 10  1  0
 11 17  1  0
 12 11  2  0
 14 13  1  1
 14 15  1  0
 14 16  1  0
 16 17  1  6
 16 18  1  0
 18 20  2  0
 18 19  1  0
M  END
$$$$
