MGV.pdb
     RDKit          3D

 20 19  0  0  1  0  0  0  0  0999 V2000
    8.6443  -12.6630   21.2210 C   0  0  0  0  0  0  0  0  0  0  0  0
    7.5205  -13.1888   19.9161 S   0  0  0  0  0  0  0  0  0  0  0  0
    6.7116  -14.7146   20.4034 C   0  0  0  0  0  0  0  0  0  0  0  0
    7.6701  -15.7726   20.8591 C   0  0  0  0  0  0  0  0  0  0  0  0
    6.9324  -17.0042   21.3644 C   0  0  2  0  0  0  0  0  0  0  0  0
    5.9822  -17.3997   20.3717 N   0  0  0  0  0  0  0  0  0  0  0  0
    6.2298  -16.6315   22.6261 C   0  0  0  0  0  0  0  0  0  0  0  0
    5.5647  -15.5597   22.6592 O   0  0  0  0  0  0  0  0  0  0  0  0
    6.2914  -17.4508   23.7858 N   0  0  0  0  0  0  0  0  0  0  0  0
    7.5226  -17.8480   24.3690 C   0  0  0  0  0  0  0  0  0  0  0  0
    8.3496  -16.7769   24.9376 C   0  0  0  0  0  0  0  0  0  0  0  0
    9.5299  -16.6574   24.5038 O   0  0  0  0  0  0  0  0  0  0  0  0
    9.2948  -12.8505   27.7477 C   0  0  0  0  0  0  0  0  0  0  0  0
    8.2243  -13.7875   27.2391 C   0  0  1  0  0  0  0  0  0  0  0  0
    7.3250  -13.0013   26.3063 C   0  0  0  0  0  0  0  0  0  0  0  0
    8.9024  -14.9288   26.5555 C   0  0  2  0  0  0  0  0  0  0  0  0
    7.9840  -15.8516   25.9253 N   0  0  0  0  0  0  0  0  0  0  0  0
    9.7197  -15.6610   27.5474 C   0  0  0  0  0  0  0  0  0  0  0  0
   11.0124  -15.2856   27.8756 O   0  0  0  0  0  0  0  0  0  0  0  0
    9.1805  -16.6802   28.1070 O   0  0  0  0  0  0  0  0  0  0  0  0
  1  2  1  0
  3  4  1  0
  3  2  1  0
  4  5  1  0
  5  7  1  0
  5  6  1  6
  7  8  2  0
  9 10  1  0
  9  7  1  0
 11 10  1  0
 11 17  1  0
 12 11  2  0
 14 13  1  6
 14 15  1  0
 14 16  1  0
 16 17  1  1
 16 18  1  0
 18 20  2  0
 18 19  1  0
M  END
$$$$
