MGV.pdb
     RDKit          3D

 20 19  0  0  1  0  0  0  0  0999 V2000
    7.5530  -11.7392   20.4487 C   0  0  0  0  0  0  0  0  0  0  0  0
    7.0167  -12.7144   19.0333 S   0  0  0  0  0  0  0  0  0  0  0  0
    7.1693  -14.4603   19.4186 C   0  0  0  0  0  0  0  0  0  0  0  0
    8.3784  -14.7802   20.2442 C   0  0  0  0  0  0  0  0  0  0  0  0
    8.4433  -16.2644   20.5746 C   0  0  2  0  0  0  0  0  0  0  0  0
    7.1178  -16.7232   20.8525 N   0  0  0  0  0  0  0  0  0  0  0  0
    9.3052  -16.4278   21.7809 C   0  0  0  0  0  0  0  0  0  0  0  0
   10.4955  -16.0109   21.7400 O   0  0  0  0  0  0  0  0  0  0  0  0
    8.8200  -17.0385   22.9689 N   0  0  0  0  0  0  0  0  0  0  0  0
    9.6214  -17.1779   24.1317 C   0  0  0  0  0  0  0  0  0  0  0  0
    9.5876  -16.0613   25.0838 C   0  0  0  0  0  0  0  0  0  0  0  0
   10.6242  -15.8506   25.7742 O   0  0  0  0  0  0  0  0  0  0  0  0
    7.4391  -12.2830   27.4386 C   0  0  0  0  0  0  0  0  0  0  0  0
    7.2372  -13.4272   26.4730 C   0  0  1  0  0  0  0  0  0  0  0  0
    6.7557  -12.8455   25.1590 C   0  0  0  0  0  0  0  0  0  0  0  0
    8.5383  -14.1476   26.3389 C   0  0  2  0  0  0  0  0  0  0  0  0
    8.5233  -15.1822   25.3281 N   0  0  0  0  0  0  0  0  0  0  0  0
    8.8858  -14.7510   27.6439 C   0  0  0  0  0  0  0  0  0  0  0  0
    8.7724  -16.1089   27.8947 O   0  0  0  0  0  0  0  0  0  0  0  0
    9.3049  -13.9572   28.5588 O   0  0  0  0  0  0  0  0  0  0  0  0
  1  2  1  0
  3  4  1  0
  3  2  1  0
  4  5  1  0
  5  7  1  0
  5  6  1  1
  7  8  2  0
  9 10  1  0
  9  7  1  0
 11 10  1  0
 11 17  1  0
 12 11  2  0
 14 13  1  1
 14 15  1  0
 14 16  1  0
 16 17  1  6
 16 18  1  0
 18 20  2  0
 18 19  1  0
M  END
$$$$
