MGV.pdb
     RDKit          3D

 20 19  0  0  1  0  0  0  0  0999 V2000
    7.3249  -12.1347   20.1686 C   0  0  0  0  0  0  0  0  0  0  0  0
    7.7740  -13.2079   18.7943 S   0  0  0  0  0  0  0  0  0  0  0  0
    7.5159  -14.9202   19.2646 C   0  0  0  0  0  0  0  0  0  0  0  0
    7.3455  -15.1086   20.7414 C   0  0  0  0  0  0  0  0  0  0  0  0
    7.0332  -16.5593   21.0797 C   0  0  2  0  0  0  0  0  0  0  0  0
    5.8488  -16.9418   20.3758 N   0  0  0  0  0  0  0  0  0  0  0  0
    6.8056  -16.6476   22.5511 C   0  0  0  0  0  0  0  0  0  0  0  0
    5.7522  -16.1494   23.0354 O   0  0  0  0  0  0  0  0  0  0  0  0
    7.7420  -17.2762   23.4158 N   0  0  0  0  0  0  0  0  0  0  0  0
    7.7047  -17.1082   24.8245 C   0  0  0  0  0  0  0  0  0  0  0  0
    8.7477  -16.2553   25.4066 C   0  0  0  0  0  0  0  0  0  0  0  0
    9.7299  -15.9504   24.6733 O   0  0  0  0  0  0  0  0  0  0  0  0
    8.9567  -12.8312   26.3472 C   0  0  0  0  0  0  0  0  0  0  0  0
    9.4372  -13.5301   27.5974 C   0  0  1  0  0  0  0  0  0  0  0  0
    8.2962  -13.5323   28.5949 C   0  0  0  0  0  0  0  0  0  0  0  0
    9.8673  -14.9079   27.2149 C   0  0  2  0  0  0  0  0  0  0  0  0
    8.7903  -15.7276   26.7048 N   0  0  0  0  0  0  0  0  0  0  0  0
   10.4594  -15.5683   28.3986 C   0  0  0  0  0  0  0  0  0  0  0  0
   11.6650  -15.1700   28.9532 O   0  0  0  0  0  0  0  0  0  0  0  0
    9.8054  -16.5463   28.9071 O   0  0  0  0  0  0  0  0  0  0  0  0
  1  2  1  0
  3  4  1  0
  3  2  1  0
  4  5  1  0
  5  7  1  0
  5  6  1  6
  7  8  2  0
  9 10  1  0
  9  7  1  0
 11 10  1  0
 11 17  1  0
 12 11  2  0
 14 13  1  6
 14 15  1  0
 14 16  1  0
 16 17  1  1
 16 18  1  0
 18 20  2  0
 18 19  1  0
M  END
$$$$
