MGV.pdb
     RDKit          3D

 20 19  0  0  1  0  0  0  0  0999 V2000
    8.3092  -12.0726   20.2439 C   0  0  0  0  0  0  0  0  0  0  0  0
    7.0515  -12.8118   21.2994 S   0  0  0  0  0  0  0  0  0  0  0  0
    7.5244  -14.4951   21.7029 C   0  0  0  0  0  0  0  0  0  0  0  0
    7.2666  -15.4647   20.5898 C   0  0  0  0  0  0  0  0  0  0  0  0
    7.7632  -16.8584   20.9466 C   0  0  2  0  0  0  0  0  0  0  0  0
    6.9174  -17.3905   21.9695 N   0  0  0  0  0  0  0  0  0  0  0  0
    9.1606  -16.7310   21.4523 C   0  0  0  0  0  0  0  0  0  0  0  0
   10.0683  -16.3755   20.6511 O   0  0  0  0  0  0  0  0  0  0  0  0
    9.4920  -16.9992   22.8081 N   0  0  0  0  0  0  0  0  0  0  0  0
   10.8121  -16.8555   23.3086 C   0  0  0  0  0  0  0  0  0  0  0  0
   10.9392  -16.2979   24.6603 C   0  0  0  0  0  0  0  0  0  0  0  0
   12.1048  -16.1490   25.1237 O   0  0  0  0  0  0  0  0  0  0  0  0
    9.5203  -13.2359   28.1211 C   0  0  0  0  0  0  0  0  0  0  0  0
    9.0981  -14.0514   26.9214 C   0  0  1  0  0  0  0  0  0  0  0  0
    9.0231  -13.1182   25.7296 C   0  0  0  0  0  0  0  0  0  0  0  0
   10.1006  -15.1420   26.7338 C   0  0  2  0  0  0  0  0  0  0  0  0
    9.9043  -15.9034   25.5198 N   0  0  0  0  0  0  0  0  0  0  0  0
   10.0334  -16.0562   27.8947 C   0  0  0  0  0  0  0  0  0  0  0  0
   10.6448  -15.7745   29.1057 O   0  0  0  0  0  0  0  0  0  0  0  0
    9.3756  -17.1453   27.7402 O   0  0  0  0  0  0  0  0  0  0  0  0
  1  2  1  0
  3  4  1  0
  3  2  1  0
  4  5  1  0
  5  7  1  0
  5  6  1  1
  7  8  2  0
  9 10  1  0
  9  7  1  0
 11 10  1  0
 11 17  1  0
 12 11  2  0
 14 13  1  1
 14 15  1  0
 14 16  1  0
 16 17  1  6
 16 18  1  0
 18 20  2  0
 18 19  1  0
M  END
$$$$
