MGV.pdb
     RDKit          3D

 20 19  0  0  1  0  0  0  0  0999 V2000
    7.0202  -11.5162   25.3402 C   0  0  0  0  0  0  0  0  0  0  0  0
    6.0115  -12.4641   26.4919 S   0  0  0  0  0  0  0  0  0  0  0  0
    6.2889  -14.2168   26.2260 C   0  0  0  0  0  0  0  0  0  0  0  0
    6.4360  -14.5795   24.7795 C   0  0  0  0  0  0  0  0  0  0  0  0
    6.6920  -16.0700   24.6081 C   0  0  2  0  0  0  0  0  0  0  0  0
    7.1297  -16.5996   25.8621 N   0  0  0  0  0  0  0  0  0  0  0  0
    7.7607  -16.2359   23.5810 C   0  0  0  0  0  0  0  0  0  0  0  0
    7.6274  -17.1320   22.7026 O   0  0  0  0  0  0  0  0  0  0  0  0
    8.9194  -15.4131   23.5684 N   0  0  0  0  0  0  0  0  0  0  0  0
   10.2315  -15.9501   23.6301 C   0  0  0  0  0  0  0  0  0  0  0  0
   10.8102  -16.1035   24.9701 C   0  0  0  0  0  0  0  0  0  0  0  0
   12.0675  -16.0420   25.0741 O   0  0  0  0  0  0  0  0  0  0  0  0
   10.5688  -14.7716   29.5621 C   0  0  0  0  0  0  0  0  0  0  0  0
    9.8922  -14.9849   28.2283 C   0  0  1  0  0  0  0  0  0  0  0  0
    9.8577  -13.6521   27.5075 C   0  0  0  0  0  0  0  0  0  0  0  0
   10.6675  -16.0204   27.4824 C   0  0  2  0  0  0  0  0  0  0  0  0
   10.1251  -16.3163   26.1746 N   0  0  0  0  0  0  0  0  0  0  0  0
   10.6995  -17.2622   28.2855 C   0  0  0  0  0  0  0  0  0  0  0  0
   11.5239  -17.4197   29.3878 O   0  0  0  0  0  0  0  0  0  0  0  0
    9.9212  -18.2123   27.9191 O   0  0  0  0  0  0  0  0  0  0  0  0
  1  2  1  0
  3  4  1  0
  3  2  1  0
  4  5  1  0
  5  7  1  0
  5  6  1  1
  7  8  2  0
  9 10  1  0
  9  7  1  0
 11 10  1  0
 11 17  1  0
 12 11  2  0
 14 13  1  1
 14 15  1  0
 14 16  1  0
 16 17  1  6
 16 18  1  0
 18 20  2  0
 18 19  1  0
M  END
$$$$
