MGV.pdb
     RDKit          3D

 20 19  0  0  1  0  0  0  0  0999 V2000
    8.2034  -11.9160   19.8269 C   0  0  0  0  0  0  0  0  0  0  0  0
    7.3439  -12.8521   18.5512 S   0  0  0  0  0  0  0  0  0  0  0  0
    7.1192  -14.5450   19.1019 C   0  0  0  0  0  0  0  0  0  0  0  0
    7.2951  -14.7142   20.5804 C   0  0  0  0  0  0  0  0  0  0  0  0
    7.1636  -16.1748   20.9877 C   0  0  2  0  0  0  0  0  0  0  0  0
    5.8561  -16.6277   20.6270 N   0  0  0  0  0  0  0  0  0  0  0  0
    7.3440  -16.2561   22.4660 C   0  0  0  0  0  0  0  0  0  0  0  0
    6.4065  -15.8681   23.2162 O   0  0  0  0  0  0  0  0  0  0  0  0
    8.5404  -16.7574   23.0465 N   0  0  0  0  0  0  0  0  0  0  0  0
    9.6983  -15.9536   23.2106 C   0  0  0  0  0  0  0  0  0  0  0  0
    9.7892  -15.1899   24.4607 C   0  0  0  0  0  0  0  0  0  0  0  0
   10.9074  -14.6811   24.7546 O   0  0  0  0  0  0  0  0  0  0  0  0
    7.7663  -12.2442   25.6726 C   0  0  0  0  0  0  0  0  0  0  0  0
    7.8081  -13.2088   26.8346 C   0  0  1  0  0  0  0  0  0  0  0  0
    6.4602  -13.8970   26.9146 C   0  0  0  0  0  0  0  0  0  0  0  0
    8.9279  -14.1667   26.5939 C   0  0  2  0  0  0  0  0  0  0  0  0
    8.7666  -14.9518   25.3898 N   0  0  0  0  0  0  0  0  0  0  0  0
    9.0342  -15.0773   27.7547 C   0  0  0  0  0  0  0  0  0  0  0  0
    9.4842  -14.6580   28.9962 O   0  0  0  0  0  0  0  0  0  0  0  0
    8.6889  -16.2978   27.5704 O   0  0  0  0  0  0  0  0  0  0  0  0
  1  2  1  0
  3  4  1  0
  3  2  1  0
  4  5  1  0
  5  7  1  0
  5  6  1  1
  7  8  2  0
  9 10  1  0
  9  7  1  0
 11 10  1  0
 11 17  1  0
 12 11  2  0
 14 13  1  6
 14 15  1  0
 14 16  1  0
 16 17  1  6
 16 18  1  0
 18 20  2  0
 18 19  1  0
M  END
$$$$
