MGV.pdb
     RDKit          3D

 20 19  0  0  1  0  0  0  0  0999 V2000
    8.7483  -12.1728   19.7518 C   0  0  0  0  0  0  0  0  0  0  0  0
    8.3718  -13.1431   18.2825 S   0  0  0  0  0  0  0  0  0  0  0  0
    8.2866  -14.8812   18.7203 C   0  0  0  0  0  0  0  0  0  0  0  0
    7.5060  -15.1378   19.9735 C   0  0  0  0  0  0  0  0  0  0  0  0
    7.5505  -16.6094   20.3591 C   0  0  2  0  0  0  0  0  0  0  0  0
    6.8670  -17.3604   19.3523 N   0  0  0  0  0  0  0  0  0  0  0  0
    6.8561  -16.7604   21.6705 C   0  0  0  0  0  0  0  0  0  0  0  0
    5.6142  -16.5453   21.7304 O   0  0  0  0  0  0  0  0  0  0  0  0
    7.5565  -17.1387   22.8478 N   0  0  0  0  0  0  0  0  0  0  0  0
    7.0742  -16.8355   24.1475 C   0  0  0  0  0  0  0  0  0  0  0  0
    7.5973  -15.6123   24.7674 C   0  0  0  0  0  0  0  0  0  0  0  0
    8.5746  -15.0437   24.2043 O   0  0  0  0  0  0  0  0  0  0  0  0
    7.4545  -11.6698   27.6560 C   0  0  0  0  0  0  0  0  0  0  0  0
    6.7250  -12.9008   27.1714 C   0  0  1  0  0  0  0  0  0  0  0  0
    5.6208  -12.4477   26.2373 C   0  0  0  0  0  0  0  0  0  0  0  0
    7.7200  -13.7862   26.4964 C   0  0  2  0  0  0  0  0  0  0  0  0
    7.1375  -14.9846   25.9337 N   0  0  0  0  0  0  0  0  0  0  0  0
    8.7603  -14.1679   27.4762 C   0  0  0  0  0  0  0  0  0  0  0  0
    9.8792  -13.3884   27.7219 O   0  0  0  0  0  0  0  0  0  0  0  0
    8.5900  -15.2712   28.1058 O   0  0  0  0  0  0  0  0  0  0  0  0
  1  2  1  0
  3  4  1  0
  3  2  1  0
  4  5  1  0
  5  7  1  0
  5  6  1  6
  7  8  2  0
  9 10  1  0
  9  7  1  0
 11 10  1  0
 11 17  1  0
 12 11  2  0
 14 13  1  6
 14 15  1  0
 14 16  1  0
 16 17  1  1
 16 18  1  0
 18 20  2  0
 18 19  1  0
M  END
$$$$
