MGV.pdb
     RDKit          3D

 20 19  0  0  1  0  0  0  0  0999 V2000
    6.5986  -11.3977   26.2289 C   0  0  0  0  0  0  0  0  0  0  0  0
    5.5127  -12.8333   26.2726 S   0  0  0  0  0  0  0  0  0  0  0  0
    6.3358  -14.2285   25.5010 C   0  0  0  0  0  0  0  0  0  0  0  0
    6.9885  -13.8828   24.1970 C   0  0  0  0  0  0  0  0  0  0  0  0
    7.4243  -15.1350   23.4497 C   0  0  2  0  0  0  0  0  0  0  0  0
    6.8634  -16.2726   24.1099 N   0  0  0  0  0  0  0  0  0  0  0  0
    8.9138  -15.1997   23.4942 C   0  0  0  0  0  0  0  0  0  0  0  0
    9.5574  -14.1762   23.8554 O   0  0  0  0  0  0  0  0  0  0  0  0
    9.6213  -16.3807   23.1414 N   0  0  0  0  0  0  0  0  0  0  0  0
   10.1342  -17.2767   24.1149 C   0  0  0  0  0  0  0  0  0  0  0  0
   10.9008  -16.6763   25.2132 C   0  0  0  0  0  0  0  0  0  0  0  0
   12.1608  -16.7314   25.1447 O   0  0  0  0  0  0  0  0  0  0  0  0
   11.0349  -13.4624   27.5459 C   0  0  0  0  0  0  0  0  0  0  0  0
   10.7264  -14.6837   28.3801 C   0  0  1  0  0  0  0  0  0  0  0  0
    9.2453  -14.6640   28.7008 C   0  0  0  0  0  0  0  0  0  0  0  0
   11.1271  -15.8881   27.5936 C   0  0  2  0  0  0  0  0  0  0  0  0
   10.3961  -16.0371   26.3544 N   0  0  0  0  0  0  0  0  0  0  0  0
   10.9183  -17.0924   28.4265 C   0  0  0  0  0  0  0  0  0  0  0  0
   11.6750  -17.3622   29.5554 O   0  0  0  0  0  0  0  0  0  0  0  0
    9.9922  -17.8995   28.0608 O   0  0  0  0  0  0  0  0  0  0  0  0
  1  2  1  0
  3  4  1  0
  3  2  1  0
  4  5  1  0
  5  7  1  0
  5  6  1  1
  7  8  2  0
  9 10  1  0
  9  7  1  0
 11 10  1  0
 11 17  1  0
 12 11  2  0
 14 13  1  6
 14 15  1  0
 14 16  1  0
 16 17  1  6
 16 18  1  0
 18 20  2  0
 18 19  1  0
M  END
$$$$
