MGV.pdb
     RDKit          3D

 20 19  0  0  1  0  0  0  0  0999 V2000
    7.4141  -11.5215   20.0233 C   0  0  0  0  0  0  0  0  0  0  0  0
    7.4223  -12.7429   18.7004 S   0  0  0  0  0  0  0  0  0  0  0  0
    8.1538  -14.2678   19.2999 C   0  0  0  0  0  0  0  0  0  0  0  0
    8.0222  -14.4440   20.7823 C   0  0  0  0  0  0  0  0  0  0  0  0
    8.7345  -15.7039   21.2531 C   0  0  2  0  0  0  0  0  0  0  0  0
    8.1150  -16.8319   20.6298 N   0  0  0  0  0  0  0  0  0  0  0  0
    8.5823  -15.7896   22.7344 C   0  0  0  0  0  0  0  0  0  0  0  0
    9.0221  -14.8460   23.4474 O   0  0  0  0  0  0  0  0  0  0  0  0
    7.9570  -16.9029   23.3582 N   0  0  0  0  0  0  0  0  0  0  0  0
    7.7301  -16.9591   24.7579 C   0  0  0  0  0  0  0  0  0  0  0  0
    8.8888  -16.6879   25.6171 C   0  0  0  0  0  0  0  0  0  0  0  0
   10.0352  -16.7593   25.0916 O   0  0  0  0  0  0  0  0  0  0  0  0
   11.0068  -14.1904   29.1803 C   0  0  0  0  0  0  0  0  0  0  0  0
    9.7141  -14.6660   28.5596 C   0  0  1  0  0  0  0  0  0  0  0  0
    9.1249  -13.5118   27.7737 C   0  0  0  0  0  0  0  0  0  0  0  0
   10.0267  -15.8456   27.6991 C   0  0  2  0  0  0  0  0  0  0  0  0
    8.8801  -16.3541   26.9787 N   0  0  0  0  0  0  0  0  0  0  0  0
   10.5808  -16.9221   28.5488 C   0  0  0  0  0  0  0  0  0  0  0  0
   11.9232  -16.9951   28.8841 O   0  0  0  0  0  0  0  0  0  0  0  0
    9.7587  -17.8083   28.9750 O   0  0  0  0  0  0  0  0  0  0  0  0
  1  2  1  0
  3  4  1  0
  3  2  1  0
  4  5  1  0
  5  7  1  0
  5  6  1  6
  7  8  2  0
  9 10  1  0
  9  7  1  0
 11 10  1  0
 11 17  1  0
 12 11  2  0
 14 13  1  6
 14 15  1  0
 14 16  1  0
 16 17  1  1
 16 18  1  0
 18 20  2  0
 18 19  1  0
M  END
$$$$
