MGV.pdb
     RDKit          3D

 20 19  0  0  1  0  0  0  0  0999 V2000
    9.2616  -12.2127   20.0634 C   0  0  0  0  0  0  0  0  0  0  0  0
    7.8117  -12.8376   19.1979 S   0  0  0  0  0  0  0  0  0  0  0  0
    7.4249  -14.4856   19.7933 C   0  0  0  0  0  0  0  0  0  0  0  0
    8.6042  -15.4102   19.7825 C   0  0  0  0  0  0  0  0  0  0  0  0
    8.2101  -16.8116   20.2263 C   0  0  2  0  0  0  0  0  0  0  0  0
    6.9361  -17.1236   19.6569 N   0  0  0  0  0  0  0  0  0  0  0  0
    8.1195  -16.8120   21.7151 C   0  0  0  0  0  0  0  0  0  0  0  0
    9.1845  -16.8616   22.3901 O   0  0  0  0  0  0  0  0  0  0  0  0
    6.8688  -16.7580   22.3878 N   0  0  0  0  0  0  0  0  0  0  0  0
    6.7700  -16.5740   23.7914 C   0  0  0  0  0  0  0  0  0  0  0  0
    7.4372  -15.3880   24.3414 C   0  0  0  0  0  0  0  0  0  0  0  0
    8.1697  -14.7157   23.5623 O   0  0  0  0  0  0  0  0  0  0  0  0
    6.4583  -12.1305   25.2967 C   0  0  0  0  0  0  0  0  0  0  0  0
    7.1813  -12.6111   26.5331 C   0  0  1  0  0  0  0  0  0  0  0  0
    6.1365  -13.0318   27.5471 C   0  0  0  0  0  0  0  0  0  0  0  0
    8.0765  -13.7366   26.1312 C   0  0  2  0  0  0  0  0  0  0  0  0
    7.3616  -14.8998   25.6535 N   0  0  0  0  0  0  0  0  0  0  0  0
    8.9078  -14.1225   27.2921 C   0  0  0  0  0  0  0  0  0  0  0  0
    8.8654  -15.3875   27.8558 O   0  0  0  0  0  0  0  0  0  0  0  0
    9.6878  -13.2262   27.7728 O   0  0  0  0  0  0  0  0  0  0  0  0
  1  2  1  0
  3  4  1  0
  3  2  1  0
  4  5  1  0
  5  7  1  0
  5  6  1  6
  7  8  2  0
  9 10  1  0
  9  7  1  0
 11 10  1  0
 11 17  1  0
 12 11  2  0
 14 13  1  6
 14 15  1  0
 14 16  1  0
 16 17  1  1
 16 18  1  0
 18 20  2  0
 18 19  1  0
M  END
$$$$
