MGV.pdb
     RDKit          3D

 20 19  0  0  1  0  0  0  0  0999 V2000
    8.3194  -12.4036   19.9399 C   0  0  0  0  0  0  0  0  0  0  0  0
    8.1002  -13.4300   18.4768 S   0  0  0  0  0  0  0  0  0  0  0  0
    7.8916  -15.1416   18.9737 C   0  0  0  0  0  0  0  0  0  0  0  0
    7.2335  -15.2929   20.3115 C   0  0  0  0  0  0  0  0  0  0  0  0
    7.1491  -16.7560   20.7220 C   0  0  2  0  0  0  0  0  0  0  0  0
    6.2460  -17.4219   19.8356 N   0  0  0  0  0  0  0  0  0  0  0  0
    6.6291  -16.8105   22.1189 C   0  0  0  0  0  0  0  0  0  0  0  0
    5.4160  -16.5336   22.3284 O   0  0  0  0  0  0  0  0  0  0  0  0
    7.4632  -17.1649   23.2136 N   0  0  0  0  0  0  0  0  0  0  0  0
    7.1454  -16.8182   24.5524 C   0  0  0  0  0  0  0  0  0  0  0  0
    7.8842  -15.6867   25.1253 C   0  0  0  0  0  0  0  0  0  0  0  0
    8.8502  -15.2215   24.4575 O   0  0  0  0  0  0  0  0  0  0  0  0
    6.7351  -12.2826   26.0742 C   0  0  0  0  0  0  0  0  0  0  0  0
    7.5141  -12.7714   27.2729 C   0  0  1  0  0  0  0  0  0  0  0  0
    6.5168  -13.1944   28.3328 C   0  0  0  0  0  0  0  0  0  0  0  0
    8.3860  -13.8972   26.8237 C   0  0  2  0  0  0  0  0  0  0  0  0
    7.6462  -15.0460   26.3493 N   0  0  0  0  0  0  0  0  0  0  0  0
    9.2502  -14.3099   27.9510 C   0  0  0  0  0  0  0  0  0  0  0  0
   10.2837  -13.5210   28.4298 O   0  0  0  0  0  0  0  0  0  0  0  0
    9.0068  -15.4499   28.4838 O   0  0  0  0  0  0  0  0  0  0  0  0
  1  2  1  0
  3  4  1  0
  3  2  1  0
  4  5  1  0
  5  7  1  0
  5  6  1  6
  7  8  2  0
  9 10  1  0
  9  7  1  0
 11 10  1  0
 11 17  1  0
 12 11  2  0
 14 13  1  6
 14 15  1  0
 14 16  1  0
 16 17  1  1
 16 18  1  0
 18 20  2  0
 18 19  1  0
M  END
$$$$
