MGV.pdb
     RDKit          3D

 20 19  0  0  1  0  0  0  0  0999 V2000
    6.9445  -12.2284   26.9620 C   0  0  0  0  0  0  0  0  0  0  0  0
    5.6203  -12.2577   25.7422 S   0  0  0  0  0  0  0  0  0  0  0  0
    6.2231  -13.0001   24.2239 C   0  0  0  0  0  0  0  0  0  0  0  0
    7.5102  -13.7469   24.4012 C   0  0  0  0  0  0  0  0  0  0  0  0
    8.0071  -14.3110   23.0779 C   0  0  2  0  0  0  0  0  0  0  0  0
    6.9807  -15.1406   22.5273 N   0  0  0  0  0  0  0  0  0  0  0  0
    9.2275  -15.1223   23.3553 C   0  0  0  0  0  0  0  0  0  0  0  0
   10.2362  -14.5533   23.8563 O   0  0  0  0  0  0  0  0  0  0  0  0
    9.2808  -16.5136   23.0701 N   0  0  0  0  0  0  0  0  0  0  0  0
    9.8718  -17.4478   23.9599 C   0  0  0  0  0  0  0  0  0  0  0  0
   10.5661  -16.8880   25.1255 C   0  0  0  0  0  0  0  0  0  0  0  0
   11.8218  -16.7703   25.0568 O   0  0  0  0  0  0  0  0  0  0  0  0
   11.0668  -14.6629   29.4439 C   0  0  0  0  0  0  0  0  0  0  0  0
   10.1851  -14.9282   28.2460 C   0  0  1  0  0  0  0  0  0  0  0  0
   10.1512  -13.6666   27.4068 C   0  0  0  0  0  0  0  0  0  0  0  0
   10.7558  -16.0935   27.5071 C   0  0  2  0  0  0  0  0  0  0  0  0
    9.9954  -16.4602   26.3326 N   0  0  0  0  0  0  0  0  0  0  0  0
   10.8210  -17.2532   28.4230 C   0  0  0  0  0  0  0  0  0  0  0  0
    9.9498  -18.3269   28.3343 O   0  0  0  0  0  0  0  0  0  0  0  0
   11.7315  -17.2320   29.3247 O   0  0  0  0  0  0  0  0  0  0  0  0
  1  2  1  0
  3  4  1  0
  3  2  1  0
  4  5  1  0
  5  7  1  0
  5  6  1  1
  7  8  2  0
  9 10  1  0
  9  7  1  0
 11 10  1  0
 11 17  1  0
 12 11  2  0
 14 13  1  1
 14 15  1  0
 14 16  1  0
 16 17  1  6
 16 18  1  0
 18 20  2  0
 18 19  1  0
M  END
$$$$
