MGV.pdb
     RDKit          3D

 20 19  0  0  1  0  0  0  0  0999 V2000
    8.3278  -11.7998   20.1914 C   0  0  0  0  0  0  0  0  0  0  0  0
    7.1254  -13.0981   19.8587 S   0  0  0  0  0  0  0  0  0  0  0  0
    7.9704  -14.6757   19.7288 C   0  0  0  0  0  0  0  0  0  0  0  0
    8.2961  -15.2834   21.0593 C   0  0  0  0  0  0  0  0  0  0  0  0
    7.1967  -16.2314   21.5163 C   0  0  2  0  0  0  0  0  0  0  0  0
    5.9967  -15.4756   21.6997 N   0  0  0  0  0  0  0  0  0  0  0  0
    7.6232  -16.8372   22.8109 C   0  0  0  0  0  0  0  0  0  0  0  0
    8.5895  -17.6486   22.8145 O   0  0  0  0  0  0  0  0  0  0  0  0
    6.9704  -16.5237   24.0337 N   0  0  0  0  0  0  0  0  0  0  0  0
    7.3619  -17.0977   25.2711 C   0  0  0  0  0  0  0  0  0  0  0  0
    8.6510  -16.6550   25.8156 C   0  0  0  0  0  0  0  0  0  0  0  0
    9.5969  -16.4685   24.9996 O   0  0  0  0  0  0  0  0  0  0  0  0
    9.5473  -13.5923   27.1430 C   0  0  0  0  0  0  0  0  0  0  0  0
   10.1247  -14.5055   28.1989 C   0  0  1  0  0  0  0  0  0  0  0  0
    9.2054  -14.4617   29.4030 C   0  0  0  0  0  0  0  0  0  0  0  0
   10.2344  -15.8735   27.6104 C   0  0  2  0  0  0  0  0  0  0  0  0
    8.9694  -16.4102   27.1589 N   0  0  0  0  0  0  0  0  0  0  0  0
   10.8123  -16.7833   28.6233 C   0  0  0  0  0  0  0  0  0  0  0  0
   12.1351  -16.7088   29.0286 O   0  0  0  0  0  0  0  0  0  0  0  0
   10.0307  -17.6659   29.1262 O   0  0  0  0  0  0  0  0  0  0  0  0
  1  2  1  0
  3  4  1  0
  3  2  1  0
  4  5  1  0
  5  7  1  0
  5  6  1  1
  7  8  2  0
  9 10  1  0
  9  7  1  0
 11 10  1  0
 11 17  1  0
 12 11  2  0
 14 13  1  6
 14 15  1  0
 14 16  1  0
 16 17  1  1
 16 18  1  0
 18 20  2  0
 18 19  1  0
M  END
$$$$
