KRN.pdb
     RDKit          3D

 29 28  0  0  1  0  0  0  0  0999 V2000
   27.9949  -22.3126  -16.3127 N   0  0  0  0  0  0  0  0  0  0  0  0
   27.5005  -21.1042  -15.6928 C   0  0  1  0  0  0  0  0  0  0  0  0
   27.3076  -20.0774  -16.7614 C   0  0  0  0  0  0  0  0  0  0  0  0
   28.5606  -20.0690  -17.6123 C   0  0  0  0  0  0  0  0  0  0  0  0
   28.5211  -19.0240  -18.6972 C   0  0  0  0  0  0  0  0  0  0  0  0
   28.6150  -17.6586  -18.0592 C   0  0  0  0  0  0  0  0  0  0  0  0
   28.6541  -16.6076  -19.0578 N   0  0  0  0  0  0  0  0  0  0  0  0
   26.3039  -21.3417  -14.8499 C   0  0  0  0  0  0  0  0  0  0  0  0
   25.5027  -22.2281  -15.2372 O   0  0  0  0  0  0  0  0  0  0  0  0
   23.0778  -21.3806   -6.8561 N   0  0  0  0  0  0  0  0  0  0  0  0
   22.6461  -21.0514   -8.1812 C   0  0  0  0  0  0  0  0  0  0  0  0
   21.3854  -21.0177   -8.4660 N   0  0  0  0  0  0  0  0  0  0  0  0
   23.5604  -20.7524   -9.2173 N   0  0  0  0  0  0  0  0  0  0  0  0
   24.7848  -21.4824   -9.4574 C   0  0  0  0  0  0  0  0  0  0  0  0
   25.6335  -20.8233  -10.5232 C   0  0  0  0  0  0  0  0  0  0  0  0
   24.8068  -20.1577  -11.5779 C   0  0  0  0  0  0  0  0  0  0  0  0
   24.8355  -20.8109  -12.9222 C   0  0  2  0  0  0  0  0  0  0  0  0
   26.0499  -20.6178  -13.6598 N   0  0  0  0  0  0  0  0  0  0  0  0
   23.6810  -20.2449  -13.7127 C   0  0  0  0  0  0  0  0  0  0  0  0
   23.8284  -19.1474  -14.2581 O   0  0  0  0  0  0  0  0  0  0  0  0
   21.1013  -20.7608   -9.4220 N   0  0  0  0  0  0  0  0  0  0  0  0
   19.3862  -19.8375  -16.7136 C   0  0  0  0  0  0  0  0  0  0  0  0
   20.7438  -19.9795  -17.0462 O   0  0  0  0  0  0  0  0  0  0  0  0
   21.0783  -19.7707  -18.2628 C   0  0  0  0  0  0  0  0  0  0  0  0
   21.8300  -20.3473  -16.1285 C   0  0  1  0  0  0  0  0  0  0  0  0
   21.3885  -20.5461  -14.7108 N   0  0  0  0  0  0  0  0  0  0  0  0
   22.4579  -20.9433  -13.8334 C   0  0  0  0  0  0  0  0  0  0  0  0
   20.2037  -21.4265  -14.5888 O   0  0  0  0  0  0  0  0  0  0  0  0
   19.1709  -21.1640  -15.2279 O   0  0  0  0  0  0  0  0  0  0  0  0
  2  1  1  6
  3  2  1  0
  3  4  1  0
  4  5  1  0
  6  5  1  0
  7  6  1  0
  8  9  2  0
  8  2  1  0
 10 11  1  0
 11 12  2  0
 13 14  1  0
 13 11  1  0
 15 14  1  0
 15 16  1  0
 17 16  1  1
 17 18  1  0
 18  8  1  0
 19 17  1  0
 19 26  1  0
 20 19  2  0
 21 22  1  0
 22 24  1  0
 23 22  2  0
 25 24  1  1
 25 26  1  0
 25 27  1  0
 27 28  2  0
 27 29  1  0
M  END
$$$$
