KRN.pdb
     RDKit          3D

 29 28  0  0  1  0  0  0  0  0999 V2000
   25.4692  -24.1362  -16.0260 N   0  0  0  0  0  0  0  0  0  0  0  0
   26.1181  -23.0533  -15.3225 C   0  0  1  0  0  0  0  0  0  0  0  0
   26.2432  -21.8967  -16.2606 C   0  0  0  0  0  0  0  0  0  0  0  0
   24.8570  -21.3168  -16.4514 C   0  0  0  0  0  0  0  0  0  0  0  0
   24.2334  -21.7172  -17.7634 C   0  0  0  0  0  0  0  0  0  0  0  0
   24.4447  -20.6033  -18.7607 C   0  0  0  0  0  0  0  0  0  0  0  0
   23.8552  -20.9231  -20.0466 N   0  0  0  0  0  0  0  0  0  0  0  0
   25.4560  -22.7283  -14.0362 C   0  0  0  0  0  0  0  0  0  0  0  0
   24.2881  -23.1609  -13.8729 O   0  0  0  0  0  0  0  0  0  0  0  0
   30.6517  -21.6517   -7.7888 N   0  0  0  0  0  0  0  0  0  0  0  0
   30.5814  -21.3914   -9.1951 C   0  0  0  0  0  0  0  0  0  0  0  0
   31.5933  -21.6510   -9.9569 N   0  0  0  0  0  0  0  0  0  0  0  0
   29.4249  -20.8513   -9.8030 N   0  0  0  0  0  0  0  0  0  0  0  0
   28.1002  -20.9107   -9.2271 C   0  0  0  0  0  0  0  0  0  0  0  0
   27.1468  -21.7093  -10.0894 C   0  0  0  0  0  0  0  0  0  0  0  0
   26.1825  -20.8371  -10.8299 C   0  0  0  0  0  0  0  0  0  0  0  0
   25.3576  -21.5293  -11.8667 C   0  0  2  0  0  0  0  0  0  0  0  0
   26.0857  -21.9673  -13.0218 N   0  0  0  0  0  0  0  0  0  0  0  0
   24.2843  -20.5592  -12.2968 C   0  0  0  0  0  0  0  0  0  0  0  0
   24.6278  -19.5334  -12.8914 O   0  0  0  0  0  0  0  0  0  0  0  0
   31.5192  -21.4472  -10.9637 N   0  0  0  0  0  0  0  0  0  0  0  0
   19.7356  -18.7350  -14.1617 C   0  0  0  0  0  0  0  0  0  0  0  0
   20.8355  -19.3301  -14.8019 O   0  0  0  0  0  0  0  0  0  0  0  0
   20.8883  -19.2536  -16.0775 C   0  0  0  0  0  0  0  0  0  0  0  0
   21.9433  -20.0388  -14.1480 C   0  0  1  0  0  0  0  0  0  0  0  0
   21.8358  -20.0912  -12.6547 N   0  0  0  0  0  0  0  0  0  0  0  0
   22.9180  -20.8071  -12.0322 C   0  0  0  0  0  0  0  0  0  0  0  0
   20.5100  -20.5536  -12.1831 O   0  0  0  0  0  0  0  0  0  0  0  0
   20.4327  -21.5289  -11.4172 O   0  0  0  0  0  0  0  0  0  0  0  0
  2  1  1  6
  3  2  1  0
  3  4  1  0
  4  5  1  0
  6  5  1  0
  7  6  1  0
  8  9  2  0
  8  2  1  0
 10 11  1  0
 11 12  2  0
 13 14  1  0
 13 11  1  0
 15 14  1  0
 15 16  1  0
 17 16  1  1
 17 18  1  0
 18  8  1  0
 19 17  1  0
 19 26  1  0
 20 19  2  0
 21 22  1  0
 22 24  1  0
 23 22  2  0
 25 24  1  1
 25 26  1  0
 25 27  1  0
 27 28  2  0
 27 29  1  0
M  END
$$$$
