KRN.pdb
     RDKit          3D

 29 28  0  0  1  0  0  0  0  0999 V2000
   26.6705  -20.1828  -16.0075 N   0  0  0  0  0  0  0  0  0  0  0  0
   26.3586  -21.5817  -15.8212 C   0  0  1  0  0  0  0  0  0  0  0  0
   27.6424  -22.3465  -15.7981 C   0  0  0  0  0  0  0  0  0  0  0  0
   28.4088  -21.9820  -17.0526 C   0  0  0  0  0  0  0  0  0  0  0  0
   29.0167  -23.1812  -17.7331 C   0  0  0  0  0  0  0  0  0  0  0  0
   30.5068  -23.1737  -17.4890 C   0  0  0  0  0  0  0  0  0  0  0  0
   31.2485  -23.1191  -18.7341 N   0  0  0  0  0  0  0  0  0  0  0  0
   25.4828  -21.8215  -14.6489 C   0  0  0  0  0  0  0  0  0  0  0  0
   25.1505  -23.0113  -14.4218 O   0  0  0  0  0  0  0  0  0  0  0  0
   28.7698  -21.0469   -8.6074 N   0  0  0  0  0  0  0  0  0  0  0  0
   27.6194  -20.2970   -8.2016 C   0  0  0  0  0  0  0  0  0  0  0  0
   27.7257  -19.3798   -7.2965 N   0  0  0  0  0  0  0  0  0  0  0  0
   26.3406  -20.5194   -8.7622 N   0  0  0  0  0  0  0  0  0  0  0  0
   25.9551  -21.7287   -9.4541 C   0  0  0  0  0  0  0  0  0  0  0  0
   25.8876  -21.5233  -10.9520 C   0  0  0  0  0  0  0  0  0  0  0  0
   24.6924  -20.7226  -11.3633 C   0  0  0  0  0  0  0  0  0  0  0  0
   24.1387  -21.0449  -12.7140 C   0  0  2  0  0  0  0  0  0  0  0  0
   25.0263  -20.7779  -13.8080 N   0  0  0  0  0  0  0  0  0  0  0  0
   22.8833  -20.2244  -12.8836 C   0  0  0  0  0  0  0  0  0  0  0  0
   22.9990  -19.0404  -13.2131 O   0  0  0  0  0  0  0  0  0  0  0  0
   26.8826  -18.8556   -7.0225 N   0  0  0  0  0  0  0  0  0  0  0  0
   20.1974  -19.8905  -17.3122 C   0  0  0  0  0  0  0  0  0  0  0  0
   20.1040  -19.8897  -15.9104 O   0  0  0  0  0  0  0  0  0  0  0  0
   19.3415  -19.0166  -15.3702 C   0  0  0  0  0  0  0  0  0  0  0  0
   20.8004  -20.8000  -14.9920 C   0  0  2  0  0  0  0  0  0  0  0  0
   20.4786  -20.5709  -13.5469 N   0  0  0  0  0  0  0  0  0  0  0  0
   21.6027  -20.7850  -12.6740 C   0  0  0  0  0  0  0  0  0  0  0  0
   19.2700  -21.2999  -13.0977 O   0  0  0  0  0  0  0  0  0  0  0  0
   19.3195  -22.5292  -12.9236 O   0  0  0  0  0  0  0  0  0  0  0  0
  2  1  1  1
  3  2  1  0
  3  4  1  0
  4  5  1  0
  6  5  1  0
  7  6  1  0
  8  9  2  0
  8  2  1  0
 10 11  1  0
 11 12  2  0
 13 14  1  0
 13 11  1  0
 15 14  1  0
 15 16  1  0
 17 16  1  1
 17 18  1  0
 18  8  1  0
 19 17  1  0
 19 26  1  0
 20 19  2  0
 21 22  1  0
 22 24  1  0
 23 22  2  0
 25 24  1  6
 25 26  1  0
 25 27  1  0
 27 28  2  0
 27 29  1  0
M  END
$$$$
