KRN.pdb
     RDKit          3D

 29 28  0  0  1  0  0  0  0  0999 V2000
   21.5406  -20.8796  -12.5874 N   0  0  0  0  0  0  0  0  0  0  0  0
   22.2745  -20.9953  -13.8272 C   0  0  1  0  0  0  0  0  0  0  0  0
   21.5159  -20.2650  -14.8877 C   0  0  0  0  0  0  0  0  0  0  0  0
   20.2682  -21.0699  -15.1872 C   0  0  0  0  0  0  0  0  0  0  0  0
   20.4484  -22.0138  -16.3479 C   0  0  0  0  0  0  0  0  0  0  0  0
   19.1289  -22.6912  -16.6314 C   0  0  0  0  0  0  0  0  0  0  0  0
   19.2485  -23.6578  -17.7060 N   0  0  0  0  0  0  0  0  0  0  0  0
   23.6919  -20.5809  -13.6940 C   0  0  0  0  0  0  0  0  0  0  0  0
   23.9223  -19.3467  -13.6595 O   0  0  0  0  0  0  0  0  0  0  0  0
   23.9179  -20.9138   -8.3611 N   0  0  0  0  0  0  0  0  0  0  0  0
   25.2931  -20.5705   -8.1572 C   0  0  0  0  0  0  0  0  0  0  0  0
   25.7124  -20.2317   -6.9821 N   0  0  0  0  0  0  0  0  0  0  0  0
   26.2365  -20.5880   -9.2100 N   0  0  0  0  0  0  0  0  0  0  0  0
   26.0328  -21.2600  -10.4736 C   0  0  0  0  0  0  0  0  0  0  0  0
   27.2468  -21.1521  -11.3709 C   0  0  0  0  0  0  0  0  0  0  0  0
   27.0321  -21.8053  -12.6998 C   0  0  0  0  0  0  0  0  0  0  0  0
   26.1223  -21.0744  -13.6340 C   0  0  2  0  0  0  0  0  0  0  0  0
   24.7565  -21.5105  -13.6087 N   0  0  0  0  0  0  0  0  0  0  0  0
   26.6759  -21.2614  -15.0257 C   0  0  0  0  0  0  0  0  0  0  0  0
   26.6035  -22.3823  -15.5377 O   0  0  0  0  0  0  0  0  0  0  0  0
   26.6838  -19.9051   -6.8791 N   0  0  0  0  0  0  0  0  0  0  0  0
   24.4319  -21.2574  -19.5201 C   0  0  0  0  0  0  0  0  0  0  0  0
   25.4924  -21.1746  -18.6024 O   0  0  0  0  0  0  0  0  0  0  0  0
   26.3344  -22.1370  -18.5851 C   0  0  0  0  0  0  0  0  0  0  0  0
   25.7353  -20.0828  -17.6504 C   0  0  2  0  0  0  0  0  0  0  0  0
   27.1481  -20.0073  -17.1579 N   0  0  0  0  0  0  0  0  0  0  0  0
   27.2639  -20.1894  -15.7350 C   0  0  0  0  0  0  0  0  0  0  0  0
   27.8651  -18.8007  -17.6313 O   0  0  0  0  0  0  0  0  0  0  0  0
   28.0267  -18.6167  -18.8495 O   0  0  0  0  0  0  0  0  0  0  0  0
  2  1  1  1
  3  2  1  0
  3  4  1  0
  4  5  1  0
  6  5  1  0
  7  6  1  0
  8  9  2  0
  8  2  1  0
 10 11  1  0
 11 12  2  0
 13 14  1  0
 13 11  1  0
 15 14  1  0
 15 16  1  0
 17 16  1  1
 17 18  1  0
 18  8  1  0
 19 17  1  0
 19 26  1  0
 20 19  2  0
 21 22  1  0
 22 24  1  0
 23 22  2  0
 25 24  1  6
 25 26  1  0
 25 27  1  0
 27 28  2  0
 27 29  1  0
M  END
$$$$
