KRN.pdb
     RDKit          3D

 29 28  0  0  1  0  0  0  0  0999 V2000
   25.6202  -18.7704  -21.3914 N   0  0  0  0  0  0  0  0  0  0  0  0
   25.2158  -17.9244  -20.2916 C   0  0  1  0  0  0  0  0  0  0  0  0
   24.0506  -17.1027  -20.7395 C   0  0  0  0  0  0  0  0  0  0  0  0
   24.5889  -15.7584  -21.1835 C   0  0  0  0  0  0  0  0  0  0  0  0
   25.1215  -14.9369  -20.0380 C   0  0  0  0  0  0  0  0  0  0  0  0
   25.4758  -13.5616  -20.5510 C   0  0  0  0  0  0  0  0  0  0  0  0
   25.9849  -12.7141  -19.4899 N   0  0  0  0  0  0  0  0  0  0  0  0
   24.9826  -18.6849  -19.0403 C   0  0  0  0  0  0  0  0  0  0  0  0
   24.4400  -19.8121  -19.1530 O   0  0  0  0  0  0  0  0  0  0  0  0
   25.9670  -21.9224  -12.8139 N   0  0  0  0  0  0  0  0  0  0  0  0
   25.9192  -21.0210  -11.7022 C   0  0  0  0  0  0  0  0  0  0  0  0
   25.4905  -21.4274  -10.5521 N   0  0  0  0  0  0  0  0  0  0  0  0
   26.3321  -19.6731  -11.8089 N   0  0  0  0  0  0  0  0  0  0  0  0
   26.6778  -19.0244  -13.0537 C   0  0  0  0  0  0  0  0  0  0  0  0
   25.7033  -19.3706  -14.1586 C   0  0  0  0  0  0  0  0  0  0  0  0
   26.0201  -18.6639  -15.4389 C   0  0  0  0  0  0  0  0  0  0  0  0
   25.0944  -18.9525  -16.5766 C   0  0  2  0  0  0  0  0  0  0  0  0
   25.3433  -18.1886  -17.7642 N   0  0  0  0  0  0  0  0  0  0  0  0
   23.6944  -18.6680  -16.0895 C   0  0  0  0  0  0  0  0  0  0  0  0
   23.3856  -17.4971  -15.8498 O   0  0  0  0  0  0  0  0  0  0  0  0
   25.4242  -20.7479   -9.7811 N   0  0  0  0  0  0  0  0  0  0  0  0
   17.8921  -20.7577  -16.3960 C   0  0  0  0  0  0  0  0  0  0  0  0
   19.0151  -20.0406  -15.9508 O   0  0  0  0  0  0  0  0  0  0  0  0
   18.8067  -18.9311  -15.3498 C   0  0  0  0  0  0  0  0  0  0  0  0
   20.4198  -20.4401  -16.1069 C   0  0  2  0  0  0  0  0  0  0  0  0
   21.3957  -19.4941  -15.4765 N   0  0  0  0  0  0  0  0  0  0  0  0
   22.7520  -19.7060  -15.9087 C   0  0  0  0  0  0  0  0  0  0  0  0
   21.2776  -19.4347  -14.0012 O   0  0  0  0  0  0  0  0  0  0  0  0
   21.9260  -20.2274  -13.2974 O   0  0  0  0  0  0  0  0  0  0  0  0
  2  1  1  6
  3  2  1  0
  3  4  1  0
  4  5  1  0
  6  5  1  0
  7  6  1  0
  8  9  2  0
  8  2  1  0
 10 11  1  0
 11 12  2  0
 13 14  1  0
 13 11  1  0
 15 14  1  0
 15 16  1  0
 17 16  1  1
 17 18  1  0
 18  8  1  0
 19 17  1  0
 19 26  1  0
 20 19  2  0
 21 22  1  0
 22 24  1  0
 23 22  2  0
 25 24  1  6
 25 26  1  0
 25 27  1  0
 27 28  2  0
 27 29  1  0
M  END
$$$$
