KRN.pdb
     RDKit          3D

 29 28  0  0  1  0  0  0  0  0999 V2000
   22.0445  -30.0151  -15.4449 N   0  0  0  0  0  0  0  0  0  0  0  0
   21.2889  -28.7928  -15.5992 C   0  0  1  0  0  0  0  0  0  0  0  0
   19.8574  -29.0872  -15.2870 C   0  0  0  0  0  0  0  0  0  0  0  0
   19.0116  -28.1124  -16.0799 C   0  0  0  0  0  0  0  0  0  0  0  0
   17.9789  -27.4144  -15.2332 C   0  0  0  0  0  0  0  0  0  0  0  0
   16.7402  -27.1888  -16.0668 C   0  0  0  0  0  0  0  0  0  0  0  0
   15.6757  -26.5903  -15.2847 N   0  0  0  0  0  0  0  0  0  0  0  0
   21.8632  -27.6639  -14.8283 C   0  0  0  0  0  0  0  0  0  0  0  0
   21.8472  -27.7642  -13.5763 O   0  0  0  0  0  0  0  0  0  0  0  0
   28.4737  -22.3959  -16.5271 N   0  0  0  0  0  0  0  0  0  0  0  0
   27.6109  -23.4928  -16.8478 C   0  0  0  0  0  0  0  0  0  0  0  0
   27.8223  -24.1988  -17.9101 N   0  0  0  0  0  0  0  0  0  0  0  0
   26.5116  -23.8480  -16.0328 N   0  0  0  0  0  0  0  0  0  0  0  0
   25.8345  -22.9366  -15.1379 C   0  0  0  0  0  0  0  0  0  0  0  0
   24.6454  -23.5876  -14.4652 C   0  0  0  0  0  0  0  0  0  0  0  0
   24.1699  -24.8013  -15.1998 C   0  0  0  0  0  0  0  0  0  0  0  0
   22.9215  -25.4261  -14.6653 C   0  0  2  0  0  0  0  0  0  0  0  0
   22.4099  -26.5137  -15.4472 N   0  0  0  0  0  0  0  0  0  0  0  0
   21.8794  -24.3367  -14.5912 C   0  0  0  0  0  0  0  0  0  0  0  0
   22.0412  -23.4279  -13.7716 O   0  0  0  0  0  0  0  0  0  0  0  0
   27.2316  -25.0252  -18.0800 N   0  0  0  0  0  0  0  0  0  0  0  0
   17.2084  -21.7191  -17.4817 C   0  0  0  0  0  0  0  0  0  0  0  0
   17.5829  -22.5425  -16.4068 O   0  0  0  0  0  0  0  0  0  0  0  0
   16.9503  -22.3985  -15.3047 C   0  0  0  0  0  0  0  0  0  0  0  0
   18.6387  -23.5634  -16.4203 C   0  0  1  0  0  0  0  0  0  0  0  0
   19.6936  -23.3625  -15.3757 N   0  0  0  0  0  0  0  0  0  0  0  0
   20.7438  -24.3449  -15.4328 C   0  0  0  0  0  0  0  0  0  0  0  0
   19.1387  -23.2103  -14.0108 O   0  0  0  0  0  0  0  0  0  0  0  0
   18.6886  -24.2023  -13.4131 O   0  0  0  0  0  0  0  0  0  0  0  0
  2  1  1  1
  3  2  1  0
  3  4  1  0
  4  5  1  0
  6  5  1  0
  7  6  1  0
  8  9  2  0
  8  2  1  0
 10 11  1  0
 11 12  2  0
 13 14  1  0
 13 11  1  0
 15 14  1  0
 15 16  1  0
 17 16  1  6
 17 18  1  0
 18  8  1  0
 19 17  1  0
 19 26  1  0
 20 19  2  0
 21 22  1  0
 22 24  1  0
 23 22  2  0
 25 24  1  6
 25 26  1  0
 25 27  1  0
 27 28  2  0
 27 29  1  0
M  END
$$$$
