KRN.pdb
     RDKit          3D

 29 28  0  0  1  0  0  0  0  0999 V2000
   29.2470  -23.1183  -17.8219 N   0  0  0  0  0  0  0  0  0  0  0  0
   28.8173  -21.7459  -17.6773 C   0  0  1  0  0  0  0  0  0  0  0  0
   28.3134  -21.2732  -19.0024 C   0  0  0  0  0  0  0  0  0  0  0  0
   29.5179  -20.8659  -19.8255 C   0  0  0  0  0  0  0  0  0  0  0  0
   29.8612  -21.8723  -20.8932 C   0  0  0  0  0  0  0  0  0  0  0  0
   30.9986  -21.3286  -21.7244 C   0  0  0  0  0  0  0  0  0  0  0  0
   31.5143  -22.3299  -22.6381 N   0  0  0  0  0  0  0  0  0  0  0  0
   27.8624  -21.5601  -16.5583 C   0  0  0  0  0  0  0  0  0  0  0  0
   26.8394  -22.2889  -16.5571 O   0  0  0  0  0  0  0  0  0  0  0  0
   25.1269  -20.5194   -8.4670 N   0  0  0  0  0  0  0  0  0  0  0  0
   24.7390  -21.0937   -9.7200 C   0  0  0  0  0  0  0  0  0  0  0  0
   23.4875  -21.2461  -10.0070 N   0  0  0  0  0  0  0  0  0  0  0  0
   25.6875  -21.5101  -10.6822 N   0  0  0  0  0  0  0  0  0  0  0  0
   26.9414  -20.8358  -10.9330 C   0  0  0  0  0  0  0  0  0  0  0  0
   26.8119  -19.7935  -12.0226 C   0  0  0  0  0  0  0  0  0  0  0  0
   27.7709  -20.0242  -13.1477 C   0  0  0  0  0  0  0  0  0  0  0  0
   27.1600  -20.5167  -14.4201 C   0  0  2  0  0  0  0  0  0  0  0  0
   28.0674  -20.6127  -15.5262 N   0  0  0  0  0  0  0  0  0  0  0  0
   26.0473  -19.5604  -14.7744 C   0  0  0  0  0  0  0  0  0  0  0  0
   26.3372  -18.5258  -15.3822 O   0  0  0  0  0  0  0  0  0  0  0  0
   23.2353  -21.6416  -10.9240 N   0  0  0  0  0  0  0  0  0  0  0  0
   22.4622  -18.0403  -18.2746 C   0  0  0  0  0  0  0  0  0  0  0  0
   22.4870  -19.1309  -17.3893 O   0  0  0  0  0  0  0  0  0  0  0  0
   21.3976  -19.7794  -17.2210 C   0  0  0  0  0  0  0  0  0  0  0  0
   23.6498  -19.6074  -16.6290 C   0  0  1  0  0  0  0  0  0  0  0  0
   23.5684  -19.3362  -15.1579 N   0  0  0  0  0  0  0  0  0  0  0  0
   24.7044  -19.8307  -14.4256 C   0  0  0  0  0  0  0  0  0  0  0  0
   22.2829  -19.7629  -14.5584 O   0  0  0  0  0  0  0  0  0  0  0  0
   22.2175  -20.8373  -13.9376 O   0  0  0  0  0  0  0  0  0  0  0  0
  2  1  1  6
  3  2  1  0
  3  4  1  0
  4  5  1  0
  6  5  1  0
  7  6  1  0
  8  9  2  0
  8  2  1  0
 10 11  1  0
 11 12  2  0
 13 14  1  0
 13 11  1  0
 15 14  1  0
 15 16  1  0
 17 16  1  1
 17 18  1  0
 18  8  1  0
 19 17  1  0
 19 26  1  0
 20 19  2  0
 21 22  1  0
 22 24  1  0
 23 22  2  0
 25 24  1  6
 25 26  1  0
 25 27  1  0
 27 28  2  0
 27 29  1  0
M  END
$$$$
