KRN.pdb
     RDKit          3D

 29 28  0  0  1  0  0  0  0  0999 V2000
   28.8126  -24.9288  -16.2063 N   0  0  0  0  0  0  0  0  0  0  0  0
   27.5147  -24.7768  -16.8237 C   0  0  1  0  0  0  0  0  0  0  0  0
   27.1112  -26.0989  -17.3920 C   0  0  0  0  0  0  0  0  0  0  0  0
   28.2662  -26.6014  -18.2331 C   0  0  0  0  0  0  0  0  0  0  0  0
   27.9799  -27.9314  -18.8809 C   0  0  0  0  0  0  0  0  0  0  0  0
   29.1572  -28.3130  -19.7460 C   0  0  0  0  0  0  0  0  0  0  0  0
   28.9907  -29.6364  -20.3154 N   0  0  0  0  0  0  0  0  0  0  0  0
   26.5142  -24.1724  -15.9115 C   0  0  0  0  0  0  0  0  0  0  0  0
   25.7486  -24.9617  -15.3045 O   0  0  0  0  0  0  0  0  0  0  0  0
   25.7124  -20.3108   -9.3283 N   0  0  0  0  0  0  0  0  0  0  0  0
   24.8067  -20.7129  -10.3620 C   0  0  0  0  0  0  0  0  0  0  0  0
   23.5643  -20.3582  -10.3136 N   0  0  0  0  0  0  0  0  0  0  0  0
   25.2216  -21.4986  -11.4616 N   0  0  0  0  0  0  0  0  0  0  0  0
   26.5853  -21.9196  -11.6919 C   0  0  0  0  0  0  0  0  0  0  0  0
   27.1383  -21.3557  -12.9828 C   0  0  0  0  0  0  0  0  0  0  0  0
   26.0631  -21.0538  -13.9787 C   0  0  0  0  0  0  0  0  0  0  0  0
   25.5242  -22.2358  -14.7184 C   0  0  2  0  0  0  0  0  0  0  0  0
   26.4033  -22.7746  -15.7149 N   0  0  0  0  0  0  0  0  0  0  0  0
   24.2396  -21.7957  -15.3775 C   0  0  0  0  0  0  0  0  0  0  0  0
   24.2976  -21.3341  -16.5209 O   0  0  0  0  0  0  0  0  0  0  0  0
   22.9226  -20.7049  -11.0408 N   0  0  0  0  0  0  0  0  0  0  0  0
   19.1143  -20.4218  -16.0215 C   0  0  0  0  0  0  0  0  0  0  0  0
   19.2755  -21.4155  -15.0416 O   0  0  0  0  0  0  0  0  0  0  0  0
   18.2161  -21.9354  -14.5484 C   0  0  0  0  0  0  0  0  0  0  0  0
   20.5510  -21.9239  -14.5202 C   0  0  2  0  0  0  0  0  0  0  0  0
   21.7552  -21.4052  -15.2449 N   0  0  0  0  0  0  0  0  0  0  0  0
   22.9962  -21.9044  -14.7139 C   0  0  0  0  0  0  0  0  0  0  0  0
   21.7569  -19.9310  -15.3888 O   0  0  0  0  0  0  0  0  0  0  0  0
   22.4322  -19.2354  -14.6116 O   0  0  0  0  0  0  0  0  0  0  0  0
  2  1  1  1
  3  2  1  0
  3  4  1  0
  4  5  1  0
  6  5  1  0
  7  6  1  0
  8  9  2  0
  8  2  1  0
 10 11  1  0
 11 12  2  0
 13 14  1  0
 13 11  1  0
 15 14  1  0
 15 16  1  0
 17 16  1  6
 17 18  1  0
 18  8  1  0
 19 17  1  0
 19 26  1  0
 20 19  2  0
 21 22  1  0
 22 24  1  0
 23 22  2  0
 25 24  1  6
 25 26  1  0
 25 27  1  0
 27 28  2  0
 27 29  1  0
M  END
$$$$
