KRN.pdb
     RDKit          3D

 29 28  0  0  1  0  0  0  0  0999 V2000
   28.6807  -22.8945  -17.7947 N   0  0  0  0  0  0  0  0  0  0  0  0
   28.1774  -21.5774  -17.4773 C   0  0  1  0  0  0  0  0  0  0  0  0
   27.4752  -21.0435  -18.6837 C   0  0  0  0  0  0  0  0  0  0  0  0
   28.5385  -20.6142  -19.6732 C   0  0  0  0  0  0  0  0  0  0  0  0
   27.9580  -20.0370  -20.9383 C   0  0  0  0  0  0  0  0  0  0  0  0
   29.0908  -19.6310  -21.8506 C   0  0  0  0  0  0  0  0  0  0  0  0
   28.5978  -19.0152  -23.0675 N   0  0  0  0  0  0  0  0  0  0  0  0
   27.3636  -21.5589  -16.2380 C   0  0  0  0  0  0  0  0  0  0  0  0
   26.8163  -22.6382  -15.9014 O   0  0  0  0  0  0  0  0  0  0  0  0
   23.8408  -20.9060  -10.5076 N   0  0  0  0  0  0  0  0  0  0  0  0
   24.8011  -20.9054   -9.4454 C   0  0  0  0  0  0  0  0  0  0  0  0
   24.4113  -20.9803   -8.2149 N   0  0  0  0  0  0  0  0  0  0  0  0
   26.1916  -20.8265   -9.6888 N   0  0  0  0  0  0  0  0  0  0  0  0
   26.8068  -21.0639  -10.9752 C   0  0  0  0  0  0  0  0  0  0  0  0
   27.1030  -19.7715  -11.7048 C   0  0  0  0  0  0  0  0  0  0  0  0
   27.6834  -20.0055  -13.0640 C   0  0  0  0  0  0  0  0  0  0  0  0
   26.7161  -20.4769  -14.1017 C   0  0  2  0  0  0  0  0  0  0  0  0
   27.1930  -20.3941  -15.4514 N   0  0  0  0  0  0  0  0  0  0  0  0
   25.4733  -19.6316  -13.9631 C   0  0  0  0  0  0  0  0  0  0  0  0
   25.5977  -18.4035  -13.9730 O   0  0  0  0  0  0  0  0  0  0  0  0
   25.1234  -20.9968   -7.4710 N   0  0  0  0  0  0  0  0  0  0  0  0
   21.0755  -20.8407  -16.4888 C   0  0  0  0  0  0  0  0  0  0  0  0
   22.2568  -20.2113  -16.9154 O   0  0  0  0  0  0  0  0  0  0  0  0
   22.4357  -20.0837  -18.1754 C   0  0  0  0  0  0  0  0  0  0  0  0
   23.3190  -19.6787  -16.0522 C   0  0  1  0  0  0  0  0  0  0  0  0
   23.0406  -19.8191  -14.5868 N   0  0  0  0  0  0  0  0  0  0  0  0
   24.1947  -20.2183  -13.8253 C   0  0  0  0  0  0  0  0  0  0  0  0
   21.8567  -20.6611  -14.2980 O   0  0  0  0  0  0  0  0  0  0  0  0
   20.7566  -20.3721  -14.7984 O   0  0  0  0  0  0  0  0  0  0  0  0
  2  1  1  6
  3  2  1  0
  3  4  1  0
  4  5  1  0
  6  5  1  0
  7  6  1  0
  8  9  2  0
  8  2  1  0
 10 11  1  0
 11 12  2  0
 13 14  1  0
 13 11  1  0
 15 14  1  0
 15 16  1  0
 17 16  1  1
 17 18  1  0
 18  8  1  0
 19 17  1  0
 19 26  1  0
 20 19  2  0
 21 22  1  0
 22 24  1  0
 23 22  2  0
 25 24  1  1
 25 26  1  0
 25 27  1  0
 27 28  2  0
 27 29  1  0
M  END
$$$$
