KRN.pdb
     RDKit          3D

 29 28  0  0  1  0  0  0  0  0999 V2000
   26.8113  -22.6466  -16.9258 N   0  0  0  0  0  0  0  0  0  0  0  0
   26.3832  -21.3274  -16.5192 C   0  0  1  0  0  0  0  0  0  0  0  0
   25.9197  -20.5923  -17.7351 C   0  0  0  0  0  0  0  0  0  0  0  0
   27.0891  -20.5230  -18.6951 C   0  0  0  0  0  0  0  0  0  0  0  0
   26.7474  -19.8124  -19.9792 C   0  0  0  0  0  0  0  0  0  0  0  0
   27.9575  -19.8340  -20.8823 C   0  0  0  0  0  0  0  0  0  0  0  0
   28.8025  -18.6755  -20.6653 N   0  0  0  0  0  0  0  0  0  0  0  0
   25.3970  -21.3616  -15.4124 C   0  0  0  0  0  0  0  0  0  0  0  0
   24.3154  -21.9608  -15.6332 O   0  0  0  0  0  0  0  0  0  0  0  0
   23.0815  -22.6564   -8.6004 N   0  0  0  0  0  0  0  0  0  0  0  0
   22.8613  -21.3828   -7.9840 C   0  0  0  0  0  0  0  0  0  0  0  0
   21.9167  -21.2351   -7.1136 N   0  0  0  0  0  0  0  0  0  0  0  0
   23.6522  -20.2519   -8.2913 N   0  0  0  0  0  0  0  0  0  0  0  0
   24.6728  -20.2270   -9.3148 C   0  0  0  0  0  0  0  0  0  0  0  0
   24.1228  -20.6229  -10.6681 C   0  0  0  0  0  0  0  0  0  0  0  0
   25.1083  -20.3970  -11.7711 C   0  0  0  0  0  0  0  0  0  0  0  0
   24.6184  -20.7230  -13.1453 C   0  0  2  0  0  0  0  0  0  0  0  0
   25.6356  -20.7551  -14.1554 N   0  0  0  0  0  0  0  0  0  0  0  0
   23.5934  -19.6762  -13.5082 C   0  0  0  0  0  0  0  0  0  0  0  0
   23.9744  -18.6707  -14.1145 O   0  0  0  0  0  0  0  0  0  0  0  0
   21.7405  -20.2955   -6.7301 N   0  0  0  0  0  0  0  0  0  0  0  0
   21.2640  -19.0151  -17.8483 C   0  0  0  0  0  0  0  0  0  0  0  0
   21.0437  -18.9166  -16.4643 O   0  0  0  0  0  0  0  0  0  0  0  0
   20.5200  -17.8355  -16.0255 C   0  0  0  0  0  0  0  0  0  0  0  0
   21.3570  -19.9405  -15.4589 C   0  0  2  0  0  0  0  0  0  0  0  0
   21.1399  -19.4929  -14.0458 N   0  0  0  0  0  0  0  0  0  0  0  0
   22.2299  -19.8313  -13.1691 C   0  0  0  0  0  0  0  0  0  0  0  0
   19.8276  -19.9091  -13.4991 O   0  0  0  0  0  0  0  0  0  0  0  0
   19.6831  -21.0577  -13.0476 O   0  0  0  0  0  0  0  0  0  0  0  0
  2  1  1  6
  3  2  1  0
  3  4  1  0
  4  5  1  0
  6  5  1  0
  7  6  1  0
  8  9  2  0
  8  2  1  0
 10 11  1  0
 11 12  2  0
 13 14  1  0
 13 11  1  0
 15 14  1  0
 15 16  1  0
 17 16  1  1
 17 18  1  0
 18  8  1  0
 19 17  1  0
 19 26  1  0
 20 19  2  0
 21 22  1  0
 22 24  1  0
 23 22  2  0
 25 24  1  6
 25 26  1  0
 25 27  1  0
 27 28  2  0
 27 29  1  0
M  END
$$$$
