VPC.pdb
     RDKit          3D

 21 21  0  0  1  0  0  0  0  0999 V2000
    7.2852  -18.9921   16.6112 C   0  0  0  0  0  0  0  0  0  0  0  0
    7.7905  -18.3696   17.8826 C   0  0  2  0  0  0  0  0  0  0  0  0
    6.6119  -18.1504   18.7935 C   0  0  0  0  0  0  0  0  0  0  0  0
    8.5586  -17.0879   17.6290 C   0  0  2  0  0  0  0  0  0  0  0  0
    9.5597  -17.2213   16.6336 N   0  0  0  0  0  0  0  0  0  0  0  0
    8.9659  -16.5061   18.9106 C   0  0  0  0  0  0  0  0  0  0  0  0
    9.8783  -17.1522   19.5407 O   0  0  0  0  0  0  0  0  0  0  0  0
    8.4329  -15.3016   19.4918 N   0  0  0  0  0  0  0  0  0  0  0  0
    7.3554  -14.4914   19.0092 C   0  0  0  0  0  0  0  0  0  0  0  0
    6.8076  -13.8135   20.2380 C   0  0  0  0  0  0  0  0  0  0  0  0
    8.0680  -13.5999   21.0482 C   0  0  0  0  0  0  0  0  0  0  0  0
    8.9756  -14.7333   20.6887 C   0  0  1  0  0  0  0  0  0  0  0  0
    8.9356  -15.6920   21.8339 C   0  0  0  0  0  0  0  0  0  0  0  0
    8.2092  -16.7094   21.7287 O   0  0  0  0  0  0  0  0  0  0  0  0
    9.6706  -15.5102   23.0214 N   0  0  0  0  0  0  0  0  0  0  0  0
   10.2212  -16.5919   23.8156 C   0  0  1  0  0  0  0  0  0  0  0  0
   11.2308  -17.4046   23.0404 C   0  0  0  0  0  0  0  0  0  0  0  0
   11.8530  -18.7074   24.1416 S   0  0  0  0  0  0  0  0  0  0  0  0
   10.9007  -16.0178   25.0066 C   0  0  0  0  0  0  0  0  0  0  0  0
   10.7292  -16.5231   26.2882 O   0  0  0  0  0  0  0  0  0  0  0  0
   11.6734  -15.0268   24.8767 O   0  0  0  0  0  0  0  0  0  0  0  0
  2  1  1  6
  2  4  1  0
  3  2  1  0
  4  5  1  6
  6  4  1  0
  7  6  2  0
  8  6  1  0
  9 10  1  0
  9  8  1  0
 10 11  1  0
 12  8  1  0
 12 11  1  0
 12 13  1  1
 14 13  2  0
 15 13  1  0
 16 15  1  0
 16 17  1  6
 17 18  1  0
 19 16  1  0
 19 20  1  0
 21 19  2  0
M  END
$$$$
