VPC.pdb
     RDKit          3D

 21 21  0  0  1  0  0  0  0  0999 V2000
    8.0419  -17.2940   20.1220 C   0  0  0  0  0  0  0  0  0  0  0  0
    8.4439  -16.7739   21.4738 C   0  0  2  0  0  0  0  0  0  0  0  0
    7.5576  -17.4222   22.5039 C   0  0  0  0  0  0  0  0  0  0  0  0
    8.3879  -15.2611   21.5473 C   0  0  2  0  0  0  0  0  0  0  0  0
    9.0076  -14.6225   20.4433 N   0  0  0  0  0  0  0  0  0  0  0  0
    8.7971  -14.8262   22.8853 C   0  0  0  0  0  0  0  0  0  0  0  0
   10.0473  -14.9548   23.1451 O   0  0  0  0  0  0  0  0  0  0  0  0
    7.9249  -14.2826   23.8936 N   0  0  0  0  0  0  0  0  0  0  0  0
    6.5033  -14.1213   23.8361 C   0  0  0  0  0  0  0  0  0  0  0  0
    6.0572  -14.1523   25.2747 C   0  0  0  0  0  0  0  0  0  0  0  0
    7.2163  -13.4628   25.9617 C   0  0  0  0  0  0  0  0  0  0  0  0
    8.4240  -13.7912   25.1424 C   0  0  1  0  0  0  0  0  0  0  0  0
    9.1797  -14.8369   25.8958 C   0  0  0  0  0  0  0  0  0  0  0  0
    9.3344  -15.9589   25.3565 O   0  0  0  0  0  0  0  0  0  0  0  0
    9.7248  -14.6254   27.1770 N   0  0  0  0  0  0  0  0  0  0  0  0
   10.7487  -15.4591   27.7774 C   0  0  1  0  0  0  0  0  0  0  0  0
   11.3492  -14.8192   29.0065 C   0  0  0  0  0  0  0  0  0  0  0  0
   10.3758  -13.3344   29.3872 S   0  0  0  0  0  0  0  0  0  0  0  0
   10.1415  -16.7558   28.1766 C   0  0  0  0  0  0  0  0  0  0  0  0
   10.8975  -17.8555   28.5594 O   0  0  0  0  0  0  0  0  0  0  0  0
    8.8855  -16.8919   28.1771 O   0  0  0  0  0  0  0  0  0  0  0  0
  2  1  1  6
  2  4  1  0
  3  2  1  0
  4  5  1  6
  6  4  1  0
  7  6  2  0
  8  6  1  0
  9 10  1  0
  9  8  1  0
 10 11  1  0
 12  8  1  0
 12 11  1  0
 12 13  1  1
 14 13  2  0
 15 13  1  0
 16 15  1  0
 16 17  1  1
 17 18  1  0
 19 16  1  0
 19 20  1  0
 21 19  2  0
M  END
$$$$
