VPC.pdb
     RDKit          3D

 21 21  0  0  1  0  0  0  0  0999 V2000
    7.3496  -16.7389   20.4475 C   0  0  0  0  0  0  0  0  0  0  0  0
    7.8639  -16.5143   21.8419 C   0  0  2  0  0  0  0  0  0  0  0  0
    6.7045  -16.6505   22.7927 C   0  0  0  0  0  0  0  0  0  0  0  0
    8.5642  -15.1781   21.9877 C   0  0  2  0  0  0  0  0  0  0  0  0
    9.5726  -14.9640   21.0141 N   0  0  0  0  0  0  0  0  0  0  0  0
    8.9380  -14.9781   23.3902 C   0  0  0  0  0  0  0  0  0  0  0  0
    9.9350  -15.6765   23.7967 O   0  0  0  0  0  0  0  0  0  0  0  0
    8.2880  -14.0833   24.3119 N   0  0  0  0  0  0  0  0  0  0  0  0
    7.1820  -13.2092   24.0607 C   0  0  0  0  0  0  0  0  0  0  0  0
    6.5205  -13.0354   25.4030 C   0  0  0  0  0  0  0  0  0  0  0  0
    7.7163  -13.0590   26.3306 C   0  0  0  0  0  0  0  0  0  0  0  0
    8.7221  -13.9470   25.6695 C   0  0  1  0  0  0  0  0  0  0  0  0
    8.6901  -15.2484   26.4027 C   0  0  0  0  0  0  0  0  0  0  0  0
    8.1828  -16.2402   25.8258 O   0  0  0  0  0  0  0  0  0  0  0  0
    9.1996  -15.4156   27.7049 N   0  0  0  0  0  0  0  0  0  0  0  0
   10.1146  -16.4712   28.0954 C   0  0  1  0  0  0  0  0  0  0  0  0
   11.3485  -16.4997   27.2250 C   0  0  0  0  0  0  0  0  0  0  0  0
   12.3942  -17.8704   27.7948 S   0  0  0  0  0  0  0  0  0  0  0  0
   10.5411  -16.2437   29.5011 C   0  0  0  0  0  0  0  0  0  0  0  0
   10.8692  -14.9884   29.9950 O   0  0  0  0  0  0  0  0  0  0  0  0
   10.6173  -17.2165   30.3036 O   0  0  0  0  0  0  0  0  0  0  0  0
  2  1  1  6
  2  4  1  0
  3  2  1  0
  4  5  1  6
  6  4  1  0
  7  6  2  0
  8  6  1  0
  9 10  1  0
  9  8  1  0
 10 11  1  0
 12  8  1  0
 12 11  1  0
 12 13  1  1
 14 13  2  0
 15 13  1  0
 16 15  1  0
 16 17  1  6
 17 18  1  0
 19 16  1  0
 19 20  1  0
 21 19  2  0
M  END
$$$$
