VPC.pdb
     RDKit          3D

 21 21  0  0  1  0  0  0  0  0999 V2000
    4.2842  -18.9852   20.0378 C   0  0  0  0  0  0  0  0  0  0  0  0
    5.4242  -18.1892   20.6087 C   0  0  2  0  0  0  0  0  0  0  0  0
    4.8464  -17.1269   21.5058 C   0  0  0  0  0  0  0  0  0  0  0  0
    6.3112  -17.6007   19.5297 C   0  0  2  0  0  0  0  0  0  0  0  0
    6.7253  -18.5521   18.5633 N   0  0  0  0  0  0  0  0  0  0  0  0
    7.3566  -16.7856   20.1538 C   0  0  0  0  0  0  0  0  0  0  0  0
    8.2716  -17.4436   20.7675 O   0  0  0  0  0  0  0  0  0  0  0  0
    7.4268  -15.3478   20.1268 N   0  0  0  0  0  0  0  0  0  0  0  0
    6.5899  -14.4374   19.4051 C   0  0  0  0  0  0  0  0  0  0  0  0
    6.6458  -13.1575   20.1977 C   0  0  0  0  0  0  0  0  0  0  0  0
    8.0738  -13.1786   20.6988 C   0  0  0  0  0  0  0  0  0  0  0  0
    8.4254  -14.6242   20.8544 C   0  0  1  0  0  0  0  0  0  0  0  0
    8.3783  -14.9198   22.3182 C   0  0  0  0  0  0  0  0  0  0  0  0
    7.2720  -14.8351   22.9036 O   0  0  0  0  0  0  0  0  0  0  0  0
    9.5109  -15.2876   23.0701 N   0  0  0  0  0  0  0  0  0  0  0  0
    9.4827  -15.6163   24.4826 C   0  0  1  0  0  0  0  0  0  0  0  0
    8.6806  -16.8664   24.7558 C   0  0  0  0  0  0  0  0  0  0  0  0
    7.0622  -16.3538   25.4001 S   0  0  0  0  0  0  0  0  0  0  0  0
   10.8746  -15.8439   24.9523 C   0  0  0  0  0  0  0  0  0  0  0  0
   11.1899  -16.0934   26.2811 O   0  0  0  0  0  0  0  0  0  0  0  0
   11.8321  -15.8147   24.1287 O   0  0  0  0  0  0  0  0  0  0  0  0
  2  1  1  6
  2  4  1  0
  3  2  1  0
  4  5  1  1
  6  4  1  0
  7  6  2  0
  8  6  1  0
  9 10  1  0
  9  8  1  0
 10 11  1  0
 12  8  1  0
 12 11  1  0
 12 13  1  1
 14 13  2  0
 15 13  1  0
 16 15  1  0
 16 17  1  6
 17 18  1  0
 19 16  1  0
 19 20  1  0
 21 19  2  0
M  END
$$$$
