VPC.pdb
     RDKit          3D

 21 21  0  0  1  0  0  0  0  0999 V2000
    5.1197  -19.0550   22.8448 C   0  0  0  0  0  0  0  0  0  0  0  0
    4.6295  -18.0597   21.8307 C   0  0  2  0  0  0  0  0  0  0  0  0
    3.2215  -18.4360   21.4527 C   0  0  0  0  0  0  0  0  0  0  0  0
    5.5393  -17.9761   20.6213 C   0  0  2  0  0  0  0  0  0  0  0  0
    5.6210  -19.1916   19.8957 N   0  0  0  0  0  0  0  0  0  0  0  0
    6.8033  -17.3448   21.0094 C   0  0  0  0  0  0  0  0  0  0  0  0
    7.7353  -18.1542   21.3604 O   0  0  0  0  0  0  0  0  0  0  0  0
    7.0638  -15.9289   21.0232 N   0  0  0  0  0  0  0  0  0  0  0  0
    6.1893  -14.8674   20.6250 C   0  0  0  0  0  0  0  0  0  0  0  0
    6.6532  -13.6731   21.4175 C   0  0  0  0  0  0  0  0  0  0  0  0
    8.1475  -13.9087   21.4655 C   0  0  0  0  0  0  0  0  0  0  0  0
    8.3225  -15.3941   21.4473 C   0  0  1  0  0  0  0  0  0  0  0  0
    8.6636  -15.8009   22.8439 C   0  0  0  0  0  0  0  0  0  0  0  0
    7.7329  -15.8788   23.6815 O   0  0  0  0  0  0  0  0  0  0  0  0
    9.9739  -16.1001   23.2645 N   0  0  0  0  0  0  0  0  0  0  0  0
   10.3242  -16.5283   24.6054 C   0  0  1  0  0  0  0  0  0  0  0  0
    9.7534  -17.8880   24.9314 C   0  0  0  0  0  0  0  0  0  0  0  0
   10.3360  -18.3483   26.5884 S   0  0  0  0  0  0  0  0  0  0  0  0
   11.8046  -16.6059   24.7152 C   0  0  0  0  0  0  0  0  0  0  0  0
   12.4857  -16.3651   25.9007 O   0  0  0  0  0  0  0  0  0  0  0  0
   12.4987  -16.9017   23.7019 O   0  0  0  0  0  0  0  0  0  0  0  0
  2  1  1  1
  2  4  1  0
  3  2  1  0
  4  5  1  1
  6  4  1  0
  7  6  2  0
  8  6  1  0
  9 10  1  0
  9  8  1  0
 10 11  1  0
 12  8  1  0
 12 11  1  0
 12 13  1  1
 14 13  2  0
 15 13  1  0
 16 15  1  0
 16 17  1  6
 17 18  1  0
 19 16  1  0
 19 20  1  0
 21 19  2  0
M  END
$$$$
