VPC.pdb
     RDKit          3D

 21 21  0  0  1  0  0  0  0  0999 V2000
    6.9163  -15.7016   20.5076 C   0  0  0  0  0  0  0  0  0  0  0  0
    7.4863  -15.6879   21.8983 C   0  0  2  0  0  0  0  0  0  0  0  0
    6.3449  -15.8278   22.8702 C   0  0  0  0  0  0  0  0  0  0  0  0
    8.3133  -14.4468   22.1681 C   0  0  2  0  0  0  0  0  0  0  0  0
    9.3363  -14.2349   21.2092 N   0  0  0  0  0  0  0  0  0  0  0  0
    8.7070  -14.4249   23.5793 C   0  0  0  0  0  0  0  0  0  0  0  0
    9.6806  -15.2016   23.8889 O   0  0  0  0  0  0  0  0  0  0  0  0
    8.0995  -13.6201   24.6069 N   0  0  0  0  0  0  0  0  0  0  0  0
    7.0199  -12.6887   24.4748 C   0  0  0  0  0  0  0  0  0  0  0  0
    6.3826  -12.6472   25.8392 C   0  0  0  0  0  0  0  0  0  0  0  0
    7.5893  -12.8133   26.7376 C   0  0  0  0  0  0  0  0  0  0  0  0
    8.5562  -13.6521   25.9635 C   0  0  1  0  0  0  0  0  0  0  0  0
    8.4907  -15.0264   26.5459 C   0  0  0  0  0  0  0  0  0  0  0  0
    7.9204  -15.9242   25.8808 O   0  0  0  0  0  0  0  0  0  0  0  0
    9.0360  -15.3620   27.8002 N   0  0  0  0  0  0  0  0  0  0  0  0
    9.9407  -16.4728   28.0275 C   0  0  1  0  0  0  0  0  0  0  0  0
   11.1483  -16.4120   27.1226 C   0  0  0  0  0  0  0  0  0  0  0  0
   12.1735  -17.8694   27.4719 S   0  0  0  0  0  0  0  0  0  0  0  0
   10.4117  -16.4302   29.4367 C   0  0  0  0  0  0  0  0  0  0  0  0
   10.3559  -17.5292   30.2832 O   0  0  0  0  0  0  0  0  0  0  0  0
   10.8882  -15.3609   29.9116 O   0  0  0  0  0  0  0  0  0  0  0  0
  2  1  1  6
  2  4  1  0
  3  2  1  0
  4  5  1  6
  6  4  1  0
  7  6  2  0
  8  6  1  0
  9 10  1  0
  9  8  1  0
 10 11  1  0
 12  8  1  0
 12 11  1  0
 12 13  1  1
 14 13  2  0
 15 13  1  0
 16 15  1  0
 16 17  1  6
 17 18  1  0
 19 16  1  0
 19 20  1  0
 21 19  2  0
M  END
$$$$
