VPC.pdb
     RDKit          3D

 21 21  0  0  1  0  0  0  0  0999 V2000
    6.1670  -11.7266   26.9816 C   0  0  0  0  0  0  0  0  0  0  0  0
    7.0037  -12.8007   26.3447 C   0  0  2  0  0  0  0  0  0  0  0  0
    8.0301  -12.1326   25.4689 C   0  0  0  0  0  0  0  0  0  0  0  0
    6.1653  -13.8016   25.5752 C   0  0  2  0  0  0  0  0  0  0  0  0
    5.1475  -14.4014   26.3594 N   0  0  0  0  0  0  0  0  0  0  0  0
    7.0491  -14.7007   24.8286 C   0  0  0  0  0  0  0  0  0  0  0  0
    7.5663  -15.6546   25.5137 O   0  0  0  0  0  0  0  0  0  0  0  0
    7.3660  -14.5928   23.4283 N   0  0  0  0  0  0  0  0  0  0  0  0
    6.8954  -13.6189   22.4901 C   0  0  0  0  0  0  0  0  0  0  0  0
    7.9706  -13.5531   21.4368 C   0  0  0  0  0  0  0  0  0  0  0  0
    8.4312  -14.9940   21.3898 C   0  0  0  0  0  0  0  0  0  0  0  0
    8.2311  -15.5268   22.7731 C   0  0  1  0  0  0  0  0  0  0  0  0
    9.5821  -15.5824   23.4088 C   0  0  0  0  0  0  0  0  0  0  0  0
   10.1793  -14.5006   23.6247 O   0  0  0  0  0  0  0  0  0  0  0  0
   10.2155  -16.7854   23.7760 N   0  0  0  0  0  0  0  0  0  0  0  0
   11.5315  -16.8647   24.3809 C   0  0  1  0  0  0  0  0  0  0  0  0
   11.5756  -17.8692   25.5078 C   0  0  0  0  0  0  0  0  0  0  0  0
   10.3434  -17.3670   26.7433 S   0  0  0  0  0  0  0  0  0  0  0  0
   12.5133  -17.2821   23.3459 C   0  0  0  0  0  0  0  0  0  0  0  0
   12.1360  -17.7387   22.0903 O   0  0  0  0  0  0  0  0  0  0  0  0
   13.7514  -17.2298   23.5917 O   0  0  0  0  0  0  0  0  0  0  0  0
  2  1  1  6
  2  4  1  0
  3  2  1  0
  4  5  1  1
  6  4  1  0
  7  6  2  0
  8  6  1  0
  9 10  1  0
  9  8  1  0
 10 11  1  0
 12  8  1  0
 12 11  1  0
 12 13  1  1
 14 13  2  0
 15 13  1  0
 16 15  1  0
 16 17  1  1
 17 18  1  0
 19 16  1  0
 19 20  1  0
 21 19  2  0
M  END
$$$$
