VPC.pdb
     RDKit          3D

 21 21  0  0  1  0  0  0  0  0999 V2000
    8.1441  -13.0843   27.2719 C   0  0  0  0  0  0  0  0  0  0  0  0
    7.3427  -12.5459   26.1199 C   0  0  2  0  0  0  0  0  0  0  0  0
    6.7328  -11.2378   26.5488 C   0  0  0  0  0  0  0  0  0  0  0  0
    6.2954  -13.5302   25.6387 C   0  0  2  0  0  0  0  0  0  0  0  0
    5.3703  -13.9026   26.6467 N   0  0  0  0  0  0  0  0  0  0  0  0
    6.9519  -14.6139   24.9026 C   0  0  0  0  0  0  0  0  0  0  0  0
    7.2034  -15.6688   25.5888 O   0  0  0  0  0  0  0  0  0  0  0  0
    7.3208  -14.5792   23.5114 N   0  0  0  0  0  0  0  0  0  0  0  0
    6.9418  -13.6158   22.5223 C   0  0  0  0  0  0  0  0  0  0  0  0
    8.0531  -13.6550   21.5059 C   0  0  0  0  0  0  0  0  0  0  0  0
    8.4261  -15.1217   21.5277 C   0  0  0  0  0  0  0  0  0  0  0  0
    8.1484  -15.5878   22.9216 C   0  0  1  0  0  0  0  0  0  0  0  0
    9.4717  -15.6996   23.6061 C   0  0  0  0  0  0  0  0  0  0  0  0
   10.1210  -14.6465   23.8142 O   0  0  0  0  0  0  0  0  0  0  0  0
   10.0239  -16.9247   24.0276 N   0  0  0  0  0  0  0  0  0  0  0  0
   11.3284  -17.0634   24.6465 C   0  0  1  0  0  0  0  0  0  0  0  0
   11.2950  -18.0000   25.8307 C   0  0  0  0  0  0  0  0  0  0  0  0
    9.9490  -17.4603   26.9234 S   0  0  0  0  0  0  0  0  0  0  0  0
   12.2809  -17.6115   23.6456 C   0  0  0  0  0  0  0  0  0  0  0  0
   13.6385  -17.7553   23.8976 O   0  0  0  0  0  0  0  0  0  0  0  0
   11.8650  -17.9702   22.5079 O   0  0  0  0  0  0  0  0  0  0  0  0
  2  1  1  1
  2  4  1  0
  3  2  1  0
  4  5  1  1
  6  4  1  0
  7  6  2  0
  8  6  1  0
  9 10  1  0
  9  8  1  0
 10 11  1  0
 12  8  1  0
 12 11  1  0
 12 13  1  1
 14 13  2  0
 15 13  1  0
 16 15  1  0
 16 17  1  1
 17 18  1  0
 19 16  1  0
 19 20  1  0
 21 19  2  0
M  END
$$$$
