VPC.pdb
     RDKit          3D

 21 21  0  0  1  0  0  0  0  0999 V2000
    5.5848  -11.4351   26.4652 C   0  0  0  0  0  0  0  0  0  0  0  0
    6.6568  -12.4603   26.2223 C   0  0  2  0  0  0  0  0  0  0  0  0
    7.6995  -11.8405   25.3303 C   0  0  0  0  0  0  0  0  0  0  0  0
    6.1020  -13.7449   25.6399 C   0  0  2  0  0  0  0  0  0  0  0  0
    5.0913  -14.3337   26.4415 N   0  0  0  0  0  0  0  0  0  0  0  0
    7.2117  -14.6074   25.2257 C   0  0  0  0  0  0  0  0  0  0  0  0
    7.7531  -15.2935   26.1655 O   0  0  0  0  0  0  0  0  0  0  0  0
    7.7190  -14.7350   23.8844 N   0  0  0  0  0  0  0  0  0  0  0  0
    7.3127  -14.0145   22.7156 C   0  0  0  0  0  0  0  0  0  0  0  0
    8.5206  -14.0352   21.8155 C   0  0  0  0  0  0  0  0  0  0  0  0
    9.0978  -15.4004   22.1216 C   0  0  0  0  0  0  0  0  0  0  0  0
    8.7425  -15.6780   23.5479 C   0  0  1  0  0  0  0  0  0  0  0  0
    9.9869  -15.4653   24.3471 C   0  0  0  0  0  0  0  0  0  0  0  0
   10.6812  -14.4496   24.1017 O   0  0  0  0  0  0  0  0  0  0  0  0
   10.4169  -16.3458   25.3586 N   0  0  0  0  0  0  0  0  0  0  0  0
   11.6466  -16.1877   26.1114 C   0  0  1  0  0  0  0  0  0  0  0  0
   11.3894  -16.0686   27.5948 C   0  0  0  0  0  0  0  0  0  0  0  0
   10.3695  -14.5901   27.8612 S   0  0  0  0  0  0  0  0  0  0  0  0
   12.5084  -17.3769   25.8819 C   0  0  0  0  0  0  0  0  0  0  0  0
   13.8052  -17.4726   26.3684 O   0  0  0  0  0  0  0  0  0  0  0  0
   12.0681  -18.3580   25.2189 O   0  0  0  0  0  0  0  0  0  0  0  0
  2  1  1  6
  2  4  1  0
  3  2  1  0
  4  5  1  1
  6  4  1  0
  7  6  2  0
  8  6  1  0
  9 10  1  0
  9  8  1  0
 10 11  1  0
 12  8  1  0
 12 11  1  0
 12 13  1  1
 14 13  2  0
 15 13  1  0
 16 15  1  0
 16 17  1  1
 17 18  1  0
 19 16  1  0
 19 20  1  0
 21 19  2  0
M  END
$$$$
