VPC.pdb
     RDKit          3D

 21 21  0  0  1  0  0  0  0  0999 V2000
    3.7238  -18.7390   20.1140 C   0  0  0  0  0  0  0  0  0  0  0  0
    4.8850  -18.0200   20.7418 C   0  0  2  0  0  0  0  0  0  0  0  0
    4.3504  -16.8046   21.4518 C   0  0  0  0  0  0  0  0  0  0  0  0
    5.9544  -17.6619   19.7293 C   0  0  2  0  0  0  0  0  0  0  0  0
    6.3389  -18.7533   18.9097 N   0  0  0  0  0  0  0  0  0  0  0  0
    7.0263  -16.9208   20.3992 C   0  0  0  0  0  0  0  0  0  0  0  0
    7.8149  -17.6303   21.1214 O   0  0  0  0  0  0  0  0  0  0  0  0
    7.2493  -15.5015   20.3061 N   0  0  0  0  0  0  0  0  0  0  0  0
    6.5381  -14.5474   19.5098 C   0  0  0  0  0  0  0  0  0  0  0  0
    6.7027  -13.2410   20.2418 C   0  0  0  0  0  0  0  0  0  0  0  0
    8.1029  -13.3848   20.7982 C   0  0  0  0  0  0  0  0  0  0  0  0
    8.2940  -14.8491   21.0363 C   0  0  1  0  0  0  0  0  0  0  0  0
    8.1670  -15.0623   22.5096 C   0  0  0  0  0  0  0  0  0  0  0  0
    7.2039  -14.5217   23.1048 O   0  0  0  0  0  0  0  0  0  0  0  0
    9.0721  -15.8374   23.2602 N   0  0  0  0  0  0  0  0  0  0  0  0
    9.1653  -15.8121   24.7075 C   0  0  1  0  0  0  0  0  0  0  0  0
    8.4917  -17.0077   25.3379 C   0  0  0  0  0  0  0  0  0  0  0  0
    6.7078  -16.8603   25.0336 S   0  0  0  0  0  0  0  0  0  0  0  0
   10.5995  -15.8254   25.0983 C   0  0  0  0  0  0  0  0  0  0  0  0
   11.0219  -15.7243   26.4169 O   0  0  0  0  0  0  0  0  0  0  0  0
   11.4946  -15.9323   24.2133 O   0  0  0  0  0  0  0  0  0  0  0  0
  2  1  1  6
  2  4  1  0
  3  2  1  0
  4  5  1  1
  6  4  1  0
  7  6  2  0
  8  6  1  0
  9 10  1  0
  9  8  1  0
 10 11  1  0
 12  8  1  0
 12 11  1  0
 12 13  1  1
 14 13  2  0
 15 13  1  0
 16 15  1  0
 16 17  1  1
 17 18  1  0
 19 16  1  0
 19 20  1  0
 21 19  2  0
M  END
$$$$
