VPC.pdb
     RDKit          3D

 21 21  0  0  1  0  0  0  0  0999 V2000
    3.8089  -19.3013   21.6174 C   0  0  0  0  0  0  0  0  0  0  0  0
    5.1493  -18.6527   21.8218 C   0  0  2  0  0  0  0  0  0  0  0  0
    5.0112  -17.6372   22.9249 C   0  0  0  0  0  0  0  0  0  0  0  0
    5.6900  -18.0367   20.5469 C   0  0  2  0  0  0  0  0  0  0  0  0
    5.6678  -18.9246   19.4416 N   0  0  0  0  0  0  0  0  0  0  0  0
    6.9584  -17.3623   20.8354 C   0  0  0  0  0  0  0  0  0  0  0  0
    7.9444  -18.1395   21.1014 O   0  0  0  0  0  0  0  0  0  0  0  0
    7.1686  -15.9380   20.8403 N   0  0  0  0  0  0  0  0  0  0  0  0
    6.2364  -14.9078   20.4940 C   0  0  0  0  0  0  0  0  0  0  0  0
    6.6998  -13.6990   21.2647 C   0  0  0  0  0  0  0  0  0  0  0  0
    8.2020  -13.8811   21.2306 C   0  0  0  0  0  0  0  0  0  0  0  0
    8.4286  -15.3592   21.1975 C   0  0  1  0  0  0  0  0  0  0  0  0
    8.8594  -15.7560   22.5719 C   0  0  0  0  0  0  0  0  0  0  0  0
    7.9861  -15.8200   23.4703 O   0  0  0  0  0  0  0  0  0  0  0  0
   10.1929  -16.0607   22.9071 N   0  0  0  0  0  0  0  0  0  0  0  0
   10.6438  -16.3935   24.2450 C   0  0  1  0  0  0  0  0  0  0  0  0
   10.1183  -17.7337   24.7012 C   0  0  0  0  0  0  0  0  0  0  0  0
   10.8147  -18.0695   26.3441 S   0  0  0  0  0  0  0  0  0  0  0  0
   12.1293  -16.4481   24.2533 C   0  0  0  0  0  0  0  0  0  0  0  0
   12.8748  -16.4985   25.4234 O   0  0  0  0  0  0  0  0  0  0  0  0
   12.7676  -16.4499   23.1630 O   0  0  0  0  0  0  0  0  0  0  0  0
  2  1  1  6
  2  4  1  0
  3  2  1  0
  4  5  1  6
  6  4  1  0
  7  6  2  0
  8  6  1  0
  9 10  1  0
  9  8  1  0
 10 11  1  0
 12  8  1  0
 12 11  1  0
 12 13  1  1
 14 13  2  0
 15 13  1  0
 16 15  1  0
 16 17  1  6
 17 18  1  0
 19 16  1  0
 19 20  1  0
 21 19  2  0
M  END
$$$$
