VPC.pdb
     RDKit          3D

 21 21  0  0  1  0  0  0  0  0999 V2000
    5.0344  -18.6006   22.6402 C   0  0  0  0  0  0  0  0  0  0  0  0
    4.5511  -17.6449   21.5855 C   0  0  2  0  0  0  0  0  0  0  0  0
    3.0972  -17.9365   21.3247 C   0  0  0  0  0  0  0  0  0  0  0  0
    5.3813  -17.7184   20.3196 C   0  0  2  0  0  0  0  0  0  0  0  0
    5.3199  -18.9831   19.6811 N   0  0  0  0  0  0  0  0  0  0  0  0
    6.7135  -17.1677   20.5819 C   0  0  0  0  0  0  0  0  0  0  0  0
    7.6037  -18.0260   20.9250 O   0  0  0  0  0  0  0  0  0  0  0  0
    7.0809  -15.7791   20.4841 N   0  0  0  0  0  0  0  0  0  0  0  0
    6.3004  -14.6945   19.9695 C   0  0  0  0  0  0  0  0  0  0  0  0
    6.8337  -13.4734   20.6725 C   0  0  0  0  0  0  0  0  0  0  0  0
    8.3039  -13.8137   20.7882 C   0  0  0  0  0  0  0  0  0  0  0  0
    8.3654  -15.3039   20.9016 C   0  0  1  0  0  0  0  0  0  0  0  0
    8.6385  -15.6119   22.3378 C   0  0  0  0  0  0  0  0  0  0  0  0
    7.7685  -15.2994   23.1857 O   0  0  0  0  0  0  0  0  0  0  0  0
    9.8206  -16.2337   22.7846 N   0  0  0  0  0  0  0  0  0  0  0  0
   10.2267  -16.3139   24.1748 C   0  0  1  0  0  0  0  0  0  0  0  0
    9.8749  -17.6475   24.7900 C   0  0  0  0  0  0  0  0  0  0  0  0
   10.4531  -17.6310   26.5112 S   0  0  0  0  0  0  0  0  0  0  0  0
   11.7003  -16.1369   24.2573 C   0  0  0  0  0  0  0  0  0  0  0  0
   12.3652  -15.9043   25.4537 O   0  0  0  0  0  0  0  0  0  0  0  0
   12.4035  -16.1956   23.2094 O   0  0  0  0  0  0  0  0  0  0  0  0
  2  1  1  1
  2  4  1  0
  3  2  1  0
  4  5  1  1
  6  4  1  0
  7  6  2  0
  8  6  1  0
  9 10  1  0
  9  8  1  0
 10 11  1  0
 12  8  1  0
 12 11  1  0
 12 13  1  1
 14 13  2  0
 15 13  1  0
 16 15  1  0
 16 17  1  6
 17 18  1  0
 19 16  1  0
 19 20  1  0
 21 19  2  0
M  END
$$$$
