VPC.pdb
     RDKit          3D

 21 21  0  0  1  0  0  0  0  0999 V2000
    6.5379  -15.6843   20.6755 C   0  0  0  0  0  0  0  0  0  0  0  0
    7.1852  -15.5628   22.0266 C   0  0  2  0  0  0  0  0  0  0  0  0
    6.1644  -15.9402   23.0670 C   0  0  0  0  0  0  0  0  0  0  0  0
    7.7573  -14.1800   22.2673 C   0  0  2  0  0  0  0  0  0  0  0  0
    8.5955  -13.7289   21.2163 N   0  0  0  0  0  0  0  0  0  0  0  0
    8.2968  -14.1097   23.6278 C   0  0  0  0  0  0  0  0  0  0  0  0
    9.4120  -14.7189   23.8074 O   0  0  0  0  0  0  0  0  0  0  0  0
    7.6849  -13.4277   24.7383 N   0  0  0  0  0  0  0  0  0  0  0  0
    6.4306  -12.7376   24.7666 C   0  0  0  0  0  0  0  0  0  0  0  0
    5.9915  -12.8032   26.2063 C   0  0  0  0  0  0  0  0  0  0  0  0
    7.3182  -12.7052   26.9280 C   0  0  0  0  0  0  0  0  0  0  0  0
    8.3202  -13.3430   26.0187 C   0  0  1  0  0  0  0  0  0  0  0  0
    8.6165  -14.6918   26.5889 C   0  0  0  0  0  0  0  0  0  0  0  0
    7.7150  -15.5632   26.5465 O   0  0  0  0  0  0  0  0  0  0  0  0
    9.8537  -15.0317   27.1696 N   0  0  0  0  0  0  0  0  0  0  0  0
   10.1339  -16.3018   27.8117 C   0  0  1  0  0  0  0  0  0  0  0  0
   11.2951  -17.0180   27.1642 C   0  0  0  0  0  0  0  0  0  0  0  0
   11.6206  -18.5234   28.1259 S   0  0  0  0  0  0  0  0  0  0  0  0
   10.4745  -16.0561   29.2376 C   0  0  0  0  0  0  0  0  0  0  0  0
   10.5050  -17.0662   30.1896 O   0  0  0  0  0  0  0  0  0  0  0  0
   10.7526  -14.8875   29.6286 O   0  0  0  0  0  0  0  0  0  0  0  0
  2  1  1  6
  2  4  1  0
  3  2  1  0
  4  5  1  6
  6  4  1  0
  7  6  2  0
  8  6  1  0
  9 10  1  0
  9  8  1  0
 10 11  1  0
 12  8  1  0
 12 11  1  0
 12 13  1  1
 14 13  2  0
 15 13  1  0
 16 15  1  0
 16 17  1  6
 17 18  1  0
 19 16  1  0
 19 20  1  0
 21 19  2  0
M  END
$$$$
