VPC.pdb
     RDKit          3D

 21 21  0  0  1  0  0  0  0  0999 V2000
    4.9201  -18.9499   22.7775 C   0  0  0  0  0  0  0  0  0  0  0  0
    4.4400  -17.9509   21.7621 C   0  0  2  0  0  0  0  0  0  0  0  0
    3.0213  -18.3015   21.3996 C   0  0  0  0  0  0  0  0  0  0  0  0
    5.3397  -17.8922   20.5438 C   0  0  2  0  0  0  0  0  0  0  0  0
    5.3654  -19.1032   19.8066 N   0  0  0  0  0  0  0  0  0  0  0  0
    6.6317  -17.3151   20.9238 C   0  0  0  0  0  0  0  0  0  0  0  0
    7.5377  -18.1645   21.2474 O   0  0  0  0  0  0  0  0  0  0  0  0
    6.9452  -15.9103   20.9575 N   0  0  0  0  0  0  0  0  0  0  0  0
    6.1421  -14.8163   20.5009 C   0  0  0  0  0  0  0  0  0  0  0  0
    6.5957  -13.6398   21.3253 C   0  0  0  0  0  0  0  0  0  0  0  0
    8.0729  -13.9329   21.4765 C   0  0  0  0  0  0  0  0  0  0  0  0
    8.1912  -15.4240   21.4686 C   0  0  1  0  0  0  0  0  0  0  0  0
    8.4186  -15.8418   22.8849 C   0  0  0  0  0  0  0  0  0  0  0  0
    7.4499  -15.7889   23.6802 O   0  0  0  0  0  0  0  0  0  0  0  0
    9.6627  -16.2904   23.3691 N   0  0  0  0  0  0  0  0  0  0  0  0
    9.9283  -16.6234   24.7556 C   0  0  1  0  0  0  0  0  0  0  0  0
    9.3095  -17.9441   25.1478 C   0  0  0  0  0  0  0  0  0  0  0  0
    9.9746  -19.2168   24.0365 S   0  0  0  0  0  0  0  0  0  0  0  0
   11.3982  -16.7200   24.9550 C   0  0  0  0  0  0  0  0  0  0  0  0
   12.3064  -16.6549   23.9070 O   0  0  0  0  0  0  0  0  0  0  0  0
   11.8698  -16.8680   26.1176 O   0  0  0  0  0  0  0  0  0  0  0  0
  2  1  1  1
  2  4  1  0
  3  2  1  0
  4  5  1  1
  6  4  1  0
  7  6  2  0
  8  6  1  0
  9 10  1  0
  9  8  1  0
 10 11  1  0
 12  8  1  0
 12 11  1  0
 12 13  1  1
 14 13  2  0
 15 13  1  0
 16 15  1  0
 16 17  1  6
 17 18  1  0
 19 16  1  0
 19 20  1  0
 21 19  2  0
M  END
$$$$
