KWL.pdb
     RDKit          3D

 32 33  0  0  1  0  0  0  0  0999 V2000
   26.8736  -20.7484  -14.7989 N   0  0  0  0  0  0  0  0  0  0  0  0
   26.2074  -21.9474  -14.3688 C   0  0  1  0  0  0  0  0  0  0  0  0
   26.9115  -23.1970  -14.8786 C   0  0  0  0  0  0  0  0  0  0  0  0
   26.8108  -23.3001  -16.3842 C   0  0  0  0  0  0  0  0  0  0  0  0
   25.9697  -24.5456  -16.6835 C   0  0  0  0  0  0  0  0  0  0  0  0
   26.6281  -25.2646  -17.8477 C   0  0  0  0  0  0  0  0  0  0  0  0
   26.5250  -24.3769  -18.9992 N   0  0  0  0  0  0  0  0  0  0  0  0
   26.0556  -21.9927  -12.8944 C   0  0  0  0  0  0  0  0  0  0  0  0
   25.4600  -22.9657  -12.3774 O   0  0  0  0  0  0  0  0  0  0  0  0
   26.5686  -20.9606  -12.0548 N   0  0  0  0  0  0  0  0  0  0  0  0
   26.4135  -21.0167  -10.6265 C   0  0  1  0  0  0  0  0  0  0  0  0
   27.3638  -20.0890   -9.9132 C   0  0  0  0  0  0  0  0  0  0  0  0
   27.6979  -20.5586   -8.5550 C   0  0  0  0  0  0  0  0  0  0  0  0
   28.1302  -21.8071   -8.1575 C   0  0  0  0  0  0  0  0  0  0  0  0
   28.3163  -21.8054   -6.8359 N   0  0  0  0  0  0  0  0  0  0  0  0
   28.0310  -20.6092   -6.3036 C   0  0  0  0  0  0  0  0  0  0  0  0
   28.0443  -20.0568   -5.0294 C   0  0  0  0  0  0  0  0  0  0  0  0
   27.6827  -18.7470   -4.7936 C   0  0  0  0  0  0  0  0  0  0  0  0
   27.2955  -17.9793   -5.8981 C   0  0  0  0  0  0  0  0  0  0  0  0
   27.2769  -18.5108   -7.1653 C   0  0  0  0  0  0  0  0  0  0  0  0
   27.6390  -19.8181   -7.3923 C   0  0  0  0  0  0  0  0  0  0  0  0
   25.0163  -20.5354  -10.3225 C   0  0  0  0  0  0  0  0  0  0  0  0
   24.5669  -19.5258  -10.9372 O   0  0  0  0  0  0  0  0  0  0  0  0
   19.9997  -20.8073   -8.1492 C   0  0  0  0  0  0  0  0  0  0  0  0
   20.7493  -22.1186   -8.2187 C   0  0  2  0  0  0  0  0  0  0  0  0
   20.3188  -23.1344   -7.2018 C   0  0  0  0  0  0  0  0  0  0  0  0
   22.2050  -21.9997   -8.4256 C   0  0  0  0  0  0  0  0  0  0  0  0
   22.7188  -21.0762   -9.4611 C   0  0  2  0  0  0  0  0  0  0  0  0
   24.1939  -21.1796   -9.3704 N   0  0  0  0  0  0  0  0  0  0  0  0
   22.3301  -19.6803   -9.3962 C   0  0  0  0  0  0  0  0  0  0  0  0
   21.2874  -19.1771  -10.1454 O   0  0  0  0  0  0  0  0  0  0  0  0
   22.9428  -18.8773   -8.6476 O   0  0  0  0  0  0  0  0  0  0  0  0
  2  3  1  0
  2  1  1  1
  3  4  1  0
  5  4  1  0
  6  5  1  0
  7  6  1  0
  8  2  1  0
  8  9  2  0
 10  8  1  0
 11 10  1  0
 11 12  1  1
 13 14  2  0
 13 12  1  0
 15 14  1  0
 16 21  2  0
 16 15  1  0
 17 16  1  0
 18 19  1  0
 18 17  2  0
 19 20  2  0
 20 21  1  0
 21 13  1  0
 22 29  1  0
 22 11  1  0
 23 22  2  0
 25 24  1  1
 25 27  1  0
 26 25  1  0
 28 27  1  1
 28 29  1  0
 28 30  1  0
 30 32  2  0
 30 31  1  0
M  END
$$$$
