KWL.pdb
     RDKit          3D

 32 33  0  0  1  0  0  0  0  0999 V2000
   26.2992  -18.3524  -18.3079 N   0  0  0  0  0  0  0  0  0  0  0  0
   25.5257  -19.4691  -17.8376 C   0  0  1  0  0  0  0  0  0  0  0  0
   26.3916  -20.7016  -17.6178 C   0  0  0  0  0  0  0  0  0  0  0  0
   27.7620  -20.3173  -17.1059 C   0  0  0  0  0  0  0  0  0  0  0  0
   28.5273  -21.6250  -16.8763 C   0  0  0  0  0  0  0  0  0  0  0  0
   28.6916  -22.2943  -18.2293 C   0  0  0  0  0  0  0  0  0  0  0  0
   30.0864  -22.7066  -18.3250 N   0  0  0  0  0  0  0  0  0  0  0  0
   24.7664  -19.1327  -16.6090 C   0  0  0  0  0  0  0  0  0  0  0  0
   25.3620  -18.5593  -15.6681 O   0  0  0  0  0  0  0  0  0  0  0  0
   23.3817  -19.4445  -16.4731 N   0  0  0  0  0  0  0  0  0  0  0  0
   22.6481  -19.0774  -15.2923 C   0  0  1  0  0  0  0  0  0  0  0  0
   21.1860  -18.8477  -15.5782 C   0  0  0  0  0  0  0  0  0  0  0  0
   20.8440  -17.4143  -15.6529 C   0  0  0  0  0  0  0  0  0  0  0  0
   21.0021  -16.5454  -16.7128 C   0  0  0  0  0  0  0  0  0  0  0  0
   20.5635  -15.3362  -16.3564 N   0  0  0  0  0  0  0  0  0  0  0  0
   20.1092  -15.3330  -15.0958 C   0  0  0  0  0  0  0  0  0  0  0  0
   19.5586  -14.3901  -14.2375 C   0  0  0  0  0  0  0  0  0  0  0  0
   19.1763  -14.7043  -12.9501 C   0  0  0  0  0  0  0  0  0  0  0  0
   19.3642  -16.0259  -12.5293 C   0  0  0  0  0  0  0  0  0  0  0  0
   19.9077  -16.9708  -13.3663 C   0  0  0  0  0  0  0  0  0  0  0  0
   20.2864  -16.6497  -14.6488 C   0  0  0  0  0  0  0  0  0  0  0  0
   22.7336  -20.2496  -14.3464 C   0  0  0  0  0  0  0  0  0  0  0  0
   22.6150  -21.4211  -14.8076 O   0  0  0  0  0  0  0  0  0  0  0  0
   25.9084  -21.7457  -11.5294 C   0  0  0  0  0  0  0  0  0  0  0  0
   25.1356  -20.6024  -10.9115 C   0  0  2  0  0  0  0  0  0  0  0  0
   25.7696  -20.0158   -9.6846 C   0  0  0  0  0  0  0  0  0  0  0  0
   23.6746  -20.7953  -10.8450 C   0  0  0  0  0  0  0  0  0  0  0  0
   22.9457  -21.2477  -12.0504 C   0  0  2  0  0  0  0  0  0  0  0  0
   22.9421  -20.0776  -12.9591 N   0  0  0  0  0  0  0  0  0  0  0  0
   21.5899  -21.7388  -11.8941 C   0  0  0  0  0  0  0  0  0  0  0  0
   21.3191  -23.0672  -11.6415 O   0  0  0  0  0  0  0  0  0  0  0  0
   20.6091  -20.9580  -11.9890 O   0  0  0  0  0  0  0  0  0  0  0  0
  2  3  1  0
  2  1  1  1
  3  4  1  0
  5  4  1  0
  6  5  1  0
  7  6  1  0
  8  2  1  0
  8  9  2  0
 10  8  1  0
 11 10  1  0
 11 12  1  6
 13 14  2  0
 13 12  1  0
 15 14  1  0
 16 21  2  0
 16 15  1  0
 17 16  1  0
 18 19  1  0
 18 17  2  0
 19 20  2  0
 20 21  1  0
 21 13  1  0
 22 29  1  0
 22 11  1  0
 23 22  2  0
 25 24  1  1
 25 27  1  0
 26 25  1  0
 28 27  1  1
 28 29  1  0
 28 30  1  0
 30 32  2  0
 30 31  1  0
M  END
$$$$
