KWL.pdb
     RDKit          3D

 32 33  0  0  1  0  0  0  0  0999 V2000
   28.9311  -20.4217  -14.6644 N   0  0  0  0  0  0  0  0  0  0  0  0
   27.7993  -21.3021  -14.7682 C   0  0  1  0  0  0  0  0  0  0  0  0
   28.1763  -22.6311  -15.4075 C   0  0  0  0  0  0  0  0  0  0  0  0
   29.3960  -22.4822  -16.2892 C   0  0  0  0  0  0  0  0  0  0  0  0
   28.8965  -21.9803  -17.6483 C   0  0  0  0  0  0  0  0  0  0  0  0
   30.0681  -22.0482  -18.6119 C   0  0  0  0  0  0  0  0  0  0  0  0
   29.6165  -21.4491  -19.8616 N   0  0  0  0  0  0  0  0  0  0  0  0
   27.1474  -21.5158  -13.4536 C   0  0  0  0  0  0  0  0  0  0  0  0
   26.1784  -22.3062  -13.3805 O   0  0  0  0  0  0  0  0  0  0  0  0
   27.5943  -20.8470  -12.2763 N   0  0  0  0  0  0  0  0  0  0  0  0
   26.8882  -20.9797  -11.0309 C   0  0  1  0  0  0  0  0  0  0  0  0
   27.6771  -20.4350   -9.8676 C   0  0  0  0  0  0  0  0  0  0  0  0
   26.9148  -20.4665   -8.6047 C   0  0  0  0  0  0  0  0  0  0  0  0
   25.5974  -20.8232   -8.4026 C   0  0  0  0  0  0  0  0  0  0  0  0
   25.3075  -20.7096   -7.1048 N   0  0  0  0  0  0  0  0  0  0  0  0
   26.3682  -20.2898   -6.4019 C   0  0  0  0  0  0  0  0  0  0  0  0
   26.6312  -20.0077   -5.0677 C   0  0  0  0  0  0  0  0  0  0  0  0
   27.8694  -19.5775   -4.6387 C   0  0  0  0  0  0  0  0  0  0  0  0
   28.8692  -19.4318   -5.6074 C   0  0  0  0  0  0  0  0  0  0  0  0
   28.6252  -19.7068   -6.9316 C   0  0  0  0  0  0  0  0  0  0  0  0
   27.3877  -20.1354   -7.3515 C   0  0  0  0  0  0  0  0  0  0  0  0
   25.6398  -20.1407  -11.1484 C   0  0  0  0  0  0  0  0  0  0  0  0
   25.7322  -18.9607  -11.5936 O   0  0  0  0  0  0  0  0  0  0  0  0
   22.6917  -18.6500  -13.9402 C   0  0  0  0  0  0  0  0  0  0  0  0
   23.5471  -19.8897  -14.0736 C   0  0  2  0  0  0  0  0  0  0  0  0
   23.5247  -20.5156  -15.4371 C   0  0  0  0  0  0  0  0  0  0  0  0
   23.4729  -20.8290  -12.9386 C   0  0  0  0  0  0  0  0  0  0  0  0
   23.1715  -20.3116  -11.5856 C   0  0  2  0  0  0  0  0  0  0  0  0
   24.3690  -20.6344  -10.7753 N   0  0  0  0  0  0  0  0  0  0  0  0
   21.9863  -20.8006  -10.9073 C   0  0  0  0  0  0  0  0  0  0  0  0
   22.0179  -21.9129  -10.0927 O   0  0  0  0  0  0  0  0  0  0  0  0
   20.8806  -20.2187  -11.0467 O   0  0  0  0  0  0  0  0  0  0  0  0
  2  3  1  0
  2  1  1  1
  3  4  1  0
  5  4  1  0
  6  5  1  0
  7  6  1  0
  8  2  1  0
  8  9  2  0
 10  8  1  0
 11 10  1  0
 11 12  1  1
 13 14  2  0
 13 12  1  0
 15 14  1  0
 16 21  2  0
 16 15  1  0
 17 16  1  0
 18 19  1  0
 18 17  2  0
 19 20  2  0
 20 21  1  0
 21 13  1  0
 22 29  1  0
 22 11  1  0
 23 22  2  0
 25 24  1  6
 25 27  1  0
 26 25  1  0
 28 27  1  6
 28 29  1  0
 28 30  1  0
 30 32  2  0
 30 31  1  0
M  END
$$$$
