KWL.pdb
     RDKit          3D

 32 33  0  0  1  0  0  0  0  0999 V2000
   25.3948  -19.9343  -13.6648 N   0  0  0  0  0  0  0  0  0  0  0  0
   24.5333  -20.8630  -12.9850 C   0  0  1  0  0  0  0  0  0  0  0  0
   24.2716  -22.1061  -13.8237 C   0  0  0  0  0  0  0  0  0  0  0  0
   23.6015  -21.7470  -15.1312 C   0  0  0  0  0  0  0  0  0  0  0  0
   23.2988  -23.0680  -15.8465 C   0  0  0  0  0  0  0  0  0  0  0  0
   22.5945  -22.7248  -17.1473 C   0  0  0  0  0  0  0  0  0  0  0  0
   22.3451  -23.9867  -17.8329 N   0  0  0  0  0  0  0  0  0  0  0  0
   25.0656  -21.2301  -11.6506 C   0  0  0  0  0  0  0  0  0  0  0  0
   24.9243  -22.4071  -11.2461 O   0  0  0  0  0  0  0  0  0  0  0  0
   25.7312  -20.2808  -10.8205 N   0  0  0  0  0  0  0  0  0  0  0  0
   26.2738  -20.6590   -9.5439 C   0  0  1  0  0  0  0  0  0  0  0  0
   27.3877  -19.7434   -9.1043 C   0  0  0  0  0  0  0  0  0  0  0  0
   28.2578  -20.3619   -8.0858 C   0  0  0  0  0  0  0  0  0  0  0  0
   28.9954  -21.5245   -8.1745 C   0  0  0  0  0  0  0  0  0  0  0  0
   29.6419  -21.7213   -7.0235 N   0  0  0  0  0  0  0  0  0  0  0  0
   29.3824  -20.7444   -6.1438 C   0  0  0  0  0  0  0  0  0  0  0  0
   29.7659  -20.4477   -4.8424 C   0  0  0  0  0  0  0  0  0  0  0  0
   29.3115  -19.3259   -4.1811 C   0  0  0  0  0  0  0  0  0  0  0  0
   28.4369  -18.4820   -4.8752 C   0  0  0  0  0  0  0  0  0  0  0  0
   28.0476  -18.7613   -6.1633 C   0  0  0  0  0  0  0  0  0  0  0  0
   28.5052  -19.8821   -6.8160 C   0  0  0  0  0  0  0  0  0  0  0  0
   25.1592  -20.5119   -8.5379 C   0  0  0  0  0  0  0  0  0  0  0  0
   24.5184  -19.4229   -8.4858 O   0  0  0  0  0  0  0  0  0  0  0  0
   21.0805  -20.8648   -7.7376 C   0  0  0  0  0  0  0  0  0  0  0  0
   21.7753  -22.2076   -7.7199 C   0  0  2  0  0  0  0  0  0  0  0  0
   20.8591  -23.3831   -7.8932 C   0  0  0  0  0  0  0  0  0  0  0  0
   22.8215  -22.3599   -6.6911 C   0  0  0  0  0  0  0  0  0  0  0  0
   23.8549  -21.3112   -6.5447 C   0  0  2  0  0  0  0  0  0  0  0  0
   24.8096  -21.5554   -7.6509 N   0  0  0  0  0  0  0  0  0  0  0  0
   24.5819  -21.2277   -5.2923 C   0  0  0  0  0  0  0  0  0  0  0  0
   25.7058  -21.9888   -5.0484 O   0  0  0  0  0  0  0  0  0  0  0  0
   24.2015  -20.4514   -4.3795 O   0  0  0  0  0  0  0  0  0  0  0  0
  2  3  1  0
  2  1  1  6
  3  4  1  0
  5  4  1  0
  6  5  1  0
  7  6  1  0
  8  2  1  0
  8  9  2  0
 10  8  1  0
 11 10  1  0
 11 12  1  1
 13 14  2  0
 13 12  1  0
 15 14  1  0
 16 21  2  0
 16 15  1  0
 17 16  1  0
 18 19  1  0
 18 17  2  0
 19 20  2  0
 20 21  1  0
 21 13  1  0
 22 29  1  0
 22 11  1  0
 23 22  2  0
 25 24  1  1
 25 27  1  0
 26 25  1  0
 28 27  1  1
 28 29  1  0
 28 30  1  0
 30 32  2  0
 30 31  1  0
M  END
$$$$
