KWL.pdb
     RDKit          3D

 32 33  0  0  1  0  0  0  0  0999 V2000
   25.1774  -20.9661  -14.4939 N   0  0  0  0  0  0  0  0  0  0  0  0
   25.3441  -20.4394  -13.1667 C   0  0  1  0  0  0  0  0  0  0  0  0
   24.0215  -20.3758  -12.4157 C   0  0  0  0  0  0  0  0  0  0  0  0
   23.0134  -19.5318  -13.1632 C   0  0  0  0  0  0  0  0  0  0  0  0
   21.7380  -19.5163  -12.3137 C   0  0  0  0  0  0  0  0  0  0  0  0
   20.7001  -18.7100  -13.0741 C   0  0  0  0  0  0  0  0  0  0  0  0
   19.4910  -18.7118  -12.2599 N   0  0  0  0  0  0  0  0  0  0  0  0
   26.3522  -21.2051  -12.3946 C   0  0  0  0  0  0  0  0  0  0  0  0
   26.2246  -22.4474  -12.2986 O   0  0  0  0  0  0  0  0  0  0  0  0
   27.4580  -20.5649  -11.7616 N   0  0  0  0  0  0  0  0  0  0  0  0
   28.3787  -21.3061  -10.9430 C   0  0  1  0  0  0  0  0  0  0  0  0
   29.6637  -20.5543  -10.7066 C   0  0  0  0  0  0  0  0  0  0  0  0
   30.6405  -21.3377   -9.9261 C   0  0  0  0  0  0  0  0  0  0  0  0
   31.4076  -22.4095  -10.3341 C   0  0  0  0  0  0  0  0  0  0  0  0
   32.1586  -22.8244   -9.3117 N   0  0  0  0  0  0  0  0  0  0  0  0
   31.9431  -22.0849   -8.2151 C   0  0  0  0  0  0  0  0  0  0  0  0
   32.4282  -22.0672   -6.9139 C   0  0  0  0  0  0  0  0  0  0  0  0
   31.9946  -21.1483   -5.9814 C   0  0  0  0  0  0  0  0  0  0  0  0
   31.0337  -20.2185   -6.3953 C   0  0  0  0  0  0  0  0  0  0  0  0
   30.5435  -20.2225   -7.6792 C   0  0  0  0  0  0  0  0  0  0  0  0
   30.9810  -21.1422   -8.6034 C   0  0  0  0  0  0  0  0  0  0  0  0
   27.7180  -21.4836   -9.5983 C   0  0  0  0  0  0  0  0  0  0  0  0
   28.1389  -22.3883   -8.8216 O   0  0  0  0  0  0  0  0  0  0  0  0
   27.8111  -21.1035   -5.4131 C   0  0  0  0  0  0  0  0  0  0  0  0
   27.7236  -19.8226   -6.2118 C   0  0  2  0  0  0  0  0  0  0  0  0
   28.1334  -18.5917   -5.4580 C   0  0  0  0  0  0  0  0  0  0  0  0
   26.5171  -19.6861   -7.0496 C   0  0  0  0  0  0  0  0  0  0  0  0
   26.0438  -20.8461   -7.8366 C   0  0  2  0  0  0  0  0  0  0  0  0
   26.6416  -20.6684   -9.1805 N   0  0  0  0  0  0  0  0  0  0  0  0
   24.6144  -21.0533   -7.9702 C   0  0  0  0  0  0  0  0  0  0  0  0
   23.8956  -21.7948   -7.0562 O   0  0  0  0  0  0  0  0  0  0  0  0
   23.9816  -20.5593   -8.9376 O   0  0  0  0  0  0  0  0  0  0  0  0
  2  3  1  0
  2  1  1  6
  3  4  1  0
  5  4  1  0
  6  5  1  0
  7  6  1  0
  8  2  1  0
  8  9  2  0
 10  8  1  0
 11 10  1  0
 11 12  1  1
 13 14  2  0
 13 12  1  0
 15 14  1  0
 16 21  2  0
 16 15  1  0
 17 16  1  0
 18 19  1  0
 18 17  2  0
 19 20  2  0
 20 21  1  0
 21 13  1  0
 22 29  1  0
 22 11  1  0
 23 22  2  0
 25 24  1  1
 25 27  1  0
 26 25  1  0
 28 27  1  1
 28 29  1  0
 28 30  1  0
 30 32  2  0
 30 31  1  0
M  END
$$$$
