KWL.pdb
     RDKit          3D

 32 33  0  0  1  0  0  0  0  0999 V2000
   29.1066  -27.0227  -16.9938 N   0  0  0  0  0  0  0  0  0  0  0  0
   27.9206  -27.8272  -17.1072 C   0  0  1  0  0  0  0  0  0  0  0  0
   28.0429  -29.1249  -16.3210 C   0  0  0  0  0  0  0  0  0  0  0  0
   29.1622  -29.9849  -16.8644 C   0  0  0  0  0  0  0  0  0  0  0  0
   29.1704  -31.2718  -16.0323 C   0  0  0  0  0  0  0  0  0  0  0  0
   30.2183  -32.1909  -16.6347 C   0  0  0  0  0  0  0  0  0  0  0  0
   30.2230  -33.4047  -15.8276 N   0  0  0  0  0  0  0  0  0  0  0  0
   26.7075  -27.0774  -16.7012 C   0  0  0  0  0  0  0  0  0  0  0  0
   26.8167  -26.1666  -15.8483 O   0  0  0  0  0  0  0  0  0  0  0  0
   25.4257  -27.3665  -17.2551 N   0  0  0  0  0  0  0  0  0  0  0  0
   24.2707  -26.5841  -16.9074 C   0  0  1  0  0  0  0  0  0  0  0  0
   23.6300  -25.9465  -18.1138 C   0  0  0  0  0  0  0  0  0  0  0  0
   22.4713  -25.1048  -17.7588 C   0  0  0  0  0  0  0  0  0  0  0  0
   22.4618  -23.8530  -17.1786 C   0  0  0  0  0  0  0  0  0  0  0  0
   21.1983  -23.4497  -17.0291 N   0  0  0  0  0  0  0  0  0  0  0  0
   20.3349  -24.3694  -17.4813 C   0  0  0  0  0  0  0  0  0  0  0  0
   18.9535  -24.4792  -17.5730 C   0  0  0  0  0  0  0  0  0  0  0  0
   18.3396  -25.5926  -18.1074 C   0  0  0  0  0  0  0  0  0  0  0  0
   19.1674  -26.6258  -18.5619 C   0  0  0  0  0  0  0  0  0  0  0  0
   20.5360  -26.5327  -18.4783 C   0  0  0  0  0  0  0  0  0  0  0  0
   21.1406  -25.4189  -17.9441 C   0  0  0  0  0  0  0  0  0  0  0  0
   23.2590  -27.5393  -16.3241 C   0  0  0  0  0  0  0  0  0  0  0  0
   22.9955  -28.6093  -16.9445 O   0  0  0  0  0  0  0  0  0  0  0  0
   20.8930  -28.4230  -10.7135 C   0  0  0  0  0  0  0  0  0  0  0  0
   20.9105  -28.8704  -12.1577 C   0  0  2  0  0  0  0  0  0  0  0  0
   21.0028  -30.3560  -12.3463 C   0  0  0  0  0  0  0  0  0  0  0  0
   21.7534  -28.0591  -13.0563 C   0  0  0  0  0  0  0  0  0  0  0  0
   21.6750  -28.2752  -14.5179 C   0  0  2  0  0  0  0  0  0  0  0  0
   22.5963  -27.2739  -15.1042 N   0  0  0  0  0  0  0  0  0  0  0  0
   20.3800  -28.1723  -15.1630 C   0  0  0  0  0  0  0  0  0  0  0  0
   19.7222  -26.9671  -15.2919 O   0  0  0  0  0  0  0  0  0  0  0  0
   19.8106  -29.1928  -15.6266 O   0  0  0  0  0  0  0  0  0  0  0  0
  2  3  1  0
  2  1  1  1
  3  4  1  0
  5  4  1  0
  6  5  1  0
  7  6  1  0
  8  2  1  0
  8  9  2  0
 10  8  1  0
 11 10  1  0
 11 12  1  6
 13 14  2  0
 13 12  1  0
 15 14  1  0
 16 21  2  0
 16 15  1  0
 17 16  1  0
 18 19  1  0
 18 17  2  0
 19 20  2  0
 20 21  1  0
 21 13  1  0
 22 29  1  0
 22 11  1  0
 23 22  2  0
 25 24  1  1
 25 27  1  0
 26 25  1  0
 28 27  1  1
 28 29  1  0
 28 30  1  0
 30 32  2  0
 30 31  1  0
M  END
$$$$
