KWL.pdb
     RDKit          3D

 32 33  0  0  1  0  0  0  0  0999 V2000
   21.7816  -15.2720  -19.4813 N   0  0  0  0  0  0  0  0  0  0  0  0
   23.1151  -14.9697  -19.0372 C   0  0  1  0  0  0  0  0  0  0  0  0
   24.1538  -15.8220  -19.7524 C   0  0  0  0  0  0  0  0  0  0  0  0
   23.6413  -17.2273  -19.9764 C   0  0  0  0  0  0  0  0  0  0  0  0
   23.6225  -17.9113  -18.6051 C   0  0  0  0  0  0  0  0  0  0  0  0
   23.2507  -19.3658  -18.8325 C   0  0  0  0  0  0  0  0  0  0  0  0
   23.2839  -20.0144  -17.5275 N   0  0  0  0  0  0  0  0  0  0  0  0
   23.4278  -13.5273  -19.1804 C   0  0  0  0  0  0  0  0  0  0  0  0
   24.5763  -13.1252  -18.8831 O   0  0  0  0  0  0  0  0  0  0  0  0
   22.4581  -12.5913  -19.6459 N   0  0  0  0  0  0  0  0  0  0  0  0
   22.7864  -11.2021  -19.8177 C   0  0  1  0  0  0  0  0  0  0  0  0
   21.8857  -10.5230  -20.8176 C   0  0  0  0  0  0  0  0  0  0  0  0
   22.3113   -9.1416  -21.1136 C   0  0  0  0  0  0  0  0  0  0  0  0
   23.5595   -8.5738  -20.9613 C   0  0  0  0  0  0  0  0  0  0  0  0
   23.5093   -7.2971  -21.3472 N   0  0  0  0  0  0  0  0  0  0  0  0
   22.2800   -6.9590  -21.7595 C   0  0  0  0  0  0  0  0  0  0  0  0
   21.6745   -5.8092  -22.2497 C   0  0  0  0  0  0  0  0  0  0  0  0
   20.3410   -5.7743  -22.5998 C   0  0  0  0  0  0  0  0  0  0  0  0
   19.6050   -6.9544  -22.4426 C   0  0  0  0  0  0  0  0  0  0  0  0
   20.1891   -8.1006  -21.9589 C   0  0  0  0  0  0  0  0  0  0  0  0
   21.5197   -8.1273  -21.6120 C   0  0  0  0  0  0  0  0  0  0  0  0
   22.5510  -10.5327  -18.4863 C   0  0  0  0  0  0  0  0  0  0  0  0
   21.4838  -10.7799  -17.8545 O   0  0  0  0  0  0  0  0  0  0  0  0
   23.1743  -10.9211  -14.2312 C   0  0  0  0  0  0  0  0  0  0  0  0
   24.4353  -10.6404  -15.0169 C   0  0  2  0  0  0  0  0  0  0  0  0
   25.7065  -10.9451  -14.2803 C   0  0  0  0  0  0  0  0  0  0  0  0
   24.4290   -9.3814  -15.7857 C   0  0  0  0  0  0  0  0  0  0  0  0
   23.2412   -9.0298  -16.5947 C   0  0  2  0  0  0  0  0  0  0  0  0
   23.4881   -9.6365  -17.9236 N   0  0  0  0  0  0  0  0  0  0  0  0
   22.9089   -7.6278  -16.7609 C   0  0  0  0  0  0  0  0  0  0  0  0
   22.2218   -6.9210  -15.7965 O   0  0  0  0  0  0  0  0  0  0  0  0
   23.2391   -7.0089  -17.8042 O   0  0  0  0  0  0  0  0  0  0  0  0
  2  3  1  0
  2  1  1  6
  3  4  1  0
  5  4  1  0
  6  5  1  0
  7  6  1  0
  8  2  1  0
  8  9  2  0
 10  8  1  0
 11 10  1  0
 11 12  1  6
 13 14  2  0
 13 12  1  0
 15 14  1  0
 16 21  2  0
 16 15  1  0
 17 16  1  0
 18 19  1  0
 18 17  2  0
 19 20  2  0
 20 21  1  0
 21 13  1  0
 22 29  1  0
 22 11  1  0
 23 22  2  0
 25 24  1  1
 25 27  1  0
 26 25  1  0
 28 27  1  1
 28 29  1  0
 28 30  1  0
 30 32  2  0
 30 31  1  0
M  END
$$$$
