KWL.pdb
     RDKit          3D

 32 33  0  0  1  0  0  0  0  0999 V2000
   27.7562  -19.5556  -14.8220 N   0  0  0  0  0  0  0  0  0  0  0  0
   27.2653  -20.8871  -15.0511 C   0  0  1  0  0  0  0  0  0  0  0  0
   28.3933  -21.8541  -15.3825 C   0  0  0  0  0  0  0  0  0  0  0  0
   29.1711  -21.3860  -16.5922 C   0  0  0  0  0  0  0  0  0  0  0  0
   28.1481  -21.1564  -17.7098 C   0  0  0  0  0  0  0  0  0  0  0  0
   28.9241  -20.7867  -18.9616 C   0  0  0  0  0  0  0  0  0  0  0  0
   27.9372  -20.4940  -19.9937 N   0  0  0  0  0  0  0  0  0  0  0  0
   26.4661  -21.3828  -13.9046 C   0  0  0  0  0  0  0  0  0  0  0  0
   26.0402  -22.5605  -13.9285 O   0  0  0  0  0  0  0  0  0  0  0  0
   26.1718  -20.5556  -12.7811 N   0  0  0  0  0  0  0  0  0  0  0  0
   25.3780  -21.0424  -11.6856 C   0  0  1  0  0  0  0  0  0  0  0  0
   25.7577  -20.3986  -10.3764 C   0  0  0  0  0  0  0  0  0  0  0  0
   27.0922  -20.8182   -9.9074 C   0  0  0  0  0  0  0  0  0  0  0  0
   27.9967  -21.6584  -10.5235 C   0  0  0  0  0  0  0  0  0  0  0  0
   29.0825  -21.7710   -9.7556 N   0  0  0  0  0  0  0  0  0  0  0  0
   28.9667  -21.0444   -8.6356 C   0  0  0  0  0  0  0  0  0  0  0  0
   29.7585  -20.7975   -7.5217 C   0  0  0  0  0  0  0  0  0  0  0  0
   29.3462  -19.9722   -6.4965 C   0  0  0  0  0  0  0  0  0  0  0  0
   28.0829  -19.3815   -6.6167 C   0  0  0  0  0  0  0  0  0  0  0  0
   27.2871  -19.6156   -7.7125 C   0  0  0  0  0  0  0  0  0  0  0  0
   27.7055  -20.4400   -8.7307 C   0  0  0  0  0  0  0  0  0  0  0  0
   23.9511  -20.6464  -11.9741 C   0  0  0  0  0  0  0  0  0  0  0  0
   23.6967  -19.4464  -12.2814 O   0  0  0  0  0  0  0  0  0  0  0  0
   21.4703  -20.7020  -15.3413 C   0  0  0  0  0  0  0  0  0  0  0  0
   21.6403  -22.0495  -14.6767 C   0  0  2  0  0  0  0  0  0  0  0  0
   21.3705  -23.2222  -15.5730 C   0  0  0  0  0  0  0  0  0  0  0  0
   21.0913  -22.1500  -13.3112 C   0  0  0  0  0  0  0  0  0  0  0  0
   21.5138  -21.1722  -12.2843 C   0  0  2  0  0  0  0  0  0  0  0  0
   22.8892  -21.5771  -11.9111 N   0  0  0  0  0  0  0  0  0  0  0  0
   20.7098  -21.0396  -11.0844 C   0  0  0  0  0  0  0  0  0  0  0  0
   19.5497  -20.2942  -11.0615 O   0  0  0  0  0  0  0  0  0  0  0  0
   21.0533  -21.6052  -10.0154 O   0  0  0  0  0  0  0  0  0  0  0  0
  2  3  1  0
  2  1  1  1
  3  4  1  0
  5  4  1  0
  6  5  1  0
  7  6  1  0
  8  2  1  0
  8  9  2  0
 10  8  1  0
 11 10  1  0
 11 12  1  1
 13 14  2  0
 13 12  1  0
 15 14  1  0
 16 21  2  0
 16 15  1  0
 17 16  1  0
 18 19  1  0
 18 17  2  0
 19 20  2  0
 20 21  1  0
 21 13  1  0
 22 29  1  0
 22 11  1  0
 23 22  2  0
 25 24  1  6
 25 27  1  0
 26 25  1  0
 28 27  1  6
 28 29  1  0
 28 30  1  0
 30 32  2  0
 30 31  1  0
M  END
$$$$
