KWL.pdb
     RDKit          3D

 32 33  0  0  1  0  0  0  0  0999 V2000
   28.0377  -20.6209  -15.3986 N   0  0  0  0  0  0  0  0  0  0  0  0
   27.1843  -21.7754  -15.3243 C   0  0  1  0  0  0  0  0  0  0  0  0
   27.9632  -23.0661  -15.5351 C   0  0  0  0  0  0  0  0  0  0  0  0
   28.7824  -23.0040  -16.8050 C   0  0  0  0  0  0  0  0  0  0  0  0
   30.2480  -23.1731  -16.3906 C   0  0  0  0  0  0  0  0  0  0  0  0
   31.0814  -23.1418  -17.6595 C   0  0  0  0  0  0  0  0  0  0  0  0
   31.1950  -24.5204  -18.1189 N   0  0  0  0  0  0  0  0  0  0  0  0
   26.4284  -21.8184  -14.0493 C   0  0  0  0  0  0  0  0  0  0  0  0
   25.8000  -22.8609  -13.7538 O   0  0  0  0  0  0  0  0  0  0  0  0
   26.3994  -20.7076  -13.1557 N   0  0  0  0  0  0  0  0  0  0  0  0
   25.6713  -20.7669  -11.9173 C   0  0  1  0  0  0  0  0  0  0  0  0
   26.2473  -19.8451  -10.8729 C   0  0  0  0  0  0  0  0  0  0  0  0
   27.4373  -20.4145  -10.2121 C   0  0  0  0  0  0  0  0  0  0  0  0
   28.4033  -21.2439  -10.7436 C   0  0  0  0  0  0  0  0  0  0  0  0
   29.3055  -21.5249   -9.8011 N   0  0  0  0  0  0  0  0  0  0  0  0
   29.0040  -20.9250   -8.6414 C   0  0  0  0  0  0  0  0  0  0  0  0
   29.5673  -20.8675   -7.3733 C   0  0  0  0  0  0  0  0  0  0  0  0
   28.9999  -20.1367   -6.3506 C   0  0  0  0  0  0  0  0  0  0  0  0
   27.8182  -19.4431   -6.6364 C   0  0  0  0  0  0  0  0  0  0  0  0
   27.2479  -19.4896   -7.8860 C   0  0  0  0  0  0  0  0  0  0  0  0
   27.8200  -20.2208   -8.9007 C   0  0  0  0  0  0  0  0  0  0  0  0
   24.2738  -20.2808  -12.2120 C   0  0  0  0  0  0  0  0  0  0  0  0
   24.1127  -19.3394  -13.0408 O   0  0  0  0  0  0  0  0  0  0  0  0
   21.0431  -20.0282  -15.0178 C   0  0  0  0  0  0  0  0  0  0  0  0
   21.9547  -21.2098  -14.7749 C   0  0  2  0  0  0  0  0  0  0  0  0
   21.9456  -22.2362  -15.8693 C   0  0  0  0  0  0  0  0  0  0  0  0
   21.9389  -21.7428  -13.3995 C   0  0  0  0  0  0  0  0  0  0  0  0
   21.8176  -20.8080  -12.2591 C   0  0  2  0  0  0  0  0  0  0  0  0
   23.1382  -20.8464  -11.5887 N   0  0  0  0  0  0  0  0  0  0  0  0
   20.7745  -21.0450  -11.2796 C   0  0  0  0  0  0  0  0  0  0  0  0
   19.6364  -20.2683  -11.2224 O   0  0  0  0  0  0  0  0  0  0  0  0
   20.8805  -21.9756  -10.4409 O   0  0  0  0  0  0  0  0  0  0  0  0
  2  3  1  0
  2  1  1  1
  3  4  1  0
  5  4  1  0
  6  5  1  0
  7  6  1  0
  8  2  1  0
  8  9  2  0
 10  8  1  0
 11 10  1  0
 11 12  1  1
 13 14  2  0
 13 12  1  0
 15 14  1  0
 16 21  2  0
 16 15  1  0
 17 16  1  0
 18 19  1  0
 18 17  2  0
 19 20  2  0
 20 21  1  0
 21 13  1  0
 22 29  1  0
 22 11  1  0
 23 22  2  0
 25 24  1  6
 25 27  1  0
 26 25  1  0
 28 27  1  6
 28 29  1  0
 28 30  1  0
 30 32  2  0
 30 31  1  0
M  END
$$$$
