KWL.pdb
     RDKit          3D

 32 33  0  0  1  0  0  0  0  0999 V2000
   27.2765  -21.6829  -16.6769 N   0  0  0  0  0  0  0  0  0  0  0  0
   26.7535  -22.8843  -16.0854 C   0  0  1  0  0  0  0  0  0  0  0  0
   27.8273  -23.9531  -15.9379 C   0  0  0  0  0  0  0  0  0  0  0  0
   28.2454  -24.4918  -17.2879 C   0  0  0  0  0  0  0  0  0  0  0  0
   29.0744  -23.3928  -17.9614 C   0  0  0  0  0  0  0  0  0  0  0  0
   29.4676  -23.9039  -19.3361 C   0  0  0  0  0  0  0  0  0  0  0  0
   30.2184  -22.8336  -19.9808 N   0  0  0  0  0  0  0  0  0  0  0  0
   26.0963  -22.6145  -14.7838 C   0  0  0  0  0  0  0  0  0  0  0  0
   25.6181  -23.5749  -14.1374 O   0  0  0  0  0  0  0  0  0  0  0  0
   25.9956  -21.2951  -14.2527 N   0  0  0  0  0  0  0  0  0  0  0  0
   25.3545  -21.0476  -12.9898 C   0  0  1  0  0  0  0  0  0  0  0  0
   26.0020  -19.9153  -12.2342 C   0  0  0  0  0  0  0  0  0  0  0  0
   27.1298  -20.3675  -11.3972 C   0  0  0  0  0  0  0  0  0  0  0  0
   28.3465  -20.8813  -11.7961 C   0  0  0  0  0  0  0  0  0  0  0  0
   29.0773  -21.1645  -10.7157 N   0  0  0  0  0  0  0  0  0  0  0  0
   28.4173  -20.8682   -9.5878 C   0  0  0  0  0  0  0  0  0  0  0  0
   28.6820  -20.9523   -8.2270 C   0  0  0  0  0  0  0  0  0  0  0  0
   27.7670  -20.5535   -7.2753 C   0  0  0  0  0  0  0  0  0  0  0  0
   26.5425  -20.0528   -7.7324 C   0  0  0  0  0  0  0  0  0  0  0  0
   26.2649  -19.9630   -9.0754 C   0  0  0  0  0  0  0  0  0  0  0  0
   27.1828  -20.3628  -10.0184 C   0  0  0  0  0  0  0  0  0  0  0  0
   23.9405  -20.6209  -13.2972 C   0  0  0  0  0  0  0  0  0  0  0  0
   23.7485  -19.6664  -14.1042 O   0  0  0  0  0  0  0  0  0  0  0  0
   21.0190  -20.9149  -15.9927 C   0  0  0  0  0  0  0  0  0  0  0  0
   21.0701  -22.1307  -15.0954 C   0  0  2  0  0  0  0  0  0  0  0  0
   20.4403  -23.3607  -15.6800 C   0  0  0  0  0  0  0  0  0  0  0  0
   20.7715  -21.8749  -13.6736 C   0  0  0  0  0  0  0  0  0  0  0  0
   21.4524  -20.7613  -12.9769 C   0  0  2  0  0  0  0  0  0  0  0  0
   22.8230  -21.2562  -12.7095 N   0  0  0  0  0  0  0  0  0  0  0  0
   20.8736  -20.2603  -11.7449 C   0  0  0  0  0  0  0  0  0  0  0  0
   19.7758  -19.4256  -11.7405 O   0  0  0  0  0  0  0  0  0  0  0  0
   21.3644  -20.5739  -10.6308 O   0  0  0  0  0  0  0  0  0  0  0  0
  2  3  1  0
  2  1  1  1
  3  4  1  0
  5  4  1  0
  6  5  1  0
  7  6  1  0
  8  2  1  0
  8  9  2  0
 10  8  1  0
 11 10  1  0
 11 12  1  6
 13 14  2  0
 13 12  1  0
 15 14  1  0
 16 21  2  0
 16 15  1  0
 17 16  1  0
 18 19  1  0
 18 17  2  0
 19 20  2  0
 20 21  1  0
 21 13  1  0
 22 29  1  0
 22 11  1  0
 23 22  2  0
 25 24  1  6
 25 27  1  0
 26 25  1  0
 28 27  1  1
 28 29  1  0
 28 30  1  0
 30 32  2  0
 30 31  1  0
M  END
$$$$
