KWL.pdb
     RDKit          3D

 32 33  0  0  1  0  0  0  0  0999 V2000
   28.0136  -21.5169  -15.2790 N   0  0  0  0  0  0  0  0  0  0  0  0
   27.9516  -20.4135  -14.3597 C   0  0  1  0  0  0  0  0  0  0  0  0
   27.2755  -19.1996  -14.9814 C   0  0  0  0  0  0  0  0  0  0  0  0
   28.1644  -18.5580  -16.0234 C   0  0  0  0  0  0  0  0  0  0  0  0
   27.5158  -18.8346  -17.3840 C   0  0  0  0  0  0  0  0  0  0  0  0
   28.4198  -18.2318  -18.4448 C   0  0  0  0  0  0  0  0  0  0  0  0
   27.7747  -18.4726  -19.7295 N   0  0  0  0  0  0  0  0  0  0  0  0
   27.2875  -20.7935  -13.0895 C   0  0  0  0  0  0  0  0  0  0  0  0
   26.3711  -21.6469  -13.1180 O   0  0  0  0  0  0  0  0  0  0  0  0
   27.6647  -20.2140  -11.8424 N   0  0  0  0  0  0  0  0  0  0  0  0
   26.9765  -20.5516  -10.6260 C   0  0  1  0  0  0  0  0  0  0  0  0
   27.5726  -19.8638   -9.4243 C   0  0  0  0  0  0  0  0  0  0  0  0
   26.9332  -20.2796   -8.1612 C   0  0  0  0  0  0  0  0  0  0  0  0
   25.7486  -20.9634   -7.9800 C   0  0  0  0  0  0  0  0  0  0  0  0
   25.5381  -21.1352   -6.6733 N   0  0  0  0  0  0  0  0  0  0  0  0
   26.5267  -20.5994   -5.9443 C   0  0  0  0  0  0  0  0  0  0  0  0
   26.8181  -20.4860   -4.5912 C   0  0  0  0  0  0  0  0  0  0  0  0
   27.9562  -19.8538   -4.1360 C   0  0  0  0  0  0  0  0  0  0  0  0
   28.8225  -19.3211   -5.0977 C   0  0  0  0  0  0  0  0  0  0  0  0
   28.5487  -19.4247   -6.4404 C   0  0  0  0  0  0  0  0  0  0  0  0
   27.4116  -20.0569   -6.8864 C   0  0  0  0  0  0  0  0  0  0  0  0
   25.5641  -20.0415  -10.7705 C   0  0  0  0  0  0  0  0  0  0  0  0
   25.3715  -18.8009  -10.9220 O   0  0  0  0  0  0  0  0  0  0  0  0
   21.7767  -21.7071  -14.7149 C   0  0  0  0  0  0  0  0  0  0  0  0
   21.8435  -20.8969  -13.4400 C   0  0  2  0  0  0  0  0  0  0  0  0
   21.4745  -19.4516  -13.6028 C   0  0  0  0  0  0  0  0  0  0  0  0
   23.0169  -21.1640  -12.5869 C   0  0  0  0  0  0  0  0  0  0  0  0
   23.1427  -20.4704  -11.2861 C   0  0  2  0  0  0  0  0  0  0  0  0
   24.4488  -20.9092  -10.7415 N   0  0  0  0  0  0  0  0  0  0  0  0
   22.1111  -20.6807  -10.2885 C   0  0  0  0  0  0  0  0  0  0  0  0
   22.2145  -21.6642   -9.3273 O   0  0  0  0  0  0  0  0  0  0  0  0
   21.0774  -19.9652  -10.2729 O   0  0  0  0  0  0  0  0  0  0  0  0
  2  3  1  0
  2  1  1  6
  3  4  1  0
  5  4  1  0
  6  5  1  0
  7  6  1  0
  8  2  1  0
  8  9  2  0
 10  8  1  0
 11 10  1  0
 11 12  1  1
 13 14  2  0
 13 12  1  0
 15 14  1  0
 16 21  2  0
 16 15  1  0
 17 16  1  0
 18 19  1  0
 18 17  2  0
 19 20  2  0
 20 21  1  0
 21 13  1  0
 22 29  1  0
 22 11  1  0
 23 22  2  0
 25 24  1  6
 25 27  1  0
 26 25  1  0
 28 27  1  6
 28 29  1  0
 28 30  1  0
 30 32  2  0
 30 31  1  0
M  END
$$$$
