KWL.pdb
     RDKit          3D

 32 33  0  0  1  0  0  0  0  0999 V2000
   28.2728  -21.9213  -15.1617 N   0  0  0  0  0  0  0  0  0  0  0  0
   27.4565  -20.8398  -14.6816 C   0  0  1  0  0  0  0  0  0  0  0  0
   26.6564  -20.1961  -15.8053 C   0  0  0  0  0  0  0  0  0  0  0  0
   27.5207  -19.2584  -16.6183 C   0  0  0  0  0  0  0  0  0  0  0  0
   27.3488  -17.8632  -16.0081 C   0  0  0  0  0  0  0  0  0  0  0  0
   28.2478  -16.9178  -16.7852 C   0  0  0  0  0  0  0  0  0  0  0  0
   28.1299  -15.6116  -16.1491 N   0  0  0  0  0  0  0  0  0  0  0  0
   26.5635  -21.2729  -13.5799 C   0  0  0  0  0  0  0  0  0  0  0  0
   26.0083  -22.3931  -13.6565 O   0  0  0  0  0  0  0  0  0  0  0  0
   26.3223  -20.4495  -12.4411 N   0  0  0  0  0  0  0  0  0  0  0  0
   25.4680  -20.8894  -11.3716 C   0  0  1  0  0  0  0  0  0  0  0  0
   25.7906  -20.2066  -10.0669 C   0  0  0  0  0  0  0  0  0  0  0  0
   27.0374  -20.7105   -9.4596 C   0  0  0  0  0  0  0  0  0  0  0  0
   27.9502  -21.6034   -9.9820 C   0  0  0  0  0  0  0  0  0  0  0  0
   28.9364  -21.7864   -9.1016 N   0  0  0  0  0  0  0  0  0  0  0  0
   28.7439  -21.0578   -7.9935 C   0  0  0  0  0  0  0  0  0  0  0  0
   29.4229  -20.8647   -6.7975 C   0  0  0  0  0  0  0  0  0  0  0  0
   28.9527  -20.0188   -5.8150 C   0  0  0  0  0  0  0  0  0  0  0  0
   27.7491  -19.3499   -6.0660 C   0  0  0  0  0  0  0  0  0  0  0  0
   27.0650  -19.5300   -7.2442 C   0  0  0  0  0  0  0  0  0  0  0  0
   27.5405  -20.3754   -8.2193 C   0  0  0  0  0  0  0  0  0  0  0  0
   24.0629  -20.4859  -11.7446 C   0  0  0  0  0  0  0  0  0  0  0  0
   23.8621  -19.3344  -12.2271 O   0  0  0  0  0  0  0  0  0  0  0  0
   20.9075  -22.1117  -14.7695 C   0  0  0  0  0  0  0  0  0  0  0  0
   21.0376  -22.9700  -13.5315 C   0  0  2  0  0  0  0  0  0  0  0  0
   20.3293  -24.2902  -13.6141 C   0  0  0  0  0  0  0  0  0  0  0  0
   20.8996  -22.2505  -12.2511 C   0  0  0  0  0  0  0  0  0  0  0  0
   21.6174  -20.9717  -12.0551 C   0  0  2  0  0  0  0  0  0  0  0  0
   22.9635  -21.3569  -11.5707 N   0  0  0  0  0  0  0  0  0  0  0  0
   21.0455  -19.9895  -11.1539 C   0  0  0  0  0  0  0  0  0  0  0  0
   20.1928  -19.0006  -11.5977 O   0  0  0  0  0  0  0  0  0  0  0  0
   21.3166  -20.0094   -9.9265 O   0  0  0  0  0  0  0  0  0  0  0  0
  2  3  1  0
  2  1  1  6
  3  4  1  0
  5  4  1  0
  6  5  1  0
  7  6  1  0
  8  2  1  0
  8  9  2  0
 10  8  1  0
 11 10  1  0
 11 12  1  1
 13 14  2  0
 13 12  1  0
 15 14  1  0
 16 21  2  0
 16 15  1  0
 17 16  1  0
 18 19  1  0
 18 17  2  0
 19 20  2  0
 20 21  1  0
 21 13  1  0
 22 29  1  0
 22 11  1  0
 23 22  2  0
 25 24  1  6
 25 27  1  0
 26 25  1  0
 28 27  1  1
 28 29  1  0
 28 30  1  0
 30 32  2  0
 30 31  1  0
M  END
$$$$
