RDF.pdb
     RDKit          3D

 31 31  0  0  1  0  0  0  0  0999 V2000
   28.6300  -26.5585  -16.2430 N   0  0  0  0  0  0  0  0  0  0  0  0
   29.6522  -25.6213  -16.5720 C   0  0  0  0  0  0  0  0  0  0  0  0
   30.8526  -26.0179  -16.8295 N   0  0  0  0  0  0  0  0  0  0  0  0
   29.2914  -24.2415  -16.6010 N   0  0  0  0  0  0  0  0  0  0  0  0
   27.9300  -23.8888  -16.2903 C   0  0  0  0  0  0  0  0  0  0  0  0
   27.3308  -23.0888  -17.4262 C   0  0  0  0  0  0  0  0  0  0  0  0
   25.9397  -22.5876  -17.0703 C   0  0  0  0  0  0  0  0  0  0  0  0
   24.9724  -23.6881  -17.4323 C   0  0  2  0  0  0  0  0  0  0  0  0
   25.3559  -24.1866  -18.7228 N   0  0  0  0  0  0  0  0  0  0  0  0
   23.5545  -23.2858  -17.3504 C   0  0  0  0  0  0  0  0  0  0  0  0
   23.1289  -22.3767  -18.1081 O   0  0  0  0  0  0  0  0  0  0  0  0
   31.5577  -25.2985  -17.0776 N   0  0  0  0  0  0  0  0  0  0  0  0
   22.6185  -23.8562  -16.4673 C   0  0  1  0  0  0  0  0  0  0  0  0
   21.2180  -23.3473  -16.3729 C   0  0  0  0  0  0  0  0  0  0  0  0
   20.4003  -24.3976  -15.6641 C   0  0  0  0  0  0  0  0  0  0  0  0
   19.0118  -23.9600  -15.4934 O   0  0  0  0  0  0  0  0  0  0  0  0
   18.4156  -23.2872  -16.4042 C   0  0  0  0  0  0  0  0  0  0  0  0
   21.2618  -22.1249  -15.5447 O   0  0  0  0  0  0  0  0  0  0  0  0
   22.2907  -21.9633  -14.8043 O   0  0  0  0  0  0  0  0  0  0  0  0
   18.2573  -24.2397  -14.3490 N   0  0  0  0  0  0  0  0  0  0  0  0
   20.3498  -21.0700  -15.4193 C   0  0  2  0  0  0  0  0  0  0  0  0
   20.6037  -19.8501  -14.7073 C   0  0  0  0  0  0  0  0  0  0  0  0
   21.9785  -19.3053  -14.7850 C   0  0  0  0  0  0  0  0  0  0  0  0
   22.1988  -18.7050  -16.1316 C   0  0  0  0  0  0  0  0  0  0  0  0
   23.0113  -19.3022  -17.0775 C   0  0  0  0  0  0  0  0  0  0  0  0
   23.2383  -18.7588  -18.3259 C   0  0  0  0  0  0  0  0  0  0  0  0
   22.6398  -17.5679  -18.6699 C   0  0  0  0  0  0  0  0  0  0  0  0
   21.8309  -16.9540  -17.7540 C   0  0  0  0  0  0  0  0  0  0  0  0
   21.6088  -17.5096  -16.4993 C   0  0  0  0  0  0  0  0  0  0  0  0
   19.6702  -18.8237  -15.2794 O   0  0  0  0  0  0  0  0  0  0  0  0
   18.9011  -19.2277  -16.3693 O   0  0  0  0  0  0  0  0  0  0  0  0
  2  1  1  0
  3  2  2  0
  4  2  1  0
  5  4  1  0
  6  5  1  0
  7  6  1  0
  8  7  1  0
  8  9  1  6
 10  8  1  0
 10 11  2  0
 12 10  1  0
 13 12  1  0
 13 17  1  0
 13 14  1  6
 15 16  2  0
 15 14  1  0
 17 20  1  0
 18 17  2  0
 19 15  1  0
 20 21  1  0
 21 29  1  0
 22 23  1  0
 21 22  1  6
 23 28  2  0
 24 25  2  0
 24 23  1  0
 25 26  1  0
 26 27  2  0
 28 27  1  0
 29 31  2  0
 29 30  1  0
M  END
$$$$
