RDF.pdb
     RDKit          3D

 31 31  0  0  1  0  0  0  0  0999 V2000
   26.5386  -22.2710  -12.4350 N   0  0  0  0  0  0  0  0  0  0  0  0
   25.6504  -22.8565  -13.3835 C   0  0  0  0  0  0  0  0  0  0  0  0
   24.9362  -23.8846  -13.0713 N   0  0  0  0  0  0  0  0  0  0  0  0
   25.5898  -22.2615  -14.6786 N   0  0  0  0  0  0  0  0  0  0  0  0
   26.0222  -20.8949  -14.8191 C   0  0  0  0  0  0  0  0  0  0  0  0
   25.0509  -19.9704  -14.1182 C   0  0  0  0  0  0  0  0  0  0  0  0
   25.4023  -18.5122  -14.3699 C   0  0  0  0  0  0  0  0  0  0  0  0
   24.1419  -17.8352  -14.8504 C   0  0  2  0  0  0  0  0  0  0  0  0
   23.4263  -18.7855  -15.6541 N   0  0  0  0  0  0  0  0  0  0  0  0
   24.3798  -16.5460  -15.5289 C   0  0  0  0  0  0  0  0  0  0  0  0
   25.1293  -15.6947  -14.9856 O   0  0  0  0  0  0  0  0  0  0  0  0
   24.3469  -24.3083  -13.8125 N   0  0  0  0  0  0  0  0  0  0  0  0
   23.8183  -16.1875  -16.7689 C   0  0  1  0  0  0  0  0  0  0  0  0
   24.1350  -14.8846  -17.4258 C   0  0  0  0  0  0  0  0  0  0  0  0
   23.8923  -15.0513  -18.9048 C   0  0  0  0  0  0  0  0  0  0  0  0
   24.8912  -15.9389  -19.5074 O   0  0  0  0  0  0  0  0  0  0  0  0
   26.1255  -15.6051  -19.5571 C   0  0  0  0  0  0  0  0  0  0  0  0
   23.1842  -13.8911  -16.8865 O   0  0  0  0  0  0  0  0  0  0  0  0
   22.1233  -14.3437  -16.3363 O   0  0  0  0  0  0  0  0  0  0  0  0
   24.5734  -17.1847  -20.0587 N   0  0  0  0  0  0  0  0  0  0  0  0
   23.2352  -12.4920  -16.8642 C   0  0  1  0  0  0  0  0  0  0  0  0
   22.3391  -11.6530  -16.1210 C   0  0  0  0  0  0  0  0  0  0  0  0
   22.8216  -11.1543  -14.8127 C   0  0  0  0  0  0  0  0  0  0  0  0
   24.2263  -10.6752  -14.9520 C   0  0  0  0  0  0  0  0  0  0  0  0
   24.5262   -9.3953  -15.3804 C   0  0  0  0  0  0  0  0  0  0  0  0
   25.8189   -8.9341  -15.5272 C   0  0  0  0  0  0  0  0  0  0  0  0
   26.8764   -9.7674  -15.2404 C   0  0  0  0  0  0  0  0  0  0  0  0
   26.6100  -11.0394  -14.8150 C   0  0  0  0  0  0  0  0  0  0  0  0
   25.3044  -11.4942  -14.6704 C   0  0  0  0  0  0  0  0  0  0  0  0
   22.0550  -10.4626  -16.9895 O   0  0  0  0  0  0  0  0  0  0  0  0
   21.0988   -9.5663  -16.5152 O   0  0  0  0  0  0  0  0  0  0  0  0
  2  1  1  0
  3  2  2  0
  4  2  1  0
  5  4  1  0
  6  5  1  0
  7  6  1  0
  8  7  1  0
  8  9  1  6
 10  8  1  0
 10 11  2  0
 12 10  1  0
 13 12  1  0
 13 17  1  0
 13 14  1  1
 15 16  2  0
 15 14  1  0
 17 20  1  0
 18 17  2  0
 19 15  1  0
 20 21  1  0
 21 29  1  0
 22 23  1  0
 21 22  1  1
 23 28  2  0
 24 25  2  0
 24 23  1  0
 25 26  1  0
 26 27  2  0
 28 27  1  0
 29 31  2  0
 29 30  1  0
M  END
$$$$
