RDF.pdb
     RDKit          3D

 31 31  0  0  1  0  0  0  0  0999 V2000
   28.0912  -16.0409  -19.3927 N   0  0  0  0  0  0  0  0  0  0  0  0
   26.9367  -16.8382  -19.6432 C   0  0  0  0  0  0  0  0  0  0  0  0
   26.5969  -17.1464  -20.8491 N   0  0  0  0  0  0  0  0  0  0  0  0
   26.1826  -17.2727  -18.5129 N   0  0  0  0  0  0  0  0  0  0  0  0
   26.6336  -16.8781  -17.2033 C   0  0  0  0  0  0  0  0  0  0  0  0
   27.4054  -18.0092  -16.5594 C   0  0  0  0  0  0  0  0  0  0  0  0
   26.4833  -19.1593  -16.1850 C   0  0  0  0  0  0  0  0  0  0  0  0
   27.2942  -20.1134  -15.3424 C   0  0  2  0  0  0  0  0  0  0  0  0
   27.9113  -21.0532  -16.2352 N   0  0  0  0  0  0  0  0  0  0  0  0
   26.5251  -20.7479  -14.2539 C   0  0  0  0  0  0  0  0  0  0  0  0
   25.9462  -21.8436  -14.4683 O   0  0  0  0  0  0  0  0  0  0  0  0
   25.7668  -17.7551  -20.9780 N   0  0  0  0  0  0  0  0  0  0  0  0
   26.3870  -20.2074  -12.9616 C   0  0  2  0  0  0  0  0  0  0  0  0
   25.5758  -20.8885  -11.9092 C   0  0  0  0  0  0  0  0  0  0  0  0
   26.2261  -20.6022  -10.5790 C   0  0  0  0  0  0  0  0  0  0  0  0
   25.4307  -21.1459   -9.4742 O   0  0  0  0  0  0  0  0  0  0  0  0
   24.4112  -21.8863   -9.6976 C   0  0  0  0  0  0  0  0  0  0  0  0
   24.2340  -20.2715  -11.9369 O   0  0  0  0  0  0  0  0  0  0  0  0
   24.1737  -19.0078  -11.7570 O   0  0  0  0  0  0  0  0  0  0  0  0
   25.7225  -20.8992   -8.1285 N   0  0  0  0  0  0  0  0  0  0  0  0
   22.9689  -20.8380  -12.1340 C   0  0  1  0  0  0  0  0  0  0  0  0
   21.9705  -20.3191  -13.0247 C   0  0  0  0  0  0  0  0  0  0  0  0
   22.3812  -20.0929  -14.4293 C   0  0  0  0  0  0  0  0  0  0  0  0
   21.2611  -19.4534  -15.1767 C   0  0  0  0  0  0  0  0  0  0  0  0
   21.2697  -18.1102  -15.5044 C   0  0  0  0  0  0  0  0  0  0  0  0
   20.2389  -17.4950  -16.1859 C   0  0  0  0  0  0  0  0  0  0  0  0
   19.1400  -18.2306  -16.5683 C   0  0  0  0  0  0  0  0  0  0  0  0
   19.1037  -19.5618  -16.2573 C   0  0  0  0  0  0  0  0  0  0  0  0
   20.1471  -20.1719  -15.5705 C   0  0  0  0  0  0  0  0  0  0  0  0
   20.8481  -21.3152  -13.0294 O   0  0  0  0  0  0  0  0  0  0  0  0
   19.5656  -20.8013  -12.8457 O   0  0  0  0  0  0  0  0  0  0  0  0
  2  1  1  0
  3  2  2  0
  4  2  1  0
  5  4  1  0
  6  5  1  0
  7  6  1  0
  8  7  1  0
  8  9  1  6
 10  8  1  0
 10 11  2  0
 12 10  1  0
 13 12  1  0
 13 17  1  0
 13 14  1  1
 15 16  2  0
 15 14  1  0
 17 20  1  0
 18 17  2  0
 19 15  1  0
 20 21  1  0
 21 29  1  0
 22 23  1  0
 21 22  1  1
 23 28  2  0
 24 25  2  0
 24 23  1  0
 25 26  1  0
 26 27  2  0
 28 27  1  0
 29 31  2  0
 29 30  1  0
M  END
$$$$
