RDF.pdb
     RDKit          3D

 31 31  0  0  1  0  0  0  0  0999 V2000
   43.0100  -10.2784   -3.6193 N   0  0  0  0  0  0  0  0  0  0  0  0
   44.3269   -9.8027   -3.3534 C   0  0  0  0  0  0  0  0  0  0  0  0
   45.0871  -10.4060   -2.5033 N   0  0  0  0  0  0  0  0  0  0  0  0
   44.7593   -8.6417   -4.0606 N   0  0  0  0  0  0  0  0  0  0  0  0
   44.0455   -8.2686   -5.2546 C   0  0  0  0  0  0  0  0  0  0  0  0
   44.5975   -9.0231   -6.4443 C   0  0  0  0  0  0  0  0  0  0  0  0
   43.9883   -8.5199   -7.7439 C   0  0  0  0  0  0  0  0  0  0  0  0
   44.5192   -9.4031   -8.8466 C   0  0  2  0  0  0  0  0  0  0  0  0
   45.9020   -9.0664   -9.0352 N   0  0  0  0  0  0  0  0  0  0  0  0
   43.7222   -9.3501  -10.0880 C   0  0  0  0  0  0  0  0  0  0  0  0
   44.0504   -8.5432  -10.9951 O   0  0  0  0  0  0  0  0  0  0  0  0
   46.0341  -10.0159   -2.3380 N   0  0  0  0  0  0  0  0  0  0  0  0
   42.5949  -10.1542  -10.3410 C   0  0  2  0  0  0  0  0  0  0  0  0
   41.6637   -9.8658  -11.4719 C   0  0  0  0  0  0  0  0  0  0  0  0
   41.2616  -11.1872  -12.0769 C   0  0  0  0  0  0  0  0  0  0  0  0
   40.3733  -10.9935  -13.2268 O   0  0  0  0  0  0  0  0  0  0  0  0
   40.0632   -9.8193  -13.6299 C   0  0  0  0  0  0  0  0  0  0  0  0
   40.4721   -9.2152  -10.8899 O   0  0  0  0  0  0  0  0  0  0  0  0
   39.6398   -9.9695  -10.2804 O   0  0  0  0  0  0  0  0  0  0  0  0
   39.8141  -12.0537  -13.9480 N   0  0  0  0  0  0  0  0  0  0  0  0
   40.0734   -7.8731  -10.8807 C   0  0  1  0  0  0  0  0  0  0  0  0
   38.8090   -7.3991  -10.3951 C   0  0  0  0  0  0  0  0  0  0  0  0
   38.7912   -6.8211   -9.0319 C   0  0  0  0  0  0  0  0  0  0  0  0
   38.9340   -7.9138   -8.0280 C   0  0  0  0  0  0  0  0  0  0  0  0
   39.8552   -7.8494   -6.9989 C   0  0  0  0  0  0  0  0  0  0  0  0
   40.0123   -8.8539   -6.0652 C   0  0  0  0  0  0  0  0  0  0  0  0
   39.2277   -9.9825   -6.1399 C   0  0  0  0  0  0  0  0  0  0  0  0
   38.3080  -10.0741   -7.1477 C   0  0  0  0  0  0  0  0  0  0  0  0
   38.1577   -9.0569   -8.0831 C   0  0  0  0  0  0  0  0  0  0  0  0
   38.3605   -6.3331  -11.3515 O   0  0  0  0  0  0  0  0  0  0  0  0
   39.2414   -6.0210  -12.3856 O   0  0  0  0  0  0  0  0  0  0  0  0
  2  1  1  0
  3  2  2  0
  4  2  1  0
  5  4  1  0
  6  5  1  0
  7  6  1  0
  8  7  1  0
  8  9  1  6
 10  8  1  0
 10 11  2  0
 12 10  1  0
 13 12  1  0
 13 17  1  0
 13 14  1  1
 15 16  2  0
 15 14  1  0
 17 20  1  0
 18 17  2  0
 19 15  1  0
 20 21  1  0
 21 29  1  0
 22 23  1  0
 21 22  1  6
 23 28  2  0
 24 25  2  0
 24 23  1  0
 25 26  1  0
 26 27  2  0
 28 27  1  0
 29 31  2  0
 29 30  1  0
M  END
$$$$
