RDF.pdb
     RDKit          3D

 31 31  0  0  1  0  0  0  0  0999 V2000
   25.8651  -24.2863  -15.9689 N   0  0  0  0  0  0  0  0  0  0  0  0
   24.5985  -24.7330  -15.4921 C   0  0  0  0  0  0  0  0  0  0  0  0
   24.4894  -25.8510  -14.8575 N   0  0  0  0  0  0  0  0  0  0  0  0
   23.4706  -23.8979  -15.7477 N   0  0  0  0  0  0  0  0  0  0  0  0
   23.6531  -22.7525  -16.6015 C   0  0  0  0  0  0  0  0  0  0  0  0
   23.3312  -21.4843  -15.8416 C   0  0  0  0  0  0  0  0  0  0  0  0
   22.3105  -21.7460  -14.7448 C   0  0  0  0  0  0  0  0  0  0  0  0
   22.7128  -20.8991  -13.5620 C   0  0  2  0  0  0  0  0  0  0  0  0
   22.6582  -19.5270  -13.9807 N   0  0  0  0  0  0  0  0  0  0  0  0
   24.0067  -21.2852  -12.9656 C   0  0  0  0  0  0  0  0  0  0  0  0
   24.1369  -22.4340  -12.4705 O   0  0  0  0  0  0  0  0  0  0  0  0
   23.5732  -26.0757  -14.4258 N   0  0  0  0  0  0  0  0  0  0  0  0
   25.1347  -20.4452  -12.9074 C   0  0  1  0  0  0  0  0  0  0  0  0
   26.4422  -20.9241  -12.3686 C   0  0  0  0  0  0  0  0  0  0  0  0
   27.5242  -20.0656  -12.9737 C   0  0  0  0  0  0  0  0  0  0  0  0
   27.6746  -20.3368  -14.4064 O   0  0  0  0  0  0  0  0  0  0  0  0
   27.8718  -19.3865  -15.2403 C   0  0  0  0  0  0  0  0  0  0  0  0
   26.4089  -20.7061  -10.9080 O   0  0  0  0  0  0  0  0  0  0  0  0
   26.0907  -19.5362  -10.5040 O   0  0  0  0  0  0  0  0  0  0  0  0
   27.6141  -21.6239  -14.9512 N   0  0  0  0  0  0  0  0  0  0  0  0
   26.6692  -21.5793   -9.8450 C   0  0  1  0  0  0  0  0  0  0  0  0
   26.7984  -21.1808   -8.4725 C   0  0  0  0  0  0  0  0  0  0  0  0
   27.6039  -19.9679   -8.2022 C   0  0  0  0  0  0  0  0  0  0  0  0
   27.8145  -19.8297   -6.7329 C   0  0  0  0  0  0  0  0  0  0  0  0
   29.0508  -19.5250   -6.1940 C   0  0  0  0  0  0  0  0  0  0  0  0
   29.2711  -19.4032   -4.8368 C   0  0  0  0  0  0  0  0  0  0  0  0
   28.2282  -19.5888   -3.9578 C   0  0  0  0  0  0  0  0  0  0  0  0
   26.9938  -19.8917   -4.4622 C   0  0  0  0  0  0  0  0  0  0  0  0
   26.7824  -20.0122   -5.8308 C   0  0  0  0  0  0  0  0  0  0  0  0
   25.4064  -20.9284   -7.9718 O   0  0  0  0  0  0  0  0  0  0  0  0
   24.4606  -20.5706   -8.9310 O   0  0  0  0  0  0  0  0  0  0  0  0
  2  1  1  0
  3  2  2  0
  4  2  1  0
  5  4  1  0
  6  5  1  0
  7  6  1  0
  8  7  1  0
  8  9  1  6
 10  8  1  0
 10 11  2  0
 12 10  1  0
 13 12  1  0
 13 17  1  0
 13 14  1  1
 15 16  2  0
 15 14  1  0
 17 20  1  0
 18 17  2  0
 19 15  1  0
 20 21  1  0
 21 29  1  0
 22 23  1  0
 21 22  1  1
 23 28  2  0
 24 25  2  0
 24 23  1  0
 25 26  1  0
 26 27  2  0
 28 27  1  0
 29 31  2  0
 29 30  1  0
M  END
$$$$
