RDF.pdb
     RDKit          3D

 31 31  0  0  1  0  0  0  0  0999 V2000
   30.3538  -23.2067  -17.9729 N   0  0  0  0  0  0  0  0  0  0  0  0
   29.2984  -23.9664  -17.3894 C   0  0  0  0  0  0  0  0  0  0  0  0
   29.4781  -25.2010  -17.0607 N   0  0  0  0  0  0  0  0  0  0  0  0
   28.0492  -23.3072  -17.1900 N   0  0  0  0  0  0  0  0  0  0  0  0
   27.9060  -21.9606  -17.6806 C   0  0  0  0  0  0  0  0  0  0  0  0
   28.5758  -20.9905  -16.7321 C   0  0  0  0  0  0  0  0  0  0  0  0
   27.5469  -20.2046  -15.9341 C   0  0  0  0  0  0  0  0  0  0  0  0
   26.6114  -19.5686  -16.9332 C   0  0  2  0  0  0  0  0  0  0  0  0
   27.3789  -18.6260  -17.6971 N   0  0  0  0  0  0  0  0  0  0  0  0
   25.3964  -18.9896  -16.3268 C   0  0  0  0  0  0  0  0  0  0  0  0
   25.2205  -17.7451  -16.3712 O   0  0  0  0  0  0  0  0  0  0  0  0
   28.6678  -25.7233  -16.6776 N   0  0  0  0  0  0  0  0  0  0  0  0
   24.3940  -19.7427  -15.6868 C   0  0  2  0  0  0  0  0  0  0  0  0
   23.0999  -19.1283  -15.2661 C   0  0  0  0  0  0  0  0  0  0  0  0
   22.3778  -18.6908  -16.5156 C   0  0  0  0  0  0  0  0  0  0  0  0
   21.0660  -18.1204  -16.1956 O   0  0  0  0  0  0  0  0  0  0  0  0
   20.8987  -17.3941  -15.1554 C   0  0  0  0  0  0  0  0  0  0  0  0
   22.3185  -20.1903  -14.6001 O   0  0  0  0  0  0  0  0  0  0  0  0
   22.2862  -21.3319  -15.1734 O   0  0  0  0  0  0  0  0  0  0  0  0
   19.9299  -18.3253  -16.9858 N   0  0  0  0  0  0  0  0  0  0  0  0
   21.5811  -20.1759  -13.4100 C   0  0  1  0  0  0  0  0  0  0  0  0
   21.1254  -21.3466  -12.7164 C   0  0  0  0  0  0  0  0  0  0  0  0
   21.4107  -21.4164  -11.2650 C   0  0  0  0  0  0  0  0  0  0  0  0
   22.8792  -21.2905  -11.0416 C   0  0  0  0  0  0  0  0  0  0  0  0
   23.4256  -20.2403  -10.3273 C   0  0  0  0  0  0  0  0  0  0  0  0
   24.7825  -20.0977  -10.1177 C   0  0  0  0  0  0  0  0  0  0  0  0
   25.6534  -21.0307  -10.6333 C   0  0  0  0  0  0  0  0  0  0  0  0
   25.1414  -22.0803  -11.3447 C   0  0  0  0  0  0  0  0  0  0  0  0
   23.7732  -22.2148  -11.5502 C   0  0  0  0  0  0  0  0  0  0  0  0
   19.6359  -21.3912  -12.8940 O   0  0  0  0  0  0  0  0  0  0  0  0
   19.0008  -22.5648  -12.4915 O   0  0  0  0  0  0  0  0  0  0  0  0
  2  1  1  0
  3  2  2  0
  4  2  1  0
  5  4  1  0
  6  5  1  0
  7  6  1  0
  8  7  1  0
  8  9  1  1
 10  8  1  0
 10 11  2  0
 12 10  1  0
 13 12  1  0
 13 17  1  0
 13 14  1  6
 15 16  2  0
 15 14  1  0
 17 20  1  0
 18 17  2  0
 19 15  1  0
 20 21  1  0
 21 29  1  0
 22 23  1  0
 21 22  1  6
 23 28  2  0
 24 25  2  0
 24 23  1  0
 25 26  1  0
 26 27  2  0
 28 27  1  0
 29 31  2  0
 29 30  1  0
M  END
$$$$
