RDF.pdb
     RDKit          3D

 31 31  0  0  1  0  0  0  0  0999 V2000
   24.5995  -23.2152  -19.0218 N   0  0  0  0  0  0  0  0  0  0  0  0
   23.3260  -22.5921  -19.1673 C   0  0  0  0  0  0  0  0  0  0  0  0
   23.0825  -21.8143  -20.1675 N   0  0  0  0  0  0  0  0  0  0  0  0
   22.3457  -22.8634  -18.1670 N   0  0  0  0  0  0  0  0  0  0  0  0
   22.6230  -23.9019  -17.2084 C   0  0  0  0  0  0  0  0  0  0  0  0
   22.0310  -25.2123  -17.6796 C   0  0  0  0  0  0  0  0  0  0  0  0
   20.9876  -25.7267  -16.6999 C   0  0  0  0  0  0  0  0  0  0  0  0
   21.7071  -26.0105  -15.4038 C   0  0  2  0  0  0  0  0  0  0  0  0
   22.7523  -26.9513  -15.6926 N   0  0  0  0  0  0  0  0  0  0  0  0
   20.8143  -26.4353  -14.3076 C   0  0  0  0  0  0  0  0  0  0  0  0
   20.2425  -27.5532  -14.3789 O   0  0  0  0  0  0  0  0  0  0  0  0
   22.1375  -21.3917  -20.2338 N   0  0  0  0  0  0  0  0  0  0  0  0
   20.5476  -25.6660  -13.1594 C   0  0  2  0  0  0  0  0  0  0  0  0
   19.5633  -26.1108  -12.1287 C   0  0  0  0  0  0  0  0  0  0  0  0
   19.9785  -25.5030  -10.8125 C   0  0  0  0  0  0  0  0  0  0  0  0
   19.1621  -26.0205   -9.7105 O   0  0  0  0  0  0  0  0  0  0  0  0
   18.2549  -26.8988   -9.9179 C   0  0  0  0  0  0  0  0  0  0  0  0
   18.2507  -25.5612  -12.5250 O   0  0  0  0  0  0  0  0  0  0  0  0
   18.1796  -24.2967  -12.6952 O   0  0  0  0  0  0  0  0  0  0  0  0
   19.3128  -25.6003   -8.3847 N   0  0  0  0  0  0  0  0  0  0  0  0
   17.0248  -26.1956  -12.7597 C   0  0  1  0  0  0  0  0  0  0  0  0
   15.9426  -25.6297  -13.5135 C   0  0  0  0  0  0  0  0  0  0  0  0
   16.2025  -25.3430  -14.9429 C   0  0  0  0  0  0  0  0  0  0  0  0
   16.2559  -23.8678  -15.1510 C   0  0  0  0  0  0  0  0  0  0  0  0
   15.2601  -23.0253  -14.6926 C   0  0  0  0  0  0  0  0  0  0  0  0
   15.2833  -21.6585  -14.8836 C   0  0  0  0  0  0  0  0  0  0  0  0
   16.3356  -21.0825  -15.5587 C   0  0  0  0  0  0  0  0  0  0  0  0
   17.3352  -21.8914  -16.0241 C   0  0  0  0  0  0  0  0  0  0  0  0
   17.3023  -23.2670  -15.8265 C   0  0  0  0  0  0  0  0  0  0  0  0
   14.8145  -26.6167  -13.4411 O   0  0  0  0  0  0  0  0  0  0  0  0
   13.6494  -26.2742  -14.1251 O   0  0  0  0  0  0  0  0  0  0  0  0
  2  1  1  0
  3  2  2  0
  4  2  1  0
  5  4  1  0
  6  5  1  0
  7  6  1  0
  8  7  1  0
  8  9  1  6
 10  8  1  0
 10 11  2  0
 12 10  1  0
 13 12  1  0
 13 17  1  0
 13 14  1  1
 15 16  2  0
 15 14  1  0
 17 20  1  0
 18 17  2  0
 19 15  1  0
 20 21  1  0
 21 29  1  0
 22 23  1  0
 21 22  1  1
 23 28  2  0
 24 25  2  0
 24 23  1  0
 25 26  1  0
 26 27  2  0
 28 27  1  0
 29 31  2  0
 29 30  1  0
M  END
$$$$
