RDF.pdb
     RDKit          3D

 31 31  0  0  1  0  0  0  0  0999 V2000
   29.2705  -24.4552  -18.1156 N   0  0  0  0  0  0  0  0  0  0  0  0
   30.1667  -23.3590  -17.9530 C   0  0  0  0  0  0  0  0  0  0  0  0
   31.2153  -23.2483  -18.6965 N   0  0  0  0  0  0  0  0  0  0  0  0
   29.8555  -22.4027  -16.9413 N   0  0  0  0  0  0  0  0  0  0  0  0
   28.5608  -22.4743  -16.3143 C   0  0  0  0  0  0  0  0  0  0  0  0
   27.6151  -21.4896  -16.9664 C   0  0  0  0  0  0  0  0  0  0  0  0
   27.0335  -20.5270  -15.9425 C   0  0  0  0  0  0  0  0  0  0  0  0
   26.5484  -21.3625  -14.7830 C   0  0  2  0  0  0  0  0  0  0  0  0
   25.7514  -22.4257  -15.3265 N   0  0  0  0  0  0  0  0  0  0  0  0
   25.8610  -20.5838  -13.7342 C   0  0  0  0  0  0  0  0  0  0  0  0
   25.1150  -19.6278  -14.0679 O   0  0  0  0  0  0  0  0  0  0  0  0
   31.8272  -22.4232  -18.5516 N   0  0  0  0  0  0  0  0  0  0  0  0
   25.9790  -20.8357  -12.3543 C   0  0  1  0  0  0  0  0  0  0  0  0
   24.9634  -20.3422  -11.3774 C   0  0  0  0  0  0  0  0  0  0  0  0
   23.6867  -21.1056  -11.6254 C   0  0  0  0  0  0  0  0  0  0  0  0
   22.6095  -20.6318  -10.7515 O   0  0  0  0  0  0  0  0  0  0  0  0
   22.7887  -19.6409   -9.9618 C   0  0  0  0  0  0  0  0  0  0  0  0
   25.4714  -20.6699  -10.0296 O   0  0  0  0  0  0  0  0  0  0  0  0
   25.8212  -21.8812   -9.8210 O   0  0  0  0  0  0  0  0  0  0  0  0
   21.3388  -21.2159  -10.7190 N   0  0  0  0  0  0  0  0  0  0  0  0
   25.6491  -19.8662   -8.8970 C   0  0  2  0  0  0  0  0  0  0  0  0
   26.5864  -20.1337   -7.8437 C   0  0  0  0  0  0  0  0  0  0  0  0
   27.3479  -18.9777   -7.3179 C   0  0  0  0  0  0  0  0  0  0  0  0
   28.1453  -19.4064   -6.1335 C   0  0  0  0  0  0  0  0  0  0  0  0
   29.2550  -20.2225   -6.2522 C   0  0  0  0  0  0  0  0  0  0  0  0
   30.0012  -20.6407   -5.1688 C   0  0  0  0  0  0  0  0  0  0  0  0
   29.6450  -20.2407   -3.9008 C   0  0  0  0  0  0  0  0  0  0  0  0
   28.5513  -19.4334   -3.7528 C   0  0  0  0  0  0  0  0  0  0  0  0
   27.8064  -19.0178   -4.8504 C   0  0  0  0  0  0  0  0  0  0  0  0
   25.7944  -20.7158   -6.7097 O   0  0  0  0  0  0  0  0  0  0  0  0
   26.4262  -21.7060   -5.9595 O   0  0  0  0  0  0  0  0  0  0  0  0
  2  1  1  0
  3  2  2  0
  4  2  1  0
  5  4  1  0
  6  5  1  0
  7  6  1  0
  8  7  1  0
  8  9  1  6
 10  8  1  0
 10 11  2  0
 12 10  1  0
 13 12  1  0
 13 17  1  0
 13 14  1  1
 15 16  2  0
 15 14  1  0
 17 20  1  0
 18 17  2  0
 19 15  1  0
 20 21  1  0
 21 29  1  0
 22 23  1  0
 21 22  1  6
 23 28  2  0
 24 25  2  0
 24 23  1  0
 25 26  1  0
 26 27  2  0
 28 27  1  0
 29 31  2  0
 29 30  1  0
M  END
$$$$
