RDF.pdb
     RDKit          3D

 31 31  0  0  1  0  0  0  0  0999 V2000
   29.9701  -23.3044  -15.8451 N   0  0  0  0  0  0  0  0  0  0  0  0
   29.4482  -23.1073  -17.1566 C   0  0  0  0  0  0  0  0  0  0  0  0
   29.3961  -24.0829  -17.9993 N   0  0  0  0  0  0  0  0  0  0  0  0
   28.9936  -21.7971  -17.4908 N   0  0  0  0  0  0  0  0  0  0  0  0
   29.0434  -20.7805  -16.4719 C   0  0  0  0  0  0  0  0  0  0  0  0
   27.6849  -20.1311  -16.3223 C   0  0  0  0  0  0  0  0  0  0  0  0
   26.7366  -21.0189  -15.5313 C   0  0  0  0  0  0  0  0  0  0  0  0
   25.3989  -20.3204  -15.5102 C   0  0  2  0  0  0  0  0  0  0  0  0
   25.4832  -19.2085  -16.4145 N   0  0  0  0  0  0  0  0  0  0  0  0
   24.9419  -19.9493  -14.1566 C   0  0  0  0  0  0  0  0  0  0  0  0
   25.0080  -18.7469  -13.7937 O   0  0  0  0  0  0  0  0  0  0  0  0
   29.1084  -23.8676  -18.9725 N   0  0  0  0  0  0  0  0  0  0  0  0
   24.4242  -20.8608  -13.2171 C   0  0  1  0  0  0  0  0  0  0  0  0
   23.9807  -20.4220  -11.8607 C   0  0  0  0  0  0  0  0  0  0  0  0
   22.6077  -20.9988  -11.6236 C   0  0  0  0  0  0  0  0  0  0  0  0
   21.6172  -20.3895  -12.5160 O   0  0  0  0  0  0  0  0  0  0  0  0
   21.6188  -19.1297  -12.7408 C   0  0  0  0  0  0  0  0  0  0  0  0
   24.9279  -21.0077  -10.8903 O   0  0  0  0  0  0  0  0  0  0  0  0
   26.0714  -21.3612  -11.3381 O   0  0  0  0  0  0  0  0  0  0  0  0
   20.6226  -21.1246  -13.1697 N   0  0  0  0  0  0  0  0  0  0  0  0
   24.7990  -21.2535   -9.5180 C   0  0  2  0  0  0  0  0  0  0  0  0
   25.8491  -21.0837   -8.5548 C   0  0  0  0  0  0  0  0  0  0  0  0
   26.5280  -19.7679   -8.5319 C   0  0  0  0  0  0  0  0  0  0  0  0
   27.5384  -19.7501   -7.4359 C   0  0  0  0  0  0  0  0  0  0  0  0
   27.4221  -18.9100   -6.3440 C   0  0  0  0  0  0  0  0  0  0  0  0
   28.3508  -18.8689   -5.3236 C   0  0  0  0  0  0  0  0  0  0  0  0
   29.4529  -19.6923   -5.3715 C   0  0  0  0  0  0  0  0  0  0  0  0
   29.5945  -20.5337   -6.4401 C   0  0  0  0  0  0  0  0  0  0  0  0
   28.6535  -20.5675   -7.4627 C   0  0  0  0  0  0  0  0  0  0  0  0
   25.2270  -21.3028   -7.2068 O   0  0  0  0  0  0  0  0  0  0  0  0
   25.8845  -22.1941   -6.3607 O   0  0  0  0  0  0  0  0  0  0  0  0
  2  1  1  0
  3  2  2  0
  4  2  1  0
  5  4  1  0
  6  5  1  0
  7  6  1  0
  8  7  1  0
  8  9  1  6
 10  8  1  0
 10 11  2  0
 12 10  1  0
 13 12  1  0
 13 17  1  0
 13 14  1  6
 15 16  2  0
 15 14  1  0
 17 20  1  0
 18 17  2  0
 19 15  1  0
 20 21  1  0
 21 29  1  0
 22 23  1  0
 21 22  1  6
 23 28  2  0
 24 25  2  0
 24 23  1  0
 25 26  1  0
 26 27  2  0
 28 27  1  0
 29 31  2  0
 29 30  1  0
M  END
$$$$
