RDF.pdb
     RDKit          3D

 31 31  0  0  1  0  0  0  0  0999 V2000
   15.2551  -20.0551    2.9453 N   0  0  0  0  0  0  0  0  0  0  0  0
   16.1604  -19.3041    2.1405 C   0  0  0  0  0  0  0  0  0  0  0  0
   16.9511  -19.8955    1.3099 N   0  0  0  0  0  0  0  0  0  0  0  0
   16.1533  -17.8861    2.2954 N   0  0  0  0  0  0  0  0  0  0  0  0
   15.5277  -17.3342    3.4694 C   0  0  0  0  0  0  0  0  0  0  0  0
   15.6660  -15.8275    3.4695 C   0  0  0  0  0  0  0  0  0  0  0  0
   17.0806  -15.4064    3.8364 C   0  0  0  0  0  0  0  0  0  0  0  0
   16.9572  -14.3016    4.8572 C   0  0  2  0  0  0  0  0  0  0  0  0
   17.2240  -13.0635    4.1813 N   0  0  0  0  0  0  0  0  0  0  0  0
   17.7846  -14.5087    6.0620 C   0  0  0  0  0  0  0  0  0  0  0  0
   18.8659  -13.8775    6.1810 O   0  0  0  0  0  0  0  0  0  0  0  0
   17.6116  -19.3076    0.7675 N   0  0  0  0  0  0  0  0  0  0  0  0
   17.4475  -15.3801    7.1148 C   0  0  1  0  0  0  0  0  0  0  0  0
   18.3389  -15.5612    8.2989 C   0  0  0  0  0  0  0  0  0  0  0  0
   17.6034  -15.0343    9.5054 C   0  0  0  0  0  0  0  0  0  0  0  0
   18.4757  -15.0007   10.6829 O   0  0  0  0  0  0  0  0  0  0  0  0
   19.6795  -15.4307   10.6243 C   0  0  0  0  0  0  0  0  0  0  0  0
   18.5519  -17.0144    8.4561 O   0  0  0  0  0  0  0  0  0  0  0  0
   17.7285  -17.7884    7.8595 O   0  0  0  0  0  0  0  0  0  0  0  0
   18.0636  -14.5081   11.9257 N   0  0  0  0  0  0  0  0  0  0  0  0
   19.5286  -17.7261    9.1630 C   0  0  1  0  0  0  0  0  0  0  0  0
   20.0362  -19.0139    8.7844 C   0  0  0  0  0  0  0  0  0  0  0  0
   20.7111  -19.1055    7.4694 C   0  0  0  0  0  0  0  0  0  0  0  0
   19.6962  -19.3619    6.4080 C   0  0  0  0  0  0  0  0  0  0  0  0
   18.8527  -20.4566    6.4480 C   0  0  0  0  0  0  0  0  0  0  0  0
   17.9137  -20.7196    5.4709 C   0  0  0  0  0  0  0  0  0  0  0  0
   17.7914  -19.8679    4.3965 C   0  0  0  0  0  0  0  0  0  0  0  0
   18.6129  -18.7768    4.3301 C   0  0  0  0  0  0  0  0  0  0  0  0
   19.5554  -18.5209    5.3193 C   0  0  0  0  0  0  0  0  0  0  0  0
   21.0304  -19.4040    9.8386 O   0  0  0  0  0  0  0  0  0  0  0  0
   21.5495  -20.6945    9.7506 O   0  0  0  0  0  0  0  0  0  0  0  0
  2  1  1  0
  3  2  2  0
  4  2  1  0
  5  4  1  0
  6  5  1  0
  7  6  1  0
  8  7  1  0
  8  9  1  6
 10  8  1  0
 10 11  2  0
 12 10  1  0
 13 12  1  0
 13 17  1  0
 13 14  1  1
 15 16  2  0
 15 14  1  0
 17 20  1  0
 18 17  2  0
 19 15  1  0
 20 21  1  0
 21 29  1  0
 22 23  1  0
 21 22  1  1
 23 28  2  0
 24 25  2  0
 24 23  1  0
 25 26  1  0
 26 27  2  0
 28 27  1  0
 29 31  2  0
 29 30  1  0
M  END
$$$$
