RDF.pdb
     RDKit          3D

 31 31  0  0  1  0  0  0  0  0999 V2000
   33.5059  -25.1390  -14.6566 N   0  0  0  0  0  0  0  0  0  0  0  0
   33.9501  -25.6664  -15.9040 C   0  0  0  0  0  0  0  0  0  0  0  0
   34.6049  -26.7769  -15.9549 N   0  0  0  0  0  0  0  0  0  0  0  0
   33.6427  -24.9177  -17.0786 N   0  0  0  0  0  0  0  0  0  0  0  0
   32.7199  -23.8182  -16.9611 C   0  0  0  0  0  0  0  0  0  0  0  0
   31.2975  -24.3229  -17.0680 C   0  0  0  0  0  0  0  0  0  0  0  0
   30.3022  -23.1742  -17.0139 C   0  0  0  0  0  0  0  0  0  0  0  0
   28.9378  -23.7651  -17.2730 C   0  0  2  0  0  0  0  0  0  0  0  0
   28.9529  -24.3087  -18.6016 N   0  0  0  0  0  0  0  0  0  0  0  0
   27.8258  -22.8251  -17.0304 C   0  0  0  0  0  0  0  0  0  0  0  0
   27.4661  -22.0478  -17.9514 O   0  0  0  0  0  0  0  0  0  0  0  0
   34.8949  -27.1260  -16.8878 N   0  0  0  0  0  0  0  0  0  0  0  0
   27.1188  -22.7299  -15.8170 C   0  0  1  0  0  0  0  0  0  0  0  0
   26.0180  -21.7394  -15.6263 C   0  0  0  0  0  0  0  0  0  0  0  0
   24.8275  -22.2270  -16.4130 C   0  0  0  0  0  0  0  0  0  0  0  0
   23.6608  -21.3672  -16.1933 O   0  0  0  0  0  0  0  0  0  0  0  0
   22.4857  -21.8635  -16.0917 C   0  0  0  0  0  0  0  0  0  0  0  0
   25.6839  -21.7426  -14.1874 O   0  0  0  0  0  0  0  0  0  0  0  0
   25.3960  -22.8714  -13.6620 O   0  0  0  0  0  0  0  0  0  0  0  0
   23.7470  -19.9754  -16.0822 N   0  0  0  0  0  0  0  0  0  0  0  0
   25.6251  -20.6970  -13.2581 C   0  0  1  0  0  0  0  0  0  0  0  0
   25.3067  -20.8559  -11.8678 C   0  0  0  0  0  0  0  0  0  0  0  0
   26.1618  -20.1314  -10.8999 C   0  0  0  0  0  0  0  0  0  0  0  0
   27.5546  -20.6571  -10.9781 C   0  0  0  0  0  0  0  0  0  0  0  0
   28.4318  -20.2665  -11.9729 C   0  0  0  0  0  0  0  0  0  0  0  0
   29.7215  -20.7484  -12.0711 C   0  0  0  0  0  0  0  0  0  0  0  0
   30.1801  -21.6611  -11.1483 C   0  0  0  0  0  0  0  0  0  0  0  0
   29.3343  -22.0662  -10.1531 C   0  0  0  0  0  0  0  0  0  0  0  0
   28.0370  -21.5748  -10.0630 C   0  0  0  0  0  0  0  0  0  0  0  0
   23.8998  -20.3626  -11.6964 O   0  0  0  0  0  0  0  0  0  0  0  0
   23.2116  -20.8349  -10.5802 O   0  0  0  0  0  0  0  0  0  0  0  0
  2  1  1  0
  3  2  2  0
  4  2  1  0
  5  4  1  0
  6  5  1  0
  7  6  1  0
  8  7  1  0
  8  9  1  6
 10  8  1  0
 10 11  2  0
 12 10  1  0
 13 12  1  0
 13 17  1  0
 13 14  1  6
 15 16  2  0
 15 14  1  0
 17 20  1  0
 18 17  2  0
 19 15  1  0
 20 21  1  0
 21 29  1  0
 22 23  1  0
 21 22  1  6
 23 28  2  0
 24 25  2  0
 24 23  1  0
 25 26  1  0
 26 27  2  0
 28 27  1  0
 29 31  2  0
 29 30  1  0
M  END
$$$$
