RDF.pdb
     RDKit          3D

 31 31  0  0  1  0  0  0  0  0999 V2000
   32.8600  -25.4946  -15.4318 N   0  0  0  0  0  0  0  0  0  0  0  0
   32.8321  -25.7658  -16.8307 C   0  0  0  0  0  0  0  0  0  0  0  0
   33.3642  -26.8412  -17.3048 N   0  0  0  0  0  0  0  0  0  0  0  0
   32.1982  -24.8039  -17.6721 N   0  0  0  0  0  0  0  0  0  0  0  0
   31.6259  -23.6347  -17.0558 C   0  0  0  0  0  0  0  0  0  0  0  0
   30.2903  -23.9791  -16.4339 C   0  0  0  0  0  0  0  0  0  0  0  0
   29.5815  -22.7313  -15.9301 C   0  0  0  0  0  0  0  0  0  0  0  0
   28.1133  -22.9112  -16.2299 C   0  0  2  0  0  0  0  0  0  0  0  0
   27.9439  -22.7521  -17.6466 N   0  0  0  0  0  0  0  0  0  0  0  0
   27.2306  -22.0424  -15.4268 C   0  0  0  0  0  0  0  0  0  0  0  0
   26.9153  -20.9085  -15.8702 O   0  0  0  0  0  0  0  0  0  0  0  0
   33.4131  -26.9437  -18.3360 N   0  0  0  0  0  0  0  0  0  0  0  0
   26.7008  -22.3947  -14.1712 C   0  0  1  0  0  0  0  0  0  0  0  0
   25.7242  -21.5188  -13.4583 C   0  0  0  0  0  0  0  0  0  0  0  0
   24.3616  -21.7856  -14.0467 C   0  0  0  0  0  0  0  0  0  0  0  0
   23.6820  -20.5343  -14.3945 O   0  0  0  0  0  0  0  0  0  0  0  0
   24.3477  -19.4755  -14.6652 C   0  0  0  0  0  0  0  0  0  0  0  0
   25.7313  -21.9348  -12.0410 O   0  0  0  0  0  0  0  0  0  0  0  0
   26.3610  -23.0096  -11.7558 O   0  0  0  0  0  0  0  0  0  0  0  0
   22.2897  -20.4113  -14.4533 N   0  0  0  0  0  0  0  0  0  0  0  0
   25.1553  -21.3441  -10.9097 C   0  0  2  0  0  0  0  0  0  0  0  0
   25.8547  -21.0630   -9.6886 C   0  0  0  0  0  0  0  0  0  0  0  0
   26.9331  -20.0503   -9.7545 C   0  0  0  0  0  0  0  0  0  0  0  0
   27.4854  -19.8242   -8.3884 C   0  0  0  0  0  0  0  0  0  0  0  0
   28.6570  -20.4220   -7.9622 C   0  0  0  0  0  0  0  0  0  0  0  0
   29.1806  -20.2359   -6.6986 C   0  0  0  0  0  0  0  0  0  0  0  0
   28.5253  -19.4221   -5.8024 C   0  0  0  0  0  0  0  0  0  0  0  0
   27.3636  -18.8178   -6.1962 C   0  0  0  0  0  0  0  0  0  0  0  0
   26.8445  -19.0118   -7.4711 C   0  0  0  0  0  0  0  0  0  0  0  0
   24.8244  -20.5735   -8.7134 O   0  0  0  0  0  0  0  0  0  0  0  0
   24.8670  -21.1327   -7.4374 O   0  0  0  0  0  0  0  0  0  0  0  0
  2  1  1  0
  3  2  2  0
  4  2  1  0
  5  4  1  0
  6  5  1  0
  7  6  1  0
  8  7  1  0
  8  9  1  6
 10  8  1  0
 10 11  2  0
 12 10  1  0
 13 12  1  0
 13 17  1  0
 13 14  1  1
 15 16  2  0
 15 14  1  0
 17 20  1  0
 18 17  2  0
 19 15  1  0
 20 21  1  0
 21 29  1  0
 22 23  1  0
 21 22  1  6
 23 28  2  0
 24 25  2  0
 24 23  1  0
 25 26  1  0
 26 27  2  0
 28 27  1  0
 29 31  2  0
 29 30  1  0
M  END
$$$$
