NGS.pdb
     RDKit          3D

 19 18  0  0  1  0  0  0  0  0999 V2000
    9.7427  -17.3865   15.5587 N   0  0  0  0  0  0  0  0  0  0  0  0
   10.1167  -16.0227   15.2710 C   0  0  0  0  0  0  0  0  0  0  0  0
   10.5863  -15.7921   14.1400 O   0  0  0  0  0  0  0  0  0  0  0  0
    9.9218  -15.0146   16.3139 C   0  0  0  0  0  0  0  0  0  0  0  0
    8.5050  -14.8900   16.7926 C   0  0  2  0  0  0  0  0  0  0  0  0
    7.6096  -14.3190   15.8295 N   0  0  0  0  0  0  0  0  0  0  0  0
    8.4587  -14.1793   18.0980 C   0  0  0  0  0  0  0  0  0  0  0  0
    9.4339  -13.4397   18.4412 O   0  0  0  0  0  0  0  0  0  0  0  0
    7.3203  -14.3536   18.9187 N   0  0  0  0  0  0  0  0  0  0  0  0
    7.1847  -13.6904   20.1750 C   0  0  0  0  0  0  0  0  0  0  0  0
    8.1517  -14.2132   21.1993 C   0  0  0  0  0  0  0  0  0  0  0  0
    9.1374  -14.9017   20.8384 O   0  0  0  0  0  0  0  0  0  0  0  0
    7.1278  -13.9892   25.2010 O   0  0  0  0  0  0  0  0  0  0  0  0
    8.5005  -13.7992   24.9694 C   0  0  0  0  0  0  0  0  0  0  0  0
    8.8283  -14.4155   23.6208 C   0  0  2  0  0  0  0  0  0  0  0  0
    7.9765  -13.9452   22.5792 N   0  0  0  0  0  0  0  0  0  0  0  0
    8.8682  -15.8960   23.7228 C   0  0  0  0  0  0  0  0  0  0  0  0
    7.9486  -16.5812   23.1582 O   0  0  0  0  0  0  0  0  0  0  0  0
    9.8498  -16.5794   24.3982 O   0  0  0  0  0  0  0  0  0  0  0  0
  1  2  1  0
  2  3  2  0
  4  2  1  0
  4  5  1  0
  5  6  1  6
  7  8  2  0
  7  5  1  0
  9  7  1  0
 10 11  1  0
 10  9  1  0
 11 16  1  0
 12 11  2  0
 13 14  1  0
 15 14  1  1
 15 17  1  0
 16 15  1  0
 17 18  2  0
 17 19  1  0
M  END
$$$$
