NGS.pdb
     RDKit          3D

 19 18  0  0  1  0  0  0  0  0999 V2000
    0.4447  -19.5504   21.2863 N   0  0  0  0  0  0  0  0  0  0  0  0
    1.7358  -19.9673   21.7780 C   0  0  0  0  0  0  0  0  0  0  0  0
    1.8938  -21.1852   21.9889 O   0  0  0  0  0  0  0  0  0  0  0  0
    2.7602  -18.9445   21.9932 C   0  0  0  0  0  0  0  0  0  0  0  0
    4.0985  -19.2797   21.4027 C   0  0  2  0  0  0  0  0  0  0  0  0
    4.7327  -20.4189   21.9987 N   0  0  0  0  0  0  0  0  0  0  0  0
    4.9787  -18.0812   21.3979 C   0  0  0  0  0  0  0  0  0  0  0  0
    4.5494  -16.9933   20.8999 O   0  0  0  0  0  0  0  0  0  0  0  0
    6.2744  -18.1960   21.9529 N   0  0  0  0  0  0  0  0  0  0  0  0
    7.1441  -17.0720   22.0824 C   0  0  0  0  0  0  0  0  0  0  0  0
    8.4285  -17.4262   22.7768 C   0  0  0  0  0  0  0  0  0  0  0  0
    8.4734  -18.4160   23.5475 O   0  0  0  0  0  0  0  0  0  0  0  0
   12.3677  -16.3078   21.5268 O   0  0  0  0  0  0  0  0  0  0  0  0
   11.9284  -15.9125   22.8015 C   0  0  0  0  0  0  0  0  0  0  0  0
   10.8492  -16.8875   23.2380 C   0  0  2  0  0  0  0  0  0  0  0  0
    9.6047  -16.6615   22.5808 N   0  0  0  0  0  0  0  0  0  0  0  0
   10.7359  -16.9076   24.7181 C   0  0  0  0  0  0  0  0  0  0  0  0
   11.6426  -17.4950   25.4012 O   0  0  0  0  0  0  0  0  0  0  0  0
    9.6988  -16.3231   25.4034 O   0  0  0  0  0  0  0  0  0  0  0  0
  1  2  1  0
  2  3  2  0
  4  2  1  0
  4  5  1  0
  5  6  1  1
  7  8  2  0
  7  5  1  0
  9  7  1  0
 10 11  1  0
 10  9  1  0
 11 16  1  0
 12 11  2  0
 13 14  1  0
 15 14  1  1
 15 17  1  0
 16 15  1  0
 17 18  2  0
 17 19  1  0
M  END
$$$$
