NGS.pdb
     RDKit          3D

 19 18  0  0  1  0  0  0  0  0999 V2000
    6.0783  -13.7353   16.6272 N   0  0  0  0  0  0  0  0  0  0  0  0
    7.4861  -13.9177   16.3679 C   0  0  0  0  0  0  0  0  0  0  0  0
    7.8028  -14.8385   15.5904 O   0  0  0  0  0  0  0  0  0  0  0  0
    8.4355  -13.0201   17.0272 C   0  0  0  0  0  0  0  0  0  0  0  0
    9.4540  -13.7194   17.8791 C   0  0  2  0  0  0  0  0  0  0  0  0
   10.0837  -14.8375   17.2400 N   0  0  0  0  0  0  0  0  0  0  0  0
    8.8690  -14.0785   19.1983 C   0  0  0  0  0  0  0  0  0  0  0  0
    8.3763  -13.1651   19.9323 O   0  0  0  0  0  0  0  0  0  0  0  0
    8.8821  -15.4365   19.5926 N   0  0  0  0  0  0  0  0  0  0  0  0
    8.2564  -15.8809   20.7958 C   0  0  0  0  0  0  0  0  0  0  0  0
    9.0879  -15.5818   22.0110 C   0  0  0  0  0  0  0  0  0  0  0  0
   10.3117  -15.3313   21.8883 O   0  0  0  0  0  0  0  0  0  0  0  0
    7.1495  -15.0786   25.6262 O   0  0  0  0  0  0  0  0  0  0  0  0
    8.3958  -14.4466   25.4803 C   0  0  0  0  0  0  0  0  0  0  0  0
    9.2203  -15.2755   24.5112 C   0  0  2  0  0  0  0  0  0  0  0  0
    8.5178  -15.5754   23.3078 N   0  0  0  0  0  0  0  0  0  0  0  0
    9.7630  -16.4793   25.1895 C   0  0  0  0  0  0  0  0  0  0  0  0
    9.3820  -17.6353   24.7993 O   0  0  0  0  0  0  0  0  0  0  0  0
   10.6628  -16.4200   26.2257 O   0  0  0  0  0  0  0  0  0  0  0  0
  1  2  1  0
  2  3  2  0
  4  2  1  0
  4  5  1  0
  5  6  1  6
  7  8  2  0
  7  5  1  0
  9  7  1  0
 10 11  1  0
 10  9  1  0
 11 16  1  0
 12 11  2  0
 13 14  1  0
 15 14  1  1
 15 17  1  0
 16 15  1  0
 17 18  2  0
 17 19  1  0
M  END
$$$$
