NGS.pdb
     RDKit          3D

 19 18  0  0  1  0  0  0  0  0999 V2000
    6.6117  -13.4310   17.9757 N   0  0  0  0  0  0  0  0  0  0  0  0
    7.3304  -13.6873   16.7509 C   0  0  0  0  0  0  0  0  0  0  0  0
    6.8397  -13.2290   15.7012 O   0  0  0  0  0  0  0  0  0  0  0  0
    8.5720  -14.4589   16.8229 C   0  0  0  0  0  0  0  0  0  0  0  0
    8.9513  -14.8869   18.2104 C   0  0  2  0  0  0  0  0  0  0  0  0
    8.1898  -14.2540   19.2471 N   0  0  0  0  0  0  0  0  0  0  0  0
   10.4167  -14.7409   18.4163 C   0  0  0  0  0  0  0  0  0  0  0  0
   11.2200  -15.3009   17.6058 O   0  0  0  0  0  0  0  0  0  0  0  0
   10.8684  -13.9770   19.5174 N   0  0  0  0  0  0  0  0  0  0  0  0
   12.2561  -13.7564   19.7667 C   0  0  0  0  0  0  0  0  0  0  0  0
   12.9075  -14.9367   20.4300 C   0  0  0  0  0  0  0  0  0  0  0  0
   12.2102  -15.9125   20.8008 O   0  0  0  0  0  0  0  0  0  0  0  0
   16.9164  -14.6765   21.3604 O   0  0  0  0  0  0  0  0  0  0  0  0
   16.5148  -15.9768   21.0108 C   0  0  0  0  0  0  0  0  0  0  0  0
   15.0150  -16.0687   21.2297 C   0  0  2  0  0  0  0  0  0  0  0  0
   14.3063  -14.9763   20.6499 N   0  0  0  0  0  0  0  0  0  0  0  0
   14.7119  -16.2669   22.6694 C   0  0  0  0  0  0  0  0  0  0  0  0
   15.1854  -17.2929   23.2669 O   0  0  0  0  0  0  0  0  0  0  0  0
   13.9416  -15.3992   23.4046 O   0  0  0  0  0  0  0  0  0  0  0  0
  1  2  1  0
  2  3  2  0
  4  2  1  0
  4  5  1  0
  5  6  1  1
  7  8  2  0
  7  5  1  0
  9  7  1  0
 10 11  1  0
 10  9  1  0
 11 16  1  0
 12 11  2  0
 13 14  1  0
 15 14  1  1
 15 17  1  0
 16 15  1  0
 17 18  2  0
 17 19  1  0
M  END
$$$$
