NGS.pdb
     RDKit          3D

 19 18  0  0  1  0  0  0  0  0999 V2000
    7.4401  -22.9231   23.4846 N   0  0  0  0  0  0  0  0  0  0  0  0
    6.8654  -21.9166   22.6249 C   0  0  0  0  0  0  0  0  0  0  0  0
    6.9568  -22.1036   21.3963 O   0  0  0  0  0  0  0  0  0  0  0  0
    6.2217  -20.7582   23.2460 C   0  0  0  0  0  0  0  0  0  0  0  0
    6.8140  -19.4380   22.8482 C   0  0  2  0  0  0  0  0  0  0  0  0
    8.2461  -19.4347   22.7826 N   0  0  0  0  0  0  0  0  0  0  0  0
    6.2855  -18.3501   23.7133 C   0  0  0  0  0  0  0  0  0  0  0  0
    5.0336  -18.2670   23.9171 O   0  0  0  0  0  0  0  0  0  0  0  0
    7.2037  -17.4381   24.2836 N   0  0  0  0  0  0  0  0  0  0  0  0
    6.7798  -16.3573   25.1134 C   0  0  0  0  0  0  0  0  0  0  0  0
    7.9396  -15.5775   25.6650 C   0  0  0  0  0  0  0  0  0  0  0  0
    9.1152  -15.9485   25.4280 O   0  0  0  0  0  0  0  0  0  0  0  0
    7.2992  -11.8328   26.7159 O   0  0  0  0  0  0  0  0  0  0  0  0
    8.2696  -12.3220   27.6066 C   0  0  0  0  0  0  0  0  0  0  0  0
    8.7716  -13.6456   27.0570 C   0  0  2  0  0  0  0  0  0  0  0  0
    7.7369  -14.4197   26.4556 N   0  0  0  0  0  0  0  0  0  0  0  0
    9.5289  -14.3857   28.0975 C   0  0  0  0  0  0  0  0  0  0  0  0
   10.5265  -13.8178   28.6598 O   0  0  0  0  0  0  0  0  0  0  0  0
    9.2141  -15.6622   28.4950 O   0  0  0  0  0  0  0  0  0  0  0  0
  1  2  1  0
  2  3  2  0
  4  2  1  0
  4  5  1  0
  5  6  1  1
  7  8  2  0
  7  5  1  0
  9  7  1  0
 10 11  1  0
 10  9  1  0
 11 16  1  0
 12 11  2  0
 13 14  1  0
 15 14  1  1
 15 17  1  0
 16 15  1  0
 17 18  2  0
 17 19  1  0
M  END
$$$$
