NGS.pdb
     RDKit          3D

 19 18  0  0  1  0  0  0  0  0999 V2000
   14.6361  -21.6557   22.2983 N   0  0  0  0  0  0  0  0  0  0  0  0
   13.4550  -22.2247   22.9014 C   0  0  0  0  0  0  0  0  0  0  0  0
   12.5421  -22.5795   22.1310 O   0  0  0  0  0  0  0  0  0  0  0  0
   13.4091  -22.3452   24.3592 C   0  0  0  0  0  0  0  0  0  0  0  0
   13.9052  -23.6606   24.8841 C   0  0  2  0  0  0  0  0  0  0  0  0
   13.1584  -24.7942   24.4230 N   0  0  0  0  0  0  0  0  0  0  0  0
   14.0134  -23.6205   26.3667 C   0  0  0  0  0  0  0  0  0  0  0  0
   15.0981  -23.2317   26.9033 O   0  0  0  0  0  0  0  0  0  0  0  0
   12.8946  -24.0204   27.1338 N   0  0  0  0  0  0  0  0  0  0  0  0
   12.8858  -23.9378   28.5585 C   0  0  0  0  0  0  0  0  0  0  0  0
   12.5921  -22.5465   29.0438 C   0  0  0  0  0  0  0  0  0  0  0  0
   13.0497  -21.5555   28.4239 O   0  0  0  0  0  0  0  0  0  0  0  0
    9.3252  -21.2333   29.7600 O   0  0  0  0  0  0  0  0  0  0  0  0
    9.9768  -20.8694   30.9505 C   0  0  0  0  0  0  0  0  0  0  0  0
   11.4690  -21.0421   30.7284 C   0  0  2  0  0  0  0  0  0  0  0  0
   11.8019  -22.3226   30.1979 N   0  0  0  0  0  0  0  0  0  0  0  0
   12.2199  -20.7056   31.9641 C   0  0  0  0  0  0  0  0  0  0  0  0
   12.9426  -21.6047   32.5145 O   0  0  0  0  0  0  0  0  0  0  0  0
   12.1811  -19.4669   32.5566 O   0  0  0  0  0  0  0  0  0  0  0  0
  1  2  1  0
  2  3  2  0
  4  2  1  0
  4  5  1  0
  5  6  1  1
  7  8  2  0
  7  5  1  0
  9  7  1  0
 10 11  1  0
 10  9  1  0
 11 16  1  0
 12 11  2  0
 13 14  1  0
 15 14  1  1
 15 17  1  0
 16 15  1  0
 17 18  2  0
 17 19  1  0
M  END
$$$$
