NGS.pdb
     RDKit          3D

 19 18  0  0  1  0  0  0  0  0999 V2000
    9.8001  -19.3333   18.3144 N   0  0  0  0  0  0  0  0  0  0  0  0
    9.3819  -18.9761   19.6486 C   0  0  0  0  0  0  0  0  0  0  0  0
    9.9095  -19.5970   20.5914 O   0  0  0  0  0  0  0  0  0  0  0  0
    8.3787  -17.9218   19.8028 C   0  0  0  0  0  0  0  0  0  0  0  0
    8.9464  -16.5790   20.1588 C   0  0  2  0  0  0  0  0  0  0  0  0
   10.1708  -16.6394   20.9021 N   0  0  0  0  0  0  0  0  0  0  0  0
    7.9177  -15.7423   20.8317 C   0  0  0  0  0  0  0  0  0  0  0  0
    6.8188  -15.5062   20.2379 O   0  0  0  0  0  0  0  0  0  0  0  0
    8.2017  -15.2342   22.1206 N   0  0  0  0  0  0  0  0  0  0  0  0
    7.2340  -14.5082   22.8776 C   0  0  0  0  0  0  0  0  0  0  0  0
    7.7850  -14.0288   24.1906 C   0  0  0  0  0  0  0  0  0  0  0  0
    8.9666  -14.3030   24.5135 O   0  0  0  0  0  0  0  0  0  0  0  0
    5.2924  -12.3018   27.0694 O   0  0  0  0  0  0  0  0  0  0  0  0
    6.4816  -11.6003   26.8087 C   0  0  0  0  0  0  0  0  0  0  0  0
    7.4833  -12.5899   26.2403 C   0  0  2  0  0  0  0  0  0  0  0  0
    6.9942  -13.2655   25.0843 N   0  0  0  0  0  0  0  0  0  0  0  0
    7.9605  -13.5124   27.3011 C   0  0  0  0  0  0  0  0  0  0  0  0
    7.6441  -14.7491   27.2355 O   0  0  0  0  0  0  0  0  0  0  0  0
    8.7326  -13.1067   28.3623 O   0  0  0  0  0  0  0  0  0  0  0  0
  1  2  1  0
  2  3  2  0
  4  2  1  0
  4  5  1  0
  5  6  1  1
  7  8  2  0
  7  5  1  0
  9  7  1  0
 10 11  1  0
 10  9  1  0
 11 16  1  0
 12 11  2  0
 13 14  1  0
 15 14  1  1
 15 17  1  0
 16 15  1  0
 17 18  2  0
 17 19  1  0
M  END
$$$$
