NGS.pdb
     RDKit          3D

 19 18  0  0  1  0  0  0  0  0999 V2000
    9.0725  -14.3780   16.4824 N   0  0  0  0  0  0  0  0  0  0  0  0
    7.7169  -13.9132   16.3136 C   0  0  0  0  0  0  0  0  0  0  0  0
    7.1831  -14.1180   15.2064 O   0  0  0  0  0  0  0  0  0  0  0  0
    7.0680  -13.2409   17.4400 C   0  0  0  0  0  0  0  0  0  0  0  0
    7.9046  -13.1778   18.6842 C   0  0  2  0  0  0  0  0  0  0  0  0
    9.2071  -12.6128   18.4859 N   0  0  0  0  0  0  0  0  0  0  0  0
    7.9610  -14.5112   19.3400 C   0  0  0  0  0  0  0  0  0  0  0  0
    6.8947  -15.0243   19.8043 O   0  0  0  0  0  0  0  0  0  0  0  0
    9.2112  -15.1669   19.4245 N   0  0  0  0  0  0  0  0  0  0  0  0
    9.3580  -16.4368   20.0589 C   0  0  0  0  0  0  0  0  0  0  0  0
   10.7505  -16.6522   20.5804 C   0  0  0  0  0  0  0  0  0  0  0  0
   11.0866  -17.7758   21.0280 O   0  0  0  0  0  0  0  0  0  0  0  0
   13.8405  -14.5730   19.0207 O   0  0  0  0  0  0  0  0  0  0  0  0
   13.9338  -14.5967   20.4225 C   0  0  0  0  0  0  0  0  0  0  0  0
   13.0819  -15.7511   20.9199 C   0  0  2  0  0  0  0  0  0  0  0  0
   11.7054  -15.6058   20.5796 N   0  0  0  0  0  0  0  0  0  0  0  0
   13.3074  -15.9753   22.3700 C   0  0  0  0  0  0  0  0  0  0  0  0
   12.3139  -15.8999   23.1707 O   0  0  0  0  0  0  0  0  0  0  0  0
   14.5388  -16.2628   22.9064 O   0  0  0  0  0  0  0  0  0  0  0  0
  1  2  1  0
  2  3  2  0
  4  2  1  0
  4  5  1  0
  5  6  1  6
  7  8  2  0
  7  5  1  0
  9  7  1  0
 10 11  1  0
 10  9  1  0
 11 16  1  0
 12 11  2  0
 13 14  1  0
 15 14  1  1
 15 17  1  0
 16 15  1  0
 17 18  2  0
 17 19  1  0
M  END
$$$$
