TSP.pdb
     RDKit          3D

 21 21  0  0  1  0  0  0  0  0999 V2000
   10.9554  -14.5510   21.0101 C   0  0  0  0  0  0  0  0  0  0  0  0
   10.4651  -13.5868   19.9511 C   0  0  1  0  0  0  0  0  0  0  0  0
   11.1738  -13.8571   18.7819 O   0  0  0  0  0  0  0  0  0  0  0  0
    9.0067  -13.8639   19.6816 C   0  0  2  0  0  0  0  0  0  0  0  0
    8.6017  -12.9862   18.5984 N   0  0  0  0  0  0  0  0  0  0  0  0
    8.1554  -13.7112   20.8610 C   0  0  0  0  0  0  0  0  0  0  0  0
    7.7589  -12.5447   21.1618 O   0  0  0  0  0  0  0  0  0  0  0  0
    7.1572  -17.1052   23.0769 O   0  0  0  0  0  0  0  0  0  0  0  0
    6.2483  -16.0805   22.8756 C   0  0  0  0  0  0  0  0  0  0  0  0
    7.0040  -14.7711   22.8332 C   0  0  2  0  0  0  0  0  0  0  0  0
    7.8018  -14.8505   21.6237 N   0  0  0  0  0  0  0  0  0  0  0  0
    7.8337  -14.4798   23.9993 C   0  0  0  0  0  0  0  0  0  0  0  0
    9.0962  -14.6377   23.8005 O   0  0  0  0  0  0  0  0  0  0  0  0
    7.4457  -14.0593   25.2752 N   0  0  0  0  0  0  0  0  0  0  0  0
    6.1580  -13.8693   25.9128 C   0  0  0  0  0  0  0  0  0  0  0  0
    6.3615  -12.7170   26.9073 C   0  0  0  0  0  0  0  0  0  0  0  0
    7.8261  -12.3557   26.7780 C   0  0  0  0  0  0  0  0  0  0  0  0
    8.3838  -13.6931   26.3458 C   0  0  1  0  0  0  0  0  0  0  0  0
    8.3967  -14.6834   27.4214 C   0  0  0  0  0  0  0  0  0  0  0  0
    9.1568  -14.6234   28.4159 O   0  0  0  0  0  0  0  0  0  0  0  0
    7.5145  -15.7510   27.3329 O   0  0  0  0  0  0  0  0  0  0  0  0
  2  4  1  0
  2  1  1  1
  3  2  1  0
  4  5  1  6
  6  4  1  0
  6 11  1  0
  7  6  2  0
  9  8  1  0
 10 12  1  0
 10 11  1  0
 10  9  1  1
 12 14  1  0
 13 12  2  0
 14 15  1  0
 14 18  1  0
 15 16  1  0
 17 16  1  0
 17 18  1  0
 18 19  1  1
 19 20  2  0
 19 21  1  0
M  END
$$$$
