TSP.pdb
     RDKit          3D

 21 21  0  0  1  0  0  0  0  0999 V2000
   10.6731  -18.8500   17.6977 C   0  0  0  0  0  0  0  0  0  0  0  0
   10.3450  -18.4352   16.2793 C   0  0  1  0  0  0  0  0  0  0  0  0
   10.8569  -19.4146   15.4302 O   0  0  0  0  0  0  0  0  0  0  0  0
    8.8453  -18.4186   16.1141 C   0  0  2  0  0  0  0  0  0  0  0  0
    8.5768  -18.2036   14.7036 N   0  0  0  0  0  0  0  0  0  0  0  0
    8.1755  -17.4302   16.9586 C   0  0  0  0  0  0  0  0  0  0  0  0
    8.1074  -16.2358   16.5375 O   0  0  0  0  0  0  0  0  0  0  0  0
    6.4931  -18.7370   20.4863 O   0  0  0  0  0  0  0  0  0  0  0  0
    5.9060  -17.6965   19.7870 C   0  0  0  0  0  0  0  0  0  0  0  0
    6.9982  -16.8921   19.1181 C   0  0  2  0  0  0  0  0  0  0  0  0
    7.6293  -17.8255   18.2037 N   0  0  0  0  0  0  0  0  0  0  0  0
    7.9766  -16.2826   20.0149 C   0  0  0  0  0  0  0  0  0  0  0  0
    9.1349  -16.8449   19.9917 O   0  0  0  0  0  0  0  0  0  0  0  0
    7.8245  -15.1911   20.8756 N   0  0  0  0  0  0  0  0  0  0  0  0
    6.6781  -14.4198   21.3133 C   0  0  0  0  0  0  0  0  0  0  0  0
    7.2094  -12.9985   21.5503 C   0  0  0  0  0  0  0  0  0  0  0  0
    8.6912  -13.0908   21.2537 C   0  0  0  0  0  0  0  0  0  0  0  0
    8.9316  -14.5444   21.5941 C   0  0  1  0  0  0  0  0  0  0  0  0
    8.8798  -14.8128   23.0304 C   0  0  0  0  0  0  0  0  0  0  0  0
    7.9278  -15.3987   23.5968 O   0  0  0  0  0  0  0  0  0  0  0  0
    9.9489  -14.3931   23.8093 O   0  0  0  0  0  0  0  0  0  0  0  0
  2  4  1  0
  2  1  1  1
  3  2  1  0
  4  5  1  6
  6  4  1  0
  6 11  1  0
  7  6  2  0
  9  8  1  0
 10 12  1  0
 10 11  1  0
 10  9  1  1
 12 14  1  0
 13 12  2  0
 14 15  1  0
 14 18  1  0
 15 16  1  0
 17 16  1  0
 17 18  1  0
 18 19  1  1
 19 20  2  0
 19 21  1  0
M  END
$$$$
