TSP.pdb
     RDKit          3D

 21 21  0  0  1  0  0  0  0  0999 V2000
   11.5046  -16.6795   21.7016 C   0  0  0  0  0  0  0  0  0  0  0  0
   10.7287  -16.2759   20.4660 C   0  0  1  0  0  0  0  0  0  0  0  0
   11.2178  -17.0316   19.4021 O   0  0  0  0  0  0  0  0  0  0  0  0
    9.2783  -16.6416   20.6640 C   0  0  2  0  0  0  0  0  0  0  0  0
    8.6073  -16.4144   19.3967 N   0  0  0  0  0  0  0  0  0  0  0  0
    8.6384  -15.9191   21.7627 C   0  0  0  0  0  0  0  0  0  0  0  0
    8.3924  -14.6855   21.6005 O   0  0  0  0  0  0  0  0  0  0  0  0
    7.3485  -18.0637   25.0877 O   0  0  0  0  0  0  0  0  0  0  0  0
    6.6545  -16.9841   24.5688 C   0  0  0  0  0  0  0  0  0  0  0  0
    7.6554  -15.9609   24.0802 C   0  0  2  0  0  0  0  0  0  0  0  0
    8.3151  -16.6040   22.9590 N   0  0  0  0  0  0  0  0  0  0  0  0
    8.6226  -15.4966   25.0711 C   0  0  0  0  0  0  0  0  0  0  0  0
    9.8305  -15.8853   24.8511 O   0  0  0  0  0  0  0  0  0  0  0  0
    8.4141  -14.7011   26.2021 N   0  0  0  0  0  0  0  0  0  0  0  0
    7.2283  -14.1514   26.8285 C   0  0  0  0  0  0  0  0  0  0  0  0
    7.6779  -12.8254   27.4593 C   0  0  0  0  0  0  0  0  0  0  0  0
    9.1602  -12.7446   27.1618 C   0  0  0  0  0  0  0  0  0  0  0  0
    9.4874  -14.2189   27.0829 C   0  0  1  0  0  0  0  0  0  0  0  0
    9.4626  -14.8820   28.3857 C   0  0  0  0  0  0  0  0  0  0  0  0
    8.5644  -15.6779   28.7464 O   0  0  0  0  0  0  0  0  0  0  0  0
   10.4955  -14.6122   29.2723 O   0  0  0  0  0  0  0  0  0  0  0  0
  2  4  1  0
  2  1  1  1
  3  2  1  0
  4  5  1  6
  6  4  1  0
  6 11  1  0
  7  6  2  0
  9  8  1  0
 10 12  1  0
 10 11  1  0
 10  9  1  1
 12 14  1  0
 13 12  2  0
 14 15  1  0
 14 18  1  0
 15 16  1  0
 17 16  1  0
 17 18  1  0
 18 19  1  1
 19 20  2  0
 19 21  1  0
M  END
$$$$
