TSP.pdb
     RDKit          3D

 21 21  0  0  1  0  0  0  0  0999 V2000
   10.9952  -14.7348   20.6225 C   0  0  0  0  0  0  0  0  0  0  0  0
   10.5189  -13.6467   19.6839 C   0  0  1  0  0  0  0  0  0  0  0  0
   11.0726  -13.9057   18.4315 O   0  0  0  0  0  0  0  0  0  0  0  0
    9.0187  -13.7413   19.5542 C   0  0  2  0  0  0  0  0  0  0  0  0
    8.6153  -12.7526   18.5705 N   0  0  0  0  0  0  0  0  0  0  0  0
    8.3110  -13.5754   20.8232 C   0  0  0  0  0  0  0  0  0  0  0  0
    8.0938  -12.3952   21.2338 O   0  0  0  0  0  0  0  0  0  0  0  0
    7.0171  -16.9752   22.9653 O   0  0  0  0  0  0  0  0  0  0  0  0
    6.2143  -15.8792   22.6993 C   0  0  0  0  0  0  0  0  0  0  0  0
    7.0727  -14.6346   22.7424 C   0  0  2  0  0  0  0  0  0  0  0  0
    7.8935  -14.7174   21.5486 N   0  0  0  0  0  0  0  0  0  0  0  0
    7.8916  -14.4703   23.9404 C   0  0  0  0  0  0  0  0  0  0  0  0
    9.1456  -14.6993   23.7571 O   0  0  0  0  0  0  0  0  0  0  0  0
    7.5016  -14.1032   25.2321 N   0  0  0  0  0  0  0  0  0  0  0  0
    6.2137  -13.8762   25.8571 C   0  0  0  0  0  0  0  0  0  0  0  0
    6.4618  -12.7977   26.9219 C   0  0  0  0  0  0  0  0  0  0  0  0
    7.9470  -12.5154   26.8401 C   0  0  0  0  0  0  0  0  0  0  0  0
    8.4364  -13.8556   26.3389 C   0  0  1  0  0  0  0  0  0  0  0  0
    8.3701  -14.9060   27.3537 C   0  0  0  0  0  0  0  0  0  0  0  0
    7.5000  -15.8076   27.3688 O   0  0  0  0  0  0  0  0  0  0  0  0
    9.3283  -14.9016   28.3575 O   0  0  0  0  0  0  0  0  0  0  0  0
  2  4  1  0
  2  1  1  1
  3  2  1  0
  4  5  1  6
  6  4  1  0
  6 11  1  0
  7  6  2  0
  9  8  1  0
 10 12  1  0
 10 11  1  0
 10  9  1  1
 12 14  1  0
 13 12  2  0
 14 15  1  0
 14 18  1  0
 15 16  1  0
 17 16  1  0
 17 18  1  0
 18 19  1  1
 19 20  2  0
 19 21  1  0
M  END
$$$$
