TSP.pdb
     RDKit          3D

 21 21  0  0  1  0  0  0  0  0999 V2000
   10.4030  -14.7902   18.4086 C   0  0  0  0  0  0  0  0  0  0  0  0
    9.8717  -14.5604   19.8075 C   0  0  1  0  0  0  0  0  0  0  0  0
   10.5989  -13.5084   20.3613 O   0  0  0  0  0  0  0  0  0  0  0  0
    8.4300  -14.1259   19.7128 C   0  0  2  0  0  0  0  0  0  0  0  0
    8.4056  -12.9080   18.9229 N   0  0  0  0  0  0  0  0  0  0  0  0
    7.7859  -13.9507   21.0140 C   0  0  0  0  0  0  0  0  0  0  0  0
    7.6598  -12.7708   21.4617 O   0  0  0  0  0  0  0  0  0  0  0  0
    6.7140  -17.3275   23.2983 O   0  0  0  0  0  0  0  0  0  0  0  0
    5.8646  -16.2452   23.1445 C   0  0  0  0  0  0  0  0  0  0  0  0
    6.7020  -14.9905   23.0346 C   0  0  2  0  0  0  0  0  0  0  0  0
    7.3273  -15.0839   21.7284 N   0  0  0  0  0  0  0  0  0  0  0  0
    7.6958  -14.7973   24.0872 C   0  0  0  0  0  0  0  0  0  0  0  0
    8.9072  -15.0304   23.7176 O   0  0  0  0  0  0  0  0  0  0  0  0
    7.5089  -14.3992   25.4146 N   0  0  0  0  0  0  0  0  0  0  0  0
    6.3327  -14.1803   26.2327 C   0  0  0  0  0  0  0  0  0  0  0  0
    6.7208  -13.0649   27.2144 C   0  0  0  0  0  0  0  0  0  0  0  0
    8.1659  -12.7541   26.8868 C   0  0  0  0  0  0  0  0  0  0  0  0
    8.6026  -14.0984   26.3493 C   0  0  1  0  0  0  0  0  0  0  0  0
    8.7270  -15.1186   27.3892 C   0  0  0  0  0  0  0  0  0  0  0  0
    7.9156  -16.0611   27.5424 O   0  0  0  0  0  0  0  0  0  0  0  0
    9.8079  -15.0355   28.2555 O   0  0  0  0  0  0  0  0  0  0  0  0
  2  4  1  0
  2  1  1  6
  3  2  1  0
  4  5  1  1
  6  4  1  0
  6 11  1  0
  7  6  2  0
  9  8  1  0
 10 12  1  0
 10 11  1  0
 10  9  1  1
 12 14  1  0
 13 12  2  0
 14 15  1  0
 14 18  1  0
 15 16  1  0
 17 16  1  0
 17 18  1  0
 18 19  1  1
 19 20  2  0
 19 21  1  0
M  END
$$$$
