TSP.pdb
     RDKit          3D

 21 21  0  0  1  0  0  0  0  0999 V2000
   10.5069  -15.7474   21.2095 C   0  0  0  0  0  0  0  0  0  0  0  0
    9.5454  -14.8066   20.5150 C   0  0  1  0  0  0  0  0  0  0  0  0
    9.5459  -15.1361   19.1608 O   0  0  0  0  0  0  0  0  0  0  0  0
    8.1561  -15.0524   21.0497 C   0  0  2  0  0  0  0  0  0  0  0  0
    7.2408  -14.2954   20.2148 N   0  0  0  0  0  0  0  0  0  0  0  0
    8.0088  -14.7227   22.4668 C   0  0  0  0  0  0  0  0  0  0  0  0
    7.8990  -13.5000   22.7852 O   0  0  0  0  0  0  0  0  0  0  0  0
    7.1505  -17.7409   25.3645 O   0  0  0  0  0  0  0  0  0  0  0  0
    6.6075  -16.4811   25.1785 C   0  0  0  0  0  0  0  0  0  0  0  0
    7.7266  -15.5225   24.8374 C   0  0  2  0  0  0  0  0  0  0  0  0
    7.9926  -15.7597   23.4307 N   0  0  0  0  0  0  0  0  0  0  0  0
    8.9410  -15.6549   25.6379 C   0  0  0  0  0  0  0  0  0  0  0  0
    9.9194  -16.2216   25.0214 O   0  0  0  0  0  0  0  0  0  0  0  0
    9.1763  -15.2542   26.9567 N   0  0  0  0  0  0  0  0  0  0  0  0
    8.3360  -14.6784   27.9878 C   0  0  0  0  0  0  0  0  0  0  0  0
    9.2667  -13.7838   28.8197 C   0  0  0  0  0  0  0  0  0  0  0  0
   10.6318  -13.9635   28.1900 C   0  0  0  0  0  0  0  0  0  0  0  0
   10.4765  -15.3610   27.6337 C   0  0  1  0  0  0  0  0  0  0  0  0
   10.4684  -16.3927   28.6697 C   0  0  0  0  0  0  0  0  0  0  0  0
    9.4482  -17.0404   29.0014 O   0  0  0  0  0  0  0  0  0  0  0  0
   11.6618  -16.6684   29.3221 O   0  0  0  0  0  0  0  0  0  0  0  0
  2  4  1  0
  2  1  1  1
  3  2  1  0
  4  5  1  6
  6  4  1  0
  6 11  1  0
  7  6  2  0
  9  8  1  0
 10 12  1  0
 10 11  1  0
 10  9  1  1
 12 14  1  0
 13 12  2  0
 14 15  1  0
 14 18  1  0
 15 16  1  0
 17 16  1  0
 17 18  1  0
 18 19  1  1
 19 20  2  0
 19 21  1  0
M  END
$$$$
