TSP.pdb
     RDKit          3D

 21 21  0  0  1  0  0  0  0  0999 V2000
    8.8016  -12.4027   20.1588 C   0  0  0  0  0  0  0  0  0  0  0  0
    8.2907  -13.3736   19.1157 C   0  0  1  0  0  0  0  0  0  0  0  0
    9.1502  -13.2989   18.0212 O   0  0  0  0  0  0  0  0  0  0  0  0
    8.3745  -14.7728   19.6741 C   0  0  2  0  0  0  0  0  0  0  0  0
    8.0388  -15.6813   18.5926 N   0  0  0  0  0  0  0  0  0  0  0  0
    7.5323  -14.9834   20.8510 C   0  0  0  0  0  0  0  0  0  0  0  0
    6.3347  -15.3580   20.6666 O   0  0  0  0  0  0  0  0  0  0  0  0
    6.4934  -17.0321   24.4061 O   0  0  0  0  0  0  0  0  0  0  0  0
    7.0453  -16.5831   23.2185 C   0  0  0  0  0  0  0  0  0  0  0  0
    7.3496  -15.1082   23.3590 C   0  0  2  0  0  0  0  0  0  0  0  0
    8.0667  -14.7675   22.1443 N   0  0  0  0  0  0  0  0  0  0  0  0
    8.1071  -14.7275   24.5482 C   0  0  0  0  0  0  0  0  0  0  0  0
    9.3809  -14.8777   24.4322 O   0  0  0  0  0  0  0  0  0  0  0  0
    7.6412  -14.2303   25.7692 N   0  0  0  0  0  0  0  0  0  0  0  0
    6.3171  -14.0414   26.3278 C   0  0  0  0  0  0  0  0  0  0  0  0
    6.4323  -12.8137   27.2433 C   0  0  0  0  0  0  0  0  0  0  0  0
    7.8891  -12.4102   27.1588 C   0  0  0  0  0  0  0  0  0  0  0  0
    8.5111  -13.7544   26.8541 C   0  0  1  0  0  0  0  0  0  0  0  0
    8.5012  -14.6634   27.9993 C   0  0  0  0  0  0  0  0  0  0  0  0
    9.1724  -14.4801   29.0414 O   0  0  0  0  0  0  0  0  0  0  0  0
    7.7004  -15.7944   27.9246 O   0  0  0  0  0  0  0  0  0  0  0  0
  2  4  1  0
  2  1  1  1
  3  2  1  0
  4  5  1  6
  6  4  1  0
  6 11  1  0
  7  6  2  0
  9  8  1  0
 10 12  1  0
 10 11  1  0
 10  9  1  1
 12 14  1  0
 13 12  2  0
 14 15  1  0
 14 18  1  0
 15 16  1  0
 17 16  1  0
 17 18  1  0
 18 19  1  1
 19 20  2  0
 19 21  1  0
M  END
$$$$
