TSP.pdb
     RDKit          3D

 21 21  0  0  1  0  0  0  0  0999 V2000
    9.6821  -14.6890   18.6785 C   0  0  0  0  0  0  0  0  0  0  0  0
    9.5185  -14.5899   20.1802 C   0  0  1  0  0  0  0  0  0  0  0  0
   10.1704  -13.4298   20.5943 O   0  0  0  0  0  0  0  0  0  0  0  0
    8.0519  -14.4343   20.4985 C   0  0  2  0  0  0  0  0  0  0  0  0
    7.5940  -13.2395   19.8125 N   0  0  0  0  0  0  0  0  0  0  0  0
    7.7669  -14.3889   21.9322 C   0  0  0  0  0  0  0  0  0  0  0  0
    7.5543  -13.2561   22.4613 O   0  0  0  0  0  0  0  0  0  0  0  0
    6.4910  -17.1029   25.6599 O   0  0  0  0  0  0  0  0  0  0  0  0
    6.6659  -16.9023   24.3013 C   0  0  0  0  0  0  0  0  0  0  0  0
    7.4516  -15.6253   24.1026 C   0  0  2  0  0  0  0  0  0  0  0  0
    7.7360  -15.5908   22.6801 N   0  0  0  0  0  0  0  0  0  0  0  0
    8.6740  -15.5035   24.8924 C   0  0  0  0  0  0  0  0  0  0  0  0
    9.7347  -15.9147   24.2887 O   0  0  0  0  0  0  0  0  0  0  0  0
    8.8407  -15.0082   26.1894 N   0  0  0  0  0  0  0  0  0  0  0  0
    7.9223  -14.4883   27.1828 C   0  0  0  0  0  0  0  0  0  0  0  0
    8.7240  -13.4425   27.9715 C   0  0  0  0  0  0  0  0  0  0  0  0
   10.1088  -13.4836   27.3610 C   0  0  0  0  0  0  0  0  0  0  0  0
   10.1352  -14.9167   26.8794 C   0  0  1  0  0  0  0  0  0  0  0  0
   10.2417  -15.8858   27.9690 C   0  0  0  0  0  0  0  0  0  0  0  0
    9.3127  -16.6527   28.3139 O   0  0  0  0  0  0  0  0  0  0  0  0
   11.4431  -15.9578   28.6599 O   0  0  0  0  0  0  0  0  0  0  0  0
  2  4  1  0
  2  1  1  6
  3  2  1  0
  4  5  1  6
  6  4  1  0
  6 11  1  0
  7  6  2  0
  9  8  1  0
 10 12  1  0
 10 11  1  0
 10  9  1  6
 12 14  1  0
 13 12  2  0
 14 15  1  0
 14 18  1  0
 15 16  1  0
 17 16  1  0
 17 18  1  0
 18 19  1  1
 19 20  2  0
 19 21  1  0
M  END
$$$$
