TSP.pdb
     RDKit          3D

 21 21  0  0  1  0  0  0  0  0999 V2000
    9.1769  -12.6901   20.2550 C   0  0  0  0  0  0  0  0  0  0  0  0
    8.4543  -13.4310   19.1503 C   0  0  1  0  0  0  0  0  0  0  0  0
    9.3313  -13.5286   18.0717 O   0  0  0  0  0  0  0  0  0  0  0  0
    8.1485  -14.8302   19.6250 C   0  0  2  0  0  0  0  0  0  0  0  0
    7.5488  -15.5355   18.5066 N   0  0  0  0  0  0  0  0  0  0  0  0
    7.3034  -14.8707   20.8178 C   0  0  0  0  0  0  0  0  0  0  0  0
    6.0539  -15.0181   20.6574 O   0  0  0  0  0  0  0  0  0  0  0  0
    7.7117  -17.1908   23.6486 O   0  0  0  0  0  0  0  0  0  0  0  0
    6.6667  -16.3645   23.2720 C   0  0  0  0  0  0  0  0  0  0  0  0
    7.1446  -14.9307   23.3298 C   0  0  2  0  0  0  0  0  0  0  0  0
    7.8919  -14.7466   22.0996 N   0  0  0  0  0  0  0  0  0  0  0  0
    7.9471  -14.5764   24.4975 C   0  0  0  0  0  0  0  0  0  0  0  0
    9.2184  -14.6449   24.3038 O   0  0  0  0  0  0  0  0  0  0  0  0
    7.5253  -14.1794   25.7702 N   0  0  0  0  0  0  0  0  0  0  0  0
    6.2372  -14.1691   26.4346 C   0  0  0  0  0  0  0  0  0  0  0  0
    6.2810  -12.9675   27.3901 C   0  0  0  0  0  0  0  0  0  0  0  0
    7.6692  -12.3898   27.2131 C   0  0  0  0  0  0  0  0  0  0  0  0
    8.4176  -13.6390   26.8056 C   0  0  1  0  0  0  0  0  0  0  0  0
    8.6056  -14.5801   27.9086 C   0  0  0  0  0  0  0  0  0  0  0  0
    7.9616  -15.6480   28.0320 O   0  0  0  0  0  0  0  0  0  0  0  0
    9.5532  -14.2697   28.8738 O   0  0  0  0  0  0  0  0  0  0  0  0
  2  4  1  0
  2  1  1  1
  3  2  1  0
  4  5  1  6
  6  4  1  0
  6 11  1  0
  7  6  2  0
  9  8  1  0
 10 12  1  0
 10 11  1  0
 10  9  1  1
 12 14  1  0
 13 12  2  0
 14 15  1  0
 14 18  1  0
 15 16  1  0
 17 16  1  0
 17 18  1  0
 18 19  1  1
 19 20  2  0
 19 21  1  0
M  END
$$$$
