TSP.pdb
     RDKit          3D

 21 21  0  0  1  0  0  0  0  0999 V2000
   10.7650  -14.5412   18.7060 C   0  0  0  0  0  0  0  0  0  0  0  0
   10.0854  -14.3739   20.0484 C   0  0  1  0  0  0  0  0  0  0  0  0
   10.6470  -13.2562   20.6628 O   0  0  0  0  0  0  0  0  0  0  0  0
    8.6220  -14.0879   19.8180 C   0  0  2  0  0  0  0  0  0  0  0  0
    8.5485  -12.9083   18.9747 N   0  0  0  0  0  0  0  0  0  0  0  0
    7.8561  -13.9292   21.0538 C   0  0  0  0  0  0  0  0  0  0  0  0
    7.5493  -12.7535   21.4172 O   0  0  0  0  0  0  0  0  0  0  0  0
    6.9368  -17.2793   23.5979 O   0  0  0  0  0  0  0  0  0  0  0  0
    6.0471  -16.3016   23.1866 C   0  0  0  0  0  0  0  0  0  0  0  0
    6.7936  -14.9910   23.0743 C   0  0  2  0  0  0  0  0  0  0  0  0
    7.4831  -15.0732   21.8001 N   0  0  0  0  0  0  0  0  0  0  0  0
    7.7211  -14.6943   24.1627 C   0  0  0  0  0  0  0  0  0  0  0  0
    8.9619  -14.8507   23.8552 O   0  0  0  0  0  0  0  0  0  0  0  0
    7.4450  -14.2700   25.4661 N   0  0  0  0  0  0  0  0  0  0  0  0
    6.2212  -14.1309   26.2302 C   0  0  0  0  0  0  0  0  0  0  0  0
    6.4675  -12.9523   27.1835 C   0  0  0  0  0  0  0  0  0  0  0  0
    7.8913  -12.5230   26.8994 C   0  0  0  0  0  0  0  0  0  0  0  0
    8.4681  -13.8396   26.4297 C   0  0  1  0  0  0  0  0  0  0  0  0
    8.6402  -14.8084   27.5111 C   0  0  0  0  0  0  0  0  0  0  0  0
    9.4477  -14.6610   28.4579 O   0  0  0  0  0  0  0  0  0  0  0  0
    7.8623  -15.9574   27.4845 O   0  0  0  0  0  0  0  0  0  0  0  0
  2  4  1  0
  2  1  1  6
  3  2  1  0
  4  5  1  6
  6  4  1  0
  6 11  1  0
  7  6  2  0
  9  8  1  0
 10 12  1  0
 10 11  1  0
 10  9  1  1
 12 14  1  0
 13 12  2  0
 14 15  1  0
 14 18  1  0
 15 16  1  0
 17 16  1  0
 17 18  1  0
 18 19  1  1
 19 20  2  0
 19 21  1  0
M  END
$$$$
