TSP.pdb
     RDKit          3D

 21 21  0  0  1  0  0  0  0  0999 V2000
    9.5891  -19.8772   14.9686 C   0  0  0  0  0  0  0  0  0  0  0  0
    8.9779  -18.8559   15.9040 C   0  0  1  0  0  0  0  0  0  0  0  0
    8.5227  -17.7956   15.1225 O   0  0  0  0  0  0  0  0  0  0  0  0
    7.7818  -19.4759   16.5833 C   0  0  2  0  0  0  0  0  0  0  0  0
    6.8646  -19.8856   15.5350 N   0  0  0  0  0  0  0  0  0  0  0  0
    7.1428  -18.5947   17.5600 C   0  0  0  0  0  0  0  0  0  0  0  0
    5.9743  -18.1723   17.3057 O   0  0  0  0  0  0  0  0  0  0  0  0
    7.0585  -19.3730   21.2349 O   0  0  0  0  0  0  0  0  0  0  0  0
    6.2908  -18.4932   20.4912 C   0  0  0  0  0  0  0  0  0  0  0  0
    7.2137  -17.4972   19.8248 C   0  0  2  0  0  0  0  0  0  0  0  0
    7.8335  -18.2420   18.7446 N   0  0  0  0  0  0  0  0  0  0  0  0
    8.2164  -16.8836   20.6914 C   0  0  0  0  0  0  0  0  0  0  0  0
    9.4077  -17.3446   20.5277 O   0  0  0  0  0  0  0  0  0  0  0  0
    8.0566  -15.8815   21.6535 N   0  0  0  0  0  0  0  0  0  0  0  0
    6.8987  -15.2985   22.3017 C   0  0  0  0  0  0  0  0  0  0  0  0
    7.2823  -13.8388   22.5856 C   0  0  0  0  0  0  0  0  0  0  0  0
    8.7075  -13.7156   22.0899 C   0  0  0  0  0  0  0  0  0  0  0  0
    9.1677  -15.1445   22.2720 C   0  0  1  0  0  0  0  0  0  0  0  0
    9.3521  -15.5129   23.6748 C   0  0  0  0  0  0  0  0  0  0  0  0
    8.5367  -16.2055   24.3273 O   0  0  0  0  0  0  0  0  0  0  0  0
   10.4982  -15.0681   24.3186 O   0  0  0  0  0  0  0  0  0  0  0  0
  2  4  1  0
  2  1  1  6
  3  2  1  0
  4  5  1  6
  6  4  1  0
  6 11  1  0
  7  6  2  0
  9  8  1  0
 10 12  1  0
 10 11  1  0
 10  9  1  1
 12 14  1  0
 13 12  2  0
 14 15  1  0
 14 18  1  0
 15 16  1  0
 17 16  1  0
 17 18  1  0
 18 19  1  1
 19 20  2  0
 19 21  1  0
M  END
$$$$
