TSP.pdb
     RDKit          3D

 21 21  0  0  1  0  0  0  0  0999 V2000
   11.1751  -16.0523   21.2998 C   0  0  0  0  0  0  0  0  0  0  0  0
   10.1503  -15.7761   20.2203 C   0  0  1  0  0  0  0  0  0  0  0  0
   10.4952  -16.5471   19.1118 O   0  0  0  0  0  0  0  0  0  0  0  0
    8.7993  -16.2418   20.7045 C   0  0  2  0  0  0  0  0  0  0  0  0
    7.8754  -16.0877   19.5952 N   0  0  0  0  0  0  0  0  0  0  0  0
    8.3377  -15.5466   21.9055 C   0  0  0  0  0  0  0  0  0  0  0  0
    7.3723  -14.7325   21.7881 O   0  0  0  0  0  0  0  0  0  0  0  0
    7.0510  -17.2300   24.9595 O   0  0  0  0  0  0  0  0  0  0  0  0
    7.0031  -15.9593   24.4123 C   0  0  0  0  0  0  0  0  0  0  0  0
    8.4013  -15.3825   24.4171 C   0  0  2  0  0  0  0  0  0  0  0  0
    8.9697  -15.7963   23.1477 N   0  0  0  0  0  0  0  0  0  0  0  0
    9.2494  -15.7848   25.5359 C   0  0  0  0  0  0  0  0  0  0  0  0
   10.0363  -16.7698   25.2732 O   0  0  0  0  0  0  0  0  0  0  0  0
    9.3190  -15.2513   26.8266 N   0  0  0  0  0  0  0  0  0  0  0  0
    8.3837  -14.5115   27.6504 C   0  0  0  0  0  0  0  0  0  0  0  0
    9.2487  -13.5862   28.5187 C   0  0  0  0  0  0  0  0  0  0  0  0
   10.6734  -13.9195   28.1293 C   0  0  0  0  0  0  0  0  0  0  0  0
   10.4935  -15.3593   27.7035 C   0  0  1  0  0  0  0  0  0  0  0  0
   10.2536  -16.2636   28.8271 C   0  0  0  0  0  0  0  0  0  0  0  0
    9.1600  -16.8372   29.0398 O   0  0  0  0  0  0  0  0  0  0  0  0
   11.3002  -16.4983   29.7077 O   0  0  0  0  0  0  0  0  0  0  0  0
  2  4  1  0
  2  1  1  1
  3  2  1  0
  4  5  1  6
  6  4  1  0
  6 11  1  0
  7  6  2  0
  9  8  1  0
 10 12  1  0
 10 11  1  0
 10  9  1  1
 12 14  1  0
 13 12  2  0
 14 15  1  0
 14 18  1  0
 15 16  1  0
 17 16  1  0
 17 18  1  0
 18 19  1  1
 19 20  2  0
 19 21  1  0
M  END
$$$$
