TSP.pdb
     RDKit          3D

 21 21  0  0  1  0  0  0  0  0999 V2000
    8.3759  -12.5585   20.2092 C   0  0  0  0  0  0  0  0  0  0  0  0
    7.8619  -13.5891   19.2266 C   0  0  1  0  0  0  0  0  0  0  0  0
    8.6785  -13.5325   18.0988 O   0  0  0  0  0  0  0  0  0  0  0  0
    8.0139  -14.9598   19.8386 C   0  0  2  0  0  0  0  0  0  0  0  0
    7.6204  -15.9222   18.8253 N   0  0  0  0  0  0  0  0  0  0  0  0
    7.2625  -15.1313   21.0815 C   0  0  0  0  0  0  0  0  0  0  0  0
    6.0755  -15.5711   21.0036 O   0  0  0  0  0  0  0  0  0  0  0  0
    6.8124  -17.1736   24.7671 O   0  0  0  0  0  0  0  0  0  0  0  0
    7.1767  -16.6978   23.5191 C   0  0  0  0  0  0  0  0  0  0  0  0
    7.3026  -15.1927   23.5981 C   0  0  2  0  0  0  0  0  0  0  0  0
    7.8695  -14.8075   22.3191 N   0  0  0  0  0  0  0  0  0  0  0  0
    8.1004  -14.6805   24.7091 C   0  0  0  0  0  0  0  0  0  0  0  0
    9.3725  -14.7669   24.5283 O   0  0  0  0  0  0  0  0  0  0  0  0
    7.6735  -14.1193   25.9166 N   0  0  0  0  0  0  0  0  0  0  0  0
    6.3729  -13.9589   26.5358 C   0  0  0  0  0  0  0  0  0  0  0  0
    6.4677  -12.6624   27.3535 C   0  0  0  0  0  0  0  0  0  0  0  0
    7.8928  -12.1906   27.1565 C   0  0  0  0  0  0  0  0  0  0  0  0
    8.5723  -13.5193   26.9128 C   0  0  1  0  0  0  0  0  0  0  0  0
    8.6753  -14.3401   28.1184 C   0  0  0  0  0  0  0  0  0  0  0  0
    9.3453  -14.0175   29.1269 O   0  0  0  0  0  0  0  0  0  0  0  0
    7.9898  -15.5465   28.1440 O   0  0  0  0  0  0  0  0  0  0  0  0
  2  4  1  0
  2  1  1  1
  3  2  1  0
  4  5  1  6
  6  4  1  0
  6 11  1  0
  7  6  2  0
  9  8  1  0
 10 12  1  0
 10 11  1  0
 10  9  1  6
 12 14  1  0
 13 12  2  0
 14 15  1  0
 14 18  1  0
 15 16  1  0
 17 16  1  0
 17 18  1  0
 18 19  1  1
 19 20  2  0
 19 21  1  0
M  END
$$$$
