FYG.pdb
     RDKit          3D

 28 29  0  0  1  0  0  0  0  0999 V2000
   27.9433  -22.9889  -16.6564 N   0  0  0  0  0  0  0  0  0  0  0  0
   26.9077  -21.9929  -16.6141 C   0  0  1  0  0  0  0  0  0  0  0  0
   25.9471  -22.1261  -17.7818 C   0  0  0  0  0  0  0  0  0  0  0  0
   26.6324  -21.6354  -19.0020 C   0  0  0  0  0  0  0  0  0  0  0  0
   27.1047  -20.3537  -19.1395 C   0  0  0  0  0  0  0  0  0  0  0  0
   27.7408  -19.9402  -20.3032 C   0  0  0  0  0  0  0  0  0  0  0  0
   27.9004  -20.8365  -21.3406 C   0  0  0  0  0  0  0  0  0  0  0  0
   27.4296  -22.1378  -21.2211 C   0  0  0  0  0  0  0  0  0  0  0  0
   26.7994  -22.5189  -20.0470 C   0  0  0  0  0  0  0  0  0  0  0  0
   26.1191  -22.1131  -15.3350 C   0  0  0  0  0  0  0  0  0  0  0  0
   25.9778  -23.2201  -14.7806 O   0  0  0  0  0  0  0  0  0  0  0  0
   30.5389  -21.4609  -10.6202 O   0  0  0  0  0  0  0  0  0  0  0  0
   29.2550  -21.1412  -11.0396 C   0  0  0  0  0  0  0  0  0  0  0  0
   28.1192  -21.5530  -10.3603 C   0  0  0  0  0  0  0  0  0  0  0  0
   26.8514  -21.2252  -10.7928 C   0  0  0  0  0  0  0  0  0  0  0  0
   26.6570  -20.4731  -11.9204 C   0  0  0  0  0  0  0  0  0  0  0  0
   25.3785  -20.0662  -12.4707 C   0  0  0  0  0  0  0  0  0  0  0  0
   24.7894  -20.9924  -13.4896 C   0  0  2  0  0  0  0  0  0  0  0  0
   25.5194  -20.9807  -14.7292 N   0  0  0  0  0  0  0  0  0  0  0  0
   23.3456  -20.7079  -13.6678 C   0  0  0  0  0  0  0  0  0  0  0  0
   23.0370  -19.6633  -14.2977 O   0  0  0  0  0  0  0  0  0  0  0  0
   27.8035  -20.0639  -12.5963 C   0  0  0  0  0  0  0  0  0  0  0  0
   29.0671  -20.3830  -12.1767 C   0  0  0  0  0  0  0  0  0  0  0  0
   22.3042  -21.5245  -13.1815 N   0  0  0  0  0  0  0  0  0  0  0  0
   20.9401  -21.1479  -13.3789 C   0  0  0  0  0  0  0  0  0  0  0  0
   20.2744  -20.6537  -12.1672 C   0  0  0  0  0  0  0  0  0  0  0  0
   18.9421  -20.3076  -12.1822 O   0  0  0  0  0  0  0  0  0  0  0  0
   20.9182  -20.5431  -11.1054 O   0  0  0  0  0  0  0  0  0  0  0  0
  2  1  1  6
  2  3  1  0
  2 10  1  0
  4  9  1  0
  4  3  1  0
  5  4  2  0
  6  7  2  0
  6  5  1  0
  7  8  1  0
  8  9  2  0
 10 11  2  0
 13 12  1  0
 13 14  2  0
 15 14  1  0
 16 15  2  0
 17 16  1  0
 18 17  1  1
 19 10  1  0
 19 18  1  0
 20 18  1  0
 20 21  2  0
 22 23  2  0
 22 16  1  0
 23 13  1  0
 24 20  1  0
 25 24  1  0
 25 26  1  0
 26 27  1  0
 28 26  2  0
M  END
$$$$
