FYG.pdb
     RDKit          3D

 28 29  0  0  1  0  0  0  0  0999 V2000
   27.8168  -18.3432  -14.6320 N   0  0  0  0  0  0  0  0  0  0  0  0
   26.6213  -19.0233  -15.0497 C   0  0  1  0  0  0  0  0  0  0  0  0
   26.5023  -19.0804  -16.5619 C   0  0  0  0  0  0  0  0  0  0  0  0
   26.3408  -17.6948  -17.0652 C   0  0  0  0  0  0  0  0  0  0  0  0
   27.2762  -17.0602  -17.8444 C   0  0  0  0  0  0  0  0  0  0  0  0
   27.0798  -15.7600  -18.2923 C   0  0  0  0  0  0  0  0  0  0  0  0
   25.9211  -15.0944  -17.9465 C   0  0  0  0  0  0  0  0  0  0  0  0
   24.9625  -15.7189  -17.1590 C   0  0  0  0  0  0  0  0  0  0  0  0
   25.1888  -17.0168  -16.7283 C   0  0  0  0  0  0  0  0  0  0  0  0
   26.6105  -20.4344  -14.5195 C   0  0  0  0  0  0  0  0  0  0  0  0
   27.6789  -21.0472  -14.3300 O   0  0  0  0  0  0  0  0  0  0  0  0
   26.7144  -19.4062   -8.1072 O   0  0  0  0  0  0  0  0  0  0  0  0
   26.2138  -20.1771   -9.1472 C   0  0  0  0  0  0  0  0  0  0  0  0
   26.8257  -21.3436   -9.5787 C   0  0  0  0  0  0  0  0  0  0  0  0
   26.3130  -22.0963  -10.6142 C   0  0  0  0  0  0  0  0  0  0  0  0
   25.1688  -21.7223  -11.2666 C   0  0  0  0  0  0  0  0  0  0  0  0
   24.5364  -22.4290  -12.3638 C   0  0  0  0  0  0  0  0  0  0  0  0
   25.2901  -22.4203  -13.6579 C   0  0  2  0  0  0  0  0  0  0  0  0
   25.3956  -21.1015  -14.2229 N   0  0  0  0  0  0  0  0  0  0  0  0
   24.7060  -23.4058  -14.5986 C   0  0  0  0  0  0  0  0  0  0  0  0
   23.5679  -23.1491  -15.0697 O   0  0  0  0  0  0  0  0  0  0  0  0
   24.5610  -20.5494  -10.8265 C   0  0  0  0  0  0  0  0  0  0  0  0
   25.0605  -19.7939   -9.7998 C   0  0  0  0  0  0  0  0  0  0  0  0
   25.3372  -24.6021  -14.9965 N   0  0  0  0  0  0  0  0  0  0  0  0
   24.6949  -25.4842  -15.9190 C   0  0  0  0  0  0  0  0  0  0  0  0
   25.0022  -25.2045  -17.3272 C   0  0  0  0  0  0  0  0  0  0  0  0
   24.0021  -24.9020  -18.2236 O   0  0  0  0  0  0  0  0  0  0  0  0
   26.1832  -25.2395  -17.7246 O   0  0  0  0  0  0  0  0  0  0  0  0
  2  1  1  6
  2  3  1  0
  2 10  1  0
  4  9  1  0
  4  3  1  0
  5  4  2  0
  6  7  2  0
  6  5  1  0
  7  8  1  0
  8  9  2  0
 10 11  2  0
 13 12  1  0
 13 14  2  0
 15 14  1  0
 16 15  2  0
 17 16  1  0
 18 17  1  1
 19 10  1  0
 19 18  1  0
 20 18  1  0
 20 21  2  0
 22 23  2  0
 22 16  1  0
 23 13  1  0
 24 20  1  0
 25 24  1  0
 25 26  1  0
 26 27  1  0
 28 26  2  0
M  END
$$$$
