FYG.pdb
     RDKit          3D

 28 29  0  0  1  0  0  0  0  0999 V2000
   23.7211  -20.5672  -10.9655 N   0  0  0  0  0  0  0  0  0  0  0  0
   25.0424  -20.3113  -11.4704 C   0  0  1  0  0  0  0  0  0  0  0  0
   26.0691  -21.2556  -10.8721 C   0  0  0  0  0  0  0  0  0  0  0  0
   26.4081  -20.7685   -9.5130 C   0  0  0  0  0  0  0  0  0  0  0  0
   26.7447  -21.6008   -8.4744 C   0  0  0  0  0  0  0  0  0  0  0  0
   27.0547  -21.0969   -7.2174 C   0  0  0  0  0  0  0  0  0  0  0  0
   27.0233  -19.7326   -7.0104 C   0  0  0  0  0  0  0  0  0  0  0  0
   26.6852  -18.8738   -8.0482 C   0  0  0  0  0  0  0  0  0  0  0  0
   26.3812  -19.4083   -9.2904 C   0  0  0  0  0  0  0  0  0  0  0  0
   25.0687  -20.4699  -12.9693 C   0  0  0  0  0  0  0  0  0  0  0  0
   24.0831  -20.9347  -13.5736 O   0  0  0  0  0  0  0  0  0  0  0  0
   24.8513  -13.8645  -16.0103 O   0  0  0  0  0  0  0  0  0  0  0  0
   25.3866  -15.1445  -15.9690 C   0  0  0  0  0  0  0  0  0  0  0  0
   24.9450  -16.1695  -16.7909 C   0  0  0  0  0  0  0  0  0  0  0  0
   25.4896  -17.4352  -16.7351 C   0  0  0  0  0  0  0  0  0  0  0  0
   26.4977  -17.7377  -15.8593 C   0  0  0  0  0  0  0  0  0  0  0  0
   27.1472  -19.0257  -15.7099 C   0  0  0  0  0  0  0  0  0  0  0  0
   26.2864  -20.1242  -15.1665 C   0  0  2  0  0  0  0  0  0  0  0  0
   26.2054  -20.0986  -13.7304 N   0  0  0  0  0  0  0  0  0  0  0  0
   26.7322  -21.4350  -15.6958 C   0  0  0  0  0  0  0  0  0  0  0  0
   26.8433  -21.5454  -16.9443 O   0  0  0  0  0  0  0  0  0  0  0  0
   26.9349  -16.7021  -15.0377 C   0  0  0  0  0  0  0  0  0  0  0  0
   26.4021  -15.4417  -15.0839 C   0  0  0  0  0  0  0  0  0  0  0  0
   27.0373  -22.5570  -14.8983 N   0  0  0  0  0  0  0  0  0  0  0  0
   27.6183  -23.7229  -15.4855 C   0  0  0  0  0  0  0  0  0  0  0  0
   26.6379  -24.7243  -15.9232 C   0  0  0  0  0  0  0  0  0  0  0  0
   27.0418  -25.9591  -16.3784 O   0  0  0  0  0  0  0  0  0  0  0  0
   25.4202  -24.4602  -15.8851 O   0  0  0  0  0  0  0  0  0  0  0  0
  2  1  1  1
  2  3  1  0
  2 10  1  0
  4  9  1  0
  4  3  1  0
  5  4  2  0
  6  7  2  0
  6  5  1  0
  7  8  1  0
  8  9  2  0
 10 11  2  0
 13 12  1  0
 13 14  2  0
 15 14  1  0
 16 15  2  0
 17 16  1  0
 18 17  1  1
 19 10  1  0
 19 18  1  0
 20 18  1  0
 20 21  2  0
 22 23  2  0
 22 16  1  0
 23 13  1  0
 24 20  1  0
 25 24  1  0
 25 26  1  0
 26 27  1  0
 28 26  2  0
M  END
$$$$
