FYG.pdb
     RDKit          3D

 28 29  0  0  1  0  0  0  0  0999 V2000
   27.6573  -23.7111  -17.2784 N   0  0  0  0  0  0  0  0  0  0  0  0
   26.9985  -22.4706  -16.9729 C   0  0  1  0  0  0  0  0  0  0  0  0
   25.9062  -22.1483  -17.9765 C   0  0  0  0  0  0  0  0  0  0  0  0
   26.5523  -21.7118  -19.2380 C   0  0  0  0  0  0  0  0  0  0  0  0
   26.7945  -22.5553  -20.2939 C   0  0  0  0  0  0  0  0  0  0  0  0
   27.4031  -22.0993  -21.4565 C   0  0  0  0  0  0  0  0  0  0  0  0
   27.7708  -20.7723  -21.5504 C   0  0  0  0  0  0  0  0  0  0  0  0
   27.5344  -19.9030  -20.4933 C   0  0  0  0  0  0  0  0  0  0  0  0
   26.9254  -20.3892  -19.3472 C   0  0  0  0  0  0  0  0  0  0  0  0
   26.3781  -22.5326  -15.6004 C   0  0  0  0  0  0  0  0  0  0  0  0
   25.6703  -23.5033  -15.2694 O   0  0  0  0  0  0  0  0  0  0  0  0
   25.4093  -20.7152   -6.9059 O   0  0  0  0  0  0  0  0  0  0  0  0
   25.7270  -20.6925   -8.2569 C   0  0  0  0  0  0  0  0  0  0  0  0
   24.8300  -20.2858   -9.2321 C   0  0  0  0  0  0  0  0  0  0  0  0
   25.1644  -20.2702  -10.5699 C   0  0  0  0  0  0  0  0  0  0  0  0
   26.4059  -20.6585  -10.9972 C   0  0  0  0  0  0  0  0  0  0  0  0
   26.8717  -20.6843  -12.3703 C   0  0  0  0  0  0  0  0  0  0  0  0
   26.0270  -21.4709  -13.3246 C   0  0  2  0  0  0  0  0  0  0  0  0
   26.5792  -21.4980  -14.6527 N   0  0  0  0  0  0  0  0  0  0  0  0
   24.6272  -20.9844  -13.2918 C   0  0  0  0  0  0  0  0  0  0  0  0
   24.4037  -19.8383  -13.7607 O   0  0  0  0  0  0  0  0  0  0  0  0
   27.3004  -21.0655  -10.0108 C   0  0  0  0  0  0  0  0  0  0  0  0
   26.9799  -21.0852   -8.6798 C   0  0  0  0  0  0  0  0  0  0  0  0
   23.5388  -21.7159  -12.7738 N   0  0  0  0  0  0  0  0  0  0  0  0
   22.2025  -21.2406  -12.9471 C   0  0  0  0  0  0  0  0  0  0  0  0
   21.6991  -20.4462  -11.8197 C   0  0  0  0  0  0  0  0  0  0  0  0
   20.4399  -19.8907  -11.8511 O   0  0  0  0  0  0  0  0  0  0  0  0
   22.4162  -20.2676  -10.8157 O   0  0  0  0  0  0  0  0  0  0  0  0
  2  1  1  6
  2  3  1  0
  2 10  1  0
  4  9  1  0
  4  3  1  0
  5  4  2  0
  6  7  2  0
  6  5  1  0
  7  8  1  0
  8  9  2  0
 10 11  2  0
 13 12  1  0
 13 14  2  0
 15 14  1  0
 16 15  2  0
 17 16  1  0
 18 17  1  1
 19 10  1  0
 19 18  1  0
 20 18  1  0
 20 21  2  0
 22 23  2  0
 22 16  1  0
 23 13  1  0
 24 20  1  0
 25 24  1  0
 25 26  1  0
 26 27  1  0
 28 26  2  0
M  END
$$$$
