FYG.pdb
     RDKit          3D

 28 29  0  0  1  0  0  0  0  0999 V2000
   26.9640   -9.7212  -19.7417 N   0  0  0  0  0  0  0  0  0  0  0  0
   26.7710   -9.6732  -18.3181 C   0  0  1  0  0  0  0  0  0  0  0  0
   27.0514   -8.2915  -17.7557 C   0  0  0  0  0  0  0  0  0  0  0  0
   28.4835   -7.9814  -17.9850 C   0  0  0  0  0  0  0  0  0  0  0  0
   28.9188   -6.8338  -18.6000 C   0  0  0  0  0  0  0  0  0  0  0  0
   30.2724   -6.5874  -18.7925 C   0  0  0  0  0  0  0  0  0  0  0  0
   31.1963   -7.5154  -18.3564 C   0  0  0  0  0  0  0  0  0  0  0  0
   30.7762   -8.6827  -17.7319 C   0  0  0  0  0  0  0  0  0  0  0  0
   29.4185   -8.8986  -17.5550 C   0  0  0  0  0  0  0  0  0  0  0  0
   25.3529  -10.0480  -17.9702 C   0  0  0  0  0  0  0  0  0  0  0  0
   24.4736  -10.0844  -18.8523 O   0  0  0  0  0  0  0  0  0  0  0  0
   26.2314  -16.6166  -17.4814 O   0  0  0  0  0  0  0  0  0  0  0  0
   25.5825  -15.4987  -16.9753 C   0  0  0  0  0  0  0  0  0  0  0  0
   24.2567  -15.2089  -17.2572 C   0  0  0  0  0  0  0  0  0  0  0  0
   23.6291  -14.0930  -16.7447 C   0  0  0  0  0  0  0  0  0  0  0  0
   24.2924  -13.2157  -15.9292 C   0  0  0  0  0  0  0  0  0  0  0  0
   23.7412  -12.0144  -15.3323 C   0  0  0  0  0  0  0  0  0  0  0  0
   23.6762  -10.8178  -16.2307 C   0  0  2  0  0  0  0  0  0  0  0  0
   24.9796  -10.3678  -16.6407 N   0  0  0  0  0  0  0  0  0  0  0  0
   22.8678   -9.7467  -15.6010 C   0  0  0  0  0  0  0  0  0  0  0  0
   21.7055  -10.0473  -15.2240 O   0  0  0  0  0  0  0  0  0  0  0  0
   25.6236  -13.5147  -15.6515 C   0  0  0  0  0  0  0  0  0  0  0  0
   26.2574  -14.6194  -16.1543 C   0  0  0  0  0  0  0  0  0  0  0  0
   23.3124   -8.4241  -15.3987 N   0  0  0  0  0  0  0  0  0  0  0  0
   22.4898   -7.4850  -14.7037 C   0  0  0  0  0  0  0  0  0  0  0  0
   21.6954   -6.6192  -15.5840 C   0  0  0  0  0  0  0  0  0  0  0  0
   21.6459   -6.8438  -16.9413 O   0  0  0  0  0  0  0  0  0  0  0  0
   21.0535   -5.6650  -15.1030 O   0  0  0  0  0  0  0  0  0  0  0  0
  2  1  1  6
  2  3  1  0
  2 10  1  0
  4  9  1  0
  4  3  1  0
  5  4  2  0
  6  7  2  0
  6  5  1  0
  7  8  1  0
  8  9  2  0
 10 11  2  0
 13 12  1  0
 13 14  2  0
 15 14  1  0
 16 15  2  0
 17 16  1  0
 18 17  1  1
 19 10  1  0
 19 18  1  0
 20 18  1  0
 20 21  2  0
 22 23  2  0
 22 16  1  0
 23 13  1  0
 24 20  1  0
 25 24  1  0
 25 26  1  0
 26 27  1  0
 28 26  2  0
M  END
$$$$
