FYG.pdb
     RDKit          3D

 28 29  0  0  1  0  0  0  0  0999 V2000
   26.0840  -20.8433  -19.0985 N   0  0  0  0  0  0  0  0  0  0  0  0
   25.5841  -19.9063  -18.1299 C   0  0  1  0  0  0  0  0  0  0  0  0
   24.2962  -19.2489  -18.5915 C   0  0  0  0  0  0  0  0  0  0  0  0
   24.6257  -18.3076  -19.6892 C   0  0  0  0  0  0  0  0  0  0  0  0
   24.3924  -18.5810  -21.0142 C   0  0  0  0  0  0  0  0  0  0  0  0
   24.7186  -17.6664  -22.0078 C   0  0  0  0  0  0  0  0  0  0  0  0
   25.2883  -16.4600  -21.6543 C   0  0  0  0  0  0  0  0  0  0  0  0
   25.5324  -16.1644  -20.3193 C   0  0  0  0  0  0  0  0  0  0  0  0
   25.1953  -17.0983  -19.3522 C   0  0  0  0  0  0  0  0  0  0  0  0
   25.3183  -20.6016  -16.8190 C   0  0  0  0  0  0  0  0  0  0  0  0
   24.8605  -21.7604  -16.7990 O   0  0  0  0  0  0  0  0  0  0  0  0
   24.8842  -21.7216   -7.9600 O   0  0  0  0  0  0  0  0  0  0  0  0
   25.2018  -21.3184   -9.2496 C   0  0  0  0  0  0  0  0  0  0  0  0
   26.0165  -22.0617  -10.0892 C   0  0  0  0  0  0  0  0  0  0  0  0
   26.3207  -21.6443  -11.3678 C   0  0  0  0  0  0  0  0  0  0  0  0
   25.8281  -20.4688  -11.8683 C   0  0  0  0  0  0  0  0  0  0  0  0
   26.0762  -19.9283  -13.1909 C   0  0  0  0  0  0  0  0  0  0  0  0
   25.2229  -20.4867  -14.2877 C   0  0  2  0  0  0  0  0  0  0  0  0
   25.5787  -19.9643  -15.5800 N   0  0  0  0  0  0  0  0  0  0  0  0
   23.7878  -20.3019  -13.9660 C   0  0  0  0  0  0  0  0  0  0  0  0
   23.3392  -19.1264  -13.9847 O   0  0  0  0  0  0  0  0  0  0  0  0
   25.0107  -19.7288  -11.0181 C   0  0  0  0  0  0  0  0  0  0  0  0
   24.7016  -20.1329   -9.7469 C   0  0  0  0  0  0  0  0  0  0  0  0
   22.8999  -21.3485  -13.6432 N   0  0  0  0  0  0  0  0  0  0  0  0
   21.5279  -21.0687  -13.3588 C   0  0  0  0  0  0  0  0  0  0  0  0
   21.1890  -21.1259  -11.9314 C   0  0  0  0  0  0  0  0  0  0  0  0
   20.2354  -20.2899  -11.3959 O   0  0  0  0  0  0  0  0  0  0  0  0
   21.7687  -21.9407  -11.1870 O   0  0  0  0  0  0  0  0  0  0  0  0
  2  1  1  6
  2  3  1  0
  2 10  1  0
  4  9  1  0
  4  3  1  0
  5  4  2  0
  6  7  2  0
  6  5  1  0
  7  8  1  0
  8  9  2  0
 10 11  2  0
 13 12  1  0
 13 14  2  0
 15 14  1  0
 16 15  2  0
 17 16  1  0
 18 17  1  1
 19 10  1  0
 19 18  1  0
 20 18  1  0
 20 21  2  0
 22 23  2  0
 22 16  1  0
 23 13  1  0
 24 20  1  0
 25 24  1  0
 25 26  1  0
 26 27  1  0
 28 26  2  0
M  END
$$$$
