FYG.pdb
     RDKit          3D

 28 29  0  0  1  0  0  0  0  0999 V2000
   25.3947  -33.5311   -9.8354 N   0  0  0  0  0  0  0  0  0  0  0  0
   25.7013  -32.9213   -8.5703 C   0  0  1  0  0  0  0  0  0  0  0  0
   24.4561  -32.7080   -7.7289 C   0  0  0  0  0  0  0  0  0  0  0  0
   23.6399  -31.6497   -8.3718 C   0  0  0  0  0  0  0  0  0  0  0  0
   22.4530  -31.8977   -9.0157 C   0  0  0  0  0  0  0  0  0  0  0  0
   21.7231  -30.8722   -9.6035 C   0  0  0  0  0  0  0  0  0  0  0  0
   22.2019  -29.5793   -9.5381 C   0  0  0  0  0  0  0  0  0  0  0  0
   23.4006  -29.3077   -8.8913 C   0  0  0  0  0  0  0  0  0  0  0  0
   24.1048  -30.3532   -8.3150 C   0  0  0  0  0  0  0  0  0  0  0  0
   26.6577  -33.7875   -7.7909 C   0  0  0  0  0  0  0  0  0  0  0  0
   26.6069  -35.0291   -7.8849 O   0  0  0  0  0  0  0  0  0  0  0  0
   34.2254  -36.3797   -4.1546 O   0  0  0  0  0  0  0  0  0  0  0  0
   33.1559  -35.6009   -4.5744 C   0  0  0  0  0  0  0  0  0  0  0  0
   32.3502  -34.8954   -3.6945 C   0  0  0  0  0  0  0  0  0  0  0  0
   31.2918  -34.1266   -4.1310 C   0  0  0  0  0  0  0  0  0  0  0  0
   30.9876  -34.0254   -5.4621 C   0  0  0  0  0  0  0  0  0  0  0  0
   29.9053  -33.2514   -6.0388 C   0  0  0  0  0  0  0  0  0  0  0  0
   28.5955  -33.9666   -6.1653 C   0  0  2  0  0  0  0  0  0  0  0  0
   27.6353  -33.2214   -6.9349 N   0  0  0  0  0  0  0  0  0  0  0  0
   28.0888  -34.3502   -4.8262 C   0  0  0  0  0  0  0  0  0  0  0  0
   27.9012  -33.4253   -3.9938 O   0  0  0  0  0  0  0  0  0  0  0  0
   31.8022  -34.7374   -6.3387 C   0  0  0  0  0  0  0  0  0  0  0  0
   32.8557  -35.5038   -5.9173 C   0  0  0  0  0  0  0  0  0  0  0  0
   27.8057  -35.6726   -4.4275 N   0  0  0  0  0  0  0  0  0  0  0  0
   28.5685  -36.2923   -3.3903 C   0  0  0  0  0  0  0  0  0  0  0  0
   28.2316  -35.8258   -2.0396 C   0  0  0  0  0  0  0  0  0  0  0  0
   29.2015  -35.7030   -1.0703 O   0  0  0  0  0  0  0  0  0  0  0  0
   27.0525  -35.5349   -1.7584 O   0  0  0  0  0  0  0  0  0  0  0  0
  2  1  1  6
  2  3  1  0
  2 10  1  0
  4  9  1  0
  4  3  1  0
  5  4  2  0
  6  7  2  0
  6  5  1  0
  7  8  1  0
  8  9  2  0
 10 11  2  0
 13 12  1  0
 13 14  2  0
 15 14  1  0
 16 15  2  0
 17 16  1  0
 18 17  1  1
 19 10  1  0
 19 18  1  0
 20 18  1  0
 20 21  2  0
 22 23  2  0
 22 16  1  0
 23 13  1  0
 24 20  1  0
 25 24  1  0
 25 26  1  0
 26 27  1  0
 28 26  2  0
M  END
$$$$
