FYG.pdb
     RDKit          3D

 28 29  0  0  1  0  0  0  0  0999 V2000
   21.5972  -19.7742  -14.1739 N   0  0  0  0  0  0  0  0  0  0  0  0
   22.6878  -19.7238  -15.1089 C   0  0  1  0  0  0  0  0  0  0  0  0
   22.5290  -18.5870  -16.1022 C   0  0  0  0  0  0  0  0  0  0  0  0
   21.4177  -18.9296  -17.0226 C   0  0  0  0  0  0  0  0  0  0  0  0
   21.4354  -20.0215  -17.8547 C   0  0  0  0  0  0  0  0  0  0  0  0
   20.3692  -20.3015  -18.7001 C   0  0  0  0  0  0  0  0  0  0  0  0
   19.2715  -19.4648  -18.7025 C   0  0  0  0  0  0  0  0  0  0  0  0
   19.2343  -18.3551  -17.8681 C   0  0  0  0  0  0  0  0  0  0  0  0
   20.3142  -18.1035  -17.0365 C   0  0  0  0  0  0  0  0  0  0  0  0
   23.9936  -19.5371  -14.3792 C   0  0  0  0  0  0  0  0  0  0  0  0
   24.1870  -18.5259  -13.6772 O   0  0  0  0  0  0  0  0  0  0  0  0
   23.2890  -20.8832   -8.0995 O   0  0  0  0  0  0  0  0  0  0  0  0
   24.0324  -21.0440   -9.2606 C   0  0  0  0  0  0  0  0  0  0  0  0
   23.5020  -21.5820  -10.4228 C   0  0  0  0  0  0  0  0  0  0  0  0
   24.2568  -21.7338  -11.5669 C   0  0  0  0  0  0  0  0  0  0  0  0
   25.5727  -21.3574  -11.6060 C   0  0  0  0  0  0  0  0  0  0  0  0
   26.4632  -21.4669  -12.7453 C   0  0  0  0  0  0  0  0  0  0  0  0
   26.3010  -20.4119  -13.7959 C   0  0  2  0  0  0  0  0  0  0  0  0
   25.0322  -20.4975  -14.4685 N   0  0  0  0  0  0  0  0  0  0  0  0
   27.4518  -20.4366  -14.7299 C   0  0  0  0  0  0  0  0  0  0  0  0
   28.5988  -20.2817  -14.2362 O   0  0  0  0  0  0  0  0  0  0  0  0
   26.0969  -20.8181  -10.4342 C   0  0  0  0  0  0  0  0  0  0  0  0
   25.3576  -20.6624   -9.2923 C   0  0  0  0  0  0  0  0  0  0  0  0
   27.3460  -20.6208  -16.1237 N   0  0  0  0  0  0  0  0  0  0  0  0
   28.5195  -20.6531  -16.9382 C   0  0  0  0  0  0  0  0  0  0  0  0
   28.5493  -19.6248  -17.9857 C   0  0  0  0  0  0  0  0  0  0  0  0
   29.5759  -19.5764  -18.9016 O   0  0  0  0  0  0  0  0  0  0  0  0
   27.6355  -18.7796  -18.0533 O   0  0  0  0  0  0  0  0  0  0  0  0
  2  1  1  1
  2  3  1  0
  2 10  1  0
  4  9  1  0
  4  3  1  0
  5  4  2  0
  6  7  2  0
  6  5  1  0
  7  8  1  0
  8  9  2  0
 10 11  2  0
 13 12  1  0
 13 14  2  0
 15 14  1  0
 16 15  2  0
 17 16  1  0
 18 17  1  1
 19 10  1  0
 19 18  1  0
 20 18  1  0
 20 21  2  0
 22 23  2  0
 22 16  1  0
 23 13  1  0
 24 20  1  0
 25 24  1  0
 25 26  1  0
 26 27  1  0
 28 26  2  0
M  END
$$$$
