FYG.pdb
     RDKit          3D

 28 29  0  0  1  0  0  0  0  0999 V2000
   28.1555  -20.3497  -14.0202 N   0  0  0  0  0  0  0  0  0  0  0  0
   27.0496  -19.6243  -13.4573 C   0  0  1  0  0  0  0  0  0  0  0  0
   26.1288  -19.0742  -14.5314 C   0  0  0  0  0  0  0  0  0  0  0  0
   26.7511  -17.8495  -15.0903 C   0  0  0  0  0  0  0  0  0  0  0  0
   26.8519  -16.6693  -14.3962 C   0  0  0  0  0  0  0  0  0  0  0  0
   27.4440  -15.5475  -14.9628 C   0  0  0  0  0  0  0  0  0  0  0  0
   27.9401  -15.6225  -16.2486 C   0  0  0  0  0  0  0  0  0  0  0  0
   27.8477  -16.8074  -16.9674 C   0  0  0  0  0  0  0  0  0  0  0  0
   27.2513  -17.9085  -16.3735 C   0  0  0  0  0  0  0  0  0  0  0  0
   26.2419  -20.5212  -12.5541 C   0  0  0  0  0  0  0  0  0  0  0  0
   26.4883  -21.7410  -12.4893 O   0  0  0  0  0  0  0  0  0  0  0  0
   29.5043  -20.3765   -7.0396 O   0  0  0  0  0  0  0  0  0  0  0  0
   28.2507  -20.2997   -7.6307 C   0  0  0  0  0  0  0  0  0  0  0  0
   27.6021  -19.0966   -7.8612 C   0  0  0  0  0  0  0  0  0  0  0  0
   26.3563  -19.0407   -8.4500 C   0  0  0  0  0  0  0  0  0  0  0  0
   25.7003  -20.1789   -8.8357 C   0  0  0  0  0  0  0  0  0  0  0  0
   24.3940  -20.2461   -9.4620 C   0  0  0  0  0  0  0  0  0  0  0  0
   24.3743  -20.7847  -10.8593 C   0  0  2  0  0  0  0  0  0  0  0  0
   25.1868  -20.0092  -11.7581 N   0  0  0  0  0  0  0  0  0  0  0  0
   22.9773  -20.9374  -11.3308 C   0  0  0  0  0  0  0  0  0  0  0  0
   22.1354  -21.3796  -10.5067 O   0  0  0  0  0  0  0  0  0  0  0  0
   26.3593  -21.3827   -8.6004 C   0  0  0  0  0  0  0  0  0  0  0  0
   27.5959  -21.4508   -8.0167 C   0  0  0  0  0  0  0  0  0  0  0  0
   22.5338  -20.6220  -12.6315 N   0  0  0  0  0  0  0  0  0  0  0  0
   21.1762  -20.8599  -13.0082 C   0  0  0  0  0  0  0  0  0  0  0  0
   20.9304  -22.2053  -13.5421 C   0  0  0  0  0  0  0  0  0  0  0  0
   19.6771  -22.5784  -13.9724 O   0  0  0  0  0  0  0  0  0  0  0  0
   21.8650  -23.0275  -13.6100 O   0  0  0  0  0  0  0  0  0  0  0  0
  2  1  1  6
  2  3  1  0
  2 10  1  0
  4  9  1  0
  4  3  1  0
  5  4  2  0
  6  7  2  0
  6  5  1  0
  7  8  1  0
  8  9  2  0
 10 11  2  0
 13 12  1  0
 13 14  2  0
 15 14  1  0
 16 15  2  0
 17 16  1  0
 18 17  1  1
 19 10  1  0
 19 18  1  0
 20 18  1  0
 20 21  2  0
 22 23  2  0
 22 16  1  0
 23 13  1  0
 24 20  1  0
 25 24  1  0
 25 26  1  0
 26 27  1  0
 28 26  2  0
M  END
$$$$
