FYG.pdb
     RDKit          3D

 28 29  0  0  1  0  0  0  0  0999 V2000
   24.2852  -21.0742  -23.1106 N   0  0  0  0  0  0  0  0  0  0  0  0
   23.6344  -22.3555  -23.1410 C   0  0  1  0  0  0  0  0  0  0  0  0
   24.4614  -23.3923  -23.8795 C   0  0  0  0  0  0  0  0  0  0  0  0
   24.4467  -23.0522  -25.3229 C   0  0  0  0  0  0  0  0  0  0  0  0
   23.3071  -23.0568  -26.0886 C   0  0  0  0  0  0  0  0  0  0  0  0
   23.3436  -22.7305  -27.4384 C   0  0  0  0  0  0  0  0  0  0  0  0
   24.5498  -22.3954  -28.0197 C   0  0  0  0  0  0  0  0  0  0  0  0
   25.7140  -22.3848  -27.2623 C   0  0  0  0  0  0  0  0  0  0  0  0
   25.6437  -22.7153  -25.9180 C   0  0  0  0  0  0  0  0  0  0  0  0
   23.3933  -22.8525  -21.7384 C   0  0  0  0  0  0  0  0  0  0  0  0
   24.0468  -22.3916  -20.7828 O   0  0  0  0  0  0  0  0  0  0  0  0
   17.0600  -25.7081  -23.9389 O   0  0  0  0  0  0  0  0  0  0  0  0
   17.9408  -25.3871  -22.9152 C   0  0  0  0  0  0  0  0  0  0  0  0
   18.3805  -26.3157  -21.9848 C   0  0  0  0  0  0  0  0  0  0  0  0
   19.2561  -25.9775  -20.9745 C   0  0  0  0  0  0  0  0  0  0  0  0
   19.7333  -24.7007  -20.8447 C   0  0  0  0  0  0  0  0  0  0  0  0
   20.6539  -24.2277  -19.8289 C   0  0  0  0  0  0  0  0  0  0  0  0
   22.1080  -24.3649  -20.1603 C   0  0  2  0  0  0  0  0  0  0  0  0
   22.4243  -23.8505  -21.4660 N   0  0  0  0  0  0  0  0  0  0  0  0
   22.5473  -25.7679  -19.9711 C   0  0  0  0  0  0  0  0  0  0  0  0
   22.3127  -26.3003  -18.8554 O   0  0  0  0  0  0  0  0  0  0  0  0
   19.2864  -23.7748  -21.7836 C   0  0  0  0  0  0  0  0  0  0  0  0
   18.4173  -24.0986  -22.7909 C   0  0  0  0  0  0  0  0  0  0  0  0
   23.2054  -26.5384  -20.9514 N   0  0  0  0  0  0  0  0  0  0  0  0
   23.6035  -27.8808  -20.6667 C   0  0  0  0  0  0  0  0  0  0  0  0
   24.7063  -27.9863  -19.7034 C   0  0  0  0  0  0  0  0  0  0  0  0
   25.2444  -29.2099  -19.3740 O   0  0  0  0  0  0  0  0  0  0  0  0
   25.1678  -26.9575  -19.1715 O   0  0  0  0  0  0  0  0  0  0  0  0
  2  1  1  1
  2  3  1  0
  2 10  1  0
  4  9  1  0
  4  3  1  0
  5  4  2  0
  6  7  2  0
  6  5  1  0
  7  8  1  0
  8  9  2  0
 10 11  2  0
 13 12  1  0
 13 14  2  0
 15 14  1  0
 16 15  2  0
 17 16  1  0
 18 17  1  6
 19 10  1  0
 19 18  1  0
 20 18  1  0
 20 21  2  0
 22 23  2  0
 22 16  1  0
 23 13  1  0
 24 20  1  0
 25 24  1  0
 25 26  1  0
 26 27  1  0
 28 26  2  0
M  END
$$$$
