FYG.pdb
     RDKit          3D

 28 29  0  0  1  0  0  0  0  0999 V2000
   27.5692  -21.5341  -18.7563 N   0  0  0  0  0  0  0  0  0  0  0  0
   26.8224  -20.5697  -17.9958 C   0  0  1  0  0  0  0  0  0  0  0  0
   25.4926  -20.2410  -18.6497 C   0  0  0  0  0  0  0  0  0  0  0  0
   25.7563  -19.3685  -19.8196 C   0  0  0  0  0  0  0  0  0  0  0  0
   26.0519  -18.0320  -19.7138 C   0  0  0  0  0  0  0  0  0  0  0  0
   26.2916  -17.2548  -20.8401 C   0  0  0  0  0  0  0  0  0  0  0  0
   26.2310  -17.8392  -22.0891 C   0  0  0  0  0  0  0  0  0  0  0  0
   25.9336  -19.1898  -22.2173 C   0  0  0  0  0  0  0  0  0  0  0  0
   25.6995  -19.9375  -21.0740 C   0  0  0  0  0  0  0  0  0  0  0  0
   26.5519  -21.0942  -16.6086 C   0  0  0  0  0  0  0  0  0  0  0  0
   26.6116  -22.3161  -16.3715 O   0  0  0  0  0  0  0  0  0  0  0  0
   25.3864  -20.7885   -7.7692 O   0  0  0  0  0  0  0  0  0  0  0  0
   25.7463  -20.5898   -9.0950 C   0  0  0  0  0  0  0  0  0  0  0  0
   26.7251  -21.3402   -9.7274 C   0  0  0  0  0  0  0  0  0  0  0  0
   27.0689  -21.1279  -11.0459 C   0  0  0  0  0  0  0  0  0  0  0  0
   26.4544  -20.1596  -11.7940 C   0  0  0  0  0  0  0  0  0  0  0  0
   26.7287  -19.8449  -13.1829 C   0  0  0  0  0  0  0  0  0  0  0  0
   25.9473  -20.6310  -14.1900 C   0  0  2  0  0  0  0  0  0  0  0  0
   26.2244  -20.2214  -15.5410 N   0  0  0  0  0  0  0  0  0  0  0  0
   24.5024  -20.5940  -13.8610 C   0  0  0  0  0  0  0  0  0  0  0  0
   23.8351  -19.6226  -14.3018 O   0  0  0  0  0  0  0  0  0  0  0  0
   25.4726  -19.4108  -11.1506 C   0  0  0  0  0  0  0  0  0  0  0  0
   25.1227  -19.6123   -9.8423 C   0  0  0  0  0  0  0  0  0  0  0  0
   23.8326  -21.5681  -13.0926 N   0  0  0  0  0  0  0  0  0  0  0  0
   22.4071  -21.6595  -13.1275 C   0  0  0  0  0  0  0  0  0  0  0  0
   21.7185  -20.4723  -12.6061 C   0  0  0  0  0  0  0  0  0  0  0  0
   21.2524  -20.4356  -11.3113 O   0  0  0  0  0  0  0  0  0  0  0  0
   21.5496  -19.4790  -13.3402 O   0  0  0  0  0  0  0  0  0  0  0  0
  2  1  1  6
  2  3  1  0
  2 10  1  0
  4  9  1  0
  4  3  1  0
  5  4  2  0
  6  7  2  0
  6  5  1  0
  7  8  1  0
  8  9  2  0
 10 11  2  0
 13 12  1  0
 13 14  2  0
 15 14  1  0
 16 15  2  0
 17 16  1  0
 18 17  1  1
 19 10  1  0
 19 18  1  0
 20 18  1  0
 20 21  2  0
 22 23  2  0
 22 16  1  0
 23 13  1  0
 24 20  1  0
 25 24  1  0
 25 26  1  0
 26 27  1  0
 28 26  2  0
M  END
$$$$
