FYG.pdb
     RDKit          3D

 28 29  0  0  1  0  0  0  0  0999 V2000
   23.0710  -18.2354  -18.1376 N   0  0  0  0  0  0  0  0  0  0  0  0
   22.2228  -18.1828  -16.9782 C   0  0  1  0  0  0  0  0  0  0  0  0
   20.8138  -17.7396  -17.3280 C   0  0  0  0  0  0  0  0  0  0  0  0
   20.8718  -16.3272  -17.7767 C   0  0  0  0  0  0  0  0  0  0  0  0
   21.2739  -15.2936  -16.9675 C   0  0  0  0  0  0  0  0  0  0  0  0
   21.3117  -13.9854  -17.4335 C   0  0  0  0  0  0  0  0  0  0  0  0
   20.9374  -13.7213  -18.7355 C   0  0  0  0  0  0  0  0  0  0  0  0
   20.5276  -14.7532  -19.5700 C   0  0  0  0  0  0  0  0  0  0  0  0
   20.5011  -16.0474  -19.0746 C   0  0  0  0  0  0  0  0  0  0  0  0
   22.1450  -19.5395  -16.3257 C   0  0  0  0  0  0  0  0  0  0  0  0
   22.1579  -20.5759  -17.0175 O   0  0  0  0  0  0  0  0  0  0  0  0
   28.0604  -21.8958  -16.3329 O   0  0  0  0  0  0  0  0  0  0  0  0
   26.8729  -21.7565  -15.6278 C   0  0  0  0  0  0  0  0  0  0  0  0
   25.9140  -22.7556  -15.5680 C   0  0  0  0  0  0  0  0  0  0  0  0
   24.7399  -22.5985  -14.8619 C   0  0  0  0  0  0  0  0  0  0  0  0
   24.4672  -21.4405  -14.1840 C   0  0  0  0  0  0  0  0  0  0  0  0
   23.2734  -21.1599  -13.4099 C   0  0  0  0  0  0  0  0  0  0  0  0
   22.0268  -20.9269  -14.2065 C   0  0  2  0  0  0  0  0  0  0  0  0
   22.0555  -19.6768  -14.9178 N   0  0  0  0  0  0  0  0  0  0  0  0
   20.8311  -21.0715  -13.3424 C   0  0  0  0  0  0  0  0  0  0  0  0
   20.6158  -20.1630  -12.4989 O   0  0  0  0  0  0  0  0  0  0  0  0
   25.4360  -20.4425  -14.2496 C   0  0  0  0  0  0  0  0  0  0  0  0
   26.6052  -20.5869  -14.9472 C   0  0  0  0  0  0  0  0  0  0  0  0
   19.9268  -22.1515  -13.4035 N   0  0  0  0  0  0  0  0  0  0  0  0
   18.8214  -22.2187  -12.5006 C   0  0  0  0  0  0  0  0  0  0  0  0
   18.9520  -23.2574  -11.4712 C   0  0  0  0  0  0  0  0  0  0  0  0
   19.8076  -24.3220  -11.6439 O   0  0  0  0  0  0  0  0  0  0  0  0
   18.2817  -23.1814  -10.4229 O   0  0  0  0  0  0  0  0  0  0  0  0
  2  1  1  6
  2  3  1  0
  2 10  1  0
  4  9  1  0
  4  3  1  0
  5  4  2  0
  6  7  2  0
  6  5  1  0
  7  8  1  0
  8  9  2  0
 10 11  2  0
 13 12  1  0
 13 14  2  0
 15 14  1  0
 16 15  2  0
 17 16  1  0
 18 17  1  1
 19 10  1  0
 19 18  1  0
 20 18  1  0
 20 21  2  0
 22 23  2  0
 22 16  1  0
 23 13  1  0
 24 20  1  0
 25 24  1  0
 25 26  1  0
 26 27  1  0
 28 26  2  0
M  END
$$$$
