FYG.pdb
     RDKit          3D

 28 29  0  0  1  0  0  0  0  0999 V2000
   24.9547  -11.7920  -17.7990 N   0  0  0  0  0  0  0  0  0  0  0  0
   24.6551  -10.8802  -16.7289 C   0  0  1  0  0  0  0  0  0  0  0  0
   25.7076   -9.7941  -16.6002 C   0  0  0  0  0  0  0  0  0  0  0  0
   27.0256  -10.4479  -16.4128 C   0  0  0  0  0  0  0  0  0  0  0  0
   28.0686  -10.3117  -17.2951 C   0  0  0  0  0  0  0  0  0  0  0  0
   29.2858  -10.9446  -17.0763 C   0  0  0  0  0  0  0  0  0  0  0  0
   29.4482  -11.7250  -15.9495 C   0  0  0  0  0  0  0  0  0  0  0  0
   28.4051  -11.8754  -15.0448 C   0  0  0  0  0  0  0  0  0  0  0  0
   27.2033  -11.2307  -15.2921 C   0  0  0  0  0  0  0  0  0  0  0  0
   23.3196  -10.2211  -16.9626 C   0  0  0  0  0  0  0  0  0  0  0  0
   22.8618  -10.1108  -18.1163 O   0  0  0  0  0  0  0  0  0  0  0  0
   14.8354   -8.4923  -16.3132 O   0  0  0  0  0  0  0  0  0  0  0  0
   16.1534   -8.8074  -16.0130 C   0  0  0  0  0  0  0  0  0  0  0  0
   16.8445   -8.2226  -14.9634 C   0  0  0  0  0  0  0  0  0  0  0  0
   18.1542   -8.5488  -14.6807 C   0  0  0  0  0  0  0  0  0  0  0  0
   18.8348   -9.4713  -15.4293 C   0  0  0  0  0  0  0  0  0  0  0  0
   20.2073   -9.8950  -15.2293 C   0  0  0  0  0  0  0  0  0  0  0  0
   21.2379   -9.1346  -16.0055 C   0  0  2  0  0  0  0  0  0  0  0  0
   22.5505   -9.7112  -15.8866 N   0  0  0  0  0  0  0  0  0  0  0  0
   21.2028   -7.6994  -15.6365 C   0  0  0  0  0  0  0  0  0  0  0  0
   21.7770   -7.3643  -14.5682 O   0  0  0  0  0  0  0  0  0  0  0  0
   18.1328  -10.0536  -16.4814 C   0  0  0  0  0  0  0  0  0  0  0  0
   16.8326   -9.7379  -16.7718 C   0  0  0  0  0  0  0  0  0  0  0  0
   20.5731   -6.6936  -16.3979 N   0  0  0  0  0  0  0  0  0  0  0  0
   20.4985   -5.3550  -15.9037 C   0  0  0  0  0  0  0  0  0  0  0  0
   21.6826   -4.5401  -16.2025 C   0  0  0  0  0  0  0  0  0  0  0  0
   21.7661   -3.2317  -15.7827 O   0  0  0  0  0  0  0  0  0  0  0  0
   22.6304   -5.0328  -16.8451 O   0  0  0  0  0  0  0  0  0  0  0  0
  2  1  1  6
  2  3  1  0
  2 10  1  0
  4  9  1  0
  4  3  1  0
  5  4  2  0
  6  7  2  0
  6  5  1  0
  7  8  1  0
  8  9  2  0
 10 11  2  0
 13 12  1  0
 13 14  2  0
 15 14  1  0
 16 15  2  0
 17 16  1  0
 18 17  1  1
 19 10  1  0
 19 18  1  0
 20 18  1  0
 20 21  2  0
 22 23  2  0
 22 16  1  0
 23 13  1  0
 24 20  1  0
 25 24  1  0
 25 26  1  0
 26 27  1  0
 28 26  2  0
M  END
$$$$
