FYG.pdb
     RDKit          3D

 28 29  0  0  1  0  0  0  0  0999 V2000
   26.0472  -22.6910  -18.6448 N   0  0  0  0  0  0  0  0  0  0  0  0
   25.7338  -21.4668  -17.9599 C   0  0  1  0  0  0  0  0  0  0  0  0
   24.5252  -20.7746  -18.5634 C   0  0  0  0  0  0  0  0  0  0  0  0
   24.8922  -20.3050  -19.9214 C   0  0  0  0  0  0  0  0  0  0  0  0
   25.8033  -19.3048  -20.1543 C   0  0  0  0  0  0  0  0  0  0  0  0
   26.1147  -18.8989  -21.4459 C   0  0  0  0  0  0  0  0  0  0  0  0
   25.4952  -19.5143  -22.5149 C   0  0  0  0  0  0  0  0  0  0  0  0
   24.5706  -20.5283  -22.3003 C   0  0  0  0  0  0  0  0  0  0  0  0
   24.2820  -20.9099  -20.9995 C   0  0  0  0  0  0  0  0  0  0  0  0
   25.4464  -21.7405  -16.5056 C   0  0  0  0  0  0  0  0  0  0  0  0
   24.8254  -22.7660  -16.1656 O   0  0  0  0  0  0  0  0  0  0  0  0
   25.5879  -20.5619   -7.6511 O   0  0  0  0  0  0  0  0  0  0  0  0
   25.8606  -20.5793   -9.0119 C   0  0  0  0  0  0  0  0  0  0  0  0
   26.3552  -21.6979   -9.6640 C   0  0  0  0  0  0  0  0  0  0  0  0
   26.6201  -21.6958  -11.0174 C   0  0  0  0  0  0  0  0  0  0  0  0
   26.4047  -20.5808  -11.7824 C   0  0  0  0  0  0  0  0  0  0  0  0
   26.6436  -20.4586  -13.2076 C   0  0  0  0  0  0  0  0  0  0  0  0
   25.5482  -20.9685  -14.0924 C   0  0  2  0  0  0  0  0  0  0  0  0
   25.8700  -20.8478  -15.4894 N   0  0  0  0  0  0  0  0  0  0  0  0
   24.2611  -20.3237  -13.7392 C   0  0  0  0  0  0  0  0  0  0  0  0
   24.1548  -19.0894  -13.9592 O   0  0  0  0  0  0  0  0  0  0  0  0
   25.9079  -19.4619  -11.1191 C   0  0  0  0  0  0  0  0  0  0  0  0
   25.6412  -19.4520   -9.7762 C   0  0  0  0  0  0  0  0  0  0  0  0
   23.1574  -20.9975  -13.1774 N   0  0  0  0  0  0  0  0  0  0  0  0
   21.9770  -20.2758  -12.8204 C   0  0  0  0  0  0  0  0  0  0  0  0
   20.8864  -21.1221  -12.3205 C   0  0  0  0  0  0  0  0  0  0  0  0
   20.9974  -22.4943  -12.3218 O   0  0  0  0  0  0  0  0  0  0  0  0
   19.8416  -20.5982  -11.8871 O   0  0  0  0  0  0  0  0  0  0  0  0
  2  1  1  6
  2  3  1  0
  2 10  1  0
  4  9  1  0
  4  3  1  0
  5  4  2  0
  6  7  2  0
  6  5  1  0
  7  8  1  0
  8  9  2  0
 10 11  2  0
 13 12  1  0
 13 14  2  0
 15 14  1  0
 16 15  2  0
 17 16  1  0
 18 17  1  1
 19 10  1  0
 19 18  1  0
 20 18  1  0
 20 21  2  0
 22 23  2  0
 22 16  1  0
 23 13  1  0
 24 20  1  0
 25 24  1  0
 25 26  1  0
 26 27  1  0
 28 26  2  0
M  END
$$$$
