FYG.pdb
     RDKit          3D

 28 29  0  0  1  0  0  0  0  0999 V2000
   28.3739  -23.2446  -11.8076 N   0  0  0  0  0  0  0  0  0  0  0  0
   28.4586  -21.8110  -11.8678 C   0  0  1  0  0  0  0  0  0  0  0  0
   29.8173  -21.3450  -12.3587 C   0  0  0  0  0  0  0  0  0  0  0  0
   30.8339  -21.7500  -11.3578 C   0  0  0  0  0  0  0  0  0  0  0  0
   30.9167  -21.2030  -10.1013 C   0  0  0  0  0  0  0  0  0  0  0  0
   31.8877  -21.6155   -9.1974 C   0  0  0  0  0  0  0  0  0  0  0  0
   32.7859  -22.5945   -9.5714 C   0  0  0  0  0  0  0  0  0  0  0  0
   32.7188  -23.1605  -10.8380 C   0  0  0  0  0  0  0  0  0  0  0  0
   31.7382  -22.7268  -11.7163 C   0  0  0  0  0  0  0  0  0  0  0  0
   27.4053  -21.2639  -12.7971 C   0  0  0  0  0  0  0  0  0  0  0  0
   26.8562  -22.0035  -13.6363 O   0  0  0  0  0  0  0  0  0  0  0  0
   21.9742  -21.6699   -8.9560 O   0  0  0  0  0  0  0  0  0  0  0  0
   22.7407  -20.8932   -9.8138 C   0  0  0  0  0  0  0  0  0  0  0  0
   23.8633  -20.1966   -9.3943 C   0  0  0  0  0  0  0  0  0  0  0  0
   24.6124  -19.4299  -10.2619 C   0  0  0  0  0  0  0  0  0  0  0  0
   24.2783  -19.3219  -11.5854 C   0  0  0  0  0  0  0  0  0  0  0  0
   24.9857  -18.5502  -12.5889 C   0  0  0  0  0  0  0  0  0  0  0  0
   25.9091  -19.3312  -13.4723 C   0  0  2  0  0  0  0  0  0  0  0  0
   27.0108  -19.9035  -12.7454 N   0  0  0  0  0  0  0  0  0  0  0  0
   26.3447  -18.5013  -14.6207 C   0  0  0  0  0  0  0  0  0  0  0  0
   25.4540  -17.8719  -15.2482 O   0  0  0  0  0  0  0  0  0  0  0  0
   23.1494  -20.0249  -11.9978 C   0  0  0  0  0  0  0  0  0  0  0  0
   22.3979  -20.7892  -11.1459 C   0  0  0  0  0  0  0  0  0  0  0  0
   27.6807  -18.3722  -15.0521 N   0  0  0  0  0  0  0  0  0  0  0  0
   27.9953  -17.5779  -16.1975 C   0  0  0  0  0  0  0  0  0  0  0  0
   27.9362  -18.3108  -17.4683 C   0  0  0  0  0  0  0  0  0  0  0  0
   27.2614  -19.5067  -17.5654 O   0  0  0  0  0  0  0  0  0  0  0  0
   28.5027  -17.8499  -18.4786 O   0  0  0  0  0  0  0  0  0  0  0  0
  2  1  1  6
  2  3  1  0
  2 10  1  0
  4  9  1  0
  4  3  1  0
  5  4  2  0
  6  7  2  0
  6  5  1  0
  7  8  1  0
  8  9  2  0
 10 11  2  0
 13 12  1  0
 13 14  2  0
 15 14  1  0
 16 15  2  0
 17 16  1  0
 18 17  1  1
 19 10  1  0
 19 18  1  0
 20 18  1  0
 20 21  2  0
 22 23  2  0
 22 16  1  0
 23 13  1  0
 24 20  1  0
 25 24  1  0
 25 26  1  0
 26 27  1  0
 28 26  2  0
M  END
$$$$
