VKL.pdb
     RDKit          3D

 25 24  0  0  1  0  0  0  0  0999 V2000
   16.0630  -13.4845  -15.7246 C   0  0  0  0  0  0  0  0  0  0  0  0
   16.6315  -14.8528  -15.9441 C   0  0  1  0  0  0  0  0  0  0  0  0
   15.5017  -15.8467  -15.8890 C   0  0  0  0  0  0  0  0  0  0  0  0
   17.3439  -14.8765  -17.2780 C   0  0  2  0  0  0  0  0  0  0  0  0
   17.8835  -16.1927  -17.5134 N   0  0  0  0  0  0  0  0  0  0  0  0
   18.4252  -13.8727  -17.3604 C   0  0  0  0  0  0  0  0  0  0  0  0
   19.5130  -14.0467  -16.7816 O   0  0  0  0  0  0  0  0  0  0  0  0
   18.2169  -12.7025  -18.1068 N   0  0  0  0  0  0  0  0  0  0  0  0
   19.2141  -11.6913  -18.3926 C   0  0  1  0  0  0  0  0  0  0  0  0
   18.7113  -10.8680  -19.5265 C   0  0  0  0  0  0  0  0  0  0  0  0
   19.6832   -9.7724  -19.8480 C   0  0  0  0  0  0  0  0  0  0  0  0
   20.8786  -10.2810  -20.5860 C   0  0  0  0  0  0  0  0  0  0  0  0
   21.8560   -9.1443  -20.9045 C   0  0  0  0  0  0  0  0  0  0  0  0
   22.9036   -9.6735  -21.7240 N   0  0  0  0  0  0  0  0  0  0  0  0
   19.3929  -10.8796  -17.1495 C   0  0  0  0  0  0  0  0  0  0  0  0
   18.3970  -10.6682  -16.4252 O   0  0  0  0  0  0  0  0  0  0  0  0
   21.7222   -9.2991  -12.4214 C   0  0  0  0  0  0  0  0  0  0  0  0
   22.5560   -9.2916  -13.6433 C   0  0  2  0  0  0  0  0  0  0  0  0
   22.9130   -7.8069  -13.9216 C   0  0  0  0  0  0  0  0  0  0  0  0
   22.0704   -9.9148  -14.8765 C   0  0  0  0  0  0  0  0  0  0  0  0
   20.7424   -9.6116  -15.4450 C   0  0  2  0  0  0  0  0  0  0  0  0
   20.6186  -10.3415  -16.7509 N   0  0  0  0  0  0  0  0  0  0  0  0
   20.4962   -8.2111  -15.8002 C   0  0  0  0  0  0  0  0  0  0  0  0
   20.7788   -7.6803  -16.9242 O   0  0  0  0  0  0  0  0  0  0  0  0
   19.9009   -7.3242  -14.8705 O   0  0  0  0  0  0  0  0  0  0  0  0
  2  1  1  6
  2  4  1  0
  3  2  1  0
  4  5  1  1
  4  6  1  0
  6  8  1  0
  6  7  2  0
  8  9  1  0
  9 10  1  6
 11 10  1  0
 12 11  1  0
 12 13  1  0
 13 14  1  0
 15  9  1  0
 15 22  1  0
 16 15  2  0
 18 17  1  1
 18 20  1  0
 19 18  1  0
 21 20  1  6
 21 22  1  0
 21 23  1  0
 23 25  1  0
 24 23  2  0
M  END
$$$$
