VKL.pdb
     RDKit          3D

 25 24  0  0  1  0  0  0  0  0999 V2000
   19.2080  -19.6039  -12.1384 C   0  0  0  0  0  0  0  0  0  0  0  0
   20.2939  -20.5418  -11.7082 C   0  0  1  0  0  0  0  0  0  0  0  0
   20.7138  -21.3560  -12.9032 C   0  0  0  0  0  0  0  0  0  0  0  0
   21.4396  -19.7337  -11.1410 C   0  0  2  0  0  0  0  0  0  0  0  0
   21.8408  -18.7299  -12.0951 N   0  0  0  0  0  0  0  0  0  0  0  0
   22.6018  -20.5732  -10.7827 C   0  0  0  0  0  0  0  0  0  0  0  0
   22.4644  -21.6159  -10.1174 O   0  0  0  0  0  0  0  0  0  0  0  0
   23.8829  -20.1830  -11.2028 N   0  0  0  0  0  0  0  0  0  0  0  0
   25.0931  -20.9683  -11.0713 C   0  0  1  0  0  0  0  0  0  0  0  0
   25.7649  -20.9897  -12.3997 C   0  0  0  0  0  0  0  0  0  0  0  0
   25.5790  -22.3240  -13.0579 C   0  0  0  0  0  0  0  0  0  0  0  0
   26.3196  -22.4198  -14.3520 C   0  0  0  0  0  0  0  0  0  0  0  0
   25.9697  -23.7142  -15.0943 C   0  0  0  0  0  0  0  0  0  0  0  0
   26.6860  -23.7252  -16.3335 N   0  0  0  0  0  0  0  0  0  0  0  0
   25.9390  -20.3102  -10.0285 C   0  0  0  0  0  0  0  0  0  0  0  0
   25.9919  -19.0621  -10.0019 O   0  0  0  0  0  0  0  0  0  0  0  0
   28.2975  -18.4787   -5.9405 C   0  0  0  0  0  0  0  0  0  0  0  0
   27.5930  -19.7767   -6.0261 C   0  0  2  0  0  0  0  0  0  0  0  0
   27.7127  -20.4339   -4.6250 C   0  0  0  0  0  0  0  0  0  0  0  0
   27.9592  -20.7530   -7.0546 C   0  0  0  0  0  0  0  0  0  0  0  0
   27.9308  -20.4314   -8.4949 C   0  0  2  0  0  0  0  0  0  0  0  0
   26.6774  -21.0174   -9.0770 N   0  0  0  0  0  0  0  0  0  0  0  0
   29.0021  -21.0140   -9.3081 C   0  0  0  0  0  0  0  0  0  0  0  0
   28.9066  -22.0927   -9.9807 O   0  0  0  0  0  0  0  0  0  0  0  0
   30.2658  -20.3812   -9.3983 O   0  0  0  0  0  0  0  0  0  0  0  0
  2  1  1  6
  2  4  1  0
  3  2  1  0
  4  5  1  6
  4  6  1  0
  6  8  1  0
  6  7  2  0
  8  9  1  0
  9 10  1  6
 11 10  1  0
 12 11  1  0
 12 13  1  0
 13 14  1  0
 15  9  1  0
 15 22  1  0
 16 15  2  0
 18 17  1  1
 18 20  1  0
 19 18  1  0
 21 20  1  1
 21 22  1  0
 21 23  1  0
 23 25  1  0
 24 23  2  0
M  END
$$$$
