VKL.pdb
     RDKit          3D

 25 24  0  0  1  0  0  0  0  0999 V2000
   28.1440  -17.7189  -17.1799 C   0  0  0  0  0  0  0  0  0  0  0  0
   27.1257  -17.7393  -16.0815 C   0  0  1  0  0  0  0  0  0  0  0  0
   25.7871  -18.0707  -16.6863 C   0  0  0  0  0  0  0  0  0  0  0  0
   27.5474  -18.7562  -15.0445 C   0  0  2  0  0  0  0  0  0  0  0  0
   27.7068  -20.0454  -15.6700 N   0  0  0  0  0  0  0  0  0  0  0  0
   26.5844  -18.8596  -13.9284 C   0  0  0  0  0  0  0  0  0  0  0  0
   26.2446  -17.8571  -13.2740 O   0  0  0  0  0  0  0  0  0  0  0  0
   26.0456  -20.1142  -13.6039 N   0  0  0  0  0  0  0  0  0  0  0  0
   25.0250  -20.3656  -12.6070 C   0  0  1  0  0  0  0  0  0  0  0  0
   24.1283  -21.4297  -13.1360 C   0  0  0  0  0  0  0  0  0  0  0  0
   23.1057  -20.8397  -14.0602 C   0  0  0  0  0  0  0  0  0  0  0  0
   21.7118  -21.0588  -13.5687 C   0  0  0  0  0  0  0  0  0  0  0  0
   20.6896  -20.3758  -14.4838 C   0  0  0  0  0  0  0  0  0  0  0  0
   19.3790  -20.6939  -14.0041 N   0  0  0  0  0  0  0  0  0  0  0  0
   25.7220  -20.7942  -11.3553 C   0  0  0  0  0  0  0  0  0  0  0  0
   26.5644  -21.7144  -11.4254 O   0  0  0  0  0  0  0  0  0  0  0  0
   26.8999  -20.4143   -5.8020 C   0  0  0  0  0  0  0  0  0  0  0  0
   27.6396  -19.9129   -6.9809 C   0  0  2  0  0  0  0  0  0  0  0  0
   28.2946  -18.5731   -6.5504 C   0  0  0  0  0  0  0  0  0  0  0  0
   26.9559  -19.7306   -8.2632 C   0  0  0  0  0  0  0  0  0  0  0  0
   26.1214  -20.7858   -8.8705 C   0  0  2  0  0  0  0  0  0  0  0  0
   25.4824  -20.2195  -10.1052 N   0  0  0  0  0  0  0  0  0  0  0  0
   24.9862  -21.2527   -8.0695 C   0  0  0  0  0  0  0  0  0  0  0  0
   23.7984  -20.7964   -8.1472 O   0  0  0  0  0  0  0  0  0  0  0  0
   25.1513  -22.2880   -7.1175 O   0  0  0  0  0  0  0  0  0  0  0  0
  2  1  1  6
  2  4  1  0
  3  2  1  0
  4  5  1  6
  4  6  1  0
  6  8  1  0
  6  7  2  0
  8  9  1  0
  9 10  1  6
 11 10  1  0
 12 11  1  0
 12 13  1  0
 13 14  1  0
 15  9  1  0
 15 22  1  0
 16 15  2  0
 18 17  1  1
 18 20  1  0
 19 18  1  0
 21 20  1  1
 21 22  1  0
 21 23  1  0
 23 25  1  0
 24 23  2  0
M  END
$$$$
