VKL.pdb
     RDKit          3D

 25 24  0  0  1  0  0  0  0  0999 V2000
   18.9457  -13.1597  -15.0100 C   0  0  0  0  0  0  0  0  0  0  0  0
   18.3934  -14.0033  -16.1178 C   0  0  1  0  0  0  0  0  0  0  0  0
   17.8426  -15.2690  -15.5162 C   0  0  0  0  0  0  0  0  0  0  0  0
   17.3312  -13.2132  -16.8490 C   0  0  2  0  0  0  0  0  0  0  0  0
   16.8527  -13.9754  -17.9754 N   0  0  0  0  0  0  0  0  0  0  0  0
   17.8209  -11.8972  -17.3098 C   0  0  0  0  0  0  0  0  0  0  0  0
   18.5851  -11.7989  -18.2869 O   0  0  0  0  0  0  0  0  0  0  0  0
   17.4135  -10.7393  -16.6293 N   0  0  0  0  0  0  0  0  0  0  0  0
   17.8296   -9.3859  -16.9363 C   0  0  1  0  0  0  0  0  0  0  0  0
   16.6126   -8.5284  -16.9393 C   0  0  0  0  0  0  0  0  0  0  0  0
   16.0175   -8.4704  -18.3143 C   0  0  0  0  0  0  0  0  0  0  0  0
   14.8149   -7.5854  -18.3687 C   0  0  0  0  0  0  0  0  0  0  0  0
   14.1579   -7.6307  -19.7526 C   0  0  0  0  0  0  0  0  0  0  0  0
   13.1050   -6.6614  -19.7783 N   0  0  0  0  0  0  0  0  0  0  0  0
   18.8032   -8.9698  -15.8803 C   0  0  0  0  0  0  0  0  0  0  0  0
   18.4911   -9.1336  -14.6816 O   0  0  0  0  0  0  0  0  0  0  0  0
   22.3378  -10.4033  -13.3851 C   0  0  0  0  0  0  0  0  0  0  0  0
   22.5101  -10.0282  -14.8057 C   0  0  2  0  0  0  0  0  0  0  0  0
   23.9536  -10.4436  -15.1969 C   0  0  0  0  0  0  0  0  0  0  0  0
   22.2633   -8.6531  -15.2451 C   0  0  0  0  0  0  0  0  0  0  0  0
   20.9633   -7.9822  -15.0483 C   0  0  2  0  0  0  0  0  0  0  0  0
   20.0492   -8.4051  -16.1614 N   0  0  0  0  0  0  0  0  0  0  0  0
   20.9715   -6.5192  -15.1365 C   0  0  0  0  0  0  0  0  0  0  0  0
   20.5753   -5.8442  -16.1428 O   0  0  0  0  0  0  0  0  0  0  0  0
   21.4421   -5.7332  -14.0567 O   0  0  0  0  0  0  0  0  0  0  0  0
  2  1  1  1
  2  4  1  0
  3  2  1  0
  4  5  1  6
  4  6  1  0
  6  8  1  0
  6  7  2  0
  8  9  1  0
  9 10  1  1
 11 10  1  0
 12 11  1  0
 12 13  1  0
 13 14  1  0
 15  9  1  0
 15 22  1  0
 16 15  2  0
 18 17  1  1
 18 20  1  0
 19 18  1  0
 21 20  1  6
 21 22  1  0
 21 23  1  0
 23 25  1  0
 24 23  2  0
M  END
$$$$
