VKL.pdb
     RDKit          3D

 25 24  0  0  1  0  0  0  0  0999 V2000
   34.1487  -31.2532  -20.5418 C   0  0  0  0  0  0  0  0  0  0  0  0
   33.0759  -31.0286  -19.5207 C   0  0  1  0  0  0  0  0  0  0  0  0
   33.2084  -32.0870  -18.4579 C   0  0  0  0  0  0  0  0  0  0  0  0
   33.2257  -29.6341  -18.9549 C   0  0  2  0  0  0  0  0  0  0  0  0
   34.5540  -29.4712  -18.4184 N   0  0  0  0  0  0  0  0  0  0  0  0
   32.2257  -29.3372  -17.9081 C   0  0  0  0  0  0  0  0  0  0  0  0
   32.5405  -29.3080  -16.7045 O   0  0  0  0  0  0  0  0  0  0  0  0
   30.8972  -29.0842  -18.2833 N   0  0  0  0  0  0  0  0  0  0  0  0
   29.8238  -28.6979  -17.3904 C   0  0  1  0  0  0  0  0  0  0  0  0
   29.3115  -27.3758  -17.8444 C   0  0  0  0  0  0  0  0  0  0  0  0
   28.1916  -26.9173  -16.9591 C   0  0  0  0  0  0  0  0  0  0  0  0
   27.6390  -25.5979  -17.3906 C   0  0  0  0  0  0  0  0  0  0  0  0
   26.5639  -25.1040  -16.4164 C   0  0  0  0  0  0  0  0  0  0  0  0
   26.1761  -23.7841  -16.8119 N   0  0  0  0  0  0  0  0  0  0  0  0
   28.7748  -29.7606  -17.4704 C   0  0  0  0  0  0  0  0  0  0  0  0
   28.4689  -30.2151  -18.5934 O   0  0  0  0  0  0  0  0  0  0  0  0
   25.8182  -33.7597  -13.6951 C   0  0  0  0  0  0  0  0  0  0  0  0
   26.2251  -33.3142  -15.0458 C   0  0  2  0  0  0  0  0  0  0  0  0
   26.9581  -34.5151  -15.7014 C   0  0  0  0  0  0  0  0  0  0  0  0
   27.0286  -32.1015  -15.2163 C   0  0  0  0  0  0  0  0  0  0  0  0
   27.1124  -31.3839  -16.5034 C   0  0  2  0  0  0  0  0  0  0  0  0
   28.1143  -30.2762  -16.3531 N   0  0  0  0  0  0  0  0  0  0  0  0
   25.8933  -30.6984  -16.9415 C   0  0  0  0  0  0  0  0  0  0  0  0
   25.5170  -29.5474  -16.5429 O   0  0  0  0  0  0  0  0  0  0  0  0
   25.0211  -31.3042  -17.8784 O   0  0  0  0  0  0  0  0  0  0  0  0
  2  1  1  6
  2  4  1  0
  3  2  1  0
  4  5  1  1
  4  6  1  0
  6  8  1  0
  6  7  2  0
  8  9  1  0
  9 10  1  6
 11 10  1  0
 12 11  1  0
 12 13  1  0
 13 14  1  0
 15  9  1  0
 15 22  1  0
 16 15  2  0
 18 17  1  1
 18 20  1  0
 19 18  1  0
 21 20  1  1
 21 22  1  0
 21 23  1  0
 23 25  1  0
 24 23  2  0
M  END
$$$$
