VKL.pdb
     RDKit          3D

 25 24  0  0  1  0  0  0  0  0999 V2000
   17.1498  -14.3333  -18.3300 C   0  0  0  0  0  0  0  0  0  0  0  0
   16.0804  -14.5462  -17.3029 C   0  0  1  0  0  0  0  0  0  0  0  0
   16.1982  -15.9554  -16.7856 C   0  0  0  0  0  0  0  0  0  0  0  0
   16.2498  -13.5218  -16.2032 C   0  0  2  0  0  0  0  0  0  0  0  0
   14.9544  -13.0617  -15.7687 N   0  0  0  0  0  0  0  0  0  0  0  0
   17.0723  -12.3688  -16.6251 C   0  0  0  0  0  0  0  0  0  0  0  0
   18.2566  -12.5154  -16.9779 O   0  0  0  0  0  0  0  0  0  0  0  0
   16.5025  -11.0862  -16.6263 N   0  0  0  0  0  0  0  0  0  0  0  0
   17.1775   -9.8599  -16.9995 C   0  0  1  0  0  0  0  0  0  0  0  0
   16.1334   -8.8489  -17.3218 C   0  0  0  0  0  0  0  0  0  0  0  0
   16.0838   -8.6017  -18.7998 C   0  0  0  0  0  0  0  0  0  0  0  0
   15.0221   -7.6174  -19.1692 C   0  0  0  0  0  0  0  0  0  0  0  0
   14.9478   -7.4291  -20.6884 C   0  0  0  0  0  0  0  0  0  0  0  0
   13.7851   -6.6485  -20.9846 N   0  0  0  0  0  0  0  0  0  0  0  0
   18.0178   -9.4429  -15.8349 C   0  0  0  0  0  0  0  0  0  0  0  0
   17.5531   -9.5794  -14.6831 O   0  0  0  0  0  0  0  0  0  0  0  0
   23.1979   -8.1811  -13.7048 C   0  0  0  0  0  0  0  0  0  0  0  0
   22.1955   -9.2529  -13.5181 C   0  0  2  0  0  0  0  0  0  0  0  0
   22.9929  -10.5705  -13.3257 C   0  0  0  0  0  0  0  0  0  0  0  0
   21.1404   -9.4631  -14.5119 C   0  0  0  0  0  0  0  0  0  0  0  0
   20.0719   -8.4732  -14.7511 C   0  0  2  0  0  0  0  0  0  0  0  0
   19.3007   -8.9062  -15.9641 N   0  0  0  0  0  0  0  0  0  0  0  0
   20.5118   -7.1145  -15.0804 C   0  0  0  0  0  0  0  0  0  0  0  0
   20.8179   -6.2172  -14.2281 O   0  0  0  0  0  0  0  0  0  0  0  0
   20.6284   -6.7003  -16.4296 O   0  0  0  0  0  0  0  0  0  0  0  0
  2  1  1  6
  2  4  1  0
  3  2  1  0
  4  5  1  6
  4  6  1  0
  6  8  1  0
  6  7  2  0
  8  9  1  0
  9 10  1  1
 11 10  1  0
 12 11  1  0
 12 13  1  0
 13 14  1  0
 15  9  1  0
 15 22  1  0
 16 15  2  0
 18 17  1  6
 18 20  1  0
 19 18  1  0
 21 20  1  6
 21 22  1  0
 21 23  1  0
 23 25  1  0
 24 23  2  0
M  END
$$$$
