VKL.pdb
     RDKit          3D

 25 24  0  0  1  0  0  0  0  0999 V2000
   28.6318  -19.2455  -16.5724 C   0  0  0  0  0  0  0  0  0  0  0  0
   27.6408  -18.8955  -15.5050 C   0  0  1  0  0  0  0  0  0  0  0  0
   26.2568  -19.0941  -16.0639 C   0  0  0  0  0  0  0  0  0  0  0  0
   27.8961  -19.7695  -14.2974 C   0  0  2  0  0  0  0  0  0  0  0  0
   27.7063  -21.1534  -14.6546 N   0  0  0  0  0  0  0  0  0  0  0  0
   27.0238  -19.4257  -13.1550 C   0  0  0  0  0  0  0  0  0  0  0  0
   26.9678  -18.2640  -12.7124 O   0  0  0  0  0  0  0  0  0  0  0  0
   26.2458  -20.4317  -12.5615 N   0  0  0  0  0  0  0  0  0  0  0  0
   25.2770  -20.2389  -11.5018 C   0  0  1  0  0  0  0  0  0  0  0  0
   24.0345  -20.9627  -11.8877 C   0  0  0  0  0  0  0  0  0  0  0  0
   23.2245  -20.1380  -12.8426 C   0  0  0  0  0  0  0  0  0  0  0  0
   21.9537  -20.8191  -13.2345 C   0  0  0  0  0  0  0  0  0  0  0  0
   21.1806  -19.9935  -14.2686 C   0  0  0  0  0  0  0  0  0  0  0  0
   20.0305  -20.7452  -14.6699 N   0  0  0  0  0  0  0  0  0  0  0  0
   25.8760  -20.7881  -10.2465 C   0  0  0  0  0  0  0  0  0  0  0  0
   26.4006  -21.9216  -10.2807 O   0  0  0  0  0  0  0  0  0  0  0  0
   29.3831  -20.4884   -6.9196 C   0  0  0  0  0  0  0  0  0  0  0  0
   28.3195  -19.4672   -7.0387 C   0  0  2  0  0  0  0  0  0  0  0  0
   28.6798  -18.3396   -6.0348 C   0  0  0  0  0  0  0  0  0  0  0  0
   26.9128  -19.8381   -6.8698 C   0  0  0  0  0  0  0  0  0  0  0  0
   26.2394  -20.8074   -7.7562 C   0  0  2  0  0  0  0  0  0  0  0  0
   25.8815  -20.1002   -9.0311 N   0  0  0  0  0  0  0  0  0  0  0  0
   24.9602  -21.3397   -7.2783 C   0  0  0  0  0  0  0  0  0  0  0  0
   23.8126  -20.9669   -7.6894 O   0  0  0  0  0  0  0  0  0  0  0  0
   24.9236  -22.3480   -6.2846 O   0  0  0  0  0  0  0  0  0  0  0  0
  2  1  1  6
  2  4  1  0
  3  2  1  0
  4  5  1  6
  4  6  1  0
  6  8  1  0
  6  7  2  0
  8  9  1  0
  9 10  1  6
 11 10  1  0
 12 11  1  0
 12 13  1  0
 13 14  1  0
 15  9  1  0
 15 22  1  0
 16 15  2  0
 18 17  1  1
 18 20  1  0
 19 18  1  0
 21 20  1  1
 21 22  1  0
 21 23  1  0
 23 25  1  0
 24 23  2  0
M  END
$$$$
