VKL.pdb
     RDKit          3D

 25 24  0  0  1  0  0  0  0  0999 V2000
   18.6868  -26.4942   -8.5568 C   0  0  0  0  0  0  0  0  0  0  0  0
   18.8296  -25.2115   -9.3172 C   0  0  1  0  0  0  0  0  0  0  0  0
   17.5004  -24.8859   -9.9453 C   0  0  0  0  0  0  0  0  0  0  0  0
   19.2882  -24.1292   -8.3656 C   0  0  2  0  0  0  0  0  0  0  0  0
   18.3203  -23.9746   -7.3082 N   0  0  0  0  0  0  0  0  0  0  0  0
   19.4983  -22.8322   -9.0421 C   0  0  0  0  0  0  0  0  0  0  0  0
   18.6735  -21.9067   -8.9338 O   0  0  0  0  0  0  0  0  0  0  0  0
   20.6513  -22.6455   -9.8202 N   0  0  0  0  0  0  0  0  0  0  0  0
   21.0061  -21.4343  -10.5315 C   0  0  1  0  0  0  0  0  0  0  0  0
   22.4826  -21.4377  -10.7220 C   0  0  0  0  0  0  0  0  0  0  0  0
   23.1657  -20.8545   -9.5214 C   0  0  0  0  0  0  0  0  0  0  0  0
   24.6494  -20.8025   -9.6897 C   0  0  0  0  0  0  0  0  0  0  0  0
   25.3268  -20.2234   -8.4429 C   0  0  0  0  0  0  0  0  0  0  0  0
   26.7421  -20.2374   -8.6571 N   0  0  0  0  0  0  0  0  0  0  0  0
   20.2749  -21.4543  -11.8358 C   0  0  0  0  0  0  0  0  0  0  0  0
   20.1754  -22.5386  -12.4487 O   0  0  0  0  0  0  0  0  0  0  0  0
   16.3437  -17.8712  -15.0942 C   0  0  0  0  0  0  0  0  0  0  0  0
   17.0877  -19.1388  -14.9265 C   0  0  2  0  0  0  0  0  0  0  0  0
   16.0309  -20.2751  -14.9585 C   0  0  0  0  0  0  0  0  0  0  0  0
   17.9751  -19.3316  -13.7774 C   0  0  0  0  0  0  0  0  0  0  0  0
   18.9741  -20.4169  -13.7241 C   0  0  2  0  0  0  0  0  0  0  0  0
   19.6937  -20.3217  -12.4101 N   0  0  0  0  0  0  0  0  0  0  0  0
   20.0486  -20.3553  -14.7189 C   0  0  0  0  0  0  0  0  0  0  0  0
   21.1207  -19.6762  -14.5976 O   0  0  0  0  0  0  0  0  0  0  0  0
   19.9536  -21.0822  -15.9305 O   0  0  0  0  0  0  0  0  0  0  0  0
  2  1  1  1
  2  4  1  0
  3  2  1  0
  4  5  1  1
  4  6  1  0
  6  8  1  0
  6  7  2  0
  8  9  1  0
  9 10  1  6
 11 10  1  0
 12 11  1  0
 12 13  1  0
 13 14  1  0
 15  9  1  0
 15 22  1  0
 16 15  2  0
 18 17  1  1
 18 20  1  0
 19 18  1  0
 21 20  1  6
 21 22  1  0
 21 23  1  0
 23 25  1  0
 24 23  2  0
M  END
$$$$
