VKL.pdb
     RDKit          3D

 25 24  0  0  1  0  0  0  0  0999 V2000
   28.9151  -18.8094  -16.7697 C   0  0  0  0  0  0  0  0  0  0  0  0
   28.0666  -18.9458  -15.5427 C   0  0  1  0  0  0  0  0  0  0  0  0
   28.0470  -17.6176  -14.8337 C   0  0  0  0  0  0  0  0  0  0  0  0
   26.6809  -19.3896  -15.9552 C   0  0  2  0  0  0  0  0  0  0  0  0
   26.1909  -18.5295  -17.0034 N   0  0  0  0  0  0  0  0  0  0  0  0
   25.7275  -19.3918  -14.8261 C   0  0  0  0  0  0  0  0  0  0  0  0
   25.0740  -18.3747  -14.5311 O   0  0  0  0  0  0  0  0  0  0  0  0
   25.5593  -20.5655  -14.0751 N   0  0  0  0  0  0  0  0  0  0  0  0
   24.6401  -20.7388  -12.9688 C   0  0  1  0  0  0  0  0  0  0  0  0
   23.6975  -21.8326  -13.3311 C   0  0  0  0  0  0  0  0  0  0  0  0
   22.2852  -21.4246  -13.0360 C   0  0  0  0  0  0  0  0  0  0  0  0
   21.5643  -20.9691  -14.2629 C   0  0  0  0  0  0  0  0  0  0  0  0
   20.1476  -20.4915  -13.9258 C   0  0  0  0  0  0  0  0  0  0  0  0
   19.5628  -19.9547  -15.1170 N   0  0  0  0  0  0  0  0  0  0  0  0
   25.4554  -21.0809  -11.7628 C   0  0  0  0  0  0  0  0  0  0  0  0
   26.6727  -21.3199  -11.9124 O   0  0  0  0  0  0  0  0  0  0  0  0
   27.8207  -20.6584   -7.0907 C   0  0  0  0  0  0  0  0  0  0  0  0
   27.6418  -19.7129   -8.2143 C   0  0  2  0  0  0  0  0  0  0  0  0
   27.2978  -18.3385   -7.5803 C   0  0  0  0  0  0  0  0  0  0  0  0
   26.6882  -20.0068   -9.2864 C   0  0  0  0  0  0  0  0  0  0  0  0
   25.8385  -21.2137   -9.2790 C   0  0  2  0  0  0  0  0  0  0  0  0
   24.9286  -21.1485  -10.4712 N   0  0  0  0  0  0  0  0  0  0  0  0
   24.9216  -21.3513   -8.1438 C   0  0  0  0  0  0  0  0  0  0  0  0
   23.7842  -20.7835   -8.0484 O   0  0  0  0  0  0  0  0  0  0  0  0
   25.2626  -22.1625   -7.0343 O   0  0  0  0  0  0  0  0  0  0  0  0
  2  1  1  6
  2  4  1  0
  3  2  1  0
  4  5  1  6
  4  6  1  0
  6  8  1  0
  6  7  2  0
  8  9  1  0
  9 10  1  6
 11 10  1  0
 12 11  1  0
 12 13  1  0
 13 14  1  0
 15  9  1  0
 15 22  1  0
 16 15  2  0
 18 17  1  1
 18 20  1  0
 19 18  1  0
 21 20  1  1
 21 22  1  0
 21 23  1  0
 23 25  1  0
 24 23  2  0
M  END
$$$$
