VKL.pdb
     RDKit          3D

 25 24  0  0  1  0  0  0  0  0999 V2000
   26.0181  -28.8148  -16.1316 C   0  0  0  0  0  0  0  0  0  0  0  0
   26.4267  -29.1131  -17.5415 C   0  0  1  0  0  0  0  0  0  0  0  0
   25.2345  -28.8914  -18.4343 C   0  0  0  0  0  0  0  0  0  0  0  0
   27.5877  -28.2177  -17.9124 C   0  0  2  0  0  0  0  0  0  0  0  0
   28.6932  -28.4671  -17.0210 N   0  0  0  0  0  0  0  0  0  0  0  0
   27.2316  -26.7840  -17.8753 C   0  0  0  0  0  0  0  0  0  0  0  0
   27.5139  -26.0739  -16.8931 O   0  0  0  0  0  0  0  0  0  0  0  0
   26.5625  -26.2168  -18.9710 N   0  0  0  0  0  0  0  0  0  0  0  0
   26.2452  -24.8129  -19.1355 C   0  0  1  0  0  0  0  0  0  0  0  0
   26.5725  -24.4366  -20.5382 C   0  0  0  0  0  0  0  0  0  0  0  0
   26.3540  -22.9685  -20.7500 C   0  0  0  0  0  0  0  0  0  0  0  0
   26.7225  -22.5397  -22.1331 C   0  0  0  0  0  0  0  0  0  0  0  0
   26.5616  -21.0251  -22.3032 C   0  0  0  0  0  0  0  0  0  0  0  0
   26.8158  -20.7009  -23.6740 N   0  0  0  0  0  0  0  0  0  0  0  0
   24.7888  -24.6485  -18.8387 C   0  0  0  0  0  0  0  0  0  0  0  0
   24.0151  -25.5942  -19.1001 O   0  0  0  0  0  0  0  0  0  0  0  0
   21.3987  -24.0870  -15.2369 C   0  0  0  0  0  0  0  0  0  0  0  0
   22.4032  -23.0415  -15.5306 C   0  0  2  0  0  0  0  0  0  0  0  0
   22.1255  -21.8767  -14.5430 C   0  0  0  0  0  0  0  0  0  0  0  0
   22.5425  -22.5068  -16.8870 C   0  0  0  0  0  0  0  0  0  0  0  0
   22.7623  -23.3756  -18.0599 C   0  0  2  0  0  0  0  0  0  0  0  0
   24.2424  -23.4899  -18.2823 N   0  0  0  0  0  0  0  0  0  0  0  0
   22.2519  -22.8749  -19.3394 C   0  0  0  0  0  0  0  0  0  0  0  0
   21.0797  -23.0867  -19.7934 O   0  0  0  0  0  0  0  0  0  0  0  0
   23.0710  -22.0886  -20.1857 O   0  0  0  0  0  0  0  0  0  0  0  0
  2  1  1  1
  2  4  1  0
  3  2  1  0
  4  5  1  1
  4  6  1  0
  6  8  1  0
  6  7  2  0
  8  9  1  0
  9 10  1  6
 11 10  1  0
 12 11  1  0
 12 13  1  0
 13 14  1  0
 15  9  1  0
 15 22  1  0
 16 15  2  0
 18 17  1  6
 18 20  1  0
 19 18  1  0
 21 20  1  1
 21 22  1  0
 21 23  1  0
 23 25  1  0
 24 23  2  0
M  END
$$$$
