ARG.pdb
     RDKit          3D

 21 20  0  0  1  0  0  0  0  0999 V2000
    9.2296  -21.9761   20.0929 C   0  0  0  0  0  0  0  0  0  0  0  0
    9.7787  -21.3669   21.3539 C   0  0  2  0  0  0  0  0  0  0  0  0
    8.8705  -21.5630   22.4452 N   0  0  0  0  0  0  0  0  0  0  0  0
   10.0922  -19.9314   21.1504 C   0  0  0  0  0  0  0  0  0  0  0  0
   10.9445  -19.6133   20.2745 O   0  0  0  0  0  0  0  0  0  0  0  0
    8.8718  -10.8272   19.9912 N   0  0  0  0  0  0  0  0  0  0  0  0
    8.6602  -12.2532   20.0230 C   0  0  0  0  0  0  0  0  0  0  0  0
    8.9818  -12.9932   19.0182 N   0  0  0  0  0  0  0  0  0  0  0  0
    8.0926  -12.8921   21.1553 N   0  0  0  0  0  0  0  0  0  0  0  0
    7.8592  -14.3112   21.2576 C   0  0  0  0  0  0  0  0  0  0  0  0
    9.1370  -15.1255   21.3770 C   0  0  0  0  0  0  0  0  0  0  0  0
    8.7223  -16.5616   21.5747 C   0  0  0  0  0  0  0  0  0  0  0  0
    9.8561  -17.5132   21.6753 C   0  0  2  0  0  0  0  0  0  0  0  0
    9.5010  -18.8856   21.8732 N   0  0  0  0  0  0  0  0  0  0  0  0
   10.7960  -17.0399   22.7517 C   0  0  0  0  0  0  0  0  0  0  0  0
   10.4077  -16.8711   23.9307 O   0  0  0  0  0  0  0  0  0  0  0  0
    8.7997  -14.0284   19.0067 N   0  0  0  0  0  0  0  0  0  0  0  0
   12.1700  -16.7639   22.4689 C   0  0  0  0  0  0  0  0  0  0  0  0
   13.0815  -16.3067   23.5242 C   0  0  0  0  0  0  0  0  0  0  0  0
   14.4384  -16.0997   23.0092 O   0  0  0  0  0  0  0  0  0  0  0  0
   14.7219  -16.3753   21.8262 O   0  0  0  0  0  0  0  0  0  0  0  0
  2  1  1  6
  3  2  1  0
  4  5  2  0
  4  2  1  0
  7  6  1  0
  8  7  2  0
  9  7  1  0
 10  9  1  0
 10 11  1  0
 11 12  1  0
 13 12  1  1
 13 14  1  0
 14  4  1  0
 15 13  1  0
 15 17  1  0
 16 15  2  0
 18 17  1  0
 18 19  1  0
 19 21  1  0
 20 19  2  0
M  END
$$$$
