ARG.pdb
     RDKit          3D

 21 20  0  0  1  0  0  0  0  0999 V2000
    8.6645  -11.9846   20.3015 C   0  0  0  0  0  0  0  0  0  0  0  0
    8.3782  -13.2982   19.6266 C   0  0  2  0  0  0  0  0  0  0  0  0
    7.2936  -13.1625   18.6996 N   0  0  0  0  0  0  0  0  0  0  0  0
    8.1145  -14.3579   20.6304 C   0  0  0  0  0  0  0  0  0  0  0  0
    6.9244  -14.5626   21.0002 O   0  0  0  0  0  0  0  0  0  0  0  0
    8.9270  -18.6426   17.2159 N   0  0  0  0  0  0  0  0  0  0  0  0
    7.6201  -19.1395   17.5689 C   0  0  0  0  0  0  0  0  0  0  0  0
    6.6798  -19.2126   16.6908 N   0  0  0  0  0  0  0  0  0  0  0  0
    7.3215  -19.5638   18.8892 N   0  0  0  0  0  0  0  0  0  0  0  0
    8.0965  -19.2112   20.0526 C   0  0  0  0  0  0  0  0  0  0  0  0
    7.9312  -17.7592   20.4700 C   0  0  0  0  0  0  0  0  0  0  0  0
    8.7820  -17.5588   21.6987 C   0  0  0  0  0  0  0  0  0  0  0  0
    8.8181  -16.1599   22.1914 C   0  0  2  0  0  0  0  0  0  0  0  0
    9.1079  -15.1610   21.2081 N   0  0  0  0  0  0  0  0  0  0  0  0
    9.7808  -16.0741   23.3455 C   0  0  0  0  0  0  0  0  0  0  0  0
   11.0081  -15.9032   23.1617 O   0  0  0  0  0  0  0  0  0  0  0  0
    5.7281  -19.5939   16.9228 N   0  0  0  0  0  0  0  0  0  0  0  0
    9.3304  -16.1853   24.6978 C   0  0  0  0  0  0  0  0  0  0  0  0
   10.2696  -16.0668   25.8191 C   0  0  0  0  0  0  0  0  0  0  0  0
   10.8623  -17.3629   26.1624 O   0  0  0  0  0  0  0  0  0  0  0  0
   10.6563  -18.3679   25.4528 O   0  0  0  0  0  0  0  0  0  0  0  0
  2  1  1  1
  3  2  1  0
  4  5  2  0
  4  2  1  0
  7  6  1  0
  8  7  2  0
  9  7  1  0
 10  9  1  0
 10 11  1  0
 11 12  1  0
 13 12  1  6
 13 14  1  0
 14  4  1  0
 15 13  1  0
 15 17  1  0
 16 15  2  0
 18 17  1  0
 18 19  1  0
 19 21  1  0
 20 19  2  0
M  END
$$$$
