ARG.pdb
     RDKit          3D

 21 20  0  0  1  0  0  0  0  0999 V2000
    8.0429  -20.8088   23.0134 C   0  0  0  0  0  0  0  0  0  0  0  0
    8.2451  -20.0201   21.7485 C   0  0  2  0  0  0  0  0  0  0  0  0
    8.9359  -20.8066   20.7694 N   0  0  0  0  0  0  0  0  0  0  0  0
    8.9529  -18.7474   22.0305 C   0  0  0  0  0  0  0  0  0  0  0  0
   10.2156  -18.7446   22.0472 O   0  0  0  0  0  0  0  0  0  0  0  0
    8.5668  -11.9323   19.0031 N   0  0  0  0  0  0  0  0  0  0  0  0
    7.6762  -12.9010   18.4131 C   0  0  0  0  0  0  0  0  0  0  0  0
    7.7044  -13.1423   17.1476 N   0  0  0  0  0  0  0  0  0  0  0  0
    6.7400  -13.6208   19.1991 N   0  0  0  0  0  0  0  0  0  0  0  0
    6.9386  -13.9723   20.5832 C   0  0  0  0  0  0  0  0  0  0  0  0
    8.2915  -14.6090   20.8555 C   0  0  0  0  0  0  0  0  0  0  0  0
    8.2803  -15.0589   22.2946 C   0  0  0  0  0  0  0  0  0  0  0  0
    9.0269  -16.3164   22.5441 C   0  0  2  0  0  0  0  0  0  0  0  0
    8.3099  -17.5278   22.2848 N   0  0  0  0  0  0  0  0  0  0  0  0
    9.5585  -16.2967   23.9523 C   0  0  0  0  0  0  0  0  0  0  0  0
    8.7896  -16.2713   24.9411 O   0  0  0  0  0  0  0  0  0  0  0  0
    7.0849  -13.8663   16.7037 N   0  0  0  0  0  0  0  0  0  0  0  0
   10.9637  -16.3055   24.2156 C   0  0  0  0  0  0  0  0  0  0  0  0
   11.4745  -16.3477   25.5907 C   0  0  0  0  0  0  0  0  0  0  0  0
   12.9367  -16.2466   25.6237 O   0  0  0  0  0  0  0  0  0  0  0  0
   13.5947  -16.1523   24.5683 O   0  0  0  0  0  0  0  0  0  0  0  0
  2  1  1  1
  3  2  1  0
  4  5  2  0
  4  2  1  0
  7  6  1  0
  8  7  2  0
  9  7  1  0
 10  9  1  0
 10 11  1  0
 11 12  1  0
 13 12  1  1
 13 14  1  0
 14  4  1  0
 15 13  1  0
 15 17  1  0
 16 15  2  0
 18 17  1  0
 18 19  1  0
 19 21  1  0
 20 19  2  0
M  END
$$$$
