ARG.pdb
     RDKit          3D

 21 20  0  0  1  0  0  0  0  0999 V2000
    7.2209  -14.9762   18.2656 C   0  0  0  0  0  0  0  0  0  0  0  0
    7.5766  -13.6684   18.9184 C   0  0  2  0  0  0  0  0  0  0  0  0
    8.1585  -12.7710   17.9644 N   0  0  0  0  0  0  0  0  0  0  0  0
    8.4693  -13.8881   20.0825 C   0  0  0  0  0  0  0  0  0  0  0  0
    9.2836  -12.9782   20.4046 O   0  0  0  0  0  0  0  0  0  0  0  0
    5.5895  -11.3973   26.3952 N   0  0  0  0  0  0  0  0  0  0  0  0
    6.3941  -12.5162   26.8197 C   0  0  0  0  0  0  0  0  0  0  0  0
    7.2321  -12.3985   27.7916 N   0  0  0  0  0  0  0  0  0  0  0  0
    6.2945  -13.7818   26.1868 N   0  0  0  0  0  0  0  0  0  0  0  0
    7.2884  -14.3269   25.2958 C   0  0  0  0  0  0  0  0  0  0  0  0
    7.5243  -13.4732   24.0607 C   0  0  0  0  0  0  0  0  0  0  0  0
    7.2184  -14.3405   22.8659 C   0  0  0  0  0  0  0  0  0  0  0  0
    8.4033  -15.0246   22.2922 C   0  0  2  0  0  0  0  0  0  0  0  0
    8.4743  -15.0528   20.8629 N   0  0  0  0  0  0  0  0  0  0  0  0
    8.4872  -16.4152   22.8626 C   0  0  0  0  0  0  0  0  0  0  0  0
    7.4608  -17.0381   23.2202 O   0  0  0  0  0  0  0  0  0  0  0  0
    7.9425  -13.1422   28.0088 N   0  0  0  0  0  0  0  0  0  0  0  0
    9.7438  -17.0789   23.0190 C   0  0  0  0  0  0  0  0  0  0  0  0
   10.9953  -16.3173   23.1027 C   0  0  0  0  0  0  0  0  0  0  0  0
   11.5559  -16.3526   24.4569 O   0  0  0  0  0  0  0  0  0  0  0  0
   12.7849  -16.4660   24.6370 O   0  0  0  0  0  0  0  0  0  0  0  0
  2  1  1  6
  3  2  1  0
  4  5  2  0
  4  2  1  0
  7  6  1  0
  8  7  2  0
  9  7  1  0
 10  9  1  0
 10 11  1  0
 11 12  1  0
 13 12  1  6
 13 14  1  0
 14  4  1  0
 15 13  1  0
 15 17  1  0
 16 15  2  0
 18 17  1  0
 18 19  1  0
 19 21  1  0
 20 19  2  0
M  END
$$$$
