ARG.pdb
     RDKit          3D

 21 20  0  0  1  0  0  0  0  0999 V2000
    7.0826  -12.5223   19.3476 C   0  0  0  0  0  0  0  0  0  0  0  0
    8.5197  -12.7148   19.7483 C   0  0  2  0  0  0  0  0  0  0  0  0
    9.3967  -12.3027   18.6922 N   0  0  0  0  0  0  0  0  0  0  0  0
    8.7685  -14.1200   20.1530 C   0  0  0  0  0  0  0  0  0  0  0  0
    8.0769  -14.6156   21.0862 O   0  0  0  0  0  0  0  0  0  0  0  0
    8.1721  -16.0137   13.4627 N   0  0  0  0  0  0  0  0  0  0  0  0
    8.0907  -16.8564   14.6300 C   0  0  0  0  0  0  0  0  0  0  0  0
    8.0189  -18.1382   14.5179 N   0  0  0  0  0  0  0  0  0  0  0  0
    8.0859  -16.3094   15.9389 N   0  0  0  0  0  0  0  0  0  0  0  0
    9.1976  -16.3789   16.8543 C   0  0  0  0  0  0  0  0  0  0  0  0
    9.0290  -17.4409   17.9284 C   0  0  0  0  0  0  0  0  0  0  0  0
   10.1836  -17.2811   18.8850 C   0  0  0  0  0  0  0  0  0  0  0  0
    9.9385  -16.3060   19.9759 C   0  0  2  0  0  0  0  0  0  0  0  0
    9.7325  -14.9506   19.5646 N   0  0  0  0  0  0  0  0  0  0  0  0
   11.0601  -16.4004   20.9755 C   0  0  0  0  0  0  0  0  0  0  0  0
   11.3307  -17.4778   21.5546 O   0  0  0  0  0  0  0  0  0  0  0  0
    7.9830  -18.7705   15.3569 N   0  0  0  0  0  0  0  0  0  0  0  0
   11.8603  -15.2618   21.3033 C   0  0  0  0  0  0  0  0  0  0  0  0
   12.9572  -15.3631   22.2727 C   0  0  0  0  0  0  0  0  0  0  0  0
   14.2440  -15.5851   21.6063 O   0  0  0  0  0  0  0  0  0  0  0  0
   14.3034  -15.7563   20.3721 O   0  0  0  0  0  0  0  0  0  0  0  0
  2  1  1  6
  3  2  1  0
  4  5  2  0
  4  2  1  0
  7  6  1  0
  8  7  2  0
  9  7  1  0
 10  9  1  0
 10 11  1  0
 11 12  1  0
 13 12  1  6
 13 14  1  0
 14  4  1  0
 15 13  1  0
 15 17  1  0
 16 15  2  0
 18 17  1  0
 18 19  1  0
 19 21  1  0
 20 19  2  0
M  END
$$$$
