ARG.pdb
     RDKit          3D

 21 20  0  0  1  0  0  0  0  0999 V2000
    6.4248  -21.7053   22.6002 C   0  0  0  0  0  0  0  0  0  0  0  0
    7.2649  -20.8815   23.5375 C   0  0  2  0  0  0  0  0  0  0  0  0
    6.4876  -20.4463   24.6603 N   0  0  0  0  0  0  0  0  0  0  0  0
    7.8844  -19.7395   22.8216 C   0  0  0  0  0  0  0  0  0  0  0  0
    8.6233  -19.9753   21.8250 O   0  0  0  0  0  0  0  0  0  0  0  0
    8.3673  -11.3723   20.2957 N   0  0  0  0  0  0  0  0  0  0  0  0
    8.6044  -12.5511   19.4996 C   0  0  0  0  0  0  0  0  0  0  0  0
    9.7166  -12.7117   18.8689 N   0  0  0  0  0  0  0  0  0  0  0  0
    7.6275  -13.5727   19.3807 N   0  0  0  0  0  0  0  0  0  0  0  0
    7.1495  -14.3740   20.4799 C   0  0  0  0  0  0  0  0  0  0  0  0
    8.2222  -15.2600   21.0916 C   0  0  0  0  0  0  0  0  0  0  0  0
    7.5175  -16.2318   22.0039 C   0  0  0  0  0  0  0  0  0  0  0  0
    8.3829  -17.3239   22.5135 C   0  0  2  0  0  0  0  0  0  0  0  0
    7.7060  -18.3955   23.1784 N   0  0  0  0  0  0  0  0  0  0  0  0
    9.4481  -16.7304   23.3962 C   0  0  0  0  0  0  0  0  0  0  0  0
    9.1896  -16.3324   24.5555 O   0  0  0  0  0  0  0  0  0  0  0  0
    9.9067  -13.5619   18.2807 N   0  0  0  0  0  0  0  0  0  0  0  0
   10.7979  -16.5975   22.9440 C   0  0  0  0  0  0  0  0  0  0  0  0
   11.8074  -15.9215   23.7671 C   0  0  0  0  0  0  0  0  0  0  0  0
   12.6991  -16.8840   24.4212 O   0  0  0  0  0  0  0  0  0  0  0  0
   12.3542  -18.0729   24.5742 O   0  0  0  0  0  0  0  0  0  0  0  0
  2  1  1  6
  3  2  1  0
  4  5  2  0
  4  2  1  0
  7  6  1  0
  8  7  2  0
  9  7  1  0
 10  9  1  0
 10 11  1  0
 11 12  1  0
 13 12  1  1
 13 14  1  0
 14  4  1  0
 15 13  1  0
 15 17  1  0
 16 15  2  0
 18 17  1  0
 18 19  1  0
 19 21  1  0
 20 19  2  0
M  END
$$$$
