ARG.pdb
     RDKit          3D

 21 20  0  0  1  0  0  0  0  0999 V2000
   11.6353  -20.8550   20.9291 C   0  0  0  0  0  0  0  0  0  0  0  0
   11.5788  -19.7900   19.8682 C   0  0  2  0  0  0  0  0  0  0  0  0
   12.5703  -20.0290   18.8611 N   0  0  0  0  0  0  0  0  0  0  0  0
   11.7198  -18.4414   20.4697 C   0  0  0  0  0  0  0  0  0  0  0  0
   12.8612  -17.9014   20.4910 O   0  0  0  0  0  0  0  0  0  0  0  0
    8.8780  -12.2162   18.8381 N   0  0  0  0  0  0  0  0  0  0  0  0
    7.8071  -13.1309   18.5282 C   0  0  0  0  0  0  0  0  0  0  0  0
    7.3857  -13.2719   17.3186 N   0  0  0  0  0  0  0  0  0  0  0  0
    7.1799  -13.9055   19.5376 N   0  0  0  0  0  0  0  0  0  0  0  0
    7.8372  -14.3695   20.7340 C   0  0  0  0  0  0  0  0  0  0  0  0
    9.1425  -15.0986   20.4609 C   0  0  0  0  0  0  0  0  0  0  0  0
    9.6540  -15.5907   21.7912 C   0  0  0  0  0  0  0  0  0  0  0  0
   10.8509  -16.4624   21.6973 C   0  0  2  0  0  0  0  0  0  0  0  0
   10.6597  -17.7119   21.0259 N   0  0  0  0  0  0  0  0  0  0  0  0
   11.4095  -16.6741   23.0791 C   0  0  0  0  0  0  0  0  0  0  0  0
   10.7067  -17.1442   24.0035 O   0  0  0  0  0  0  0  0  0  0  0  0
    6.6399  -13.9680   17.0652 N   0  0  0  0  0  0  0  0  0  0  0  0
   12.7658  -16.3455   23.3900 C   0  0  0  0  0  0  0  0  0  0  0  0
   13.3017  -16.5482   24.7409 C   0  0  0  0  0  0  0  0  0  0  0  0
   14.6746  -16.0468   24.8548 O   0  0  0  0  0  0  0  0  0  0  0  0
   15.2874  -15.6286   23.8522 O   0  0  0  0  0  0  0  0  0  0  0  0
  2  1  1  1
  3  2  1  0
  4  5  2  0
  4  2  1  0
  7  6  1  0
  8  7  2  0
  9  7  1  0
 10  9  1  0
 10 11  1  0
 11 12  1  0
 13 12  1  1
 13 14  1  0
 14  4  1  0
 15 13  1  0
 15 17  1  0
 16 15  2  0
 18 17  1  0
 18 19  1  0
 19 21  1  0
 20 19  2  0
M  END
$$$$
