ARG.pdb
     RDKit          3D

 21 20  0  0  1  0  0  0  0  0999 V2000
   10.9699  -21.0598   20.0794 C   0  0  0  0  0  0  0  0  0  0  0  0
    9.4940  -20.8037   19.9408 C   0  0  2  0  0  0  0  0  0  0  0  0
    9.2535  -19.7232   19.0303 N   0  0  0  0  0  0  0  0  0  0  0  0
    8.8776  -20.5533   21.2666 C   0  0  0  0  0  0  0  0  0  0  0  0
    8.9430  -19.3919   21.7580 O   0  0  0  0  0  0  0  0  0  0  0  0
    1.9337  -24.5603   22.4610 N   0  0  0  0  0  0  0  0  0  0  0  0
    2.1913  -23.5824   21.4330 C   0  0  0  0  0  0  0  0  0  0  0  0
    1.4309  -23.4952   20.3962 N   0  0  0  0  0  0  0  0  0  0  0  0
    3.2858  -22.6845   21.5232 N   0  0  0  0  0  0  0  0  0  0  0  0
    4.2296  -22.6583   22.6128 C   0  0  0  0  0  0  0  0  0  0  0  0
    5.3317  -21.6274   22.4314 C   0  0  0  0  0  0  0  0  0  0  0  0
    6.3082  -21.8291   23.5624 C   0  0  0  0  0  0  0  0  0  0  0  0
    7.6539  -21.2566   23.3127 C   0  0  2  0  0  0  0  0  0  0  0  0
    8.2175  -21.5298   22.0257 N   0  0  0  0  0  0  0  0  0  0  0  0
    8.5832  -21.6980   24.4117 C   0  0  0  0  0  0  0  0  0  0  0  0
    9.0737  -22.8506   24.4296 O   0  0  0  0  0  0  0  0  0  0  0  0
    1.5563  -22.7417   19.6742 N   0  0  0  0  0  0  0  0  0  0  0  0
    8.9415  -20.8172   25.4794 C   0  0  0  0  0  0  0  0  0  0  0  0
    9.8522  -21.2525   26.5446 C   0  0  0  0  0  0  0  0  0  0  0  0
   10.1241  -20.1695   27.4946 O   0  0  0  0  0  0  0  0  0  0  0  0
    9.7622  -19.0007   27.2519 O   0  0  0  0  0  0  0  0  0  0  0  0
  2  1  1  1
  3  2  1  0
  4  5  2  0
  4  2  1  0
  7  6  1  0
  8  7  2  0
  9  7  1  0
 10  9  1  0
 10 11  1  0
 11 12  1  0
 13 12  1  1
 13 14  1  0
 14  4  1  0
 15 13  1  0
 15 17  1  0
 16 15  2  0
 18 17  1  0
 18 19  1  0
 19 21  1  0
 20 19  2  0
M  END
$$$$
