ARG.pdb
     RDKit          3D

 21 20  0  0  1  0  0  0  0  0999 V2000
    9.1308  -20.6216   26.1470 C   0  0  0  0  0  0  0  0  0  0  0  0
   10.2174  -19.5945   25.9817 C   0  0  2  0  0  0  0  0  0  0  0  0
   10.2301  -18.6910   27.0943 N   0  0  0  0  0  0  0  0  0  0  0  0
   10.0699  -18.8767   24.6920 C   0  0  0  0  0  0  0  0  0  0  0  0
   10.1379  -19.5368   23.6175 O   0  0  0  0  0  0  0  0  0  0  0  0
    8.3561  -14.1832   18.9095 N   0  0  0  0  0  0  0  0  0  0  0  0
    8.2154  -12.9898   19.7067 C   0  0  0  0  0  0  0  0  0  0  0  0
    8.5420  -11.8359   19.2352 N   0  0  0  0  0  0  0  0  0  0  0  0
    7.7153  -13.0407   21.0333 N   0  0  0  0  0  0  0  0  0  0  0  0
    7.4855  -14.2581   21.7706 C   0  0  0  0  0  0  0  0  0  0  0  0
    8.6837  -15.1932   21.7795 C   0  0  0  0  0  0  0  0  0  0  0  0
    8.7206  -15.8421   23.1400 C   0  0  0  0  0  0  0  0  0  0  0  0
    9.8212  -16.8212   23.3166 C   0  0  2  0  0  0  0  0  0  0  0  0
    9.8577  -17.4956   24.5786 N   0  0  0  0  0  0  0  0  0  0  0  0
   11.1322  -16.1374   23.0338 C   0  0  0  0  0  0  0  0  0  0  0  0
   11.3561  -15.5825   21.9332 O   0  0  0  0  0  0  0  0  0  0  0  0
    8.4736  -10.9585   19.8102 N   0  0  0  0  0  0  0  0  0  0  0  0
   12.1740  -16.0957   24.0121 C   0  0  0  0  0  0  0  0  0  0  0  0
   13.4394  -15.4045   23.7393 C   0  0  0  0  0  0  0  0  0  0  0  0
   14.4487  -16.3233   23.2041 O   0  0  0  0  0  0  0  0  0  0  0  0
   14.1707  -17.5187   22.9818 O   0  0  0  0  0  0  0  0  0  0  0  0
  2  1  1  1
  3  2  1  0
  4  5  2  0
  4  2  1  0
  7  6  1  0
  8  7  2  0
  9  7  1  0
 10  9  1  0
 10 11  1  0
 11 12  1  0
 13 12  1  1
 13 14  1  0
 14  4  1  0
 15 13  1  0
 15 17  1  0
 16 15  2  0
 18 17  1  0
 18 19  1  0
 19 21  1  0
 20 19  2  0
M  END
$$$$
