ARG.pdb
     RDKit          3D

 21 20  0  0  1  0  0  0  0  0999 V2000
   11.3481  -18.9363   17.4544 C   0  0  0  0  0  0  0  0  0  0  0  0
   12.0906  -19.2051   18.7348 C   0  0  2  0  0  0  0  0  0  0  0  0
   11.7204  -20.4807   19.2735 N   0  0  0  0  0  0  0  0  0  0  0  0
   11.8681  -18.1104   19.7107 C   0  0  0  0  0  0  0  0  0  0  0  0
   12.2434  -16.9426   19.4105 O   0  0  0  0  0  0  0  0  0  0  0  0
    8.2308  -12.0108   19.3304 N   0  0  0  0  0  0  0  0  0  0  0  0
    7.7301  -12.8505   20.3904 C   0  0  0  0  0  0  0  0  0  0  0  0
    7.0243  -12.3571   21.3490 N   0  0  0  0  0  0  0  0  0  0  0  0
    7.9945  -14.2440   20.4183 N   0  0  0  0  0  0  0  0  0  0  0  0
    8.7610  -14.9068   21.4438 C   0  0  0  0  0  0  0  0  0  0  0  0
    8.8115  -16.4168   21.2779 C   0  0  0  0  0  0  0  0  0  0  0  0
    9.7243  -16.9439   22.3560 C   0  0  0  0  0  0  0  0  0  0  0  0
   11.1108  -17.2118   21.9011 C   0  0  2  0  0  0  0  0  0  0  0  0
   11.2621  -18.2824   20.9632 N   0  0  0  0  0  0  0  0  0  0  0  0
   11.9870  -17.4246   23.1065 C   0  0  0  0  0  0  0  0  0  0  0  0
   11.7180  -18.2967   23.9645 O   0  0  0  0  0  0  0  0  0  0  0  0
    6.6520  -12.9524   22.1313 N   0  0  0  0  0  0  0  0  0  0  0  0
   13.1616  -16.6375   23.3188 C   0  0  0  0  0  0  0  0  0  0  0  0
   14.0730  -16.9254   24.4323 C   0  0  0  0  0  0  0  0  0  0  0  0
   15.4567  -16.5752   24.0979 O   0  0  0  0  0  0  0  0  0  0  0  0
   15.7999  -16.3866   22.9137 O   0  0  0  0  0  0  0  0  0  0  0  0
  2  1  1  6
  3  2  1  0
  4  5  2  0
  4  2  1  0
  7  6  1  0
  8  7  2  0
  9  7  1  0
 10  9  1  0
 10 11  1  0
 11 12  1  0
 13 12  1  1
 13 14  1  0
 14  4  1  0
 15 13  1  0
 15 17  1  0
 16 15  2  0
 18 17  1  0
 18 19  1  0
 19 21  1  0
 20 19  2  0
M  END
$$$$
