ARG.pdb
     RDKit          3D

 21 20  0  0  1  0  0  0  0  0999 V2000
   12.1296  -19.4657   18.7855 C   0  0  0  0  0  0  0  0  0  0  0  0
   11.8765  -18.2836   17.8902 C   0  0  2  0  0  0  0  0  0  0  0  0
   12.8421  -18.2372   16.8320 N   0  0  0  0  0  0  0  0  0  0  0  0
   11.8594  -17.0247   18.6746 C   0  0  0  0  0  0  0  0  0  0  0  0
   12.9310  -16.3670   18.7924 O   0  0  0  0  0  0  0  0  0  0  0  0
    8.6282  -14.6486   15.9706 N   0  0  0  0  0  0  0  0  0  0  0  0
    7.6164  -13.6221   16.0178 C   0  0  0  0  0  0  0  0  0  0  0  0
    7.0361  -13.2142   14.9420 N   0  0  0  0  0  0  0  0  0  0  0  0
    7.2241  -13.0254   17.2435 N   0  0  0  0  0  0  0  0  0  0  0  0
    7.7445  -13.4001   18.5348 C   0  0  0  0  0  0  0  0  0  0  0  0
    9.0583  -14.1604   18.4580 C   0  0  0  0  0  0  0  0  0  0  0  0
    9.4794  -14.4482   19.8769 C   0  0  0  0  0  0  0  0  0  0  0  0
   10.7234  -15.2485   19.9912 C   0  0  2  0  0  0  0  0  0  0  0  0
   10.7204  -16.5049   19.3055 N   0  0  0  0  0  0  0  0  0  0  0  0
   11.0533  -15.4317   21.4485 C   0  0  0  0  0  0  0  0  0  0  0  0
   11.1610  -14.4525   22.2225 O   0  0  0  0  0  0  0  0  0  0  0  0
    6.2714  -12.4930   14.9596 N   0  0  0  0  0  0  0  0  0  0  0  0
   11.2573  -16.7324   22.0057 C   0  0  0  0  0  0  0  0  0  0  0  0
   11.5749  -16.9037   23.4282 C   0  0  0  0  0  0  0  0  0  0  0  0
   13.0228  -16.9133   23.6578 O   0  0  0  0  0  0  0  0  0  0  0  0
   13.8208  -16.7541   22.7124 O   0  0  0  0  0  0  0  0  0  0  0  0
  2  1  1  1
  3  2  1  0
  4  5  2  0
  4  2  1  0
  7  6  1  0
  8  7  2  0
  9  7  1  0
 10  9  1  0
 10 11  1  0
 11 12  1  0
 13 12  1  1
 13 14  1  0
 14  4  1  0
 15 13  1  0
 15 17  1  0
 16 15  2  0
 18 17  1  0
 18 19  1  0
 19 21  1  0
 20 19  2  0
M  END
$$$$
