ARG.pdb
     RDKit          3D

 21 20  0  0  1  0  0  0  0  0999 V2000
    9.9855  -21.9340   22.6587 C   0  0  0  0  0  0  0  0  0  0  0  0
   10.0457  -21.0929   21.4129 C   0  0  2  0  0  0  0  0  0  0  0  0
   11.0577  -21.5817   20.5234 N   0  0  0  0  0  0  0  0  0  0  0  0
   10.2558  -19.6645   21.7531 C   0  0  0  0  0  0  0  0  0  0  0  0
   11.4358  -19.2164   21.7940 O   0  0  0  0  0  0  0  0  0  0  0  0
    8.3703  -11.5891   20.2163 N   0  0  0  0  0  0  0  0  0  0  0  0
    8.1822  -12.7910   19.4419 C   0  0  0  0  0  0  0  0  0  0  0  0
    8.4407  -12.8129   18.1797 N   0  0  0  0  0  0  0  0  0  0  0  0
    7.7074  -13.9881   20.0369 N   0  0  0  0  0  0  0  0  0  0  0  0
    7.5674  -14.1913   21.4574 C   0  0  0  0  0  0  0  0  0  0  0  0
    8.7090  -14.9873   22.0681 C   0  0  0  0  0  0  0  0  0  0  0  0
    8.3887  -16.4449   21.8527 C   0  0  0  0  0  0  0  0  0  0  0  0
    9.4574  -17.3739   22.2955 C   0  0  2  0  0  0  0  0  0  0  0  0
    9.2216  -18.7619   22.0380 N   0  0  0  0  0  0  0  0  0  0  0  0
    9.7349  -17.1372   23.7561 C   0  0  0  0  0  0  0  0  0  0  0  0
    8.8623  -17.3481   24.6298 O   0  0  0  0  0  0  0  0  0  0  0  0
    8.3546  -13.6907   17.6077 N   0  0  0  0  0  0  0  0  0  0  0  0
   11.0070  -16.6612   24.2025 C   0  0  0  0  0  0  0  0  0  0  0  0
   11.2875  -16.4819   25.6316 C   0  0  0  0  0  0  0  0  0  0  0  0
   12.0117  -17.6302   26.1849 O   0  0  0  0  0  0  0  0  0  0  0  0
   12.1940  -18.6592   25.5039 O   0  0  0  0  0  0  0  0  0  0  0  0
  2  1  1  1
  3  2  1  0
  4  5  2  0
  4  2  1  0
  7  6  1  0
  8  7  2  0
  9  7  1  0
 10  9  1  0
 10 11  1  0
 11 12  1  0
 13 12  1  1
 13 14  1  0
 14  4  1  0
 15 13  1  0
 15 17  1  0
 16 15  2  0
 18 17  1  0
 18 19  1  0
 19 21  1  0
 20 19  2  0
M  END
$$$$
