ARG.pdb
     RDKit          3D

 21 20  0  0  1  0  0  0  0  0999 V2000
    9.9038  -27.9679   32.6425 C   0  0  0  0  0  0  0  0  0  0  0  0
   10.6841  -28.3639   33.8662 C   0  0  2  0  0  0  0  0  0  0  0  0
   10.5642  -29.7718   34.1064 N   0  0  0  0  0  0  0  0  0  0  0  0
   10.2570  -27.5670   35.0421 C   0  0  0  0  0  0  0  0  0  0  0  0
   10.4410  -26.3176   35.0292 O   0  0  0  0  0  0  0  0  0  0  0  0
    2.4111  -27.7696   36.9010 N   0  0  0  0  0  0  0  0  0  0  0  0
    3.0418  -27.5580   35.6216 C   0  0  0  0  0  0  0  0  0  0  0  0
    2.3470  -27.5329   34.5367 N   0  0  0  0  0  0  0  0  0  0  0  0
    4.4436  -27.3711   35.5093 N   0  0  0  0  0  0  0  0  0  0  0  0
    5.3659  -27.4446   36.6151 C   0  0  0  0  0  0  0  0  0  0  0  0
    6.8212  -27.3164   36.1960 C   0  0  0  0  0  0  0  0  0  0  0  0
    7.6482  -27.4274   37.4519 C   0  0  0  0  0  0  0  0  0  0  0  0
    9.1095  -27.2984   37.2307 C   0  0  2  0  0  0  0  0  0  0  0  0
    9.6548  -28.1103   36.1856 N   0  0  0  0  0  0  0  0  0  0  0  0
    9.8236  -27.5460   38.5325 C   0  0  0  0  0  0  0  0  0  0  0  0
    9.6130  -28.5803   39.2072 O   0  0  0  0  0  0  0  0  0  0  0  0
    2.7835  -27.3468   33.5987 N   0  0  0  0  0  0  0  0  0  0  0  0
   10.7706  -26.6082   39.0500 C   0  0  0  0  0  0  0  0  0  0  0  0
   11.4668  -26.8586   40.3173 C   0  0  0  0  0  0  0  0  0  0  0  0
   12.2686  -25.7018   40.7272 O   0  0  0  0  0  0  0  0  0  0  0  0
   12.5076  -24.7744   39.9280 O   0  0  0  0  0  0  0  0  0  0  0  0
  2  1  1  6
  3  2  1  0
  4  5  2  0
  4  2  1  0
  7  6  1  0
  8  7  2  0
  9  7  1  0
 10  9  1  0
 10 11  1  0
 11 12  1  0
 13 12  1  1
 13 14  1  0
 14  4  1  0
 15 13  1  0
 15 17  1  0
 16 15  2  0
 18 17  1  0
 18 19  1  0
 19 21  1  0
 20 19  2  0
M  END
$$$$
