ARG.pdb
     RDKit          3D

 21 20  0  0  1  0  0  0  0  0999 V2000
    7.9359  -11.9811   19.4914 C   0  0  0  0  0  0  0  0  0  0  0  0
    8.8265  -13.1902   19.5799 C   0  0  2  0  0  0  0  0  0  0  0  0
    9.0001  -13.7838   18.2869 N   0  0  0  0  0  0  0  0  0  0  0  0
    8.2945  -14.1634   20.5649 C   0  0  0  0  0  0  0  0  0  0  0  0
    8.1632  -13.8011   21.7676 O   0  0  0  0  0  0  0  0  0  0  0  0
    1.6514  -19.7341   20.6365 N   0  0  0  0  0  0  0  0  0  0  0  0
    2.2366  -19.4360   21.9203 C   0  0  0  0  0  0  0  0  0  0  0  0
    1.5000  -19.3042   22.9694 N   0  0  0  0  0  0  0  0  0  0  0  0
    3.6376  -19.2768   22.0761 N   0  0  0  0  0  0  0  0  0  0  0  0
    4.4289  -18.2980   21.3729 C   0  0  0  0  0  0  0  0  0  0  0  0
    5.8977  -18.3166   21.7633 C   0  0  0  0  0  0  0  0  0  0  0  0
    6.6400  -17.5387   20.7063 C   0  0  0  0  0  0  0  0  0  0  0  0
    7.4234  -16.3938   21.2321 C   0  0  2  0  0  0  0  0  0  0  0  0
    7.9219  -15.4781   20.2515 N   0  0  0  0  0  0  0  0  0  0  0  0
    8.5403  -16.9213   22.0926 C   0  0  0  0  0  0  0  0  0  0  0  0
    9.7003  -17.0656   21.6421 O   0  0  0  0  0  0  0  0  0  0  0  0
    1.9083  -19.0931   23.9148 N   0  0  0  0  0  0  0  0  0  0  0  0
    8.3192  -17.2791   23.4591 C   0  0  0  0  0  0  0  0  0  0  0  0
    9.4187  -17.7665   24.2998 C   0  0  0  0  0  0  0  0  0  0  0  0
    8.9570  -18.0908   25.6529 O   0  0  0  0  0  0  0  0  0  0  0  0
    7.7508  -17.9965   25.9563 O   0  0  0  0  0  0  0  0  0  0  0  0
  2  1  1  6
  3  2  1  0
  4  5  2  0
  4  2  1  0
  7  6  1  0
  8  7  2  0
  9  7  1  0
 10  9  1  0
 10 11  1  0
 11 12  1  0
 13 12  1  6
 13 14  1  0
 14  4  1  0
 15 13  1  0
 15 17  1  0
 16 15  2  0
 18 17  1  0
 18 19  1  0
 19 21  1  0
 20 19  2  0
M  END
$$$$
