PIF.pdb
     RDKit          3D

 27 28  0  0  1  0  0  0  0  0999 V2000
   28.1275  -22.0434  -18.5600 N   0  0  0  0  0  0  0  0  0  0  0  0
   29.3592  -22.3195  -19.2443 C   0  0  0  0  0  0  0  0  0  0  0  0
   30.0923  -23.2428  -18.3094 C   0  0  0  0  0  0  0  0  0  0  0  0
   29.0042  -24.0551  -17.6672 C   0  0  0  0  0  0  0  0  0  0  0  0
   27.7576  -23.2570  -17.8546 C   0  0  1  0  0  0  0  0  0  0  0  0
   27.1106  -22.8625  -16.5775 C   0  0  0  0  0  0  0  0  0  0  0  0
   26.7938  -23.7301  -15.6940 O   0  0  0  0  0  0  0  0  0  0  0  0
   28.9224  -18.4055  -14.9342 C   0  0  0  0  0  0  0  0  0  0  0  0
   28.3248  -19.7444  -14.5681 C   0  0  0  0  0  0  0  0  0  0  0  0
   26.8473  -19.7798  -14.6679 C   0  0  2  0  0  0  0  0  0  0  0  0
   26.2561  -19.2158  -13.3658 C   0  0  0  0  0  0  0  0  0  0  0  0
   26.2464  -21.1646  -14.9183 C   0  0  2  0  0  0  0  0  0  0  0  0
   26.8037  -21.5161  -16.2535 N   0  0  0  0  0  0  0  0  0  0  0  0
   24.7859  -21.1773  -14.9819 C   0  0  0  0  0  0  0  0  0  0  0  0
   24.2292  -20.4913  -15.9123 O   0  0  0  0  0  0  0  0  0  0  0  0
   23.9672  -21.8984  -14.0852 N   0  0  0  0  0  0  0  0  0  0  0  0
   22.5191  -21.8151  -14.2217 C   0  0  1  0  0  0  0  0  0  0  0  0
   21.8858  -23.1747  -14.0171 C   0  0  0  0  0  0  0  0  0  0  0  0
   20.4197  -23.1729  -14.1523 C   0  0  0  0  0  0  0  0  0  0  0  0
   19.5871  -23.1448  -13.0479 C   0  0  0  0  0  0  0  0  0  0  0  0
   18.2031  -23.1391  -13.1594 C   0  0  0  0  0  0  0  0  0  0  0  0
   17.6219  -23.1623  -14.4124 C   0  0  0  0  0  0  0  0  0  0  0  0
   18.4381  -23.1904  -15.5138 C   0  0  0  0  0  0  0  0  0  0  0  0
   19.8123  -23.1957  -15.3908 C   0  0  0  0  0  0  0  0  0  0  0  0
   21.9782  -20.7946  -13.3075 C   0  0  0  0  0  0  0  0  0  0  0  0
   20.8375  -20.2819  -13.4212 O   0  0  0  0  0  0  0  0  0  0  0  0
   22.7428  -20.3435  -12.2414 O   0  0  0  0  0  0  0  0  0  0  0  0
  1  2  1  0
  3  2  1  0
  4  3  1  0
  4  5  1  0
  5  6  1  1
  5  1  1  0
  6  7  2  0
  9  8  1  0
 10  9  1  0
 10 11  1  1
 12 10  1  0
 13  6  1  0
 12 13  1  6
 14 12  1  0
 14 15  2  0
 16 14  1  0
 17 25  1  0
 17 16  1  0
 17 18  1  1
 19 20  2  0
 19 18  1  0
 21 20  1  0
 22 21  2  0
 23 22  1  0
 23 24  2  0
 24 19  1  0
 25 27  1  0
 26 25  2  0
M  END
$$$$
