PIF.pdb
     RDKit          3D

 27 28  0  0  1  0  0  0  0  0999 V2000
   28.3821  -19.9207  -17.2299 N   0  0  0  0  0  0  0  0  0  0  0  0
   29.2531  -19.4373  -18.2640 C   0  0  0  0  0  0  0  0  0  0  0  0
   28.3708  -19.3797  -19.4814 C   0  0  0  0  0  0  0  0  0  0  0  0
   27.0209  -19.0052  -18.9393 C   0  0  0  0  0  0  0  0  0  0  0  0
   27.0688  -19.3599  -17.4909 C   0  0  1  0  0  0  0  0  0  0  0  0
   26.0552  -20.3709  -17.0961 C   0  0  0  0  0  0  0  0  0  0  0  0
   24.8099  -20.1901  -17.3201 O   0  0  0  0  0  0  0  0  0  0  0  0
   27.6285  -25.6139  -16.9990 C   0  0  0  0  0  0  0  0  0  0  0  0
   26.7675  -24.3900  -17.2100 C   0  0  0  0  0  0  0  0  0  0  0  0
   26.1531  -23.8770  -15.9636 C   0  0  2  0  0  0  0  0  0  0  0  0
   25.2371  -24.9678  -15.3856 C   0  0  0  0  0  0  0  0  0  0  0  0
   25.3410  -22.5898  -16.1220 C   0  0  2  0  0  0  0  0  0  0  0  0
   26.3927  -21.5891  -16.4527 N   0  0  0  0  0  0  0  0  0  0  0  0
   24.6393  -22.1753  -14.9082 C   0  0  0  0  0  0  0  0  0  0  0  0
   25.3310  -22.0710  -13.8326 O   0  0  0  0  0  0  0  0  0  0  0  0
   23.2581  -21.8852  -14.8600 N   0  0  0  0  0  0  0  0  0  0  0  0
   22.6219  -21.6714  -13.5670 C   0  0  1  0  0  0  0  0  0  0  0  0
   22.8151  -20.2418  -13.1082 C   0  0  0  0  0  0  0  0  0  0  0  0
   22.1109  -19.9200  -11.8559 C   0  0  0  0  0  0  0  0  0  0  0  0
   22.6872  -20.1445  -10.6185 C   0  0  0  0  0  0  0  0  0  0  0  0
   22.0372  -19.8428   -9.4292 C   0  0  0  0  0  0  0  0  0  0  0  0
   20.7683  -19.2982   -9.4672 C   0  0  0  0  0  0  0  0  0  0  0  0
   20.1877  -19.0717  -10.6885 C   0  0  0  0  0  0  0  0  0  0  0  0
   20.8433  -19.3755  -11.8639 C   0  0  0  0  0  0  0  0  0  0  0  0
   21.2024  -22.0607  -13.6259 C   0  0  0  0  0  0  0  0  0  0  0  0
   20.4653  -21.8835  -14.6270 O   0  0  0  0  0  0  0  0  0  0  0  0
   20.6027  -22.6635  -12.5298 O   0  0  0  0  0  0  0  0  0  0  0  0
  1  2  1  0
  3  2  1  0
  4  3  1  0
  4  5  1  0
  5  6  1  6
  5  1  1  0
  6  7  2  0
  9  8  1  0
 10  9  1  0
 10 11  1  6
 12 10  1  0
 13  6  1  0
 12 13  1  1
 14 12  1  0
 14 15  2  0
 16 14  1  0
 17 25  1  0
 17 16  1  0
 17 18  1  6
 19 20  2  0
 19 18  1  0
 21 20  1  0
 22 21  2  0
 23 22  1  0
 23 24  2  0
 24 19  1  0
 25 27  1  0
 26 25  2  0
M  END
$$$$
