PIF.pdb
     RDKit          3D

 27 28  0  0  1  0  0  0  0  0999 V2000
   25.7968  -24.0021  -15.4340 N   0  0  0  0  0  0  0  0  0  0  0  0
   25.7447  -24.4292  -16.8039 C   0  0  0  0  0  0  0  0  0  0  0  0
   26.4360  -23.3228  -17.5535 C   0  0  0  0  0  0  0  0  0  0  0  0
   27.5009  -22.8473  -16.6067 C   0  0  0  0  0  0  0  0  0  0  0  0
   27.0598  -23.3084  -15.2581 C   0  0  1  0  0  0  0  0  0  0  0  0
   26.8397  -22.1983  -14.2966 C   0  0  0  0  0  0  0  0  0  0  0  0
   27.4649  -21.0887  -14.4038 O   0  0  0  0  0  0  0  0  0  0  0  0
   22.1842  -20.4016  -14.1495 C   0  0  0  0  0  0  0  0  0  0  0  0
   23.6808  -20.5147  -13.9729 C   0  0  0  0  0  0  0  0  0  0  0  0
   24.0847  -20.9622  -12.6198 C   0  0  2  0  0  0  0  0  0  0  0  0
   23.5184  -19.9725  -11.5888 C   0  0  0  0  0  0  0  0  0  0  0  0
   25.5939  -21.0867  -12.4005 C   0  0  2  0  0  0  0  0  0  0  0  0
   25.9342  -22.2901  -13.2086 N   0  0  0  0  0  0  0  0  0  0  0  0
   25.9767  -21.3117  -11.0076 C   0  0  0  0  0  0  0  0  0  0  0  0
   25.5279  -22.3686  -10.4352 O   0  0  0  0  0  0  0  0  0  0  0  0
   26.8061  -20.4383  -10.2704 N   0  0  0  0  0  0  0  0  0  0  0  0
   27.0210  -20.6913   -8.8518 C   0  0  1  0  0  0  0  0  0  0  0  0
   28.2445  -19.9496   -8.3579 C   0  0  0  0  0  0  0  0  0  0  0  0
   28.4069  -19.9803   -6.8949 C   0  0  0  0  0  0  0  0  0  0  0  0
   29.2349  -20.8981   -6.2737 C   0  0  0  0  0  0  0  0  0  0  0  0
   29.4011  -20.9370   -4.8957 C   0  0  0  0  0  0  0  0  0  0  0  0
   28.7212  -20.0326   -4.1031 C   0  0  0  0  0  0  0  0  0  0  0  0
   27.8978  -19.1187   -4.7087 C   0  0  0  0  0  0  0  0  0  0  0  0
   27.7405  -19.0894   -6.0791 C   0  0  0  0  0  0  0  0  0  0  0  0
   25.8084  -20.3584   -8.0846 C   0  0  0  0  0  0  0  0  0  0  0  0
   25.0912  -19.3513   -8.3043 O   0  0  0  0  0  0  0  0  0  0  0  0
   25.3970  -21.1815   -7.0463 O   0  0  0  0  0  0  0  0  0  0  0  0
  1  2  1  0
  3  2  1  0
  4  3  1  0
  4  5  1  0
  5  6  1  1
  5  1  1  0
  6  7  2  0
  9  8  1  0
 10  9  1  0
 10 11  1  1
 12 10  1  0
 13  6  1  0
 12 13  1  6
 14 12  1  0
 14 15  2  0
 16 14  1  0
 17 25  1  0
 17 16  1  0
 17 18  1  1
 19 20  2  0
 19 18  1  0
 21 20  1  0
 22 21  2  0
 23 22  1  0
 23 24  2  0
 24 19  1  0
 25 27  1  0
 26 25  2  0
M  END
$$$$
