PIF.pdb
     RDKit          3D

 27 28  0  0  1  0  0  0  0  0999 V2000
   27.9004  -18.6687  -14.6223 N   0  0  0  0  0  0  0  0  0  0  0  0
   29.1565  -18.3185  -15.2232 C   0  0  0  0  0  0  0  0  0  0  0  0
   29.7849  -19.6468  -15.5463 C   0  0  0  0  0  0  0  0  0  0  0  0
   28.6210  -20.5266  -15.9037 C   0  0  0  0  0  0  0  0  0  0  0  0
   27.4289  -19.8627  -15.3002 C   0  0  1  0  0  0  0  0  0  0  0  0
   26.7253  -20.7062  -14.3007 C   0  0  0  0  0  0  0  0  0  0  0  0
   26.1599  -21.8032  -14.6330 O   0  0  0  0  0  0  0  0  0  0  0  0
   27.3637  -19.9133   -8.6639 C   0  0  0  0  0  0  0  0  0  0  0  0
   26.5906  -19.8668   -9.9615 C   0  0  0  0  0  0  0  0  0  0  0  0
   26.6165  -21.1438  -10.7117 C   0  0  2  0  0  0  0  0  0  0  0  0
   28.0761  -21.4744  -11.0630 C   0  0  0  0  0  0  0  0  0  0  0  0
   25.7885  -21.1580  -11.9984 C   0  0  2  0  0  0  0  0  0  0  0  0
   26.6329  -20.3589  -12.9286 N   0  0  0  0  0  0  0  0  0  0  0  0
   24.4760  -20.5271  -11.8689 C   0  0  0  0  0  0  0  0  0  0  0  0
   24.4308  -19.2454  -11.9050 O   0  0  0  0  0  0  0  0  0  0  0  0
   23.2712  -21.2465  -11.7107 N   0  0  0  0  0  0  0  0  0  0  0  0
   22.0229  -20.5138  -11.5456 C   0  0  1  0  0  0  0  0  0  0  0  0
   20.9020  -21.1940  -12.3022 C   0  0  0  0  0  0  0  0  0  0  0  0
   19.5902  -20.5492  -12.1261 C   0  0  0  0  0  0  0  0  0  0  0  0
   19.1976  -19.4741  -12.9031 C   0  0  0  0  0  0  0  0  0  0  0  0
   17.9625  -18.8580  -12.7512 C   0  0  0  0  0  0  0  0  0  0  0  0
   17.0832  -19.3246  -11.7934 C   0  0  0  0  0  0  0  0  0  0  0  0
   17.4625  -20.3898  -11.0178 C   0  0  0  0  0  0  0  0  0  0  0  0
   18.6924  -20.9941  -11.1777 C   0  0  0  0  0  0  0  0  0  0  0  0
   21.7177  -20.3413  -10.1149 C   0  0  0  0  0  0  0  0  0  0  0  0
   22.0292  -21.1698   -9.2242 O   0  0  0  0  0  0  0  0  0  0  0  0
   21.0459  -19.2076   -9.6810 O   0  0  0  0  0  0  0  0  0  0  0  0
  1  2  1  0
  3  2  1  0
  4  3  1  0
  4  5  1  0
  5  6  1  1
  5  1  1  0
  6  7  2  0
  9  8  1  0
 10  9  1  0
 10 11  1  6
 12 10  1  0
 13  6  1  0
 12 13  1  6
 14 12  1  0
 14 15  2  0
 16 14  1  0
 17 25  1  0
 17 16  1  0
 17 18  1  6
 19 20  2  0
 19 18  1  0
 21 20  1  0
 22 21  2  0
 23 22  1  0
 23 24  2  0
 24 19  1  0
 25 27  1  0
 26 25  2  0
M  END
$$$$
