PIF.pdb
     RDKit          3D

 27 28  0  0  1  0  0  0  0  0999 V2000
   26.8332  -18.4736  -15.5603 N   0  0  0  0  0  0  0  0  0  0  0  0
   26.7738  -18.2942  -16.9837 C   0  0  0  0  0  0  0  0  0  0  0  0
   25.3010  -18.3230  -17.2899 C   0  0  0  0  0  0  0  0  0  0  0  0
   24.6637  -17.6826  -16.0898 C   0  0  0  0  0  0  0  0  0  0  0  0
   25.6795  -17.7915  -15.0024 C   0  0  1  0  0  0  0  0  0  0  0  0
   25.2099  -18.5743  -13.8311 C   0  0  0  0  0  0  0  0  0  0  0  0
   24.1520  -18.2491  -13.1918 O   0  0  0  0  0  0  0  0  0  0  0  0
   24.1944  -23.4680  -14.4350 C   0  0  0  0  0  0  0  0  0  0  0  0
   24.2016  -22.0890  -13.8169 C   0  0  0  0  0  0  0  0  0  0  0  0
   25.2467  -21.9099  -12.7825 C   0  0  2  0  0  0  0  0  0  0  0  0
   24.9728  -22.8961  -11.6355 C   0  0  0  0  0  0  0  0  0  0  0  0
   25.3488  -20.4987  -12.2001 C   0  0  2  0  0  0  0  0  0  0  0  0
   25.8919  -19.7200  -13.3471 N   0  0  0  0  0  0  0  0  0  0  0  0
   26.2602  -20.3886  -11.0622 C   0  0  0  0  0  0  0  0  0  0  0  0
   27.4546  -20.8307  -11.2172 O   0  0  0  0  0  0  0  0  0  0  0  0
   25.8988  -19.8257   -9.8184 N   0  0  0  0  0  0  0  0  0  0  0  0
   26.7641  -20.0359   -8.6654 C   0  0  1  0  0  0  0  0  0  0  0  0
   26.5442  -18.9538   -7.6301 C   0  0  0  0  0  0  0  0  0  0  0  0
   27.4238  -19.0689   -6.4550 C   0  0  0  0  0  0  0  0  0  0  0  0
   28.4853  -18.2051   -6.2532 C   0  0  0  0  0  0  0  0  0  0  0  0
   29.3211  -18.2988   -5.1484 C   0  0  0  0  0  0  0  0  0  0  0  0
   29.0969  -19.2856   -4.2080 C   0  0  0  0  0  0  0  0  0  0  0  0
   28.0475  -20.1472   -4.3985 C   0  0  0  0  0  0  0  0  0  0  0  0
   27.2234  -20.0445   -5.5003 C   0  0  0  0  0  0  0  0  0  0  0  0
   26.5679  -21.3902   -8.1201 C   0  0  0  0  0  0  0  0  0  0  0  0
   25.4495  -21.9519   -8.0173 O   0  0  0  0  0  0  0  0  0  0  0  0
   27.6591  -22.1260   -7.6816 O   0  0  0  0  0  0  0  0  0  0  0  0
  1  2  1  0
  3  2  1  0
  4  3  1  0
  4  5  1  0
  5  6  1  1
  5  1  1  0
  6  7  2  0
  9  8  1  0
 10  9  1  0
 10 11  1  1
 12 10  1  0
 13  6  1  0
 12 13  1  6
 14 12  1  0
 14 15  2  0
 16 14  1  0
 17 25  1  0
 17 16  1  0
 17 18  1  1
 19 20  2  0
 19 18  1  0
 21 20  1  0
 22 21  2  0
 23 22  1  0
 23 24  2  0
 24 19  1  0
 25 27  1  0
 26 25  2  0
M  END
$$$$
