PIF.pdb
     RDKit          3D

 27 28  0  0  1  0  0  0  0  0999 V2000
   22.5469  -21.2470  -14.3440 N   0  0  0  0  0  0  0  0  0  0  0  0
   21.2007  -20.8606  -14.6608 C   0  0  0  0  0  0  0  0  0  0  0  0
   20.6945  -20.2389  -13.3876 C   0  0  0  0  0  0  0  0  0  0  0  0
   21.9039  -19.5694  -12.7997 C   0  0  0  0  0  0  0  0  0  0  0  0
   23.0726  -20.2376  -13.4429 C   0  0  1  0  0  0  0  0  0  0  0  0
   23.9725  -20.9150  -12.4752 C   0  0  0  0  0  0  0  0  0  0  0  0
   23.6370  -22.0083  -11.9044 O   0  0  0  0  0  0  0  0  0  0  0  0
   29.9167  -21.6366  -11.7214 C   0  0  0  0  0  0  0  0  0  0  0  0
   28.5588  -21.7781  -11.0734 C   0  0  0  0  0  0  0  0  0  0  0  0
   27.4729  -21.1042  -11.8223 C   0  0  2  0  0  0  0  0  0  0  0  0
   27.8834  -19.6436  -12.0695 C   0  0  0  0  0  0  0  0  0  0  0  0
   26.1052  -21.1184  -11.1362 C   0  0  2  0  0  0  0  0  0  0  0  0
   25.2478  -20.4043  -12.1220 N   0  0  0  0  0  0  0  0  0  0  0  0
   26.0726  -20.4085   -9.8585 C   0  0  0  0  0  0  0  0  0  0  0  0
   25.7661  -19.1629   -9.8826 O   0  0  0  0  0  0  0  0  0  0  0  0
   26.3548  -21.0161   -8.6154 N   0  0  0  0  0  0  0  0  0  0  0  0
   26.3178  -20.2068   -7.4046 C   0  0  1  0  0  0  0  0  0  0  0  0
   26.5009  -21.0747   -6.1780 C   0  0  0  0  0  0  0  0  0  0  0  0
   27.5950  -20.6339   -5.2968 C   0  0  0  0  0  0  0  0  0  0  0  0
   28.8482  -21.2177   -5.3449 C   0  0  0  0  0  0  0  0  0  0  0  0
   29.8907  -20.8105   -4.5231 C   0  0  0  0  0  0  0  0  0  0  0  0
   29.6838  -19.7862   -3.6195 C   0  0  0  0  0  0  0  0  0  0  0  0
   28.4453  -19.2007   -3.5637 C   0  0  0  0  0  0  0  0  0  0  0  0
   27.4168  -19.6137   -4.3853 C   0  0  0  0  0  0  0  0  0  0  0  0
   27.3115  -19.1224   -7.4850 C   0  0  0  0  0  0  0  0  0  0  0  0
   28.4391  -19.2401   -8.0247 O   0  0  0  0  0  0  0  0  0  0  0  0
   27.0247  -17.8776   -6.9437 O   0  0  0  0  0  0  0  0  0  0  0  0
  1  2  1  0
  3  2  1  0
  4  3  1  0
  4  5  1  0
  5  6  1  1
  5  1  1  0
  6  7  2  0
  9  8  1  0
 10  9  1  0
 10 11  1  1
 12 10  1  0
 13  6  1  0
 12 13  1  6
 14 12  1  0
 14 15  2  0
 16 14  1  0
 17 25  1  0
 17 16  1  0
 17 18  1  1
 19 20  2  0
 19 18  1  0
 21 20  1  0
 22 21  2  0
 23 22  1  0
 23 24  2  0
 24 19  1  0
 25 27  1  0
 26 25  2  0
M  END
$$$$
