PIF.pdb
     RDKit          3D

 27 28  0  0  1  0  0  0  0  0999 V2000
   44.1483  -14.0119   -9.4862 N   0  0  0  0  0  0  0  0  0  0  0  0
   44.6693  -15.3498   -9.5043 C   0  0  0  0  0  0  0  0  0  0  0  0
   43.6832  -16.1322   -8.6802 C   0  0  0  0  0  0  0  0  0  0  0  0
   42.3617  -15.4802   -8.9719 C   0  0  0  0  0  0  0  0  0  0  0  0
   42.7011  -14.1245   -9.4943 C   0  0  1  0  0  0  0  0  0  0  0  0
   42.1535  -13.0186   -8.6682 C   0  0  0  0  0  0  0  0  0  0  0  0
   40.9082  -12.9474   -8.3893 O   0  0  0  0  0  0  0  0  0  0  0  0
   45.3574  -10.6992   -4.8585 C   0  0  0  0  0  0  0  0  0  0  0  0
   44.1213  -11.2431   -5.5367 C   0  0  0  0  0  0  0  0  0  0  0  0
   43.5654  -10.3370   -6.5683 C   0  0  2  0  0  0  0  0  0  0  0  0
   43.1622   -9.0164   -5.8924 C   0  0  0  0  0  0  0  0  0  0  0  0
   42.3573  -10.8848   -7.3309 C   0  0  2  0  0  0  0  0  0  0  0  0
   42.9615  -11.9798   -8.1389 N   0  0  0  0  0  0  0  0  0  0  0  0
   41.7257   -9.9136   -8.2227 C   0  0  0  0  0  0  0  0  0  0  0  0
   42.2864   -9.7015   -9.3570 O   0  0  0  0  0  0  0  0  0  0  0  0
   40.5442   -9.2083   -7.9049 N   0  0  0  0  0  0  0  0  0  0  0  0
   39.9086   -8.3896   -8.9287 C   0  0  1  0  0  0  0  0  0  0  0  0
   38.4287   -8.6967   -9.0133 C   0  0  0  0  0  0  0  0  0  0  0  0
   37.7023   -8.4690   -7.7530 C   0  0  0  0  0  0  0  0  0  0  0  0
   37.1120   -7.2519   -7.4630 C   0  0  0  0  0  0  0  0  0  0  0  0
   36.4207   -7.0233   -6.2808 C   0  0  0  0  0  0  0  0  0  0  0  0
   36.3101   -8.0386   -5.3506 C   0  0  0  0  0  0  0  0  0  0  0  0
   36.8916   -9.2489   -5.6281 C   0  0  0  0  0  0  0  0  0  0  0  0
   37.5762   -9.4646   -6.8064 C   0  0  0  0  0  0  0  0  0  0  0  0
   40.1781   -6.9627   -8.6814 C   0  0  0  0  0  0  0  0  0  0  0  0
   40.6901   -6.5162   -7.6253 O   0  0  0  0  0  0  0  0  0  0  0  0
   39.8622   -6.0196   -9.6486 O   0  0  0  0  0  0  0  0  0  0  0  0
  1  2  1  0
  3  2  1  0
  4  3  1  0
  4  5  1  0
  5  6  1  1
  5  1  1  0
  6  7  2  0
  9  8  1  0
 10  9  1  0
 10 11  1  1
 12 10  1  0
 13  6  1  0
 12 13  1  6
 14 12  1  0
 14 15  2  0
 16 14  1  0
 17 25  1  0
 17 16  1  0
 17 18  1  1
 19 20  2  0
 19 18  1  0
 21 20  1  0
 22 21  2  0
 23 22  1  0
 23 24  2  0
 24 19  1  0
 25 27  1  0
 26 25  2  0
M  END
$$$$
