PIF.pdb
     RDKit          3D

 27 28  0  0  1  0  0  0  0  0999 V2000
   28.1349  -19.1853  -16.2166 N   0  0  0  0  0  0  0  0  0  0  0  0
   28.3989  -18.0009  -16.9843 C   0  0  0  0  0  0  0  0  0  0  0  0
   27.2981  -17.0573  -16.5821 C   0  0  0  0  0  0  0  0  0  0  0  0
   27.0498  -17.3778  -15.1357 C   0  0  0  0  0  0  0  0  0  0  0  0
   27.6070  -18.7476  -14.9371 C   0  0  1  0  0  0  0  0  0  0  0  0
   26.5932  -19.7403  -14.4989 C   0  0  0  0  0  0  0  0  0  0  0  0
   26.0390  -20.5389  -15.3287 O   0  0  0  0  0  0  0  0  0  0  0  0
   25.7190  -20.4909   -8.9440 C   0  0  0  0  0  0  0  0  0  0  0  0
   25.5127  -20.0770  -10.3827 C   0  0  0  0  0  0  0  0  0  0  0  0
   25.5243  -21.2135  -11.3326 C   0  0  2  0  0  0  0  0  0  0  0  0
   26.9338  -21.8271  -11.3431 C   0  0  0  0  0  0  0  0  0  0  0  0
   25.1329  -20.8627  -12.7697 C   0  0  2  0  0  0  0  0  0  0  0  0
   26.1754  -19.8699  -13.1496 N   0  0  0  0  0  0  0  0  0  0  0  0
   23.8106  -20.2517  -12.8944 C   0  0  0  0  0  0  0  0  0  0  0  0
   23.6549  -19.0758  -12.4056 O   0  0  0  0  0  0  0  0  0  0  0  0
   22.7111  -20.8802  -13.5194 N   0  0  0  0  0  0  0  0  0  0  0  0
   21.4553  -20.1527  -13.6465 C   0  0  1  0  0  0  0  0  0  0  0  0
   21.4344  -19.3459  -14.9271 C   0  0  0  0  0  0  0  0  0  0  0  0
   21.8221  -20.1163  -16.1204 C   0  0  0  0  0  0  0  0  0  0  0  0
   20.9328  -20.9585  -16.7634 C   0  0  0  0  0  0  0  0  0  0  0  0
   21.2825  -21.6885  -17.8916 C   0  0  0  0  0  0  0  0  0  0  0  0
   22.5616  -21.5801  -18.4020 C   0  0  0  0  0  0  0  0  0  0  0  0
   23.4510  -20.7481  -17.7721 C   0  0  0  0  0  0  0  0  0  0  0  0
   23.0922  -20.0275  -16.6516 C   0  0  0  0  0  0  0  0  0  0  0  0
   20.3155  -21.0800  -13.5423 C   0  0  0  0  0  0  0  0  0  0  0  0
   19.1123  -20.7213  -13.5651 O   0  0  0  0  0  0  0  0  0  0  0  0
   20.5401  -22.4426  -13.4094 O   0  0  0  0  0  0  0  0  0  0  0  0
  1  2  1  0
  3  2  1  0
  4  3  1  0
  4  5  1  0
  5  6  1  6
  5  1  1  0
  6  7  2  0
  9  8  1  0
 10  9  1  0
 10 11  1  6
 12 10  1  0
 13  6  1  0
 12 13  1  1
 14 12  1  0
 14 15  2  0
 16 14  1  0
 17 25  1  0
 17 16  1  0
 17 18  1  6
 19 20  2  0
 19 18  1  0
 21 20  1  0
 22 21  2  0
 23 22  1  0
 23 24  2  0
 24 19  1  0
 25 27  1  0
 26 25  2  0
M  END
$$$$
