PIF.pdb
     RDKit          3D

 27 28  0  0  1  0  0  0  0  0999 V2000
   27.6025  -19.1878  -15.4496 N   0  0  0  0  0  0  0  0  0  0  0  0
   28.9261  -18.7604  -15.8060 C   0  0  0  0  0  0  0  0  0  0  0  0
   29.7797  -19.9710  -15.5421 C   0  0  0  0  0  0  0  0  0  0  0  0
   28.8875  -21.1307  -15.8820 C   0  0  0  0  0  0  0  0  0  0  0  0
   27.4992  -20.5877  -15.8199 C   0  0  1  0  0  0  0  0  0  0  0  0
   26.6446  -21.2639  -14.8110 C   0  0  0  0  0  0  0  0  0  0  0  0
   26.2037  -22.4491  -14.9966 O   0  0  0  0  0  0  0  0  0  0  0  0
   25.4978  -20.7457   -8.8147 C   0  0  0  0  0  0  0  0  0  0  0  0
   24.9681  -21.2312  -10.1441 C   0  0  0  0  0  0  0  0  0  0  0  0
   25.8487  -20.9002  -11.2883 C   0  0  2  0  0  0  0  0  0  0  0  0
   26.0737  -19.3797  -11.3077 C   0  0  0  0  0  0  0  0  0  0  0  0
   25.3240  -21.3345  -12.6584 C   0  0  2  0  0  0  0  0  0  0  0  0
   26.2636  -20.6513  -13.5897 N   0  0  0  0  0  0  0  0  0  0  0  0
   23.9573  -20.8973  -12.9386 C   0  0  0  0  0  0  0  0  0  0  0  0
   23.7239  -19.6360  -12.9135 O   0  0  0  0  0  0  0  0  0  0  0  0
   22.8955  -21.7803  -13.2339 N   0  0  0  0  0  0  0  0  0  0  0  0
   21.5797  -21.2329  -13.5362 C   0  0  1  0  0  0  0  0  0  0  0  0
   21.3481  -21.1977  -15.0316 C   0  0  0  0  0  0  0  0  0  0  0  0
   19.9967  -20.7549  -15.4128 C   0  0  0  0  0  0  0  0  0  0  0  0
   18.9707  -21.6563  -15.6331 C   0  0  0  0  0  0  0  0  0  0  0  0
   17.6904  -21.2539  -15.9894 C   0  0  0  0  0  0  0  0  0  0  0  0
   17.4163  -19.9076  -16.1330 C   0  0  0  0  0  0  0  0  0  0  0  0
   18.4262  -19.0056  -15.9171 C   0  0  0  0  0  0  0  0  0  0  0  0
   19.6946  -19.4172  -15.5633 C   0  0  0  0  0  0  0  0  0  0  0  0
   20.5366  -21.9859  -12.8187 C   0  0  0  0  0  0  0  0  0  0  0  0
   20.5138  -23.2376  -12.7211 O   0  0  0  0  0  0  0  0  0  0  0  0
   19.4963  -21.3097  -12.1979 O   0  0  0  0  0  0  0  0  0  0  0  0
  1  2  1  0
  3  2  1  0
  4  3  1  0
  4  5  1  0
  5  6  1  1
  5  1  1  0
  6  7  2  0
  9  8  1  0
 10  9  1  0
 10 11  1  6
 12 10  1  0
 13  6  1  0
 12 13  1  6
 14 12  1  0
 14 15  2  0
 16 14  1  0
 17 25  1  0
 17 16  1  0
 17 18  1  6
 19 20  2  0
 19 18  1  0
 21 20  1  0
 22 21  2  0
 23 22  1  0
 23 24  2  0
 24 19  1  0
 25 27  1  0
 26 25  2  0
M  END
$$$$
