PIF.pdb
     RDKit          3D

 27 28  0  0  1  0  0  0  0  0999 V2000
   21.8171  -10.2358  -19.8771 N   0  0  0  0  0  0  0  0  0  0  0  0
   22.2261  -11.4016  -20.6089 C   0  0  0  0  0  0  0  0  0  0  0  0
   21.4974  -12.5287  -19.9288 C   0  0  0  0  0  0  0  0  0  0  0  0
   20.1918  -11.9188  -19.5043 C   0  0  0  0  0  0  0  0  0  0  0  0
   20.4339  -10.4466  -19.4901 C   0  0  1  0  0  0  0  0  0  0  0  0
   20.2351   -9.8277  -18.1549 C   0  0  0  0  0  0  0  0  0  0  0  0
   19.1139   -9.9008  -17.5458 O   0  0  0  0  0  0  0  0  0  0  0  0
   23.7540  -10.7058  -14.4885 C   0  0  0  0  0  0  0  0  0  0  0  0
   22.4768  -10.3579  -15.2175 C   0  0  0  0  0  0  0  0  0  0  0  0
   22.2505   -8.9001  -15.3514 C   0  0  2  0  0  0  0  0  0  0  0  0
   22.1538   -8.2895  -13.9440 C   0  0  0  0  0  0  0  0  0  0  0  0
   21.0008   -8.5069  -16.1420 C   0  0  2  0  0  0  0  0  0  0  0  0
   21.2597   -9.1230  -17.4726 N   0  0  0  0  0  0  0  0  0  0  0  0
   20.8255   -7.0641  -16.2997 C   0  0  0  0  0  0  0  0  0  0  0  0
   21.8206   -6.3945  -16.7552 O   0  0  0  0  0  0  0  0  0  0  0  0
   19.6319   -6.3790  -15.9829 N   0  0  0  0  0  0  0  0  0  0  0  0
   19.5937   -4.9273  -16.1000 C   0  0  1  0  0  0  0  0  0  0  0  0
   19.6367   -4.5090  -17.5542 C   0  0  0  0  0  0  0  0  0  0  0  0
   18.3888   -4.7801  -18.2870 C   0  0  0  0  0  0  0  0  0  0  0  0
   17.8229   -3.8425  -19.1323 C   0  0  0  0  0  0  0  0  0  0  0  0
   16.6488   -4.0849  -19.8327 C   0  0  0  0  0  0  0  0  0  0  0  0
   16.0111   -5.3020  -19.6903 C   0  0  0  0  0  0  0  0  0  0  0  0
   16.5635   -6.2384  -18.8548 C   0  0  0  0  0  0  0  0  0  0  0  0
   17.7308   -5.9864  -18.1638 C   0  0  0  0  0  0  0  0  0  0  0  0
   18.4209   -4.3887  -15.3898 C   0  0  0  0  0  0  0  0  0  0  0  0
   17.5112   -5.0985  -14.8945 O   0  0  0  0  0  0  0  0  0  0  0  0
   18.2728   -3.0179  -15.2359 O   0  0  0  0  0  0  0  0  0  0  0  0
  1  2  1  0
  3  2  1  0
  4  3  1  0
  4  5  1  0
  5  6  1  1
  5  1  1  0
  6  7  2  0
  9  8  1  0
 10  9  1  0
 10 11  1  1
 12 10  1  0
 13  6  1  0
 12 13  1  6
 14 12  1  0
 14 15  2  0
 16 14  1  0
 17 25  1  0
 17 16  1  0
 17 18  1  6
 19 20  2  0
 19 18  1  0
 21 20  1  0
 22 21  2  0
 23 22  1  0
 23 24  2  0
 24 19  1  0
 25 27  1  0
 26 25  2  0
M  END
$$$$
