PIF.pdb
     RDKit          3D

 27 28  0  0  1  0  0  0  0  0999 V2000
   22.0851  -13.5949  -17.7679 N   0  0  0  0  0  0  0  0  0  0  0  0
   22.4620  -14.9107  -18.2019 C   0  0  0  0  0  0  0  0  0  0  0  0
   21.5230  -15.1975  -19.3420 C   0  0  0  0  0  0  0  0  0  0  0  0
   21.3166  -13.8596  -19.9932 C   0  0  0  0  0  0  0  0  0  0  0  0
   21.6947  -12.8567  -18.9553 C   0  0  1  0  0  0  0  0  0  0  0  0
   20.5832  -11.9460  -18.5806 C   0  0  0  0  0  0  0  0  0  0  0  0
   20.0863  -11.1192  -19.4191 O   0  0  0  0  0  0  0  0  0  0  0  0
   16.9282  -14.1088  -16.4719 C   0  0  0  0  0  0  0  0  0  0  0  0
   17.1096  -12.7247  -17.0509 C   0  0  0  0  0  0  0  0  0  0  0  0
   17.9221  -11.8280  -16.1965 C   0  0  2  0  0  0  0  0  0  0  0  0
   16.9724  -10.9130  -15.4067 C   0  0  0  0  0  0  0  0  0  0  0  0
   18.9310  -10.9553  -16.9462 C   0  0  2  0  0  0  0  0  0  0  0  0
   20.0038  -11.9302  -17.2859 N   0  0  0  0  0  0  0  0  0  0  0  0
   19.4946   -9.8721  -16.1421 C   0  0  0  0  0  0  0  0  0  0  0  0
   20.2283  -10.1993  -15.1417 O   0  0  0  0  0  0  0  0  0  0  0  0
   19.2777   -8.5022  -16.4079 N   0  0  0  0  0  0  0  0  0  0  0  0
   19.8118   -7.5069  -15.4878 C   0  0  1  0  0  0  0  0  0  0  0  0
   21.0265   -6.8282  -16.0836 C   0  0  0  0  0  0  0  0  0  0  0  0
   21.4630   -5.6339  -15.3415 C   0  0  0  0  0  0  0  0  0  0  0  0
   21.1158   -4.3577  -15.7472 C   0  0  0  0  0  0  0  0  0  0  0  0
   21.5167   -3.2223  -15.0558 C   0  0  0  0  0  0  0  0  0  0  0  0
   22.2909   -3.3561  -13.9196 C   0  0  0  0  0  0  0  0  0  0  0  0
   22.6408   -4.6166  -13.5087 C   0  0  0  0  0  0  0  0  0  0  0  0
   22.2365   -5.7378  -14.2038 C   0  0  0  0  0  0  0  0  0  0  0  0
   18.7595   -6.5502  -15.1038 C   0  0  0  0  0  0  0  0  0  0  0  0
   17.8448   -6.1645  -15.8727 O   0  0  0  0  0  0  0  0  0  0  0  0
   18.7403   -6.0179  -13.8228 O   0  0  0  0  0  0  0  0  0  0  0  0
  1  2  1  0
  3  2  1  0
  4  3  1  0
  4  5  1  0
  5  6  1  1
  5  1  1  0
  6  7  2  0
  9  8  1  0
 10  9  1  0
 10 11  1  6
 12 10  1  0
 13  6  1  0
 12 13  1  1
 14 12  1  0
 14 15  2  0
 16 14  1  0
 17 25  1  0
 17 16  1  0
 17 18  1  6
 19 20  2  0
 19 18  1  0
 21 20  1  0
 22 21  2  0
 23 22  1  0
 23 24  2  0
 24 19  1  0
 25 27  1  0
 26 25  2  0
M  END
$$$$
