PIF.pdb
     RDKit          3D

 27 28  0  0  1  0  0  0  0  0999 V2000
   20.2853   31.5546 -117.5978 N   0  0  0  0  0  0  0  0  0  0  0  0
   19.2370   31.0883 -118.4611 C   0  0  0  0  0  0  0  0  0  0  0  0
   19.2884   29.5916 -118.3152 C   0  0  0  0  0  0  0  0  0  0  0  0
   19.6895   29.3755 -116.8839 C   0  0  0  0  0  0  0  0  0  0  0  0
   20.3188   30.6589 -116.4559 C   0  0  1  0  0  0  0  0  0  0  0  0
   21.7350   30.5111 -116.0341 C   0  0  0  0  0  0  0  0  0  0  0  0
   22.6127   30.0008 -116.8105 O   0  0  0  0  0  0  0  0  0  0  0  0
   26.5609   30.7175 -114.2803 C   0  0  0  0  0  0  0  0  0  0  0  0
   25.4798   31.7370 -114.5551 C   0  0  0  0  0  0  0  0  0  0  0  0
   24.2479   31.5213 -113.7612 C   0  0  2  0  0  0  0  0  0  0  0  0
   24.6386   31.3834 -112.2808 C   0  0  0  0  0  0  0  0  0  0  0  0
   23.4210   30.2987 -114.1647 C   0  0  2  0  0  0  0  0  0  0  0  0
   22.2055   30.9195 -114.7599 N   0  0  0  0  0  0  0  0  0  0  0  0
   23.0321   29.4461 -113.0424 C   0  0  0  0  0  0  0  0  0  0  0  0
   23.5242   28.2620 -113.0022 O   0  0  0  0  0  0  0  0  0  0  0  0
   22.1562   29.8547 -112.0127 N   0  0  0  0  0  0  0  0  0  0  0  0
   22.6543   29.9328 -110.6459 C   0  0  1  0  0  0  0  0  0  0  0  0
   22.1966   28.7341 -109.8429 C   0  0  0  0  0  0  0  0  0  0  0  0
   23.2805   28.0657 -109.1038 C   0  0  0  0  0  0  0  0  0  0  0  0
   23.5866   28.4036 -107.7977 C   0  0  0  0  0  0  0  0  0  0  0  0
   24.6032   27.7799 -107.0866 C   0  0  0  0  0  0  0  0  0  0  0  0
   25.3446   26.7841 -107.6923 C   0  0  0  0  0  0  0  0  0  0  0  0
   25.0495   26.4416 -108.9868 C   0  0  0  0  0  0  0  0  0  0  0  0
   24.0369   27.0683 -109.6836 C   0  0  0  0  0  0  0  0  0  0  0  0
   24.1190   30.0899 -110.6447 C   0  0  0  0  0  0  0  0  0  0  0  0
   24.7670   30.6372 -109.7187 O   0  0  0  0  0  0  0  0  0  0  0  0
   24.8679   29.6183 -111.7130 O   0  0  0  0  0  0  0  0  0  0  0  0
  1  2  1  0
  3  2  1  0
  4  3  1  0
  4  5  1  0
  5  6  1  6
  5  1  1  0
  6  7  2  0
  9  8  1  0
 10  9  1  0
 10 11  1  1
 12 10  1  0
 13  6  1  0
 12 13  1  1
 14 12  1  0
 14 15  2  0
 16 14  1  0
 17 25  1  0
 17 16  1  0
 17 18  1  1
 19 20  2  0
 19 18  1  0
 21 20  1  0
 22 21  2  0
 23 22  1  0
 23 24  2  0
 24 19  1  0
 25 27  1  0
 26 25  2  0
M  END
$$$$
