INE.pdb
     RDKit          3D

 26 25  0  0  1  0  0  0  0  0999 V2000
   30.5407  -20.9849  -12.0925 C   0  0  0  0  0  0  0  0  0  0  0  0
   29.2389  -20.4866  -12.6035 C   0  0  0  0  0  0  0  0  0  0  0  0
   28.9821  -20.7887  -14.0420 C   0  0  2  0  0  0  0  0  0  0  0  0
   30.1221  -20.2433  -14.8842 C   0  0  0  0  0  0  0  0  0  0  0  0
   27.6465  -20.2626  -14.4935 C   0  0  2  0  0  0  0  0  0  0  0  0
   27.7229  -18.7990  -14.2961 N   0  0  0  0  0  0  0  0  0  0  0  0
   26.4997  -20.7234  -13.6915 C   0  0  0  0  0  0  0  0  0  0  0  0
   26.0678  -21.9112  -13.8792 O   0  0  0  0  0  0  0  0  0  0  0  0
   22.5483  -21.3397  -10.3022 N   0  0  0  0  0  0  0  0  0  0  0  0
   23.7947  -20.9732   -9.7406 C   0  0  0  0  0  0  0  0  0  0  0  0
   23.9297  -21.0254   -8.5002 O   0  0  0  0  0  0  0  0  0  0  0  0
   24.8874  -20.5468  -10.5981 C   0  0  0  0  0  0  0  0  0  0  0  0
   24.5913  -20.4955  -12.0710 C   0  0  2  0  0  0  0  0  0  0  0  0
   25.8014  -19.9887  -12.7070 N   0  0  0  0  0  0  0  0  0  0  0  0
   23.3616  -19.8193  -12.4553 C   0  0  0  0  0  0  0  0  0  0  0  0
   23.2852  -18.5422  -12.3651 O   0  0  0  0  0  0  0  0  0  0  0  0
   22.1903  -20.4567  -12.9373 N   0  0  0  0  0  0  0  0  0  0  0  0
   21.3372  -19.8819  -14.0033 C   0  0  1  0  0  0  0  0  0  0  0  0
   22.1526  -19.1086  -14.9455 C   0  0  0  0  0  0  0  0  0  0  0  0
   22.8442  -19.8760  -16.0024 C   0  0  0  0  0  0  0  0  0  0  0  0
   22.3190  -19.7474  -17.3732 C   0  0  0  0  0  0  0  0  0  0  0  0
   22.7130  -18.8866  -18.2066 O   0  0  0  0  0  0  0  0  0  0  0  0
   20.4476  -20.8701  -14.5644 C   0  0  0  0  0  0  0  0  0  0  0  0
   19.4485  -20.6834  -15.2911 O   0  0  0  0  0  0  0  0  0  0  0  0
   21.3131  -20.6249  -17.8315 O   0  0  0  0  0  0  0  0  0  0  0  0
   20.7206  -22.2257  -14.2688 O   0  0  0  0  0  0  0  0  0  0  0  0
  2  1  1  0
  3  4  1  6
  3  2  1  0
  5  3  1  0
  5  6  1  1
  7  5  1  0
  7  8  2  0
  9 10  1  0
 10 12  1  0
 10 11  2  0
 13 12  1  1
 13 15  1  0
 13 14  1  0
 14  7  1  0
 15 16  2  0
 17 15  1  0
 17 18  1  0
 18 19  1  6
 19 20  1  0
 20 21  1  0
 21 25  1  0
 21 22  2  0
 23 18  1  0
 24 23  2  0
 26 23  1  0
M  END
$$$$
