INE.pdb
     RDKit          3D

 26 25  0  0  1  0  0  0  0  0999 V2000
   26.1332  -14.8481  -18.9744 C   0  0  0  0  0  0  0  0  0  0  0  0
   26.1439  -13.7460  -17.9797 C   0  0  0  0  0  0  0  0  0  0  0  0
   24.9608  -12.8392  -18.0480 C   0  0  2  0  0  0  0  0  0  0  0  0
   24.7941  -12.3324  -19.4699 C   0  0  0  0  0  0  0  0  0  0  0  0
   25.0631  -11.7118  -17.0566 C   0  0  2  0  0  0  0  0  0  0  0  0
   25.2567  -12.3687  -15.7458 N   0  0  0  0  0  0  0  0  0  0  0  0
   23.8453  -10.8929  -16.9268 C   0  0  0  0  0  0  0  0  0  0  0  0
   23.5458  -10.0979  -17.8812 O   0  0  0  0  0  0  0  0  0  0  0  0
   19.3717   -8.6138  -15.2871 N   0  0  0  0  0  0  0  0  0  0  0  0
   19.4607   -9.9748  -14.9092 C   0  0  0  0  0  0  0  0  0  0  0  0
   18.4646  -10.5159  -14.3852 O   0  0  0  0  0  0  0  0  0  0  0  0
   20.6896  -10.7176  -15.1308 C   0  0  0  0  0  0  0  0  0  0  0  0
   21.8143   -9.9582  -15.7772 C   0  0  2  0  0  0  0  0  0  0  0  0
   22.9390  -10.8836  -15.8428 N   0  0  0  0  0  0  0  0  0  0  0  0
   22.1193   -8.6544  -15.2076 C   0  0  0  0  0  0  0  0  0  0  0  0
   22.7472   -8.5810  -14.0917 O   0  0  0  0  0  0  0  0  0  0  0  0
   21.7759   -7.4057  -15.7848 N   0  0  0  0  0  0  0  0  0  0  0  0
   22.2244   -6.1075  -15.2296 C   0  0  1  0  0  0  0  0  0  0  0  0
   22.1718   -5.0675  -16.2621 C   0  0  0  0  0  0  0  0  0  0  0  0
   22.6569   -3.7270  -15.8722 C   0  0  0  0  0  0  0  0  0  0  0  0
   22.6052   -2.6729  -16.9008 C   0  0  0  0  0  0  0  0  0  0  0  0
   22.2312   -2.8600  -18.0907 O   0  0  0  0  0  0  0  0  0  0  0  0
   21.5805   -5.8152  -13.9717 C   0  0  0  0  0  0  0  0  0  0  0  0
   20.4865   -6.2452  -13.5478 O   0  0  0  0  0  0  0  0  0  0  0  0
   22.9834   -1.3515  -16.5804 O   0  0  0  0  0  0  0  0  0  0  0  0
   22.2522   -4.9350  -13.0923 O   0  0  0  0  0  0  0  0  0  0  0  0
  2  1  1  0
  3  4  1  6
  3  2  1  0
  5  3  1  0
  5  6  1  1
  7  5  1  0
  7  8  2  0
  9 10  1  0
 10 12  1  0
 10 11  2  0
 13 12  1  1
 13 15  1  0
 13 14  1  0
 14  7  1  0
 15 16  2  0
 17 15  1  0
 17 18  1  0
 18 19  1  6
 19 20  1  0
 20 21  1  0
 21 25  1  0
 21 22  2  0
 23 18  1  0
 24 23  2  0
 26 23  1  0
M  END
$$$$
