INE.pdb
     RDKit          3D

 26 25  0  0  1  0  0  0  0  0999 V2000
   26.9861  -20.6342   -8.1027 C   0  0  0  0  0  0  0  0  0  0  0  0
   27.3641  -21.1152   -9.4554 C   0  0  0  0  0  0  0  0  0  0  0  0
   26.3537  -20.8344  -10.5168 C   0  0  2  0  0  0  0  0  0  0  0  0
   25.0442  -21.5163  -10.1609 C   0  0  0  0  0  0  0  0  0  0  0  0
   26.8475  -21.2394  -11.8794 C   0  0  2  0  0  0  0  0  0  0  0  0
   28.0905  -20.4648  -12.0839 N   0  0  0  0  0  0  0  0  0  0  0  0
   25.9527  -20.8765  -12.9921 C   0  0  0  0  0  0  0  0  0  0  0  0
   25.8843  -19.6484  -13.3382 O   0  0  0  0  0  0  0  0  0  0  0  0
   22.9772  -20.5064  -17.2073 N   0  0  0  0  0  0  0  0  0  0  0  0
   24.1297  -21.3233  -17.2948 C   0  0  0  0  0  0  0  0  0  0  0  0
   24.5577  -21.6337  -18.4261 O   0  0  0  0  0  0  0  0  0  0  0  0
   24.7931  -21.7854  -16.0876 C   0  0  0  0  0  0  0  0  0  0  0  0
   24.2389  -21.2692  -14.7891 C   0  0  2  0  0  0  0  0  0  0  0  0
   25.1392  -21.7503  -13.7481 N   0  0  0  0  0  0  0  0  0  0  0  0
   22.8261  -21.5208  -14.5489 C   0  0  0  0  0  0  0  0  0  0  0  0
   22.4652  -22.6038  -13.9643 O   0  0  0  0  0  0  0  0  0  0  0  0
   21.7644  -20.6546  -14.9133 N   0  0  0  0  0  0  0  0  0  0  0  0
   20.3754  -20.8296  -14.4289 C   0  0  1  0  0  0  0  0  0  0  0  0
   19.8191  -19.5413  -14.0032 C   0  0  0  0  0  0  0  0  0  0  0  0
   18.4442  -19.5640  -13.4615 C   0  0  0  0  0  0  0  0  0  0  0  0
   17.7843  -18.2618  -13.2598 C   0  0  0  0  0  0  0  0  0  0  0  0
   16.6335  -18.1184  -12.7642 O   0  0  0  0  0  0  0  0  0  0  0  0
   19.5854  -21.6127  -15.3483 C   0  0  0  0  0  0  0  0  0  0  0  0
   19.6242  -21.6057  -16.5972 O   0  0  0  0  0  0  0  0  0  0  0  0
   18.4452  -17.0691  -13.6238 O   0  0  0  0  0  0  0  0  0  0  0  0
   18.6431  -22.5069  -14.7896 O   0  0  0  0  0  0  0  0  0  0  0  0
  2  1  1  0
  3  4  1  1
  3  2  1  0
  5  3  1  0
  5  6  1  6
  7  5  1  0
  7  8  2  0
  9 10  1  0
 10 12  1  0
 10 11  2  0
 13 12  1  6
 13 15  1  0
 13 14  1  0
 14  7  1  0
 15 16  2  0
 17 15  1  0
 17 18  1  0
 18 19  1  6
 19 20  1  0
 20 21  1  0
 21 25  1  0
 21 22  2  0
 23 18  1  0
 24 23  2  0
 26 23  1  0
M  END
$$$$
