INE.pdb
     RDKit          3D

 26 25  0  0  1  0  0  0  0  0999 V2000
   27.9549  -19.5646   -7.2431 C   0  0  0  0  0  0  0  0  0  0  0  0
   27.8751  -20.6416   -8.2618 C   0  0  0  0  0  0  0  0  0  0  0  0
   26.8823  -20.3939   -9.3479 C   0  0  2  0  0  0  0  0  0  0  0  0
   25.4833  -20.3692   -8.7576 C   0  0  0  0  0  0  0  0  0  0  0  0
   27.0071  -21.4008  -10.4592 C   0  0  2  0  0  0  0  0  0  0  0  0
   28.4052  -21.2856  -10.9273 N   0  0  0  0  0  0  0  0  0  0  0  0
   26.1599  -21.1304  -11.6337 C   0  0  0  0  0  0  0  0  0  0  0  0
   26.6181  -20.3634  -12.5472 O   0  0  0  0  0  0  0  0  0  0  0  0
   24.7426  -21.6420  -16.5413 N   0  0  0  0  0  0  0  0  0  0  0  0
   23.9544  -22.0886  -15.4539 C   0  0  0  0  0  0  0  0  0  0  0  0
   22.7447  -22.3276  -15.6510 O   0  0  0  0  0  0  0  0  0  0  0  0
   24.5503  -22.2621  -14.1401 C   0  0  0  0  0  0  0  0  0  0  0  0
   24.1101  -21.2909  -13.0805 C   0  0  2  0  0  0  0  0  0  0  0  0
   24.8637  -21.6358  -11.8809 N   0  0  0  0  0  0  0  0  0  0  0  0
   22.6739  -21.1555  -12.8905 C   0  0  0  0  0  0  0  0  0  0  0  0
   22.0680  -21.9272  -12.0645 O   0  0  0  0  0  0  0  0  0  0  0  0
   21.8424  -20.2193  -13.5556 N   0  0  0  0  0  0  0  0  0  0  0  0
   20.3820  -20.1274  -13.3245 C   0  0  1  0  0  0  0  0  0  0  0  0
   19.8642  -18.8568  -13.8421 C   0  0  0  0  0  0  0  0  0  0  0  0
   20.8627  -17.9074  -14.3770 C   0  0  0  0  0  0  0  0  0  0  0  0
   20.3596  -16.6062  -14.8517 C   0  0  0  0  0  0  0  0  0  0  0  0
   19.6973  -16.4455  -15.9130 O   0  0  0  0  0  0  0  0  0  0  0  0
   19.7006  -21.3302  -13.7389 C   0  0  0  0  0  0  0  0  0  0  0  0
   18.5150  -21.6584  -13.5199 O   0  0  0  0  0  0  0  0  0  0  0  0
   20.6044  -15.4359  -14.1018 O   0  0  0  0  0  0  0  0  0  0  0  0
   20.4471  -22.2693  -14.4874 O   0  0  0  0  0  0  0  0  0  0  0  0
  2  1  1  0
  3  4  1  1
  3  2  1  0
  5  3  1  0
  5  6  1  6
  7  5  1  0
  7  8  2  0
  9 10  1  0
 10 12  1  0
 10 11  2  0
 13 12  1  6
 13 15  1  0
 13 14  1  0
 14  7  1  0
 15 16  2  0
 17 15  1  0
 17 18  1  0
 18 19  1  6
 19 20  1  0
 20 21  1  0
 21 25  1  0
 21 22  2  0
 23 18  1  0
 24 23  2  0
 26 23  1  0
M  END
$$$$
