INE.pdb
     RDKit          3D

 26 25  0  0  1  0  0  0  0  0999 V2000
   19.9406  -13.6444  -17.7859 C   0  0  0  0  0  0  0  0  0  0  0  0
   19.7228  -12.8119  -16.5761 C   0  0  0  0  0  0  0  0  0  0  0  0
   19.4715  -11.3678  -16.8557 C   0  0  2  0  0  0  0  0  0  0  0  0
   20.6306  -10.7989  -17.6551 C   0  0  0  0  0  0  0  0  0  0  0  0
   19.2228  -10.5893  -15.5922 C   0  0  2  0  0  0  0  0  0  0  0  0
   18.2559  -11.4025  -14.8234 N   0  0  0  0  0  0  0  0  0  0  0  0
   18.5838   -9.2770  -15.7927 C   0  0  0  0  0  0  0  0  0  0  0  0
   19.2487   -8.3651  -16.3919 O   0  0  0  0  0  0  0  0  0  0  0  0
   13.5804   -9.5113  -15.9750 N   0  0  0  0  0  0  0  0  0  0  0  0
   14.6013   -8.6550  -16.4522 C   0  0  0  0  0  0  0  0  0  0  0  0
   14.9332   -8.7324  -17.6536 O   0  0  0  0  0  0  0  0  0  0  0  0
   15.2430   -7.7095  -15.5548 C   0  0  0  0  0  0  0  0  0  0  0  0
   16.7343   -7.5773  -15.6892 C   0  0  2  0  0  0  0  0  0  0  0  0
   17.2832   -8.8953  -15.3936 N   0  0  0  0  0  0  0  0  0  0  0  0
   17.3490   -6.4753  -14.9648 C   0  0  0  0  0  0  0  0  0  0  0  0
   17.5762   -6.5909  -13.7079 O   0  0  0  0  0  0  0  0  0  0  0  0
   17.7358   -5.2345  -15.5316 N   0  0  0  0  0  0  0  0  0  0  0  0
   18.3599   -4.1455  -14.7447 C   0  0  1  0  0  0  0  0  0  0  0  0
   19.5629   -4.6351  -14.0640 C   0  0  0  0  0  0  0  0  0  0  0  0
   20.7592   -4.8409  -14.9071 C   0  0  0  0  0  0  0  0  0  0  0  0
   21.9892   -5.2807  -14.2249 C   0  0  0  0  0  0  0  0  0  0  0  0
   22.2594   -5.0321  -13.0183 O   0  0  0  0  0  0  0  0  0  0  0  0
   18.4925   -2.9361  -15.5209 C   0  0  0  0  0  0  0  0  0  0  0  0
   18.2879   -2.7789  -16.7435 O   0  0  0  0  0  0  0  0  0  0  0  0
   22.9550   -6.0365  -14.9235 O   0  0  0  0  0  0  0  0  0  0  0  0
   18.9039   -1.7706  -14.8340 O   0  0  0  0  0  0  0  0  0  0  0  0
  2  1  1  0
  3  4  1  1
  3  2  1  0
  5  3  1  0
  5  6  1  1
  7  5  1  0
  7  8  2  0
  9 10  1  0
 10 12  1  0
 10 11  2  0
 13 12  1  1
 13 15  1  0
 13 14  1  0
 14  7  1  0
 15 16  2  0
 17 15  1  0
 17 18  1  0
 18 19  1  6
 19 20  1  0
 20 21  1  0
 21 25  1  0
 21 22  2  0
 23 18  1  0
 24 23  2  0
 26 23  1  0
M  END
$$$$
