INE.pdb
     RDKit          3D

 26 25  0  0  1  0  0  0  0  0999 V2000
   23.1947  -16.9224  -20.4536 C   0  0  0  0  0  0  0  0  0  0  0  0
   24.2961  -17.8892  -20.2167 C   0  0  0  0  0  0  0  0  0  0  0  0
   23.9663  -18.9790  -19.2523 C   0  0  2  0  0  0  0  0  0  0  0  0
   22.7293  -19.7192  -19.7302 C   0  0  0  0  0  0  0  0  0  0  0  0
   23.8029  -18.4547  -17.8513 C   0  0  2  0  0  0  0  0  0  0  0  0
   25.0772  -17.7690  -17.5462 N   0  0  0  0  0  0  0  0  0  0  0  0
   23.6414  -19.4938  -16.8195 C   0  0  0  0  0  0  0  0  0  0  0  0
   22.5780  -20.2021  -16.8347 O   0  0  0  0  0  0  0  0  0  0  0  0
   26.8156  -23.0534  -15.0501 N   0  0  0  0  0  0  0  0  0  0  0  0
   26.6400  -21.6542  -14.9290 C   0  0  0  0  0  0  0  0  0  0  0  0
   27.4182  -20.8986  -15.5479 O   0  0  0  0  0  0  0  0  0  0  0  0
   25.5738  -21.1190  -14.0998 C   0  0  0  0  0  0  0  0  0  0  0  0
   24.2692  -20.8451  -14.7946 C   0  0  2  0  0  0  0  0  0  0  0  0
   24.5505  -19.8138  -15.7861 N   0  0  0  0  0  0  0  0  0  0  0  0
   23.1268  -20.5794  -13.9336 C   0  0  0  0  0  0  0  0  0  0  0  0
   23.1915  -19.6361  -13.0670 O   0  0  0  0  0  0  0  0  0  0  0  0
   21.8995  -21.2891  -13.9556 N   0  0  0  0  0  0  0  0  0  0  0  0
   20.7390  -20.9241  -13.1103 C   0  0  1  0  0  0  0  0  0  0  0  0
   20.0521  -19.7543  -13.6672 C   0  0  0  0  0  0  0  0  0  0  0  0
   19.0256  -20.0212  -14.6966 C   0  0  0  0  0  0  0  0  0  0  0  0
   18.3268  -18.8532  -15.2614 C   0  0  0  0  0  0  0  0  0  0  0  0
   18.4604  -17.6728  -14.8377 O   0  0  0  0  0  0  0  0  0  0  0  0
   19.9255  -22.0742  -12.7972 C   0  0  0  0  0  0  0  0  0  0  0  0
   19.0276  -22.1709  -11.9336 O   0  0  0  0  0  0  0  0  0  0  0  0
   17.4450  -19.0143  -16.3515 O   0  0  0  0  0  0  0  0  0  0  0  0
   20.1546  -23.2502  -13.5482 O   0  0  0  0  0  0  0  0  0  0  0  0
  2  1  1  0
  3  4  1  6
  3  2  1  0
  5  3  1  0
  5  6  1  1
  7  5  1  0
  7  8  2  0
  9 10  1  0
 10 12  1  0
 10 11  2  0
 13 12  1  1
 13 15  1  0
 13 14  1  0
 14  7  1  0
 15 16  2  0
 17 15  1  0
 17 18  1  0
 18 19  1  6
 19 20  1  0
 20 21  1  0
 21 25  1  0
 21 22  2  0
 23 18  1  0
 24 23  2  0
 26 23  1  0
M  END
$$$$
