INE.pdb
     RDKit          3D

 26 25  0  0  1  0  0  0  0  0999 V2000
   26.7847  -16.8438  -15.0241 C   0  0  0  0  0  0  0  0  0  0  0  0
   26.0022  -18.0533  -15.3831 C   0  0  0  0  0  0  0  0  0  0  0  0
   26.7152  -19.3433  -15.1503 C   0  0  2  0  0  0  0  0  0  0  0  0
   27.9770  -19.3826  -15.9944 C   0  0  0  0  0  0  0  0  0  0  0  0
   25.8254  -20.5284  -15.4118 C   0  0  2  0  0  0  0  0  0  0  0  0
   25.3751  -20.3699  -16.8115 N   0  0  0  0  0  0  0  0  0  0  0  0
   24.6021  -20.5731  -14.5920 C   0  0  0  0  0  0  0  0  0  0  0  0
   24.6617  -21.1341  -13.4456 O   0  0  0  0  0  0  0  0  0  0  0  0
   20.9251  -19.8430  -11.1726 N   0  0  0  0  0  0  0  0  0  0  0  0
   20.8752  -19.0379  -12.3356 C   0  0  0  0  0  0  0  0  0  0  0  0
   19.8612  -18.3364  -12.5337 O   0  0  0  0  0  0  0  0  0  0  0  0
   21.9856  -19.0351  -13.2725 C   0  0  0  0  0  0  0  0  0  0  0  0
   22.1540  -20.2769  -14.1028 C   0  0  2  0  0  0  0  0  0  0  0  0
   23.3333  -20.0509  -14.9298 N   0  0  0  0  0  0  0  0  0  0  0  0
   20.9739  -20.7337  -14.8211 C   0  0  0  0  0  0  0  0  0  0  0  0
   20.7107  -20.2515  -15.9800 O   0  0  0  0  0  0  0  0  0  0  0  0
   20.0463  -21.6961  -14.3481 N   0  0  0  0  0  0  0  0  0  0  0  0
   18.8439  -22.1037  -15.1114 C   0  0  1  0  0  0  0  0  0  0  0  0
   18.3660  -23.4103  -14.6478 C   0  0  0  0  0  0  0  0  0  0  0  0
   17.1209  -23.9133  -15.2650 C   0  0  0  0  0  0  0  0  0  0  0  0
   17.1940  -25.2163  -15.9495 C   0  0  0  0  0  0  0  0  0  0  0  0
   18.0543  -26.1034  -15.6972 O   0  0  0  0  0  0  0  0  0  0  0  0
   17.8727  -21.0388  -15.1840 C   0  0  0  0  0  0  0  0  0  0  0  0
   17.2959  -20.5896  -16.1973 O   0  0  0  0  0  0  0  0  0  0  0  0
   16.2593  -25.5412  -16.9558 O   0  0  0  0  0  0  0  0  0  0  0  0
   17.5130  -20.4099  -13.9696 O   0  0  0  0  0  0  0  0  0  0  0  0
  2  1  1  0
  3  4  1  6
  3  2  1  0
  5  3  1  0
  5  6  1  6
  7  5  1  0
  7  8  2  0
  9 10  1  0
 10 12  1  0
 10 11  2  0
 13 12  1  6
 13 15  1  0
 13 14  1  0
 14  7  1  0
 15 16  2  0
 17 15  1  0
 17 18  1  0
 18 19  1  1
 19 20  1  0
 20 21  1  0
 21 25  1  0
 21 22  2  0
 23 18  1  0
 24 23  2  0
 26 23  1  0
M  END
$$$$
