INE.pdb
     RDKit          3D

 26 25  0  0  1  0  0  0  0  0999 V2000
   28.3364  -21.8606  -17.1005 C   0  0  0  0  0  0  0  0  0  0  0  0
   28.0185  -20.5198  -16.5477 C   0  0  0  0  0  0  0  0  0  0  0  0
   26.8123  -20.4824  -15.6700 C   0  0  2  0  0  0  0  0  0  0  0  0
   26.9655  -21.5042  -14.5570 C   0  0  0  0  0  0  0  0  0  0  0  0
   25.5445  -20.6889  -16.4538 C   0  0  2  0  0  0  0  0  0  0  0  0
   25.5871  -19.6741  -17.5287 N   0  0  0  0  0  0  0  0  0  0  0  0
   24.3052  -20.4327  -15.6995 C   0  0  0  0  0  0  0  0  0  0  0  0
   23.9696  -21.2615  -14.7867 O   0  0  0  0  0  0  0  0  0  0  0  0
   19.7951  -18.3914  -13.8249 N   0  0  0  0  0  0  0  0  0  0  0  0
   20.6164  -17.3942  -14.4030 C   0  0  0  0  0  0  0  0  0  0  0  0
   20.2791  -16.1980  -14.2817 O   0  0  0  0  0  0  0  0  0  0  0  0
   21.8243  -17.7653  -15.1202 C   0  0  0  0  0  0  0  0  0  0  0  0
   22.1829  -19.2250  -15.1014 C   0  0  2  0  0  0  0  0  0  0  0  0
   23.4181  -19.3455  -15.8665 N   0  0  0  0  0  0  0  0  0  0  0  0
   21.1269  -20.1505  -15.4828 C   0  0  0  0  0  0  0  0  0  0  0  0
   20.9183  -20.3980  -16.7238 O   0  0  0  0  0  0  0  0  0  0  0  0
   20.2686  -20.8325  -14.5837 N   0  0  0  0  0  0  0  0  0  0  0  0
   19.2328  -21.7944  -15.0268 C   0  0  1  0  0  0  0  0  0  0  0  0
   19.2732  -23.0031  -14.1975 C   0  0  0  0  0  0  0  0  0  0  0  0
   18.5610  -22.9387  -12.9041 C   0  0  0  0  0  0  0  0  0  0  0  0
   18.3690  -24.2098  -12.1835 C   0  0  0  0  0  0  0  0  0  0  0  0
   18.7621  -25.3315  -12.6056 O   0  0  0  0  0  0  0  0  0  0  0  0
   17.9492  -21.1561  -15.1927 C   0  0  0  0  0  0  0  0  0  0  0  0
   17.5769  -20.0480  -14.7512 O   0  0  0  0  0  0  0  0  0  0  0  0
   17.7134  -24.2235  -10.9338 O   0  0  0  0  0  0  0  0  0  0  0  0
   16.9749  -21.8522  -15.9449 O   0  0  0  0  0  0  0  0  0  0  0  0
  2  1  1  0
  3  4  1  1
  3  2  1  0
  5  3  1  0
  5  6  1  6
  7  5  1  0
  7  8  2  0
  9 10  1  0
 10 12  1  0
 10 11  2  0
 13 12  1  6
 13 15  1  0
 13 14  1  0
 14  7  1  0
 15 16  2  0
 17 15  1  0
 17 18  1  0
 18 19  1  1
 19 20  1  0
 20 21  1  0
 21 25  1  0
 21 22  2  0
 23 18  1  0
 24 23  2  0
 26 23  1  0
M  END
$$$$
