INE.pdb
     RDKit          3D

 26 25  0  0  1  0  0  0  0  0999 V2000
   18.6993  -14.9464  -16.9434 C   0  0  0  0  0  0  0  0  0  0  0  0
   18.3313  -13.8694  -15.9901 C   0  0  0  0  0  0  0  0  0  0  0  0
   18.5073  -12.4861  -16.5212 C   0  0  2  0  0  0  0  0  0  0  0  0
   19.9443  -12.2982  -16.9751 C   0  0  0  0  0  0  0  0  0  0  0  0
   18.0932  -11.4451  -15.5165 C   0  0  2  0  0  0  0  0  0  0  0  0
   16.7433  -11.8545  -15.0725 N   0  0  0  0  0  0  0  0  0  0  0  0
   17.9480  -10.0847  -16.0630 C   0  0  0  0  0  0  0  0  0  0  0  0
   19.0051   -9.3928  -16.2539 O   0  0  0  0  0  0  0  0  0  0  0  0
   13.7087   -6.0376  -18.0654 N   0  0  0  0  0  0  0  0  0  0  0  0
   15.0421   -6.4686  -17.8665 C   0  0  0  0  0  0  0  0  0  0  0  0
   15.9720   -5.6836  -18.1468 O   0  0  0  0  0  0  0  0  0  0  0  0
   15.3121   -7.7983  -17.3467 C   0  0  0  0  0  0  0  0  0  0  0  0
   16.7094   -8.0432  -16.8495 C   0  0  2  0  0  0  0  0  0  0  0  0
   16.7440   -9.4348  -16.4161 N   0  0  0  0  0  0  0  0  0  0  0  0
   17.2255   -7.0828  -15.8859 C   0  0  0  0  0  0  0  0  0  0  0  0
   16.8284   -7.1313  -14.6674 O   0  0  0  0  0  0  0  0  0  0  0  0
   18.1598   -6.0551  -16.1708 N   0  0  0  0  0  0  0  0  0  0  0  0
   18.6959   -5.1400  -15.1365 C   0  0  1  0  0  0  0  0  0  0  0  0
   20.1100   -5.4331  -14.8818 C   0  0  0  0  0  0  0  0  0  0  0  0
   20.7933   -4.5732  -13.8928 C   0  0  0  0  0  0  0  0  0  0  0  0
   22.2206   -4.8441  -13.6455 C   0  0  0  0  0  0  0  0  0  0  0  0
   23.1594   -4.0769  -13.9932 O   0  0  0  0  0  0  0  0  0  0  0  0
   18.3505   -3.7659  -15.4103 C   0  0  0  0  0  0  0  0  0  0  0  0
   18.0929   -3.2415  -16.5149 O   0  0  0  0  0  0  0  0  0  0  0  0
   22.6120   -6.0226  -12.9748 O   0  0  0  0  0  0  0  0  0  0  0  0
   18.2896   -2.8838  -14.3068 O   0  0  0  0  0  0  0  0  0  0  0  0
  2  1  1  0
  3  4  1  1
  3  2  1  0
  5  3  1  0
  5  6  1  6
  7  5  1  0
  7  8  2  0
  9 10  1  0
 10 12  1  0
 10 11  2  0
 13 12  1  1
 13 15  1  0
 13 14  1  0
 14  7  1  0
 15 16  2  0
 17 15  1  0
 17 18  1  0
 18 19  1  6
 19 20  1  0
 20 21  1  0
 21 25  1  0
 21 22  2  0
 23 18  1  0
 24 23  2  0
 26 23  1  0
M  END
$$$$
