INE.pdb
     RDKit          3D

 26 25  0  0  1  0  0  0  0  0999 V2000
   21.6872  -13.2170  -19.5078 C   0  0  0  0  0  0  0  0  0  0  0  0
   21.9726  -12.1454  -18.5207 C   0  0  0  0  0  0  0  0  0  0  0  0
   20.8353  -11.2111  -18.2753 C   0  0  2  0  0  0  0  0  0  0  0  0
   20.3403  -10.6587  -19.6004 C   0  0  0  0  0  0  0  0  0  0  0  0
   21.2094  -10.1163  -17.3131 C   0  0  2  0  0  0  0  0  0  0  0  0
   21.7496  -10.8148  -16.1267 N   0  0  0  0  0  0  0  0  0  0  0  0
   20.0771   -9.3071  -16.8299 C   0  0  0  0  0  0  0  0  0  0  0  0
   19.4253   -8.6096  -17.6792 O   0  0  0  0  0  0  0  0  0  0  0  0
   16.8793  -10.6504  -15.0297 N   0  0  0  0  0  0  0  0  0  0  0  0
   17.1971  -10.0179  -13.8041 C   0  0  0  0  0  0  0  0  0  0  0  0
   16.7543  -10.5101  -12.7453 O   0  0  0  0  0  0  0  0  0  0  0  0
   18.0219   -8.8218  -13.7895 C   0  0  0  0  0  0  0  0  0  0  0  0
   18.5039   -8.3342  -15.1273 C   0  0  2  0  0  0  0  0  0  0  0  0
   19.6083   -9.2098  -15.5004 N   0  0  0  0  0  0  0  0  0  0  0  0
   18.7833   -6.9098  -15.2286 C   0  0  0  0  0  0  0  0  0  0  0  0
   19.8940   -6.4481  -14.7838 O   0  0  0  0  0  0  0  0  0  0  0  0
   17.9143   -5.9407  -15.7909 N   0  0  0  0  0  0  0  0  0  0  0  0
   18.2860   -4.5154  -15.9482 C   0  0  1  0  0  0  0  0  0  0  0  0
   19.3154   -4.3694  -16.9823 C   0  0  0  0  0  0  0  0  0  0  0  0
   18.8412   -4.0319  -18.3409 C   0  0  0  0  0  0  0  0  0  0  0  0
   19.8689   -3.8572  -19.3826 C   0  0  0  0  0  0  0  0  0  0  0  0
   21.1104   -3.9379  -19.1756 O   0  0  0  0  0  0  0  0  0  0  0  0
   17.1214   -3.6703  -16.0589 C   0  0  0  0  0  0  0  0  0  0  0  0
   15.9427   -4.0100  -16.2963 O   0  0  0  0  0  0  0  0  0  0  0  0
   19.4884   -3.5862  -20.7144 O   0  0  0  0  0  0  0  0  0  0  0  0
   17.3134   -2.2808  -15.8803 O   0  0  0  0  0  0  0  0  0  0  0  0
  2  1  1  0
  3  4  1  6
  3  2  1  0
  5  3  1  0
  5  6  1  1
  7  5  1  0
  7  8  2  0
  9 10  1  0
 10 12  1  0
 10 11  2  0
 13 12  1  1
 13 15  1  0
 13 14  1  0
 14  7  1  0
 15 16  2  0
 17 15  1  0
 17 18  1  0
 18 19  1  6
 19 20  1  0
 20 21  1  0
 21 25  1  0
 21 22  2  0
 23 18  1  0
 24 23  2  0
 26 23  1  0
M  END
$$$$
