INE.pdb
     RDKit          3D

 26 25  0  0  1  0  0  0  0  0999 V2000
   17.7440  -17.5143  -17.7834 C   0  0  0  0  0  0  0  0  0  0  0  0
   19.1950  -17.3987  -17.4910 C   0  0  0  0  0  0  0  0  0  0  0  0
   19.5939  -16.1198  -16.8339 C   0  0  2  0  0  0  0  0  0  0  0  0
   19.1325  -14.9494  -17.6845 C   0  0  0  0  0  0  0  0  0  0  0  0
   21.0730  -16.0694  -16.5614 C   0  0  2  0  0  0  0  0  0  0  0  0
   21.3337  -17.1998  -15.6441 N   0  0  0  0  0  0  0  0  0  0  0  0
   21.5288  -14.8585  -15.8568 C   0  0  0  0  0  0  0  0  0  0  0  0
   21.0349  -14.6056  -14.7058 O   0  0  0  0  0  0  0  0  0  0  0  0
   24.7274  -11.2621  -13.4409 N   0  0  0  0  0  0  0  0  0  0  0  0
   24.7910  -11.4070  -14.8473 C   0  0  0  0  0  0  0  0  0  0  0  0
   25.3106  -10.4918  -15.5195 O   0  0  0  0  0  0  0  0  0  0  0  0
   24.2601  -12.5995  -15.4854 C   0  0  0  0  0  0  0  0  0  0  0  0
   22.7627  -12.6848  -15.5867 C   0  0  2  0  0  0  0  0  0  0  0  0
   22.4783  -13.9167  -16.3129 N   0  0  0  0  0  0  0  0  0  0  0  0
   22.0848  -11.5000  -16.0904 C   0  0  0  0  0  0  0  0  0  0  0  0
   22.1821  -11.1933  -17.3319 O   0  0  0  0  0  0  0  0  0  0  0  0
   21.2969  -10.6126  -15.3143 N   0  0  0  0  0  0  0  0  0  0  0  0
   20.7429   -9.3463  -15.8473 C   0  0  1  0  0  0  0  0  0  0  0  0
   19.3462   -9.1869  -15.4299 C   0  0  0  0  0  0  0  0  0  0  0  0
   18.6418   -7.9878  -15.9303 C   0  0  0  0  0  0  0  0  0  0  0  0
   17.2269   -7.8360  -15.5472 C   0  0  0  0  0  0  0  0  0  0  0  0
   16.8083   -7.8494  -14.3575 O   0  0  0  0  0  0  0  0  0  0  0  0
   21.6299   -8.2337  -15.6062 C   0  0  0  0  0  0  0  0  0  0  0  0
   22.3436   -8.0206  -14.6030 O   0  0  0  0  0  0  0  0  0  0  0  0
   16.2398   -7.6557  -16.5397 O   0  0  0  0  0  0  0  0  0  0  0  0
   21.7193   -7.2492  -16.6173 O   0  0  0  0  0  0  0  0  0  0  0  0
  2  1  1  0
  3  4  1  6
  3  2  1  0
  5  3  1  0
  5  6  1  1
  7  5  1  0
  7  8  2  0
  9 10  1  0
 10 12  1  0
 10 11  2  0
 13 12  1  6
 13 15  1  0
 13 14  1  0
 14  7  1  0
 15 16  2  0
 17 15  1  0
 17 18  1  0
 18 19  1  1
 19 20  1  0
 20 21  1  0
 21 25  1  0
 21 22  2  0
 23 18  1  0
 24 23  2  0
 26 23  1  0
M  END
$$$$
