INE.pdb
     RDKit          3D

 26 25  0  0  1  0  0  0  0  0999 V2000
   26.5682  -14.6807  -15.8573 C   0  0  0  0  0  0  0  0  0  0  0  0
   25.0971  -14.7457  -15.6685 C   0  0  0  0  0  0  0  0  0  0  0  0
   24.4039  -13.4268  -15.7489 C   0  0  2  0  0  0  0  0  0  0  0  0
   25.0113  -12.4741  -14.7342 C   0  0  0  0  0  0  0  0  0  0  0  0
   22.9162  -13.5658  -15.5708 C   0  0  2  0  0  0  0  0  0  0  0  0
   22.4982  -14.5569  -16.5858 N   0  0  0  0  0  0  0  0  0  0  0  0
   22.1449  -12.3427  -15.8528 C   0  0  0  0  0  0  0  0  0  0  0  0
   22.0252  -11.9693  -17.0689 O   0  0  0  0  0  0  0  0  0  0  0  0
   17.9332  -11.4936  -16.7162 N   0  0  0  0  0  0  0  0  0  0  0  0
   18.6681  -11.6745  -15.5202 C   0  0  0  0  0  0  0  0  0  0  0  0
   18.7252  -12.8177  -15.0209 O   0  0  0  0  0  0  0  0  0  0  0  0
   19.3381  -10.5471  -14.8947 C   0  0  0  0  0  0  0  0  0  0  0  0
   20.7647  -10.3135  -15.3070 C   0  0  2  0  0  0  0  0  0  0  0  0
   21.4985  -11.5098  -14.9120 N   0  0  0  0  0  0  0  0  0  0  0  0
   21.3583   -9.0554  -14.8806 C   0  0  0  0  0  0  0  0  0  0  0  0
   21.9829   -8.9958  -13.7620 O   0  0  0  0  0  0  0  0  0  0  0  0
   21.3119   -7.8381  -15.6061 N   0  0  0  0  0  0  0  0  0  0  0  0
   21.8833   -6.5702  -15.0956 C   0  0  1  0  0  0  0  0  0  0  0  0
   21.8765   -5.5492  -16.1483 C   0  0  0  0  0  0  0  0  0  0  0  0
   22.4291   -4.2269  -15.7871 C   0  0  0  0  0  0  0  0  0  0  0  0
   22.3956   -3.1827  -16.8265 C   0  0  0  0  0  0  0  0  0  0  0  0
   22.0915   -3.3912  -18.0326 O   0  0  0  0  0  0  0  0  0  0  0  0
   21.3114   -6.2026  -13.8227 C   0  0  0  0  0  0  0  0  0  0  0  0
   20.1711   -6.4667  -13.3851 O   0  0  0  0  0  0  0  0  0  0  0  0
   22.7109   -1.8467  -16.4986 O   0  0  0  0  0  0  0  0  0  0  0  0
   22.1238   -5.4496  -12.9438 O   0  0  0  0  0  0  0  0  0  0  0  0
  2  1  1  0
  3  4  1  1
  3  2  1  0
  5  3  1  0
  5  6  1  6
  7  5  1  0
  7  8  2  0
  9 10  1  0
 10 12  1  0
 10 11  2  0
 13 12  1  1
 13 15  1  0
 13 14  1  0
 14  7  1  0
 15 16  2  0
 17 15  1  0
 17 18  1  0
 18 19  1  6
 19 20  1  0
 20 21  1  0
 21 25  1  0
 21 22  2  0
 23 18  1  0
 24 23  2  0
 26 23  1  0
M  END
$$$$
