INE.pdb
     RDKit          3D

 26 25  0  0  1  0  0  0  0  0999 V2000
   20.0756  -17.1217  -13.8540 C   0  0  0  0  0  0  0  0  0  0  0  0
   19.9882  -16.8709  -15.3146 C   0  0  0  0  0  0  0  0  0  0  0  0
   19.9504  -15.4282  -15.6937 C   0  0  2  0  0  0  0  0  0  0  0  0
   18.8207  -14.7394  -14.9483 C   0  0  0  0  0  0  0  0  0  0  0  0
   19.8369  -15.2447  -17.1829 C   0  0  2  0  0  0  0  0  0  0  0  0
   21.0705  -15.8412  -17.7391 N   0  0  0  0  0  0  0  0  0  0  0  0
   19.8239  -13.8415  -17.6317 C   0  0  0  0  0  0  0  0  0  0  0  0
   20.9234  -13.1908  -17.6167 O   0  0  0  0  0  0  0  0  0  0  0  0
   16.8959  -10.0974  -21.4403 N   0  0  0  0  0  0  0  0  0  0  0  0
   17.7886  -10.3141  -20.3636 C   0  0  0  0  0  0  0  0  0  0  0  0
   18.5205   -9.3717  -19.9951 O   0  0  0  0  0  0  0  0  0  0  0  0
   17.8442  -11.6094  -19.7077 C   0  0  0  0  0  0  0  0  0  0  0  0
   18.8252  -11.7363  -18.5758 C   0  0  2  0  0  0  0  0  0  0  0  0
   18.7085  -13.1076  -18.0945 N   0  0  0  0  0  0  0  0  0  0  0  0
   18.7526  -10.7115  -17.5455 C   0  0  0  0  0  0  0  0  0  0  0  0
   17.8818  -10.8138  -16.6095 O   0  0  0  0  0  0  0  0  0  0  0  0
   19.5802   -9.5627  -17.4704 N   0  0  0  0  0  0  0  0  0  0  0  0
   19.4941   -8.5744  -16.3702 C   0  0  1  0  0  0  0  0  0  0  0  0
   20.4014   -8.9469  -15.2800 C   0  0  0  0  0  0  0  0  0  0  0  0
   20.4689   -8.0177  -14.1326 C   0  0  0  0  0  0  0  0  0  0  0  0
   21.3914   -8.3725  -13.0395 C   0  0  0  0  0  0  0  0  0  0  0  0
   22.5934   -8.7153  -13.2081 O   0  0  0  0  0  0  0  0  0  0  0  0
   19.5819   -7.2206  -16.8622 C   0  0  0  0  0  0  0  0  0  0  0  0
   19.1492   -6.1771  -16.3283 O   0  0  0  0  0  0  0  0  0  0  0  0
   20.9494   -8.3357  -11.6997 O   0  0  0  0  0  0  0  0  0  0  0  0
   20.2348   -7.0256  -18.1013 O   0  0  0  0  0  0  0  0  0  0  0  0
  2  1  1  0
  3  4  1  1
  3  2  1  0
  5  3  1  0
  5  6  1  6
  7  5  1  0
  7  8  2  0
  9 10  1  0
 10 12  1  0
 10 11  2  0
 13 12  1  6
 13 15  1  0
 13 14  1  0
 14  7  1  0
 15 16  2  0
 17 15  1  0
 17 18  1  0
 18 19  1  1
 19 20  1  0
 20 21  1  0
 21 25  1  0
 21 22  2  0
 23 18  1  0
 24 23  2  0
 26 23  1  0
M  END
$$$$
