INE.pdb
     RDKit          3D

 26 25  0  0  1  0  0  0  0  0999 V2000
   11.5570  -10.3618  -10.3902 C   0  0  0  0  0  0  0  0  0  0  0  0
   12.7815  -11.1702  -10.6166 C   0  0  0  0  0  0  0  0  0  0  0  0
   13.9193  -10.4150  -11.2178 C   0  0  2  0  0  0  0  0  0  0  0  0
   13.4641   -9.7596  -12.5100 C   0  0  0  0  0  0  0  0  0  0  0  0
   15.1244  -11.2919  -11.4251 C   0  0  2  0  0  0  0  0  0  0  0  0
   15.5726  -11.6577  -10.0641 N   0  0  0  0  0  0  0  0  0  0  0  0
   16.2701  -10.6234  -12.0662 C   0  0  0  0  0  0  0  0  0  0  0  0
   16.8585   -9.6857  -11.4282 O   0  0  0  0  0  0  0  0  0  0  0  0
   20.1677  -10.7879  -16.7262 N   0  0  0  0  0  0  0  0  0  0  0  0
   19.8328  -10.3338  -15.4283 C   0  0  0  0  0  0  0  0  0  0  0  0
   20.4772   -9.3800  -14.9440 O   0  0  0  0  0  0  0  0  0  0  0  0
   18.7601  -10.9709  -14.6836 C   0  0  0  0  0  0  0  0  0  0  0  0
   17.8160  -10.0489  -13.9636 C   0  0  2  0  0  0  0  0  0  0  0  0
   16.8155  -10.9057  -13.3388 N   0  0  0  0  0  0  0  0  0  0  0  0
   17.2822   -8.9414  -14.7417 C   0  0  0  0  0  0  0  0  0  0  0  0
   16.3408   -9.1551  -15.5861 O   0  0  0  0  0  0  0  0  0  0  0  0
   17.7176   -7.5946  -14.6586 N   0  0  0  0  0  0  0  0  0  0  0  0
   17.1601   -6.5110  -15.5010 C   0  0  1  0  0  0  0  0  0  0  0  0
   16.3391   -5.6069  -14.6892 C   0  0  0  0  0  0  0  0  0  0  0  0
   15.7313   -4.4582  -15.3930 C   0  0  0  0  0  0  0  0  0  0  0  0
   14.9440   -3.5162  -14.5778 C   0  0  0  0  0  0  0  0  0  0  0  0
   14.3739   -2.4877  -15.0336 O   0  0  0  0  0  0  0  0  0  0  0  0
   18.1739   -5.9072  -16.3318 C   0  0  0  0  0  0  0  0  0  0  0  0
   19.4139   -6.0391  -16.2530 O   0  0  0  0  0  0  0  0  0  0  0  0
   14.7840   -3.7399  -13.1935 O   0  0  0  0  0  0  0  0  0  0  0  0
   17.7333   -5.0561  -17.3716 O   0  0  0  0  0  0  0  0  0  0  0  0
  2  1  1  0
  3  4  1  6
  3  2  1  0
  5  3  1  0
  5  6  1  1
  7  5  1  0
  7  8  2  0
  9 10  1  0
 10 12  1  0
 10 11  2  0
 13 12  1  6
 13 15  1  0
 13 14  1  0
 14  7  1  0
 15 16  2  0
 17 15  1  0
 17 18  1  0
 18 19  1  1
 19 20  1  0
 20 21  1  0
 21 25  1  0
 21 22  2  0
 23 18  1  0
 24 23  2  0
 26 23  1  0
M  END
$$$$
