INE.pdb
     RDKit          3D

 26 25  0  0  1  0  0  0  0  0999 V2000
   30.3662  -21.0608  -12.3118 C   0  0  0  0  0  0  0  0  0  0  0  0
   29.0896  -20.4784  -12.7969 C   0  0  0  0  0  0  0  0  0  0  0  0
   28.8094  -20.7192  -14.2426 C   0  0  2  0  0  0  0  0  0  0  0  0
   29.9304  -20.1284  -15.0797 C   0  0  0  0  0  0  0  0  0  0  0  0
   27.4623  -20.1842  -14.6471 C   0  0  2  0  0  0  0  0  0  0  0  0
   27.5307  -18.7306  -14.3837 N   0  0  0  0  0  0  0  0  0  0  0  0
   26.3329  -20.6911  -13.8484 C   0  0  0  0  0  0  0  0  0  0  0  0
   25.7942  -21.7967  -14.1949 O   0  0  0  0  0  0  0  0  0  0  0  0
   23.5698  -20.5800   -8.4069 N   0  0  0  0  0  0  0  0  0  0  0  0
   23.5282  -20.7445   -9.8120 C   0  0  0  0  0  0  0  0  0  0  0  0
   22.5139  -21.2636  -10.3231 O   0  0  0  0  0  0  0  0  0  0  0  0
   24.6473  -20.3151  -10.6331 C   0  0  0  0  0  0  0  0  0  0  0  0
   24.5217  -20.5711  -12.1090 C   0  0  2  0  0  0  0  0  0  0  0  0
   25.7589  -20.0853  -12.7081 N   0  0  0  0  0  0  0  0  0  0  0  0
   23.3005  -20.0956  -12.7413 C   0  0  0  0  0  0  0  0  0  0  0  0
   23.0706  -18.8356  -12.8091 O   0  0  0  0  0  0  0  0  0  0  0  0
   22.2969  -20.9190  -13.3115 N   0  0  0  0  0  0  0  0  0  0  0  0
   21.0795  -20.3786  -13.9599 C   0  0  1  0  0  0  0  0  0  0  0  0
   21.1796  -20.5073  -15.4172 C   0  0  0  0  0  0  0  0  0  0  0  0
   20.1060  -19.8724  -16.2100 C   0  0  0  0  0  0  0  0  0  0  0  0
   19.5496  -20.6548  -17.3280 C   0  0  0  0  0  0  0  0  0  0  0  0
   19.7416  -21.8902  -17.4946 O   0  0  0  0  0  0  0  0  0  0  0  0
   19.8776  -20.8810  -13.3387 C   0  0  0  0  0  0  0  0  0  0  0  0
   19.6649  -22.0262  -12.8865 O   0  0  0  0  0  0  0  0  0  0  0  0
   18.7387  -20.0269  -18.2975 O   0  0  0  0  0  0  0  0  0  0  0  0
   18.7917  -19.9838  -13.2153 O   0  0  0  0  0  0  0  0  0  0  0  0
  2  1  1  0
  3  4  1  6
  3  2  1  0
  5  3  1  0
  5  6  1  1
  7  5  1  0
  7  8  2  0
  9 10  1  0
 10 12  1  0
 10 11  2  0
 13 12  1  1
 13 15  1  0
 13 14  1  0
 14  7  1  0
 15 16  2  0
 17 15  1  0
 17 18  1  0
 18 19  1  6
 19 20  1  0
 20 21  1  0
 21 25  1  0
 21 22  2  0
 23 18  1  0
 24 23  2  0
 26 23  1  0
M  END
$$$$
