INE.pdb
     RDKit          3D

 26 25  0  0  1  0  0  0  0  0999 V2000
   33.7360  -32.0710   -6.2562 C   0  0  0  0  0  0  0  0  0  0  0  0
   32.8591  -33.2429   -6.5047 C   0  0  0  0  0  0  0  0  0  0  0  0
   32.4312  -33.9681   -5.2727 C   0  0  2  0  0  0  0  0  0  0  0  0
   33.6583  -34.4375   -4.5110 C   0  0  0  0  0  0  0  0  0  0  0  0
   31.4962  -35.1038   -5.5893 C   0  0  2  0  0  0  0  0  0  0  0  0
   30.2767  -34.4603   -6.1241 N   0  0  0  0  0  0  0  0  0  0  0  0
   31.0638  -35.8900   -4.4208 C   0  0  0  0  0  0  0  0  0  0  0  0
   29.9486  -35.5948   -3.8715 O   0  0  0  0  0  0  0  0  0  0  0  0
   31.7349  -41.1765   -1.5113 N   0  0  0  0  0  0  0  0  0  0  0  0
   30.9808  -40.0350   -1.8737 C   0  0  0  0  0  0  0  0  0  0  0  0
   29.8910  -39.8315   -1.2988 O   0  0  0  0  0  0  0  0  0  0  0  0
   31.4734  -39.1255   -2.8941 C   0  0  0  0  0  0  0  0  0  0  0  0
   31.2370  -37.6619   -2.6458 C   0  0  2  0  0  0  0  0  0  0  0  0
   31.7532  -36.9666   -3.8187 N   0  0  0  0  0  0  0  0  0  0  0  0
   31.7003  -37.1447   -1.3672 C   0  0  0  0  0  0  0  0  0  0  0  0
   32.7873  -36.4662   -1.3138 O   0  0  0  0  0  0  0  0  0  0  0  0
   31.0451  -37.3248   -0.1227 N   0  0  0  0  0  0  0  0  0  0  0  0
   31.3864  -36.5468    1.0909 C   0  0  1  0  0  0  0  0  0  0  0  0
   32.7755  -36.0817    1.0229 C   0  0  0  0  0  0  0  0  0  0  0  0
   33.8086  -37.0182    1.5126 C   0  0  0  0  0  0  0  0  0  0  0  0
   34.8576  -36.4593    2.3838 C   0  0  0  0  0  0  0  0  0  0  0  0
   35.7858  -37.1377    2.9023 O   0  0  0  0  0  0  0  0  0  0  0  0
   30.3784  -35.5587    1.3911 C   0  0  0  0  0  0  0  0  0  0  0  0
   29.3302  -35.3103    0.7580 O   0  0  0  0  0  0  0  0  0  0  0  0
   34.8699  -35.0798    2.6819 O   0  0  0  0  0  0  0  0  0  0  0  0
   30.5802  -34.7598    2.5403 O   0  0  0  0  0  0  0  0  0  0  0  0
  2  1  1  0
  3  4  1  6
  3  2  1  0
  5  3  1  0
  5  6  1  1
  7  5  1  0
  7  8  2  0
  9 10  1  0
 10 12  1  0
 10 11  2  0
 13 12  1  6
 13 15  1  0
 13 14  1  0
 14  7  1  0
 15 16  2  0
 17 15  1  0
 17 18  1  0
 18 19  1  6
 19 20  1  0
 20 21  1  0
 21 25  1  0
 21 22  2  0
 23 18  1  0
 24 23  2  0
 26 23  1  0
M  END
$$$$
