LQM.pdb
     RDKit          3D

 26 25  0  0  1  0  0  0  0  0999 V2000
    8.0777  -12.3207   19.0814 C   0  0  0  0  0  0  0  0  0  0  0  0
    8.2093  -13.2528   20.2433 C   0  0  1  0  0  0  0  0  0  0  0  0
    8.2896  -12.5130   21.5619 C   0  0  0  0  0  0  0  0  0  0  0  0
    7.1306  -14.3103   20.2646 C   0  0  0  0  0  0  0  0  0  0  0  0
    7.4373  -15.3962   21.2434 C   0  0  2  0  0  0  0  0  0  0  0  0
    8.0454  -14.8086   22.4208 N   0  0  0  0  0  0  0  0  0  0  0  0
    8.3540  -16.4236   20.6906 C   0  0  0  0  0  0  0  0  0  0  0  0
    8.2700  -16.7685   19.4846 O   0  0  0  0  0  0  0  0  0  0  0  0
   13.0226  -14.3184   19.0597 N   0  0  0  0  0  0  0  0  0  0  0  0
   13.1360  -14.9003   20.3392 C   0  0  0  0  0  0  0  0  0  0  0  0
   14.0999  -15.7197   20.4984 O   0  0  0  0  0  0  0  0  0  0  0  0
   12.2180  -14.6094   21.4577 C   0  0  0  0  0  0  0  0  0  0  0  0
   10.8711  -15.1788   21.1505 C   0  0  0  0  0  0  0  0  0  0  0  0
   10.5384  -16.3948   21.9654 C   0  0  2  0  0  0  0  0  0  0  0  0
    9.3554  -17.0612   21.4752 N   0  0  0  0  0  0  0  0  0  0  0  0
   10.4789  -16.1231   23.4104 C   0  0  0  0  0  0  0  0  0  0  0  0
   11.5781  -15.8183   23.9879 O   0  0  0  0  0  0  0  0  0  0  0  0
    6.3900  -11.3138   25.1108 C   0  0  0  0  0  0  0  0  0  0  0  0
    6.6428  -12.8349   26.0536 S   0  0  0  0  0  0  0  0  0  0  0  0
    7.8568  -13.9160   25.2703 C   0  0  0  0  0  0  0  0  0  0  0  0
    8.0795  -15.1742   26.0594 C   0  0  0  0  0  0  0  0  0  0  0  0
    9.3810  -15.8309   25.6018 C   0  0  2  0  0  0  0  0  0  0  0  0
    9.3238  -16.1710   24.1968 N   0  0  0  0  0  0  0  0  0  0  0  0
    9.6826  -17.0217   26.4241 C   0  0  0  0  0  0  0  0  0  0  0  0
    9.9251  -16.8538   27.7727 O   0  0  0  0  0  0  0  0  0  0  0  0
    9.7249  -18.1728   25.9401 O   0  0  0  0  0  0  0  0  0  0  0  0
  2  4  1  0
  2  1  1  6
  3  2  1  0
  4  5  1  0
  5  6  1  1
  7  8  2  0
  7  5  1  0
  9 10  1  0
 10 12  1  0
 10 11  2  0
 12 13  1  0
 14 13  1  6
 14 15  1  0
 15  7  1  0
 16 17  2  0
 16 14  1  0
 19 18  1  0
 20 19  1  0
 20 21  1  0
 22 21  1  1
 22 23  1  0
 23 16  1  0
 24 22  1  0
 25 24  1  0
 26 24  2  0
M  END
$$$$
