LQM.pdb
     RDKit          3D

 26 25  0  0  1  0  0  0  0  0999 V2000
    7.6202  -11.8950   19.4990 C   0  0  0  0  0  0  0  0  0  0  0  0
    8.1569  -13.2893   19.4372 C   0  0  1  0  0  0  0  0  0  0  0  0
    9.6438  -13.3162   19.1531 C   0  0  0  0  0  0  0  0  0  0  0  0
    7.8113  -14.0996   20.6646 C   0  0  0  0  0  0  0  0  0  0  0  0
    8.4432  -15.4528   20.6321 C   0  0  2  0  0  0  0  0  0  0  0  0
    7.6398  -16.3259   19.7994 N   0  0  0  0  0  0  0  0  0  0  0  0
    8.5706  -16.0580   21.9808 C   0  0  0  0  0  0  0  0  0  0  0  0
    7.5559  -16.2148   22.7064 O   0  0  0  0  0  0  0  0  0  0  0  0
   12.6600  -20.3822   23.8140 N   0  0  0  0  0  0  0  0  0  0  0  0
   12.0230  -20.0188   25.0186 C   0  0  0  0  0  0  0  0  0  0  0  0
   12.3286  -20.7113   26.0447 O   0  0  0  0  0  0  0  0  0  0  0  0
   11.0542  -18.9113   25.1333 C   0  0  0  0  0  0  0  0  0  0  0  0
   10.9280  -18.2281   23.8105 C   0  0  0  0  0  0  0  0  0  0  0  0
    9.9725  -17.0704   23.8266 C   0  0  2  0  0  0  0  0  0  0  0  0
    9.8181  -16.4846   22.5164 N   0  0  0  0  0  0  0  0  0  0  0  0
   10.2915  -16.0728   24.8603 C   0  0  0  0  0  0  0  0  0  0  0  0
   11.4315  -15.4995   24.7795 O   0  0  0  0  0  0  0  0  0  0  0  0
    5.8646  -12.2085   26.1863 C   0  0  0  0  0  0  0  0  0  0  0  0
    7.4429  -11.5679   26.7905 S   0  0  0  0  0  0  0  0  0  0  0  0
    8.8056  -12.6958   26.4341 C   0  0  0  0  0  0  0  0  0  0  0  0
    8.8483  -13.8466   27.3981 C   0  0  0  0  0  0  0  0  0  0  0  0
    9.9352  -14.8278   26.9618 C   0  0  2  0  0  0  0  0  0  0  0  0
    9.4528  -15.7042   25.9166 N   0  0  0  0  0  0  0  0  0  0  0  0
   10.4328  -15.6039   28.1172 C   0  0  0  0  0  0  0  0  0  0  0  0
   11.1342  -14.9455   29.1073 O   0  0  0  0  0  0  0  0  0  0  0  0
   10.2398  -16.8334   28.2275 O   0  0  0  0  0  0  0  0  0  0  0  0
  2  4  1  0
  2  1  1  1
  3  2  1  0
  4  5  1  0
  5  6  1  6
  7  8  2  0
  7  5  1  0
  9 10  1  0
 10 12  1  0
 10 11  2  0
 12 13  1  0
 14 13  1  6
 14 15  1  0
 15  7  1  0
 16 17  2  0
 16 14  1  0
 19 18  1  0
 20 19  1  0
 20 21  1  0
 22 21  1  1
 22 23  1  0
 23 16  1  0
 24 22  1  0
 25 24  1  0
 26 24  2  0
M  END
$$$$
