LQM.pdb
     RDKit          3D

 26 25  0  0  1  0  0  0  0  0999 V2000
    7.4737  -11.9963   19.2020 C   0  0  0  0  0  0  0  0  0  0  0  0
    8.1966  -13.3052   19.2149 C   0  0  1  0  0  0  0  0  0  0  0  0
    9.6811  -13.1395   18.9672 C   0  0  0  0  0  0  0  0  0  0  0  0
    7.9287  -14.1043   20.4687 C   0  0  0  0  0  0  0  0  0  0  0  0
    8.7447  -15.3547   20.5148 C   0  0  2  0  0  0  0  0  0  0  0  0
    8.1697  -16.3241   19.6033 N   0  0  0  0  0  0  0  0  0  0  0  0
    8.8059  -15.9490   21.8729 C   0  0  0  0  0  0  0  0  0  0  0  0
    7.7502  -16.2715   22.4746 O   0  0  0  0  0  0  0  0  0  0  0  0
    8.6336  -20.6470   23.4970 N   0  0  0  0  0  0  0  0  0  0  0  0
    9.9046  -20.1139   23.7955 C   0  0  0  0  0  0  0  0  0  0  0  0
   10.4670  -20.5629   24.8481 O   0  0  0  0  0  0  0  0  0  0  0  0
   10.5827  -19.0961   22.9694 C   0  0  0  0  0  0  0  0  0  0  0  0
   11.0515  -17.9815   23.8471 C   0  0  0  0  0  0  0  0  0  0  0  0
   10.1254  -16.8001   23.8559 C   0  0  2  0  0  0  0  0  0  0  0  0
   10.0331  -16.1817   22.5548 N   0  0  0  0  0  0  0  0  0  0  0  0
   10.4319  -15.8341   24.9229 C   0  0  0  0  0  0  0  0  0  0  0  0
   11.6306  -15.3928   24.9776 O   0  0  0  0  0  0  0  0  0  0  0  0
    6.6575  -11.2197   27.4606 C   0  0  0  0  0  0  0  0  0  0  0  0
    6.4239  -12.9476   26.9850 S   0  0  0  0  0  0  0  0  0  0  0  0
    7.6976  -14.0152   27.6878 C   0  0  0  0  0  0  0  0  0  0  0  0
    9.0799  -13.5001   27.4059 C   0  0  0  0  0  0  0  0  0  0  0  0
    9.9927  -14.6748   27.0574 C   0  0  2  0  0  0  0  0  0  0  0  0
    9.5226  -15.3634   25.8751 N   0  0  0  0  0  0  0  0  0  0  0  0
   10.1087  -15.6035   28.2015 C   0  0  0  0  0  0  0  0  0  0  0  0
   10.7252  -15.1627   29.3553 O   0  0  0  0  0  0  0  0  0  0  0  0
    9.6680  -16.7719   28.1591 O   0  0  0  0  0  0  0  0  0  0  0  0
  2  4  1  0
  2  1  1  1
  3  2  1  0
  4  5  1  0
  5  6  1  6
  7  8  2  0
  7  5  1  0
  9 10  1  0
 10 12  1  0
 10 11  2  0
 12 13  1  0
 14 13  1  6
 14 15  1  0
 15  7  1  0
 16 17  2  0
 16 14  1  0
 19 18  1  0
 20 19  1  0
 20 21  1  0
 22 21  1  1
 22 23  1  0
 23 16  1  0
 24 22  1  0
 25 24  1  0
 26 24  2  0
M  END
$$$$
