LQM.pdb
     RDKit          3D

 26 25  0  0  1  0  0  0  0  0999 V2000
    8.5523  -12.6653   18.5124 C   0  0  0  0  0  0  0  0  0  0  0  0
    8.3242  -13.6973   19.5701 C   0  0  1  0  0  0  0  0  0  0  0  0
    7.5338  -13.1502   20.7399 C   0  0  0  0  0  0  0  0  0  0  0  0
    7.7039  -14.9619   19.0237 C   0  0  0  0  0  0  0  0  0  0  0  0
    7.6326  -16.0369   20.0583 C   0  0  2  0  0  0  0  0  0  0  0  0
    6.8734  -15.5475   21.1920 N   0  0  0  0  0  0  0  0  0  0  0  0
    8.9719  -16.4702   20.5274 C   0  0  0  0  0  0  0  0  0  0  0  0
    9.3636  -17.6490   20.3331 O   0  0  0  0  0  0  0  0  0  0  0  0
   15.0761  -14.7156   20.8595 N   0  0  0  0  0  0  0  0  0  0  0  0
   14.0936  -14.7978   19.8512 C   0  0  0  0  0  0  0  0  0  0  0  0
   14.3891  -14.2551   18.7358 O   0  0  0  0  0  0  0  0  0  0  0  0
   12.7875  -15.4615   20.0296 C   0  0  0  0  0  0  0  0  0  0  0  0
   12.2563  -15.1459   21.3900 C   0  0  0  0  0  0  0  0  0  0  0  0
   11.1112  -16.0252   21.8013 C   0  0  2  0  0  0  0  0  0  0  0  0
    9.8669  -15.5976   21.2074 N   0  0  0  0  0  0  0  0  0  0  0  0
   11.0132  -16.2015   23.2589 C   0  0  0  0  0  0  0  0  0  0  0  0
   12.1101  -16.3465   23.8997 O   0  0  0  0  0  0  0  0  0  0  0  0
    6.0365  -12.8513   26.1732 C   0  0  0  0  0  0  0  0  0  0  0  0
    7.6244  -12.6022   26.9995 S   0  0  0  0  0  0  0  0  0  0  0  0
    8.6969  -14.0447   26.8411 C   0  0  0  0  0  0  0  0  0  0  0  0
    8.7245  -14.5718   25.4351 C   0  0  0  0  0  0  0  0  0  0  0  0
    9.7809  -15.6707   25.3308 C   0  0  2  0  0  0  0  0  0  0  0  0
    9.8241  -16.2227   23.9942 N   0  0  0  0  0  0  0  0  0  0  0  0
    9.5353  -16.7283   26.3339 C   0  0  0  0  0  0  0  0  0  0  0  0
    9.7277  -16.4351   27.6691 O   0  0  0  0  0  0  0  0  0  0  0  0
    9.1600  -17.8764   26.0141 O   0  0  0  0  0  0  0  0  0  0  0  0
  2  4  1  0
  2  1  1  6
  3  2  1  0
  4  5  1  0
  5  6  1  1
  7  8  2  0
  7  5  1  0
  9 10  1  0
 10 12  1  0
 10 11  2  0
 12 13  1  0
 14 13  1  1
 14 15  1  0
 15  7  1  0
 16 17  2  0
 16 14  1  0
 19 18  1  0
 20 19  1  0
 20 21  1  0
 22 21  1  6
 22 23  1  0
 23 16  1  0
 24 22  1  0
 25 24  1  0
 26 24  2  0
M  END
$$$$
