LQM.pdb
     RDKit          3D

 26 25  0  0  1  0  0  0  0  0999 V2000
    5.9888  -12.0714   26.5393 C   0  0  0  0  0  0  0  0  0  0  0  0
    6.0991  -13.0161   25.3855 C   0  0  1  0  0  0  0  0  0  0  0  0
    6.7302  -12.3647   24.1731 C   0  0  0  0  0  0  0  0  0  0  0  0
    6.8010  -14.3025   25.7531 C   0  0  0  0  0  0  0  0  0  0  0  0
    6.6443  -15.3428   24.6925 C   0  0  2  0  0  0  0  0  0  0  0  0
    5.5089  -16.1815   25.0221 N   0  0  0  0  0  0  0  0  0  0  0  0
    7.8479  -16.1982   24.5469 C   0  0  0  0  0  0  0  0  0  0  0  0
    8.0642  -17.1354   25.3565 O   0  0  0  0  0  0  0  0  0  0  0  0
   10.3265  -18.6629   20.1598 N   0  0  0  0  0  0  0  0  0  0  0  0
   11.5747  -18.4843   20.7914 C   0  0  0  0  0  0  0  0  0  0  0  0
   12.4920  -19.3061   20.4614 O   0  0  0  0  0  0  0  0  0  0  0  0
   11.8498  -17.4247   21.7812 C   0  0  0  0  0  0  0  0  0  0  0  0
   10.6132  -16.6124   21.9900 C   0  0  0  0  0  0  0  0  0  0  0  0
    9.9640  -16.8472   23.3230 C   0  0  2  0  0  0  0  0  0  0  0  0
    8.8023  -16.0106   23.5082 N   0  0  0  0  0  0  0  0  0  0  0  0
   10.9088  -16.7634   24.4481 C   0  0  0  0  0  0  0  0  0  0  0  0
   11.7392  -15.7912   24.4357 O   0  0  0  0  0  0  0  0  0  0  0  0
   10.4876  -12.7904   28.5390 C   0  0  0  0  0  0  0  0  0  0  0  0
   11.0564  -14.4498   28.9742 S   0  0  0  0  0  0  0  0  0  0  0  0
   11.6169  -15.3685   27.5258 C   0  0  0  0  0  0  0  0  0  0  0  0
   11.5852  -16.8523   27.7556 C   0  0  0  0  0  0  0  0  0  0  0  0
   12.0456  -17.5675   26.4863 C   0  0  2  0  0  0  0  0  0  0  0  0
   10.9702  -17.6561   25.5225 N   0  0  0  0  0  0  0  0  0  0  0  0
   12.5824  -18.9069   26.8069 C   0  0  0  0  0  0  0  0  0  0  0  0
   13.7316  -18.9977   27.5665 O   0  0  0  0  0  0  0  0  0  0  0  0
   12.0316  -19.9575   26.4143 O   0  0  0  0  0  0  0  0  0  0  0  0
  2  4  1  0
  2  1  1  1
  3  2  1  0
  4  5  1  0
  5  6  1  1
  7  8  2  0
  7  5  1  0
  9 10  1  0
 10 12  1  0
 10 11  2  0
 12 13  1  0
 14 13  1  6
 14 15  1  0
 15  7  1  0
 16 17  2  0
 16 14  1  0
 19 18  1  0
 20 19  1  0
 20 21  1  0
 22 21  1  1
 22 23  1  0
 23 16  1  0
 24 22  1  0
 25 24  1  0
 26 24  2  0
M  END
$$$$
