LQM.pdb
     RDKit          3D

 26 25  0  0  1  0  0  0  0  0999 V2000
    7.6234  -12.3876   18.5087 C   0  0  0  0  0  0  0  0  0  0  0  0
    7.4521  -13.4957   19.4979 C   0  0  1  0  0  0  0  0  0  0  0  0
    6.0381  -13.5680   20.0344 C   0  0  0  0  0  0  0  0  0  0  0  0
    7.9108  -14.8308   18.9597 C   0  0  0  0  0  0  0  0  0  0  0  0
    7.8776  -15.8932   20.0093 C   0  0  2  0  0  0  0  0  0  0  0  0
    6.9834  -15.4760   21.0711 N   0  0  0  0  0  0  0  0  0  0  0  0
    9.2158  -16.1687   20.5881 C   0  0  0  0  0  0  0  0  0  0  0  0
    9.7038  -17.3264   20.5399 O   0  0  0  0  0  0  0  0  0  0  0  0
   14.6208  -14.2875   19.7512 N   0  0  0  0  0  0  0  0  0  0  0  0
   14.5301  -14.9960   20.9671 C   0  0  0  0  0  0  0  0  0  0  0  0
   15.2782  -16.0230   21.0740 O   0  0  0  0  0  0  0  0  0  0  0  0
   13.6377  -14.6101   22.0776 C   0  0  0  0  0  0  0  0  0  0  0  0
   12.2725  -14.3311   21.5383 C   0  0  0  0  0  0  0  0  0  0  0  0
   11.2790  -15.4147   21.8418 C   0  0  2  0  0  0  0  0  0  0  0  0
   10.0031  -15.1629   21.2153 N   0  0  0  0  0  0  0  0  0  0  0  0
   11.1582  -15.7009   23.2802 C   0  0  0  0  0  0  0  0  0  0  0  0
   12.2266  -16.0414   23.8945 O   0  0  0  0  0  0  0  0  0  0  0  0
    7.8680  -11.6971   27.2032 C   0  0  0  0  0  0  0  0  0  0  0  0
    7.1729  -12.7671   25.9232 S   0  0  0  0  0  0  0  0  0  0  0  0
    8.4309  -13.8219   25.1743 C   0  0  0  0  0  0  0  0  0  0  0  0
    8.8297  -14.9504   26.0814 C   0  0  0  0  0  0  0  0  0  0  0  0
   10.0162  -15.6928   25.4685 C   0  0  2  0  0  0  0  0  0  0  0  0
    9.9761  -15.6305   24.0237 N   0  0  0  0  0  0  0  0  0  0  0  0
   10.0549  -17.0938   25.9383 C   0  0  0  0  0  0  0  0  0  0  0  0
   10.2516  -17.3387   27.2826 O   0  0  0  0  0  0  0  0  0  0  0  0
    9.9155  -18.0619   25.1607 O   0  0  0  0  0  0  0  0  0  0  0  0
  2  4  1  0
  2  1  1  6
  3  2  1  0
  4  5  1  0
  5  6  1  1
  7  8  2  0
  7  5  1  0
  9 10  1  0
 10 12  1  0
 10 11  2  0
 12 13  1  0
 14 13  1  1
 14 15  1  0
 15  7  1  0
 16 17  2  0
 16 14  1  0
 19 18  1  0
 20 19  1  0
 20 21  1  0
 22 21  1  1
 22 23  1  0
 23 16  1  0
 24 22  1  0
 25 24  1  0
 26 24  2  0
M  END
$$$$
