LQM.pdb
     RDKit          3D

 26 25  0  0  1  0  0  0  0  0999 V2000
    7.2083  -12.2494   19.0661 C   0  0  0  0  0  0  0  0  0  0  0  0
    7.9797  -13.5121   18.8505 C   0  0  1  0  0  0  0  0  0  0  0  0
    9.3304  -13.2543   18.2167 C   0  0  0  0  0  0  0  0  0  0  0  0
    8.1055  -14.3380   20.1093 C   0  0  0  0  0  0  0  0  0  0  0  0
    8.8169  -15.6273   19.8583 C   0  0  2  0  0  0  0  0  0  0  0  0
    7.9998  -16.4530   18.9913 N   0  0  0  0  0  0  0  0  0  0  0  0
    9.1024  -16.3765   21.1068 C   0  0  0  0  0  0  0  0  0  0  0  0
    8.1612  -16.8297   21.8063 O   0  0  0  0  0  0  0  0  0  0  0  0
   14.6971  -18.8056   22.9601 N   0  0  0  0  0  0  0  0  0  0  0  0
   13.8376  -19.0271   24.0560 C   0  0  0  0  0  0  0  0  0  0  0  0
   14.3332  -19.6785   25.0336 O   0  0  0  0  0  0  0  0  0  0  0  0
   12.4412  -18.5528   24.1131 C   0  0  0  0  0  0  0  0  0  0  0  0
   12.1185  -17.8178   22.8529 C   0  0  0  0  0  0  0  0  0  0  0  0
   10.7315  -17.2439   22.8362 C   0  0  2  0  0  0  0  0  0  0  0  0
   10.4254  -16.6184   21.5718 N   0  0  0  0  0  0  0  0  0  0  0  0
   10.4559  -16.3664   23.9849 C   0  0  0  0  0  0  0  0  0  0  0  0
   11.2224  -15.3545   24.1376 O   0  0  0  0  0  0  0  0  0  0  0  0
    6.6392  -11.1869   27.6408 C   0  0  0  0  0  0  0  0  0  0  0  0
    6.7729  -12.4193   26.3256 S   0  0  0  0  0  0  0  0  0  0  0  0
    7.6217  -13.9097   26.8862 C   0  0  0  0  0  0  0  0  0  0  0  0
    7.8425  -14.8849   25.7657 C   0  0  0  0  0  0  0  0  0  0  0  0
    9.1972  -15.5665   25.9519 C   0  0  2  0  0  0  0  0  0  0  0  0
    9.4293  -16.5498   24.9163 N   0  0  0  0  0  0  0  0  0  0  0  0
    9.2947  -16.1769   27.2946 C   0  0  0  0  0  0  0  0  0  0  0  0
    9.6507  -17.5068   27.3956 O   0  0  0  0  0  0  0  0  0  0  0  0
    9.0663  -15.5303   28.3391 O   0  0  0  0  0  0  0  0  0  0  0  0
  2  4  1  0
  2  1  1  1
  3  2  1  0
  4  5  1  0
  5  6  1  6
  7  8  2  0
  7  5  1  0
  9 10  1  0
 10 12  1  0
 10 11  2  0
 12 13  1  0
 14 13  1  6
 14 15  1  0
 15  7  1  0
 16 17  2  0
 16 14  1  0
 19 18  1  0
 20 19  1  0
 20 21  1  0
 22 21  1  6
 22 23  1  0
 23 16  1  0
 24 22  1  0
 25 24  1  0
 26 24  2  0
M  END
$$$$
