LQM.pdb
     RDKit          3D

 26 25  0  0  1  0  0  0  0  0999 V2000
    7.3139  -12.2518   20.3989 C   0  0  0  0  0  0  0  0  0  0  0  0
    7.9555  -13.4302   19.7389 C   0  0  1  0  0  0  0  0  0  0  0  0
    9.1167  -13.0268   18.8550 C   0  0  0  0  0  0  0  0  0  0  0  0
    8.3550  -14.5023   20.7256 C   0  0  0  0  0  0  0  0  0  0  0  0
    8.9026  -15.7112   20.0400 C   0  0  2  0  0  0  0  0  0  0  0  0
    7.8551  -16.3099   19.2366 N   0  0  0  0  0  0  0  0  0  0  0  0
    9.4176  -16.7258   20.9922 C   0  0  0  0  0  0  0  0  0  0  0  0
    8.6276  -17.5144   21.5707 O   0  0  0  0  0  0  0  0  0  0  0  0
   15.1427  -18.9132   20.4401 N   0  0  0  0  0  0  0  0  0  0  0  0
   13.8687  -19.2969   19.9724 C   0  0  0  0  0  0  0  0  0  0  0  0
   13.8393  -20.3017   19.1880 O   0  0  0  0  0  0  0  0  0  0  0  0
   12.6169  -18.6074   20.3410 C   0  0  0  0  0  0  0  0  0  0  0  0
   12.5428  -18.4824   21.8280 C   0  0  0  0  0  0  0  0  0  0  0  0
   11.3190  -17.7553   22.3046 C   0  0  2  0  0  0  0  0  0  0  0  0
   10.8010  -16.8603   21.2974 N   0  0  0  0  0  0  0  0  0  0  0  0
   11.5096  -17.0955   23.6061 C   0  0  0  0  0  0  0  0  0  0  0  0
   12.6978  -16.7256   23.8993 O   0  0  0  0  0  0  0  0  0  0  0  0
    9.5936  -12.8443   29.8078 C   0  0  0  0  0  0  0  0  0  0  0  0
    8.9839  -13.5895   28.2784 S   0  0  0  0  0  0  0  0  0  0  0  0
    9.9870  -15.0020   27.7737 C   0  0  0  0  0  0  0  0  0  0  0  0
    9.6645  -15.4489   26.3766 C   0  0  0  0  0  0  0  0  0  0  0  0
   10.8271  -16.2779   25.8329 C   0  0  2  0  0  0  0  0  0  0  0  0
   10.5014  -16.8424   24.5413 N   0  0  0  0  0  0  0  0  0  0  0  0
   11.2088  -17.3350   26.7930 C   0  0  0  0  0  0  0  0  0  0  0  0
   10.5049  -18.5225   26.7883 O   0  0  0  0  0  0  0  0  0  0  0  0
   12.1457  -17.1898   27.6069 O   0  0  0  0  0  0  0  0  0  0  0  0
  2  4  1  0
  2  1  1  1
  3  2  1  0
  4  5  1  0
  5  6  1  1
  7  8  2  0
  7  5  1  0
  9 10  1  0
 10 12  1  0
 10 11  2  0
 12 13  1  0
 14 13  1  6
 14 15  1  0
 15  7  1  0
 16 17  2  0
 16 14  1  0
 19 18  1  0
 20 19  1  0
 20 21  1  0
 22 21  1  1
 22 23  1  0
 23 16  1  0
 24 22  1  0
 25 24  1  0
 26 24  2  0
M  END
$$$$
