LQM.pdb
     RDKit          3D

 26 25  0  0  1  0  0  0  0  0999 V2000
    6.7351  -12.7129   18.5424 C   0  0  0  0  0  0  0  0  0  0  0  0
    8.0253  -13.3707   18.9149 C   0  0  1  0  0  0  0  0  0  0  0  0
    9.1645  -12.3781   19.0121 C   0  0  0  0  0  0  0  0  0  0  0  0
    7.9100  -14.2081   20.1671 C   0  0  0  0  0  0  0  0  0  0  0  0
    9.2364  -14.7380   20.6043 C   0  0  2  0  0  0  0  0  0  0  0  0
    9.7677  -15.5920   19.5604 N   0  0  0  0  0  0  0  0  0  0  0  0
    9.1555  -15.5144   21.8661 C   0  0  0  0  0  0  0  0  0  0  0  0
    8.4281  -15.1178   22.8117 O   0  0  0  0  0  0  0  0  0  0  0  0
   11.9570  -21.1655   23.0252 N   0  0  0  0  0  0  0  0  0  0  0  0
   11.5155  -20.7248   24.2899 C   0  0  0  0  0  0  0  0  0  0  0  0
   11.7862  -21.4880   25.2748 O   0  0  0  0  0  0  0  0  0  0  0  0
   10.7809  -19.4636   24.5094 C   0  0  0  0  0  0  0  0  0  0  0  0
   10.6722  -18.7251   23.2151 C   0  0  0  0  0  0  0  0  0  0  0  0
    9.9134  -17.4347   23.3273 C   0  0  2  0  0  0  0  0  0  0  0  0
    9.8790  -16.7223   22.0723 N   0  0  0  0  0  0  0  0  0  0  0  0
   10.3680  -16.5929   24.4454 C   0  0  0  0  0  0  0  0  0  0  0  0
   11.2850  -15.7388   24.1917 O   0  0  0  0  0  0  0  0  0  0  0  0
    6.4509  -13.0470   27.3841 C   0  0  0  0  0  0  0  0  0  0  0  0
    7.9063  -12.6178   28.3658 S   0  0  0  0  0  0  0  0  0  0  0  0
    9.2935  -13.7210   28.0270 C   0  0  0  0  0  0  0  0  0  0  0  0
    8.9741  -14.7067   26.9398 C   0  0  0  0  0  0  0  0  0  0  0  0
   10.1896  -15.6004   26.6985 C   0  0  2  0  0  0  0  0  0  0  0  0
    9.8801  -16.6522   25.7545 N   0  0  0  0  0  0  0  0  0  0  0  0
   10.6873  -16.1606   27.9726 C   0  0  0  0  0  0  0  0  0  0  0  0
   11.2657  -15.3087   28.8921 O   0  0  0  0  0  0  0  0  0  0  0  0
   10.6019  -17.3771   28.2446 O   0  0  0  0  0  0  0  0  0  0  0  0
  2  4  1  0
  2  1  1  1
  3  2  1  0
  4  5  1  0
  5  6  1  6
  7  8  2  0
  7  5  1  0
  9 10  1  0
 10 12  1  0
 10 11  2  0
 12 13  1  0
 14 13  1  6
 14 15  1  0
 15  7  1  0
 16 17  2  0
 16 14  1  0
 19 18  1  0
 20 19  1  0
 20 21  1  0
 22 21  1  1
 22 23  1  0
 23 16  1  0
 24 22  1  0
 25 24  1  0
 26 24  2  0
M  END
$$$$
