AFL.pdb
     RDKit          3D

 25 25  0  0  1  0  0  0  0  0999 V2000
   25.4847  -21.4346  -12.3862 C   0  0  0  0  0  0  0  0  0  0  0  0
   25.3620  -20.0343  -11.8045 C   0  0  2  0  0  0  0  0  0  0  0  0
   25.5874  -19.0968  -12.8845 N   0  0  0  0  0  0  0  0  0  0  0  0
   26.4163  -19.8911  -10.7619 C   0  0  0  0  0  0  0  0  0  0  0  0
   27.6064  -19.7175  -11.1964 O   0  0  0  0  0  0  0  0  0  0  0  0
   26.1350  -19.9416   -9.3864 N   0  0  0  0  0  0  0  0  0  0  0  0
   27.1810  -19.7133   -8.3630 C   0  0  1  0  0  0  0  0  0  0  0  0
   26.4891  -19.3205   -7.1093 C   0  0  0  0  0  0  0  0  0  0  0  0
   27.2908  -19.1207   -5.9341 C   0  0  0  0  0  0  0  0  0  0  0  0
   27.9799  -17.9636   -5.6596 C   0  0  0  0  0  0  0  0  0  0  0  0
   28.7502  -17.8555   -4.4939 C   0  0  0  0  0  0  0  0  0  0  0  0
   28.8412  -18.8856   -3.5996 C   0  0  0  0  0  0  0  0  0  0  0  0
   28.1574  -20.0502   -3.8593 C   0  0  0  0  0  0  0  0  0  0  0  0
   27.4102  -20.1363   -5.0041 C   0  0  0  0  0  0  0  0  0  0  0  0
   27.9071  -20.9776   -8.2068 C   0  0  0  0  0  0  0  0  0  0  0  0
   27.2166  -22.0562   -8.1860 O   0  0  0  0  0  0  0  0  0  0  0  0
   30.8398  -22.8063  -10.4903 C   0  0  0  0  0  0  0  0  0  0  0  0
   31.5589  -21.9578   -9.4361 C   0  0  2  0  0  0  0  0  0  0  0  0
   33.0158  -21.9132   -9.8129 C   0  0  0  0  0  0  0  0  0  0  0  0
   31.3253  -22.5031   -8.0631 C   0  0  0  0  0  0  0  0  0  0  0  0
   29.8374  -22.5130   -7.7613 C   0  0  2  0  0  0  0  0  0  0  0  0
   29.3036  -21.1657   -8.0811 N   0  0  0  0  0  0  0  0  0  0  0  0
   29.6084  -22.7530   -6.3441 C   0  0  0  0  0  0  0  0  0  0  0  0
   29.7016  -24.0457   -5.7900 O   0  0  0  0  0  0  0  0  0  0  0  0
   29.3116  -21.7896   -5.5667 O   0  0  0  0  0  0  0  0  0  0  0  0
  2  1  1  6
  2  3  1  0
  4  2  1  0
  4  5  2  0
  6  4  1  0
  7  6  1  0
  7  8  1  1
  8  9  1  0
  9 14  2  0
 10  9  1  0
 10 11  2  0
 11 12  1  0
 12 13  2  0
 14 13  1  0
 15  7  1  0
 16 15  2  0
 18 19  1  6
 18 17  1  0
 20 18  1  0
 21 20  1  1
 21 22  1  0
 22 15  1  0
 23 21  1  0
 24 23  1  0
 25 23  2  0
M  END
$$$$
