AFL.pdb
     RDKit          3D

 25 25  0  0  1  0  0  0  0  0999 V2000
   25.1919  -21.6970  -12.1295 C   0  0  0  0  0  0  0  0  0  0  0  0
   25.0503  -20.2512  -11.6782 C   0  0  2  0  0  0  0  0  0  0  0  0
   25.2093  -19.4156  -12.8498 N   0  0  0  0  0  0  0  0  0  0  0  0
   26.1372  -19.9828  -10.6955 C   0  0  0  0  0  0  0  0  0  0  0  0
   27.2812  -19.7055  -11.1954 O   0  0  0  0  0  0  0  0  0  0  0  0
   25.9324  -20.0280   -9.3064 N   0  0  0  0  0  0  0  0  0  0  0  0
   27.0344  -19.8007   -8.3433 C   0  0  1  0  0  0  0  0  0  0  0  0
   26.4127  -19.4658   -7.0372 C   0  0  0  0  0  0  0  0  0  0  0  0
   27.2764  -19.3317   -5.8971 C   0  0  0  0  0  0  0  0  0  0  0  0
   27.3575  -20.2525   -4.8799 C   0  0  0  0  0  0  0  0  0  0  0  0
   28.2190  -20.0383   -3.7954 C   0  0  0  0  0  0  0  0  0  0  0  0
   28.9996  -18.9189   -3.7132 C   0  0  0  0  0  0  0  0  0  0  0  0
   28.9305  -17.9879   -4.7231 C   0  0  0  0  0  0  0  0  0  0  0  0
   28.0823  -18.2154   -5.7744 C   0  0  0  0  0  0  0  0  0  0  0  0
   27.8025  -21.0477   -8.2729 C   0  0  0  0  0  0  0  0  0  0  0  0
   27.1445  -22.1404   -8.1557 O   0  0  0  0  0  0  0  0  0  0  0  0
   30.6811  -22.6402  -10.7687 C   0  0  0  0  0  0  0  0  0  0  0  0
   31.4084  -21.8214   -9.6968 C   0  0  2  0  0  0  0  0  0  0  0  0
   32.8388  -21.6697  -10.1411 C   0  0  0  0  0  0  0  0  0  0  0  0
   31.2775  -22.4661   -8.3535 C   0  0  0  0  0  0  0  0  0  0  0  0
   29.8164  -22.5025   -7.9422 C   0  0  2  0  0  0  0  0  0  0  0  0
   29.2073  -21.2050   -8.3269 N   0  0  0  0  0  0  0  0  0  0  0  0
   29.6990  -22.6335   -6.4974 C   0  0  0  0  0  0  0  0  0  0  0  0
   30.0920  -23.8105   -5.8287 O   0  0  0  0  0  0  0  0  0  0  0  0
   29.2294  -21.6781   -5.7993 O   0  0  0  0  0  0  0  0  0  0  0  0
  2  1  1  6
  2  3  1  0
  4  2  1  0
  4  5  2  0
  6  4  1  0
  7  6  1  0
  7  8  1  1
  8  9  1  0
  9 14  2  0
 10  9  1  0
 10 11  2  0
 11 12  1  0
 12 13  2  0
 14 13  1  0
 15  7  1  0
 16 15  2  0
 18 19  1  6
 18 17  1  0
 20 18  1  0
 21 20  1  1
 21 22  1  0
 22 15  1  0
 23 21  1  0
 24 23  1  0
 25 23  2  0
M  END
$$$$
