AFL.pdb
     RDKit          3D

 25 25  0  0  1  0  0  0  0  0999 V2000
   24.9096  -18.7266  -15.1293 C   0  0  0  0  0  0  0  0  0  0  0  0
   26.2800  -19.1198  -15.6598 C   0  0  2  0  0  0  0  0  0  0  0  0
   26.0843  -19.7055  -16.9693 N   0  0  0  0  0  0  0  0  0  0  0  0
   26.8501  -20.1248  -14.7196 C   0  0  0  0  0  0  0  0  0  0  0  0
   26.4641  -21.3312  -14.8958 O   0  0  0  0  0  0  0  0  0  0  0  0
   27.7545  -19.7830  -13.7003 N   0  0  0  0  0  0  0  0  0  0  0  0
   28.3392  -20.8005  -12.7968 C   0  0  1  0  0  0  0  0  0  0  0  0
   29.5615  -20.2056  -12.1996 C   0  0  0  0  0  0  0  0  0  0  0  0
   30.3659  -21.0371  -11.3479 C   0  0  0  0  0  0  0  0  0  0  0  0
   30.9638  -22.2059  -11.7548 C   0  0  0  0  0  0  0  0  0  0  0  0
   31.7236  -22.9654  -10.8548 C   0  0  0  0  0  0  0  0  0  0  0  0
   31.8944  -22.5740   -9.5561 C   0  0  0  0  0  0  0  0  0  0  0  0
   31.3030  -21.4067   -9.1331 C   0  0  0  0  0  0  0  0  0  0  0  0
   30.5642  -20.6786  -10.0277 C   0  0  0  0  0  0  0  0  0  0  0  0
   27.3278  -21.0961  -11.7771 C   0  0  0  0  0  0  0  0  0  0  0  0
   26.8428  -22.2813  -11.7529 O   0  0  0  0  0  0  0  0  0  0  0  0
   27.4412  -20.7981   -7.2023 C   0  0  0  0  0  0  0  0  0  0  0  0
   27.0831  -19.5653   -8.0391 C   0  0  2  0  0  0  0  0  0  0  0  0
   27.1689  -18.3666   -7.1323 C   0  0  0  0  0  0  0  0  0  0  0  0
   25.7384  -19.7244   -8.6741 C   0  0  0  0  0  0  0  0  0  0  0  0
   25.8219  -20.7318   -9.8069 C   0  0  2  0  0  0  0  0  0  0  0  0
   26.8122  -20.2246  -10.7891 N   0  0  0  0  0  0  0  0  0  0  0  0
   24.5399  -20.8374  -10.4879 C   0  0  0  0  0  0  0  0  0  0  0  0
   24.3380  -20.2884  -11.7703 O   0  0  0  0  0  0  0  0  0  0  0  0
   23.5611  -21.4313   -9.9313 O   0  0  0  0  0  0  0  0  0  0  0  0
  2  1  1  1
  2  3  1  0
  4  2  1  0
  4  5  2  0
  6  4  1  0
  7  6  1  0
  7  8  1  1
  8  9  1  0
  9 14  2  0
 10  9  1  0
 10 11  2  0
 11 12  1  0
 12 13  2  0
 14 13  1  0
 15  7  1  0
 16 15  2  0
 18 19  1  1
 18 17  1  0
 20 18  1  0
 21 20  1  1
 21 22  1  0
 22 15  1  0
 23 21  1  0
 24 23  1  0
 25 23  2  0
M  END
$$$$
