AFL.pdb
     RDKit          3D

 25 25  0  0  1  0  0  0  0  0999 V2000
   18.1383  -11.1906  -15.7761 C   0  0  0  0  0  0  0  0  0  0  0  0
   17.1307  -10.1907  -15.2293 C   0  0  2  0  0  0  0  0  0  0  0  0
   17.1404   -9.0420  -16.1106 N   0  0  0  0  0  0  0  0  0  0  0  0
   17.5832   -9.8036  -13.8639 C   0  0  0  0  0  0  0  0  0  0  0  0
   17.6126  -10.7469  -13.0009 O   0  0  0  0  0  0  0  0  0  0  0  0
   17.9563   -8.4905  -13.5320 N   0  0  0  0  0  0  0  0  0  0  0  0
   18.4716   -8.1372  -12.1892 C   0  0  1  0  0  0  0  0  0  0  0  0
   19.7693   -7.4431  -12.3865 C   0  0  0  0  0  0  0  0  0  0  0  0
   20.9095   -8.2400  -12.7451 C   0  0  0  0  0  0  0  0  0  0  0  0
   21.5123   -9.1443  -11.9037 C   0  0  0  0  0  0  0  0  0  0  0  0
   22.6307   -9.8738  -12.3293 C   0  0  0  0  0  0  0  0  0  0  0  0
   23.1542   -9.7131  -13.5820 C   0  0  0  0  0  0  0  0  0  0  0  0
   22.5624   -8.8124  -14.4363 C   0  0  0  0  0  0  0  0  0  0  0  0
   21.4703   -8.1089  -14.0017 C   0  0  0  0  0  0  0  0  0  0  0  0
   17.4762   -7.2571  -11.5691 C   0  0  0  0  0  0  0  0  0  0  0  0
   16.9122   -6.3841  -12.3177 O   0  0  0  0  0  0  0  0  0  0  0  0
   13.3950   -7.3648  -10.0930 C   0  0  0  0  0  0  0  0  0  0  0  0
   14.4038   -7.8956   -9.0688 C   0  0  2  0  0  0  0  0  0  0  0  0
   13.6187   -8.5387   -7.9568 C   0  0  0  0  0  0  0  0  0  0  0  0
   15.3055   -6.8015   -8.5924 C   0  0  0  0  0  0  0  0  0  0  0  0
   16.0748   -6.2231   -9.7666 C   0  0  2  0  0  0  0  0  0  0  0  0
   17.0423   -7.2520  -10.2226 N   0  0  0  0  0  0  0  0  0  0  0  0
   16.8370   -5.0557   -9.3485 C   0  0  0  0  0  0  0  0  0  0  0  0
   16.2247   -3.7981   -9.1742 O   0  0  0  0  0  0  0  0  0  0  0  0
   18.0884   -5.1461   -9.1329 O   0  0  0  0  0  0  0  0  0  0  0  0
  2  1  1  6
  2  3  1  0
  4  2  1  0
  4  5  2  0
  6  4  1  0
  7  6  1  0
  7  8  1  6
  8  9  1  0
  9 14  2  0
 10  9  1  0
 10 11  2  0
 11 12  1  0
 12 13  2  0
 14 13  1  0
 15  7  1  0
 16 15  2  0
 18 19  1  1
 18 17  1  0
 20 18  1  0
 21 20  1  1
 21 22  1  0
 22 15  1  0
 23 21  1  0
 24 23  1  0
 25 23  2  0
M  END
$$$$
