AFL.pdb
     RDKit          3D

 25 25  0  0  1  0  0  0  0  0999 V2000
   12.9783  -19.7423  -14.9376 C   0  0  0  0  0  0  0  0  0  0  0  0
   13.5428  -18.6573  -15.8422 C   0  0  2  0  0  0  0  0  0  0  0  0
   14.8908  -19.0489  -16.1967 N   0  0  0  0  0  0  0  0  0  0  0  0
   13.5571  -17.3890  -15.0610 C   0  0  0  0  0  0  0  0  0  0  0  0
   14.5411  -17.2434  -14.2573 O   0  0  0  0  0  0  0  0  0  0  0  0
   12.5602  -16.4075  -15.1893 N   0  0  0  0  0  0  0  0  0  0  0  0
   12.5375  -15.1965  -14.3370 C   0  0  1  0  0  0  0  0  0  0  0  0
   12.5959  -14.0217  -15.2433 C   0  0  0  0  0  0  0  0  0  0  0  0
   13.8530  -13.7175  -15.8684 C   0  0  0  0  0  0  0  0  0  0  0  0
   14.2365  -14.1945  -17.0990 C   0  0  0  0  0  0  0  0  0  0  0  0
   15.4883  -13.8585  -17.6321 C   0  0  0  0  0  0  0  0  0  0  0  0
   16.3608  -13.0535  -16.9542 C   0  0  0  0  0  0  0  0  0  0  0  0
   15.9922  -12.5675  -15.7216 C   0  0  0  0  0  0  0  0  0  0  0  0
   14.7647  -12.9075  -15.2176 C   0  0  0  0  0  0  0  0  0  0  0  0
   11.2830  -15.2328  -13.5788 C   0  0  0  0  0  0  0  0  0  0  0  0
   10.2084  -15.4879  -14.2273 O   0  0  0  0  0  0  0  0  0  0  0  0
    8.6193  -14.6413   -8.0202 C   0  0  0  0  0  0  0  0  0  0  0  0
    8.5192  -15.1221   -9.4719 C   0  0  2  0  0  0  0  0  0  0  0  0
    7.8165  -16.4534   -9.4566 C   0  0  0  0  0  0  0  0  0  0  0  0
    9.8715  -15.1808  -10.1083 C   0  0  0  0  0  0  0  0  0  0  0  0
    9.7348  -15.0579  -11.6155 C   0  0  2  0  0  0  0  0  0  0  0  0
   11.1024  -15.0258  -12.1910 N   0  0  0  0  0  0  0  0  0  0  0  0
    9.0797  -13.8062  -11.9654 C   0  0  0  0  0  0  0  0  0  0  0  0
    9.7937  -12.5926  -12.0309 O   0  0  0  0  0  0  0  0  0  0  0  0
    7.8324  -13.7800  -12.2187 O   0  0  0  0  0  0  0  0  0  0  0  0
  2  1  1  1
  2  3  1  0
  4  2  1  0
  4  5  2  0
  6  4  1  0
  7  6  1  0
  7  8  1  6
  8  9  1  0
  9 14  2  0
 10  9  1  0
 10 11  2  0
 11 12  1  0
 12 13  2  0
 14 13  1  0
 15  7  1  0
 16 15  2  0
 18 19  1  1
 18 17  1  0
 20 18  1  0
 21 20  1  1
 21 22  1  0
 22 15  1  0
 23 21  1  0
 24 23  1  0
 25 23  2  0
M  END
$$$$
