AFL.pdb
     RDKit          3D

 25 25  0  0  1  0  0  0  0  0999 V2000
   25.1782  -21.4780  -12.5967 C   0  0  0  0  0  0  0  0  0  0  0  0
   25.0694  -20.0811  -12.0043 C   0  0  2  0  0  0  0  0  0  0  0  0
   25.2756  -19.1374  -13.0829 N   0  0  0  0  0  0  0  0  0  0  0  0
   26.1439  -19.9460  -10.9814 C   0  0  0  0  0  0  0  0  0  0  0  0
   27.3266  -19.7782  -11.4379 O   0  0  0  0  0  0  0  0  0  0  0  0
   25.8883  -19.9978   -9.6010 N   0  0  0  0  0  0  0  0  0  0  0  0
   26.9622  -19.8182   -8.5971 C   0  0  1  0  0  0  0  0  0  0  0  0
   26.3032  -19.5653   -7.2908 C   0  0  0  0  0  0  0  0  0  0  0  0
   27.1428  -19.3738   -6.1410 C   0  0  0  0  0  0  0  0  0  0  0  0
   27.9761  -18.2946   -5.9671 C   0  0  0  0  0  0  0  0  0  0  0  0
   28.7729  -18.1906   -4.8189 C   0  0  0  0  0  0  0  0  0  0  0  0
   28.7486  -19.1479   -3.8433 C   0  0  0  0  0  0  0  0  0  0  0  0
   27.9199  -20.2340   -4.0018 C   0  0  0  0  0  0  0  0  0  0  0  0
   27.1491  -20.3175   -5.1311 C   0  0  0  0  0  0  0  0  0  0  0  0
   27.7403  -21.0609   -8.5788 C   0  0  0  0  0  0  0  0  0  0  0  0
   27.0919  -22.1642   -8.6339 O   0  0  0  0  0  0  0  0  0  0  0  0
   30.7117  -22.7186  -11.0218 C   0  0  0  0  0  0  0  0  0  0  0  0
   31.4027  -21.8631   -9.9545 C   0  0  2  0  0  0  0  0  0  0  0  0
   32.8493  -21.7327  -10.3507 C   0  0  0  0  0  0  0  0  0  0  0  0
   31.2193  -22.4571   -8.5942 C   0  0  0  0  0  0  0  0  0  0  0  0
   29.7392  -22.5403   -8.2662 C   0  0  2  0  0  0  0  0  0  0  0  0
   29.1464  -21.2027   -8.5149 N   0  0  0  0  0  0  0  0  0  0  0  0
   29.5482  -22.8521   -6.8574 C   0  0  0  0  0  0  0  0  0  0  0  0
   29.8940  -24.1114   -6.3267 O   0  0  0  0  0  0  0  0  0  0  0  0
   29.0552  -21.9852   -6.0661 O   0  0  0  0  0  0  0  0  0  0  0  0
  2  1  1  6
  2  3  1  0
  4  2  1  0
  4  5  2  0
  6  4  1  0
  7  6  1  0
  7  8  1  1
  8  9  1  0
  9 14  2  0
 10  9  1  0
 10 11  2  0
 11 12  1  0
 12 13  2  0
 14 13  1  0
 15  7  1  0
 16 15  2  0
 18 19  1  6
 18 17  1  0
 20 18  1  0
 21 20  1  1
 21 22  1  0
 22 15  1  0
 23 21  1  0
 24 23  1  0
 25 23  2  0
M  END
$$$$
