AFL.pdb
     RDKit          3D

 25 25  0  0  1  0  0  0  0  0999 V2000
   15.1913  -22.3388    3.0787 C   0  0  0  0  0  0  0  0  0  0  0  0
   14.9377  -21.0297    2.3466 C   0  0  2  0  0  0  0  0  0  0  0  0
   15.1520  -21.2752    0.9360 N   0  0  0  0  0  0  0  0  0  0  0  0
   15.9221  -20.0354    2.8578 C   0  0  0  0  0  0  0  0  0  0  0  0
   16.9827  -20.5228    3.3803 O   0  0  0  0  0  0  0  0  0  0  0  0
   15.7116  -18.6487    2.7774 N   0  0  0  0  0  0  0  0  0  0  0  0
   16.7123  -17.6737    3.2687 C   0  0  1  0  0  0  0  0  0  0  0  0
   16.4935  -16.4081    2.5237 C   0  0  0  0  0  0  0  0  0  0  0  0
   17.2592  -15.2574    2.9152 C   0  0  0  0  0  0  0  0  0  0  0  0
   18.5858  -15.0736    2.6063 C   0  0  0  0  0  0  0  0  0  0  0  0
   19.2630  -13.9254    3.0386 C   0  0  0  0  0  0  0  0  0  0  0  0
   18.6343  -12.9593    3.7738 C   0  0  0  0  0  0  0  0  0  0  0  0
   17.3068  -13.1278    4.0910 C   0  0  0  0  0  0  0  0  0  0  0  0
   16.6625  -14.2570    3.6595 C   0  0  0  0  0  0  0  0  0  0  0  0
   16.4721  -17.5042    4.7052 C   0  0  0  0  0  0  0  0  0  0  0  0
   15.2715  -17.6565    5.1250 O   0  0  0  0  0  0  0  0  0  0  0  0
   17.7948  -19.0093   10.2571 C   0  0  0  0  0  0  0  0  0  0  0  0
   17.0205  -18.0529    9.3437 C   0  0  2  0  0  0  0  0  0  0  0  0
   15.5557  -18.3551    9.5153 C   0  0  0  0  0  0  0  0  0  0  0  0
   17.4823  -18.1784    7.9266 C   0  0  0  0  0  0  0  0  0  0  0  0
   16.9630  -17.0069    7.1122 C   0  0  2  0  0  0  0  0  0  0  0  0
   17.4168  -17.1950    5.7118 N   0  0  0  0  0  0  0  0  0  0  0  0
   17.5342  -15.7589    7.5968 C   0  0  0  0  0  0  0  0  0  0  0  0
   18.5982  -15.1241    6.9247 O   0  0  0  0  0  0  0  0  0  0  0  0
   17.0822  -15.2100    8.6528 O   0  0  0  0  0  0  0  0  0  0  0  0
  2  1  1  1
  2  3  1  0
  4  2  1  0
  4  5  2  0
  6  4  1  0
  7  6  1  0
  7  8  1  6
  8  9  1  0
  9 14  2  0
 10  9  1  0
 10 11  2  0
 11 12  1  0
 12 13  2  0
 14 13  1  0
 15  7  1  0
 16 15  2  0
 18 19  1  6
 18 17  1  0
 20 18  1  0
 21 20  1  1
 21 22  1  0
 22 15  1  0
 23 21  1  0
 24 23  1  0
 25 23  2  0
M  END
$$$$
