AFL.pdb
     RDKit          3D

 25 25  0  0  1  0  0  0  0  0999 V2000
   34.0291  -31.3149  -20.1712 C   0  0  0  0  0  0  0  0  0  0  0  0
   33.5526  -31.8632  -18.8347 C   0  0  2  0  0  0  0  0  0  0  0  0
   34.0109  -33.2335  -18.7420 N   0  0  0  0  0  0  0  0  0  0  0  0
   32.0639  -31.8109  -18.8369 C   0  0  0  0  0  0  0  0  0  0  0  0
   31.4718  -32.8754  -19.2262 O   0  0  0  0  0  0  0  0  0  0  0  0
   31.3441  -30.6718  -18.4393 N   0  0  0  0  0  0  0  0  0  0  0  0
   29.8640  -30.6572  -18.3894 C   0  0  1  0  0  0  0  0  0  0  0  0
   29.4711  -29.7091  -17.3164 C   0  0  0  0  0  0  0  0  0  0  0  0
   28.0722  -29.4298  -17.1461 C   0  0  0  0  0  0  0  0  0  0  0  0
   27.2329  -30.1630  -16.3418 C   0  0  0  0  0  0  0  0  0  0  0  0
   25.8753  -29.8297  -16.2415 C   0  0  0  0  0  0  0  0  0  0  0  0
   25.3455  -28.7754  -16.9319 C   0  0  0  0  0  0  0  0  0  0  0  0
   26.1721  -28.0312  -17.7408 C   0  0  0  0  0  0  0  0  0  0  0  0
   27.4959  -28.3731  -17.8257 C   0  0  0  0  0  0  0  0  0  0  0  0
   29.3979  -30.2082  -19.7052 C   0  0  0  0  0  0  0  0  0  0  0  0
   30.2162  -29.5323  -20.4222 O   0  0  0  0  0  0  0  0  0  0  0  0
   28.2146  -32.2275  -24.8450 C   0  0  0  0  0  0  0  0  0  0  0  0
   28.0957  -30.9433  -24.0172 C   0  0  2  0  0  0  0  0  0  0  0  0
   28.9851  -29.9117  -24.6586 C   0  0  0  0  0  0  0  0  0  0  0  0
   28.4358  -31.1999  -22.5836 C   0  0  0  0  0  0  0  0  0  0  0  0
   27.9166  -30.0628  -21.7217 C   0  0  2  0  0  0  0  0  0  0  0  0
   28.1359  -30.4365  -20.3023 N   0  0  0  0  0  0  0  0  0  0  0  0
   26.4844  -29.8914  -21.9163 C   0  0  0  0  0  0  0  0  0  0  0  0
   25.9714  -29.1017  -22.9651 O   0  0  0  0  0  0  0  0  0  0  0  0
   25.6552  -30.4545  -21.1316 O   0  0  0  0  0  0  0  0  0  0  0  0
  2  1  1  6
  2  3  1  0
  4  2  1  0
  4  5  2  0
  6  4  1  0
  7  6  1  0
  7  8  1  1
  8  9  1  0
  9 14  2  0
 10  9  1  0
 10 11  2  0
 11 12  1  0
 12 13  2  0
 14 13  1  0
 15  7  1  0
 16 15  2  0
 18 19  1  6
 18 17  1  0
 20 18  1  0
 21 20  1  6
 21 22  1  0
 22 15  1  0
 23 21  1  0
 24 23  1  0
 25 23  2  0
M  END
$$$$
