AFL.pdb
     RDKit          3D

 25 25  0  0  1  0  0  0  0  0999 V2000
   29.0390  -22.3665  -17.0455 C   0  0  0  0  0  0  0  0  0  0  0  0
   27.8661  -21.4761  -16.6643 C   0  0  2  0  0  0  0  0  0  0  0  0
   28.2961  -20.1030  -16.8255 N   0  0  0  0  0  0  0  0  0  0  0  0
   27.5396  -21.7557  -15.2380 C   0  0  0  0  0  0  0  0  0  0  0  0
   27.2612  -22.9727  -14.9607 O   0  0  0  0  0  0  0  0  0  0  0  0
   27.5340  -20.7561  -14.2508 N   0  0  0  0  0  0  0  0  0  0  0  0
   27.1029  -21.0293  -12.8605 C   0  0  1  0  0  0  0  0  0  0  0  0
   27.8933  -20.1387  -11.9735 C   0  0  0  0  0  0  0  0  0  0  0  0
   27.6077  -20.1673  -10.5659 C   0  0  0  0  0  0  0  0  0  0  0  0
   28.2152  -21.0186   -9.6741 C   0  0  0  0  0  0  0  0  0  0  0  0
   27.8687  -20.9898   -8.3164 C   0  0  0  0  0  0  0  0  0  0  0  0
   26.9256  -20.1235   -7.8380 C   0  0  0  0  0  0  0  0  0  0  0  0
   26.3086  -19.2647   -8.7173 C   0  0  0  0  0  0  0  0  0  0  0  0
   26.6609  -19.3084  -10.0403 C   0  0  0  0  0  0  0  0  0  0  0  0
   25.6697  -20.7272  -12.7920 C   0  0  0  0  0  0  0  0  0  0  0  0
   25.2862  -19.5836  -13.2230 O   0  0  0  0  0  0  0  0  0  0  0  0
   22.3733  -20.5477  -15.2077 C   0  0  0  0  0  0  0  0  0  0  0  0
   22.8479  -21.8627  -14.5800 C   0  0  2  0  0  0  0  0  0  0  0  0
   22.3354  -22.9837  -15.4444 C   0  0  0  0  0  0  0  0  0  0  0  0
   22.3979  -21.9673  -13.1575 C   0  0  0  0  0  0  0  0  0  0  0  0
   23.2363  -21.0496  -12.2855 C   0  0  2  0  0  0  0  0  0  0  0  0
   24.6309  -21.5566  -12.3079 N   0  0  0  0  0  0  0  0  0  0  0  0
   22.7723  -21.0961  -10.9067 C   0  0  0  0  0  0  0  0  0  0  0  0
   21.6644  -20.3392  -10.4749 O   0  0  0  0  0  0  0  0  0  0  0  0
   23.3670  -21.8269  -10.0506 O   0  0  0  0  0  0  0  0  0  0  0  0
  2  1  1  1
  2  3  1  0
  4  2  1  0
  4  5  2  0
  6  4  1  0
  7  6  1  0
  7  8  1  1
  8  9  1  0
  9 14  2  0
 10  9  1  0
 10 11  2  0
 11 12  1  0
 12 13  2  0
 14 13  1  0
 15  7  1  0
 16 15  2  0
 18 19  1  6
 18 17  1  0
 20 18  1  0
 21 20  1  6
 21 22  1  0
 22 15  1  0
 23 21  1  0
 24 23  1  0
 25 23  2  0
M  END
$$$$
