QED.pdb
     RDKit          3D

 27 26  0  0  1  0  0  0  0  0999 V2000
   17.8109  -13.0324  -14.7207 N   0  0  0  0  0  0  0  0  0  0  0  0
   16.4732  -12.9640  -15.2267 C   0  0  0  0  0  0  0  0  0  0  0  0
   15.9787  -14.0330  -15.6382 O   0  0  0  0  0  0  0  0  0  0  0  0
   15.7515  -11.6970  -15.2529 C   0  0  0  0  0  0  0  0  0  0  0  0
   16.5675  -10.5363  -14.7775 C   0  0  0  0  0  0  0  0  0  0  0  0
   16.8334   -9.5174  -15.8272 C   0  0  2  0  0  0  0  0  0  0  0  0
   17.6763   -9.9264  -16.9085 N   0  0  0  0  0  0  0  0  0  0  0  0
   17.3492   -8.2496  -15.1901 C   0  0  0  0  0  0  0  0  0  0  0  0
   16.7109   -7.7272  -14.2241 O   0  0  0  0  0  0  0  0  0  0  0  0
   18.5136   -7.5785  -15.5878 N   0  0  0  0  0  0  0  0  0  0  0  0
   18.9559   -6.3498  -14.9257 C   0  0  1  0  0  0  0  0  0  0  0  0
   20.4205   -6.3121  -14.7420 C   0  0  0  0  0  0  0  0  0  0  0  0
   20.8553   -5.0726  -14.0180 C   0  0  0  0  0  0  0  0  0  0  0  0
   22.3528   -5.0744  -13.8138 C   0  0  0  0  0  0  0  0  0  0  0  0
   22.7668   -5.1696  -12.6437 O   0  0  0  0  0  0  0  0  0  0  0  0
   18.4392   -5.1710  -15.6368 C   0  0  0  0  0  0  0  0  0  0  0  0
   18.5105   -4.9785  -16.8658 O   0  0  0  0  0  0  0  0  0  0  0  0
   23.2517   -4.9770  -14.8505 O   0  0  0  0  0  0  0  0  0  0  0  0
   17.7858   -4.1189  -14.8958 N   0  0  0  0  0  0  0  0  0  0  0  0
   17.3750   -2.8646  -15.5459 C   0  0  1  0  0  0  0  0  0  0  0  0
   16.0399   -2.5280  -14.9782 C   0  0  0  0  0  0  0  0  0  0  0  0
   15.4294   -1.2796  -15.4226 C   0  0  0  0  0  0  0  0  0  0  0  0
   16.1123   -0.5892  -16.2583 O   0  0  0  0  0  0  0  0  0  0  0  0
   18.4178   -1.8289  -15.3188 C   0  0  0  0  0  0  0  0  0  0  0  0
   19.0922   -1.2730  -16.3839 O   0  0  0  0  0  0  0  0  0  0  0  0
   14.2223   -0.7496  -15.0613 O   0  0  0  0  0  0  0  0  0  0  0  0
   18.7373   -1.4113  -14.1725 O   0  0  0  0  0  0  0  0  0  0  0  0
  2  4  1  0
  2  1  1  0
  3  2  2  0
  5  6  1  0
  5  4  1  0
  6  7  1  6
  6  8  1  0
  8  9  2  0
 10  8  1  0
 10 11  1  0
 11 16  1  0
 11 12  1  6
 13 12  1  0
 13 14  1  0
 14 15  2  0
 16 17  2  0
 18 14  1  0
 19 20  1  0
 19 16  1  0
 20 24  1  0
 20 21  1  1
 22 21  1  0
 23 22  2  0
 24 27  2  0
 24 25  1  0
 26 22  1  0
M  END
$$$$
