QED.pdb
     RDKit          3D

 27 26  0  0  1  0  0  0  0  0999 V2000
   15.4834  -14.2758  -17.1051 N   0  0  0  0  0  0  0  0  0  0  0  0
   16.8351  -14.6050  -16.7663 C   0  0  0  0  0  0  0  0  0  0  0  0
   17.1790  -15.7916  -16.9404 O   0  0  0  0  0  0  0  0  0  0  0  0
   17.7396  -13.5882  -16.2421 C   0  0  0  0  0  0  0  0  0  0  0  0
   18.8702  -13.2624  -17.1667 C   0  0  0  0  0  0  0  0  0  0  0  0
   19.8145  -12.2480  -16.6286 C   0  0  2  0  0  0  0  0  0  0  0  0
   20.4257  -12.5546  -15.3717 N   0  0  0  0  0  0  0  0  0  0  0  0
   19.1437  -10.8961  -16.5874 C   0  0  0  0  0  0  0  0  0  0  0  0
   18.8700  -10.2972  -17.6735 O   0  0  0  0  0  0  0  0  0  0  0  0
   18.7843  -10.2241  -15.4110 N   0  0  0  0  0  0  0  0  0  0  0  0
   18.1773   -8.8921  -15.4425 C   0  0  1  0  0  0  0  0  0  0  0  0
   16.7996   -8.8949  -14.9114 C   0  0  0  0  0  0  0  0  0  0  0  0
   15.8100   -9.3479  -15.9436 C   0  0  0  0  0  0  0  0  0  0  0  0
   14.4086   -9.3337  -15.3780 C   0  0  0  0  0  0  0  0  0  0  0  0
   13.9868  -10.3927  -14.8778 O   0  0  0  0  0  0  0  0  0  0  0  0
   19.0473   -7.9175  -14.7676 C   0  0  0  0  0  0  0  0  0  0  0  0
   19.9563   -8.1950  -13.9619 O   0  0  0  0  0  0  0  0  0  0  0  0
   13.6031   -8.2187  -15.3963 O   0  0  0  0  0  0  0  0  0  0  0  0
   18.8756   -6.5077  -15.0248 N   0  0  0  0  0  0  0  0  0  0  0  0
   19.7610   -5.5036  -14.4145 C   0  0  1  0  0  0  0  0  0  0  0  0
   21.1443   -5.8780  -14.8197 C   0  0  0  0  0  0  0  0  0  0  0  0
   22.2202   -4.9898  -14.3930 C   0  0  0  0  0  0  0  0  0  0  0  0
   21.8654   -3.9771  -13.6931 O   0  0  0  0  0  0  0  0  0  0  0  0
   19.3391   -4.1462  -14.8514 C   0  0  0  0  0  0  0  0  0  0  0  0
   19.4355   -3.0750  -13.9902 O   0  0  0  0  0  0  0  0  0  0  0  0
   23.5595   -5.0972  -14.6448 O   0  0  0  0  0  0  0  0  0  0  0  0
   18.8815   -3.9026  -16.0011 O   0  0  0  0  0  0  0  0  0  0  0  0
  2  4  1  0
  2  1  1  0
  3  2  2  0
  5  6  1  0
  5  4  1  0
  6  7  1  1
  6  8  1  0
  8  9  2  0
 10  8  1  0
 10 11  1  0
 11 16  1  0
 11 12  1  1
 13 12  1  0
 13 14  1  0
 14 15  2  0
 16 17  2  0
 18 14  1  0
 19 20  1  0
 19 16  1  0
 20 24  1  0
 20 21  1  6
 22 21  1  0
 23 22  2  0
 24 27  2  0
 24 25  1  0
 26 22  1  0
M  END
$$$$
