QED.pdb
     RDKit          3D

 27 26  0  0  1  0  0  0  0  0999 V2000
   16.8252  -13.8504  -13.0172 N   0  0  0  0  0  0  0  0  0  0  0  0
   17.2896  -14.2581  -14.3089 C   0  0  0  0  0  0  0  0  0  0  0  0
   17.5438  -15.4712  -14.4514 O   0  0  0  0  0  0  0  0  0  0  0  0
   17.4527  -13.2845  -15.3824 C   0  0  0  0  0  0  0  0  0  0  0  0
   17.1036  -11.8868  -14.9774 C   0  0  0  0  0  0  0  0  0  0  0  0
   17.2896  -10.8829  -16.0582 C   0  0  2  0  0  0  0  0  0  0  0  0
   17.4652  -11.4002  -17.3806 N   0  0  0  0  0  0  0  0  0  0  0  0
   18.4115   -9.9409  -15.6934 C   0  0  0  0  0  0  0  0  0  0  0  0
   18.4638   -9.4492  -14.5233 O   0  0  0  0  0  0  0  0  0  0  0  0
   19.4361   -9.5510  -16.5668 N   0  0  0  0  0  0  0  0  0  0  0  0
   20.4390   -8.5573  -16.1791 C   0  0  1  0  0  0  0  0  0  0  0  0
   21.7696   -8.8592  -16.7433 C   0  0  0  0  0  0  0  0  0  0  0  0
   22.8146   -7.9121  -16.2328 C   0  0  0  0  0  0  0  0  0  0  0  0
   24.1469   -8.1857  -16.8917 C   0  0  0  0  0  0  0  0  0  0  0  0
   25.0813   -7.4060  -16.6300 O   0  0  0  0  0  0  0  0  0  0  0  0
   19.9721   -7.2029  -16.5109 C   0  0  0  0  0  0  0  0  0  0  0  0
   19.2203   -6.9090  -17.4602 O   0  0  0  0  0  0  0  0  0  0  0  0
   24.3575   -9.2405  -17.7493 O   0  0  0  0  0  0  0  0  0  0  0  0
   20.3906   -6.0842  -15.7009 N   0  0  0  0  0  0  0  0  0  0  0  0
   19.8965   -4.7228  -15.9600 C   0  0  1  0  0  0  0  0  0  0  0  0
   18.4109   -4.8092  -15.9028 C   0  0  0  0  0  0  0  0  0  0  0  0
   17.6738   -3.5514  -15.9626 C   0  0  0  0  0  0  0  0  0  0  0  0
   18.1011   -2.6923  -16.8115 O   0  0  0  0  0  0  0  0  0  0  0  0
   20.4958   -3.7863  -14.9723 C   0  0  0  0  0  0  0  0  0  0  0  0
   20.6812   -2.4592  -15.2929 O   0  0  0  0  0  0  0  0  0  0  0  0
   16.5859   -3.1697  -15.2282 O   0  0  0  0  0  0  0  0  0  0  0  0
   20.8593   -4.1410  -13.8178 O   0  0  0  0  0  0  0  0  0  0  0  0
  2  4  1  0
  2  1  1  0
  3  2  2  0
  5  6  1  0
  5  4  1  0
  6  7  1  6
  6  8  1  0
  8  9  2  0
 10  8  1  0
 10 11  1  0
 11 16  1  0
 11 12  1  6
 13 12  1  0
 13 14  1  0
 14 15  2  0
 16 17  2  0
 18 14  1  0
 19 20  1  0
 19 16  1  0
 20 24  1  0
 20 21  1  1
 22 21  1  0
 23 22  2  0
 24 27  2  0
 24 25  1  0
 26 22  1  0
M  END
$$$$
