QED.pdb
     RDKit          3D

 27 26  0  0  1  0  0  0  0  0999 V2000
   17.1688  -12.5468  -17.0126 N   0  0  0  0  0  0  0  0  0  0  0  0
   16.3124  -13.2305  -16.0910 C   0  0  0  0  0  0  0  0  0  0  0  0
   16.2090  -14.4651  -16.2387 O   0  0  0  0  0  0  0  0  0  0  0  0
   15.6059  -12.4969  -15.0472 C   0  0  0  0  0  0  0  0  0  0  0  0
   15.8072  -11.0158  -15.1192 C   0  0  0  0  0  0  0  0  0  0  0  0
   17.1003  -10.5557  -14.5477 C   0  0  2  0  0  0  0  0  0  0  0  0
   17.5559  -11.2414  -13.3775 N   0  0  0  0  0  0  0  0  0  0  0  0
   17.0553   -9.0645  -14.3167 C   0  0  0  0  0  0  0  0  0  0  0  0
   16.4885   -8.3132  -15.1698 O   0  0  0  0  0  0  0  0  0  0  0  0
   17.6042   -8.4173  -13.2011 N   0  0  0  0  0  0  0  0  0  0  0  0
   17.6167   -6.9575  -13.0892 C   0  0  1  0  0  0  0  0  0  0  0  0
   17.8666   -6.5069  -11.7055 C   0  0  0  0  0  0  0  0  0  0  0  0
   16.6392   -6.6328  -10.8527 C   0  0  0  0  0  0  0  0  0  0  0  0
   16.8494   -5.9585   -9.5165 C   0  0  0  0  0  0  0  0  0  0  0  0
   15.9064   -5.9986   -8.7050 O   0  0  0  0  0  0  0  0  0  0  0  0
   18.5597   -6.3784  -14.0574 C   0  0  0  0  0  0  0  0  0  0  0  0
   19.6932   -6.8247  -14.3194 O   0  0  0  0  0  0  0  0  0  0  0  0
   18.0177   -5.3178   -9.1747 O   0  0  0  0  0  0  0  0  0  0  0  0
   18.1908   -5.1927  -14.7930 N   0  0  0  0  0  0  0  0  0  0  0  0
   19.0655   -4.6344  -15.8360 C   0  0  1  0  0  0  0  0  0  0  0  0
   19.2243   -5.7089  -16.8549 C   0  0  0  0  0  0  0  0  0  0  0  0
   19.8756   -5.3400  -18.1072 C   0  0  0  0  0  0  0  0  0  0  0  0
   19.0942   -5.0501  -19.0801 O   0  0  0  0  0  0  0  0  0  0  0  0
   18.4672   -3.3768  -16.3576 C   0  0  0  0  0  0  0  0  0  0  0  0
   17.2992   -2.8839  -15.8182 O   0  0  0  0  0  0  0  0  0  0  0  0
   21.2134   -5.2648  -18.3779 O   0  0  0  0  0  0  0  0  0  0  0  0
   18.9779   -2.7076  -17.2968 O   0  0  0  0  0  0  0  0  0  0  0  0
  2  4  1  0
  2  1  1  0
  3  2  2  0
  5  6  1  0
  5  4  1  0
  6  7  1  1
  6  8  1  0
  8  9  2  0
 10  8  1  0
 10 11  1  0
 11 16  1  0
 11 12  1  1
 13 12  1  0
 13 14  1  0
 14 15  2  0
 16 17  2  0
 18 14  1  0
 19 20  1  0
 19 16  1  0
 20 24  1  0
 20 21  1  6
 22 21  1  0
 23 22  2  0
 24 27  2  0
 24 25  1  0
 26 22  1  0
M  END
$$$$
