QED.pdb
     RDKit          3D

 27 26  0  0  1  0  0  0  0  0999 V2000
   16.3492  -13.2136  -14.1958 N   0  0  0  0  0  0  0  0  0  0  0  0
   17.4470  -13.7158  -14.9659 C   0  0  0  0  0  0  0  0  0  0  0  0
   17.4623  -14.9455  -15.1766 O   0  0  0  0  0  0  0  0  0  0  0  0
   18.4818  -12.8156  -15.4613 C   0  0  0  0  0  0  0  0  0  0  0  0
   18.2782  -11.3907  -15.0518 C   0  0  0  0  0  0  0  0  0  0  0  0
   18.6685  -10.4037  -16.0929 C   0  0  2  0  0  0  0  0  0  0  0  0
   19.4027  -10.9163  -17.2089 N   0  0  0  0  0  0  0  0  0  0  0  0
   19.3968   -9.2465  -15.4529 C   0  0  0  0  0  0  0  0  0  0  0  0
   18.9026   -8.6829  -14.4274 O   0  0  0  0  0  0  0  0  0  0  0  0
   20.6148   -8.7249  -15.9101 N   0  0  0  0  0  0  0  0  0  0  0  0
   21.2839   -7.6198  -15.2210 C   0  0  1  0  0  0  0  0  0  0  0  0
   22.7128   -7.8995  -14.9760 C   0  0  0  0  0  0  0  0  0  0  0  0
   23.3966   -8.4072  -16.2107 C   0  0  0  0  0  0  0  0  0  0  0  0
   24.8880   -8.5086  -15.9884 C   0  0  0  0  0  0  0  0  0  0  0  0
   25.6249   -8.2876  -16.9669 O   0  0  0  0  0  0  0  0  0  0  0  0
   21.0648   -6.3584  -15.9443 C   0  0  0  0  0  0  0  0  0  0  0  0
   20.7298   -6.2589  -17.1404 O   0  0  0  0  0  0  0  0  0  0  0  0
   25.4454   -8.8286  -14.7722 O   0  0  0  0  0  0  0  0  0  0  0  0
   21.2395   -5.1011  -15.2576 N   0  0  0  0  0  0  0  0  0  0  0  0
   20.9258   -3.8207  -15.9109 C   0  0  1  0  0  0  0  0  0  0  0  0
   19.4615   -3.8477  -16.1815 C   0  0  0  0  0  0  0  0  0  0  0  0
   18.8617   -2.6189  -16.6903 C   0  0  0  0  0  0  0  0  0  0  0  0
   19.5215   -2.0112  -17.6050 O   0  0  0  0  0  0  0  0  0  0  0  0
   21.3685   -2.7018  -15.0371 C   0  0  0  0  0  0  0  0  0  0  0  0
   22.4023   -1.8789  -15.4275 O   0  0  0  0  0  0  0  0  0  0  0  0
   17.6860   -2.0303  -16.3162 O   0  0  0  0  0  0  0  0  0  0  0  0
   20.8401   -2.4479  -13.9204 O   0  0  0  0  0  0  0  0  0  0  0  0
  2  4  1  0
  2  1  1  0
  3  2  2  0
  5  6  1  0
  5  4  1  0
  6  7  1  6
  6  8  1  0
  8  9  2  0
 10  8  1  0
 10 11  1  0
 11 16  1  0
 11 12  1  6
 13 12  1  0
 13 14  1  0
 14 15  2  0
 16 17  2  0
 18 14  1  0
 19 20  1  0
 19 16  1  0
 20 24  1  0
 20 21  1  1
 22 21  1  0
 23 22  2  0
 24 27  2  0
 24 25  1  0
 26 22  1  0
M  END
$$$$
