QED.pdb
     RDKit          3D

 27 26  0  0  1  0  0  0  0  0999 V2000
   16.1553  -14.9893  -14.2081 N   0  0  0  0  0  0  0  0  0  0  0  0
   16.6236  -15.0493  -15.5599 C   0  0  0  0  0  0  0  0  0  0  0  0
   16.8153  -16.1880  -16.0323 O   0  0  0  0  0  0  0  0  0  0  0  0
   16.8608  -13.8275  -16.3201 C   0  0  0  0  0  0  0  0  0  0  0  0
   16.6094  -12.5788  -15.5348 C   0  0  0  0  0  0  0  0  0  0  0  0
   16.9281  -11.3287  -16.2739 C   0  0  2  0  0  0  0  0  0  0  0  0
   16.9821  -11.4316  -17.7000 N   0  0  0  0  0  0  0  0  0  0  0  0
   18.1980  -10.7216  -15.7279 C   0  0  0  0  0  0  0  0  0  0  0  0
   18.3300  -10.5625  -14.4746 O   0  0  0  0  0  0  0  0  0  0  0  0
   19.2809  -10.3057  -16.5146 N   0  0  0  0  0  0  0  0  0  0  0  0
   20.5283   -9.8295  -15.9139 C   0  0  1  0  0  0  0  0  0  0  0  0
   21.7154  -10.4748  -16.5094 C   0  0  0  0  0  0  0  0  0  0  0  0
   21.9805   -9.9717  -17.8973 C   0  0  0  0  0  0  0  0  0  0  0  0
   23.2162  -10.6250  -18.4720 C   0  0  0  0  0  0  0  0  0  0  0  0
   23.0892  -11.2290  -19.5530 O   0  0  0  0  0  0  0  0  0  0  0  0
   20.5918   -8.3612  -15.9628 C   0  0  0  0  0  0  0  0  0  0  0  0
   20.1498   -7.6481  -16.8841 O   0  0  0  0  0  0  0  0  0  0  0  0
   24.4458  -10.5763  -17.8572 O   0  0  0  0  0  0  0  0  0  0  0  0
   21.2077   -7.6359  -14.8777 N   0  0  0  0  0  0  0  0  0  0  0  0
   21.3306   -6.1701  -14.9076 C   0  0  1  0  0  0  0  0  0  0  0  0
   21.5262   -5.7472  -13.4931 C   0  0  0  0  0  0  0  0  0  0  0  0
   21.6688   -4.3164  -13.2458 C   0  0  0  0  0  0  0  0  0  0  0  0
   22.8622   -3.9013  -13.0344 O   0  0  0  0  0  0  0  0  0  0  0  0
   22.4398   -5.7885  -15.8218 C   0  0  0  0  0  0  0  0  0  0  0  0
   22.3677   -4.6269  -16.5591 O   0  0  0  0  0  0  0  0  0  0  0  0
   20.6926   -3.3601  -13.2088 O   0  0  0  0  0  0  0  0  0  0  0  0
   23.4804   -6.4850  -15.9721 O   0  0  0  0  0  0  0  0  0  0  0  0
  2  4  1  0
  2  1  1  0
  3  2  2  0
  5  6  1  0
  5  4  1  0
  6  7  1  6
  6  8  1  0
  8  9  2  0
 10  8  1  0
 10 11  1  0
 11 16  1  0
 11 12  1  6
 13 12  1  0
 13 14  1  0
 14 15  2  0
 16 17  2  0
 18 14  1  0
 19 20  1  0
 19 16  1  0
 20 24  1  0
 20 21  1  1
 22 21  1  0
 23 22  2  0
 24 27  2  0
 24 25  1  0
 26 22  1  0
M  END
$$$$
