QED.pdb
     RDKit          3D

 27 26  0  0  1  0  0  0  0  0999 V2000
   11.5504  -10.2104  -15.9767 N   0  0  0  0  0  0  0  0  0  0  0  0
   11.6773  -11.4312  -15.2393 C   0  0  0  0  0  0  0  0  0  0  0  0
   10.6455  -11.8521  -14.6782 O   0  0  0  0  0  0  0  0  0  0  0  0
   12.9587  -12.1231  -15.1605 C   0  0  0  0  0  0  0  0  0  0  0  0
   14.0748  -11.3890  -15.8347 C   0  0  0  0  0  0  0  0  0  0  0  0
   15.2327  -11.1063  -14.9459 C   0  0  2  0  0  0  0  0  0  0  0  0
   14.9944  -11.2181  -13.5395 N   0  0  0  0  0  0  0  0  0  0  0  0
   15.8231   -9.7597  -15.2882 C   0  0  0  0  0  0  0  0  0  0  0  0
   16.2236   -9.5317  -16.4719 O   0  0  0  0  0  0  0  0  0  0  0  0
   15.9704   -8.7034  -14.3787 N   0  0  0  0  0  0  0  0  0  0  0  0
   16.6444   -7.4580  -14.7508 C   0  0  1  0  0  0  0  0  0  0  0  0
   15.9550   -6.2688  -14.2117 C   0  0  0  0  0  0  0  0  0  0  0  0
   15.0303   -5.6595  -15.2233 C   0  0  0  0  0  0  0  0  0  0  0  0
   14.3581   -4.4305  -14.6561 C   0  0  0  0  0  0  0  0  0  0  0  0
   14.2231   -3.4544  -15.4166 O   0  0  0  0  0  0  0  0  0  0  0  0
   18.0651   -7.5134  -14.3757 C   0  0  0  0  0  0  0  0  0  0  0  0
   18.6349   -8.4836  -13.8403 O   0  0  0  0  0  0  0  0  0  0  0  0
   13.9014   -4.3552  -13.3607 O   0  0  0  0  0  0  0  0  0  0  0  0
   18.9156   -6.3746  -14.6266 N   0  0  0  0  0  0  0  0  0  0  0  0
   20.3410   -6.3873  -14.2625 C   0  0  1  0  0  0  0  0  0  0  0  0
   20.9331   -7.5570  -14.9689 C   0  0  0  0  0  0  0  0  0  0  0  0
   22.3767   -7.7352  -14.8551 C   0  0  0  0  0  0  0  0  0  0  0  0
   23.0024   -7.9483  -15.9526 O   0  0  0  0  0  0  0  0  0  0  0  0
   20.9514   -5.0795  -14.6213 C   0  0  0  0  0  0  0  0  0  0  0  0
   21.8566   -4.4768  -13.7753 O   0  0  0  0  0  0  0  0  0  0  0  0
   23.1492   -7.7056  -13.7277 O   0  0  0  0  0  0  0  0  0  0  0  0
   20.6842   -4.4631  -15.6887 O   0  0  0  0  0  0  0  0  0  0  0  0
  2  4  1  0
  2  1  1  0
  3  2  2  0
  5  6  1  0
  5  4  1  0
  6  7  1  1
  6  8  1  0
  8  9  2  0
 10  8  1  0
 10 11  1  0
 11 16  1  0
 11 12  1  1
 13 12  1  0
 13 14  1  0
 14 15  2  0
 16 17  2  0
 18 14  1  0
 19 20  1  0
 19 16  1  0
 20 24  1  0
 20 21  1  6
 22 21  1  0
 23 22  2  0
 24 27  2  0
 24 25  1  0
 26 22  1  0
M  END
$$$$
