QED.pdb
     RDKit          3D

 27 26  0  0  1  0  0  0  0  0999 V2000
   28.4053  -17.4696  -19.9651 N   0  0  0  0  0  0  0  0  0  0  0  0
   27.8195  -16.1674  -19.8579 C   0  0  0  0  0  0  0  0  0  0  0  0
   28.2104  -15.3123  -20.6781 O   0  0  0  0  0  0  0  0  0  0  0  0
   26.8242  -15.8815  -18.8310 C   0  0  0  0  0  0  0  0  0  0  0  0
   25.4145  -15.9882  -19.3213 C   0  0  0  0  0  0  0  0  0  0  0  0
   24.3970  -15.9666  -18.2374 C   0  0  2  0  0  0  0  0  0  0  0  0
   24.6482  -15.0713  -17.1500 N   0  0  0  0  0  0  0  0  0  0  0  0
   24.1538  -17.3698  -17.7365 C   0  0  0  0  0  0  0  0  0  0  0  0
   23.7662  -18.2680  -18.5468 O   0  0  0  0  0  0  0  0  0  0  0  0
   24.3269  -17.7791  -16.4072 N   0  0  0  0  0  0  0  0  0  0  0  0
   24.1369  -19.1731  -16.0019 C   0  0  1  0  0  0  0  0  0  0  0  0
   25.3647  -19.7587  -15.4277 C   0  0  0  0  0  0  0  0  0  0  0  0
   25.8798  -20.8926  -16.2636 C   0  0  0  0  0  0  0  0  0  0  0  0
   27.1679  -21.4344  -15.6879 C   0  0  0  0  0  0  0  0  0  0  0  0
   27.5625  -20.9418  -14.6151 O   0  0  0  0  0  0  0  0  0  0  0  0
   22.9755  -19.2921  -15.1079 C   0  0  0  0  0  0  0  0  0  0  0  0
   22.7884  -18.6255  -14.0719 O   0  0  0  0  0  0  0  0  0  0  0  0
   27.9010  -22.4285  -16.2935 O   0  0  0  0  0  0  0  0  0  0  0  0
   21.9358  -20.2466  -15.4100 N   0  0  0  0  0  0  0  0  0  0  0  0
   20.7343  -20.3633  -14.5690 C   0  0  1  0  0  0  0  0  0  0  0  0
   20.1318  -19.0020  -14.5255 C   0  0  0  0  0  0  0  0  0  0  0  0
   18.8015  -18.8876  -13.9374 C   0  0  0  0  0  0  0  0  0  0  0  0
   18.5985  -19.5737  -12.8747 O   0  0  0  0  0  0  0  0  0  0  0  0
   19.8420  -21.4124  -15.1299 C   0  0  0  0  0  0  0  0  0  0  0  0
   20.1655  -22.0452  -16.3103 O   0  0  0  0  0  0  0  0  0  0  0  0
   17.7415  -18.1433  -14.3747 O   0  0  0  0  0  0  0  0  0  0  0  0
   18.7683  -21.7736  -14.5754 O   0  0  0  0  0  0  0  0  0  0  0  0
  2  4  1  0
  2  1  1  0
  3  2  2  0
  5  6  1  0
  5  4  1  0
  6  7  1  1
  6  8  1  0
  8  9  2  0
 10  8  1  0
 10 11  1  0
 11 16  1  0
 11 12  1  1
 13 12  1  0
 13 14  1  0
 14 15  2  0
 16 17  2  0
 18 14  1  0
 19 20  1  0
 19 16  1  0
 20 24  1  0
 20 21  1  6
 22 21  1  0
 23 22  2  0
 24 27  2  0
 24 25  1  0
 26 22  1  0
M  END
$$$$
