QED.pdb
     RDKit          3D

 27 26  0  0  1  0  0  0  0  0999 V2000
   27.8224  -16.6084  -15.9275 N   0  0  0  0  0  0  0  0  0  0  0  0
   28.2798  -17.0770  -17.2009 C   0  0  0  0  0  0  0  0  0  0  0  0
   29.1649  -16.3973  -17.7587 O   0  0  0  0  0  0  0  0  0  0  0  0
   27.7195  -18.2858  -17.7940 C   0  0  0  0  0  0  0  0  0  0  0  0
   26.8320  -19.0503  -16.8628 C   0  0  0  0  0  0  0  0  0  0  0  0
   27.5251  -20.1456  -16.1345 C   0  0  2  0  0  0  0  0  0  0  0  0
   28.1066  -21.1745  -16.9410 N   0  0  0  0  0  0  0  0  0  0  0  0
   26.6016  -20.7322  -15.0941 C   0  0  0  0  0  0  0  0  0  0  0  0
   26.0225  -21.8398  -15.3207 O   0  0  0  0  0  0  0  0  0  0  0  0
   26.3209  -20.1374  -13.8563 N   0  0  0  0  0  0  0  0  0  0  0  0
   25.3772  -20.7384  -12.9120 C   0  0  1  0  0  0  0  0  0  0  0  0
   25.8109  -20.5742  -11.5102 C   0  0  0  0  0  0  0  0  0  0  0  0
   24.8819  -21.2683  -10.5589 C   0  0  0  0  0  0  0  0  0  0  0  0
   25.3530  -21.0934   -9.1336 C   0  0  0  0  0  0  0  0  0  0  0  0
   24.5724  -21.4444   -8.2298 O   0  0  0  0  0  0  0  0  0  0  0  0
   24.0188  -20.2294  -13.1527 C   0  0  0  0  0  0  0  0  0  0  0  0
   23.6937  -19.0274  -13.1968 O   0  0  0  0  0  0  0  0  0  0  0  0
   26.5842  -20.5728   -8.8087 O   0  0  0  0  0  0  0  0  0  0  0  0
   22.9340  -21.1583  -13.3612 N   0  0  0  0  0  0  0  0  0  0  0  0
   21.5543  -20.6915  -13.5690 C   0  0  1  0  0  0  0  0  0  0  0  0
   20.8130  -21.8490  -14.1423 C   0  0  0  0  0  0  0  0  0  0  0  0
   19.3971  -21.6482  -14.4313 C   0  0  0  0  0  0  0  0  0  0  0  0
   18.9308  -20.4854  -14.1635 O   0  0  0  0  0  0  0  0  0  0  0  0
   21.0066  -20.1884  -12.2811 C   0  0  0  0  0  0  0  0  0  0  0  0
   21.2093  -20.8926  -11.1143 O   0  0  0  0  0  0  0  0  0  0  0  0
   18.5019  -22.5416  -14.9500 O   0  0  0  0  0  0  0  0  0  0  0  0
   20.3437  -19.1199  -12.1839 O   0  0  0  0  0  0  0  0  0  0  0  0
  2  4  1  0
  2  1  1  0
  3  2  2  0
  5  6  1  0
  5  4  1  0
  6  7  1  6
  6  8  1  0
  8  9  2  0
 10  8  1  0
 10 11  1  0
 11 16  1  0
 11 12  1  1
 13 12  1  0
 13 14  1  0
 14 15  2  0
 16 17  2  0
 18 14  1  0
 19 20  1  0
 19 16  1  0
 20 24  1  0
 20 21  1  1
 22 21  1  0
 23 22  2  0
 24 27  2  0
 24 25  1  0
 26 22  1  0
M  END
$$$$
