QED.pdb
     RDKit          3D

 27 26  0  0  1  0  0  0  0  0999 V2000
   16.4610  -12.7563  -11.4338 N   0  0  0  0  0  0  0  0  0  0  0  0
   15.1702  -13.3156  -11.1669 C   0  0  0  0  0  0  0  0  0  0  0  0
   15.1079  -14.5593  -11.0896 O   0  0  0  0  0  0  0  0  0  0  0  0
   14.0052  -12.4537  -11.0033 C   0  0  0  0  0  0  0  0  0  0  0  0
   14.3097  -10.9996  -11.1829 C   0  0  0  0  0  0  0  0  0  0  0  0
   13.8523  -10.1452  -10.0554 C   0  0  2  0  0  0  0  0  0  0  0  0
   12.4412  -10.1052   -9.8223 N   0  0  0  0  0  0  0  0  0  0  0  0
   14.4139   -8.7522  -10.2090 C   0  0  0  0  0  0  0  0  0  0  0  0
   13.8486   -7.9299  -10.9950 O   0  0  0  0  0  0  0  0  0  0  0  0
   15.5447   -8.2735   -9.5332 N   0  0  0  0  0  0  0  0  0  0  0  0
   16.1389   -6.9746   -9.8548 C   0  0  1  0  0  0  0  0  0  0  0  0
   15.9390   -5.9877   -8.7749 C   0  0  0  0  0  0  0  0  0  0  0  0
   14.5423   -5.4411   -8.7767 C   0  0  0  0  0  0  0  0  0  0  0  0
   14.3881   -4.3739   -7.7178 C   0  0  0  0  0  0  0  0  0  0  0  0
   14.6039   -3.1970   -8.0612 O   0  0  0  0  0  0  0  0  0  0  0  0
   17.5525   -7.1366  -10.2258 C   0  0  0  0  0  0  0  0  0  0  0  0
   18.3216   -8.0105   -9.7816 O   0  0  0  0  0  0  0  0  0  0  0  0
   14.0265   -4.6512   -6.4199 O   0  0  0  0  0  0  0  0  0  0  0  0
   18.1489   -6.2334  -11.1806 N   0  0  0  0  0  0  0  0  0  0  0  0
   19.5044   -6.4590  -11.7061 C   0  0  1  0  0  0  0  0  0  0  0  0
   19.5260   -7.8669  -12.1909 C   0  0  0  0  0  0  0  0  0  0  0  0
   20.7472   -8.3199  -12.8484 C   0  0  0  0  0  0  0  0  0  0  0  0
   21.7280   -7.4958  -12.8362 O   0  0  0  0  0  0  0  0  0  0  0  0
   19.8010   -5.4445  -12.7523 C   0  0  0  0  0  0  0  0  0  0  0  0
   21.0637   -4.9042  -12.8620 O   0  0  0  0  0  0  0  0  0  0  0  0
   20.9804   -9.5107  -13.4780 O   0  0  0  0  0  0  0  0  0  0  0  0
   18.9400   -5.0306  -13.5757 O   0  0  0  0  0  0  0  0  0  0  0  0
  2  4  1  0
  2  1  1  0
  3  2  2  0
  5  6  1  0
  5  4  1  0
  6  7  1  6
  6  8  1  0
  8  9  2  0
 10  8  1  0
 10 11  1  0
 11 16  1  0
 11 12  1  1
 13 12  1  0
 13 14  1  0
 14 15  2  0
 16 17  2  0
 18 14  1  0
 19 20  1  0
 19 16  1  0
 20 24  1  0
 20 21  1  6
 22 21  1  0
 23 22  2  0
 24 27  2  0
 24 25  1  0
 26 22  1  0
M  END
$$$$
