QED.pdb
     RDKit          3D

 27 26  0  0  1  0  0  0  0  0999 V2000
   16.6948  -12.3616  -12.0862 N   0  0  0  0  0  0  0  0  0  0  0  0
   15.7137  -12.9308  -11.2124 C   0  0  0  0  0  0  0  0  0  0  0  0
   15.6822  -14.1764  -11.1475 O   0  0  0  0  0  0  0  0  0  0  0  0
   14.8078  -12.0762  -10.4535 C   0  0  0  0  0  0  0  0  0  0  0  0
   15.0994  -10.6163  -10.6042 C   0  0  0  0  0  0  0  0  0  0  0  0
   14.2267   -9.7399   -9.7791 C   0  0  2  0  0  0  0  0  0  0  0  0
   12.8171   -9.8762   -9.9831 N   0  0  0  0  0  0  0  0  0  0  0  0
   14.6576   -8.3010   -9.9304 C   0  0  0  0  0  0  0  0  0  0  0  0
   14.2911   -7.6393  -10.9509 O   0  0  0  0  0  0  0  0  0  0  0  0
   15.4544   -7.6098   -9.0073 N   0  0  0  0  0  0  0  0  0  0  0  0
   15.9259   -6.2484   -9.2676 C   0  0  1  0  0  0  0  0  0  0  0  0
   15.6211   -5.3304   -8.1520 C   0  0  0  0  0  0  0  0  0  0  0  0
   14.1617   -4.9881   -8.1004 C   0  0  0  0  0  0  0  0  0  0  0  0
   13.8861   -4.0036   -6.9873 C   0  0  0  0  0  0  0  0  0  0  0  0
   13.0852   -4.3561   -6.1021 O   0  0  0  0  0  0  0  0  0  0  0  0
   17.3526   -6.2605   -9.6236 C   0  0  0  0  0  0  0  0  0  0  0  0
   18.2673   -6.7457   -8.9304 O   0  0  0  0  0  0  0  0  0  0  0  0
   14.4752   -2.7623   -6.9204 O   0  0  0  0  0  0  0  0  0  0  0  0
   17.7832   -5.6737  -10.8699 N   0  0  0  0  0  0  0  0  0  0  0  0
   19.1921   -5.7173  -11.2913 C   0  0  1  0  0  0  0  0  0  0  0  0
   19.5527   -7.1604  -11.3642 C   0  0  0  0  0  0  0  0  0  0  0  0
   20.8473   -7.4884  -11.9516 C   0  0  0  0  0  0  0  0  0  0  0  0
   21.8505   -6.8349  -11.4955 O   0  0  0  0  0  0  0  0  0  0  0  0
   19.3443   -4.9806  -12.5742 C   0  0  0  0  0  0  0  0  0  0  0  0
   18.2337   -4.5624  -13.2743 O   0  0  0  0  0  0  0  0  0  0  0  0
   21.1290   -8.4028  -12.9280 O   0  0  0  0  0  0  0  0  0  0  0  0
   20.4650   -4.7040  -13.0822 O   0  0  0  0  0  0  0  0  0  0  0  0
  2  4  1  0
  2  1  1  0
  3  2  2  0
  5  6  1  0
  5  4  1  0
  6  7  1  6
  6  8  1  0
  8  9  2  0
 10  8  1  0
 10 11  1  0
 11 16  1  0
 11 12  1  1
 13 12  1  0
 13 14  1  0
 14 15  2  0
 16 17  2  0
 18 14  1  0
 19 20  1  0
 19 16  1  0
 20 24  1  0
 20 21  1  6
 22 21  1  0
 23 22  2  0
 24 27  2  0
 24 25  1  0
 26 22  1  0
M  END
$$$$
