LCG.pdb
     RDKit          3D

 19 18  0  0  1  0  0  0  0  0999 V2000
    8.5387  -14.5001   18.9958 C   0  0  0  0  0  0  0  0  0  0  0  0
    7.6466  -13.5413   19.7154 C   0  0  2  0  0  0  0  0  0  0  0  0
    7.5344  -12.2157   19.0127 C   0  0  0  0  0  0  0  0  0  0  0  0
    8.1028  -13.3381   21.1624 C   0  0  0  0  0  0  0  0  0  0  0  0
    8.0180  -14.7194   21.8269 C   0  0  2  0  0  0  0  0  0  0  0  0
    6.6914  -15.2538   21.6975 N   0  0  0  0  0  0  0  0  0  0  0  0
    8.3305  -14.5023   23.2607 C   0  0  0  0  0  0  0  0  0  0  0  0
    9.5113  -14.1906   23.5908 O   0  0  0  0  0  0  0  0  0  0  0  0
    7.4036  -14.6164   24.3085 N   0  0  0  0  0  0  0  0  0  0  0  0
    7.7388  -14.4680   25.6899 C   0  0  1  0  0  0  0  0  0  0  0  0
    6.6561  -13.8240   26.5148 C   0  0  0  0  0  0  0  0  0  0  0  0
    6.0625  -12.2877   25.7673 S   0  0  0  0  0  0  0  0  0  0  0  0
    8.1621  -15.7299   26.3298 C   0  0  0  0  0  0  0  0  0  0  0  0
    7.2949  -16.6283   26.4817 O   0  0  0  0  0  0  0  0  0  0  0  0
    9.4864  -15.9654   26.7728 N   0  0  0  0  0  0  0  0  0  0  0  0
    9.8829  -17.1636   27.4736 C   0  0  0  0  0  0  0  0  0  0  0  0
   11.0022  -17.8106   26.7310 C   0  0  0  0  0  0  0  0  0  0  0  0
   11.8311  -18.7299   27.3150 O   0  0  0  0  0  0  0  0  0  0  0  0
   11.2037  -17.5092   25.5209 O   0  0  0  0  0  0  0  0  0  0  0  0
  2  1  1  6
  3  2  1  0
  4  2  1  0
  4  5  1  0
  5  6  1  1
  7  5  1  0
  7  8  2  0
  9  7  1  0
 10  9  1  0
 10 13  1  0
 10 11  1  1
 12 11  1  0
 13 14  2  0
 13 15  1  0
 15 16  1  0
 17 18  1  0
 17 16  1  0
 19 17  2  0
M  END
$$$$
