LCG.pdb
     RDKit          3D

 19 18  0  0  1  0  0  0  0  0999 V2000
    8.0037  -14.4205   19.2656 C   0  0  0  0  0  0  0  0  0  0  0  0
    7.4123  -13.4560   20.2419 C   0  0  2  0  0  0  0  0  0  0  0  0
    7.3159  -12.0595   19.6903 C   0  0  0  0  0  0  0  0  0  0  0  0
    8.1903  -13.4536   21.5601 C   0  0  0  0  0  0  0  0  0  0  0  0
    8.1662  -14.9034   22.0643 C   0  0  2  0  0  0  0  0  0  0  0  0
    6.8194  -15.3063   22.3579 N   0  0  0  0  0  0  0  0  0  0  0  0
    8.9730  -14.9161   23.3090 C   0  0  0  0  0  0  0  0  0  0  0  0
   10.2028  -14.6262   23.2458 O   0  0  0  0  0  0  0  0  0  0  0  0
    8.4749  -15.2304   24.5831 N   0  0  0  0  0  0  0  0  0  0  0  0
    9.2825  -15.3018   25.7601 C   0  0  1  0  0  0  0  0  0  0  0  0
    8.7410  -14.5097   26.9206 C   0  0  0  0  0  0  0  0  0  0  0  0
    7.9016  -13.0031   26.3757 S   0  0  0  0  0  0  0  0  0  0  0  0
    9.5645  -16.6846   26.1952 C   0  0  0  0  0  0  0  0  0  0  0  0
    8.5946  -17.4813   26.2773 O   0  0  0  0  0  0  0  0  0  0  0  0
   10.8648  -17.1428   26.5191 N   0  0  0  0  0  0  0  0  0  0  0  0
   11.1683  -18.5272   26.7932 C   0  0  0  0  0  0  0  0  0  0  0  0
   11.0959  -18.7564   28.2646 C   0  0  0  0  0  0  0  0  0  0  0  0
   11.3706  -19.9728   28.8287 O   0  0  0  0  0  0  0  0  0  0  0  0
   10.7711  -17.8041   29.0284 O   0  0  0  0  0  0  0  0  0  0  0  0
  2  1  1  6
  3  2  1  0
  4  2  1  0
  4  5  1  0
  5  6  1  1
  7  5  1  0
  7  8  2  0
  9  7  1  0
 10  9  1  0
 10 13  1  0
 10 11  1  1
 12 11  1  0
 13 14  2  0
 13 15  1  0
 15 16  1  0
 17 18  1  0
 17 16  1  0
 19 17  2  0
M  END
$$$$
