LCG.pdb
     RDKit          3D

 19 18  0  0  1  0  0  0  0  0999 V2000
    9.9931  -16.7477   20.2850 C   0  0  0  0  0  0  0  0  0  0  0  0
    9.0790  -16.4648   21.4328 C   0  0  2  0  0  0  0  0  0  0  0  0
    8.1924  -17.6331   21.7686 C   0  0  0  0  0  0  0  0  0  0  0  0
    8.2346  -15.2145   21.1746 C   0  0  0  0  0  0  0  0  0  0  0  0
    7.3374  -15.0517   22.4096 C   0  0  2  0  0  0  0  0  0  0  0  0
    6.3475  -14.0378   22.1760 N   0  0  0  0  0  0  0  0  0  0  0  0
    8.2343  -14.6281   23.5125 C   0  0  0  0  0  0  0  0  0  0  0  0
    8.5062  -13.3996   23.6446 O   0  0  0  0  0  0  0  0  0  0  0  0
    8.8217  -15.4967   24.4456 N   0  0  0  0  0  0  0  0  0  0  0  0
    9.4878  -15.0606   25.6324 C   0  0  1  0  0  0  0  0  0  0  0  0
    8.7131  -14.0439   26.4284 C   0  0  0  0  0  0  0  0  0  0  0  0
    9.5510  -13.6158   27.9730 S   0  0  0  0  0  0  0  0  0  0  0  0
    9.8987  -16.1702   26.5162 C   0  0  0  0  0  0  0  0  0  0  0  0
    8.9931  -16.8851   27.0171 O   0  0  0  0  0  0  0  0  0  0  0  0
   11.2523  -16.4573   26.8177 N   0  0  0  0  0  0  0  0  0  0  0  0
   11.7090  -17.7625   27.2321 C   0  0  0  0  0  0  0  0  0  0  0  0
   11.3323  -17.9766   28.6587 C   0  0  0  0  0  0  0  0  0  0  0  0
   12.2625  -18.2358   29.6286 O   0  0  0  0  0  0  0  0  0  0  0  0
   10.1167  -17.9196   28.9976 O   0  0  0  0  0  0  0  0  0  0  0  0
  2  1  1  6
  3  2  1  0
  4  2  1  0
  4  5  1  0
  5  6  1  6
  7  5  1  0
  7  8  2  0
  9  7  1  0
 10  9  1  0
 10 13  1  0
 10 11  1  1
 12 11  1  0
 13 14  2  0
 13 15  1  0
 15 16  1  0
 17 18  1  0
 17 16  1  0
 19 17  2  0
M  END
$$$$
