LCG.pdb
     RDKit          3D

 19 18  0  0  1  0  0  0  0  0999 V2000
    8.7558  -12.2573   19.1026 C   0  0  0  0  0  0  0  0  0  0  0  0
    8.2145  -13.4509   19.8205 C   0  0  2  0  0  0  0  0  0  0  0  0
    6.7341  -13.6265   19.6177 C   0  0  0  0  0  0  0  0  0  0  0  0
    8.5428  -13.3960   21.3145 C   0  0  0  0  0  0  0  0  0  0  0  0
    8.2571  -14.8026   21.8589 C   0  0  2  0  0  0  0  0  0  0  0  0
    6.9464  -15.2341   21.4609 N   0  0  0  0  0  0  0  0  0  0  0  0
    8.3169  -14.6882   23.3367 C   0  0  0  0  0  0  0  0  0  0  0  0
    9.4347  -14.4789   23.8909 O   0  0  0  0  0  0  0  0  0  0  0  0
    7.2105  -14.7953   24.1937 N   0  0  0  0  0  0  0  0  0  0  0  0
    7.3075  -14.8529   25.6184 C   0  0  1  0  0  0  0  0  0  0  0  0
    6.3628  -13.9229   26.3325 C   0  0  0  0  0  0  0  0  0  0  0  0
    6.2803  -12.3019   25.5344 S   0  0  0  0  0  0  0  0  0  0  0  0
    7.1607  -16.2183   26.1618 C   0  0  0  0  0  0  0  0  0  0  0  0
    6.0636  -16.8057   25.9791 O   0  0  0  0  0  0  0  0  0  0  0  0
    8.1912  -16.8830   26.8702 N   0  0  0  0  0  0  0  0  0  0  0  0
    8.0801  -18.2470   27.3297 C   0  0  0  0  0  0  0  0  0  0  0  0
    9.3148  -18.6053   28.0847 C   0  0  0  0  0  0  0  0  0  0  0  0
    9.4556  -19.8056   28.7271 O   0  0  0  0  0  0  0  0  0  0  0  0
   10.2715  -17.7823   28.1415 O   0  0  0  0  0  0  0  0  0  0  0  0
  2  1  1  6
  3  2  1  0
  4  2  1  0
  4  5  1  0
  5  6  1  1
  7  5  1  0
  7  8  2  0
  9  7  1  0
 10  9  1  0
 10 13  1  0
 10 11  1  1
 12 11  1  0
 13 14  2  0
 13 15  1  0
 15 16  1  0
 17 18  1  0
 17 16  1  0
 19 17  2  0
M  END
$$$$
