LCG.pdb
     RDKit          3D

 19 18  0  0  1  0  0  0  0  0999 V2000
    6.7359  -12.2262   24.8906 C   0  0  0  0  0  0  0  0  0  0  0  0
    6.5134  -12.8334   26.2378 C   0  0  2  0  0  0  0  0  0  0  0  0
    6.9657  -11.9374   27.3587 C   0  0  0  0  0  0  0  0  0  0  0  0
    7.1884  -14.2028   26.3475 C   0  0  0  0  0  0  0  0  0  0  0  0
    6.5930  -15.0557   25.2185 C   0  0  2  0  0  0  0  0  0  0  0  0
    5.5194  -15.8669   25.7202 N   0  0  0  0  0  0  0  0  0  0  0  0
    7.6946  -15.9266   24.7405 C   0  0  0  0  0  0  0  0  0  0  0  0
    7.9098  -17.0239   25.3322 O   0  0  0  0  0  0  0  0  0  0  0  0
    8.5398  -15.6287   23.6603 N   0  0  0  0  0  0  0  0  0  0  0  0
    9.5974  -16.4812   23.2161 C   0  0  1  0  0  0  0  0  0  0  0  0
   10.1129  -16.1483   21.8410 C   0  0  0  0  0  0  0  0  0  0  0  0
    8.7913  -16.1511   20.6063 S   0  0  0  0  0  0  0  0  0  0  0  0
   10.7286  -16.5548   24.1628 C   0  0  0  0  0  0  0  0  0  0  0  0
   11.1925  -15.4726   24.6051 O   0  0  0  0  0  0  0  0  0  0  0  0
   11.3035  -17.7778   24.5862 N   0  0  0  0  0  0  0  0  0  0  0  0
   12.3922  -17.8527   25.5313 C   0  0  0  0  0  0  0  0  0  0  0  0
   11.8849  -18.4297   26.8091 C   0  0  0  0  0  0  0  0  0  0  0  0
   12.3287  -18.0014   28.0309 O   0  0  0  0  0  0  0  0  0  0  0  0
   11.0156  -19.3458   26.7775 O   0  0  0  0  0  0  0  0  0  0  0  0
  2  1  1  6
  3  2  1  0
  4  2  1  0
  4  5  1  0
  5  6  1  1
  7  5  1  0
  7  8  2  0
  9  7  1  0
 10  9  1  0
 10 13  1  0
 10 11  1  6
 12 11  1  0
 13 14  2  0
 13 15  1  0
 15 16  1  0
 17 18  1  0
 17 16  1  0
 19 17  2  0
M  END
$$$$
