LCG.pdb
     RDKit          3D

 19 18  0  0  1  0  0  0  0  0999 V2000
    6.4057  -20.8709   25.7421 C   0  0  0  0  0  0  0  0  0  0  0  0
    6.7458  -20.9693   24.2903 C   0  0  2  0  0  0  0  0  0  0  0  0
    7.7715  -22.0329   24.0066 C   0  0  0  0  0  0  0  0  0  0  0  0
    7.2125  -19.6206   23.7369 C   0  0  0  0  0  0  0  0  0  0  0  0
    6.0812  -18.6283   24.0407 C   0  0  2  0  0  0  0  0  0  0  0  0
    5.0299  -18.7595   23.0712 N   0  0  0  0  0  0  0  0  0  0  0  0
    6.6857  -17.2774   23.9410 C   0  0  0  0  0  0  0  0  0  0  0  0
    7.1379  -16.8885   22.8252 O   0  0  0  0  0  0  0  0  0  0  0  0
    6.8014  -16.3711   25.0065 N   0  0  0  0  0  0  0  0  0  0  0  0
    7.5615  -15.1623   24.9468 C   0  0  1  0  0  0  0  0  0  0  0  0
    7.1414  -14.1268   25.9560 C   0  0  0  0  0  0  0  0  0  0  0  0
    5.3644  -13.7971   25.8842 S   0  0  0  0  0  0  0  0  0  0  0  0
    9.0192  -15.3805   25.0412 C   0  0  0  0  0  0  0  0  0  0  0  0
    9.4729  -15.8417   26.1199 O   0  0  0  0  0  0  0  0  0  0  0  0
    9.9135  -15.0952   23.9809 N   0  0  0  0  0  0  0  0  0  0  0  0
   11.3491  -15.1435   24.1246 C   0  0  0  0  0  0  0  0  0  0  0  0
   11.8865  -16.2276   23.2535 C   0  0  0  0  0  0  0  0  0  0  0  0
   13.0629  -16.0967   22.5664 O   0  0  0  0  0  0  0  0  0  0  0  0
   11.2443  -17.3091   23.1365 O   0  0  0  0  0  0  0  0  0  0  0  0
  2  1  1  1
  3  2  1  0
  4  2  1  0
  4  5  1  0
  5  6  1  6
  7  5  1  0
  7  8  2  0
  9  7  1  0
 10  9  1  0
 10 13  1  0
 10 11  1  1
 12 11  1  0
 13 14  2  0
 13 15  1  0
 15 16  1  0
 17 18  1  0
 17 16  1  0
 19 17  2  0
M  END
$$$$
