LCG.pdb
     RDKit          3D

 19 18  0  0  1  0  0  0  0  0999 V2000
    6.1383  -12.6205   25.7442 C   0  0  0  0  0  0  0  0  0  0  0  0
    6.8458  -13.1664   26.9420 C   0  0  2  0  0  0  0  0  0  0  0  0
    7.6360  -12.1173   27.6760 C   0  0  0  0  0  0  0  0  0  0  0  0
    7.7484  -14.3436   26.5646 C   0  0  0  0  0  0  0  0  0  0  0  0
    6.8671  -15.3056   25.7556 C   0  0  2  0  0  0  0  0  0  0  0  0
    6.4356  -16.3990   26.5807 N   0  0  0  0  0  0  0  0  0  0  0  0
    7.7229  -15.8172   24.6573 C   0  0  0  0  0  0  0  0  0  0  0  0
    8.4487  -16.8320   24.8671 O   0  0  0  0  0  0  0  0  0  0  0  0
    7.7976  -15.2567   23.3727 N   0  0  0  0  0  0  0  0  0  0  0  0
    8.7298  -15.6740   22.3731 C   0  0  1  0  0  0  0  0  0  0  0  0
    8.3135  -15.3280   20.9679 C   0  0  0  0  0  0  0  0  0  0  0  0
    6.6915  -16.0144   20.5567 S   0  0  0  0  0  0  0  0  0  0  0  0
   10.1042  -15.1901   22.6139 C   0  0  0  0  0  0  0  0  0  0  0  0
   10.2709  -13.9521   22.7617 O   0  0  0  0  0  0  0  0  0  0  0  0
   11.2258  -16.0519   22.6841 N   0  0  0  0  0  0  0  0  0  0  0  0
   12.5769  -15.5760   22.8624 C   0  0  0  0  0  0  0  0  0  0  0  0
   13.5082  -16.7399   22.8301 C   0  0  0  0  0  0  0  0  0  0  0  0
   14.8653  -16.5923   22.9284 O   0  0  0  0  0  0  0  0  0  0  0  0
   13.0422  -17.9077   22.7083 O   0  0  0  0  0  0  0  0  0  0  0  0
  2  1  1  6
  3  2  1  0
  4  2  1  0
  4  5  1  0
  5  6  1  1
  7  5  1  0
  7  8  2  0
  9  7  1  0
 10  9  1  0
 10 13  1  0
 10 11  1  6
 12 11  1  0
 13 14  2  0
 13 15  1  0
 15 16  1  0
 17 18  1  0
 17 16  1  0
 19 17  2  0
M  END
$$$$
