LCG.pdb
     RDKit          3D

 19 18  0  0  1  0  0  0  0  0999 V2000
    4.6833  -16.3383   19.8135 C   0  0  0  0  0  0  0  0  0  0  0  0
    5.9525  -17.1248   19.7531 C   0  0  2  0  0  0  0  0  0  0  0  0
    5.7115  -18.6080   19.6762 C   0  0  0  0  0  0  0  0  0  0  0  0
    6.8660  -16.7960   20.9365 C   0  0  0  0  0  0  0  0  0  0  0  0
    7.1124  -15.2823   20.8684 C   0  0  2  0  0  0  0  0  0  0  0  0
    7.8480  -14.9503   19.6806 N   0  0  0  0  0  0  0  0  0  0  0  0
    7.9209  -14.9463   22.0659 C   0  0  0  0  0  0  0  0  0  0  0  0
    9.1818  -14.9176   21.9663 O   0  0  0  0  0  0  0  0  0  0  0  0
    7.3922  -14.6500   23.3319 N   0  0  0  0  0  0  0  0  0  0  0  0
    8.1885  -14.4420   24.5003 C   0  0  1  0  0  0  0  0  0  0  0  0
    7.4163  -13.9090   25.6780 C   0  0  0  0  0  0  0  0  0  0  0  0
    6.4785  -12.4222   25.2526 S   0  0  0  0  0  0  0  0  0  0  0  0
    8.9516  -15.6380   24.9109 C   0  0  0  0  0  0  0  0  0  0  0  0
    8.3139  -16.5872   25.4348 O   0  0  0  0  0  0  0  0  0  0  0  0
   10.3524  -15.7569   24.7406 N   0  0  0  0  0  0  0  0  0  0  0  0
   11.1044  -16.9120   25.1697 C   0  0  0  0  0  0  0  0  0  0  0  0
   12.5560  -16.6544   24.9472 C   0  0  0  0  0  0  0  0  0  0  0  0
   13.5229  -17.5436   25.3317 O   0  0  0  0  0  0  0  0  0  0  0  0
   12.9200  -15.5829   24.3858 O   0  0  0  0  0  0  0  0  0  0  0  0
  2  1  1  1
  3  2  1  0
  4  2  1  0
  4  5  1  0
  5  6  1  6
  7  5  1  0
  7  8  2  0
  9  7  1  0
 10  9  1  0
 10 13  1  0
 10 11  1  1
 12 11  1  0
 13 14  2  0
 13 15  1  0
 15 16  1  0
 17 18  1  0
 17 16  1  0
 19 17  2  0
M  END
$$$$
