LCG.pdb
     RDKit          3D

 19 18  0  0  1  0  0  0  0  0999 V2000
    8.3566  -14.5491   19.8389 C   0  0  0  0  0  0  0  0  0  0  0  0
    7.2045  -13.8841   20.5199 C   0  0  2  0  0  0  0  0  0  0  0  0
    6.9113  -12.5184   19.9609 C   0  0  0  0  0  0  0  0  0  0  0  0
    7.4260  -13.8023   22.0323 C   0  0  0  0  0  0  0  0  0  0  0  0
    8.1778  -15.0845   22.4162 C   0  0  2  0  0  0  0  0  0  0  0  0
    7.2525  -16.0938   22.8492 N   0  0  0  0  0  0  0  0  0  0  0  0
    9.0717  -14.7125   23.5400 C   0  0  0  0  0  0  0  0  0  0  0  0
    9.9633  -13.8352   23.3500 O   0  0  0  0  0  0  0  0  0  0  0  0
    9.0107  -15.2652   24.8287 N   0  0  0  0  0  0  0  0  0  0  0  0
    9.8826  -14.8936   25.8984 C   0  0  1  0  0  0  0  0  0  0  0  0
    9.1642  -14.4686   27.1516 C   0  0  0  0  0  0  0  0  0  0  0  0
   10.2976  -13.7654   28.3732 S   0  0  0  0  0  0  0  0  0  0  0  0
   10.8806  -15.9307   26.2292 C   0  0  0  0  0  0  0  0  0  0  0  0
   10.4781  -16.9586   26.8322 O   0  0  0  0  0  0  0  0  0  0  0  0
   12.2530  -15.8157   25.8993 N   0  0  0  0  0  0  0  0  0  0  0  0
   13.2196  -16.8532   26.1704 C   0  0  0  0  0  0  0  0  0  0  0  0
   14.5574  -16.4063   25.6873 C   0  0  0  0  0  0  0  0  0  0  0  0
   14.7559  -15.1766   25.1201 O   0  0  0  0  0  0  0  0  0  0  0  0
   15.5505  -17.1792   25.7992 O   0  0  0  0  0  0  0  0  0  0  0  0
  2  1  1  6
  3  2  1  0
  4  2  1  0
  4  5  1  0
  5  6  1  1
  7  5  1  0
  7  8  2  0
  9  7  1  0
 10  9  1  0
 10 13  1  0
 10 11  1  1
 12 11  1  0
 13 14  2  0
 13 15  1  0
 15 16  1  0
 17 18  1  0
 17 16  1  0
 19 17  2  0
M  END
$$$$
