LCG.pdb
     RDKit          3D

 19 18  0  0  1  0  0  0  0  0999 V2000
    7.9987  -14.5131   18.0548 C   0  0  0  0  0  0  0  0  0  0  0  0
    7.3993  -13.7890   19.2165 C   0  0  2  0  0  0  0  0  0  0  0  0
    6.8996  -12.4182   18.8492 C   0  0  0  0  0  0  0  0  0  0  0  0
    8.3859  -13.6993   20.3834 C   0  0  0  0  0  0  0  0  0  0  0  0
    8.6697  -15.1478   20.8051 C   0  0  2  0  0  0  0  0  0  0  0  0
    7.4382  -15.8550   21.0183 N   0  0  0  0  0  0  0  0  0  0  0  0
    9.4223  -15.0615   22.0805 C   0  0  0  0  0  0  0  0  0  0  0  0
   10.5501  -14.4881   22.0897 O   0  0  0  0  0  0  0  0  0  0  0  0
    8.9780  -15.5749   23.3090 N   0  0  0  0  0  0  0  0  0  0  0  0
    9.7509  -15.5490   24.5109 C   0  0  1  0  0  0  0  0  0  0  0  0
    8.9246  -15.5966   25.7688 C   0  0  0  0  0  0  0  0  0  0  0  0
    7.1890  -15.9689   25.4219 S   0  0  0  0  0  0  0  0  0  0  0  0
   10.7900  -16.5972   24.5630 C   0  0  0  0  0  0  0  0  0  0  0  0
   10.4300  -17.7630   24.8685 O   0  0  0  0  0  0  0  0  0  0  0  0
   12.1560  -16.3455   24.2868 N   0  0  0  0  0  0  0  0  0  0  0  0
   13.1651  -17.3778   24.2902 C   0  0  0  0  0  0  0  0  0  0  0  0
   14.4749  -16.7754   23.9099 C   0  0  0  0  0  0  0  0  0  0  0  0
   15.6295  -17.5087   23.8616 O   0  0  0  0  0  0  0  0  0  0  0  0
   14.5353  -15.5473   23.6199 O   0  0  0  0  0  0  0  0  0  0  0  0
  2  1  1  6
  3  2  1  0
  4  2  1  0
  4  5  1  0
  5  6  1  1
  7  5  1  0
  7  8  2  0
  9  7  1  0
 10  9  1  0
 10 13  1  0
 10 11  1  1
 12 11  1  0
 13 14  2  0
 13 15  1  0
 15 16  1  0
 17 18  1  0
 17 16  1  0
 19 17  2  0
M  END
$$$$
