LCG.pdb
     RDKit          3D

 19 18  0  0  1  0  0  0  0  0999 V2000
    8.2792  -12.8193   20.9887 C   0  0  0  0  0  0  0  0  0  0  0  0
    7.8133  -14.2390   20.9664 C   0  0  2  0  0  0  0  0  0  0  0  0
    6.3297  -14.3582   20.7466 C   0  0  0  0  0  0  0  0  0  0  0  0
    8.2218  -14.9772   22.2435 C   0  0  0  0  0  0  0  0  0  0  0  0
    9.7334  -14.7544   22.3918 C   0  0  2  0  0  0  0  0  0  0  0  0
   10.4535  -15.6043   21.4854 N   0  0  0  0  0  0  0  0  0  0  0  0
   10.0650  -15.1222   23.7901 C   0  0  0  0  0  0  0  0  0  0  0  0
   10.6820  -16.2046   24.0097 O   0  0  0  0  0  0  0  0  0  0  0  0
    9.7440  -14.3517   24.9185 N   0  0  0  0  0  0  0  0  0  0  0  0
   10.0914  -14.7135   26.2567 C   0  0  1  0  0  0  0  0  0  0  0  0
    9.8120  -13.6371   27.2719 C   0  0  0  0  0  0  0  0  0  0  0  0
   10.1924  -14.1816   28.9542 S   0  0  0  0  0  0  0  0  0  0  0  0
    9.4772  -15.9814   26.7000 C   0  0  0  0  0  0  0  0  0  0  0  0
    8.2403  -16.1254   26.5229 O   0  0  0  0  0  0  0  0  0  0  0  0
   10.2149  -17.0264   27.3078 N   0  0  0  0  0  0  0  0  0  0  0  0
    9.6759  -18.3469   27.5305 C   0  0  0  0  0  0  0  0  0  0  0  0
   10.6852  -19.1644   28.2625 C   0  0  0  0  0  0  0  0  0  0  0  0
   10.3321  -20.0671   29.2288 O   0  0  0  0  0  0  0  0  0  0  0  0
   11.9117  -19.0294   27.9917 O   0  0  0  0  0  0  0  0  0  0  0  0
  2  1  1  1
  3  2  1  0
  4  2  1  0
  4  5  1  0
  5  6  1  6
  7  5  1  0
  7  8  2  0
  9  7  1  0
 10  9  1  0
 10 13  1  0
 10 11  1  1
 12 11  1  0
 13 14  2  0
 13 15  1  0
 15 16  1  0
 17 18  1  0
 17 16  1  0
 19 17  2  0
M  END
$$$$
