LCG.pdb
     RDKit          3D

 19 18  0  0  1  0  0  0  0  0999 V2000
    8.4389  -13.4180   25.8609 C   0  0  0  0  0  0  0  0  0  0  0  0
    7.2282  -12.7494   25.2951 C   0  0  2  0  0  0  0  0  0  0  0  0
    6.4717  -11.9542   26.3243 C   0  0  0  0  0  0  0  0  0  0  0  0
    6.3002  -13.7617   24.6190 C   0  0  0  0  0  0  0  0  0  0  0  0
    7.0765  -14.2995   23.4088 C   0  0  2  0  0  0  0  0  0  0  0  0
    6.1826  -14.9517   22.4934 N   0  0  0  0  0  0  0  0  0  0  0  0
    8.0433  -15.2859   23.9497 C   0  0  0  0  0  0  0  0  0  0  0  0
    7.6044  -16.3090   24.5507 O   0  0  0  0  0  0  0  0  0  0  0  0
    9.4391  -15.1777   23.8486 N   0  0  0  0  0  0  0  0  0  0  0  0
   10.3417  -16.2630   24.0718 C   0  0  1  0  0  0  0  0  0  0  0  0
   11.4799  -16.3223   23.0877 C   0  0  0  0  0  0  0  0  0  0  0  0
   10.8924  -16.5085   21.3873 S   0  0  0  0  0  0  0  0  0  0  0  0
   10.8761  -16.3084   25.4478 C   0  0  0  0  0  0  0  0  0  0  0  0
   11.4480  -15.2779   25.8874 O   0  0  0  0  0  0  0  0  0  0  0  0
   10.7718  -17.4494   26.2801 N   0  0  0  0  0  0  0  0  0  0  0  0
   11.2290  -17.4722   27.6492 C   0  0  0  0  0  0  0  0  0  0  0  0
   10.9898  -18.8299   28.2168 C   0  0  0  0  0  0  0  0  0  0  0  0
   11.3096  -19.1481   29.5090 O   0  0  0  0  0  0  0  0  0  0  0  0
   10.4751  -19.7269   27.4913 O   0  0  0  0  0  0  0  0  0  0  0  0
  2  1  1  1
  3  2  1  0
  4  2  1  0
  4  5  1  0
  5  6  1  6
  7  5  1  0
  7  8  2  0
  9  7  1  0
 10  9  1  0
 10 13  1  0
 10 11  1  6
 12 11  1  0
 13 14  2  0
 13 15  1  0
 15 16  1  0
 17 18  1  0
 17 16  1  0
 19 17  2  0
M  END
$$$$
