LCG.pdb
     RDKit          3D

 19 18  0  0  1  0  0  0  0  0999 V2000
    8.6961  -14.5959   20.1108 C   0  0  0  0  0  0  0  0  0  0  0  0
    7.5592  -13.9334   20.8190 C   0  0  2  0  0  0  0  0  0  0  0  0
    7.0768  -12.6971   20.1101 C   0  0  0  0  0  0  0  0  0  0  0  0
    7.9241  -13.6056   22.2690 C   0  0  0  0  0  0  0  0  0  0  0  0
    8.4320  -14.9187   22.8810 C   0  0  2  0  0  0  0  0  0  0  0  0
    7.3406  -15.8308   23.0792 N   0  0  0  0  0  0  0  0  0  0  0  0
    9.0231  -14.5560   24.1922 C   0  0  0  0  0  0  0  0  0  0  0  0
    8.9338  -13.3602   24.5957 O   0  0  0  0  0  0  0  0  0  0  0  0
    9.6901  -15.4496   25.0447 N   0  0  0  0  0  0  0  0  0  0  0  0
   10.2041  -15.0932   26.3298 C   0  0  1  0  0  0  0  0  0  0  0  0
    9.1945  -14.4290   27.2280 C   0  0  0  0  0  0  0  0  0  0  0  0
    9.9524  -13.7989   28.7446 S   0  0  0  0  0  0  0  0  0  0  0  0
   10.8328  -16.2226   27.0442 C   0  0  0  0  0  0  0  0  0  0  0  0
   10.0751  -17.0976   27.5366 O   0  0  0  0  0  0  0  0  0  0  0  0
   12.2344  -16.3577   27.1947 N   0  0  0  0  0  0  0  0  0  0  0  0
   13.1718  -16.0927   26.1294 C   0  0  0  0  0  0  0  0  0  0  0  0
   13.5935  -17.3877   25.5227 C   0  0  0  0  0  0  0  0  0  0  0  0
   12.7262  -18.1844   24.8255 O   0  0  0  0  0  0  0  0  0  0  0  0
   14.7894  -17.7748   25.6487 O   0  0  0  0  0  0  0  0  0  0  0  0
  2  1  1  6
  3  2  1  0
  4  2  1  0
  4  5  1  0
  5  6  1  1
  7  5  1  0
  7  8  2  0
  9  7  1  0
 10  9  1  0
 10 13  1  0
 10 11  1  1
 12 11  1  0
 13 14  2  0
 13 15  1  0
 15 16  1  0
 17 18  1  0
 17 16  1  0
 19 17  2  0
M  END
$$$$
