LCG.pdb
     RDKit          3D

 19 18  0  0  1  0  0  0  0  0999 V2000
    5.8460  -13.0102   26.0314 C   0  0  0  0  0  0  0  0  0  0  0  0
    6.8261  -13.3527   27.1062 C   0  0  2  0  0  0  0  0  0  0  0  0
    7.5692  -12.1486   27.6174 C   0  0  0  0  0  0  0  0  0  0  0  0
    7.8122  -14.4252   26.6367 C   0  0  0  0  0  0  0  0  0  0  0  0
    6.9638  -15.5009   25.9440 C   0  0  2  0  0  0  0  0  0  0  0  0
    6.8043  -16.6398   26.8042 N   0  0  0  0  0  0  0  0  0  0  0  0
    7.7176  -15.8955   24.7290 C   0  0  0  0  0  0  0  0  0  0  0  0
    8.6015  -16.7961   24.8209 O   0  0  0  0  0  0  0  0  0  0  0  0
    7.5287  -15.3404   23.4537 N   0  0  0  0  0  0  0  0  0  0  0  0
    8.3440  -15.6479   22.3209 C   0  0  1  0  0  0  0  0  0  0  0  0
    7.7393  -15.2374   21.0044 C   0  0  0  0  0  0  0  0  0  0  0  0
    6.1464  -16.0431   20.7134 S   0  0  0  0  0  0  0  0  0  0  0  0
    9.7162  -15.1111   22.4225 C   0  0  0  0  0  0  0  0  0  0  0  0
    9.8488  -13.8999   22.7347 O   0  0  0  0  0  0  0  0  0  0  0  0
   10.8719  -15.8946   22.1858 N   0  0  0  0  0  0  0  0  0  0  0  0
   12.2140  -15.4007   22.3823 C   0  0  0  0  0  0  0  0  0  0  0  0
   13.1824  -16.4809   22.0385 C   0  0  0  0  0  0  0  0  0  0  0  0
   14.5358  -16.2770   22.0425 O   0  0  0  0  0  0  0  0  0  0  0  0
   12.7527  -17.6285   21.7311 O   0  0  0  0  0  0  0  0  0  0  0  0
  2  1  1  6
  3  2  1  0
  4  2  1  0
  4  5  1  0
  5  6  1  1
  7  5  1  0
  7  8  2  0
  9  7  1  0
 10  9  1  0
 10 13  1  0
 10 11  1  6
 12 11  1  0
 13 14  2  0
 13 15  1  0
 15 16  1  0
 17 18  1  0
 17 16  1  0
 19 17  2  0
M  END
$$$$
