LCG.pdb
     RDKit          3D

 19 18  0  0  1  0  0  0  0  0999 V2000
    8.0436  -12.5539   27.0264 C   0  0  0  0  0  0  0  0  0  0  0  0
    7.1889  -13.5167   26.2676 C   0  0  2  0  0  0  0  0  0  0  0  0
    5.7683  -13.0423   26.1252 C   0  0  0  0  0  0  0  0  0  0  0  0
    7.2226  -14.9088   26.9033 C   0  0  0  0  0  0  0  0  0  0  0  0
    6.5558  -15.8492   25.8896 C   0  0  2  0  0  0  0  0  0  0  0  0
    6.3097  -17.1318   26.4869 N   0  0  0  0  0  0  0  0  0  0  0  0
    7.5212  -15.9962   24.7730 C   0  0  0  0  0  0  0  0  0  0  0  0
    8.5278  -16.7469   24.9272 O   0  0  0  0  0  0  0  0  0  0  0  0
    7.4097  -15.3568   23.5284 N   0  0  0  0  0  0  0  0  0  0  0  0
    8.2827  -15.6030   22.4240 C   0  0  1  0  0  0  0  0  0  0  0  0
    7.7730  -15.0675   21.1122 C   0  0  0  0  0  0  0  0  0  0  0  0
    6.1508  -15.7472   20.6907 S   0  0  0  0  0  0  0  0  0  0  0  0
    9.6624  -15.1265   22.6489 C   0  0  0  0  0  0  0  0  0  0  0  0
    9.8181  -14.0996   23.3583 O   0  0  0  0  0  0  0  0  0  0  0  0
   10.8006  -15.7706   22.1055 N   0  0  0  0  0  0  0  0  0  0  0  0
   12.1457  -15.2771   22.2814 C   0  0  0  0  0  0  0  0  0  0  0  0
   12.9152  -16.2527   23.1055 C   0  0  0  0  0  0  0  0  0  0  0  0
   13.9849  -16.9460   22.6073 O   0  0  0  0  0  0  0  0  0  0  0  0
   12.5790  -16.4561   24.3061 O   0  0  0  0  0  0  0  0  0  0  0  0
  2  1  1  1
  3  2  1  0
  4  2  1  0
  4  5  1  0
  5  6  1  1
  7  5  1  0
  7  8  2  0
  9  7  1  0
 10  9  1  0
 10 13  1  0
 10 11  1  6
 12 11  1  0
 13 14  2  0
 13 15  1  0
 15 16  1  0
 17 18  1  0
 17 16  1  0
 19 17  2  0
M  END
$$$$
