LCG.pdb
     RDKit          3D

 19 18  0  0  1  0  0  0  0  0999 V2000
    9.2908  -14.2086   19.9026 C   0  0  0  0  0  0  0  0  0  0  0  0
    7.8614  -13.8248   20.1093 C   0  0  2  0  0  0  0  0  0  0  0  0
    7.5690  -12.4182   19.6621 C   0  0  0  0  0  0  0  0  0  0  0  0
    7.4410  -14.0161   21.5686 C   0  0  0  0  0  0  0  0  0  0  0  0
    7.9025  -15.4278   21.9566 C   0  0  2  0  0  0  0  0  0  0  0  0
    6.8254  -16.1529   22.5704 N   0  0  0  0  0  0  0  0  0  0  0  0
    9.0011  -15.2432   22.9361 C   0  0  0  0  0  0  0  0  0  0  0  0
    8.7999  -14.5201   23.9545 O   0  0  0  0  0  0  0  0  0  0  0  0
   10.2772  -15.8174   22.8259 N   0  0  0  0  0  0  0  0  0  0  0  0
   11.3013  -15.6813   23.8134 C   0  0  1  0  0  0  0  0  0  0  0  0
   10.9583  -16.3088   25.1386 C   0  0  0  0  0  0  0  0  0  0  0  0
   10.1373  -17.9075   24.9355 S   0  0  0  0  0  0  0  0  0  0  0  0
   12.6200  -16.1700   23.3625 C   0  0  0  0  0  0  0  0  0  0  0  0
   12.7387  -17.3998   23.1269 O   0  0  0  0  0  0  0  0  0  0  0  0
   13.7400  -15.3212   23.1872 N   0  0  0  0  0  0  0  0  0  0  0  0
   14.9599  -15.7470   22.5433 C   0  0  0  0  0  0  0  0  0  0  0  0
   16.0066  -15.9613   23.5832 C   0  0  0  0  0  0  0  0  0  0  0  0
   17.3130  -16.2142   23.2631 O   0  0  0  0  0  0  0  0  0  0  0  0
   15.6907  -15.9105   24.8053 O   0  0  0  0  0  0  0  0  0  0  0  0
  2  1  1  1
  3  2  1  0
  4  2  1  0
  4  5  1  0
  5  6  1  1
  7  5  1  0
  7  8  2  0
  9  7  1  0
 10  9  1  0
 10 13  1  0
 10 11  1  1
 12 11  1  0
 13 14  2  0
 13 15  1  0
 15 16  1  0
 17 18  1  0
 17 16  1  0
 19 17  2  0
M  END
$$$$
