HLM.pdb
     RDKit          3D

 27 27  0  0  1  0  0  0  0  0999 V2000
    9.5170  -18.9752   20.7826 N   0  0  0  0  0  0  0  0  0  0  0  0
   10.8679  -18.3364   20.8146 C   0  0  1  0  0  0  0  0  0  0  0  0
   11.3619  -18.4141   19.4131 C   0  0  0  0  0  0  0  0  0  0  0  0
   11.3607  -19.7287   18.7749 C   0  0  0  0  0  0  0  0  0  0  0  0
   11.8881  -20.9356   19.1392 C   0  0  0  0  0  0  0  0  0  0  0  0
   11.5310  -21.8509   18.1885 N   0  0  0  0  0  0  0  0  0  0  0  0
   10.8096  -21.2180   17.2787 C   0  0  0  0  0  0  0  0  0  0  0  0
   10.6909  -19.9453   17.6043 N   0  0  0  0  0  0  0  0  0  0  0  0
   10.6164  -16.8715   21.1133 C   0  0  0  0  0  0  0  0  0  0  0  0
   11.5564  -16.0874   21.1486 O   0  0  0  0  0  0  0  0  0  0  0  0
    8.4273  -12.3528   20.5009 C   0  0  0  0  0  0  0  0  0  0  0  0
    7.8096  -13.6378   19.9161 C   0  0  2  0  0  0  0  0  0  0  0  0
    6.5266  -13.2241   19.2874 C   0  0  0  0  0  0  0  0  0  0  0  0
    7.7180  -14.6128   21.0350 C   0  0  0  0  0  0  0  0  0  0  0  0
    8.9819  -15.0176   21.6867 C   0  0  2  0  0  0  0  0  0  0  0  0
    9.2868  -16.3997   21.3546 N   0  0  0  0  0  0  0  0  0  0  0  0
    9.1429  -14.7314   23.1051 C   0  0  0  0  0  0  0  0  0  0  0  0
    9.0759  -13.5390   23.4935 O   0  0  0  0  0  0  0  0  0  0  0  0
    6.5951  -11.1968   27.2224 C   0  0  0  0  0  0  0  0  0  0  0  0
    6.9361  -12.9292   27.2149 S   0  0  0  0  0  0  0  0  0  0  0  0
    7.5229  -13.5877   25.6722 C   0  0  0  0  0  0  0  0  0  0  0  0
    7.7806  -15.0404   25.7239 C   0  0  0  0  0  0  0  0  0  0  0  0
    9.1922  -15.4910   25.5181 C   0  0  2  0  0  0  0  0  0  0  0  0
    9.3718  -15.7392   24.0714 N   0  0  0  0  0  0  0  0  0  0  0  0
    9.4136  -16.7595   26.2183 C   0  0  0  0  0  0  0  0  0  0  0  0
    9.7665  -16.7484   27.5565 O   0  0  0  0  0  0  0  0  0  0  0  0
    9.2982  -17.8520   25.6620 O   0  0  0  0  0  0  0  0  0  0  0  0
  2  3  1  0
  2  1  1  6
  4  3  1  0
  5  4  2  0
  6  5  1  0
  6  7  1  0
  7  8  2  0
  8  4  1  0
  9 16  1  0
  9  2  1  0
 10  9  2  0
 12 11  1  1
 12 13  1  0
 14 12  1  0
 15 14  1  1
 15 16  1  0
 17 15  1  0
 18 17  2  0
 19 20  1  0
 20 21  1  0
 22 21  1  0
 23 22  1  6
 23 25  1  0
 23 24  1  0
 24 17  1  0
 25 26  1  0
 27 25  2  0
M  END
$$$$
