HLM.pdb
     RDKit          3D

 27 27  0  0  1  0  0  0  0  0999 V2000
   10.3397  -19.2794   20.6064 N   0  0  0  0  0  0  0  0  0  0  0  0
   11.6202  -18.6705   21.0792 C   0  0  1  0  0  0  0  0  0  0  0  0
   12.4754  -18.5850   19.8646 C   0  0  0  0  0  0  0  0  0  0  0  0
   13.0715  -19.8269   19.3769 C   0  0  0  0  0  0  0  0  0  0  0  0
   13.4390  -20.9856   20.0013 C   0  0  0  0  0  0  0  0  0  0  0  0
   13.8923  -21.8498   19.0438 N   0  0  0  0  0  0  0  0  0  0  0  0
   13.8008  -21.2339   17.8772 C   0  0  0  0  0  0  0  0  0  0  0  0
   13.3120  -20.0204   18.0462 N   0  0  0  0  0  0  0  0  0  0  0  0
   11.2713  -17.2491   21.4744 C   0  0  0  0  0  0  0  0  0  0  0  0
   12.1541  -16.4870   21.8477 O   0  0  0  0  0  0  0  0  0  0  0  0
    6.2376  -13.7587   20.7906 C   0  0  0  0  0  0  0  0  0  0  0  0
    7.6639  -13.7603   21.3743 C   0  0  2  0  0  0  0  0  0  0  0  0
    8.3746  -12.6307   20.7174 C   0  0  0  0  0  0  0  0  0  0  0  0
    8.2175  -15.1204   21.1403 C   0  0  0  0  0  0  0  0  0  0  0  0
    9.5156  -15.4415   21.7710 C   0  0  2  0  0  0  0  0  0  0  0  0
    9.9160  -16.7927   21.4137 N   0  0  0  0  0  0  0  0  0  0  0  0
    9.6732  -15.1655   23.1918 C   0  0  0  0  0  0  0  0  0  0  0  0
   10.4004  -14.2044   23.5448 O   0  0  0  0  0  0  0  0  0  0  0  0
    7.4239  -11.1335   25.5360 C   0  0  0  0  0  0  0  0  0  0  0  0
    6.9010  -12.1636   26.8712 S   0  0  0  0  0  0  0  0  0  0  0  0
    7.6894  -13.7533   26.9664 C   0  0  0  0  0  0  0  0  0  0  0  0
    8.0004  -14.3252   25.6414 C   0  0  0  0  0  0  0  0  0  0  0  0
    8.9622  -15.4703   25.6008 C   0  0  2  0  0  0  0  0  0  0  0  0
    9.0415  -15.9331   24.1986 N   0  0  0  0  0  0  0  0  0  0  0  0
    8.4448  -16.5797   26.4073 C   0  0  0  0  0  0  0  0  0  0  0  0
    8.0695  -17.7583   25.7865 O   0  0  0  0  0  0  0  0  0  0  0  0
    8.3270  -16.5101   27.6310 O   0  0  0  0  0  0  0  0  0  0  0  0
  2  3  1  0
  2  1  1  6
  4  3  1  0
  5  4  2  0
  6  5  1  0
  6  7  1  0
  7  8  2  0
  8  4  1  0
  9 16  1  0
  9  2  1  0
 10  9  2  0
 12 11  1  6
 12 13  1  0
 14 12  1  0
 15 14  1  1
 15 16  1  0
 17 15  1  0
 18 17  2  0
 19 20  1  0
 20 21  1  0
 22 21  1  0
 23 22  1  6
 23 25  1  0
 23 24  1  0
 24 17  1  0
 25 26  1  0
 27 25  2  0
M  END
$$$$
