HLM.pdb
     RDKit          3D

 27 27  0  0  1  0  0  0  0  0999 V2000
    9.6385  -16.2882   19.8709 N   0  0  0  0  0  0  0  0  0  0  0  0
    8.7475  -16.7849   20.9634 C   0  0  1  0  0  0  0  0  0  0  0  0
    9.1410  -18.2060   21.1627 C   0  0  0  0  0  0  0  0  0  0  0  0
    8.5621  -19.1944   20.2552 C   0  0  0  0  0  0  0  0  0  0  0  0
    8.0537  -19.1044   18.9900 C   0  0  0  0  0  0  0  0  0  0  0  0
    7.7015  -20.3639   18.5914 N   0  0  0  0  0  0  0  0  0  0  0  0
    7.9891  -21.1895   19.5835 C   0  0  0  0  0  0  0  0  0  0  0  0
    8.5062  -20.5167   20.5933 N   0  0  0  0  0  0  0  0  0  0  0  0
    9.1729  -16.0304   22.2076 C   0  0  0  0  0  0  0  0  0  0  0  0
   10.2931  -15.5394   22.2685 O   0  0  0  0  0  0  0  0  0  0  0  0
    7.9762  -12.2993   24.7748 C   0  0  0  0  0  0  0  0  0  0  0  0
    6.8434  -13.3326   24.6205 C   0  0  2  0  0  0  0  0  0  0  0  0
    5.6693  -12.7600   25.3320 C   0  0  0  0  0  0  0  0  0  0  0  0
    7.3710  -14.6225   25.1390 C   0  0  0  0  0  0  0  0  0  0  0  0
    8.6053  -15.1486   24.5180 C   0  0  2  0  0  0  0  0  0  0  0  0
    8.2730  -15.8887   23.3116 N   0  0  0  0  0  0  0  0  0  0  0  0
    9.5518  -15.8558   25.3687 C   0  0  0  0  0  0  0  0  0  0  0  0
    9.4723  -17.1062   25.4538 O   0  0  0  0  0  0  0  0  0  0  0  0
   11.3593  -14.3965   32.6867 C   0  0  0  0  0  0  0  0  0  0  0  0
   11.0483  -13.9269   31.0133 S   0  0  0  0  0  0  0  0  0  0  0  0
   11.3403  -15.1889   29.7967 C   0  0  0  0  0  0  0  0  0  0  0  0
   10.9915  -14.7636   28.4267 C   0  0  0  0  0  0  0  0  0  0  0  0
   11.1380  -15.7796   27.3385 C   0  0  2  0  0  0  0  0  0  0  0  0
   10.5627  -15.1966   26.1074 N   0  0  0  0  0  0  0  0  0  0  0  0
   10.3589  -16.9760   27.6707 C   0  0  0  0  0  0  0  0  0  0  0  0
   11.0153  -18.1431   28.0207 O   0  0  0  0  0  0  0  0  0  0  0  0
    9.1278  -16.9907   27.6525 O   0  0  0  0  0  0  0  0  0  0  0  0
  2  3  1  0
  2  1  1  6
  4  3  1  0
  5  4  2  0
  6  5  1  0
  6  7  1  0
  7  8  2  0
  8  4  1  0
  9 16  1  0
  9  2  1  0
 10  9  2  0
 12 11  1  1
 12 13  1  0
 14 12  1  0
 15 14  1  1
 15 16  1  0
 17 15  1  0
 18 17  2  0
 19 20  1  0
 20 21  1  0
 22 21  1  0
 23 22  1  1
 23 25  1  0
 23 24  1  0
 24 17  1  0
 25 26  1  0
 27 25  2  0
M  END
$$$$
