HLM.pdb
     RDKit          3D

 27 27  0  0  1  0  0  0  0  0999 V2000
    9.1918  -18.4977   20.4328 N   0  0  0  0  0  0  0  0  0  0  0  0
   10.5635  -17.9094   20.3520 C   0  0  1  0  0  0  0  0  0  0  0  0
   10.9064  -17.9340   18.9043 C   0  0  0  0  0  0  0  0  0  0  0  0
   11.0615  -19.2439   18.2753 C   0  0  0  0  0  0  0  0  0  0  0  0
   10.1677  -20.2209   17.9377 C   0  0  0  0  0  0  0  0  0  0  0  0
   10.8592  -21.2209   17.3123 N   0  0  0  0  0  0  0  0  0  0  0  0
   12.1306  -20.8596   17.2718 C   0  0  0  0  0  0  0  0  0  0  0  0
   12.2813  -19.6792   17.8411 N   0  0  0  0  0  0  0  0  0  0  0  0
   10.4035  -16.4534   20.7430 C   0  0  0  0  0  0  0  0  0  0  0  0
   11.3573  -15.6907   20.6533 O   0  0  0  0  0  0  0  0  0  0  0  0
    8.7915  -12.5287   19.4562 C   0  0  0  0  0  0  0  0  0  0  0  0
    7.7931  -13.6971   19.5694 C   0  0  2  0  0  0  0  0  0  0  0  0
    6.5364  -13.2231   18.9302 C   0  0  0  0  0  0  0  0  0  0  0  0
    7.7134  -14.0500   21.0117 C   0  0  0  0  0  0  0  0  0  0  0  0
    8.9344  -14.5919   21.6454 C   0  0  2  0  0  0  0  0  0  0  0  0
    9.1441  -15.9651   21.2166 N   0  0  0  0  0  0  0  0  0  0  0  0
    9.0932  -14.4210   23.0825 C   0  0  0  0  0  0  0  0  0  0  0  0
    8.8478  -13.2986   23.5895 O   0  0  0  0  0  0  0  0  0  0  0  0
    6.1389  -12.0248   26.7709 C   0  0  0  0  0  0  0  0  0  0  0  0
    7.1520  -13.2441   27.5483 S   0  0  0  0  0  0  0  0  0  0  0  0
    7.1247  -14.8546   26.7977 C   0  0  0  0  0  0  0  0  0  0  0  0
    7.7561  -14.8820   25.4635 C   0  0  0  0  0  0  0  0  0  0  0  0
    9.1018  -15.5267   25.3583 C   0  0  2  0  0  0  0  0  0  0  0  0
    9.5126  -15.4662   23.9391 N   0  0  0  0  0  0  0  0  0  0  0  0
    9.0037  -16.9403   25.7335 C   0  0  0  0  0  0  0  0  0  0  0  0
    9.1560  -17.3072   27.0592 O   0  0  0  0  0  0  0  0  0  0  0  0
    8.7887  -17.8306   24.9104 O   0  0  0  0  0  0  0  0  0  0  0  0
  2  3  1  0
  2  1  1  6
  4  3  1  0
  5  4  2  0
  6  5  1  0
  6  7  1  0
  7  8  2  0
  8  4  1  0
  9 16  1  0
  9  2  1  0
 10  9  2  0
 12 11  1  1
 12 13  1  0
 14 12  1  0
 15 14  1  1
 15 16  1  0
 17 15  1  0
 18 17  2  0
 19 20  1  0
 20 21  1  0
 22 21  1  0
 23 22  1  6
 23 25  1  0
 23 24  1  0
 24 17  1  0
 25 26  1  0
 27 25  2  0
M  END
$$$$
