HLM.pdb
     RDKit          3D

 27 27  0  0  1  0  0  0  0  0999 V2000
   10.0052  -15.8008   20.2219 N   0  0  0  0  0  0  0  0  0  0  0  0
    8.9851  -16.4109   21.1282 C   0  0  1  0  0  0  0  0  0  0  0  0
    9.2306  -17.8764   21.0501 C   0  0  0  0  0  0  0  0  0  0  0  0
    8.7420  -18.5746   19.8630 C   0  0  0  0  0  0  0  0  0  0  0  0
    8.2314  -18.1346   18.6742 C   0  0  0  0  0  0  0  0  0  0  0  0
    7.9906  -19.2302   17.8926 N   0  0  0  0  0  0  0  0  0  0  0  0
    8.3453  -20.2987   18.5861 C   0  0  0  0  0  0  0  0  0  0  0  0
    8.7994  -19.9362   19.7703 N   0  0  0  0  0  0  0  0  0  0  0  0
    9.3720  -15.9725   22.5270 C   0  0  0  0  0  0  0  0  0  0  0  0
   10.5517  -15.7996   22.8062 O   0  0  0  0  0  0  0  0  0  0  0  0
    8.0575  -12.4385   25.1977 C   0  0  0  0  0  0  0  0  0  0  0  0
    6.9679  -13.4991   24.9472 C   0  0  2  0  0  0  0  0  0  0  0  0
    5.7205  -12.9512   25.5442 C   0  0  0  0  0  0  0  0  0  0  0  0
    7.4755  -14.7737   25.5207 C   0  0  0  0  0  0  0  0  0  0  0  0
    8.6719  -15.3715   24.8905 C   0  0  2  0  0  0  0  0  0  0  0  0
    8.3665  -15.7596   23.5232 N   0  0  0  0  0  0  0  0  0  0  0  0
    9.3859  -16.4076   25.6230 C   0  0  0  0  0  0  0  0  0  0  0  0
    9.2504  -17.6040   25.2660 O   0  0  0  0  0  0  0  0  0  0  0  0
    9.3684  -14.0855   29.4923 C   0  0  0  0  0  0  0  0  0  0  0  0
   11.1190  -14.1399   29.7149 S   0  0  0  0  0  0  0  0  0  0  0  0
   12.0057  -15.1667   28.5673 C   0  0  0  0  0  0  0  0  0  0  0  0
   11.6063  -16.5864   28.6331 C   0  0  0  0  0  0  0  0  0  0  0  0
   11.0118  -17.1863   27.3983 C   0  0  2  0  0  0  0  0  0  0  0  0
   10.2302  -16.1279   26.7234 N   0  0  0  0  0  0  0  0  0  0  0  0
   10.0832  -18.2589   27.7671 C   0  0  0  0  0  0  0  0  0  0  0  0
   10.5747  -19.4254   28.3265 O   0  0  0  0  0  0  0  0  0  0  0  0
    8.8667  -18.1682   27.5995 O   0  0  0  0  0  0  0  0  0  0  0  0
  2  3  1  0
  2  1  1  6
  4  3  1  0
  5  4  2  0
  6  5  1  0
  6  7  1  0
  7  8  2  0
  8  4  1  0
  9 16  1  0
  9  2  1  0
 10  9  2  0
 12 11  1  1
 12 13  1  0
 14 12  1  0
 15 14  1  1
 15 16  1  0
 17 15  1  0
 18 17  2  0
 19 20  1  0
 20 21  1  0
 22 21  1  0
 23 22  1  1
 23 25  1  0
 23 24  1  0
 24 17  1  0
 25 26  1  0
 27 25  2  0
M  END
$$$$
