HLM.pdb
     RDKit          3D

 27 27  0  0  1  0  0  0  0  0999 V2000
    9.6731  -15.4878   19.8236 N   0  0  0  0  0  0  0  0  0  0  0  0
    8.5699  -15.9934   20.6962 C   0  0  1  0  0  0  0  0  0  0  0  0
    8.6072  -17.4730   20.5425 C   0  0  0  0  0  0  0  0  0  0  0  0
    8.1281  -18.0269   19.2779 C   0  0  0  0  0  0  0  0  0  0  0  0
    7.8296  -17.4582   18.0717 C   0  0  0  0  0  0  0  0  0  0  0  0
    7.4805  -18.4624   17.2121 N   0  0  0  0  0  0  0  0  0  0  0  0
    7.5664  -19.6023   17.8769 C   0  0  0  0  0  0  0  0  0  0  0  0
    7.9525  -19.3719   19.1170 N   0  0  0  0  0  0  0  0  0  0  0  0
    9.0033  -15.6861   22.1161 C   0  0  0  0  0  0  0  0  0  0  0  0
   10.1954  -15.6075   22.3851 O   0  0  0  0  0  0  0  0  0  0  0  0
    7.9557  -12.2618   25.1322 C   0  0  0  0  0  0  0  0  0  0  0  0
    6.7982  -13.2133   24.7722 C   0  0  2  0  0  0  0  0  0  0  0  0
    5.5871  -12.6474   25.4245 C   0  0  0  0  0  0  0  0  0  0  0  0
    7.2143  -14.5729   25.2077 C   0  0  0  0  0  0  0  0  0  0  0  0
    8.3753  -15.1788   24.5215 C   0  0  2  0  0  0  0  0  0  0  0  0
    8.0274  -15.4876   23.1441 N   0  0  0  0  0  0  0  0  0  0  0  0
    9.0680  -16.2737   25.1855 C   0  0  0  0  0  0  0  0  0  0  0  0
    8.9569  -17.4334   24.7166 O   0  0  0  0  0  0  0  0  0  0  0  0
   10.6522  -12.5157   28.7070 C   0  0  0  0  0  0  0  0  0  0  0  0
   10.6368  -14.2180   29.1754 S   0  0  0  0  0  0  0  0  0  0  0  0
   11.6910  -15.2844   28.2219 C   0  0  0  0  0  0  0  0  0  0  0  0
   11.2376  -16.6893   28.2135 C   0  0  0  0  0  0  0  0  0  0  0  0
   10.6287  -17.2026   26.9472 C   0  0  2  0  0  0  0  0  0  0  0  0
    9.8653  -16.0911   26.3401 N   0  0  0  0  0  0  0  0  0  0  0  0
    9.6811  -18.2779   27.2543 C   0  0  0  0  0  0  0  0  0  0  0  0
   10.1546  -19.4960   27.7097 O   0  0  0  0  0  0  0  0  0  0  0  0
    8.4639  -18.1452   27.1238 O   0  0  0  0  0  0  0  0  0  0  0  0
  2  3  1  0
  2  1  1  6
  4  3  1  0
  5  4  2  0
  6  5  1  0
  6  7  1  0
  7  8  2  0
  8  4  1  0
  9 16  1  0
  9  2  1  0
 10  9  2  0
 12 11  1  1
 12 13  1  0
 14 12  1  0
 15 14  1  1
 15 16  1  0
 17 15  1  0
 18 17  2  0
 19 20  1  0
 20 21  1  0
 22 21  1  0
 23 22  1  1
 23 25  1  0
 23 24  1  0
 24 17  1  0
 25 26  1  0
 27 25  2  0
M  END
$$$$
