HLM.pdb
     RDKit          3D

 27 27  0  0  1  0  0  0  0  0999 V2000
    7.0325  -18.9716   21.5645 N   0  0  0  0  0  0  0  0  0  0  0  0
    6.8091  -18.6847   23.0143 C   0  0  1  0  0  0  0  0  0  0  0  0
    7.6232  -19.7000   23.7359 C   0  0  0  0  0  0  0  0  0  0  0  0
    7.2197  -21.0983   23.6039 C   0  0  0  0  0  0  0  0  0  0  0  0
    6.2757  -21.7215   22.8371 C   0  0  0  0  0  0  0  0  0  0  0  0
    6.3701  -23.0654   23.0697 N   0  0  0  0  0  0  0  0  0  0  0  0
    7.3411  -23.2493   23.9483 C   0  0  0  0  0  0  0  0  0  0  0  0
    7.8683  -22.0883   24.2859 N   0  0  0  0  0  0  0  0  0  0  0  0
    7.4589  -17.3382   23.2656 C   0  0  0  0  0  0  0  0  0  0  0  0
    8.4207  -16.9913   22.5919 O   0  0  0  0  0  0  0  0  0  0  0  0
    5.9390  -12.4894   26.7883 C   0  0  0  0  0  0  0  0  0  0  0  0
    7.0360  -13.0340   25.8530 C   0  0  2  0  0  0  0  0  0  0  0  0
    7.1822  -12.0282   24.7669 C   0  0  0  0  0  0  0  0  0  0  0  0
    6.6070  -14.3975   25.4433 C   0  0  0  0  0  0  0  0  0  0  0  0
    7.5208  -15.1609   24.5669 C   0  0  2  0  0  0  0  0  0  0  0  0
    6.9546  -16.4702   24.2859 N   0  0  0  0  0  0  0  0  0  0  0  0
    8.9281  -15.2240   24.9344 C   0  0  0  0  0  0  0  0  0  0  0  0
    9.6295  -14.1880   24.8246 O   0  0  0  0  0  0  0  0  0  0  0  0
   10.4146  -12.3298   29.4861 C   0  0  0  0  0  0  0  0  0  0  0  0
   10.9470  -13.9883   29.1974 S   0  0  0  0  0  0  0  0  0  0  0  0
   11.0725  -14.4664   27.4905 C   0  0  0  0  0  0  0  0  0  0  0  0
   10.9609  -15.9245   27.2883 C   0  0  0  0  0  0  0  0  0  0  0  0
   10.9495  -16.4190   25.8765 C   0  0  2  0  0  0  0  0  0  0  0  0
    9.5455  -16.4038   25.4128 N   0  0  0  0  0  0  0  0  0  0  0  0
   11.4171  -17.8076   25.8350 C   0  0  0  0  0  0  0  0  0  0  0  0
   10.5216  -18.8213   25.5422 O   0  0  0  0  0  0  0  0  0  0  0  0
   12.5887  -18.1187   26.0520 O   0  0  0  0  0  0  0  0  0  0  0  0
  2  3  1  0
  2  1  1  6
  4  3  1  0
  5  4  2  0
  6  5  1  0
  6  7  1  0
  7  8  2  0
  8  4  1  0
  9 16  1  0
  9  2  1  0
 10  9  2  0
 12 11  1  1
 12 13  1  0
 14 12  1  0
 15 14  1  1
 15 16  1  0
 17 15  1  0
 18 17  2  0
 19 20  1  0
 20 21  1  0
 22 21  1  0
 23 22  1  1
 23 25  1  0
 23 24  1  0
 24 17  1  0
 25 26  1  0
 27 25  2  0
M  END
$$$$
