HLM.pdb
     RDKit          3D

 27 27  0  0  1  0  0  0  0  0999 V2000
    8.7903  -16.9772   20.0607 N   0  0  0  0  0  0  0  0  0  0  0  0
    8.1077  -17.2745   21.3568 C   0  0  1  0  0  0  0  0  0  0  0  0
    8.5494  -18.6492   21.7161 C   0  0  0  0  0  0  0  0  0  0  0  0
    7.9943  -19.7553   20.9390 C   0  0  0  0  0  0  0  0  0  0  0  0
    7.2021  -19.7996   19.8264 C   0  0  0  0  0  0  0  0  0  0  0  0
    7.0351  -21.1130   19.4853 N   0  0  0  0  0  0  0  0  0  0  0  0
    7.7060  -21.8398   20.3629 C   0  0  0  0  0  0  0  0  0  0  0  0
    8.2908  -21.0530   21.2454 N   0  0  0  0  0  0  0  0  0  0  0  0
    8.7304  -16.3322   22.3681 C   0  0  0  0  0  0  0  0  0  0  0  0
    9.8654  -15.9094   22.1877 O   0  0  0  0  0  0  0  0  0  0  0  0
    7.5349  -12.2426   24.6332 C   0  0  0  0  0  0  0  0  0  0  0  0
    6.5842  -13.4230   24.9121 C   0  0  2  0  0  0  0  0  0  0  0  0
    5.5554  -12.9045   25.8530 C   0  0  0  0  0  0  0  0  0  0  0  0
    7.4299  -14.5433   25.4027 C   0  0  0  0  0  0  0  0  0  0  0  0
    8.5229  -15.0044   24.5202 C   0  0  2  0  0  0  0  0  0  0  0  0
    7.9995  -15.9342   23.5326 N   0  0  0  0  0  0  0  0  0  0  0  0
    9.7515  -15.4772   25.1420 C   0  0  0  0  0  0  0  0  0  0  0  0
   10.8161  -14.8432   24.9379 O   0  0  0  0  0  0  0  0  0  0  0  0
   11.4807  -14.4902   30.9160 C   0  0  0  0  0  0  0  0  0  0  0  0
   10.4722  -13.9200   29.5836 S   0  0  0  0  0  0  0  0  0  0  0  0
   10.7646  -14.6994   28.0136 C   0  0  0  0  0  0  0  0  0  0  0  0
   10.8114  -16.1725   28.0986 C   0  0  0  0  0  0  0  0  0  0  0  0
   10.9766  -16.9253   26.8165 C   0  0  2  0  0  0  0  0  0  0  0  0
    9.8021  -16.6231   25.9704 N   0  0  0  0  0  0  0  0  0  0  0  0
   10.9730  -18.3663   27.0850 C   0  0  0  0  0  0  0  0  0  0  0  0
   12.0612  -18.9468   27.7127 O   0  0  0  0  0  0  0  0  0  0  0  0
   10.0312  -19.0957   26.7728 O   0  0  0  0  0  0  0  0  0  0  0  0
  2  3  1  0
  2  1  1  6
  4  3  1  0
  5  4  2  0
  6  5  1  0
  6  7  1  0
  7  8  2  0
  8  4  1  0
  9 16  1  0
  9  2  1  0
 10  9  2  0
 12 11  1  1
 12 13  1  0
 14 12  1  0
 15 14  1  1
 15 16  1  0
 17 15  1  0
 18 17  2  0
 19 20  1  0
 20 21  1  0
 22 21  1  0
 23 22  1  1
 23 25  1  0
 23 24  1  0
 24 17  1  0
 25 26  1  0
 27 25  2  0
M  END
$$$$
