HLM.pdb
     RDKit          3D

 27 27  0  0  1  0  0  0  0  0999 V2000
   12.5466  -17.2848   18.5917 N   0  0  0  0  0  0  0  0  0  0  0  0
   11.2960  -17.7452   19.2686 C   0  0  1  0  0  0  0  0  0  0  0  0
   11.6703  -19.0190   19.9404 C   0  0  0  0  0  0  0  0  0  0  0  0
   11.7002  -20.2262   19.1174 C   0  0  0  0  0  0  0  0  0  0  0  0
   11.9538  -20.4369   17.7912 C   0  0  0  0  0  0  0  0  0  0  0  0
   11.9067  -21.7847   17.5666 N   0  0  0  0  0  0  0  0  0  0  0  0
   11.6345  -22.3706   18.7204 C   0  0  0  0  0  0  0  0  0  0  0  0
   11.5059  -21.4613   19.6674 N   0  0  0  0  0  0  0  0  0  0  0  0
   11.0306  -16.7303   20.3631 C   0  0  0  0  0  0  0  0  0  0  0  0
   11.9592  -16.0845   20.8325 O   0  0  0  0  0  0  0  0  0  0  0  0
    8.4745  -12.9628   21.0598 C   0  0  0  0  0  0  0  0  0  0  0  0
    7.6824  -14.2571   20.7912 C   0  0  2  0  0  0  0  0  0  0  0  0
    6.2592  -13.8446   20.6605 C   0  0  0  0  0  0  0  0  0  0  0  0
    8.0047  -15.1911   21.9024 C   0  0  0  0  0  0  0  0  0  0  0  0
    9.3973  -15.6790   21.9955 C   0  0  2  0  0  0  0  0  0  0  0  0
    9.7012  -16.5226   20.8511 N   0  0  0  0  0  0  0  0  0  0  0  0
    9.8357  -16.2616   23.2557 C   0  0  0  0  0  0  0  0  0  0  0  0
   10.0964  -17.4894   23.2968 O   0  0  0  0  0  0  0  0  0  0  0  0
   10.0421  -12.5663   28.6380 C   0  0  0  0  0  0  0  0  0  0  0  0
   10.5117  -14.1255   29.3205 S   0  0  0  0  0  0  0  0  0  0  0  0
   10.5717  -15.4785   28.1700 C   0  0  0  0  0  0  0  0  0  0  0  0
   10.3048  -15.0664   26.7778 C   0  0  0  0  0  0  0  0  0  0  0  0
   10.3507  -16.1327   25.7296 C   0  0  2  0  0  0  0  0  0  0  0  0
    9.9832  -15.5049   24.4421 N   0  0  0  0  0  0  0  0  0  0  0  0
    9.3487  -17.1609   26.0256 C   0  0  0  0  0  0  0  0  0  0  0  0
    9.7223  -18.2993   26.7182 O   0  0  0  0  0  0  0  0  0  0  0  0
    8.1712  -17.0566   25.6809 O   0  0  0  0  0  0  0  0  0  0  0  0
  2  3  1  0
  2  1  1  6
  4  3  1  0
  5  4  2  0
  6  5  1  0
  6  7  1  0
  7  8  2  0
  8  4  1  0
  9 16  1  0
  9  2  1  0
 10  9  2  0
 12 11  1  1
 12 13  1  0
 14 12  1  0
 15 14  1  1
 15 16  1  0
 17 15  1  0
 18 17  2  0
 19 20  1  0
 20 21  1  0
 22 21  1  0
 23 22  1  1
 23 25  1  0
 23 24  1  0
 24 17  1  0
 25 26  1  0
 27 25  2  0
M  END
$$$$
