HLM.pdb
     RDKit          3D

 27 27  0  0  1  0  0  0  0  0999 V2000
    8.8140  -18.5249   19.4174 N   0  0  0  0  0  0  0  0  0  0  0  0
   10.2628  -18.2581   19.6705 C   0  0  1  0  0  0  0  0  0  0  0  0
   10.8422  -17.9832   18.3278 C   0  0  0  0  0  0  0  0  0  0  0  0
   10.9134  -19.1000   17.3880 C   0  0  0  0  0  0  0  0  0  0  0  0
   11.1993  -20.4269   17.5464 C   0  0  0  0  0  0  0  0  0  0  0  0
   11.0604  -21.0318   16.3282 N   0  0  0  0  0  0  0  0  0  0  0  0
   10.7006  -20.1006   15.4609 C   0  0  0  0  0  0  0  0  0  0  0  0
   10.6045  -18.9335   16.0679 N   0  0  0  0  0  0  0  0  0  0  0  0
   10.3056  -16.9555   20.4449 C   0  0  0  0  0  0  0  0  0  0  0  0
   11.3849  -16.4526   20.7308 O   0  0  0  0  0  0  0  0  0  0  0  0
    8.9316  -12.7467   19.5469 C   0  0  0  0  0  0  0  0  0  0  0  0
    7.7956  -13.7777   19.6935 C   0  0  2  0  0  0  0  0  0  0  0  0
    6.5507  -13.0739   19.2841 C   0  0  0  0  0  0  0  0  0  0  0  0
    7.8493  -14.2731   21.0945 C   0  0  0  0  0  0  0  0  0  0  0  0
    9.0601  -15.0157   21.5049 C   0  0  2  0  0  0  0  0  0  0  0  0
    9.0919  -16.3101   20.8438 N   0  0  0  0  0  0  0  0  0  0  0  0
    9.3604  -15.1031   22.9269 C   0  0  0  0  0  0  0  0  0  0  0  0
   10.2328  -14.3393   23.4094 O   0  0  0  0  0  0  0  0  0  0  0  0
    7.3406  -11.5758   27.0016 C   0  0  0  0  0  0  0  0  0  0  0  0
    6.1973  -12.9164   26.8871 S   0  0  0  0  0  0  0  0  0  0  0  0
    6.9231  -14.5344   26.7722 C   0  0  0  0  0  0  0  0  0  0  0  0
    7.3204  -14.8939   25.3966 C   0  0  0  0  0  0  0  0  0  0  0  0
    8.5476  -15.7346   25.2382 C   0  0  2  0  0  0  0  0  0  0  0  0
    8.7114  -16.0124   23.7950 N   0  0  0  0  0  0  0  0  0  0  0  0
    8.3591  -17.0184   25.9202 C   0  0  0  0  0  0  0  0  0  0  0  0
    8.3256  -17.0587   27.3031 O   0  0  0  0  0  0  0  0  0  0  0  0
    8.2272  -18.0795   25.3095 O   0  0  0  0  0  0  0  0  0  0  0  0
  2  3  1  0
  2  1  1  6
  4  3  1  0
  5  4  2  0
  6  5  1  0
  6  7  1  0
  7  8  2  0
  8  4  1  0
  9 16  1  0
  9  2  1  0
 10  9  2  0
 12 11  1  1
 12 13  1  0
 14 12  1  0
 15 14  1  1
 15 16  1  0
 17 15  1  0
 18 17  2  0
 19 20  1  0
 20 21  1  0
 22 21  1  0
 23 22  1  6
 23 25  1  0
 23 24  1  0
 24 17  1  0
 25 26  1  0
 27 25  2  0
M  END
$$$$
