HLM.pdb
     RDKit          3D

 27 27  0  0  1  0  0  0  0  0999 V2000
   10.4700  -19.0015   20.1119 N   0  0  0  0  0  0  0  0  0  0  0  0
   11.7195  -18.2383   20.4128 C   0  0  1  0  0  0  0  0  0  0  0  0
   12.3930  -18.0715   19.0965 C   0  0  0  0  0  0  0  0  0  0  0  0
   12.9674  -19.2666   18.4822 C   0  0  0  0  0  0  0  0  0  0  0  0
   13.4030  -20.4548   18.9980 C   0  0  0  0  0  0  0  0  0  0  0  0
   13.7909  -21.2460   17.9527 N   0  0  0  0  0  0  0  0  0  0  0  0
   13.5950  -20.5588   16.8400 C   0  0  0  0  0  0  0  0  0  0  0  0
   13.1020  -19.3693   17.1269 N   0  0  0  0  0  0  0  0  0  0  0  0
   11.2582  -16.8620   20.8502 C   0  0  0  0  0  0  0  0  0  0  0  0
   12.0851  -15.9987   21.1153 O   0  0  0  0  0  0  0  0  0  0  0  0
    6.1470  -13.5789   20.2948 C   0  0  0  0  0  0  0  0  0  0  0  0
    7.5206  -13.6081   20.9928 C   0  0  2  0  0  0  0  0  0  0  0  0
    8.2864  -12.4618   20.4343 C   0  0  0  0  0  0  0  0  0  0  0  0
    8.0872  -14.9631   20.7598 C   0  0  0  0  0  0  0  0  0  0  0  0
    9.3534  -15.2957   21.4468 C   0  0  2  0  0  0  0  0  0  0  0  0
    9.8618  -16.5658   20.9551 N   0  0  0  0  0  0  0  0  0  0  0  0
    9.3898  -15.1997   22.8991 C   0  0  0  0  0  0  0  0  0  0  0  0
   10.2883  -14.5070   23.4377 O   0  0  0  0  0  0  0  0  0  0  0  0
    6.4399  -11.1471   26.8857 C   0  0  0  0  0  0  0  0  0  0  0  0
    6.7662  -12.8783   27.0028 S   0  0  0  0  0  0  0  0  0  0  0  0
    6.8593  -13.7466   25.4552 C   0  0  0  0  0  0  0  0  0  0  0  0
    7.1224  -15.1903   25.6166 C   0  0  0  0  0  0  0  0  0  0  0  0
    8.4718  -15.6883   25.2057 C   0  0  2  0  0  0  0  0  0  0  0  0
    8.4550  -15.8533   23.7363 N   0  0  0  0  0  0  0  0  0  0  0  0
    8.7143  -17.0066   25.7990 C   0  0  0  0  0  0  0  0  0  0  0  0
    9.0801  -17.0995   27.1305 O   0  0  0  0  0  0  0  0  0  0  0  0
    8.6057  -18.0518   25.1571 O   0  0  0  0  0  0  0  0  0  0  0  0
  2  3  1  0
  2  1  1  6
  4  3  1  0
  5  4  2  0
  6  5  1  0
  6  7  1  0
  7  8  2  0
  8  4  1  0
  9 16  1  0
  9  2  1  0
 10  9  2  0
 12 11  1  6
 12 13  1  0
 14 12  1  0
 15 14  1  1
 15 16  1  0
 17 15  1  0
 18 17  2  0
 19 20  1  0
 20 21  1  0
 22 21  1  0
 23 22  1  1
 23 25  1  0
 23 24  1  0
 24 17  1  0
 25 26  1  0
 27 25  2  0
M  END
$$$$
