HLM.pdb
     RDKit          3D

 27 27  0  0  1  0  0  0  0  0999 V2000
    8.3571  -17.3699   19.9545 N   0  0  0  0  0  0  0  0  0  0  0  0
    7.7892  -17.5073   21.3303 C   0  0  1  0  0  0  0  0  0  0  0  0
    8.3501  -18.7834   21.8508 C   0  0  0  0  0  0  0  0  0  0  0  0
    9.6828  -19.1664   21.3894 C   0  0  0  0  0  0  0  0  0  0  0  0
   10.6128  -18.5315   20.6152 C   0  0  0  0  0  0  0  0  0  0  0  0
   11.7193  -19.3321   20.5515 N   0  0  0  0  0  0  0  0  0  0  0  0
   11.4669  -20.4161   21.2655 C   0  0  0  0  0  0  0  0  0  0  0  0
   10.2542  -20.3441   21.7795 N   0  0  0  0  0  0  0  0  0  0  0  0
    8.4137  -16.3879   22.1399 C   0  0  0  0  0  0  0  0  0  0  0  0
    9.4539  -15.8671   21.7574 O   0  0  0  0  0  0  0  0  0  0  0  0
    7.4540  -12.1585   24.6993 C   0  0  0  0  0  0  0  0  0  0  0  0
    6.5205  -13.3527   24.9771 C   0  0  2  0  0  0  0  0  0  0  0  0
    5.6259  -12.9222   26.0848 C   0  0  0  0  0  0  0  0  0  0  0  0
    7.3966  -14.5235   25.2467 C   0  0  0  0  0  0  0  0  0  0  0  0
    8.3653  -14.9016   24.1957 C   0  0  2  0  0  0  0  0  0  0  0  0
    7.7946  -15.9364   23.3489 N   0  0  0  0  0  0  0  0  0  0  0  0
    9.7329  -15.1960   24.5991 C   0  0  0  0  0  0  0  0  0  0  0  0
   10.6231  -14.3340   24.3949 O   0  0  0  0  0  0  0  0  0  0  0  0
   11.1892  -13.7759   30.8750 C   0  0  0  0  0  0  0  0  0  0  0  0
   10.9294  -14.2063   29.1825 S   0  0  0  0  0  0  0  0  0  0  0  0
    9.9314  -15.6499   28.9036 C   0  0  0  0  0  0  0  0  0  0  0  0
    9.5794  -15.8445   27.4832 C   0  0  0  0  0  0  0  0  0  0  0  0
   10.6166  -16.4650   26.6017 C   0  0  2  0  0  0  0  0  0  0  0  0
   10.1075  -16.4138   25.2143 N   0  0  0  0  0  0  0  0  0  0  0  0
   10.7909  -17.8756   26.9602 C   0  0  0  0  0  0  0  0  0  0  0  0
   10.2082  -18.8564   26.1768 O   0  0  0  0  0  0  0  0  0  0  0  0
   11.4423  -18.2337   27.9419 O   0  0  0  0  0  0  0  0  0  0  0  0
  2  3  1  0
  2  1  1  6
  4  3  1  0
  5  4  2  0
  6  5  1  0
  6  7  1  0
  7  8  2  0
  8  4  1  0
  9 16  1  0
  9  2  1  0
 10  9  2  0
 12 11  1  1
 12 13  1  0
 14 12  1  0
 15 14  1  1
 15 16  1  0
 17 15  1  0
 18 17  2  0
 19 20  1  0
 20 21  1  0
 22 21  1  0
 23 22  1  1
 23 25  1  0
 23 24  1  0
 24 17  1  0
 25 26  1  0
 27 25  2  0
M  END
$$$$
