HLM.pdb
     RDKit          3D

 27 27  0  0  1  0  0  0  0  0999 V2000
    8.9419  -16.0428   19.5171 N   0  0  0  0  0  0  0  0  0  0  0  0
    9.4683  -16.9134   20.6121 C   0  0  1  0  0  0  0  0  0  0  0  0
   10.8701  -17.2194   20.2181 C   0  0  0  0  0  0  0  0  0  0  0  0
   11.0660  -18.1649   19.1211 C   0  0  0  0  0  0  0  0  0  0  0  0
   10.9145  -18.0570   17.7673 C   0  0  0  0  0  0  0  0  0  0  0  0
   11.2986  -19.2442   17.2086 N   0  0  0  0  0  0  0  0  0  0  0  0
   11.6718  -20.0443   18.1932 C   0  0  0  0  0  0  0  0  0  0  0  0
   11.5432  -19.4240   19.3502 N   0  0  0  0  0  0  0  0  0  0  0  0
    9.5384  -16.0246   21.8382 C   0  0  0  0  0  0  0  0  0  0  0  0
    9.3355  -14.8218   21.7304 O   0  0  0  0  0  0  0  0  0  0  0  0
    6.1342  -14.6044   25.4344 C   0  0  0  0  0  0  0  0  0  0  0  0
    7.6740  -14.5453   25.4464 C   0  0  2  0  0  0  0  0  0  0  0  0
    8.0269  -13.1006   25.4181 C   0  0  0  0  0  0  0  0  0  0  0  0
    8.1400  -15.3663   24.2975 C   0  0  0  0  0  0  0  0  0  0  0  0
    9.5072  -15.9239   24.3732 C   0  0  2  0  0  0  0  0  0  0  0  0
    9.8405  -16.5830   23.1210 N   0  0  0  0  0  0  0  0  0  0  0  0
    9.8573  -16.7222   25.5394 C   0  0  0  0  0  0  0  0  0  0  0  0
    9.7173  -17.9690   25.4837 O   0  0  0  0  0  0  0  0  0  0  0  0
   10.4539  -11.8737   28.6407 C   0  0  0  0  0  0  0  0  0  0  0  0
   10.2841  -13.6101   28.9118 S   0  0  0  0  0  0  0  0  0  0  0  0
   11.7251  -14.5860   28.5527 C   0  0  0  0  0  0  0  0  0  0  0  0
   11.5314  -16.0246   28.8217 C   0  0  0  0  0  0  0  0  0  0  0  0
   11.2441  -16.9060   27.6476 C   0  0  2  0  0  0  0  0  0  0  0  0
   10.3510  -16.1561   26.7384 N   0  0  0  0  0  0  0  0  0  0  0  0
   10.5239  -18.1028   28.0921 C   0  0  0  0  0  0  0  0  0  0  0  0
    9.1971  -18.2726   27.7372 O   0  0  0  0  0  0  0  0  0  0  0  0
   11.0535  -18.9780   28.7775 O   0  0  0  0  0  0  0  0  0  0  0  0
  2  3  1  0
  2  1  1  6
  4  3  1  0
  5  4  2  0
  6  5  1  0
  6  7  1  0
  7  8  2  0
  8  4  1  0
  9 16  1  0
  9  2  1  0
 10  9  2  0
 12 11  1  6
 12 13  1  0
 14 12  1  0
 15 14  1  6
 15 16  1  0
 17 15  1  0
 18 17  2  0
 19 20  1  0
 20 21  1  0
 22 21  1  0
 23 22  1  1
 23 25  1  0
 23 24  1  0
 24 17  1  0
 25 26  1  0
 27 25  2  0
M  END
$$$$
