HLM.pdb
     RDKit          3D

 27 27  0  0  1  0  0  0  0  0999 V2000
   11.3591  -18.3246   18.6362 N   0  0  0  0  0  0  0  0  0  0  0  0
   10.0072  -18.3050   19.2736 C   0  0  1  0  0  0  0  0  0  0  0  0
    9.8599  -19.6460   19.9015 C   0  0  0  0  0  0  0  0  0  0  0  0
    9.4885  -20.7570   19.0279 C   0  0  0  0  0  0  0  0  0  0  0  0
    9.4206  -20.8839   17.6689 C   0  0  0  0  0  0  0  0  0  0  0  0
    9.0703  -22.1752   17.3876 N   0  0  0  0  0  0  0  0  0  0  0  0
    8.9320  -22.8094   18.5397 C   0  0  0  0  0  0  0  0  0  0  0  0
    9.1767  -21.9845   19.5395 N   0  0  0  0  0  0  0  0  0  0  0  0
   10.1061  -17.2976   20.4023 C   0  0  0  0  0  0  0  0  0  0  0  0
   11.1963  -17.0462   20.8999 O   0  0  0  0  0  0  0  0  0  0  0  0
    8.8982  -12.9534   20.5434 C   0  0  0  0  0  0  0  0  0  0  0  0
    7.7255  -13.9531   20.5399 C   0  0  2  0  0  0  0  0  0  0  0  0
    6.4960  -13.1389   20.3449 C   0  0  0  0  0  0  0  0  0  0  0  0
    7.8191  -14.7227   21.8088 C   0  0  0  0  0  0  0  0  0  0  0  0
    8.9604  -15.6511   21.9559 C   0  0  2  0  0  0  0  0  0  0  0  0
    8.9325  -16.6388   20.8896 N   0  0  0  0  0  0  0  0  0  0  0  0
    9.1969  -16.2431   23.2648 C   0  0  0  0  0  0  0  0  0  0  0  0
    8.5536  -17.2719   23.5891 O   0  0  0  0  0  0  0  0  0  0  0  0
    9.7975  -11.6935   28.2153 C   0  0  0  0  0  0  0  0  0  0  0  0
    9.0755  -13.1590   27.5456 S   0  0  0  0  0  0  0  0  0  0  0  0
   10.2100  -14.4818   27.1976 C   0  0  0  0  0  0  0  0  0  0  0  0
    9.5710  -15.6303   26.5254 C   0  0  0  0  0  0  0  0  0  0  0  0
   10.3803  -16.3568   25.4983 C   0  0  2  0  0  0  0  0  0  0  0  0
   10.1228  -15.7113   24.1931 N   0  0  0  0  0  0  0  0  0  0  0  0
    9.9268  -17.7476   25.4043 C   0  0  0  0  0  0  0  0  0  0  0  0
   10.2949  -18.6536   26.3835 O   0  0  0  0  0  0  0  0  0  0  0  0
    9.2223  -18.1533   24.4794 O   0  0  0  0  0  0  0  0  0  0  0  0
  2  3  1  0
  2  1  1  1
  4  3  1  0
  5  4  2  0
  6  5  1  0
  6  7  1  0
  7  8  2  0
  8  4  1  0
  9 16  1  0
  9  2  1  0
 10  9  2  0
 12 11  1  1
 12 13  1  0
 14 12  1  0
 15 14  1  1
 15 16  1  0
 17 15  1  0
 18 17  2  0
 19 20  1  0
 20 21  1  0
 22 21  1  0
 23 22  1  1
 23 25  1  0
 23 24  1  0
 24 17  1  0
 25 26  1  0
 27 25  2  0
M  END
$$$$
