PTW.pdb
     RDKit          3D

 29 31  0  0  1  0  0  0  0  0999 V2000
   27.9074  -19.1783  -17.4548 N   0  0  0  0  0  0  0  0  0  0  0  0
   28.2217  -18.1513  -18.4016 C   0  0  0  0  0  0  0  0  0  0  0  0
   29.2384  -17.2265  -17.7358 C   0  0  0  0  0  0  0  0  0  0  0  0
   29.9254  -18.1721  -16.7906 C   0  0  0  0  0  0  0  0  0  0  0  0
   28.8605  -19.1358  -16.3918 C   0  0  1  0  0  0  0  0  0  0  0  0
   28.2010  -18.8509  -15.1279 C   0  0  0  0  0  0  0  0  0  0  0  0
   28.3974  -17.7336  -14.5741 O   0  0  0  0  0  0  0  0  0  0  0  0
   25.0723  -17.8927  -14.3712 C   0  0  0  0  0  0  0  0  0  0  0  0
   25.2356  -19.0720  -13.4397 C   0  0  1  0  0  0  0  0  0  0  0  0
   24.5890  -20.2110  -13.8802 O   0  0  0  0  0  0  0  0  0  0  0  0
   26.6931  -19.3987  -13.1950 C   0  0  2  0  0  0  0  0  0  0  0  0
   27.3414  -19.7498  -14.4637 N   0  0  0  0  0  0  0  0  0  0  0  0
   26.8602  -20.4753  -12.2073 C   0  0  0  0  0  0  0  0  0  0  0  0
   27.3473  -21.5924  -12.5431 O   0  0  0  0  0  0  0  0  0  0  0  0
   26.4899  -20.2996  -10.8711 N   0  0  0  0  0  0  0  0  0  0  0  0
   26.5702  -21.3771   -9.8761 C   0  0  1  0  0  0  0  0  0  0  0  0
   27.7894  -21.2065   -9.0040 C   0  0  0  0  0  0  0  0  0  0  0  0
   27.6186  -20.1496   -7.9927 C   0  0  0  0  0  0  0  0  0  0  0  0
   26.8188  -19.0315   -7.9927 C   0  0  0  0  0  0  0  0  0  0  0  0
   26.9928  -18.3494   -6.8517 N   0  0  0  0  0  0  0  0  0  0  0  0
   27.8968  -18.9795   -6.0704 C   0  0  0  0  0  0  0  0  0  0  0  0
   28.4130  -18.6907   -4.8245 C   0  0  0  0  0  0  0  0  0  0  0  0
   29.3506  -19.5471   -4.2642 C   0  0  0  0  0  0  0  0  0  0  0  0
   29.7566  -20.6722   -4.9515 C   0  0  0  0  0  0  0  0  0  0  0  0
   29.2175  -20.9269   -6.1949 C   0  0  0  0  0  0  0  0  0  0  0  0
   28.2891  -20.0988   -6.7742 C   0  0  0  0  0  0  0  0  0  0  0  0
   25.3149  -21.3360   -9.0976 C   0  0  0  0  0  0  0  0  0  0  0  0
   24.3333  -20.4096   -9.3909 O   0  0  0  0  0  0  0  0  0  0  0  0
   25.0838  -22.1306   -8.1452 O   0  0  0  0  0  0  0  0  0  0  0  0
  1  5  1  0
  2  1  1  0
  3  2  1  0
  3  4  1  0
  4  5  1  0
  5  6  1  1
  6  7  2  0
  9  8  1  6
  9 11  1  0
 10  9  1  0
 11 12  1  6
 11 13  1  0
 12  6  1  0
 13 14  2  0
 13 15  1  0
 15 16  1  0
 16 27  1  0
 16 17  1  1
 18 17  1  0
 19 18  2  0
 20 19  1  0
 21 20  1  0
 21 26  2  0
 22 21  1  0
 23 22  2  0
 23 24  1  0
 24 25  2  0
 25 26  1  0
 26 18  1  0
 27 29  2  0
 27 28  1  0
M  END
$$$$
