PTW.pdb
     RDKit          3D

 29 31  0  0  1  0  0  0  0  0999 V2000
   27.2926  -21.4879  -16.8136 N   0  0  0  0  0  0  0  0  0  0  0  0
   27.1156  -20.8159  -18.0654 C   0  0  0  0  0  0  0  0  0  0  0  0
   28.1951  -19.7391  -18.1503 C   0  0  0  0  0  0  0  0  0  0  0  0
   29.2855  -20.3451  -17.3116 C   0  0  0  0  0  0  0  0  0  0  0  0
   28.5604  -21.1220  -16.2666 C   0  0  1  0  0  0  0  0  0  0  0  0
   28.3884  -20.4456  -14.9913 C   0  0  0  0  0  0  0  0  0  0  0  0
   28.9030  -19.3041  -14.8306 O   0  0  0  0  0  0  0  0  0  0  0  0
   27.4415  -18.1112  -14.1180 C   0  0  0  0  0  0  0  0  0  0  0  0
   26.6488  -18.9164  -13.1138 C   0  0  1  0  0  0  0  0  0  0  0  0
   25.3821  -19.2475  -13.5555 O   0  0  0  0  0  0  0  0  0  0  0  0
   27.3736  -20.1818  -12.7086 C   0  0  2  0  0  0  0  0  0  0  0  0
   27.6746  -20.9831  -13.9005 N   0  0  0  0  0  0  0  0  0  0  0  0
   26.6081  -20.9683  -11.7299 C   0  0  0  0  0  0  0  0  0  0  0  0
   26.0127  -22.0287  -12.0746 O   0  0  0  0  0  0  0  0  0  0  0  0
   26.5155  -20.5728  -10.3925 N   0  0  0  0  0  0  0  0  0  0  0  0
   25.9164  -21.4202   -9.3531 C   0  0  1  0  0  0  0  0  0  0  0  0
   26.8683  -21.5962   -8.1959 C   0  0  0  0  0  0  0  0  0  0  0  0
   27.1134  -20.3394   -7.4684 C   0  0  0  0  0  0  0  0  0  0  0  0
   26.7266  -19.0511   -7.7517 C   0  0  0  0  0  0  0  0  0  0  0  0
   27.1814  -18.2216   -6.8016 N   0  0  0  0  0  0  0  0  0  0  0  0
   27.8724  -18.9180   -5.8730 C   0  0  0  0  0  0  0  0  0  0  0  0
   28.5268  -18.5378   -4.7200 C   0  0  0  0  0  0  0  0  0  0  0  0
   29.1622  -19.5032   -3.9516 C   0  0  0  0  0  0  0  0  0  0  0  0
   29.1354  -20.8258   -4.3429 C   0  0  0  0  0  0  0  0  0  0  0  0
   28.4708  -21.1666   -5.5021 C   0  0  0  0  0  0  0  0  0  0  0  0
   27.8336  -20.2344   -6.2820 C   0  0  0  0  0  0  0  0  0  0  0  0
   24.6536  -20.7701   -8.9454 C   0  0  0  0  0  0  0  0  0  0  0  0
   23.8704  -21.3150   -7.9465 O   0  0  0  0  0  0  0  0  0  0  0  0
   24.2378  -19.7059   -9.4803 O   0  0  0  0  0  0  0  0  0  0  0  0
  1  5  1  0
  2  1  1  0
  3  2  1  0
  3  4  1  0
  4  5  1  0
  5  6  1  1
  6  7  2  0
  9  8  1  6
  9 11  1  0
 10  9  1  0
 11 12  1  6
 11 13  1  0
 12  6  1  0
 13 14  2  0
 13 15  1  0
 15 16  1  0
 16 27  1  0
 16 17  1  1
 18 17  1  0
 19 18  2  0
 20 19  1  0
 21 20  1  0
 21 26  2  0
 22 21  1  0
 23 22  2  0
 23 24  1  0
 24 25  2  0
 25 26  1  0
 26 18  1  0
 27 29  2  0
 27 28  1  0
M  END
$$$$
