PTW.pdb
     RDKit          3D

 29 31  0  0  1  0  0  0  0  0999 V2000
   26.5109  -16.4935  -17.5482 N   0  0  0  0  0  0  0  0  0  0  0  0
   25.6512  -15.3516  -17.6330 C   0  0  0  0  0  0  0  0  0  0  0  0
   25.3409  -14.9195  -16.2015 C   0  0  0  0  0  0  0  0  0  0  0  0
   26.5744  -15.3823  -15.4777 C   0  0  0  0  0  0  0  0  0  0  0  0
   26.9936  -16.6115  -16.2090 C   0  0  1  0  0  0  0  0  0  0  0  0
   26.5595  -17.8679  -15.6204 C   0  0  0  0  0  0  0  0  0  0  0  0
   25.3829  -18.2703  -15.8375 O   0  0  0  0  0  0  0  0  0  0  0  0
   27.6061  -21.3348  -16.0259 C   0  0  0  0  0  0  0  0  0  0  0  0
   27.6521  -21.0908  -14.5347 C   0  0  1  0  0  0  0  0  0  0  0  0
   28.9358  -20.9534  -14.0421 O   0  0  0  0  0  0  0  0  0  0  0  0
   26.8415  -19.8758  -14.1376 C   0  0  2  0  0  0  0  0  0  0  0  0
   27.3737  -18.6847  -14.8091 N   0  0  0  0  0  0  0  0  0  0  0  0
   26.8106  -19.6841  -12.6800 C   0  0  0  0  0  0  0  0  0  0  0  0
   27.4640  -18.7487  -12.1358 O   0  0  0  0  0  0  0  0  0  0  0  0
   26.0602  -20.5238  -11.8521 N   0  0  0  0  0  0  0  0  0  0  0  0
   25.9605  -20.3257  -10.4001 C   0  0  1  0  0  0  0  0  0  0  0  0
   24.7869  -19.4396  -10.0632 C   0  0  0  0  0  0  0  0  0  0  0  0
   23.4925  -20.0857  -10.3383 C   0  0  0  0  0  0  0  0  0  0  0  0
   22.6430  -20.7778   -9.5080 C   0  0  0  0  0  0  0  0  0  0  0  0
   21.5711  -21.1917  -10.1987 N   0  0  0  0  0  0  0  0  0  0  0  0
   21.6706  -20.7959  -11.4864 C   0  0  0  0  0  0  0  0  0  0  0  0
   20.8465  -20.9656  -12.5792 C   0  0  0  0  0  0  0  0  0  0  0  0
   21.2250  -20.4314  -13.8030 C   0  0  0  0  0  0  0  0  0  0  0  0
   22.4133  -19.7400  -13.9173 C   0  0  0  0  0  0  0  0  0  0  0  0
   23.2103  -19.5915  -12.8019 C   0  0  0  0  0  0  0  0  0  0  0  0
   22.8624  -20.1083  -11.5791 C   0  0  0  0  0  0  0  0  0  0  0  0
   25.8421  -21.6671   -9.7918 C   0  0  0  0  0  0  0  0  0  0  0  0
   25.8539  -21.8225   -8.4193 O   0  0  0  0  0  0  0  0  0  0  0  0
   25.7266  -22.7155  -10.4840 O   0  0  0  0  0  0  0  0  0  0  0  0
  1  5  1  0
  2  1  1  0
  3  2  1  0
  3  4  1  0
  4  5  1  0
  5  6  1  1
  6  7  2  0
  9  8  1  6
  9 11  1  0
 10  9  1  0
 11 12  1  6
 11 13  1  0
 12  6  1  0
 13 14  2  0
 13 15  1  0
 15 16  1  0
 16 27  1  0
 16 17  1  6
 18 17  1  0
 19 18  2  0
 20 19  1  0
 21 20  1  0
 21 26  2  0
 22 21  1  0
 23 22  2  0
 23 24  1  0
 24 25  2  0
 25 26  1  0
 26 18  1  0
 27 29  2  0
 27 28  1  0
M  END
$$$$
