PTW.pdb
     RDKit          3D

 29 31  0  0  1  0  0  0  0  0999 V2000
   24.9609  -17.4164  -14.9377 N   0  0  0  0  0  0  0  0  0  0  0  0
   25.3069  -16.0859  -14.5374 C   0  0  0  0  0  0  0  0  0  0  0  0
   26.6657  -15.7719  -15.1597 C   0  0  0  0  0  0  0  0  0  0  0  0
   26.6346  -16.6337  -16.3909 C   0  0  0  0  0  0  0  0  0  0  0  0
   25.8380  -17.8271  -15.9875 C   0  0  1  0  0  0  0  0  0  0  0  0
   26.6131  -18.9871  -15.5786 C   0  0  0  0  0  0  0  0  0  0  0  0
   27.4247  -19.4999  -16.3984 O   0  0  0  0  0  0  0  0  0  0  0  0
   28.9973  -20.2687  -15.7513 C   0  0  0  0  0  0  0  0  0  0  0  0
   28.7774  -20.5158  -14.2763 C   0  0  1  0  0  0  0  0  0  0  0  0
   29.2353  -19.4874  -13.4749 O   0  0  0  0  0  0  0  0  0  0  0  0
   27.3198  -20.7729  -13.9595 C   0  0  2  0  0  0  0  0  0  0  0  0
   26.5218  -19.5919  -14.3082 N   0  0  0  0  0  0  0  0  0  0  0  0
   27.1171  -21.1435  -12.5510 C   0  0  0  0  0  0  0  0  0  0  0  0
   27.5970  -22.2175  -12.0883 O   0  0  0  0  0  0  0  0  0  0  0  0
   26.3927  -20.3239  -11.6809 N   0  0  0  0  0  0  0  0  0  0  0  0
   26.0399  -20.7314  -10.3145 C   0  0  1  0  0  0  0  0  0  0  0  0
   27.0184  -20.1590   -9.3191 C   0  0  0  0  0  0  0  0  0  0  0  0
   26.5869  -20.3546   -7.9247 C   0  0  0  0  0  0  0  0  0  0  0  0
   25.4171  -20.8637   -7.4126 C   0  0  0  0  0  0  0  0  0  0  0  0
   25.4647  -20.8503   -6.0728 N   0  0  0  0  0  0  0  0  0  0  0  0
   26.6453  -20.3418   -5.6579 C   0  0  0  0  0  0  0  0  0  0  0  0
   27.1744  -20.1196   -4.4038 C   0  0  0  0  0  0  0  0  0  0  0  0
   28.4443  -19.5708   -4.2914 C   0  0  0  0  0  0  0  0  0  0  0  0
   29.1629  -19.2537   -5.4255 C   0  0  0  0  0  0  0  0  0  0  0  0
   28.5997  -19.4906   -6.6617 C   0  0  0  0  0  0  0  0  0  0  0  0
   27.3468  -20.0319   -6.8041 C   0  0  0  0  0  0  0  0  0  0  0  0
   24.6582  -20.2669  -10.0720 C   0  0  0  0  0  0  0  0  0  0  0  0
   23.9270  -20.7548   -9.0067 O   0  0  0  0  0  0  0  0  0  0  0  0
   24.0907  -19.4179  -10.8129 O   0  0  0  0  0  0  0  0  0  0  0  0
  1  5  1  0
  2  1  1  0
  3  2  1  0
  3  4  1  0
  4  5  1  0
  5  6  1  1
  6  7  2  0
  9  8  1  6
  9 11  1  0
 10  9  1  0
 11 12  1  1
 11 13  1  0
 12  6  1  0
 13 14  2  0
 13 15  1  0
 15 16  1  0
 16 27  1  0
 16 17  1  1
 18 17  1  0
 19 18  2  0
 20 19  1  0
 21 20  1  0
 21 26  2  0
 22 21  1  0
 23 22  2  0
 23 24  1  0
 24 25  2  0
 25 26  1  0
 26 18  1  0
 27 29  2  0
 27 28  1  0
M  END
$$$$
