PTW.pdb
     RDKit          3D

 29 31  0  0  1  0  0  0  0  0999 V2000
   27.7847  -20.9976  -17.8264 N   0  0  0  0  0  0  0  0  0  0  0  0
   28.8069  -21.6756  -18.5649 C   0  0  0  0  0  0  0  0  0  0  0  0
   29.2699  -22.8524  -17.7088 C   0  0  0  0  0  0  0  0  0  0  0  0
   28.0262  -23.1530  -16.9198 C   0  0  0  0  0  0  0  0  0  0  0  0
   27.3735  -21.8255  -16.7374 C   0  0  1  0  0  0  0  0  0  0  0  0
   27.6394  -21.1671  -15.4688 C   0  0  0  0  0  0  0  0  0  0  0  0
   28.7919  -20.6996  -15.2526 O   0  0  0  0  0  0  0  0  0  0  0  0
   27.4087  -18.1397  -14.3519 C   0  0  0  0  0  0  0  0  0  0  0  0
   26.6160  -18.8646  -13.2884 C   0  0  1  0  0  0  0  0  0  0  0  0
   25.2491  -18.7812  -13.4725 O   0  0  0  0  0  0  0  0  0  0  0  0
   27.0096  -20.3227  -13.1884 C   0  0  2  0  0  0  0  0  0  0  0  0
   26.6845  -21.0102  -14.4433 N   0  0  0  0  0  0  0  0  0  0  0  0
   26.3698  -20.9910  -12.0454 C   0  0  0  0  0  0  0  0  0  0  0  0
   25.3653  -21.7400  -12.2124 O   0  0  0  0  0  0  0  0  0  0  0  0
   26.8497  -20.8231  -10.7435 N   0  0  0  0  0  0  0  0  0  0  0  0
   26.2155  -21.4492   -9.5759 C   0  0  1  0  0  0  0  0  0  0  0  0
   27.2077  -21.6034   -8.4500 C   0  0  0  0  0  0  0  0  0  0  0  0
   27.3928  -20.3592   -7.6843 C   0  0  0  0  0  0  0  0  0  0  0  0
   26.9559  -19.0801   -7.9353 C   0  0  0  0  0  0  0  0  0  0  0  0
   27.3658  -18.2605   -6.9567 N   0  0  0  0  0  0  0  0  0  0  0  0
   28.0752  -18.9544   -6.0403 C   0  0  0  0  0  0  0  0  0  0  0  0
   28.7010  -18.5811   -4.8693 C   0  0  0  0  0  0  0  0  0  0  0  0
   29.3678  -19.5413   -4.1212 C   0  0  0  0  0  0  0  0  0  0  0  0
   29.4000  -20.8521   -4.5503 C   0  0  0  0  0  0  0  0  0  0  0  0
   28.7624  -21.1863   -5.7264 C   0  0  0  0  0  0  0  0  0  0  0  0
   28.0954  -20.2590   -6.4870 C   0  0  0  0  0  0  0  0  0  0  0  0
   25.0707  -20.5938   -9.2001 C   0  0  0  0  0  0  0  0  0  0  0  0
   24.0822  -21.0678   -8.3596 O   0  0  0  0  0  0  0  0  0  0  0  0
   24.9434  -19.4113   -9.6211 O   0  0  0  0  0  0  0  0  0  0  0  0
  1  5  1  0
  2  1  1  0
  3  2  1  0
  3  4  1  0
  4  5  1  0
  5  6  1  1
  6  7  2  0
  9  8  1  6
  9 11  1  0
 10  9  1  0
 11 12  1  6
 11 13  1  0
 12  6  1  0
 13 14  2  0
 13 15  1  0
 15 16  1  0
 16 27  1  0
 16 17  1  1
 18 17  1  0
 19 18  2  0
 20 19  1  0
 21 20  1  0
 21 26  2  0
 22 21  1  0
 23 22  2  0
 23 24  1  0
 24 25  2  0
 25 26  1  0
 26 18  1  0
 27 29  2  0
 27 28  1  0
M  END
$$$$
