PTW.pdb
     RDKit          3D

 29 31  0  0  1  0  0  0  0  0999 V2000
   28.6597  -20.5924  -17.5734 N   0  0  0  0  0  0  0  0  0  0  0  0
   29.7233  -21.4859  -17.9203 C   0  0  0  0  0  0  0  0  0  0  0  0
   29.6679  -22.6500  -16.9334 C   0  0  0  0  0  0  0  0  0  0  0  0
   28.2048  -22.6783  -16.5895 C   0  0  0  0  0  0  0  0  0  0  0  0
   27.7799  -21.2514  -16.6613 C   0  0  1  0  0  0  0  0  0  0  0  0
   27.7422  -20.5456  -15.3908 C   0  0  0  0  0  0  0  0  0  0  0  0
   28.1342  -19.3465  -15.3459 O   0  0  0  0  0  0  0  0  0  0  0  0
   26.3800  -18.3467  -14.5686 C   0  0  0  0  0  0  0  0  0  0  0  0
   25.8266  -19.2826  -13.5184 C   0  0  1  0  0  0  0  0  0  0  0  0
   24.6998  -19.9662  -13.9335 O   0  0  0  0  0  0  0  0  0  0  0  0
   26.8632  -20.2823  -13.0525 C   0  0  2  0  0  0  0  0  0  0  0  0
   27.2907  -21.1150  -14.1825 N   0  0  0  0  0  0  0  0  0  0  0  0
   26.3695  -21.1159  -11.9463 C   0  0  0  0  0  0  0  0  0  0  0  0
   25.7573  -22.1982  -12.1742 O   0  0  0  0  0  0  0  0  0  0  0  0
   26.5612  -20.7426  -10.6131 N   0  0  0  0  0  0  0  0  0  0  0  0
   26.1456  -21.5856   -9.4843 C   0  0  1  0  0  0  0  0  0  0  0  0
   27.2531  -21.6950   -8.4658 C   0  0  0  0  0  0  0  0  0  0  0  0
   27.4343  -20.4556   -7.6912 C   0  0  0  0  0  0  0  0  0  0  0  0
   27.0133  -19.1718   -7.9450 C   0  0  0  0  0  0  0  0  0  0  0  0
   27.4115  -18.3599   -6.9552 N   0  0  0  0  0  0  0  0  0  0  0  0
   28.0973  -19.0637   -6.0284 C   0  0  0  0  0  0  0  0  0  0  0  0
   28.7038  -18.7008   -4.8442 C   0  0  0  0  0  0  0  0  0  0  0  0
   29.3479  -19.6699   -4.0877 C   0  0  0  0  0  0  0  0  0  0  0  0
   29.3770  -20.9790   -4.5218 C   0  0  0  0  0  0  0  0  0  0  0  0
   28.7591  -21.3028   -5.7113 C   0  0  0  0  0  0  0  0  0  0  0  0
   28.1147  -20.3666   -6.4804 C   0  0  0  0  0  0  0  0  0  0  0  0
   24.9243  -20.9745   -8.9200 C   0  0  0  0  0  0  0  0  0  0  0  0
   24.2705  -21.5607   -7.8538 O   0  0  0  0  0  0  0  0  0  0  0  0
   24.4293  -19.9077   -9.3766 O   0  0  0  0  0  0  0  0  0  0  0  0
  1  5  1  0
  2  1  1  0
  3  2  1  0
  3  4  1  0
  4  5  1  0
  5  6  1  1
  6  7  2  0
  9  8  1  6
  9 11  1  0
 10  9  1  0
 11 12  1  6
 11 13  1  0
 12  6  1  0
 13 14  2  0
 13 15  1  0
 15 16  1  0
 16 27  1  0
 16 17  1  1
 18 17  1  0
 19 18  2  0
 20 19  1  0
 21 20  1  0
 21 26  2  0
 22 21  1  0
 23 22  2  0
 23 24  1  0
 24 25  2  0
 25 26  1  0
 26 18  1  0
 27 29  2  0
 27 28  1  0
M  END
$$$$
