PTW.pdb
     RDKit          3D

 29 31  0  0  1  0  0  0  0  0999 V2000
   26.5711  -18.7364  -16.1916 N   0  0  0  0  0  0  0  0  0  0  0  0
   26.0579  -17.6697  -16.9971 C   0  0  0  0  0  0  0  0  0  0  0  0
   25.8534  -16.4713  -16.0729 C   0  0  0  0  0  0  0  0  0  0  0  0
   26.9011  -16.7227  -15.0246 C   0  0  0  0  0  0  0  0  0  0  0  0
   26.9806  -18.2081  -14.9293 C   0  0  1  0  0  0  0  0  0  0  0  0
   26.2097  -18.8076  -13.8523 C   0  0  0  0  0  0  0  0  0  0  0  0
   25.1426  -18.2462  -13.4785 O   0  0  0  0  0  0  0  0  0  0  0  0
   24.2346  -21.7999  -13.6094 C   0  0  0  0  0  0  0  0  0  0  0  0
   25.2251  -21.8943  -12.4714 C   0  0  1  0  0  0  0  0  0  0  0  0
   26.2841  -22.7415  -12.7364 O   0  0  0  0  0  0  0  0  0  0  0  0
   25.7686  -20.5359  -12.0836 C   0  0  2  0  0  0  0  0  0  0  0  0
   26.5753  -19.9935  -13.1828 N   0  0  0  0  0  0  0  0  0  0  0  0
   26.5492  -20.5875  -10.8385 C   0  0  0  0  0  0  0  0  0  0  0  0
   27.7859  -20.3255  -10.8381 O   0  0  0  0  0  0  0  0  0  0  0  0
   25.9528  -20.9243   -9.6201 N   0  0  0  0  0  0  0  0  0  0  0  0
   26.5436  -20.5724   -8.3222 C   0  0  1  0  0  0  0  0  0  0  0  0
   26.7486  -19.0814   -8.2175 C   0  0  0  0  0  0  0  0  0  0  0  0
   27.5746  -18.7036   -7.0583 C   0  0  0  0  0  0  0  0  0  0  0  0
   28.1742  -17.5089   -6.7376 C   0  0  0  0  0  0  0  0  0  0  0  0
   28.8334  -17.6295   -5.5764 N   0  0  0  0  0  0  0  0  0  0  0  0
   28.6964  -18.8845   -5.0959 C   0  0  0  0  0  0  0  0  0  0  0  0
   29.1716  -19.5034   -3.9588 C   0  0  0  0  0  0  0  0  0  0  0  0
   28.8565  -20.8357   -3.7302 C   0  0  0  0  0  0  0  0  0  0  0  0
   28.0764  -21.5262   -4.6345 C   0  0  0  0  0  0  0  0  0  0  0  0
   27.6201  -20.8727   -5.7597 C   0  0  0  0  0  0  0  0  0  0  0  0
   27.9152  -19.5565   -6.0125 C   0  0  0  0  0  0  0  0  0  0  0  0
   25.6290  -21.0862   -7.2816 C   0  0  0  0  0  0  0  0  0  0  0  0
   26.1253  -21.6564   -6.1255 O   0  0  0  0  0  0  0  0  0  0  0  0
   24.3739  -21.0298   -7.3970 O   0  0  0  0  0  0  0  0  0  0  0  0
  1  5  1  0
  2  1  1  0
  3  2  1  0
  3  4  1  0
  4  5  1  0
  5  6  1  1
  6  7  2  0
  9  8  1  6
  9 11  1  0
 10  9  1  0
 11 12  1  6
 11 13  1  0
 12  6  1  0
 13 14  2  0
 13 15  1  0
 15 16  1  0
 16 27  1  0
 16 17  1  6
 18 17  1  0
 19 18  2  0
 20 19  1  0
 21 20  1  0
 21 26  2  0
 22 21  1  0
 23 22  2  0
 23 24  1  0
 24 25  2  0
 25 26  1  0
 26 18  1  0
 27 29  2  0
 27 28  1  0
M  END
$$$$
