PTW.pdb
     RDKit          3D

 29 31  0  0  1  0  0  0  0  0999 V2000
   27.6675  -22.2662  -15.2521 N   0  0  0  0  0  0  0  0  0  0  0  0
   27.3364  -22.1168  -16.6371 C   0  0  0  0  0  0  0  0  0  0  0  0
   27.7914  -20.7207  -17.0565 C   0  0  0  0  0  0  0  0  0  0  0  0
   28.9389  -20.4868  -16.1141 C   0  0  0  0  0  0  0  0  0  0  0  0
   28.5497  -21.2098  -14.8702 C   0  0  1  0  0  0  0  0  0  0  0  0
   27.9432  -20.3897  -13.8342 C   0  0  0  0  0  0  0  0  0  0  0  0
   27.8681  -19.1417  -14.0084 O   0  0  0  0  0  0  0  0  0  0  0  0
   25.9487  -18.6303  -13.6562 C   0  0  0  0  0  0  0  0  0  0  0  0
   25.4775  -19.4376  -12.4682 C   0  0  1  0  0  0  0  0  0  0  0  0
   24.5756  -20.4293  -12.8035 O   0  0  0  0  0  0  0  0  0  0  0  0
   26.6341  -20.0599  -11.7159 C   0  0  2  0  0  0  0  0  0  0  0  0
   27.4230  -20.8979  -12.6262 N   0  0  0  0  0  0  0  0  0  0  0  0
   26.1825  -20.8355  -10.5509 C   0  0  0  0  0  0  0  0  0  0  0  0
   26.2876  -22.0951  -10.5312 O   0  0  0  0  0  0  0  0  0  0  0  0
   25.6271  -20.2090   -9.4318 N   0  0  0  0  0  0  0  0  0  0  0  0
   25.2233  -20.9463   -8.2272 C   0  0  1  0  0  0  0  0  0  0  0  0
   25.4416  -20.1081   -6.9920 C   0  0  0  0  0  0  0  0  0  0  0  0
   26.7965  -19.5346   -6.9293 C   0  0  0  0  0  0  0  0  0  0  0  0
   27.4025  -18.5818   -7.7134 C   0  0  0  0  0  0  0  0  0  0  0  0
   28.6552  -18.3712   -7.2846 N   0  0  0  0  0  0  0  0  0  0  0  0
   28.9183  -19.1619   -6.2215 C   0  0  0  0  0  0  0  0  0  0  0  0
   30.0390  -19.3205   -5.4335 C   0  0  0  0  0  0  0  0  0  0  0  0
   30.0086  -20.2321   -4.3873 C   0  0  0  0  0  0  0  0  0  0  0  0
   28.8669  -20.9675   -4.1447 C   0  0  0  0  0  0  0  0  0  0  0  0
   27.7666  -20.7807   -4.9547 C   0  0  0  0  0  0  0  0  0  0  0  0
   27.7671  -19.8870   -5.9961 C   0  0  0  0  0  0  0  0  0  0  0  0
   23.8047  -21.3184   -8.4079 C   0  0  0  0  0  0  0  0  0  0  0  0
   23.1635  -22.1222   -7.4855 O   0  0  0  0  0  0  0  0  0  0  0  0
   23.1237  -20.9271   -9.3952 O   0  0  0  0  0  0  0  0  0  0  0  0
  1  5  1  0
  2  1  1  0
  3  2  1  0
  3  4  1  0
  4  5  1  0
  5  6  1  1
  6  7  2  0
  9  8  1  6
  9 11  1  0
 10  9  1  0
 11 12  1  6
 11 13  1  0
 12  6  1  0
 13 14  2  0
 13 15  1  0
 15 16  1  0
 16 27  1  0
 16 17  1  1
 18 17  1  0
 19 18  2  0
 20 19  1  0
 21 20  1  0
 21 26  2  0
 22 21  1  0
 23 22  2  0
 23 24  1  0
 24 25  2  0
 25 26  1  0
 26 18  1  0
 27 29  2  0
 27 28  1  0
M  END
$$$$
