PTW.pdb
     RDKit          3D

 29 31  0  0  1  0  0  0  0  0999 V2000
   27.5006  -21.9867  -17.6640 N   0  0  0  0  0  0  0  0  0  0  0  0
   27.4464  -21.4837  -19.0034 C   0  0  0  0  0  0  0  0  0  0  0  0
   28.3203  -20.2321  -19.0458 C   0  0  0  0  0  0  0  0  0  0  0  0
   29.3235  -20.5338  -17.9677 C   0  0  0  0  0  0  0  0  0  0  0  0
   28.5617  -21.3328  -16.9663 C   0  0  1  0  0  0  0  0  0  0  0  0
   28.0410  -20.5839  -15.8342 C   0  0  0  0  0  0  0  0  0  0  0  0
   28.7463  -19.6647  -15.3330 O   0  0  0  0  0  0  0  0  0  0  0  0
   25.1689  -18.3393  -15.4135 C   0  0  0  0  0  0  0  0  0  0  0  0
   25.0309  -19.3853  -14.3309 C   0  0  1  0  0  0  0  0  0  0  0  0
   24.0691  -20.3375  -14.6094 O   0  0  0  0  0  0  0  0  0  0  0  0
   26.3448  -20.0824  -14.0506 C   0  0  2  0  0  0  0  0  0  0  0  0
   26.7811  -20.8149  -15.2448 N   0  0  0  0  0  0  0  0  0  0  0  0
   26.2576  -20.9805  -12.8895 C   0  0  0  0  0  0  0  0  0  0  0  0
   26.1817  -22.2329  -13.0436 O   0  0  0  0  0  0  0  0  0  0  0  0
   26.2577  -20.4823  -11.5836 N   0  0  0  0  0  0  0  0  0  0  0  0
   26.1586  -21.3496  -10.4023 C   0  0  1  0  0  0  0  0  0  0  0  0
   27.3829  -21.2060   -9.5324 C   0  0  0  0  0  0  0  0  0  0  0  0
   27.0756  -20.6262   -8.2140 C   0  0  0  0  0  0  0  0  0  0  0  0
   25.8686  -20.3435   -7.6197 C   0  0  0  0  0  0  0  0  0  0  0  0
   26.0740  -19.8172   -6.4038 N   0  0  0  0  0  0  0  0  0  0  0  0
   27.3990  -19.7344   -6.1544 C   0  0  0  0  0  0  0  0  0  0  0  0
   28.1154  -19.2752   -5.0691 C   0  0  0  0  0  0  0  0  0  0  0  0
   29.5022  -19.3181   -5.1051 C   0  0  0  0  0  0  0  0  0  0  0  0
   30.1495  -19.8157   -6.2171 C   0  0  0  0  0  0  0  0  0  0  0  0
   29.3983  -20.2655   -7.2825 C   0  0  0  0  0  0  0  0  0  0  0  0
   28.0263  -20.2356   -7.2756 C   0  0  0  0  0  0  0  0  0  0  0  0
   24.9199  -20.9678   -9.6930 C   0  0  0  0  0  0  0  0  0  0  0  0
   24.3633  -21.8047   -8.7455 O   0  0  0  0  0  0  0  0  0  0  0  0
   24.3222  -19.8790   -9.9147 O   0  0  0  0  0  0  0  0  0  0  0  0
  1  5  1  0
  2  1  1  0
  3  2  1  0
  3  4  1  0
  4  5  1  0
  5  6  1  1
  6  7  2  0
  9  8  1  6
  9 11  1  0
 10  9  1  0
 11 12  1  6
 11 13  1  0
 12  6  1  0
 13 14  2  0
 13 15  1  0
 15 16  1  0
 16 27  1  0
 16 17  1  1
 18 17  1  0
 19 18  2  0
 20 19  1  0
 21 20  1  0
 21 26  2  0
 22 21  1  0
 23 22  2  0
 23 24  1  0
 24 25  2  0
 25 26  1  0
 26 18  1  0
 27 29  2  0
 27 28  1  0
M  END
$$$$
