PTW.pdb
     RDKit          3D

 29 31  0  0  1  0  0  0  0  0999 V2000
   27.3818  -21.2776  -17.5629 N   0  0  0  0  0  0  0  0  0  0  0  0
   28.4923  -21.2614  -18.4665 C   0  0  0  0  0  0  0  0  0  0  0  0
   29.7117  -21.7434  -17.6837 C   0  0  0  0  0  0  0  0  0  0  0  0
   29.0720  -22.6390  -16.6597 C   0  0  0  0  0  0  0  0  0  0  0  0
   27.7483  -22.0085  -16.3917 C   0  0  1  0  0  0  0  0  0  0  0  0
   27.6897  -21.1522  -15.2183 C   0  0  0  0  0  0  0  0  0  0  0  0
   28.1191  -19.9681  -15.3037 O   0  0  0  0  0  0  0  0  0  0  0  0
   26.4614  -18.7346  -14.5126 C   0  0  0  0  0  0  0  0  0  0  0  0
   25.9207  -19.5573  -13.3655 C   0  0  1  0  0  0  0  0  0  0  0  0
   24.7277  -20.1893  -13.6600 O   0  0  0  0  0  0  0  0  0  0  0  0
   26.9204  -20.5913  -12.8938 C   0  0  2  0  0  0  0  0  0  0  0  0
   27.1781  -21.5568  -13.9682 N   0  0  0  0  0  0  0  0  0  0  0  0
   26.4726  -21.2762  -11.6720 C   0  0  0  0  0  0  0  0  0  0  0  0
   25.9163  -22.4098  -11.7318 O   0  0  0  0  0  0  0  0  0  0  0  0
   26.6480  -20.7008  -10.4104 N   0  0  0  0  0  0  0  0  0  0  0  0
   26.3169  -21.4034   -9.1637 C   0  0  1  0  0  0  0  0  0  0  0  0
   27.4742  -21.3470   -8.1975 C   0  0  0  0  0  0  0  0  0  0  0  0
   27.4992  -20.0987   -7.4165 C   0  0  0  0  0  0  0  0  0  0  0  0
   26.9613  -18.8628   -7.6867 C   0  0  0  0  0  0  0  0  0  0  0  0
   27.2367  -18.0188   -6.6821 N   0  0  0  0  0  0  0  0  0  0  0  0
   27.9529  -18.6537   -5.7289 C   0  0  0  0  0  0  0  0  0  0  0  0
   28.4729  -18.2362   -4.5217 C   0  0  0  0  0  0  0  0  0  0  0  0
   29.1811  -19.1385   -3.7403 C   0  0  0  0  0  0  0  0  0  0  0  0
   29.3588  -20.4364   -4.1728 C   0  0  0  0  0  0  0  0  0  0  0  0
   28.8238  -20.8160   -5.3858 C   0  0  0  0  0  0  0  0  0  0  0  0
   28.1191  -19.9464   -6.1797 C   0  0  0  0  0  0  0  0  0  0  0  0
   25.1019  -20.7620   -8.6200 C   0  0  0  0  0  0  0  0  0  0  0  0
   24.4910  -21.2573   -7.4844 O   0  0  0  0  0  0  0  0  0  0  0  0
   24.5738  -19.7499   -9.1570 O   0  0  0  0  0  0  0  0  0  0  0  0
  1  5  1  0
  2  1  1  0
  3  2  1  0
  3  4  1  0
  4  5  1  0
  5  6  1  1
  6  7  2  0
  9  8  1  6
  9 11  1  0
 10  9  1  0
 11 12  1  6
 11 13  1  0
 12  6  1  0
 13 14  2  0
 13 15  1  0
 15 16  1  0
 16 27  1  0
 16 17  1  1
 18 17  1  0
 19 18  2  0
 20 19  1  0
 21 20  1  0
 21 26  2  0
 22 21  1  0
 23 22  2  0
 23 24  1  0
 24 25  2  0
 25 26  1  0
 26 18  1  0
 27 29  2  0
 27 28  1  0
M  END
$$$$
