NNF.pdb
     RDKit          3D

 28 28  0  0  1  0  0  0  0  0999 V2000
    7.8308  -12.3631   17.3536 N   0  0  0  0  0  0  0  0  0  0  0  0
    7.9757  -13.7588   17.2219 C   0  0  0  0  0  0  0  0  0  0  0  0
    8.5601  -14.1950   16.1911 O   0  0  0  0  0  0  0  0  0  0  0  0
    7.4639  -14.6903   18.2517 C   0  0  0  0  0  0  0  0  0  0  0  0
    7.8110  -14.2784   19.6622 C   0  0  2  0  0  0  0  0  0  0  0  0
    9.0065  -13.5053   19.7790 N   0  0  0  0  0  0  0  0  0  0  0  0
    7.7527  -15.4294   20.5969 C   0  0  0  0  0  0  0  0  0  0  0  0
    6.7602  -16.1976   20.5134 O   0  0  0  0  0  0  0  0  0  0  0  0
    8.7061  -20.1589   22.5963 N   0  0  0  0  0  0  0  0  0  0  0  0
    9.6102  -19.0972   22.8561 C   0  0  0  0  0  0  0  0  0  0  0  0
   10.3913  -19.2178   23.8314 O   0  0  0  0  0  0  0  0  0  0  0  0
    9.5880  -17.9103   21.9716 C   0  0  0  0  0  0  0  0  0  0  0  0
    8.6837  -16.8334   22.4845 C   0  0  2  0  0  0  0  0  0  0  0  0
    8.7298  -15.7148   21.5652 N   0  0  0  0  0  0  0  0  0  0  0  0
    9.0828  -16.3552   23.8340 C   0  0  0  0  0  0  0  0  0  0  0  0
   10.0848  -15.5939   23.9784 O   0  0  0  0  0  0  0  0  0  0  0  0
    8.3761  -16.7191   25.0052 N   0  0  0  0  0  0  0  0  0  0  0  0
    8.7291  -16.2706   26.3443 C   0  0  1  0  0  0  0  0  0  0  0  0
    7.5615  -15.5961   27.0160 C   0  0  0  0  0  0  0  0  0  0  0  0
    7.3318  -14.2587   26.4776 C   0  0  0  0  0  0  0  0  0  0  0  0
    8.3120  -13.2946   26.7062 C   0  0  0  0  0  0  0  0  0  0  0  0
    8.1221  -12.0278   26.1978 C   0  0  0  0  0  0  0  0  0  0  0  0
    6.9993  -11.6887   25.4749 C   0  0  0  0  0  0  0  0  0  0  0  0
    6.0277  -12.6302   25.2440 C   0  0  0  0  0  0  0  0  0  0  0  0
    6.2145  -13.9001   25.7518 C   0  0  0  0  0  0  0  0  0  0  0  0
    9.3746  -17.3212   27.1303 C   0  0  0  0  0  0  0  0  0  0  0  0
    9.5594  -18.6263   26.7599 O   0  0  0  0  0  0  0  0  0  0  0  0
    9.8129  -16.9922   28.2847 O   0  0  0  0  0  0  0  0  0  0  0  0
  2  1  1  0
  2  3  2  0
  4  2  1  0
  5  7  1  0
  5  4  1  0
  5  6  1  6
  7  8  2  0
  9 10  1  0
 10 12  1  0
 10 11  2  0
 13 12  1  6
 13 14  1  0
 13 15  1  0
 14  7  1  0
 15 17  1  0
 15 16  2  0
 17 18  1  0
 18 26  1  0
 18 19  1  1
 20 19  1  0
 20 25  2  0
 21 20  1  0
 22 21  2  0
 22 23  1  0
 23 24  2  0
 24 25  1  0
 26 28  2  0
 26 27  1  0
M  END
$$$$
