NNF.pdb
     RDKit          3D

 28 28  0  0  1  0  0  0  0  0999 V2000
    7.3937  -12.7207   17.3822 N   0  0  0  0  0  0  0  0  0  0  0  0
    8.2181  -13.7989   17.0024 C   0  0  0  0  0  0  0  0  0  0  0  0
    8.1446  -14.2035   15.8086 O   0  0  0  0  0  0  0  0  0  0  0  0
    9.1423  -14.4419   17.9627 C   0  0  0  0  0  0  0  0  0  0  0  0
    8.5885  -15.7045   18.5782 C   0  0  2  0  0  0  0  0  0  0  0  0
    7.3577  -15.5327   19.2825 N   0  0  0  0  0  0  0  0  0  0  0  0
    9.6224  -16.4320   19.3551 C   0  0  0  0  0  0  0  0  0  0  0  0
    9.6248  -17.6880   19.2880 O   0  0  0  0  0  0  0  0  0  0  0  0
   12.6218  -13.9923   19.7438 N   0  0  0  0  0  0  0  0  0  0  0  0
   13.0151  -14.6587   20.9326 C   0  0  0  0  0  0  0  0  0  0  0  0
   13.5322  -13.9708   21.8465 O   0  0  0  0  0  0  0  0  0  0  0  0
   12.7978  -16.1195   21.0355 C   0  0  0  0  0  0  0  0  0  0  0  0
   11.3523  -16.4710   21.2010 C   0  0  2  0  0  0  0  0  0  0  0  0
   10.5941  -15.8111   20.1578 N   0  0  0  0  0  0  0  0  0  0  0  0
   10.8144  -16.0457   22.5197 C   0  0  0  0  0  0  0  0  0  0  0  0
   11.4301  -16.3298   23.5896 O   0  0  0  0  0  0  0  0  0  0  0  0
    9.6088  -15.3147   22.6449 N   0  0  0  0  0  0  0  0  0  0  0  0
    9.0475  -14.8770   23.9147 C   0  0  1  0  0  0  0  0  0  0  0  0
    8.0533  -13.7633   23.7133 C   0  0  0  0  0  0  0  0  0  0  0  0
    7.4694  -13.3294   24.9791 C   0  0  0  0  0  0  0  0  0  0  0  0
    8.1386  -12.3351   25.6904 C   0  0  0  0  0  0  0  0  0  0  0  0
    7.6002  -11.9015   26.8827 C   0  0  0  0  0  0  0  0  0  0  0  0
    6.4275  -12.4186   27.3886 C   0  0  0  0  0  0  0  0  0  0  0  0
    5.7605  -13.3981   26.6964 C   0  0  0  0  0  0  0  0  0  0  0  0
    6.2969  -13.8349   25.5019 C   0  0  0  0  0  0  0  0  0  0  0  0
    8.5699  -15.9955   24.7265 C   0  0  0  0  0  0  0  0  0  0  0  0
    8.7961  -16.1951   26.0620 O   0  0  0  0  0  0  0  0  0  0  0  0
    7.8685  -16.8827   24.1317 O   0  0  0  0  0  0  0  0  0  0  0  0
  2  1  1  0
  2  3  2  0
  4  2  1  0
  5  7  1  0
  5  4  1  0
  5  6  1  1
  7  8  2  0
  9 10  1  0
 10 12  1  0
 10 11  2  0
 13 12  1  1
 13 14  1  0
 13 15  1  0
 14  7  1  0
 15 17  1  0
 15 16  2  0
 17 18  1  0
 18 26  1  0
 18 19  1  6
 20 19  1  0
 20 25  2  0
 21 20  1  0
 22 21  2  0
 22 23  1  0
 23 24  2  0
 24 25  1  0
 26 28  2  0
 26 27  1  0
M  END
$$$$
