NNF.pdb
     RDKit          3D

 28 28  0  0  1  0  0  0  0  0999 V2000
    2.5109  -18.3806   20.7038 N   0  0  0  0  0  0  0  0  0  0  0  0
    3.5994  -18.3893   19.8087 C   0  0  0  0  0  0  0  0  0  0  0  0
    3.6582  -19.3250   18.9630 O   0  0  0  0  0  0  0  0  0  0  0  0
    4.6437  -17.3415   19.8503 C   0  0  0  0  0  0  0  0  0  0  0  0
    5.9110  -17.7816   20.5429 C   0  0  2  0  0  0  0  0  0  0  0  0
    5.7101  -18.3987   21.8154 N   0  0  0  0  0  0  0  0  0  0  0  0
    6.9276  -16.7007   20.5593 C   0  0  0  0  0  0  0  0  0  0  0  0
    7.1512  -16.0952   19.4797 O   0  0  0  0  0  0  0  0  0  0  0  0
    7.1442  -12.9079   19.2037 N   0  0  0  0  0  0  0  0  0  0  0  0
    8.1073  -13.7218   19.8532 C   0  0  0  0  0  0  0  0  0  0  0  0
    9.0411  -14.1925   19.1589 O   0  0  0  0  0  0  0  0  0  0  0  0
    7.9646  -13.9732   21.3052 C   0  0  0  0  0  0  0  0  0  0  0  0
    8.6310  -15.2435   21.7325 C   0  0  2  0  0  0  0  0  0  0  0  0
    7.6537  -16.3123   21.6976 N   0  0  0  0  0  0  0  0  0  0  0  0
    9.1882  -15.1549   23.1075 C   0  0  0  0  0  0  0  0  0  0  0  0
   10.1391  -14.3597   23.3683 O   0  0  0  0  0  0  0  0  0  0  0  0
    8.6936  -15.9401   24.1764 N   0  0  0  0  0  0  0  0  0  0  0  0
    9.2596  -15.9430   25.5175 C   0  0  1  0  0  0  0  0  0  0  0  0
    8.2041  -15.6528   26.5524 C   0  0  0  0  0  0  0  0  0  0  0  0
    7.8450  -14.2379   26.5709 C   0  0  0  0  0  0  0  0  0  0  0  0
    8.8379  -13.3254   26.9232 C   0  0  0  0  0  0  0  0  0  0  0  0
    8.5251  -11.9832   26.9366 C   0  0  0  0  0  0  0  0  0  0  0  0
    7.2682  -11.5201   26.6142 C   0  0  0  0  0  0  0  0  0  0  0  0
    6.2830  -12.4099   26.2660 C   0  0  0  0  0  0  0  0  0  0  0  0
    6.5926  -13.7550   26.2515 C   0  0  0  0  0  0  0  0  0  0  0  0
   10.0713  -17.1314   25.7757 C   0  0  0  0  0  0  0  0  0  0  0  0
   10.8657  -17.3608   26.8671 O   0  0  0  0  0  0  0  0  0  0  0  0
   10.0403  -18.0551   24.8933 O   0  0  0  0  0  0  0  0  0  0  0  0
  2  1  1  0
  2  3  2  0
  4  2  1  0
  5  7  1  0
  5  4  1  0
  5  6  1  1
  7  8  2  0
  9 10  1  0
 10 12  1  0
 10 11  2  0
 13 12  1  1
 13 14  1  0
 13 15  1  0
 14  7  1  0
 15 17  1  0
 15 16  2  0
 17 18  1  0
 18 26  1  0
 18 19  1  1
 20 19  1  0
 20 25  2  0
 21 20  1  0
 22 21  2  0
 22 23  1  0
 23 24  2  0
 24 25  1  0
 26 28  2  0
 26 27  1  0
M  END
$$$$
