NNF.pdb
     RDKit          3D

 28 28  0  0  1  0  0  0  0  0999 V2000
    9.3176  -13.2710   16.8801 N   0  0  0  0  0  0  0  0  0  0  0  0
    8.2335  -14.1677   16.7959 C   0  0  0  0  0  0  0  0  0  0  0  0
    7.9573  -14.6522   15.6631 O   0  0  0  0  0  0  0  0  0  0  0  0
    7.4394  -14.5356   17.9892 C   0  0  0  0  0  0  0  0  0  0  0  0
    7.8827  -13.8302   19.2484 C   0  0  2  0  0  0  0  0  0  0  0  0
    8.4533  -12.5379   19.0370 N   0  0  0  0  0  0  0  0  0  0  0  0
    8.7110  -14.7137   20.1061 C   0  0  0  0  0  0  0  0  0  0  0  0
    8.2319  -15.8324   20.4239 O   0  0  0  0  0  0  0  0  0  0  0  0
   13.0206  -16.1556   19.3849 N   0  0  0  0  0  0  0  0  0  0  0  0
   12.6888  -14.8887   19.9299 C   0  0  0  0  0  0  0  0  0  0  0  0
   12.8102  -13.8822   19.1897 O   0  0  0  0  0  0  0  0  0  0  0  0
   12.2198  -14.8174   21.3323 C   0  0  0  0  0  0  0  0  0  0  0  0
   10.7817  -15.2076   21.4734 C   0  0  2  0  0  0  0  0  0  0  0  0
    9.9897  -14.3823   20.5845 N   0  0  0  0  0  0  0  0  0  0  0  0
   10.2803  -15.0270   22.8609 C   0  0  0  0  0  0  0  0  0  0  0  0
   10.4573  -13.9325   23.4735 O   0  0  0  0  0  0  0  0  0  0  0  0
    9.5916  -16.0501   23.5557 N   0  0  0  0  0  0  0  0  0  0  0  0
    9.1381  -15.9382   24.9344 C   0  0  1  0  0  0  0  0  0  0  0  0
    7.6692  -15.6102   24.9974 C   0  0  0  0  0  0  0  0  0  0  0  0
    7.4347  -14.3161   25.6309 C   0  0  0  0  0  0  0  0  0  0  0  0
    8.5230  -13.6856   26.2313 C   0  0  0  0  0  0  0  0  0  0  0  0
    8.3280  -12.4577   26.8259 C   0  0  0  0  0  0  0  0  0  0  0  0
    7.0970  -11.8391   26.8440 C   0  0  0  0  0  0  0  0  0  0  0  0
    6.0185  -12.4511   26.2558 C   0  0  0  0  0  0  0  0  0  0  0  0
    6.2100  -13.6811   25.6594 C   0  0  0  0  0  0  0  0  0  0  0  0
    9.5549  -17.0773   25.7509 C   0  0  0  0  0  0  0  0  0  0  0  0
   10.1737  -18.2176   25.3130 O   0  0  0  0  0  0  0  0  0  0  0  0
    9.3186  -17.0066   27.0047 O   0  0  0  0  0  0  0  0  0  0  0  0
  2  1  1  0
  2  3  2  0
  4  2  1  0
  5  7  1  0
  5  4  1  0
  5  6  1  6
  7  8  2  0
  9 10  1  0
 10 12  1  0
 10 11  2  0
 13 12  1  1
 13 14  1  0
 13 15  1  0
 14  7  1  0
 15 17  1  0
 15 16  2  0
 17 18  1  0
 18 26  1  0
 18 19  1  6
 20 19  1  0
 20 25  2  0
 21 20  1  0
 22 21  2  0
 22 23  1  0
 23 24  2  0
 24 25  1  0
 26 28  2  0
 26 27  1  0
M  END
$$$$
