NNF.pdb
     RDKit          3D

 28 28  0  0  1  0  0  0  0  0999 V2000
    8.4111  -12.4500   17.6006 N   0  0  0  0  0  0  0  0  0  0  0  0
    7.4008  -13.4263   17.7135 C   0  0  0  0  0  0  0  0  0  0  0  0
    6.4945  -13.4394   16.8345 O   0  0  0  0  0  0  0  0  0  0  0  0
    7.3936  -14.4076   18.8211 C   0  0  0  0  0  0  0  0  0  0  0  0
    8.4112  -14.1099   19.8961 C   0  0  2  0  0  0  0  0  0  0  0  0
    9.7179  -13.8005   19.4090 N   0  0  0  0  0  0  0  0  0  0  0  0
    8.4017  -15.1457   20.9586 C   0  0  0  0  0  0  0  0  0  0  0  0
    7.3392  -15.2973   21.6145 O   0  0  0  0  0  0  0  0  0  0  0  0
   11.8560  -18.2848   19.9867 N   0  0  0  0  0  0  0  0  0  0  0  0
   10.6790  -18.4164   20.7673 C   0  0  0  0  0  0  0  0  0  0  0  0
    9.6954  -19.0007   20.2508 O   0  0  0  0  0  0  0  0  0  0  0  0
   10.6694  -17.8630   22.1404 C   0  0  0  0  0  0  0  0  0  0  0  0
    9.5303  -16.9188   22.3670 C   0  0  2  0  0  0  0  0  0  0  0  0
    9.4982  -15.9639   21.2781 N   0  0  0  0  0  0  0  0  0  0  0  0
    9.6590  -16.1745   23.6471 C   0  0  0  0  0  0  0  0  0  0  0  0
    9.7126  -14.9089   23.6549 O   0  0  0  0  0  0  0  0  0  0  0  0
    9.7266  -16.8299   24.8999 N   0  0  0  0  0  0  0  0  0  0  0  0
    9.0549  -16.3618   26.1035 C   0  0  1  0  0  0  0  0  0  0  0  0
    7.6381  -15.9449   25.8069 C   0  0  0  0  0  0  0  0  0  0  0  0
    7.4333  -14.5216   26.0591 C   0  0  0  0  0  0  0  0  0  0  0  0
    8.4910  -13.8076   26.6195 C   0  0  0  0  0  0  0  0  0  0  0  0
    8.3247  -12.4601   26.8563 C   0  0  0  0  0  0  0  0  0  0  0  0
    7.1514  -11.8025   26.5571 C   0  0  0  0  0  0  0  0  0  0  0  0
    6.1035  -12.4960   26.0053 C   0  0  0  0  0  0  0  0  0  0  0  0
    6.2664  -13.8458   25.7668 C   0  0  0  0  0  0  0  0  0  0  0  0
    9.2066  -17.2915   27.2219 C   0  0  0  0  0  0  0  0  0  0  0  0
    9.6107  -18.5979   27.1535 O   0  0  0  0  0  0  0  0  0  0  0  0
    8.9341  -16.8429   28.3870 O   0  0  0  0  0  0  0  0  0  0  0  0
  2  1  1  0
  2  3  2  0
  4  2  1  0
  5  7  1  0
  5  4  1  0
  5  6  1  6
  7  8  2  0
  9 10  1  0
 10 12  1  0
 10 11  2  0
 13 12  1  6
 13 14  1  0
 13 15  1  0
 14  7  1  0
 15 17  1  0
 15 16  2  0
 17 18  1  0
 18 26  1  0
 18 19  1  6
 20 19  1  0
 20 25  2  0
 21 20  1  0
 22 21  2  0
 22 23  1  0
 23 24  2  0
 24 25  1  0
 26 28  2  0
 26 27  1  0
M  END
$$$$
