NNF.pdb
     RDKit          3D

 28 28  0  0  1  0  0  0  0  0999 V2000
   12.7461  -17.8432   17.1672 N   0  0  0  0  0  0  0  0  0  0  0  0
   11.8523  -18.3454   18.1343 C   0  0  0  0  0  0  0  0  0  0  0  0
   12.1771  -19.4030   18.7426 O   0  0  0  0  0  0  0  0  0  0  0  0
   10.5737  -17.6633   18.4342 C   0  0  0  0  0  0  0  0  0  0  0  0
   10.2466  -17.6178   19.9075 C   0  0  2  0  0  0  0  0  0  0  0  0
   10.0454  -18.8962   20.5120 N   0  0  0  0  0  0  0  0  0  0  0  0
    9.1635  -16.6455   20.1963 C   0  0  0  0  0  0  0  0  0  0  0  0
    8.7298  -15.9553   19.2383 O   0  0  0  0  0  0  0  0  0  0  0  0
    4.4689  -16.5444   22.1511 N   0  0  0  0  0  0  0  0  0  0  0  0
    5.0691  -17.6516   21.4984 C   0  0  0  0  0  0  0  0  0  0  0  0
    4.3182  -18.5770   21.1039 O   0  0  0  0  0  0  0  0  0  0  0  0
    6.5382  -17.6604   21.3165 C   0  0  0  0  0  0  0  0  0  0  0  0
    7.1724  -16.3702   21.7329 C   0  0  2  0  0  0  0  0  0  0  0  0
    8.5940  -16.4467   21.4652 N   0  0  0  0  0  0  0  0  0  0  0  0
    6.9766  -16.0845   23.1783 C   0  0  0  0  0  0  0  0  0  0  0  0
    6.3591  -15.0437   23.5523 O   0  0  0  0  0  0  0  0  0  0  0  0
    7.4611  -16.9454   24.1921 N   0  0  0  0  0  0  0  0  0  0  0  0
    8.0835  -16.4856   25.4250 C   0  0  1  0  0  0  0  0  0  0  0  0
    7.0939  -15.7509   26.2912 C   0  0  0  0  0  0  0  0  0  0  0  0
    7.1548  -14.3090   26.0714 C   0  0  0  0  0  0  0  0  0  0  0  0
    8.3871  -13.7623   25.7179 C   0  0  0  0  0  0  0  0  0  0  0  0
    8.4663  -12.4046   25.4943 C   0  0  0  0  0  0  0  0  0  0  0  0
    7.3703  -11.5775   25.6091 C   0  0  0  0  0  0  0  0  0  0  0  0
    6.1521  -12.1054   25.9568 C   0  0  0  0  0  0  0  0  0  0  0  0
    6.0690  -13.4648   26.1816 C   0  0  0  0  0  0  0  0  0  0  0  0
    8.8308  -17.5462   26.0995 C   0  0  0  0  0  0  0  0  0  0  0  0
    9.0416  -18.8193   25.6421 O   0  0  0  0  0  0  0  0  0  0  0  0
    9.3417  -17.2602   27.2353 O   0  0  0  0  0  0  0  0  0  0  0  0
  2  1  1  0
  2  3  2  0
  4  2  1  0
  5  7  1  0
  5  4  1  0
  5  6  1  6
  7  8  2  0
  9 10  1  0
 10 12  1  0
 10 11  2  0
 13 12  1  1
 13 14  1  0
 13 15  1  0
 14  7  1  0
 15 17  1  0
 15 16  2  0
 17 18  1  0
 18 26  1  0
 18 19  1  1
 20 19  1  0
 20 25  2  0
 21 20  1  0
 22 21  2  0
 22 23  1  0
 23 24  2  0
 24 25  1  0
 26 28  2  0
 26 27  1  0
M  END
$$$$
