NNF.pdb
     RDKit          3D

 28 28  0  0  1  0  0  0  0  0999 V2000
    7.8682  -14.3319   16.7449 N   0  0  0  0  0  0  0  0  0  0  0  0
    7.3320  -14.0692   18.0216 C   0  0  0  0  0  0  0  0  0  0  0  0
    6.7970  -12.9419   18.2144 O   0  0  0  0  0  0  0  0  0  0  0  0
    7.3889  -15.0742   19.1064 C   0  0  0  0  0  0  0  0  0  0  0  0
    7.9625  -14.5368   20.3955 C   0  0  2  0  0  0  0  0  0  0  0  0
    8.9961  -13.5653   20.2274 N   0  0  0  0  0  0  0  0  0  0  0  0
    8.3206  -15.6312   21.3315 C   0  0  0  0  0  0  0  0  0  0  0  0
    7.4248  -16.4647   21.6230 O   0  0  0  0  0  0  0  0  0  0  0  0
   10.2912  -18.9779   20.8646 N   0  0  0  0  0  0  0  0  0  0  0  0
   11.3352  -18.0630   21.1563 C   0  0  0  0  0  0  0  0  0  0  0  0
   12.2284  -17.8972   20.2901 O   0  0  0  0  0  0  0  0  0  0  0  0
   11.3193  -17.3552   22.4565 C   0  0  0  0  0  0  0  0  0  0  0  0
    9.9539  -16.8621   22.8210 C   0  0  2  0  0  0  0  0  0  0  0  0
    9.5899  -15.7953   21.9111 N   0  0  0  0  0  0  0  0  0  0  0  0
    9.8935  -16.3409   24.2116 C   0  0  0  0  0  0  0  0  0  0  0  0
   10.6551  -15.3986   24.5810 O   0  0  0  0  0  0  0  0  0  0  0  0
    8.9979  -16.8613   25.1764 N   0  0  0  0  0  0  0  0  0  0  0  0
    9.0100  -16.4924   26.5845 C   0  0  1  0  0  0  0  0  0  0  0  0
    7.6668  -15.9669   27.0192 C   0  0  0  0  0  0  0  0  0  0  0  0
    7.5351  -14.5388   26.7467 C   0  0  0  0  0  0  0  0  0  0  0  0
    6.6176  -14.1504   25.7721 C   0  0  0  0  0  0  0  0  0  0  0  0
    6.4679  -12.8065   25.5057 C   0  0  0  0  0  0  0  0  0  0  0  0
    7.1938  -11.8421   26.1700 C   0  0  0  0  0  0  0  0  0  0  0  0
    8.1002  -12.2135   27.1314 C   0  0  0  0  0  0  0  0  0  0  0  0
    8.2528  -13.5586   27.4009 C   0  0  0  0  0  0  0  0  0  0  0  0
    9.5670  -17.5468   27.4306 C   0  0  0  0  0  0  0  0  0  0  0  0
   10.1941  -17.3849   28.6370 O   0  0  0  0  0  0  0  0  0  0  0  0
    9.4609  -18.7465   27.0037 O   0  0  0  0  0  0  0  0  0  0  0  0
  2  1  1  0
  2  3  2  0
  4  2  1  0
  5  7  1  0
  5  4  1  0
  5  6  1  6
  7  8  2  0
  9 10  1  0
 10 12  1  0
 10 11  2  0
 13 12  1  6
 13 14  1  0
 13 15  1  0
 14  7  1  0
 15 17  1  0
 15 16  2  0
 17 18  1  0
 18 26  1  0
 18 19  1  1
 20 19  1  0
 20 25  2  0
 21 20  1  0
 22 21  2  0
 22 23  1  0
 23 24  2  0
 24 25  1  0
 26 28  2  0
 26 27  1  0
M  END
$$$$
