NNF.pdb
     RDKit          3D

 28 28  0  0  1  0  0  0  0  0999 V2000
    7.9238  -20.5579   18.3084 N   0  0  0  0  0  0  0  0  0  0  0  0
    7.5987  -19.2222   17.9977 C   0  0  0  0  0  0  0  0  0  0  0  0
    6.6139  -19.0187   17.2341 O   0  0  0  0  0  0  0  0  0  0  0  0
    8.3788  -18.0891   18.5432 C   0  0  0  0  0  0  0  0  0  0  0  0
    8.3015  -17.9732   20.0466 C   0  0  2  0  0  0  0  0  0  0  0  0
    6.9912  -18.1422   20.5897 N   0  0  0  0  0  0  0  0  0  0  0  0
    8.9969  -16.7574   20.5368 C   0  0  0  0  0  0  0  0  0  0  0  0
   10.2374  -16.6785   20.3442 O   0  0  0  0  0  0  0  0  0  0  0  0
    6.6260  -13.4428   19.3939 N   0  0  0  0  0  0  0  0  0  0  0  0
    7.9617  -13.2734   19.8401 C   0  0  0  0  0  0  0  0  0  0  0  0
    8.8523  -13.1017   18.9723 O   0  0  0  0  0  0  0  0  0  0  0  0
    8.2365  -13.3069   21.2944 C   0  0  0  0  0  0  0  0  0  0  0  0
    9.0315  -14.5094   21.6972 C   0  0  2  0  0  0  0  0  0  0  0  0
    8.3619  -15.6938   21.1996 N   0  0  0  0  0  0  0  0  0  0  0  0
    9.1703  -14.6274   23.1724 C   0  0  0  0  0  0  0  0  0  0  0  0
    9.7011  -13.6959   23.8469 O   0  0  0  0  0  0  0  0  0  0  0  0
    8.7242  -15.7657   23.8856 N   0  0  0  0  0  0  0  0  0  0  0  0
    8.8558  -15.9301   25.3260 C   0  0  1  0  0  0  0  0  0  0  0  0
    7.5423  -15.6866   26.0221 C   0  0  0  0  0  0  0  0  0  0  0  0
    7.2594  -14.2603   26.1513 C   0  0  0  0  0  0  0  0  0  0  0  0
    6.1557  -13.7572   25.4647 C   0  0  0  0  0  0  0  0  0  0  0  0
    5.8625  -12.4155   25.5808 C   0  0  0  0  0  0  0  0  0  0  0  0
    6.6231  -11.5628   26.3506 C   0  0  0  0  0  0  0  0  0  0  0  0
    7.7121  -12.0476   27.0307 C   0  0  0  0  0  0  0  0  0  0  0  0
    8.0089  -13.3908   26.9168 C   0  0  0  0  0  0  0  0  0  0  0  0
    9.5253  -17.1798   25.6840 C   0  0  0  0  0  0  0  0  0  0  0  0
   10.0288  -18.1167   24.8218 O   0  0  0  0  0  0  0  0  0  0  0  0
    9.6558  -17.4286   26.9306 O   0  0  0  0  0  0  0  0  0  0  0  0
  2  1  1  0
  2  3  2  0
  4  2  1  0
  5  7  1  0
  5  4  1  0
  5  6  1  6
  7  8  2  0
  9 10  1  0
 10 12  1  0
 10 11  2  0
 13 12  1  1
 13 14  1  0
 13 15  1  0
 14  7  1  0
 15 17  1  0
 15 16  2  0
 17 18  1  0
 18 26  1  0
 18 19  1  1
 20 19  1  0
 20 25  2  0
 21 20  1  0
 22 21  2  0
 22 23  1  0
 23 24  2  0
 24 25  1  0
 26 28  2  0
 26 27  1  0
M  END
$$$$
