NNF.pdb
     RDKit          3D

 28 28  0  0  1  0  0  0  0  0999 V2000
    9.2315  -13.4794   17.5959 N   0  0  0  0  0  0  0  0  0  0  0  0
    7.8850  -13.3125   17.9774 C   0  0  0  0  0  0  0  0  0  0  0  0
    7.1081  -12.7444   17.1602 O   0  0  0  0  0  0  0  0  0  0  0  0
    7.3886  -13.7839   19.2894 C   0  0  0  0  0  0  0  0  0  0  0  0
    8.4617  -14.4034   20.1521 C   0  0  2  0  0  0  0  0  0  0  0  0
    9.3606  -15.2672   19.4548 N   0  0  0  0  0  0  0  0  0  0  0  0
    7.8925  -15.0051   21.3833 C   0  0  0  0  0  0  0  0  0  0  0  0
    7.1361  -14.2869   22.0864 O   0  0  0  0  0  0  0  0  0  0  0  0
    5.3028  -19.4513   22.6902 N   0  0  0  0  0  0  0  0  0  0  0  0
    6.3884  -19.0195   23.4947 C   0  0  0  0  0  0  0  0  0  0  0  0
    6.3001  -19.1845   24.7360 O   0  0  0  0  0  0  0  0  0  0  0  0
    7.5613  -18.4014   22.8360 C   0  0  0  0  0  0  0  0  0  0  0  0
    7.5995  -16.9159   23.0155 C   0  0  2  0  0  0  0  0  0  0  0  0
    8.1433  -16.3191   21.8128 N   0  0  0  0  0  0  0  0  0  0  0  0
    8.4413  -16.5074   24.1703 C   0  0  0  0  0  0  0  0  0  0  0  0
    9.6622  -16.2125   24.0062 O   0  0  0  0  0  0  0  0  0  0  0  0
    7.9309  -16.4281   25.4882 N   0  0  0  0  0  0  0  0  0  0  0  0
    8.7078  -15.9933   26.6399 C   0  0  1  0  0  0  0  0  0  0  0  0
    7.8721  -15.1577   27.5739 C   0  0  0  0  0  0  0  0  0  0  0  0
    7.5118  -13.8773   26.9721 C   0  0  0  0  0  0  0  0  0  0  0  0
    8.5486  -13.0082   26.6370 C   0  0  0  0  0  0  0  0  0  0  0  0
    8.2332  -11.7983   26.0572 C   0  0  0  0  0  0  0  0  0  0  0  0
    6.9318  -11.4253   25.8008 C   0  0  0  0  0  0  0  0  0  0  0  0
    5.9033  -12.2734   26.1270 C   0  0  0  0  0  0  0  0  0  0  0  0
    6.2154  -13.4861   26.7078 C   0  0  0  0  0  0  0  0  0  0  0  0
    9.4294  -17.0967   27.2722 C   0  0  0  0  0  0  0  0  0  0  0  0
   10.4292  -16.9967   28.2023 O   0  0  0  0  0  0  0  0  0  0  0  0
    9.0966  -18.2800   26.9231 O   0  0  0  0  0  0  0  0  0  0  0  0
  2  1  1  0
  2  3  2  0
  4  2  1  0
  5  7  1  0
  5  4  1  0
  5  6  1  6
  7  8  2  0
  9 10  1  0
 10 12  1  0
 10 11  2  0
 13 12  1  6
 13 14  1  0
 13 15  1  0
 14  7  1  0
 15 17  1  0
 15 16  2  0
 17 18  1  0
 18 26  1  0
 18 19  1  1
 20 19  1  0
 20 25  2  0
 21 20  1  0
 22 21  2  0
 22 23  1  0
 23 24  2  0
 24 25  1  0
 26 28  2  0
 26 27  1  0
M  END
$$$$
