NNF.pdb
     RDKit          3D

 28 28  0  0  1  0  0  0  0  0999 V2000
    6.7231  -12.9664   18.2549 N   0  0  0  0  0  0  0  0  0  0  0  0
    8.0854  -13.2891   18.4166 C   0  0  0  0  0  0  0  0  0  0  0  0
    8.8710  -13.0185   17.4659 O   0  0  0  0  0  0  0  0  0  0  0  0
    8.5884  -13.9238   19.6552 C   0  0  0  0  0  0  0  0  0  0  0  0
    9.0342  -15.3532   19.4611 C   0  0  2  0  0  0  0  0  0  0  0  0
    8.0401  -16.2164   18.9069 N   0  0  0  0  0  0  0  0  0  0  0  0
    9.6784  -15.8947   20.6833 C   0  0  0  0  0  0  0  0  0  0  0  0
   10.6934  -15.2946   21.1212 O   0  0  0  0  0  0  0  0  0  0  0  0
   12.1126  -20.4483   21.7958 N   0  0  0  0  0  0  0  0  0  0  0  0
   11.3901  -19.4161   21.1442 C   0  0  0  0  0  0  0  0  0  0  0  0
   10.8182  -19.6942   20.0619 O   0  0  0  0  0  0  0  0  0  0  0  0
   11.3469  -18.0741   21.7677 C   0  0  0  0  0  0  0  0  0  0  0  0
   10.0073  -17.7623   22.3582 C   0  0  2  0  0  0  0  0  0  0  0  0
    9.2302  -17.0298   21.3794 N   0  0  0  0  0  0  0  0  0  0  0  0
   10.1109  -16.9410   23.5927 C   0  0  0  0  0  0  0  0  0  0  0  0
   10.9401  -15.9862   23.6646 O   0  0  0  0  0  0  0  0  0  0  0  0
    9.3026  -17.1795   24.7300 N   0  0  0  0  0  0  0  0  0  0  0  0
    8.7445  -16.1295   25.5697 C   0  0  1  0  0  0  0  0  0  0  0  0
    7.9719  -15.1309   24.7481 C   0  0  0  0  0  0  0  0  0  0  0  0
    7.4446  -14.0491   25.5745 C   0  0  0  0  0  0  0  0  0  0  0  0
    8.1484  -12.8463   25.5877 C   0  0  0  0  0  0  0  0  0  0  0  0
    7.6634  -11.8069   26.3518 C   0  0  0  0  0  0  0  0  0  0  0  0
    6.5107  -11.9212   27.0979 C   0  0  0  0  0  0  0  0  0  0  0  0
    5.8099  -13.1013   27.0923 C   0  0  0  0  0  0  0  0  0  0  0  0
    6.2928  -14.1445   26.3282 C   0  0  0  0  0  0  0  0  0  0  0  0
    8.0304  -16.6648   26.7280 C   0  0  0  0  0  0  0  0  0  0  0  0
    6.9799  -17.5428   26.7100 O   0  0  0  0  0  0  0  0  0  0  0  0
    8.4234  -16.2748   27.8797 O   0  0  0  0  0  0  0  0  0  0  0  0
  2  1  1  0
  2  3  2  0
  4  2  1  0
  5  7  1  0
  5  4  1  0
  5  6  1  1
  7  8  2  0
  9 10  1  0
 10 12  1  0
 10 11  2  0
 13 12  1  6
 13 14  1  0
 13 15  1  0
 14  7  1  0
 15 17  1  0
 15 16  2  0
 17 18  1  0
 18 26  1  0
 18 19  1  6
 20 19  1  0
 20 25  2  0
 21 20  1  0
 22 21  2  0
 22 23  1  0
 23 24  2  0
 24 25  1  0
 26 28  2  0
 26 27  1  0
M  END
$$$$
