NAG.pdb
     RDKit          3D

 18 17  0  0  1  0  0  0  0  0999 V2000
    6.6614  -18.5944   16.6820 N   0  0  0  0  0  0  0  0  0  0  0  0
    6.9349  -18.6660   18.0711 C   0  0  0  0  0  0  0  0  0  0  0  0
    6.6096  -19.6677   18.7563 O   0  0  0  0  0  0  0  0  0  0  0  0
    7.6224  -17.5402   18.7547 C   0  0  0  0  0  0  0  0  0  0  0  0
    7.8180  -16.3666   17.7950 C   0  0  2  0  0  0  0  0  0  0  0  0
    8.7164  -16.6973   16.7297 N   0  0  0  0  0  0  0  0  0  0  0  0
    8.3895  -15.2636   18.6002 C   0  0  0  0  0  0  0  0  0  0  0  0
    9.6338  -15.2412   18.7722 O   0  0  0  0  0  0  0  0  0  0  0  0
    7.1821  -12.1274   20.1654 C   0  0  0  0  0  0  0  0  0  0  0  0
    8.2178  -13.2289   19.9547 C   0  0  2  0  0  0  0  0  0  0  0  0
    7.5865  -14.2425   19.1773 N   0  0  0  0  0  0  0  0  0  0  0  0
    8.7149  -13.6988   21.2580 C   0  0  0  0  0  0  0  0  0  0  0  0
    9.2763  -12.9291   22.0756 O   0  0  0  0  0  0  0  0  0  0  0  0
    8.5433  -15.0724   21.5815 N   0  0  0  0  0  0  0  0  0  0  0  0
    8.9110  -15.6177   22.8740 C   0  0  0  0  0  0  0  0  0  0  0  0
   10.2707  -16.1596   22.8002 C   0  0  0  0  0  0  0  0  0  0  0  0
   10.9311  -16.1591   21.7247 O   0  0  0  0  0  0  0  0  0  0  0  0
   10.8713  -16.6911   23.9199 O   0  0  0  0  0  0  0  0  0  0  0  0
  2  1  1  0
  3  2  2  0
  4  2  1  0
  5  4  1  0
  5  6  1  6
  7  5  1  0
  8  7  2  0
 10  9  1  1
 10 12  1  0
 10 11  1  0
 11  7  1  0
 12 13  2  0
 14 15  1  0
 14 12  1  0
 15 16  1  0
 16 17  2  0
 16 18  1  0
M  END
$$$$
