NAG.pdb
     RDKit          3D

 18 17  0  0  1  0  0  0  0  0999 V2000
    9.1664  -15.9756   14.0075 N   0  0  0  0  0  0  0  0  0  0  0  0
   10.2200  -15.5284   14.8439 C   0  0  0  0  0  0  0  0  0  0  0  0
   11.4008  -15.9287   14.6878 O   0  0  0  0  0  0  0  0  0  0  0  0
    9.9444  -14.5625   15.9386 C   0  0  0  0  0  0  0  0  0  0  0  0
   10.0966  -15.2366   17.3021 C   0  0  2  0  0  0  0  0  0  0  0  0
    9.2228  -16.3635   17.4366 N   0  0  0  0  0  0  0  0  0  0  0  0
    9.7438  -14.2133   18.3120 C   0  0  0  0  0  0  0  0  0  0  0  0
   10.5534  -13.2728   18.5076 O   0  0  0  0  0  0  0  0  0  0  0  0
    6.7610  -13.1509   20.1705 C   0  0  0  0  0  0  0  0  0  0  0  0
    8.2772  -13.2357   20.0142 C   0  0  2  0  0  0  0  0  0  0  0  0
    8.5346  -14.2601   19.0577 N   0  0  0  0  0  0  0  0  0  0  0  0
    8.8989  -13.4747   21.3269 C   0  0  0  0  0  0  0  0  0  0  0  0
    8.6846  -12.7281   22.3132 O   0  0  0  0  0  0  0  0  0  0  0  0
    9.7667  -14.5927   21.4603 N   0  0  0  0  0  0  0  0  0  0  0  0
   10.3841  -14.9503   22.7229 C   0  0  0  0  0  0  0  0  0  0  0  0
   11.2500  -16.1159   22.5237 C   0  0  0  0  0  0  0  0  0  0  0  0
   11.7184  -16.4125   21.3899 O   0  0  0  0  0  0  0  0  0  0  0  0
   11.5795  -16.9293   23.5851 O   0  0  0  0  0  0  0  0  0  0  0  0
  2  1  1  0
  3  2  2  0
  4  2  1  0
  5  4  1  0
  5  6  1  6
  7  5  1  0
  8  7  2  0
 10  9  1  1
 10 12  1  0
 10 11  1  0
 11  7  1  0
 12 13  2  0
 14 15  1  0
 14 12  1  0
 15 16  1  0
 16 17  2  0
 16 18  1  0
M  END
$$$$
