NAG.pdb
     RDKit          3D

 18 17  0  0  1  0  0  0  0  0999 V2000
   10.0708  -16.7729   12.7393 N   0  0  0  0  0  0  0  0  0  0  0  0
    9.1565  -15.8932   13.3715 C   0  0  0  0  0  0  0  0  0  0  0  0
    7.9874  -15.7349   12.9389 O   0  0  0  0  0  0  0  0  0  0  0  0
    9.5691  -15.1290   14.5770 C   0  0  0  0  0  0  0  0  0  0  0  0
    9.0411  -15.7988   15.8455 C   0  0  2  0  0  0  0  0  0  0  0  0
    7.6095  -15.8346   15.8693 N   0  0  0  0  0  0  0  0  0  0  0  0
    9.5348  -14.9855   16.9798 C   0  0  0  0  0  0  0  0  0  0  0  0
   10.7732  -14.9538   17.1888 O   0  0  0  0  0  0  0  0  0  0  0  0
    8.1903  -12.5639   19.4252 C   0  0  0  0  0  0  0  0  0  0  0  0
    9.2057  -13.6152   18.9842 C   0  0  2  0  0  0  0  0  0  0  0  0
    8.6643  -14.2492   17.8287 N   0  0  0  0  0  0  0  0  0  0  0  0
    9.4806  -14.5376   20.0979 C   0  0  0  0  0  0  0  0  0  0  0  0
    8.5889  -15.2675   20.5960 O   0  0  0  0  0  0  0  0  0  0  0  0
   10.8054  -14.5877   20.6109 N   0  0  0  0  0  0  0  0  0  0  0  0
   11.1883  -15.4815   21.6868 C   0  0  0  0  0  0  0  0  0  0  0  0
   12.6383  -15.4040   21.8858 C   0  0  0  0  0  0  0  0  0  0  0  0
   13.3846  -14.7525   21.1039 O   0  0  0  0  0  0  0  0  0  0  0  0
   13.2320  -16.0501   22.9474 O   0  0  0  0  0  0  0  0  0  0  0  0
  2  1  1  0
  3  2  2  0
  4  2  1  0
  5  4  1  0
  5  6  1  6
  7  5  1  0
  8  7  2  0
 10  9  1  1
 10 12  1  0
 10 11  1  0
 11  7  1  0
 12 13  2  0
 14 15  1  0
 14 12  1  0
 15 16  1  0
 16 17  2  0
 16 18  1  0
M  END
$$$$
