NAG.pdb
     RDKit          3D

 18 17  0  0  1  0  0  0  0  0999 V2000
    6.9742  -13.1519   15.2842 N   0  0  0  0  0  0  0  0  0  0  0  0
    8.2228  -13.7666   15.5536 C   0  0  0  0  0  0  0  0  0  0  0  0
    8.8231  -14.4481   14.6852 O   0  0  0  0  0  0  0  0  0  0  0  0
    8.8561  -13.6148   16.8889 C   0  0  0  0  0  0  0  0  0  0  0  0
    8.8614  -14.9479   17.6368 C   0  0  2  0  0  0  0  0  0  0  0  0
    7.5755  -15.5779   17.6060 N   0  0  0  0  0  0  0  0  0  0  0  0
    9.2266  -14.6362   19.0371 C   0  0  0  0  0  0  0  0  0  0  0  0
   10.4076  -14.2794   19.2741 O   0  0  0  0  0  0  0  0  0  0  0  0
    7.5498  -14.4001   22.3330 C   0  0  0  0  0  0  0  0  0  0  0  0
    8.7742  -14.6079   21.4452 C   0  0  2  0  0  0  0  0  0  0  0  0
    8.2962  -14.7263   20.1081 N   0  0  0  0  0  0  0  0  0  0  0  0
    9.5339  -15.7784   21.9135 C   0  0  0  0  0  0  0  0  0  0  0  0
    9.0400  -16.9324   21.9295 O   0  0  0  0  0  0  0  0  0  0  0  0
   10.8686  -15.5731   22.3577 N   0  0  0  0  0  0  0  0  0  0  0  0
   11.7287  -16.6675   22.7648 C   0  0  0  0  0  0  0  0  0  0  0  0
   12.3677  -16.3306   24.0400 C   0  0  0  0  0  0  0  0  0  0  0  0
   13.5910  -16.0288   24.1134 O   0  0  0  0  0  0  0  0  0  0  0  0
   11.6382  -16.3350   25.2082 O   0  0  0  0  0  0  0  0  0  0  0  0
  2  1  1  0
  3  2  2  0
  4  2  1  0
  5  4  1  0
  5  6  1  1
  7  5  1  0
  8  7  2  0
 10  9  1  1
 10 12  1  0
 10 11  1  0
 11  7  1  0
 12 13  2  0
 14 15  1  0
 14 12  1  0
 15 16  1  0
 16 17  2  0
 16 18  1  0
M  END
$$$$
