NAG.pdb
     RDKit          3D

 18 17  0  0  1  0  0  0  0  0999 V2000
    9.4435  -15.0149   13.0771 N   0  0  0  0  0  0  0  0  0  0  0  0
    8.4696  -15.3307   14.0576 C   0  0  0  0  0  0  0  0  0  0  0  0
    7.7072  -16.3219   13.9343 O   0  0  0  0  0  0  0  0  0  0  0  0
    8.3291  -14.4826   15.2693 C   0  0  0  0  0  0  0  0  0  0  0  0
    8.8566  -15.2150   16.5030 C   0  0  2  0  0  0  0  0  0  0  0  0
    8.0225  -16.3238   16.8580 N   0  0  0  0  0  0  0  0  0  0  0  0
    8.8587  -14.2248   17.6035 C   0  0  0  0  0  0  0  0  0  0  0  0
    9.7612  -13.3510   17.6100 O   0  0  0  0  0  0  0  0  0  0  0  0
    6.7168  -13.0155   20.3041 C   0  0  0  0  0  0  0  0  0  0  0  0
    8.0970  -13.4119   19.7859 C   0  0  2  0  0  0  0  0  0  0  0  0
    7.8852  -14.2308   18.6393 N   0  0  0  0  0  0  0  0  0  0  0  0
    8.8591  -14.0717   20.8584 C   0  0  0  0  0  0  0  0  0  0  0  0
    9.0559  -13.5252   21.9713 O   0  0  0  0  0  0  0  0  0  0  0  0
    9.3803  -15.3697   20.6048 N   0  0  0  0  0  0  0  0  0  0  0  0
    9.9379  -16.2014   21.6539 C   0  0  0  0  0  0  0  0  0  0  0  0
   11.3998  -16.1031   21.6222 C   0  0  0  0  0  0  0  0  0  0  0  0
   12.0009  -15.3719   20.7874 O   0  0  0  0  0  0  0  0  0  0  0  0
   12.1663  -16.8171   22.5164 O   0  0  0  0  0  0  0  0  0  0  0  0
  2  1  1  0
  3  2  2  0
  4  2  1  0
  5  4  1  0
  5  6  1  1
  7  5  1  0
  8  7  2  0
 10  9  1  1
 10 12  1  0
 10 11  1  0
 11  7  1  0
 12 13  2  0
 14 15  1  0
 14 12  1  0
 15 16  1  0
 16 17  2  0
 16 18  1  0
M  END
$$$$
