NAG.pdb
     RDKit          3D

 18 17  0  0  1  0  0  0  0  0999 V2000
   10.0860  -17.2129   13.9097 N   0  0  0  0  0  0  0  0  0  0  0  0
    9.0085  -16.3692   14.2795 C   0  0  0  0  0  0  0  0  0  0  0  0
    7.9651  -16.2891   13.5839 O   0  0  0  0  0  0  0  0  0  0  0  0
    9.0931  -15.5503   15.5162 C   0  0  0  0  0  0  0  0  0  0  0  0
    8.7646  -16.3969   16.7458 C   0  0  2  0  0  0  0  0  0  0  0  0
    7.3812  -16.7663   16.7807 N   0  0  0  0  0  0  0  0  0  0  0  0
    9.0827  -15.5582   17.9235 C   0  0  0  0  0  0  0  0  0  0  0  0
   10.2917  -15.3266   18.1744 O   0  0  0  0  0  0  0  0  0  0  0  0
    7.3138  -13.4471   20.3734 C   0  0  0  0  0  0  0  0  0  0  0  0
    8.4719  -14.3559   19.9694 C   0  0  2  0  0  0  0  0  0  0  0  0
    8.0777  -15.0137   18.7685 N   0  0  0  0  0  0  0  0  0  0  0  0
    8.7921  -15.2732   21.0751 C   0  0  0  0  0  0  0  0  0  0  0  0
    8.4440  -16.4793   21.0644 O   0  0  0  0  0  0  0  0  0  0  0  0
    9.5200  -14.7559   22.1813 N   0  0  0  0  0  0  0  0  0  0  0  0
   10.9696  -14.7389   22.2175 C   0  0  0  0  0  0  0  0  0  0  0  0
   11.4603  -16.0821   22.5384 C   0  0  0  0  0  0  0  0  0  0  0  0
   12.1809  -16.3046   23.5503 O   0  0  0  0  0  0  0  0  0  0  0  0
   11.1423  -17.1519   21.7313 O   0  0  0  0  0  0  0  0  0  0  0  0
  2  1  1  0
  3  2  2  0
  4  2  1  0
  5  4  1  0
  5  6  1  6
  7  5  1  0
  8  7  2  0
 10  9  1  1
 10 12  1  0
 10 11  1  0
 11  7  1  0
 12 13  2  0
 14 15  1  0
 14 12  1  0
 15 16  1  0
 16 17  2  0
 16 18  1  0
M  END
$$$$
