NAG.pdb
     RDKit          3D

 18 17  0  0  1  0  0  0  0  0999 V2000
    8.3158  -17.6616   25.9823 N   0  0  0  0  0  0  0  0  0  0  0  0
    7.2220  -18.1354   25.2151 C   0  0  0  0  0  0  0  0  0  0  0  0
    6.4311  -19.0041   25.6609 O   0  0  0  0  0  0  0  0  0  0  0  0
    6.9857  -17.6059   23.8472 C   0  0  0  0  0  0  0  0  0  0  0  0
    8.0901  -16.6262   23.4510 C   0  0  2  0  0  0  0  0  0  0  0  0
    8.1954  -15.5421   24.3811 N   0  0  0  0  0  0  0  0  0  0  0  0
    7.7191  -16.1003   22.1179 C   0  0  0  0  0  0  0  0  0  0  0  0
    7.4439  -16.9268   21.2126 O   0  0  0  0  0  0  0  0  0  0  0  0
    6.8426  -12.9031   20.5378 C   0  0  0  0  0  0  0  0  0  0  0  0
    7.4766  -14.2907   20.4837 C   0  0  2  0  0  0  0  0  0  0  0  0
    7.6649  -14.7088   21.8328 N   0  0  0  0  0  0  0  0  0  0  0  0
    8.7189  -14.2384   19.6959 C   0  0  0  0  0  0  0  0  0  0  0  0
    9.7622  -13.6911   20.1297 O   0  0  0  0  0  0  0  0  0  0  0  0
    8.7154  -14.8328   18.4046 N   0  0  0  0  0  0  0  0  0  0  0  0
    9.9032  -14.8947   17.5749 C   0  0  0  0  0  0  0  0  0  0  0  0
    9.5811  -15.5823   16.3213 C   0  0  0  0  0  0  0  0  0  0  0  0
    9.6591  -16.8370   16.2101 O   0  0  0  0  0  0  0  0  0  0  0  0
    9.1789  -14.8654   15.2162 O   0  0  0  0  0  0  0  0  0  0  0  0
  2  1  1  0
  3  2  2  0
  4  2  1  0
  5  4  1  0
  5  6  1  1
  7  5  1  0
  8  7  2  0
 10  9  1  1
 10 12  1  0
 10 11  1  0
 11  7  1  0
 12 13  2  0
 14 15  1  0
 14 12  1  0
 15 16  1  0
 16 17  2  0
 16 18  1  0
M  END
$$$$
