NAG.pdb
     RDKit          3D

 18 17  0  0  1  0  0  0  0  0999 V2000
    7.6541  -17.1849   13.8117 N   0  0  0  0  0  0  0  0  0  0  0  0
    7.9729  -15.8294   13.5459 C   0  0  0  0  0  0  0  0  0  0  0  0
    7.8873  -15.3467   12.3890 O   0  0  0  0  0  0  0  0  0  0  0  0
    8.4215  -14.9390   14.6474 C   0  0  0  0  0  0  0  0  0  0  0  0
    8.5919  -15.7307   15.9439 C   0  0  2  0  0  0  0  0  0  0  0  0
    7.3348  -16.1916   16.4525 N   0  0  0  0  0  0  0  0  0  0  0  0
    9.2098  -14.8028   16.9179 C   0  0  0  0  0  0  0  0  0  0  0  0
   10.4165  -14.4934   16.7553 O   0  0  0  0  0  0  0  0  0  0  0  0
    8.2281  -12.4760   19.5559 C   0  0  0  0  0  0  0  0  0  0  0  0
    9.2025  -13.5117   19.0004 C   0  0  2  0  0  0  0  0  0  0  0  0
    8.4913  -14.2580   18.0167 N   0  0  0  0  0  0  0  0  0  0  0  0
    9.7367  -14.3307   20.1006 C   0  0  0  0  0  0  0  0  0  0  0  0
    8.9891  -14.9633   20.8861 O   0  0  0  0  0  0  0  0  0  0  0  0
   11.1478  -14.3937   20.2608 N   0  0  0  0  0  0  0  0  0  0  0  0
   11.7745  -15.1291   21.3423 C   0  0  0  0  0  0  0  0  0  0  0  0
   13.2282  -14.9613   21.2613 C   0  0  0  0  0  0  0  0  0  0  0  0
   13.7755  -14.3395   20.3090 O   0  0  0  0  0  0  0  0  0  0  0  0
   14.0462  -15.4858   22.2373 O   0  0  0  0  0  0  0  0  0  0  0  0
  2  1  1  0
  3  2  2  0
  4  2  1  0
  5  4  1  0
  5  6  1  1
  7  5  1  0
  8  7  2  0
 10  9  1  1
 10 12  1  0
 10 11  1  0
 11  7  1  0
 12 13  2  0
 14 15  1  0
 14 12  1  0
 15 16  1  0
 16 17  2  0
 16 18  1  0
M  END
$$$$
