NAG.pdb
     RDKit          3D

 18 17  0  0  1  0  0  0  0  0999 V2000
    7.6894  -14.7385   14.1050 N   0  0  0  0  0  0  0  0  0  0  0  0
    8.8806  -15.0219   14.8194 C   0  0  0  0  0  0  0  0  0  0  0  0
    9.6300  -15.9782   14.4989 O   0  0  0  0  0  0  0  0  0  0  0  0
    9.2723  -14.1805   15.9796 C   0  0  0  0  0  0  0  0  0  0  0  0
    9.5117  -15.0466   17.2161 C   0  0  2  0  0  0  0  0  0  0  0  0
    8.6540  -16.1936   17.2338 N   0  0  0  0  0  0  0  0  0  0  0  0
    9.2159  -14.1893   18.3862 C   0  0  0  0  0  0  0  0  0  0  0  0
    9.9493  -13.1891   18.5859 O   0  0  0  0  0  0  0  0  0  0  0  0
    6.4886  -13.7162   20.8045 C   0  0  0  0  0  0  0  0  0  0  0  0
    7.9585  -13.6067   20.4069 C   0  0  2  0  0  0  0  0  0  0  0  0
    8.1431  -14.4579   19.2792 N   0  0  0  0  0  0  0  0  0  0  0  0
    8.8106  -13.9471   21.5578 C   0  0  0  0  0  0  0  0  0  0  0  0
    8.7359  -13.3314   22.6494 O   0  0  0  0  0  0  0  0  0  0  0  0
    9.7415  -15.0108   21.4070 N   0  0  0  0  0  0  0  0  0  0  0  0
   10.5161  -15.5284   22.5184 C   0  0  0  0  0  0  0  0  0  0  0  0
   11.4280  -16.5663   22.0293 C   0  0  0  0  0  0  0  0  0  0  0  0
   11.4646  -16.9026   20.8134 O   0  0  0  0  0  0  0  0  0  0  0  0
   12.2810  -17.2108   22.8976 O   0  0  0  0  0  0  0  0  0  0  0  0
  2  1  1  0
  3  2  2  0
  4  2  1  0
  5  4  1  0
  5  6  1  6
  7  5  1  0
  8  7  2  0
 10  9  1  1
 10 12  1  0
 10 11  1  0
 11  7  1  0
 12 13  2  0
 14 15  1  0
 14 12  1  0
 15 16  1  0
 16 17  2  0
 16 18  1  0
M  END
$$$$
