NAG.pdb
     RDKit          3D

 18 17  0  0  1  0  0  0  0  0999 V2000
   13.8605  -13.7379   18.1939 N   0  0  0  0  0  0  0  0  0  0  0  0
   13.4331  -14.8223   17.3871 C   0  0  0  0  0  0  0  0  0  0  0  0
   13.4300  -14.7498   16.1327 O   0  0  0  0  0  0  0  0  0  0  0  0
   12.9732  -16.0859   18.0190 C   0  0  0  0  0  0  0  0  0  0  0  0
   11.4490  -16.1901   17.9667 C   0  0  2  0  0  0  0  0  0  0  0  0
   10.9272  -15.7075   16.7233 N   0  0  0  0  0  0  0  0  0  0  0  0
   10.9381  -15.3535   19.0760 C   0  0  0  0  0  0  0  0  0  0  0  0
   11.4949  -15.4555   20.1976 O   0  0  0  0  0  0  0  0  0  0  0  0
    8.3962  -12.6981   19.5657 C   0  0  0  0  0  0  0  0  0  0  0  0
    9.3173  -13.8069   20.0685 C   0  0  2  0  0  0  0  0  0  0  0  0
    9.8522  -14.4504   18.9152 N   0  0  0  0  0  0  0  0  0  0  0  0
    8.5694  -14.7067   20.9615 C   0  0  0  0  0  0  0  0  0  0  0  0
    7.5533  -15.3359   20.5772 O   0  0  0  0  0  0  0  0  0  0  0  0
    9.0297  -14.8536   22.2984 N   0  0  0  0  0  0  0  0  0  0  0  0
    8.3820  -15.7353   23.2503 C   0  0  0  0  0  0  0  0  0  0  0  0
    9.0607  -15.6299   24.5451 C   0  0  0  0  0  0  0  0  0  0  0  0
   10.1184  -14.9570   24.6905 O   0  0  0  0  0  0  0  0  0  0  0  0
    8.5534  -16.2725   25.6526 O   0  0  0  0  0  0  0  0  0  0  0  0
  2  1  1  0
  3  2  2  0
  4  2  1  0
  5  4  1  0
  5  6  1  6
  7  5  1  0
  8  7  2  0
 10  9  1  6
 10 12  1  0
 10 11  1  0
 11  7  1  0
 12 13  2  0
 14 15  1  0
 14 12  1  0
 15 16  1  0
 16 17  2  0
 16 18  1  0
M  END
$$$$
