NAG.pdb
     RDKit          3D

 18 17  0  0  1  0  0  0  0  0999 V2000
    7.6257  -13.0866   17.7022 N   0  0  0  0  0  0  0  0  0  0  0  0
    8.1288  -13.9987   18.6637 C   0  0  0  0  0  0  0  0  0  0  0  0
    8.5027  -15.1548   18.3434 O   0  0  0  0  0  0  0  0  0  0  0  0
    8.2254  -13.5993   20.0915 C   0  0  0  0  0  0  0  0  0  0  0  0
    8.1016  -14.8211   21.0017 C   0  0  2  0  0  0  0  0  0  0  0  0
    6.8249  -15.4560   20.8656 N   0  0  0  0  0  0  0  0  0  0  0  0
    8.2621  -14.3240   22.3868 C   0  0  0  0  0  0  0  0  0  0  0  0
    9.3483  -13.7729   22.6944 O   0  0  0  0  0  0  0  0  0  0  0  0
    6.3568  -13.1460   25.1382 C   0  0  0  0  0  0  0  0  0  0  0  0
    7.5166  -14.0384   24.7034 C   0  0  2  0  0  0  0  0  0  0  0  0
    7.2403  -14.4485   23.3671 N   0  0  0  0  0  0  0  0  0  0  0  0
    7.6667  -15.1543   25.6515 C   0  0  0  0  0  0  0  0  0  0  0  0
    7.7079  -14.9746   26.8933 O   0  0  0  0  0  0  0  0  0  0  0  0
    7.7663  -16.4700   25.1226 N   0  0  0  0  0  0  0  0  0  0  0  0
    7.8978  -17.6397   25.9698 C   0  0  0  0  0  0  0  0  0  0  0  0
    9.3179  -17.9688   26.1213 C   0  0  0  0  0  0  0  0  0  0  0  0
   10.2277  -17.1387   25.8456 O   0  0  0  0  0  0  0  0  0  0  0  0
    9.7011  -19.2113   26.5753 O   0  0  0  0  0  0  0  0  0  0  0  0
  2  1  1  0
  3  2  2  0
  4  2  1  0
  5  4  1  0
  5  6  1  1
  7  5  1  0
  8  7  2  0
 10  9  1  1
 10 12  1  0
 10 11  1  0
 11  7  1  0
 12 13  2  0
 14 15  1  0
 14 12  1  0
 15 16  1  0
 16 17  2  0
 16 18  1  0
M  END
$$$$
