MAN.pdb
     RDKit          3D

 22 21  0  0  1  0  0  0  0  0999 V2000
    6.4625  -11.2995   27.5975 C   0  0  0  0  0  0  0  0  0  0  0  0
    6.8793  -12.3818   26.2078 S   0  0  0  0  0  0  0  0  0  0  0  0
    7.9543  -13.7413   26.6791 C   0  0  0  0  0  0  0  0  0  0  0  0
    8.2931  -14.5755   25.4690 C   0  0  0  0  0  0  0  0  0  0  0  0
    7.0981  -15.3883   24.9868 C   0  0  2  0  0  0  0  0  0  0  0  0
    6.8336  -16.5458   25.7914 N   0  0  0  0  0  0  0  0  0  0  0  0
    7.4391  -15.7834   23.5812 C   0  0  0  0  0  0  0  0  0  0  0  0
    7.7285  -16.9672   23.3030 O   0  0  0  0  0  0  0  0  0  0  0  0
    7.4311  -14.0234   20.1990 C   0  0  0  0  0  0  0  0  0  0  0  0
    7.6873  -15.2035   21.1513 C   0  0  2  0  0  0  0  0  0  0  0  0
    7.4446  -14.8294   22.5167 N   0  0  0  0  0  0  0  0  0  0  0  0
    9.0904  -15.5956   20.9020 C   0  0  0  0  0  0  0  0  0  0  0  0
    9.3856  -16.1631   19.7918 O   0  0  0  0  0  0  0  0  0  0  0  0
   12.5123  -15.5595   19.1412 N   0  0  0  0  0  0  0  0  0  0  0  0
   12.8913  -14.6415   20.1456 C   0  0  0  0  0  0  0  0  0  0  0  0
   13.6576  -13.6847   19.8631 O   0  0  0  0  0  0  0  0  0  0  0  0
   12.4070  -14.7833   21.5257 C   0  0  0  0  0  0  0  0  0  0  0  0
   11.4759  -16.0039   21.6815 C   0  0  2  0  0  0  0  0  0  0  0  0
   10.1503  -15.3981   21.7841 N   0  0  0  0  0  0  0  0  0  0  0  0
   11.8728  -16.6324   22.9685 C   0  0  0  0  0  0  0  0  0  0  0  0
   13.0661  -17.3648   22.9667 O   0  0  0  0  0  0  0  0  0  0  0  0
   11.1945  -16.5296   24.0180 O   0  0  0  0  0  0  0  0  0  0  0  0
  1  2  1  0
  3  2  1  0
  4  3  1  0
  5  4  1  0
  5  6  1  1
  7  5  1  0
  7 11  1  0
  8  7  2  0
 10  9  1  6
 10 11  1  0
 10 12  1  0
 12 13  2  0
 12 19  1  0
 15 14  1  0
 16 15  2  0
 17 15  1  0
 18 20  1  0
 18 17  1  1
 19 18  1  0
 20 21  1  0
 22 20  2  0
M  END
$$$$
