MAN.pdb
     RDKit          3D

 22 21  0  0  1  0  0  0  0  0999 V2000
    6.0357  -19.9607   20.3440 C   0  0  0  0  0  0  0  0  0  0  0  0
    5.7908  -19.3095   18.6730 S   0  0  0  0  0  0  0  0  0  0  0  0
    6.5999  -17.7270   18.4144 C   0  0  0  0  0  0  0  0  0  0  0  0
    7.4475  -17.3781   19.6123 C   0  0  0  0  0  0  0  0  0  0  0  0
    8.1469  -16.0354   19.4415 C   0  0  2  0  0  0  0  0  0  0  0  0
    9.1798  -16.0529   18.4466 N   0  0  0  0  0  0  0  0  0  0  0  0
    8.7143  -15.7187   20.7927 C   0  0  0  0  0  0  0  0  0  0  0  0
    9.8376  -16.1504   21.1308 O   0  0  0  0  0  0  0  0  0  0  0  0
    7.5264  -13.7683   23.8516 C   0  0  0  0  0  0  0  0  0  0  0  0
    8.4654  -14.7085   23.0775 C   0  0  2  0  0  0  0  0  0  0  0  0
    7.9983  -14.9173   21.7353 N   0  0  0  0  0  0  0  0  0  0  0  0
    8.5007  -15.9522   23.8753 C   0  0  0  0  0  0  0  0  0  0  0  0
    7.8116  -16.9585   23.4822 O   0  0  0  0  0  0  0  0  0  0  0  0
   11.1948  -19.6917   26.1822 N   0  0  0  0  0  0  0  0  0  0  0  0
   11.5326  -19.0251   24.9836 C   0  0  0  0  0  0  0  0  0  0  0  0
   12.4170  -19.5043   24.2281 O   0  0  0  0  0  0  0  0  0  0  0  0
   10.8689  -17.7720   24.5986 C   0  0  0  0  0  0  0  0  0  0  0  0
    9.7158  -17.4175   25.5609 C   0  0  2  0  0  0  0  0  0  0  0  0
    9.2350  -16.1381   25.0444 N   0  0  0  0  0  0  0  0  0  0  0  0
   10.3592  -17.2449   26.8896 C   0  0  0  0  0  0  0  0  0  0  0  0
   10.1203  -18.2481   27.8367 O   0  0  0  0  0  0  0  0  0  0  0  0
   11.0833  -16.2625   27.1767 O   0  0  0  0  0  0  0  0  0  0  0  0
  1  2  1  0
  3  2  1  0
  4  3  1  0
  5  4  1  0
  5  6  1  6
  7  5  1  0
  7 11  1  0
  8  7  2  0
 10  9  1  1
 10 11  1  0
 10 12  1  0
 12 13  2  0
 12 19  1  0
 15 14  1  0
 16 15  2  0
 17 15  1  0
 18 20  1  0
 18 17  1  6
 19 18  1  0
 20 21  1  0
 22 20  2  0
M  END
$$$$
