MAN.pdb
     RDKit          3D

 22 21  0  0  1  0  0  0  0  0999 V2000
    6.4072  -12.9087   26.6330 C   0  0  0  0  0  0  0  0  0  0  0  0
    8.1308  -13.4379   26.7924 S   0  0  0  0  0  0  0  0  0  0  0  0
    8.2948  -15.1984   27.1082 C   0  0  0  0  0  0  0  0  0  0  0  0
    7.2275  -15.9589   26.3616 C   0  0  0  0  0  0  0  0  0  0  0  0
    7.5259  -17.4519   26.3083 C   0  0  2  0  0  0  0  0  0  0  0  0
    8.7475  -17.8132   26.9673 N   0  0  0  0  0  0  0  0  0  0  0  0
    7.5910  -17.7829   24.8474 C   0  0  0  0  0  0  0  0  0  0  0  0
    8.6522  -18.1975   24.3331 O   0  0  0  0  0  0  0  0  0  0  0  0
    5.0545  -17.9263   21.9996 C   0  0  0  0  0  0  0  0  0  0  0  0
    6.4386  -18.1170   22.6421 C   0  0  2  0  0  0  0  0  0  0  0  0
    6.4514  -17.6387   23.9965 N   0  0  0  0  0  0  0  0  0  0  0  0
    7.3710  -17.3813   21.7624 C   0  0  0  0  0  0  0  0  0  0  0  0
    7.6248  -17.8531   20.5984 O   0  0  0  0  0  0  0  0  0  0  0  0
    7.7749  -12.3947   19.9626 N   0  0  0  0  0  0  0  0  0  0  0  0
    7.7057  -13.6041   20.6891 C   0  0  0  0  0  0  0  0  0  0  0  0
    6.6652  -14.3090   20.6347 O   0  0  0  0  0  0  0  0  0  0  0  0
    8.8321  -14.0587   21.5159 C   0  0  0  0  0  0  0  0  0  0  0  0
    9.1007  -15.5674   21.3351 C   0  0  2  0  0  0  0  0  0  0  0  0
    8.0145  -16.1897   22.0886 N   0  0  0  0  0  0  0  0  0  0  0  0
   10.4104  -15.8097   21.9948 C   0  0  0  0  0  0  0  0  0  0  0  0
   11.5417  -15.2953   21.3499 O   0  0  0  0  0  0  0  0  0  0  0  0
   10.5273  -16.4388   23.0730 O   0  0  0  0  0  0  0  0  0  0  0  0
  1  2  1  0
  3  2  1  0
  4  3  1  0
  5  4  1  0
  5  6  1  6
  7  5  1  0
  7 11  1  0
  8  7  2  0
 10  9  1  6
 10 11  1  0
 10 12  1  0
 12 13  2  0
 12 19  1  0
 15 14  1  0
 16 15  2  0
 17 15  1  0
 18 20  1  0
 18 17  1  1
 19 18  1  0
 20 21  1  0
 22 20  2  0
M  END
$$$$
