MAN.pdb
     RDKit          3D

 22 21  0  0  1  0  0  0  0  0999 V2000
    6.0380  -11.2255   27.5918 C   0  0  0  0  0  0  0  0  0  0  0  0
    6.6101  -12.3837   26.3239 S   0  0  0  0  0  0  0  0  0  0  0  0
    6.1976  -14.0909   26.6999 C   0  0  0  0  0  0  0  0  0  0  0  0
    6.2323  -14.9203   25.4406 C   0  0  0  0  0  0  0  0  0  0  0  0
    7.6450  -15.0516   24.8856 C   0  0  2  0  0  0  0  0  0  0  0  0
    8.5006  -13.9560   25.2388 N   0  0  0  0  0  0  0  0  0  0  0  0
    7.4719  -15.1343   23.3986 C   0  0  0  0  0  0  0  0  0  0  0  0
    6.7682  -16.0316   22.8866 O   0  0  0  0  0  0  0  0  0  0  0  0
    8.2861  -12.9754   20.3999 C   0  0  0  0  0  0  0  0  0  0  0  0
    8.0400  -14.3274   21.0902 C   0  0  2  0  0  0  0  0  0  0  0  0
    8.0988  -14.1975   22.5195 N   0  0  0  0  0  0  0  0  0  0  0  0
    9.0820  -15.2256   20.5499 C   0  0  0  0  0  0  0  0  0  0  0  0
    9.1347  -15.4204   19.2846 O   0  0  0  0  0  0  0  0  0  0  0  0
   14.6157  -14.8142   21.3455 N   0  0  0  0  0  0  0  0  0  0  0  0
   13.5324  -15.0512   20.4706 C   0  0  0  0  0  0  0  0  0  0  0  0
   13.7519  -15.3851   19.2778 O   0  0  0  0  0  0  0  0  0  0  0  0
   12.1429  -14.9123   20.9277 C   0  0  0  0  0  0  0  0  0  0  0  0
   11.3850  -16.2552   20.8673 C   0  0  2  0  0  0  0  0  0  0  0  0
   10.0392  -15.8959   21.3082 N   0  0  0  0  0  0  0  0  0  0  0  0
   12.0566  -17.1245   21.8684 C   0  0  0  0  0  0  0  0  0  0  0  0
   13.3214  -17.6162   21.5236 O   0  0  0  0  0  0  0  0  0  0  0  0
   11.5419  -17.4199   22.9729 O   0  0  0  0  0  0  0  0  0  0  0  0
  1  2  1  0
  3  2  1  0
  4  3  1  0
  5  4  1  0
  5  6  1  6
  7  5  1  0
  7 11  1  0
  8  7  2  0
 10  9  1  6
 10 11  1  0
 10 12  1  0
 12 13  2  0
 12 19  1  0
 15 14  1  0
 16 15  2  0
 17 15  1  0
 18 20  1  0
 18 17  1  1
 19 18  1  0
 20 21  1  0
 22 20  2  0
M  END
$$$$
