MAN.pdb
     RDKit          3D

 22 21  0  0  1  0  0  0  0  0999 V2000
    8.0928  -11.4275   19.7271 C   0  0  0  0  0  0  0  0  0  0  0  0
    7.5309  -12.5789   18.4485 S   0  0  0  0  0  0  0  0  0  0  0  0
    7.9158  -14.2908   18.8320 C   0  0  0  0  0  0  0  0  0  0  0  0
    8.7299  -14.3660   20.0994 C   0  0  0  0  0  0  0  0  0  0  0  0
    9.1849  -15.7889   20.3987 C   0  0  2  0  0  0  0  0  0  0  0  0
    8.1371  -16.7605   20.2756 N   0  0  0  0  0  0  0  0  0  0  0  0
    9.7059  -15.7424   21.8038 C   0  0  0  0  0  0  0  0  0  0  0  0
   10.8316  -15.2590   22.0519 O   0  0  0  0  0  0  0  0  0  0  0  0
    8.3266  -16.4302   25.2706 C   0  0  0  0  0  0  0  0  0  0  0  0
    9.4603  -16.2962   24.2402 C   0  0  2  0  0  0  0  0  0  0  0  0
    8.9406  -16.2440   22.9020 N   0  0  0  0  0  0  0  0  0  0  0  0
   10.3288  -17.4688   24.4755 C   0  0  0  0  0  0  0  0  0  0  0  0
    9.9108  -18.6280   24.1242 O   0  0  0  0  0  0  0  0  0  0  0  0
   13.2216  -17.6284   22.8301 N   0  0  0  0  0  0  0  0  0  0  0  0
   14.1831  -17.5450   23.8615 C   0  0  0  0  0  0  0  0  0  0  0  0
   15.3274  -17.0840   23.6154 O   0  0  0  0  0  0  0  0  0  0  0  0
   13.8730  -17.9915   25.2266 C   0  0  0  0  0  0  0  0  0  0  0  0
   12.4509  -18.5824   25.3248 C   0  0  2  0  0  0  0  0  0  0  0  0
   11.5942  -17.4296   25.0567 N   0  0  0  0  0  0  0  0  0  0  0  0
   12.3132  -19.0286   26.7359 C   0  0  0  0  0  0  0  0  0  0  0  0
   11.5554  -18.2092   27.5813 O   0  0  0  0  0  0  0  0  0  0  0  0
   12.8371  -20.0795   27.1753 O   0  0  0  0  0  0  0  0  0  0  0  0
  1  2  1  0
  3  2  1  0
  4  3  1  0
  5  4  1  0
  5  6  1  1
  7  5  1  0
  7 11  1  0
  8  7  2  0
 10  9  1  1
 10 11  1  0
 10 12  1  0
 12 13  2  0
 12 19  1  0
 15 14  1  0
 16 15  2  0
 17 15  1  0
 18 20  1  0
 18 17  1  1
 19 18  1  0
 20 21  1  0
 22 20  2  0
M  END
$$$$
