MAN.pdb
     RDKit          3D

 22 21  0  0  1  0  0  0  0  0999 V2000
    7.7684  -11.7654   28.0172 C   0  0  0  0  0  0  0  0  0  0  0  0
    6.3095  -11.6381   26.9534 S   0  0  0  0  0  0  0  0  0  0  0  0
    5.7185  -13.2356   26.3839 C   0  0  0  0  0  0  0  0  0  0  0  0
    6.8363  -13.9887   25.7069 C   0  0  0  0  0  0  0  0  0  0  0  0
    6.3655  -15.3280   25.1538 C   0  0  2  0  0  0  0  0  0  0  0  0
    6.2019  -16.3354   26.1616 N   0  0  0  0  0  0  0  0  0  0  0  0
    7.4173  -15.7306   24.1641 C   0  0  0  0  0  0  0  0  0  0  0  0
    8.3524  -16.4894   24.4992 O   0  0  0  0  0  0  0  0  0  0  0  0
    8.3836  -14.6616   20.6522 C   0  0  0  0  0  0  0  0  0  0  0  0
    8.4064  -15.6138   21.8596 C   0  0  2  0  0  0  0  0  0  0  0  0
    7.3890  -15.2666   22.8124 N   0  0  0  0  0  0  0  0  0  0  0  0
    9.7737  -15.4988   22.4090 C   0  0  0  0  0  0  0  0  0  0  0  0
   10.1785  -14.3565   22.8251 O   0  0  0  0  0  0  0  0  0  0  0  0
   10.4568  -19.0818   24.7256 N   0  0  0  0  0  0  0  0  0  0  0  0
   11.5188  -18.1516   24.7732 C   0  0  0  0  0  0  0  0  0  0  0  0
   11.7832  -17.5572   25.8499 O   0  0  0  0  0  0  0  0  0  0  0  0
   12.3262  -17.8594   23.5808 C   0  0  0  0  0  0  0  0  0  0  0  0
   12.0497  -16.4418   23.0373 C   0  0  2  0  0  0  0  0  0  0  0  0
   10.6864  -16.5450   22.5220 N   0  0  0  0  0  0  0  0  0  0  0  0
   13.0227  -16.2549   21.9294 C   0  0  0  0  0  0  0  0  0  0  0  0
   14.3594  -16.0571   22.2959 O   0  0  0  0  0  0  0  0  0  0  0  0
   12.6930  -16.2687   20.7198 O   0  0  0  0  0  0  0  0  0  0  0  0
  1  2  1  0
  3  2  1  0
  4  3  1  0
  5  4  1  0
  5  6  1  1
  7  5  1  0
  7 11  1  0
  8  7  2  0
 10  9  1  6
 10 11  1  0
 10 12  1  0
 12 13  2  0
 12 19  1  0
 15 14  1  0
 16 15  2  0
 17 15  1  0
 18 20  1  0
 18 17  1  6
 19 18  1  0
 20 21  1  0
 22 20  2  0
M  END
$$$$
