MAN.pdb
     RDKit          3D

 22 21  0  0  1  0  0  0  0  0999 V2000
    8.8829  -12.2528   21.9255 C   0  0  0  0  0  0  0  0  0  0  0  0
    7.3186  -12.6505   21.1065 S   0  0  0  0  0  0  0  0  0  0  0  0
    7.0781  -14.4158   20.8790 C   0  0  0  0  0  0  0  0  0  0  0  0
    7.8777  -15.1824   21.9027 C   0  0  0  0  0  0  0  0  0  0  0  0
    7.8382  -16.6837   21.6462 C   0  0  2  0  0  0  0  0  0  0  0  0
    6.5574  -17.2736   21.9089 N   0  0  0  0  0  0  0  0  0  0  0  0
    8.8855  -17.2598   22.5512 C   0  0  0  0  0  0  0  0  0  0  0  0
    8.5628  -17.9174   23.5641 O   0  0  0  0  0  0  0  0  0  0  0  0
   12.6859  -17.5409   22.4294 C   0  0  0  0  0  0  0  0  0  0  0  0
   11.2957  -17.7528   23.0518 C   0  0  2  0  0  0  0  0  0  0  0  0
   10.2796  -17.0808   22.2908 N   0  0  0  0  0  0  0  0  0  0  0  0
   11.4150  -17.2400   24.4328 C   0  0  0  0  0  0  0  0  0  0  0  0
   12.2697  -17.7792   25.2206 O   0  0  0  0  0  0  0  0  0  0  0  0
    9.5064  -12.8288   28.0089 N   0  0  0  0  0  0  0  0  0  0  0  0
    9.4244  -14.2282   27.8353 C   0  0  0  0  0  0  0  0  0  0  0  0
    9.2816  -14.9764   28.8365 O   0  0  0  0  0  0  0  0  0  0  0  0
    9.5055  -14.8336   26.4989 C   0  0  0  0  0  0  0  0  0  0  0  0
   10.8035  -15.6486   26.3191 C   0  0  2  0  0  0  0  0  0  0  0  0
   10.6668  -16.1956   24.9712 N   0  0  0  0  0  0  0  0  0  0  0  0
   10.7285  -16.7269   27.3392 C   0  0  0  0  0  0  0  0  0  0  0  0
    9.7080  -17.6719   27.1785 O   0  0  0  0  0  0  0  0  0  0  0  0
   11.5240  -16.8118   28.3046 O   0  0  0  0  0  0  0  0  0  0  0  0
  1  2  1  0
  3  2  1  0
  4  3  1  0
  5  4  1  0
  5  6  1  1
  7  5  1  0
  7 11  1  0
  8  7  2  0
 10  9  1  6
 10 11  1  0
 10 12  1  0
 12 13  2  0
 12 19  1  0
 15 14  1  0
 16 15  2  0
 17 15  1  0
 18 20  1  0
 18 17  1  1
 19 18  1  0
 20 21  1  0
 22 20  2  0
M  END
$$$$
