MAN.pdb
     RDKit          3D

 22 21  0  0  1  0  0  0  0  0999 V2000
    5.8882  -10.6342   27.3888 C   0  0  0  0  0  0  0  0  0  0  0  0
    6.5382  -11.9129   26.2850 S   0  0  0  0  0  0  0  0  0  0  0  0
    5.7772  -13.5180   26.5507 C   0  0  0  0  0  0  0  0  0  0  0  0
    6.3691  -14.5333   25.6054 C   0  0  0  0  0  0  0  0  0  0  0  0
    7.8286  -14.2319   25.2891 C   0  0  2  0  0  0  0  0  0  0  0  0
    8.0185  -12.9844   24.6073 N   0  0  0  0  0  0  0  0  0  0  0  0
    8.2864  -15.3787   24.4387 C   0  0  0  0  0  0  0  0  0  0  0  0
    8.1905  -16.5558   24.8484 O   0  0  0  0  0  0  0  0  0  0  0  0
    9.5086  -15.8113   20.8655 C   0  0  0  0  0  0  0  0  0  0  0  0
    9.3263  -16.2526   22.3274 C   0  0  2  0  0  0  0  0  0  0  0  0
    8.8435  -15.1702   23.1389 N   0  0  0  0  0  0  0  0  0  0  0  0
   10.6578  -16.7379   22.7471 C   0  0  0  0  0  0  0  0  0  0  0  0
   11.5330  -15.8853   23.1328 O   0  0  0  0  0  0  0  0  0  0  0  0
   11.5486  -19.5204   25.8917 N   0  0  0  0  0  0  0  0  0  0  0  0
   11.2523  -20.2089   24.6945 C   0  0  0  0  0  0  0  0  0  0  0  0
   10.2537  -20.9722   24.6415 O   0  0  0  0  0  0  0  0  0  0  0  0
   12.0945  -20.0530   23.5005 C   0  0  0  0  0  0  0  0  0  0  0  0
   12.3682  -18.5675   23.1849 C   0  0  2  0  0  0  0  0  0  0  0  0
   11.0595  -18.0717   22.7653 N   0  0  0  0  0  0  0  0  0  0  0  0
   13.3204  -18.5828   22.0438 C   0  0  0  0  0  0  0  0  0  0  0  0
   14.6664  -18.8126   22.3536 O   0  0  0  0  0  0  0  0  0  0  0  0
   12.9661  -18.4024   20.8547 O   0  0  0  0  0  0  0  0  0  0  0  0
  1  2  1  0
  3  2  1  0
  4  3  1  0
  5  4  1  0
  5  6  1  6
  7  5  1  0
  7 11  1  0
  8  7  2  0
 10  9  1  6
 10 11  1  0
 10 12  1  0
 12 13  2  0
 12 19  1  0
 15 14  1  0
 16 15  2  0
 17 15  1  0
 18 20  1  0
 18 17  1  6
 19 18  1  0
 20 21  1  0
 22 20  2  0
M  END
$$$$
