MAN.pdb
     RDKit          3D

 22 21  0  0  1  0  0  0  0  0999 V2000
    6.4216  -10.6407   27.9582 C   0  0  0  0  0  0  0  0  0  0  0  0
    5.8239  -12.1476   27.1530 S   0  0  0  0  0  0  0  0  0  0  0  0
    7.1435  -13.1128   26.4095 C   0  0  0  0  0  0  0  0  0  0  0  0
    6.5882  -14.3935   25.8382 C   0  0  0  0  0  0  0  0  0  0  0  0
    7.6686  -15.2306   25.1649 C   0  0  2  0  0  0  0  0  0  0  0  0
    8.9871  -14.6859   25.3129 N   0  0  0  0  0  0  0  0  0  0  0  0
    7.2737  -15.2843   23.7195 C   0  0  0  0  0  0  0  0  0  0  0  0
    6.2000  -15.8208   23.3704 O   0  0  0  0  0  0  0  0  0  0  0  0
    8.0484  -13.4429   20.6068 C   0  0  0  0  0  0  0  0  0  0  0  0
    7.7456  -14.7786   21.3062 C   0  0  2  0  0  0  0  0  0  0  0  0
    8.1027  -14.7279   22.6966 N   0  0  0  0  0  0  0  0  0  0  0  0
    8.5167  -15.7874   20.5498 C   0  0  0  0  0  0  0  0  0  0  0  0
    8.6361  -15.6505   19.2814 O   0  0  0  0  0  0  0  0  0  0  0  0
   13.3592  -17.0978   20.4617 N   0  0  0  0  0  0  0  0  0  0  0  0
   12.7754  -16.4225   21.5564 C   0  0  0  0  0  0  0  0  0  0  0  0
   13.5006  -16.0151   22.5002 O   0  0  0  0  0  0  0  0  0  0  0  0
   11.3265  -16.1860   21.6176 C   0  0  0  0  0  0  0  0  0  0  0  0
   10.5359  -17.2944   20.8912 C   0  0  2  0  0  0  0  0  0  0  0  0
    9.1446  -16.9013   21.1025 N   0  0  0  0  0  0  0  0  0  0  0  0
   10.8520  -18.5442   21.6308 C   0  0  0  0  0  0  0  0  0  0  0  0
   10.4515  -18.5975   22.9714 O   0  0  0  0  0  0  0  0  0  0  0  0
   11.4455  -19.5170   21.1080 O   0  0  0  0  0  0  0  0  0  0  0  0
  1  2  1  0
  3  2  1  0
  4  3  1  0
  5  4  1  0
  5  6  1  6
  7  5  1  0
  7 11  1  0
  8  7  2  0
 10  9  1  6
 10 11  1  0
 10 12  1  0
 12 13  2  0
 12 19  1  0
 15 14  1  0
 16 15  2  0
 17 15  1  0
 18 20  1  0
 18 17  1  1
 19 18  1  0
 20 21  1  0
 22 20  2  0
M  END
$$$$
