MAN.pdb
     RDKit          3D

 22 21  0  0  1  0  0  0  0  0999 V2000
    7.8242  -11.7855   26.5042 C   0  0  0  0  0  0  0  0  0  0  0  0
    6.4215  -12.8970   26.7750 S   0  0  0  0  0  0  0  0  0  0  0  0
    6.7240  -14.5626   26.1748 C   0  0  0  0  0  0  0  0  0  0  0  0
    7.1017  -14.5252   24.7150 C   0  0  0  0  0  0  0  0  0  0  0  0
    6.3359  -15.5624   23.9033 C   0  0  2  0  0  0  0  0  0  0  0  0
    5.5467  -16.4481   24.7094 N   0  0  0  0  0  0  0  0  0  0  0  0
    7.3881  -16.3214   23.1518 C   0  0  0  0  0  0  0  0  0  0  0  0
    7.0798  -17.0576   22.1897 O   0  0  0  0  0  0  0  0  0  0  0  0
    9.7208  -15.6122   21.3280 C   0  0  0  0  0  0  0  0  0  0  0  0
    9.8220  -16.5162   22.5679 C   0  0  2  0  0  0  0  0  0  0  0  0
    8.7705  -16.2311   23.5041 N   0  0  0  0  0  0  0  0  0  0  0  0
   11.1691  -16.2577   23.1182 C   0  0  0  0  0  0  0  0  0  0  0  0
   12.1638  -16.1935   22.3130 O   0  0  0  0  0  0  0  0  0  0  0  0
    8.4532  -17.7227   26.4909 N   0  0  0  0  0  0  0  0  0  0  0  0
    9.8072  -17.3207   26.5031 C   0  0  0  0  0  0  0  0  0  0  0  0
   10.1730  -16.3739   27.2463 O   0  0  0  0  0  0  0  0  0  0  0  0
   10.8054  -17.9891   25.6570 C   0  0  0  0  0  0  0  0  0  0  0  0
   12.0159  -17.0756   25.3718 C   0  0  2  0  0  0  0  0  0  0  0  0
   11.4655  -16.0697   24.4663 N   0  0  0  0  0  0  0  0  0  0  0  0
   12.9979  -17.9417   24.6685 C   0  0  0  0  0  0  0  0  0  0  0  0
   12.5020  -18.7311   23.6238 O   0  0  0  0  0  0  0  0  0  0  0  0
   14.2135  -17.9845   24.9726 O   0  0  0  0  0  0  0  0  0  0  0  0
  1  2  1  0
  3  2  1  0
  4  3  1  0
  5  4  1  0
  5  6  1  1
  7  5  1  0
  7 11  1  0
  8  7  2  0
 10  9  1  6
 10 11  1  0
 10 12  1  0
 12 13  2  0
 12 19  1  0
 15 14  1  0
 16 15  2  0
 17 15  1  0
 18 20  1  0
 18 17  1  6
 19 18  1  0
 20 21  1  0
 22 20  2  0
M  END
$$$$
