MAN.pdb
     RDKit          3D

 22 21  0  0  1  0  0  0  0  0999 V2000
    6.2622  -11.2608   28.0396 C   0  0  0  0  0  0  0  0  0  0  0  0
    5.7941  -12.6121   26.9300 S   0  0  0  0  0  0  0  0  0  0  0  0
    7.1981  -13.3247   26.0658 C   0  0  0  0  0  0  0  0  0  0  0  0
    6.7257  -14.3685   25.0849 C   0  0  0  0  0  0  0  0  0  0  0  0
    7.8901  -15.0707   24.3978 C   0  0  2  0  0  0  0  0  0  0  0  0
    9.1684  -14.5086   24.7252 N   0  0  0  0  0  0  0  0  0  0  0  0
    7.6109  -14.9401   22.9305 C   0  0  0  0  0  0  0  0  0  0  0  0
    6.6660  -15.5650   22.4021 O   0  0  0  0  0  0  0  0  0  0  0  0
    8.4361  -12.6854   20.0863 C   0  0  0  0  0  0  0  0  0  0  0  0
    8.2765  -14.1037   20.6589 C   0  0  2  0  0  0  0  0  0  0  0  0
    8.4074  -14.1027   22.0893 N   0  0  0  0  0  0  0  0  0  0  0  0
    9.3196  -14.9054   19.9854 C   0  0  0  0  0  0  0  0  0  0  0  0
    9.1928  -15.1605   18.7361 O   0  0  0  0  0  0  0  0  0  0  0  0
   12.5999  -14.9872   17.5455 N   0  0  0  0  0  0  0  0  0  0  0  0
   12.7776  -14.5678   18.8826 C   0  0  0  0  0  0  0  0  0  0  0  0
   12.9819  -13.3527   19.1361 O   0  0  0  0  0  0  0  0  0  0  0  0
   12.7309  -15.5295   19.9925 C   0  0  0  0  0  0  0  0  0  0  0  0
   11.4183  -16.3408   19.9903 C   0  0  2  0  0  0  0  0  0  0  0  0
   10.4595  -15.4210   20.5981 N   0  0  0  0  0  0  0  0  0  0  0  0
   11.6783  -17.5012   20.8818 C   0  0  0  0  0  0  0  0  0  0  0  0
   12.6522  -18.4127   20.4564 O   0  0  0  0  0  0  0  0  0  0  0  0
   11.0726  -17.6811   21.9648 O   0  0  0  0  0  0  0  0  0  0  0  0
  1  2  1  0
  3  2  1  0
  4  3  1  0
  5  4  1  0
  5  6  1  6
  7  5  1  0
  7 11  1  0
  8  7  2  0
 10  9  1  6
 10 11  1  0
 10 12  1  0
 12 13  2  0
 12 19  1  0
 15 14  1  0
 16 15  2  0
 17 15  1  0
 18 20  1  0
 18 17  1  1
 19 18  1  0
 20 21  1  0
 22 20  2  0
M  END
$$$$
