MAN.pdb
     RDKit          3D

 22 21  0  0  1  0  0  0  0  0999 V2000
    6.1328  -11.4306   27.6997 C   0  0  0  0  0  0  0  0  0  0  0  0
    7.3462  -12.5561   26.9668 S   0  0  0  0  0  0  0  0  0  0  0  0
    6.5972  -13.7953   25.9043 C   0  0  0  0  0  0  0  0  0  0  0  0
    7.6605  -14.7066   25.3441 C   0  0  0  0  0  0  0  0  0  0  0  0
    7.0719  -15.7657   24.4205 C   0  0  2  0  0  0  0  0  0  0  0  0
    6.2395  -16.7159   25.0998 N   0  0  0  0  0  0  0  0  0  0  0  0
    8.2576  -16.4432   23.8014 C   0  0  0  0  0  0  0  0  0  0  0  0
    8.5933  -17.5937   24.1567 O   0  0  0  0  0  0  0  0  0  0  0  0
   10.4677  -15.6669   20.7989 C   0  0  0  0  0  0  0  0  0  0  0  0
    9.9854  -16.5232   21.9818 C   0  0  2  0  0  0  0  0  0  0  0  0
    9.0402  -15.8044   22.7901 N   0  0  0  0  0  0  0  0  0  0  0  0
   11.2158  -16.8836   22.7171 C   0  0  0  0  0  0  0  0  0  0  0  0
   12.0560  -17.6776   22.1643 O   0  0  0  0  0  0  0  0  0  0  0  0
   14.3319  -16.7222   22.6628 N   0  0  0  0  0  0  0  0  0  0  0  0
   14.4651  -15.7541   23.6828 C   0  0  0  0  0  0  0  0  0  0  0  0
   15.3041  -14.8249   23.5590 O   0  0  0  0  0  0  0  0  0  0  0  0
   13.6391  -15.8115   24.8966 C   0  0  0  0  0  0  0  0  0  0  0  0
   12.6166  -16.9657   24.8374 C   0  0  2  0  0  0  0  0  0  0  0  0
   11.5574  -16.4263   23.9878 N   0  0  0  0  0  0  0  0  0  0  0  0
   12.1409  -17.1342   26.2354 C   0  0  0  0  0  0  0  0  0  0  0  0
   13.0103  -17.7851   27.1191 O   0  0  0  0  0  0  0  0  0  0  0  0
   11.0240  -16.7253   26.6320 O   0  0  0  0  0  0  0  0  0  0  0  0
  1  2  1  0
  3  2  1  0
  4  3  1  0
  5  4  1  0
  5  6  1  1
  7  5  1  0
  7 11  1  0
  8  7  2  0
 10  9  1  6
 10 11  1  0
 10 12  1  0
 12 13  2  0
 12 19  1  0
 15 14  1  0
 16 15  2  0
 17 15  1  0
 18 20  1  0
 18 17  1  1
 19 18  1  0
 20 21  1  0
 22 20  2  0
M  END
$$$$
