GAI.pdb
     RDKit          3D

 18 17  0  0  1  0  0  0  0  0999 V2000
   17.6800  -13.8375  -19.2307 N   0  0  0  0  0  0  0  0  0  0  0  0
   16.9997  -12.5829  -18.9654 C   0  0  0  0  0  0  0  0  0  0  0  0
   18.0516  -11.5563  -18.6831 C   0  0  0  0  0  0  0  0  0  0  0  0
   19.1749  -11.8709  -18.1821 O   0  0  0  0  0  0  0  0  0  0  0  0
   18.5291   -7.8437  -19.3362 C   0  0  0  0  0  0  0  0  0  0  0  0
   18.8805   -9.1868  -18.7633 C   0  0  2  0  0  0  0  0  0  0  0  0
   17.8513  -10.1775  -18.9595 N   0  0  0  0  0  0  0  0  0  0  0  0
   19.2291   -9.0067  -17.3324 C   0  0  0  0  0  0  0  0  0  0  0  0
   18.3026   -9.1836  -16.4999 O   0  0  0  0  0  0  0  0  0  0  0  0
   23.2637  -10.6924  -13.2834 C   0  0  0  0  0  0  0  0  0  0  0  0
   22.4057   -9.5572  -13.6755 C   0  0  0  0  0  0  0  0  0  0  0  0
   21.9368   -9.4486  -15.0786 C   0  0  2  0  0  0  0  0  0  0  0  0
   23.1328   -9.3414  -16.0354 C   0  0  0  0  0  0  0  0  0  0  0  0
   20.8532   -8.5220  -15.4357 C   0  0  2  0  0  0  0  0  0  0  0  0
   20.4967   -8.6599  -16.8604 N   0  0  0  0  0  0  0  0  0  0  0  0
   20.9440   -7.1086  -15.1126 C   0  0  0  0  0  0  0  0  0  0  0  0
   20.8483   -6.7824  -13.8669 O   0  0  0  0  0  0  0  0  0  0  0  0
   21.1250   -6.0277  -15.9381 O   0  0  0  0  0  0  0  0  0  0  0  0
  1  2  1  0
  3  4  2  0
  3  2  1  0
  6  7  1  0
  6  5  1  1
  7  3  1  0
  8  6  1  0
  9  8  2  0
 10 11  1  0
 11 12  1  0
 12 14  1  0
 12 13  1  6
 14 16  1  0
 14 15  1  6
 15  8  1  0
 16 18  1  0
 17 16  2  0
M  END
$$$$
