GAI.pdb
     RDKit          3D

 18 17  0  0  1  0  0  0  0  0999 V2000
   27.1009  -25.6484  -16.1404 N   0  0  0  0  0  0  0  0  0  0  0  0
   28.0075  -24.5172  -16.2153 C   0  0  0  0  0  0  0  0  0  0  0  0
   29.0116  -24.8205  -17.2830 C   0  0  0  0  0  0  0  0  0  0  0  0
   29.0085  -25.9251  -17.9088 O   0  0  0  0  0  0  0  0  0  0  0  0
   31.7178  -22.9674  -19.1742 C   0  0  0  0  0  0  0  0  0  0  0  0
   31.0291  -24.1904  -18.6395 C   0  0  2  0  0  0  0  0  0  0  0  0
   30.0203  -23.8917  -17.6536 N   0  0  0  0  0  0  0  0  0  0  0  0
   32.0642  -25.1221  -18.1278 C   0  0  0  0  0  0  0  0  0  0  0  0
   32.4254  -24.9625  -16.9334 O   0  0  0  0  0  0  0  0  0  0  0  0
   31.6509  -30.2985  -17.6997 C   0  0  0  0  0  0  0  0  0  0  0  0
   31.8330  -28.9559  -18.2851 C   0  0  0  0  0  0  0  0  0  0  0  0
   33.1973  -28.4948  -18.6409 C   0  0  2  0  0  0  0  0  0  0  0  0
   34.2423  -29.5340  -18.2102 C   0  0  0  0  0  0  0  0  0  0  0  0
   33.6237  -27.1201  -18.3435 C   0  0  2  0  0  0  0  0  0  0  0  0
   32.6516  -26.1457  -18.8742 N   0  0  0  0  0  0  0  0  0  0  0  0
   34.9642  -26.6675  -18.6727 C   0  0  0  0  0  0  0  0  0  0  0  0
   35.2160  -26.4295  -19.9166 O   0  0  0  0  0  0  0  0  0  0  0  0
   36.0412  -26.4392  -17.8539 O   0  0  0  0  0  0  0  0  0  0  0  0
  1  2  1  0
  3  4  2  0
  3  2  1  0
  6  7  1  0
  6  5  1  1
  7  3  1  0
  8  6  1  0
  9  8  2  0
 10 11  1  0
 11 12  1  0
 12 14  1  0
 12 13  1  1
 14 16  1  0
 14 15  1  6
 15  8  1  0
 16 18  1  0
 17 16  2  0
M  END
$$$$
