GAI.pdb
     RDKit          3D

 18 17  0  0  1  0  0  0  0  0999 V2000
   28.0975  -21.5379  -13.7368 N   0  0  0  0  0  0  0  0  0  0  0  0
   27.1907  -22.1451  -12.7797 C   0  0  0  0  0  0  0  0  0  0  0  0
   27.0029  -21.1678  -11.6616 C   0  0  0  0  0  0  0  0  0  0  0  0
   27.8425  -20.2430  -11.4345 O   0  0  0  0  0  0  0  0  0  0  0  0
   24.2027  -19.8974   -9.5760 C   0  0  0  0  0  0  0  0  0  0  0  0
   25.6515  -20.2515   -9.7532 C   0  0  2  0  0  0  0  0  0  0  0  0
   25.8781  -21.2214  -10.7959 N   0  0  0  0  0  0  0  0  0  0  0  0
   26.1875  -20.6926   -8.4420 C   0  0  0  0  0  0  0  0  0  0  0  0
   25.9864  -21.8935   -8.1257 O   0  0  0  0  0  0  0  0  0  0  0  0
   31.1815  -20.7695   -7.1422 C   0  0  0  0  0  0  0  0  0  0  0  0
   29.7242  -21.0020   -7.1118 C   0  0  0  0  0  0  0  0  0  0  0  0
   28.8756  -20.1915   -6.2045 C   0  0  2  0  0  0  0  0  0  0  0  0
   29.4240  -20.2428   -4.7713 C   0  0  0  0  0  0  0  0  0  0  0  0
   27.4112  -20.3103   -6.2450 C   0  0  2  0  0  0  0  0  0  0  0  0
   26.8880  -19.8742   -7.5534 N   0  0  0  0  0  0  0  0  0  0  0  0
   26.5871  -19.7326   -5.1974 C   0  0  0  0  0  0  0  0  0  0  0  0
   26.0501  -20.5493   -4.3536 O   0  0  0  0  0  0  0  0  0  0  0  0
   26.2780  -18.4199   -4.9449 O   0  0  0  0  0  0  0  0  0  0  0  0
  1  2  1  0
  3  4  2  0
  3  2  1  0
  6  7  1  0
  6  5  1  1
  7  3  1  0
  8  6  1  0
  9  8  2  0
 10 11  1  0
 11 12  1  0
 12 14  1  0
 12 13  1  1
 14 16  1  0
 14 15  1  6
 15  8  1  0
 16 18  1  0
 17 16  2  0
M  END
$$$$
