GAI.pdb
     RDKit          3D

 18 17  0  0  1  0  0  0  0  0999 V2000
   16.9483  -19.5128  -15.3121 N   0  0  0  0  0  0  0  0  0  0  0  0
   16.9058  -18.3684  -16.2041 C   0  0  0  0  0  0  0  0  0  0  0  0
   17.1042  -17.1433  -15.3673 C   0  0  0  0  0  0  0  0  0  0  0  0
   16.8193  -17.1259  -14.1303 O   0  0  0  0  0  0  0  0  0  0  0  0
   18.6917  -13.7243  -15.8262 C   0  0  0  0  0  0  0  0  0  0  0  0
   17.9062  -14.7784  -15.0998 C   0  0  2  0  0  0  0  0  0  0  0  0
   17.6206  -15.9365  -15.9099 N   0  0  0  0  0  0  0  0  0  0  0  0
   16.6774  -14.1510  -14.5540 C   0  0  0  0  0  0  0  0  0  0  0  0
   15.6229  -14.3005  -15.2235 O   0  0  0  0  0  0  0  0  0  0  0  0
   13.0769  -14.1247   -9.9549 C   0  0  0  0  0  0  0  0  0  0  0  0
   13.6440  -13.2228  -10.9765 C   0  0  0  0  0  0  0  0  0  0  0  0
   14.8977  -13.6049  -11.6711 C   0  0  2  0  0  0  0  0  0  0  0  0
   16.0038  -13.9076  -10.6501 C   0  0  0  0  0  0  0  0  0  0  0  0
   15.3916  -12.8183  -12.8102 C   0  0  2  0  0  0  0  0  0  0  0  0
   16.6187  -13.4188  -13.3664 N   0  0  0  0  0  0  0  0  0  0  0  0
   15.5848  -11.3830  -12.6973 C   0  0  0  0  0  0  0  0  0  0  0  0
   14.5252  -10.6450  -12.6953 O   0  0  0  0  0  0  0  0  0  0  0  0
   16.7441  -10.6579  -12.5842 O   0  0  0  0  0  0  0  0  0  0  0  0
  1  2  1  0
  3  4  2  0
  3  2  1  0
  6  7  1  0
  6  5  1  6
  7  3  1  0
  8  6  1  0
  9  8  2  0
 10 11  1  0
 11 12  1  0
 12 14  1  0
 12 13  1  1
 14 16  1  0
 14 15  1  1
 15  8  1  0
 16 18  1  0
 17 16  2  0
M  END
$$$$
