GAI.pdb
     RDKit          3D

 18 17  0  0  1  0  0  0  0  0999 V2000
   22.1084  -12.8594  -19.3970 N   0  0  0  0  0  0  0  0  0  0  0  0
   22.4614  -11.4604  -19.5563 C   0  0  0  0  0  0  0  0  0  0  0  0
   22.1510  -10.7723  -18.2638 C   0  0  0  0  0  0  0  0  0  0  0  0
   21.0796  -10.1112  -18.0994 O   0  0  0  0  0  0  0  0  0  0  0  0
   23.6551  -10.6279  -14.7815 C   0  0  0  0  0  0  0  0  0  0  0  0
   22.7273  -10.2080  -15.8854 C   0  0  2  0  0  0  0  0  0  0  0  0
   23.0355  -10.8211  -17.1535 N   0  0  0  0  0  0  0  0  0  0  0  0
   22.7280   -8.7260  -15.9567 C   0  0  0  0  0  0  0  0  0  0  0  0
   23.5945   -8.1978  -16.7003 O   0  0  0  0  0  0  0  0  0  0  0  0
   19.6257   -4.2046  -17.7435 C   0  0  0  0  0  0  0  0  0  0  0  0
   20.6291   -4.5856  -16.7302 C   0  0  0  0  0  0  0  0  0  0  0  0
   20.7804   -6.0127  -16.3550 C   0  0  2  0  0  0  0  0  0  0  0  0
   19.4092   -6.6355  -16.0564 C   0  0  0  0  0  0  0  0  0  0  0  0
   21.8033   -6.4266  -15.3841 C   0  0  2  0  0  0  0  0  0  0  0  0
   21.8444   -7.8961  -15.2636 N   0  0  0  0  0  0  0  0  0  0  0  0
   21.8443   -5.8483  -14.0521 C   0  0  0  0  0  0  0  0  0  0  0  0
   21.2800   -6.5172  -13.1027 O   0  0  0  0  0  0  0  0  0  0  0  0
   22.4055   -4.6730  -13.6205 O   0  0  0  0  0  0  0  0  0  0  0  0
  1  2  1  0
  3  4  2  0
  3  2  1  0
  6  7  1  0
  6  5  1  1
  7  3  1  0
  8  6  1  0
  9  8  2  0
 10 11  1  0
 11 12  1  0
 12 14  1  0
 12 13  1  1
 14 16  1  0
 14 15  1  1
 15  8  1  0
 16 18  1  0
 17 16  2  0
M  END
$$$$
