GAI.pdb
     RDKit          3D

 18 17  0  0  1  0  0  0  0  0999 V2000
   14.4823  -11.8387  -14.3194 N   0  0  0  0  0  0  0  0  0  0  0  0
   15.1598  -10.5773  -14.5585 C   0  0  0  0  0  0  0  0  0  0  0  0
   15.7400  -10.1285  -13.2539 C   0  0  0  0  0  0  0  0  0  0  0  0
   15.2701  -10.5233  -12.1426 O   0  0  0  0  0  0  0  0  0  0  0  0
   18.7246   -8.1178  -12.0657 C   0  0  0  0  0  0  0  0  0  0  0  0
   17.3553   -8.7222  -11.9420 C   0  0  2  0  0  0  0  0  0  0  0  0
   16.8453   -9.2388  -13.1879 N   0  0  0  0  0  0  0  0  0  0  0  0
   16.4532   -7.7130  -11.3346 C   0  0  0  0  0  0  0  0  0  0  0  0
   15.9101   -6.8958  -12.1219 O   0  0  0  0  0  0  0  0  0  0  0  0
   12.6435   -8.9947   -7.7731 C   0  0  0  0  0  0  0  0  0  0  0  0
   13.4785   -8.3304   -8.7929 C   0  0  0  0  0  0  0  0  0  0  0  0
   14.3802   -7.2240   -8.3889 C   0  0  2  0  0  0  0  0  0  0  0  0
   13.6116   -6.1817   -7.5643 C   0  0  0  0  0  0  0  0  0  0  0  0
   15.2869   -6.6034   -9.3651 C   0  0  2  0  0  0  0  0  0  0  0  0
   16.1742   -7.6148   -9.9699 N   0  0  0  0  0  0  0  0  0  0  0  0
   16.0804   -5.4394   -9.0106 C   0  0  0  0  0  0  0  0  0  0  0  0
   17.2186   -5.6548   -8.4401 O   0  0  0  0  0  0  0  0  0  0  0  0
   15.8146   -4.1056   -9.1914 O   0  0  0  0  0  0  0  0  0  0  0  0
  1  2  1  0
  3  4  2  0
  3  2  1  0
  6  7  1  0
  6  5  1  6
  7  3  1  0
  8  6  1  0
  9  8  2  0
 10 11  1  0
 11 12  1  0
 12 14  1  0
 12 13  1  6
 14 16  1  0
 14 15  1  1
 15  8  1  0
 16 18  1  0
 17 16  2  0
M  END
$$$$
