GAI.pdb
     RDKit          3D

 18 17  0  0  1  0  0  0  0  0999 V2000
   16.0279  -13.6804  -16.3989 N   0  0  0  0  0  0  0  0  0  0  0  0
   15.4587  -12.3541  -16.2435 C   0  0  0  0  0  0  0  0  0  0  0  0
   16.5560  -11.3664  -16.4894 C   0  0  0  0  0  0  0  0  0  0  0  0
   17.7469  -11.7362  -16.7277 O   0  0  0  0  0  0  0  0  0  0  0  0
   16.8414   -7.6102  -16.9570 C   0  0  0  0  0  0  0  0  0  0  0  0
   17.3638   -9.0017  -16.7413 C   0  0  2  0  0  0  0  0  0  0  0  0
   16.3257   -9.9649  -16.4697 N   0  0  0  0  0  0  0  0  0  0  0  0
   18.3882   -8.9542  -15.6690 C   0  0  0  0  0  0  0  0  0  0  0  0
   17.9814   -9.1351  -14.4924 O   0  0  0  0  0  0  0  0  0  0  0  0
   23.8726  -11.0091  -14.3039 C   0  0  0  0  0  0  0  0  0  0  0  0
   22.8425   -9.9873  -14.0328 C   0  0  0  0  0  0  0  0  0  0  0  0
   21.8054   -9.7086  -15.0561 C   0  0  2  0  0  0  0  0  0  0  0  0
   22.4475   -9.5659  -16.4434 C   0  0  0  0  0  0  0  0  0  0  0  0
   20.7699   -8.6939  -14.8147 C   0  0  2  0  0  0  0  0  0  0  0  0
   19.7496   -8.7256  -15.8795 N   0  0  0  0  0  0  0  0  0  0  0  0
   21.1282   -7.3105  -14.5536 C   0  0  0  0  0  0  0  0  0  0  0  0
   21.5887   -7.0335  -13.3795 O   0  0  0  0  0  0  0  0  0  0  0  0
   21.0604   -6.2142  -15.3759 O   0  0  0  0  0  0  0  0  0  0  0  0
  1  2  1  0
  3  4  2  0
  3  2  1  0
  6  7  1  0
  6  5  1  1
  7  3  1  0
  8  6  1  0
  9  8  2  0
 10 11  1  0
 11 12  1  0
 12 14  1  0
 12 13  1  6
 14 16  1  0
 14 15  1  6
 15  8  1  0
 16 18  1  0
 17 16  2  0
M  END
$$$$
