GAI.pdb
     RDKit          3D

 18 17  0  0  1  0  0  0  0  0999 V2000
   28.5215  -20.6023  -14.0645 N   0  0  0  0  0  0  0  0  0  0  0  0
   27.5154  -21.4279  -13.4217 C   0  0  0  0  0  0  0  0  0  0  0  0
   27.1515  -20.7634  -12.1309 C   0  0  0  0  0  0  0  0  0  0  0  0
   27.9602  -19.9964  -11.5231 O   0  0  0  0  0  0  0  0  0  0  0  0
   23.9949  -20.2018  -10.1349 C   0  0  0  0  0  0  0  0  0  0  0  0
   25.4841  -20.2493  -10.3245 C   0  0  2  0  0  0  0  0  0  0  0  0
   25.8850  -20.9541  -11.5168 N   0  0  0  0  0  0  0  0  0  0  0  0
   26.0924  -20.8191   -9.0971 C   0  0  0  0  0  0  0  0  0  0  0  0
   26.3387  -22.0527   -9.1103 O   0  0  0  0  0  0  0  0  0  0  0  0
   30.1991  -19.4835   -4.8700 C   0  0  0  0  0  0  0  0  0  0  0  0
   28.8761  -20.1154   -5.0402 C   0  0  0  0  0  0  0  0  0  0  0  0
   28.0189  -19.7153   -6.1828 C   0  0  2  0  0  0  0  0  0  0  0  0
   27.4311  -18.3167   -5.9463 C   0  0  0  0  0  0  0  0  0  0  0  0
   27.0289  -20.6488   -6.7382 C   0  0  2  0  0  0  0  0  0  0  0  0
   26.4031  -20.0863   -7.9497 N   0  0  0  0  0  0  0  0  0  0  0  0
   25.9895  -21.2197   -5.8990 C   0  0  0  0  0  0  0  0  0  0  0  0
   24.7769  -20.8358   -6.1212 O   0  0  0  0  0  0  0  0  0  0  0  0
   26.0851  -22.1324   -4.8791 O   0  0  0  0  0  0  0  0  0  0  0  0
  1  2  1  0
  3  4  2  0
  3  2  1  0
  6  7  1  0
  6  5  1  1
  7  3  1  0
  8  6  1  0
  9  8  2  0
 10 11  1  0
 11 12  1  0
 12 14  1  0
 12 13  1  1
 14 16  1  0
 14 15  1  6
 15  8  1  0
 16 18  1  0
 17 16  2  0
M  END
$$$$
