GAI.pdb
     RDKit          3D

 18 17  0  0  1  0  0  0  0  0999 V2000
   16.3168  -14.1470  -16.2121 N   0  0  0  0  0  0  0  0  0  0  0  0
   15.7325  -12.8358  -15.9960 C   0  0  0  0  0  0  0  0  0  0  0  0
   16.7936  -11.8213  -16.2877 C   0  0  0  0  0  0  0  0  0  0  0  0
   18.0089  -12.1524  -16.4469 O   0  0  0  0  0  0  0  0  0  0  0  0
   16.9057   -8.1161  -17.1090 C   0  0  0  0  0  0  0  0  0  0  0  0
   17.4913   -9.4589  -16.7777 C   0  0  2  0  0  0  0  0  0  0  0  0
   16.5000  -10.4363  -16.4021 N   0  0  0  0  0  0  0  0  0  0  0  0
   18.5271   -9.2709  -15.7323 C   0  0  0  0  0  0  0  0  0  0  0  0
   18.1529   -9.3999  -14.5382 O   0  0  0  0  0  0  0  0  0  0  0  0
   24.0462  -11.0846  -14.3408 C   0  0  0  0  0  0  0  0  0  0  0  0
   22.9809  -10.0917  -14.0998 C   0  0  0  0  0  0  0  0  0  0  0  0
   21.9650   -9.8430  -15.1517 C   0  0  2  0  0  0  0  0  0  0  0  0
   22.6385   -9.7096  -16.5250 C   0  0  0  0  0  0  0  0  0  0  0  0
   20.9089   -8.8409  -14.9497 C   0  0  2  0  0  0  0  0  0  0  0  0
   19.8661   -8.9656  -15.9855 N   0  0  0  0  0  0  0  0  0  0  0  0
   21.2366   -7.4352  -14.7851 C   0  0  0  0  0  0  0  0  0  0  0  0
   21.2037   -6.6956  -15.8430 O   0  0  0  0  0  0  0  0  0  0  0  0
   21.5821   -6.7393  -13.6542 O   0  0  0  0  0  0  0  0  0  0  0  0
  1  2  1  0
  3  4  2  0
  3  2  1  0
  6  7  1  0
  6  5  1  1
  7  3  1  0
  8  6  1  0
  9  8  2  0
 10 11  1  0
 11 12  1  0
 12 14  1  0
 12 13  1  6
 14 16  1  0
 14 15  1  6
 15  8  1  0
 16 18  1  0
 17 16  2  0
M  END
$$$$
