GAI.pdb
     RDKit          3D

 18 17  0  0  1  0  0  0  0  0999 V2000
   15.6638  -15.7856  -15.1789 N   0  0  0  0  0  0  0  0  0  0  0  0
   14.7346  -14.9718  -14.4163 C   0  0  0  0  0  0  0  0  0  0  0  0
   14.9445  -13.5489  -14.8303 C   0  0  0  0  0  0  0  0  0  0  0  0
   15.7814  -13.2315  -15.7307 O   0  0  0  0  0  0  0  0  0  0  0  0
   13.2389  -10.2259  -14.1451 C   0  0  0  0  0  0  0  0  0  0  0  0
   14.2795  -11.1286  -14.7434 C   0  0  2  0  0  0  0  0  0  0  0  0
   14.2209  -12.4785  -14.2401 N   0  0  0  0  0  0  0  0  0  0  0  0
   15.6102  -10.5047  -14.5407 C   0  0  0  0  0  0  0  0  0  0  0  0
   16.2162  -10.8016  -13.4789 O   0  0  0  0  0  0  0  0  0  0  0  0
   20.6590   -9.4100  -17.6653 C   0  0  0  0  0  0  0  0  0  0  0  0
   19.8502   -9.0563  -16.4824 C   0  0  0  0  0  0  0  0  0  0  0  0
   18.4072   -9.3988  -16.4571 C   0  0  2  0  0  0  0  0  0  0  0  0
   17.7343   -8.9770  -17.7711 C   0  0  0  0  0  0  0  0  0  0  0  0
   17.5832   -9.0808  -15.2823 C   0  0  2  0  0  0  0  0  0  0  0  0
   16.2211   -9.6254  -15.4371 N   0  0  0  0  0  0  0  0  0  0  0  0
   17.4870   -7.7190  -14.7857 C   0  0  0  0  0  0  0  0  0  0  0  0
   18.5001   -7.2586  -14.1308 O   0  0  0  0  0  0  0  0  0  0  0  0
   16.4667   -6.8094  -14.9048 O   0  0  0  0  0  0  0  0  0  0  0  0
  1  2  1  0
  3  4  2  0
  3  2  1  0
  6  7  1  0
  6  5  1  1
  7  3  1  0
  8  6  1  0
  9  8  2  0
 10 11  1  0
 11 12  1  0
 12 14  1  0
 12 13  1  6
 14 16  1  0
 14 15  1  6
 15  8  1  0
 16 18  1  0
 17 16  2  0
M  END
$$$$
