REN.pdb
     RDKit          3D

 29 28  0  0  1  0  0  0  0  0999 V2000
   24.3415  -20.5514  -11.4571 N   0  0  0  0  0  0  0  0  0  0  0  0
   25.3655  -20.7222  -10.5032 C   0  0  0  0  0  0  0  0  0  0  0  0
   25.0847  -20.5019   -9.2623 N   0  0  0  0  0  0  0  0  0  0  0  0
   26.6751  -21.1262  -10.8774 N   0  0  0  0  0  0  0  0  0  0  0  0
   27.1314  -21.0605  -12.2339 C   0  0  0  0  0  0  0  0  0  0  0  0
   27.5536  -19.6660  -12.6407 C   0  0  0  0  0  0  0  0  0  0  0  0
   27.3817  -19.4177  -14.1101 C   0  0  0  0  0  0  0  0  0  0  0  0
   27.6937  -20.5801  -14.9810 C   0  0  2  0  0  0  0  0  0  0  0  0
   28.6334  -20.2197  -16.0407 N   0  0  0  0  0  0  0  0  0  0  0  0
   26.4732  -21.1268  -15.5947 C   0  0  0  0  0  0  0  0  0  0  0  0
   25.8745  -20.5242  -16.4995 O   0  0  0  0  0  0  0  0  0  0  0  0
   25.7439  -20.5671   -8.4839 N   0  0  0  0  0  0  0  0  0  0  0  0
   25.9483  -22.3720  -15.1558 C   0  0  2  0  0  0  0  0  0  0  0  0
   24.8490  -22.9719  -15.8309 C   0  0  0  0  0  0  0  0  0  0  0  0
   24.8604  -24.4591  -15.7865 C   0  0  0  0  0  0  0  0  0  0  0  0
   23.7568  -25.1766  -16.4568 C   0  0  0  0  0  0  0  0  0  0  0  0
   23.7921  -26.6433  -16.4458 O   0  0  0  0  0  0  0  0  0  0  0  0
   24.6826  -27.3039  -15.8961 C   0  0  0  0  0  0  0  0  0  0  0  0
   23.5951  -22.4096  -15.2399 O   0  0  0  0  0  0  0  0  0  0  0  0
   23.4727  -22.2246  -13.9866 O   0  0  0  0  0  0  0  0  0  0  0  0
   22.7633  -27.3458  -17.0936 N   0  0  0  0  0  0  0  0  0  0  0  0
   20.4187  -19.0727  -14.4860 C   0  0  0  0  0  0  0  0  0  0  0  0
   20.3669  -19.2386  -15.9074 O   0  0  0  0  0  0  0  0  0  0  0  0
   19.8987  -18.2965  -16.5735 C   0  0  0  0  0  0  0  0  0  0  0  0
   20.8526  -20.4752  -16.5102 C   0  0  2  0  0  0  0  0  0  0  0  0
   21.3071  -21.5306  -15.5533 N   0  0  0  0  0  0  0  0  0  0  0  0
   22.5409  -22.0875  -16.1220 C   0  0  0  0  0  0  0  0  0  0  0  0
   20.3602  -22.6576  -15.4045 O   0  0  0  0  0  0  0  0  0  0  0  0
   19.5432  -22.7076  -14.2790 O   0  0  0  0  0  0  0  0  0  0  0  0
  2  3  2  0
  2  1  1  0
  4  2  1  0
  5  6  1  0
  5  4  1  0
  7  6  1  0
  8 10  1  0
  8  7  1  0
  8  9  1  6
 10 11  2  0
 12 13  1  0
 12 10  1  0
 13 14  1  1
 14 15  1  0
 16 20  1  0
 16 15  1  0
 17 16  2  0
 18 19  2  0
 18 13  1  0
 21 22  1  0
 22 23  2  0
 22 24  1  0
 25 24  1  1
 25 26  1  0
 26 18  1  0
 27 25  1  0
 27 28  1  0
 29 27  2  0
M  END
$$$$
