REN.pdb
     RDKit          3D

 29 28  0  0  1  0  0  0  0  0999 V2000
   16.1385   -8.4636  -13.7336 N   0  0  0  0  0  0  0  0  0  0  0  0
   16.9709   -8.6721  -14.8524 C   0  0  0  0  0  0  0  0  0  0  0  0
   16.6045   -8.1728  -15.9853 N   0  0  0  0  0  0  0  0  0  0  0  0
   18.1829   -9.4067  -14.7549 N   0  0  0  0  0  0  0  0  0  0  0  0
   18.8732   -9.5710  -13.5103 C   0  0  0  0  0  0  0  0  0  0  0  0
   20.1884   -8.8248  -13.4694 C   0  0  0  0  0  0  0  0  0  0  0  0
   20.0050   -7.3376  -13.4005 C   0  0  0  0  0  0  0  0  0  0  0  0
   20.5097   -6.7026  -12.1559 C   0  0  2  0  0  0  0  0  0  0  0  0
   21.6732   -7.4106  -11.6261 N   0  0  0  0  0  0  0  0  0  0  0  0
   19.4662   -6.6622  -11.1194 C   0  0  0  0  0  0  0  0  0  0  0  0
   19.5378   -7.3622  -10.0971 O   0  0  0  0  0  0  0  0  0  0  0  0
   17.1374   -8.2229  -16.8561 N   0  0  0  0  0  0  0  0  0  0  0  0
   18.3396   -5.8100  -11.2718 C   0  0  2  0  0  0  0  0  0  0  0  0
   17.4681   -5.5599  -10.1755 C   0  0  0  0  0  0  0  0  0  0  0  0
   16.8761   -4.1948  -10.1824 C   0  0  0  0  0  0  0  0  0  0  0  0
   15.9212   -3.8528   -9.1086 C   0  0  0  0  0  0  0  0  0  0  0  0
   15.3327   -2.5090   -9.1230 O   0  0  0  0  0  0  0  0  0  0  0  0
   15.5986   -1.6528   -9.9762 C   0  0  0  0  0  0  0  0  0  0  0  0
   16.4138   -6.6211  -10.1858 O   0  0  0  0  0  0  0  0  0  0  0  0
   16.0114   -7.1512  -11.2706 O   0  0  0  0  0  0  0  0  0  0  0  0
   14.4168   -2.1648   -8.1159 N   0  0  0  0  0  0  0  0  0  0  0  0
   12.5740   -9.6666   -8.3660 C   0  0  0  0  0  0  0  0  0  0  0  0
   13.3904   -9.2309   -7.2731 O   0  0  0  0  0  0  0  0  0  0  0  0
   13.0793   -9.6309   -6.1358 C   0  0  0  0  0  0  0  0  0  0  0  0
   14.5299   -8.3554   -7.5248 C   0  0  1  0  0  0  0  0  0  0  0  0
   14.7433   -7.9589   -8.9507 N   0  0  0  0  0  0  0  0  0  0  0  0
   15.8728   -7.0207   -8.9446 C   0  0  0  0  0  0  0  0  0  0  0  0
   13.5984   -7.2432   -9.5553 O   0  0  0  0  0  0  0  0  0  0  0  0
   13.3143   -5.9477   -9.1336 O   0  0  0  0  0  0  0  0  0  0  0  0
  2  3  2  0
  2  1  1  0
  4  2  1  0
  5  6  1  0
  5  4  1  0
  7  6  1  0
  8 10  1  0
  8  7  1  0
  8  9  1  1
 10 11  2  0
 12 13  1  0
 12 10  1  0
 13 14  1  6
 14 15  1  0
 16 20  1  0
 16 15  1  0
 17 16  2  0
 18 19  2  0
 18 13  1  0
 21 22  1  0
 22 23  2  0
 22 24  1  0
 25 24  1  6
 25 26  1  0
 26 18  1  0
 27 25  1  0
 27 28  1  0
 29 27  2  0
M  END
$$$$
