REN.pdb
     RDKit          3D

 29 28  0  0  1  0  0  0  0  0999 V2000
   26.5067  -21.3015  -10.4373 N   0  0  0  0  0  0  0  0  0  0  0  0
   27.8766  -21.3508  -10.7674 C   0  0  0  0  0  0  0  0  0  0  0  0
   28.6772  -21.9559   -9.9550 N   0  0  0  0  0  0  0  0  0  0  0  0
   28.3801  -20.7584  -11.9564 N   0  0  0  0  0  0  0  0  0  0  0  0
   27.5151  -20.3145  -13.0088 C   0  0  0  0  0  0  0  0  0  0  0  0
   26.8365  -21.4591  -13.7283 C   0  0  0  0  0  0  0  0  0  0  0  0
   25.3658  -21.2309  -13.9154 C   0  0  0  0  0  0  0  0  0  0  0  0
   25.0181  -20.1219  -14.8408 C   0  0  2  0  0  0  0  0  0  0  0  0
   26.0411  -19.0782  -14.8357 N   0  0  0  0  0  0  0  0  0  0  0  0
   23.7236  -19.5195  -14.4854 C   0  0  0  0  0  0  0  0  0  0  0  0
   23.6190  -18.7063  -13.5537 O   0  0  0  0  0  0  0  0  0  0  0  0
   29.6944  -21.9988  -10.0462 N   0  0  0  0  0  0  0  0  0  0  0  0
   22.5516  -19.8634  -15.2112 C   0  0  1  0  0  0  0  0  0  0  0  0
   21.3091  -19.2354  -14.9183 C   0  0  0  0  0  0  0  0  0  0  0  0
   20.9761  -18.1130  -15.8365 C   0  0  0  0  0  0  0  0  0  0  0  0
   21.2550  -18.2947  -17.2756 C   0  0  0  0  0  0  0  0  0  0  0  0
   20.9453  -17.1782  -18.1757 O   0  0  0  0  0  0  0  0  0  0  0  0
   20.2198  -17.2820  -19.1730 C   0  0  0  0  0  0  0  0  0  0  0  0
   20.2533  -20.2951  -14.9328 O   0  0  0  0  0  0  0  0  0  0  0  0
   20.4370  -21.4120  -15.5148 O   0  0  0  0  0  0  0  0  0  0  0  0
   21.4992  -15.9178  -17.8996 N   0  0  0  0  0  0  0  0  0  0  0  0
   15.8418  -22.8258  -13.9236 C   0  0  0  0  0  0  0  0  0  0  0  0
   16.7552  -22.5865  -12.8470 O   0  0  0  0  0  0  0  0  0  0  0  0
   16.5839  -23.2382  -11.8000 C   0  0  0  0  0  0  0  0  0  0  0  0
   17.8280  -21.6115  -13.0110 C   0  0  2  0  0  0  0  0  0  0  0  0
   17.9541  -21.0058  -14.3724 N   0  0  0  0  0  0  0  0  0  0  0  0
   19.0350  -20.0167  -14.2761 C   0  0  0  0  0  0  0  0  0  0  0  0
   16.7480  -20.2761  -14.8217 O   0  0  0  0  0  0  0  0  0  0  0  0
   15.8367  -20.9251  -15.6493 O   0  0  0  0  0  0  0  0  0  0  0  0
  2  3  2  0
  2  1  1  0
  4  2  1  0
  5  6  1  0
  5  4  1  0
  7  6  1  0
  8 10  1  0
  8  7  1  0
  8  9  1  1
 10 11  2  0
 12 13  1  0
 12 10  1  0
 13 14  1  1
 14 15  1  0
 16 20  1  0
 16 15  1  0
 17 16  2  0
 18 19  2  0
 18 13  1  0
 21 22  1  0
 22 23  2  0
 22 24  1  0
 25 24  1  6
 25 26  1  0
 26 18  1  0
 27 25  1  0
 27 28  1  0
 29 27  2  0
M  END
$$$$
