REN.pdb
     RDKit          3D

 29 28  0  0  1  0  0  0  0  0999 V2000
   24.5041  -26.0934  -15.4040 N   0  0  0  0  0  0  0  0  0  0  0  0
   24.1879  -26.2311  -16.7711 C   0  0  0  0  0  0  0  0  0  0  0  0
   24.8595  -27.0856  -17.4683 N   0  0  0  0  0  0  0  0  0  0  0  0
   23.1618  -25.4613  -17.3816 N   0  0  0  0  0  0  0  0  0  0  0  0
   23.3817  -24.1154  -17.8208 C   0  0  0  0  0  0  0  0  0  0  0  0
   22.1396  -23.2581  -17.7191 C   0  0  0  0  0  0  0  0  0  0  0  0
   21.5536  -23.2545  -16.3382 C   0  0  0  0  0  0  0  0  0  0  0  0
   21.8365  -22.0324  -15.5424 C   0  0  2  0  0  0  0  0  0  0  0  0
   21.7773  -20.8284  -16.3686 N   0  0  0  0  0  0  0  0  0  0  0  0
   23.1615  -22.1072  -14.9069 C   0  0  0  0  0  0  0  0  0  0  0  0
   23.4742  -23.0516  -14.1650 O   0  0  0  0  0  0  0  0  0  0  0  0
   24.7835  -27.2174  -18.4790 N   0  0  0  0  0  0  0  0  0  0  0  0
   24.1214  -21.0842  -15.1324 C   0  0  1  0  0  0  0  0  0  0  0  0
   25.4140  -21.1626  -14.5432 C   0  0  0  0  0  0  0  0  0  0  0  0
   26.4961  -20.6091  -15.4014 C   0  0  0  0  0  0  0  0  0  0  0  0
   27.0243  -21.4663  -16.4822 C   0  0  0  0  0  0  0  0  0  0  0  0
   28.0827  -20.9131  -17.3345 O   0  0  0  0  0  0  0  0  0  0  0  0
   28.5529  -19.7770  -17.1940 C   0  0  0  0  0  0  0  0  0  0  0  0
   25.3489  -20.4709  -13.2184 O   0  0  0  0  0  0  0  0  0  0  0  0
   24.7638  -19.3491  -13.0795 O   0  0  0  0  0  0  0  0  0  0  0  0
   28.5964  -21.7088  -18.3712 N   0  0  0  0  0  0  0  0  0  0  0  0
   25.6824  -19.4021   -8.2099 C   0  0  0  0  0  0  0  0  0  0  0  0
   24.7462  -20.3797   -8.6772 O   0  0  0  0  0  0  0  0  0  0  0  0
   23.8818  -20.7706   -7.8708 C   0  0  0  0  0  0  0  0  0  0  0  0
   24.8360  -20.8709  -10.0479 C   0  0  1  0  0  0  0  0  0  0  0  0
   26.0076  -20.3828  -10.8385 N   0  0  0  0  0  0  0  0  0  0  0  0
   25.9621  -21.1049  -12.1162 C   0  0  0  0  0  0  0  0  0  0  0  0
   27.3185  -20.6869  -10.2239 O   0  0  0  0  0  0  0  0  0  0  0  0
   27.7180  -19.9715   -9.0991 O   0  0  0  0  0  0  0  0  0  0  0  0
  2  3  2  0
  2  1  1  0
  4  2  1  0
  5  6  1  0
  5  4  1  0
  7  6  1  0
  8 10  1  0
  8  7  1  0
  8  9  1  6
 10 11  2  0
 12 13  1  0
 12 10  1  0
 13 14  1  1
 14 15  1  0
 16 20  1  0
 16 15  1  0
 17 16  2  0
 18 19  2  0
 18 13  1  0
 21 22  1  0
 22 23  2  0
 22 24  1  0
 25 24  1  6
 25 26  1  0
 26 18  1  0
 27 25  1  0
 27 28  1  0
 29 27  2  0
M  END
$$$$
