REN.pdb
     RDKit          3D

 29 28  0  0  1  0  0  0  0  0999 V2000
   29.0670  -21.1536  -14.5087 N   0  0  0  0  0  0  0  0  0  0  0  0
   27.8977  -20.4192  -14.7939 C   0  0  0  0  0  0  0  0  0  0  0  0
   27.4733  -20.3995  -16.0132 N   0  0  0  0  0  0  0  0  0  0  0  0
   27.1921  -19.7156  -13.7813 N   0  0  0  0  0  0  0  0  0  0  0  0
   27.6104  -19.7347  -12.4112 C   0  0  0  0  0  0  0  0  0  0  0  0
   27.0618  -20.9212  -11.6500 C   0  0  0  0  0  0  0  0  0  0  0  0
   25.5686  -20.8772  -11.5127 C   0  0  0  0  0  0  0  0  0  0  0  0
   24.8472  -21.9964  -12.1714 C   0  0  2  0  0  0  0  0  0  0  0  0
   25.7673  -22.8878  -12.8746 N   0  0  0  0  0  0  0  0  0  0  0  0
   23.8482  -21.4946  -13.1281 C   0  0  0  0  0  0  0  0  0  0  0  0
   23.5617  -22.1238  -14.1588 O   0  0  0  0  0  0  0  0  0  0  0  0
   26.6389  -19.9101  -16.3433 N   0  0  0  0  0  0  0  0  0  0  0  0
   23.1843  -20.2616  -12.8878 C   0  0  2  0  0  0  0  0  0  0  0  0
   22.1898  -19.7881  -13.7883 C   0  0  0  0  0  0  0  0  0  0  0  0
   20.9480  -19.3209  -13.1148 C   0  0  0  0  0  0  0  0  0  0  0  0
   19.8252  -18.8819  -13.9682 C   0  0  0  0  0  0  0  0  0  0  0  0
   18.6432  -18.3216  -13.3037 O   0  0  0  0  0  0  0  0  0  0  0  0
   18.5890  -18.0770  -12.0917 C   0  0  0  0  0  0  0  0  0  0  0  0
   22.8096  -18.7090  -14.6184 O   0  0  0  0  0  0  0  0  0  0  0  0
   23.1306  -17.5836  -14.1180 O   0  0  0  0  0  0  0  0  0  0  0  0
   17.5043  -18.0453  -14.0771 N   0  0  0  0  0  0  0  0  0  0  0  0
   26.0036  -16.8954  -15.6470 C   0  0  0  0  0  0  0  0  0  0  0  0
   26.1454  -17.8838  -16.6735 O   0  0  0  0  0  0  0  0  0  0  0  0
   27.3037  -18.1873  -17.0149 C   0  0  0  0  0  0  0  0  0  0  0  0
   24.9569  -18.4854  -17.2684 C   0  0  2  0  0  0  0  0  0  0  0  0
   23.6470  -17.9298  -16.8087 N   0  0  0  0  0  0  0  0  0  0  0  0
   23.0295  -18.9781  -15.9867 C   0  0  0  0  0  0  0  0  0  0  0  0
   22.6990  -17.6349  -17.9055 O   0  0  0  0  0  0  0  0  0  0  0  0
   22.9404  -16.5394  -18.7291 O   0  0  0  0  0  0  0  0  0  0  0  0
  2  3  2  0
  2  1  1  0
  4  2  1  0
  5  6  1  0
  5  4  1  0
  7  6  1  0
  8 10  1  0
  8  7  1  0
  8  9  1  6
 10 11  2  0
 12 13  1  0
 12 10  1  0
 13 14  1  1
 14 15  1  0
 16 20  1  0
 16 15  1  0
 17 16  2  0
 18 19  2  0
 18 13  1  0
 21 22  1  0
 22 23  2  0
 22 24  1  0
 25 24  1  1
 25 26  1  0
 26 18  1  0
 27 25  1  0
 27 28  1  0
 29 27  2  0
M  END
$$$$
