REN.pdb
     RDKit          3D

 29 28  0  0  1  0  0  0  0  0999 V2000
   49.3783   -9.6827   -1.1248 N   0  0  0  0  0  0  0  0  0  0  0  0
   48.0293  -10.0878   -1.0623 C   0  0  0  0  0  0  0  0  0  0  0  0
   47.5888  -10.5681    0.0523 N   0  0  0  0  0  0  0  0  0  0  0  0
   47.1635   -9.9769   -2.1831 N   0  0  0  0  0  0  0  0  0  0  0  0
   47.5713   -9.3343   -3.3970 C   0  0  0  0  0  0  0  0  0  0  0  0
   47.6463  -10.2904   -4.5668 C   0  0  0  0  0  0  0  0  0  0  0  0
   46.4567  -11.2010   -4.6437 C   0  0  0  0  0  0  0  0  0  0  0  0
   46.5179  -12.2191   -5.7238 C   0  0  2  0  0  0  0  0  0  0  0  0
   47.8567  -12.7925   -5.8455 N   0  0  0  0  0  0  0  0  0  0  0  0
   46.1290  -11.6423   -7.0203 C   0  0  0  0  0  0  0  0  0  0  0  0
   46.9736  -11.1979   -7.8137 O   0  0  0  0  0  0  0  0  0  0  0  0
   46.6508  -10.9434    0.2074 N   0  0  0  0  0  0  0  0  0  0  0  0
   44.7595  -11.5806   -7.3935 C   0  0  2  0  0  0  0  0  0  0  0  0
   44.3749  -11.0211   -8.6438 C   0  0  0  0  0  0  0  0  0  0  0  0
   43.1999  -11.6923   -9.2623 C   0  0  0  0  0  0  0  0  0  0  0  0
   42.7276  -11.1887  -10.5682 C   0  0  0  0  0  0  0  0  0  0  0  0
   41.6038  -11.8875  -11.2016 O   0  0  0  0  0  0  0  0  0  0  0  0
   41.1780  -11.6183  -12.3321 C   0  0  0  0  0  0  0  0  0  0  0  0
   44.1294   -9.5612   -8.4285 O   0  0  0  0  0  0  0  0  0  0  0  0
   44.0022   -9.0711   -7.2608 O   0  0  0  0  0  0  0  0  0  0  0  0
   40.9683  -12.9200  -10.4933 N   0  0  0  0  0  0  0  0  0  0  0  0
   43.2354   -5.4765   -6.2732 C   0  0  0  0  0  0  0  0  0  0  0  0
   42.7643   -5.8772   -7.5648 O   0  0  0  0  0  0  0  0  0  0  0  0
   42.1302   -5.0340   -8.2259 C   0  0  0  0  0  0  0  0  0  0  0  0
   43.0374   -7.2262   -8.0485 C   0  0  2  0  0  0  0  0  0  0  0  0
   43.7214   -7.3156   -9.3753 N   0  0  0  0  0  0  0  0  0  0  0  0
   44.0415   -8.7353   -9.5701 C   0  0  0  0  0  0  0  0  0  0  0  0
   45.0013   -6.5769   -9.4447 O   0  0  0  0  0  0  0  0  0  0  0  0
   46.1694   -7.2120   -9.0336 O   0  0  0  0  0  0  0  0  0  0  0  0
  2  3  2  0
  2  1  1  0
  4  2  1  0
  5  6  1  0
  5  4  1  0
  7  6  1  0
  8 10  1  0
  8  7  1  0
  8  9  1  6
 10 11  2  0
 12 13  1  0
 12 10  1  0
 13 14  1  1
 14 15  1  0
 16 20  1  0
 16 15  1  0
 17 16  2  0
 18 19  2  0
 18 13  1  0
 21 22  1  0
 22 23  2  0
 22 24  1  0
 25 24  1  6
 25 26  1  0
 26 18  1  0
 27 25  1  0
 27 28  1  0
 29 27  2  0
M  END
$$$$
