REN.pdb
     RDKit          3D

 29 28  0  0  1  0  0  0  0  0999 V2000
   29.2510  -20.9022   -8.5251 N   0  0  0  0  0  0  0  0  0  0  0  0
   28.9516  -20.3529   -7.2616 C   0  0  0  0  0  0  0  0  0  0  0  0
   29.9089  -20.2465   -6.4017 N   0  0  0  0  0  0  0  0  0  0  0  0
   27.6401  -19.9219   -6.9263 N   0  0  0  0  0  0  0  0  0  0  0  0
   26.6156  -19.7667   -7.9158 C   0  0  0  0  0  0  0  0  0  0  0  0
   26.4196  -21.0113   -8.7530 C   0  0  0  0  0  0  0  0  0  0  0  0
   25.3339  -20.8524   -9.7759 C   0  0  0  0  0  0  0  0  0  0  0  0
   25.7383  -21.1667  -11.1704 C   0  0  2  0  0  0  0  0  0  0  0  0
   27.1444  -20.8456  -11.4066 N   0  0  0  0  0  0  0  0  0  0  0  0
   24.9137  -20.4304  -12.1414 C   0  0  0  0  0  0  0  0  0  0  0  0
   24.9299  -19.1908  -12.2003 O   0  0  0  0  0  0  0  0  0  0  0  0
   29.8150  -19.8828   -5.4511 N   0  0  0  0  0  0  0  0  0  0  0  0
   24.0699  -21.1343  -13.0420 C   0  0  1  0  0  0  0  0  0  0  0  0
   23.3280  -20.4352  -14.0345 C   0  0  0  0  0  0  0  0  0  0  0  0
   23.5290  -20.9616  -15.4116 C   0  0  0  0  0  0  0  0  0  0  0  0
   24.8634  -20.7979  -16.0235 C   0  0  0  0  0  0  0  0  0  0  0  0
   25.5247  -21.9986  -16.5465 O   0  0  0  0  0  0  0  0  0  0  0  0
   26.3834  -22.6354  -15.9231 C   0  0  0  0  0  0  0  0  0  0  0  0
   21.8878  -20.4729  -13.6315 O   0  0  0  0  0  0  0  0  0  0  0  0
   21.4185  -21.4186  -12.9206 O   0  0  0  0  0  0  0  0  0  0  0  0
   25.1716  -22.4579  -17.8256 N   0  0  0  0  0  0  0  0  0  0  0  0
   16.9425  -18.8701  -13.0753 C   0  0  0  0  0  0  0  0  0  0  0  0
   17.7985  -17.7617  -13.3743 O   0  0  0  0  0  0  0  0  0  0  0  0
   17.2869  -16.6267  -13.3565 C   0  0  0  0  0  0  0  0  0  0  0  0
   19.2053  -17.9958  -13.6818 C   0  0  1  0  0  0  0  0  0  0  0  0
   19.6513  -19.4225  -13.6421 N   0  0  0  0  0  0  0  0  0  0  0  0
   21.0565  -19.4187  -14.0679 C   0  0  0  0  0  0  0  0  0  0  0  0
   18.9248  -20.3076  -14.5789 O   0  0  0  0  0  0  0  0  0  0  0  0
   18.9510  -20.0160  -15.9395 O   0  0  0  0  0  0  0  0  0  0  0  0
  2  3  2  0
  2  1  1  0
  4  2  1  0
  5  6  1  0
  5  4  1  0
  7  6  1  0
  8 10  1  0
  8  7  1  0
  8  9  1  1
 10 11  2  0
 12 13  1  0
 12 10  1  0
 13 14  1  6
 14 15  1  0
 16 20  1  0
 16 15  1  0
 17 16  2  0
 18 19  2  0
 18 13  1  0
 21 22  1  0
 22 23  2  0
 22 24  1  0
 25 24  1  1
 25 26  1  0
 26 18  1  0
 27 25  1  0
 27 28  1  0
 29 27  2  0
M  END
$$$$
