REN.pdb
     RDKit          3D

 29 28  0  0  1  0  0  0  0  0999 V2000
   27.9065  -25.0176  -16.4129 N   0  0  0  0  0  0  0  0  0  0  0  0
   29.1941  -24.7401  -16.9161 C   0  0  0  0  0  0  0  0  0  0  0  0
   29.7863  -25.6535  -17.6104 N   0  0  0  0  0  0  0  0  0  0  0  0
   29.8370  -23.4960  -16.6775 N   0  0  0  0  0  0  0  0  0  0  0  0
   29.1088  -22.3300  -16.2740 C   0  0  0  0  0  0  0  0  0  0  0  0
   28.5414  -21.5613  -17.4468 C   0  0  0  0  0  0  0  0  0  0  0  0
   27.0456  -21.4583  -17.3986 C   0  0  0  0  0  0  0  0  0  0  0  0
   26.5184  -20.4696  -16.4232 C   0  0  2  0  0  0  0  0  0  0  0  0
   27.5718  -19.9721  -15.5408 N   0  0  0  0  0  0  0  0  0  0  0  0
   25.4471  -21.0539  -15.6010 C   0  0  0  0  0  0  0  0  0  0  0  0
   24.6540  -21.8886  -16.0642 O   0  0  0  0  0  0  0  0  0  0  0  0
   30.7578  -25.6221  -17.9267 N   0  0  0  0  0  0  0  0  0  0  0  0
   25.2968  -20.6669  -14.2422 C   0  0  1  0  0  0  0  0  0  0  0  0
   24.2150  -21.1645  -13.4637 C   0  0  0  0  0  0  0  0  0  0  0  0
   24.4970  -21.2001  -12.0032 C   0  0  0  0  0  0  0  0  0  0  0  0
   25.8465  -21.6186  -11.5724 C   0  0  0  0  0  0  0  0  0  0  0  0
   26.1513  -21.5632  -10.1383 O   0  0  0  0  0  0  0  0  0  0  0  0
   25.3044  -21.3349   -9.2653 C   0  0  0  0  0  0  0  0  0  0  0  0
   23.0131  -20.3303  -13.7758 O   0  0  0  0  0  0  0  0  0  0  0  0
   23.1223  -19.1511  -14.2424 O   0  0  0  0  0  0  0  0  0  0  0  0
   27.4753  -21.7787   -9.7232 N   0  0  0  0  0  0  0  0  0  0  0  0
   18.5776  -19.0852  -15.7578 C   0  0  0  0  0  0  0  0  0  0  0  0
   19.7371  -19.6255  -16.4015 O   0  0  0  0  0  0  0  0  0  0  0  0
   19.7916  -19.5380  -17.6424 C   0  0  0  0  0  0  0  0  0  0  0  0
   20.7877  -20.2442  -15.6004 C   0  0  2  0  0  0  0  0  0  0  0  0
   20.5683  -20.2355  -14.1212 N   0  0  0  0  0  0  0  0  0  0  0  0
   21.7419  -20.8948  -13.5348 C   0  0  0  0  0  0  0  0  0  0  0  0
   19.3837  -21.0059  -13.6830 O   0  0  0  0  0  0  0  0  0  0  0  0
   19.4957  -22.3842  -13.5269 O   0  0  0  0  0  0  0  0  0  0  0  0
  2  3  2  0
  2  1  1  0
  4  2  1  0
  5  6  1  0
  5  4  1  0
  7  6  1  0
  8 10  1  0
  8  7  1  0
  8  9  1  1
 10 11  2  0
 12 13  1  0
 12 10  1  0
 13 14  1  6
 14 15  1  0
 16 20  1  0
 16 15  1  0
 17 16  2  0
 18 19  2  0
 18 13  1  0
 21 22  1  0
 22 23  2  0
 22 24  1  0
 25 24  1  1
 25 26  1  0
 26 18  1  0
 27 25  1  0
 27 28  1  0
 29 27  2  0
M  END
$$$$
