REN.pdb
     RDKit          3D

 29 28  0  0  1  0  0  0  0  0999 V2000
   30.9367  -23.3453  -10.2679 N   0  0  0  0  0  0  0  0  0  0  0  0
   31.1534  -21.9542  -10.3446 C   0  0  0  0  0  0  0  0  0  0  0  0
   32.2605  -21.5380  -10.8625 N   0  0  0  0  0  0  0  0  0  0  0  0
   30.1917  -21.0214   -9.8721 N   0  0  0  0  0  0  0  0  0  0  0  0
   28.8985  -21.4315   -9.4115 C   0  0  0  0  0  0  0  0  0  0  0  0
   27.8075  -21.1694  -10.4259 C   0  0  0  0  0  0  0  0  0  0  0  0
   26.9980  -19.9495  -10.0991 C   0  0  0  0  0  0  0  0  0  0  0  0
   25.5307  -20.1096  -10.2674 C   0  0  2  0  0  0  0  0  0  0  0  0
   25.0522  -21.3473   -9.6552 N   0  0  0  0  0  0  0  0  0  0  0  0
   25.1558  -20.1080  -11.6902 C   0  0  0  0  0  0  0  0  0  0  0  0
   25.6393  -19.2903  -12.4889 O   0  0  0  0  0  0  0  0  0  0  0  0
   32.6014  -20.5747  -10.8394 N   0  0  0  0  0  0  0  0  0  0  0  0
   24.2186  -21.0550  -12.1838 C   0  0  1  0  0  0  0  0  0  0  0  0
   23.8407  -21.0514  -13.5553 C   0  0  0  0  0  0  0  0  0  0  0  0
   24.8911  -21.5820  -14.4657 C   0  0  0  0  0  0  0  0  0  0  0  0
   25.7724  -22.6502  -13.9517 C   0  0  0  0  0  0  0  0  0  0  0  0
   26.7859  -23.1941  -14.8625 O   0  0  0  0  0  0  0  0  0  0  0  0
   27.7286  -22.5316  -15.3142 C   0  0  0  0  0  0  0  0  0  0  0  0
   22.5639  -21.8219  -13.6737 O   0  0  0  0  0  0  0  0  0  0  0  0
   22.4027  -22.9401  -13.0874 O   0  0  0  0  0  0  0  0  0  0  0  0
   26.6888  -24.5401  -15.2504 N   0  0  0  0  0  0  0  0  0  0  0  0
   19.0437  -22.3422  -11.8945 C   0  0  0  0  0  0  0  0  0  0  0  0
   18.7249  -21.1227  -12.5741 O   0  0  0  0  0  0  0  0  0  0  0  0
   17.9827  -20.3180  -11.9808 C   0  0  0  0  0  0  0  0  0  0  0  0
   19.2677  -20.8723  -13.9049 C   0  0  2  0  0  0  0  0  0  0  0  0
   20.2123  -21.9071  -14.4275 N   0  0  0  0  0  0  0  0  0  0  0  0
   21.5334  -21.2672  -14.4630 C   0  0  0  0  0  0  0  0  0  0  0  0
   19.9168  -22.3511  -15.8075 O   0  0  0  0  0  0  0  0  0  0  0  0
   19.1180  -23.4746  -15.9978 O   0  0  0  0  0  0  0  0  0  0  0  0
  2  3  2  0
  2  1  1  0
  4  2  1  0
  5  6  1  0
  5  4  1  0
  7  6  1  0
  8 10  1  0
  8  7  1  0
  8  9  1  6
 10 11  2  0
 12 13  1  0
 12 10  1  0
 13 14  1  6
 14 15  1  0
 16 20  1  0
 16 15  1  0
 17 16  2  0
 18 19  2  0
 18 13  1  0
 21 22  1  0
 22 23  2  0
 22 24  1  0
 25 24  1  1
 25 26  1  0
 26 18  1  0
 27 25  1  0
 27 28  1  0
 29 27  2  0
M  END
$$$$
