REN.pdb
     RDKit          3D

 29 28  0  0  1  0  0  0  0  0999 V2000
   18.0994  -15.6718  -15.0738 N   0  0  0  0  0  0  0  0  0  0  0  0
   18.4716  -15.5644  -16.4295 C   0  0  0  0  0  0  0  0  0  0  0  0
   18.3605  -16.6119  -17.1762 N   0  0  0  0  0  0  0  0  0  0  0  0
   18.9558  -14.3461  -16.9768 N   0  0  0  0  0  0  0  0  0  0  0  0
   18.5492  -13.0702  -16.4674 C   0  0  0  0  0  0  0  0  0  0  0  0
   17.2951  -12.5487  -17.1333 C   0  0  0  0  0  0  0  0  0  0  0  0
   16.8248  -11.2530  -16.5415 C   0  0  0  0  0  0  0  0  0  0  0  0
   17.4833  -10.0397  -17.0904 C   0  0  2  0  0  0  0  0  0  0  0  0
   17.8621  -10.2215  -18.4901 N   0  0  0  0  0  0  0  0  0  0  0  0
   18.6842   -9.6904  -16.3152 C   0  0  0  0  0  0  0  0  0  0  0  0
   18.6750   -9.6741  -15.0743 O   0  0  0  0  0  0  0  0  0  0  0  0
   18.5915  -16.6589  -18.1708 N   0  0  0  0  0  0  0  0  0  0  0  0
   19.8942   -9.3587  -16.9820 C   0  0  1  0  0  0  0  0  0  0  0  0
   21.0745   -9.0745  -16.2402 C   0  0  0  0  0  0  0  0  0  0  0  0
   22.3141   -9.6162  -16.8597 C   0  0  0  0  0  0  0  0  0  0  0  0
   22.6891  -11.0098  -16.5448 C   0  0  0  0  0  0  0  0  0  0  0  0
   23.9950  -11.4863  -17.0138 O   0  0  0  0  0  0  0  0  0  0  0  0
   24.9234  -10.7349  -17.3379 C   0  0  0  0  0  0  0  0  0  0  0  0
   21.1478   -7.5914  -16.0595 O   0  0  0  0  0  0  0  0  0  0  0  0
   20.8429   -6.7889  -16.9991 O   0  0  0  0  0  0  0  0  0  0  0  0
   24.2131  -12.8704  -17.1050 N   0  0  0  0  0  0  0  0  0  0  0  0
   21.3432   -2.8715  -14.2647 C   0  0  0  0  0  0  0  0  0  0  0  0
   20.1987   -3.6546  -14.6218 O   0  0  0  0  0  0  0  0  0  0  0  0
   19.1001   -3.0702  -14.6640 C   0  0  0  0  0  0  0  0  0  0  0  0
   20.3565   -5.0747  -14.9164 C   0  0  1  0  0  0  0  0  0  0  0  0
   21.7072   -5.6513  -14.6351 N   0  0  0  0  0  0  0  0  0  0  0  0
   21.5698   -7.1034  -14.8038 C   0  0  0  0  0  0  0  0  0  0  0  0
   22.1827   -5.4263  -13.2524 O   0  0  0  0  0  0  0  0  0  0  0  0
   22.6179   -4.1558  -12.8874 O   0  0  0  0  0  0  0  0  0  0  0  0
  2  3  2  0
  2  1  1  0
  4  2  1  0
  5  6  1  0
  5  4  1  0
  7  6  1  0
  8 10  1  0
  8  7  1  0
  8  9  1  6
 10 11  2  0
 12 13  1  0
 12 10  1  0
 13 14  1  1
 14 15  1  0
 16 20  1  0
 16 15  1  0
 17 16  2  0
 18 19  2  0
 18 13  1  0
 21 22  1  0
 22 23  2  0
 22 24  1  0
 25 24  1  6
 25 26  1  0
 26 18  1  0
 27 25  1  0
 27 28  1  0
 29 27  2  0
M  END
$$$$
