REN.pdb
     RDKit          3D

 29 28  0  0  1  0  0  0  0  0999 V2000
   30.5635  -21.7782   -8.3334 N   0  0  0  0  0  0  0  0  0  0  0  0
   30.9388  -22.2375   -9.6126 C   0  0  0  0  0  0  0  0  0  0  0  0
   32.0011  -22.9650   -9.7108 N   0  0  0  0  0  0  0  0  0  0  0  0
   30.1816  -21.9204  -10.7719 N   0  0  0  0  0  0  0  0  0  0  0  0
   28.9916  -21.1250  -10.7075 C   0  0  0  0  0  0  0  0  0  0  0  0
   28.3939  -20.8574  -12.0711 C   0  0  0  0  0  0  0  0  0  0  0  0
   26.8964  -20.7758  -12.0377 C   0  0  0  0  0  0  0  0  0  0  0  0
   26.2111  -21.3875  -13.2053 C   0  0  2  0  0  0  0  0  0  0  0  0
   26.9435  -21.1430  -14.4461 N   0  0  0  0  0  0  0  0  0  0  0  0
   24.8429  -20.8662  -13.3512 C   0  0  0  0  0  0  0  0  0  0  0  0
   24.5821  -19.6659  -13.1733 O   0  0  0  0  0  0  0  0  0  0  0  0
   32.3921  -23.3297  -10.5819 N   0  0  0  0  0  0  0  0  0  0  0  0
   23.7786  -21.7396  -13.7019 C   0  0  1  0  0  0  0  0  0  0  0  0
   22.4849  -21.2234  -13.9920 C   0  0  0  0  0  0  0  0  0  0  0  0
   22.2516  -20.9760  -15.4405 C   0  0  0  0  0  0  0  0  0  0  0  0
   23.2515  -21.4925  -16.3972 C   0  0  0  0  0  0  0  0  0  0  0  0
   24.0122  -20.5138  -17.1821 O   0  0  0  0  0  0  0  0  0  0  0  0
   25.2431  -20.3975  -17.1264 C   0  0  0  0  0  0  0  0  0  0  0  0
   21.4811  -22.1760  -13.4238 O   0  0  0  0  0  0  0  0  0  0  0  0
   21.8200  -23.3259  -12.9962 O   0  0  0  0  0  0  0  0  0  0  0  0
   23.3136  -19.6556  -18.0465 N   0  0  0  0  0  0  0  0  0  0  0  0
   18.7238  -24.6937   -9.9841 C   0  0  0  0  0  0  0  0  0  0  0  0
   18.4328  -23.3921  -10.5054 O   0  0  0  0  0  0  0  0  0  0  0  0
   17.3229  -22.9022  -10.2256 C   0  0  0  0  0  0  0  0  0  0  0  0
   19.4229  -22.7030  -11.3260 C   0  0  1  0  0  0  0  0  0  0  0  0
   19.1440  -22.6739  -12.7948 N   0  0  0  0  0  0  0  0  0  0  0  0
   20.1335  -21.7579  -13.3759 C   0  0  0  0  0  0  0  0  0  0  0  0
   17.8103  -22.1378  -13.1447 O   0  0  0  0  0  0  0  0  0  0  0  0
   16.6966  -22.9619  -13.0133 O   0  0  0  0  0  0  0  0  0  0  0  0
  2  3  2  0
  2  1  1  0
  4  2  1  0
  5  6  1  0
  5  4  1  0
  7  6  1  0
  8 10  1  0
  8  7  1  0
  8  9  1  6
 10 11  2  0
 12 13  1  0
 12 10  1  0
 13 14  1  1
 14 15  1  0
 16 20  1  0
 16 15  1  0
 17 16  2  0
 18 19  2  0
 18 13  1  0
 21 22  1  0
 22 23  2  0
 22 24  1  0
 25 24  1  6
 25 26  1  0
 26 18  1  0
 27 25  1  0
 27 28  1  0
 29 27  2  0
M  END
$$$$
