REN.pdb
     RDKit          3D

 29 28  0  0  1  0  0  0  0  0999 V2000
   26.2864  -20.3363   -9.5378 N   0  0  0  0  0  0  0  0  0  0  0  0
   25.1323  -21.1359   -9.4088 C   0  0  0  0  0  0  0  0  0  0  0  0
   24.4285  -21.0200   -8.3326 N   0  0  0  0  0  0  0  0  0  0  0  0
   24.7383  -22.0479  -10.4243 N   0  0  0  0  0  0  0  0  0  0  0  0
   25.4713  -22.1851  -11.6477 C   0  0  0  0  0  0  0  0  0  0  0  0
   25.0896  -21.1439  -12.6765 C   0  0  0  0  0  0  0  0  0  0  0  0
   24.6596  -21.7515  -13.9789 C   0  0  0  0  0  0  0  0  0  0  0  0
   25.5154  -21.4054  -15.1428 C   0  0  2  0  0  0  0  0  0  0  0  0
   26.9355  -21.5204  -14.8176 N   0  0  0  0  0  0  0  0  0  0  0  0
   25.2453  -20.0374  -15.6126 C   0  0  0  0  0  0  0  0  0  0  0  0
   25.3162  -19.0618  -14.8487 O   0  0  0  0  0  0  0  0  0  0  0  0
   23.5767  -21.5440   -8.1212 N   0  0  0  0  0  0  0  0  0  0  0  0
   24.8916  -19.8039  -16.9687 C   0  0  1  0  0  0  0  0  0  0  0  0
   24.6481  -18.4821  -17.4355 C   0  0  0  0  0  0  0  0  0  0  0  0
   25.5178  -18.0812  -18.5742 C   0  0  0  0  0  0  0  0  0  0  0  0
   26.9778  -18.0582  -18.3508 C   0  0  0  0  0  0  0  0  0  0  0  0
   27.8358  -17.7157  -19.4905 O   0  0  0  0  0  0  0  0  0  0  0  0
   28.7891  -18.4106  -19.8646 C   0  0  0  0  0  0  0  0  0  0  0  0
   23.1970  -18.3876  -17.7865 O   0  0  0  0  0  0  0  0  0  0  0  0
   22.4569  -19.4212  -17.8487 O   0  0  0  0  0  0  0  0  0  0  0  0
   27.5696  -16.5348  -20.2021 N   0  0  0  0  0  0  0  0  0  0  0  0
   18.9793  -17.9050  -15.0876 C   0  0  0  0  0  0  0  0  0  0  0  0
   19.6034  -16.9431  -15.9456 O   0  0  0  0  0  0  0  0  0  0  0  0
   18.9292  -15.9479  -16.2699 C   0  0  0  0  0  0  0  0  0  0  0  0
   20.9736  -17.1580  -16.3981 C   0  0  1  0  0  0  0  0  0  0  0  0
   21.2286  -16.8952  -17.8479 N   0  0  0  0  0  0  0  0  0  0  0  0
   22.6677  -17.1056  -18.0497 C   0  0  0  0  0  0  0  0  0  0  0  0
   20.9380  -15.5071  -18.2692 O   0  0  0  0  0  0  0  0  0  0  0  0
   19.7242  -15.2316  -18.8917 O   0  0  0  0  0  0  0  0  0  0  0  0
  2  3  2  0
  2  1  1  0
  4  2  1  0
  5  6  1  0
  5  4  1  0
  7  6  1  0
  8 10  1  0
  8  7  1  0
  8  9  1  1
 10 11  2  0
 12 13  1  0
 12 10  1  0
 13 14  1  1
 14 15  1  0
 16 20  1  0
 16 15  1  0
 17 16  2  0
 18 19  2  0
 18 13  1  0
 21 22  1  0
 22 23  2  0
 22 24  1  0
 25 24  1  6
 25 26  1  0
 26 18  1  0
 27 25  1  0
 27 28  1  0
 29 27  2  0
M  END
$$$$
