REN.pdb
     RDKit          3D

 29 28  0  0  1  0  0  0  0  0999 V2000
   31.0624  -24.3642  -16.7342 N   0  0  0  0  0  0  0  0  0  0  0  0
   30.5111  -24.3899  -18.0316 C   0  0  0  0  0  0  0  0  0  0  0  0
   31.0126  -25.2137  -18.8901 N   0  0  0  0  0  0  0  0  0  0  0  0
   29.4332  -23.5418  -18.4020 N   0  0  0  0  0  0  0  0  0  0  0  0
   28.8515  -22.6083  -17.4839 C   0  0  0  0  0  0  0  0  0  0  0  0
   27.8669  -23.2576  -16.5368 C   0  0  0  0  0  0  0  0  0  0  0  0
   26.4424  -22.9264  -16.8705 C   0  0  0  0  0  0  0  0  0  0  0  0
   25.9900  -21.5857  -16.4179 C   0  0  2  0  0  0  0  0  0  0  0  0
   27.1131  -20.7609  -15.9773 N   0  0  0  0  0  0  0  0  0  0  0  0
   25.0211  -21.6960  -15.3161 C   0  0  0  0  0  0  0  0  0  0  0  0
   23.9750  -22.3534  -15.4336 O   0  0  0  0  0  0  0  0  0  0  0  0
   30.7248  -25.3011  -19.8669 N   0  0  0  0  0  0  0  0  0  0  0  0
   25.2671  -21.0412  -14.0794 C   0  0  1  0  0  0  0  0  0  0  0  0
   24.3115  -21.1000  -13.0270 C   0  0  0  0  0  0  0  0  0  0  0  0
   24.8825  -20.8068  -11.6847 C   0  0  0  0  0  0  0  0  0  0  0  0
   23.9792  -20.8898  -10.5190 C   0  0  0  0  0  0  0  0  0  0  0  0
   24.5593  -20.6644   -9.1904 O   0  0  0  0  0  0  0  0  0  0  0  0
   25.7254  -20.2935   -9.0050 C   0  0  0  0  0  0  0  0  0  0  0  0
   23.2000  -20.1607  -13.3736 O   0  0  0  0  0  0  0  0  0  0  0  0
   23.4154  -19.0753  -14.0024 O   0  0  0  0  0  0  0  0  0  0  0  0
   23.7551  -20.8800   -8.0597 N   0  0  0  0  0  0  0  0  0  0  0  0
   18.5824  -18.4528  -14.6940 C   0  0  0  0  0  0  0  0  0  0  0  0
   19.5317  -19.1545  -15.5046 O   0  0  0  0  0  0  0  0  0  0  0  0
   19.3167  -19.1904  -16.7305 C   0  0  0  0  0  0  0  0  0  0  0  0
   20.6889  -19.7871  -14.8807 C   0  0  1  0  0  0  0  0  0  0  0  0
   20.7824  -19.6508  -13.3945 N   0  0  0  0  0  0  0  0  0  0  0  0
   21.8925  -20.5171  -12.9784 C   0  0  0  0  0  0  0  0  0  0  0  0
   19.5812  -20.1199  -12.6694 O   0  0  0  0  0  0  0  0  0  0  0  0
   19.4514  -21.4762  -12.3861 O   0  0  0  0  0  0  0  0  0  0  0  0
  2  3  2  0
  2  1  1  0
  4  2  1  0
  5  6  1  0
  5  4  1  0
  7  6  1  0
  8 10  1  0
  8  7  1  0
  8  9  1  1
 10 11  2  0
 12 13  1  0
 12 10  1  0
 13 14  1  1
 14 15  1  0
 16 20  1  0
 16 15  1  0
 17 16  2  0
 18 19  2  0
 18 13  1  0
 21 22  1  0
 22 23  2  0
 22 24  1  0
 25 24  1  6
 25 26  1  0
 26 18  1  0
 27 25  1  0
 27 28  1  0
 29 27  2  0
M  END
$$$$
