HRG.pdb
     RDKit          3D

 26 26  0  0  1  0  0  0  0  0999 V2000
    7.7248  -16.0715   17.9600 N   0  0  0  0  0  0  0  0  0  0  0  0
    8.5787  -15.0390   18.5082 C   0  0  1  0  0  0  0  0  0  0  0  0
    8.0590  -13.7171   18.0489 C   0  0  0  0  0  0  0  0  0  0  0  0
    7.9671  -13.7867   16.5500 C   0  0  0  0  0  0  0  0  0  0  0  0
    8.3364  -14.8598   15.7490 C   0  0  0  0  0  0  0  0  0  0  0  0
    8.1046  -14.5398   14.4748 N   0  0  0  0  0  0  0  0  0  0  0  0
    7.5984  -13.2967   14.4262 C   0  0  0  0  0  0  0  0  0  0  0  0
    7.5206  -12.8513   15.6965 N   0  0  0  0  0  0  0  0  0  0  0  0
    8.7392  -15.1795   19.9594 C   0  0  0  0  0  0  0  0  0  0  0  0
    9.4617  -14.3448   20.5788 O   0  0  0  0  0  0  0  0  0  0  0  0
    5.2269  -20.9949   23.7566 N   0  0  0  0  0  0  0  0  0  0  0  0
    6.5731  -21.2647   24.1491 C   0  0  0  0  0  0  0  0  0  0  0  0
    6.9518  -22.4875   24.2783 N   0  0  0  0  0  0  0  0  0  0  0  0
    7.4922  -20.2072   24.3961 N   0  0  0  0  0  0  0  0  0  0  0  0
    7.0079  -18.8699   24.6698 C   0  0  0  0  0  0  0  0  0  0  0  0
    7.9974  -17.8072   24.1772 C   0  0  0  0  0  0  0  0  0  0  0  0
    7.6243  -17.5019   22.7605 C   0  0  0  0  0  0  0  0  0  0  0  0
    8.5106  -16.4973   22.0943 C   0  0  2  0  0  0  0  0  0  0  0  0
    8.1377  -16.1958   20.7397 N   0  0  0  0  0  0  0  0  0  0  0  0
    9.8969  -16.9865   22.1308 C   0  0  0  0  0  0  0  0  0  0  0  0
   10.3505  -17.6304   21.1543 O   0  0  0  0  0  0  0  0  0  0  0  0
    7.8823  -22.7929   24.5970 N   0  0  0  0  0  0  0  0  0  0  0  0
   10.7804  -16.7775   23.2175 C   0  0  0  0  0  0  0  0  0  0  0  0
   12.1747  -17.1775   23.1808 C   0  0  0  0  0  0  0  0  0  0  0  0
   12.9300  -16.6324   24.3267 O   0  0  0  0  0  0  0  0  0  0  0  0
   14.2699  -16.8969   24.5480 O   0  0  0  0  0  0  0  0  0  0  0  0
  2  1  1  1
  3  2  1  0
  4  3  1  0
  5  4  2  0
  6  7  1  0
  6  5  1  0
  7  8  2  0
  8  4  1  0
  9 10  2  0
  9  2  1  0
 11 12  1  0
 12 14  1  0
 13 12  2  0
 14 15  1  0
 16 15  1  0
 17 16  1  0
 18 19  1  0
 18 17  1  6
 19  9  1  0
 20 18  1  0
 21 20  2  0
 22 20  1  0
 23 22  1  0
 24 25  1  0
 24 23  1  0
 26 24  2  0
M  END
$$$$
