HRG.pdb
     RDKit          3D

 26 26  0  0  1  0  0  0  0  0999 V2000
    6.5261  -16.3144   21.0538 N   0  0  0  0  0  0  0  0  0  0  0  0
    7.4832  -15.8444   22.0328 C   0  0  1  0  0  0  0  0  0  0  0  0
    7.3211  -14.3663   22.1653 C   0  0  0  0  0  0  0  0  0  0  0  0
    7.7170  -13.7686   20.8439 C   0  0  0  0  0  0  0  0  0  0  0  0
    8.6611  -12.7706   20.6388 C   0  0  0  0  0  0  0  0  0  0  0  0
    8.7298  -12.5112   19.3320 N   0  0  0  0  0  0  0  0  0  0  0  0
    7.8620  -13.3079   18.6867 C   0  0  0  0  0  0  0  0  0  0  0  0
    7.2531  -14.0673   19.6199 N   0  0  0  0  0  0  0  0  0  0  0  0
    7.3939  -16.5997   23.2871 C   0  0  0  0  0  0  0  0  0  0  0  0
    6.5914  -16.2052   24.1831 O   0  0  0  0  0  0  0  0  0  0  0  0
    4.9096  -23.3568   23.0710 N   0  0  0  0  0  0  0  0  0  0  0  0
    4.2500  -22.2758   22.4112 C   0  0  0  0  0  0  0  0  0  0  0  0
    3.2178  -22.5252   21.6848 N   0  0  0  0  0  0  0  0  0  0  0  0
    4.7159  -20.9384   22.5468 N   0  0  0  0  0  0  0  0  0  0  0  0
    6.0881  -20.6803   22.9322 C   0  0  0  0  0  0  0  0  0  0  0  0
    6.1678  -20.0801   24.3408 C   0  0  0  0  0  0  0  0  0  0  0  0
    7.6221  -19.9120   24.6506 C   0  0  0  0  0  0  0  0  0  0  0  0
    8.0549  -18.4894   24.8163 C   0  0  2  0  0  0  0  0  0  0  0  0
    8.1496  -17.7596   23.5821 N   0  0  0  0  0  0  0  0  0  0  0  0
    9.3516  -18.4634   25.5095 C   0  0  0  0  0  0  0  0  0  0  0  0
   10.3718  -18.0674   24.8963 O   0  0  0  0  0  0  0  0  0  0  0  0
    2.6273  -21.8178   21.2250 N   0  0  0  0  0  0  0  0  0  0  0  0
    9.5366  -18.8638   26.8551 C   0  0  0  0  0  0  0  0  0  0  0  0
   10.8158  -18.7645   27.5325 C   0  0  0  0  0  0  0  0  0  0  0  0
   10.7083  -19.1289   28.9595 O   0  0  0  0  0  0  0  0  0  0  0  0
   11.7964  -19.1887   29.8120 O   0  0  0  0  0  0  0  0  0  0  0  0
  2  1  1  6
  3  2  1  0
  4  3  1  0
  5  4  2  0
  6  7  1  0
  6  5  1  0
  7  8  2  0
  8  4  1  0
  9 10  2  0
  9  2  1  0
 11 12  1  0
 12 14  1  0
 13 12  2  0
 14 15  1  0
 16 15  1  0
 17 16  1  0
 18 19  1  0
 18 17  1  6
 19  9  1  0
 20 18  1  0
 21 20  2  0
 22 20  1  0
 23 22  1  0
 24 25  1  0
 24 23  1  0
 26 24  2  0
M  END
$$$$
