HRG.pdb
     RDKit          3D

 26 26  0  0  1  0  0  0  0  0999 V2000
    6.4802  -16.0516   21.1986 N   0  0  0  0  0  0  0  0  0  0  0  0
    7.4437  -15.3793   22.0441 C   0  0  1  0  0  0  0  0  0  0  0  0
    7.3295  -13.9112   21.7985 C   0  0  0  0  0  0  0  0  0  0  0  0
    7.7654  -13.6759   20.3791 C   0  0  0  0  0  0  0  0  0  0  0  0
    7.0249  -13.0576   19.3797 C   0  0  0  0  0  0  0  0  0  0  0  0
    7.7520  -13.0374   18.2614 N   0  0  0  0  0  0  0  0  0  0  0  0
    8.9365  -13.6219   18.5050 C   0  0  0  0  0  0  0  0  0  0  0  0
    8.9299  -14.0053   19.7978 N   0  0  0  0  0  0  0  0  0  0  0  0
    7.3187  -15.7918   23.4462 C   0  0  0  0  0  0  0  0  0  0  0  0
    6.2405  -15.5468   24.0623 O   0  0  0  0  0  0  0  0  0  0  0  0
    4.6770  -20.8636   23.4187 N   0  0  0  0  0  0  0  0  0  0  0  0
    5.9237  -21.3747   22.9458 C   0  0  0  0  0  0  0  0  0  0  0  0
    5.9792  -21.8934   21.7697 N   0  0  0  0  0  0  0  0  0  0  0  0
    7.0945  -21.3172   23.7520 N   0  0  0  0  0  0  0  0  0  0  0  0
    7.1566  -20.4148   24.8833 C   0  0  0  0  0  0  0  0  0  0  0  0
    7.1951  -18.9514   24.4272 C   0  0  0  0  0  0  0  0  0  0  0  0
    7.2937  -18.1209   25.6682 C   0  0  0  0  0  0  0  0  0  0  0  0
    8.1705  -16.9161   25.5335 C   0  0  2  0  0  0  0  0  0  0  0  0
    8.3293  -16.4567   24.1812 N   0  0  0  0  0  0  0  0  0  0  0  0
    9.4878  -17.2181   26.1133 C   0  0  0  0  0  0  0  0  0  0  0  0
   10.5049  -17.1986   25.3792 O   0  0  0  0  0  0  0  0  0  0  0  0
    6.8362  -22.2228   21.3032 N   0  0  0  0  0  0  0  0  0  0  0  0
    9.6965  -17.5378   27.4769 C   0  0  0  0  0  0  0  0  0  0  0  0
   10.9792  -17.9822   27.9892 C   0  0  0  0  0  0  0  0  0  0  0  0
   10.9314  -18.2269   29.4448 O   0  0  0  0  0  0  0  0  0  0  0  0
   12.0319  -18.6206   30.1852 O   0  0  0  0  0  0  0  0  0  0  0  0
  2  1  1  6
  3  2  1  0
  4  3  1  0
  5  4  2  0
  6  7  1  0
  6  5  1  0
  7  8  2  0
  8  4  1  0
  9 10  2  0
  9  2  1  0
 11 12  1  0
 12 14  1  0
 13 12  2  0
 14 15  1  0
 16 15  1  0
 17 16  1  0
 18 19  1  0
 18 17  1  6
 19  9  1  0
 20 18  1  0
 21 20  2  0
 22 20  1  0
 23 22  1  0
 24 25  1  0
 24 23  1  0
 26 24  2  0
M  END
$$$$
