HRG.pdb
     RDKit          3D

 26 26  0  0  1  0  0  0  0  0999 V2000
   10.5574  -15.8111   20.7096 N   0  0  0  0  0  0  0  0  0  0  0  0
    9.4647  -15.8463   21.6585 C   0  0  1  0  0  0  0  0  0  0  0  0
    8.1858  -15.7479   20.8949 C   0  0  0  0  0  0  0  0  0  0  0  0
    8.2260  -14.4415   20.1521 C   0  0  0  0  0  0  0  0  0  0  0  0
    9.2840  -13.5419   20.1204 C   0  0  0  0  0  0  0  0  0  0  0  0
    8.9388  -12.5053   19.3549 N   0  0  0  0  0  0  0  0  0  0  0  0
    7.6941  -12.7052   18.8916 C   0  0  0  0  0  0  0  0  0  0  0  0
    7.2734  -13.8874   19.3852 N   0  0  0  0  0  0  0  0  0  0  0  0
    9.5673  -16.9957   22.5640 C   0  0  0  0  0  0  0  0  0  0  0  0
    8.6180  -17.2275   23.3686 O   0  0  0  0  0  0  0  0  0  0  0  0
    7.9646  -20.5726   19.1395 N   0  0  0  0  0  0  0  0  0  0  0  0
    8.6842  -21.8037   19.0644 C   0  0  0  0  0  0  0  0  0  0  0  0
    8.1382  -22.8105   18.4782 N   0  0  0  0  0  0  0  0  0  0  0  0
    9.9860  -21.9289   19.6244 N   0  0  0  0  0  0  0  0  0  0  0  0
   10.5463  -20.8516   20.4141 C   0  0  0  0  0  0  0  0  0  0  0  0
   10.0538  -20.9099   21.8650 C   0  0  0  0  0  0  0  0  0  0  0  0
   11.1314  -20.3002   22.7054 C   0  0  0  0  0  0  0  0  0  0  0  0
   10.7153  -19.0621   23.4352 C   0  0  2  0  0  0  0  0  0  0  0  0
   10.6668  -17.8860   22.6109 N   0  0  0  0  0  0  0  0  0  0  0  0
   11.6343  -18.8414   24.5618 C   0  0  0  0  0  0  0  0  0  0  0  0
   12.6020  -18.0549   24.4246 O   0  0  0  0  0  0  0  0  0  0  0  0
    8.5430  -23.7553   18.4156 N   0  0  0  0  0  0  0  0  0  0  0  0
   11.5022  -19.4693   25.8241 C   0  0  0  0  0  0  0  0  0  0  0  0
   12.3886  -19.1842   26.9368 C   0  0  0  0  0  0  0  0  0  0  0  0
   12.0387  -19.9781   28.1318 O   0  0  0  0  0  0  0  0  0  0  0  0
   12.8170  -20.0129   29.2751 O   0  0  0  0  0  0  0  0  0  0  0  0
  2  1  1  6
  3  2  1  0
  4  3  1  0
  5  4  2  0
  6  7  1  0
  6  5  1  0
  7  8  2  0
  8  4  1  0
  9 10  2  0
  9  2  1  0
 11 12  1  0
 12 14  1  0
 13 12  2  0
 14 15  1  0
 16 15  1  0
 17 16  1  0
 18 19  1  0
 18 17  1  6
 19  9  1  0
 20 18  1  0
 21 20  2  0
 22 20  1  0
 23 22  1  0
 24 25  1  0
 24 23  1  0
 26 24  2  0
M  END
$$$$
