HRG.pdb
     RDKit          3D

 26 26  0  0  1  0  0  0  0  0999 V2000
    7.3878  -16.6061   20.9121 N   0  0  0  0  0  0  0  0  0  0  0  0
    8.6143  -16.0329   21.4245 C   0  0  1  0  0  0  0  0  0  0  0  0
    8.3230  -14.6371   21.8666 C   0  0  0  0  0  0  0  0  0  0  0  0
    7.9516  -13.8622   20.6330 C   0  0  0  0  0  0  0  0  0  0  0  0
    8.8121  -13.1207   19.8335 C   0  0  0  0  0  0  0  0  0  0  0  0
    8.1088  -12.5823   18.8360 N   0  0  0  0  0  0  0  0  0  0  0  0
    6.8236  -12.9510   18.9645 C   0  0  0  0  0  0  0  0  0  0  0  0
    6.7435  -13.7296   20.0625 N   0  0  0  0  0  0  0  0  0  0  0  0
    9.2362  -16.8939   22.4361 C   0  0  0  0  0  0  0  0  0  0  0  0
    8.5382  -17.2908   23.4147 O   0  0  0  0  0  0  0  0  0  0  0  0
   14.1062  -21.1358   18.2856 N   0  0  0  0  0  0  0  0  0  0  0  0
   12.7946  -21.6780   18.4429 C   0  0  0  0  0  0  0  0  0  0  0  0
   12.3458  -22.4928   17.5540 N   0  0  0  0  0  0  0  0  0  0  0  0
   11.9858  -21.3318   19.5610 N   0  0  0  0  0  0  0  0  0  0  0  0
   12.5211  -20.4974   20.6171 C   0  0  0  0  0  0  0  0  0  0  0  0
   11.4564  -20.1871   21.6759 C   0  0  0  0  0  0  0  0  0  0  0  0
   12.0916  -19.2536   22.6580 C   0  0  0  0  0  0  0  0  0  0  0  0
   11.1377  -18.2998   23.3050 C   0  0  2  0  0  0  0  0  0  0  0  0
   10.5838  -17.3261   22.4049 N   0  0  0  0  0  0  0  0  0  0  0  0
   11.8233  -17.6183   24.4132 C   0  0  0  0  0  0  0  0  0  0  0  0
   12.8934  -17.0022   24.1918 O   0  0  0  0  0  0  0  0  0  0  0  0
   11.3968  -22.8923   17.5365 N   0  0  0  0  0  0  0  0  0  0  0  0
   11.3500  -17.6070   25.7477 C   0  0  0  0  0  0  0  0  0  0  0  0
   10.9481  -18.8137   26.4460 C   0  0  0  0  0  0  0  0  0  0  0  0
   12.0893  -19.4558   27.1289 O   0  0  0  0  0  0  0  0  0  0  0  0
   12.0444  -19.8835   28.4439 O   0  0  0  0  0  0  0  0  0  0  0  0
  2  1  1  1
  3  2  1  0
  4  3  1  0
  5  4  2  0
  6  7  1  0
  6  5  1  0
  7  8  2  0
  8  4  1  0
  9 10  2  0
  9  2  1  0
 11 12  1  0
 12 14  1  0
 13 12  2  0
 14 15  1  0
 16 15  1  0
 17 16  1  0
 18 19  1  0
 18 17  1  6
 19  9  1  0
 20 18  1  0
 21 20  2  0
 22 20  1  0
 23 22  1  0
 24 25  1  0
 24 23  1  0
 26 24  2  0
M  END
$$$$
