HRG.pdb
     RDKit          3D

 26 26  0  0  1  0  0  0  0  0999 V2000
    8.7116  -15.6841   17.6357 N   0  0  0  0  0  0  0  0  0  0  0  0
    9.8433  -14.8341   17.3320 C   0  0  1  0  0  0  0  0  0  0  0  0
    9.3289  -13.4599   17.0571 C   0  0  0  0  0  0  0  0  0  0  0  0
    8.4886  -13.5542   15.8141 C   0  0  0  0  0  0  0  0  0  0  0  0
    8.9192  -13.9512   14.5545 C   0  0  0  0  0  0  0  0  0  0  0  0
    7.8827  -13.9050   13.7160 N   0  0  0  0  0  0  0  0  0  0  0  0
    6.7979  -13.4915   14.3914 C   0  0  0  0  0  0  0  0  0  0  0  0
    7.1821  -13.2820   15.6668 N   0  0  0  0  0  0  0  0  0  0  0  0
   10.8810  -14.9199   18.3652 C   0  0  0  0  0  0  0  0  0  0  0  0
   10.5967  -14.5712   19.5484 O   0  0  0  0  0  0  0  0  0  0  0  0
   15.3648  -21.1595   21.8352 N   0  0  0  0  0  0  0  0  0  0  0  0
   14.0937  -20.5089   21.8428 C   0  0  0  0  0  0  0  0  0  0  0  0
   13.0537  -21.1762   22.2012 N   0  0  0  0  0  0  0  0  0  0  0  0
   13.9648  -19.1439   21.4629 N   0  0  0  0  0  0  0  0  0  0  0  0
   14.9768  -18.5189   20.6363 C   0  0  0  0  0  0  0  0  0  0  0  0
   14.7117  -17.0178   20.4703 C   0  0  0  0  0  0  0  0  0  0  0  0
   13.7061  -16.8820   19.3704 C   0  0  0  0  0  0  0  0  0  0  0  0
   13.1998  -15.4886   19.1691 C   0  0  2  0  0  0  0  0  0  0  0  0
   12.2035  -15.3715   18.1402 N   0  0  0  0  0  0  0  0  0  0  0  0
   14.3369  -14.6081   18.8619 C   0  0  0  0  0  0  0  0  0  0  0  0
   14.4014  -14.0515   17.7395 O   0  0  0  0  0  0  0  0  0  0  0  0
   12.0981  -20.7988   22.2710 N   0  0  0  0  0  0  0  0  0  0  0  0
   15.3924  -14.3359   19.7657 C   0  0  0  0  0  0  0  0  0  0  0  0
   16.4937  -13.4496   19.4391 C   0  0  0  0  0  0  0  0  0  0  0  0
   17.3772  -13.2244   20.6007 O   0  0  0  0  0  0  0  0  0  0  0  0
   18.5608  -12.5116   20.5278 O   0  0  0  0  0  0  0  0  0  0  0  0
  2  1  1  1
  3  2  1  0
  4  3  1  0
  5  4  2  0
  6  7  1  0
  6  5  1  0
  7  8  2  0
  8  4  1  0
  9 10  2  0
  9  2  1  0
 11 12  1  0
 12 14  1  0
 13 12  2  0
 14 15  1  0
 16 15  1  0
 17 16  1  0
 18 19  1  0
 18 17  1  6
 19  9  1  0
 20 18  1  0
 21 20  2  0
 22 20  1  0
 23 22  1  0
 24 25  1  0
 24 23  1  0
 26 24  2  0
M  END
$$$$
