HRG.pdb
     RDKit          3D

 26 26  0  0  1  0  0  0  0  0999 V2000
    8.4732  -12.6853   18.9688 N   0  0  0  0  0  0  0  0  0  0  0  0
    8.7359  -14.0742   19.2810 C   0  0  1  0  0  0  0  0  0  0  0  0
    9.5697  -14.6454   18.1824 C   0  0  0  0  0  0  0  0  0  0  0  0
    8.6839  -14.7370   16.9712 C   0  0  0  0  0  0  0  0  0  0  0  0
    7.5910  -13.9290   16.6846 C   0  0  0  0  0  0  0  0  0  0  0  0
    7.0651  -14.3203   15.5227 N   0  0  0  0  0  0  0  0  0  0  0  0
    7.7813  -15.3534   15.0498 C   0  0  0  0  0  0  0  0  0  0  0  0
    8.7629  -15.5955   15.9420 N   0  0  0  0  0  0  0  0  0  0  0  0
    9.2843  -14.2338   20.6321 C   0  0  0  0  0  0  0  0  0  0  0  0
   10.1437  -13.4016   21.0459 O   0  0  0  0  0  0  0  0  0  0  0  0
    7.0196  -11.5984   24.8072 N   0  0  0  0  0  0  0  0  0  0  0  0
    6.5315  -12.3301   25.9321 C   0  0  0  0  0  0  0  0  0  0  0  0
    6.2976  -11.7023   27.0305 N   0  0  0  0  0  0  0  0  0  0  0  0
    6.3023  -13.7320   25.8533 N   0  0  0  0  0  0  0  0  0  0  0  0
    7.3950  -14.6332   25.5503 C   0  0  0  0  0  0  0  0  0  0  0  0
    7.3827  -15.0473   24.0740 C   0  0  0  0  0  0  0  0  0  0  0  0
    8.5695  -15.9358   23.8709 C   0  0  0  0  0  0  0  0  0  0  0  0
    9.5223  -15.4582   22.8208 C   0  0  2  0  0  0  0  0  0  0  0  0
    8.9214  -15.2663   21.5297 N   0  0  0  0  0  0  0  0  0  0  0  0
   10.6332  -16.4159   22.7143 C   0  0  0  0  0  0  0  0  0  0  0  0
   10.4057  -17.5841   22.3177 O   0  0  0  0  0  0  0  0  0  0  0  0
    5.9838  -12.1365   27.9101 N   0  0  0  0  0  0  0  0  0  0  0  0
   11.9771  -16.1063   23.0355 C   0  0  0  0  0  0  0  0  0  0  0  0
   13.0153  -17.1167   23.1167 C   0  0  0  0  0  0  0  0  0  0  0  0
   14.3218  -16.5303   23.4769 O   0  0  0  0  0  0  0  0  0  0  0  0
   15.4677  -17.2837   23.6602 O   0  0  0  0  0  0  0  0  0  0  0  0
  2  1  1  6
  3  2  1  0
  4  3  1  0
  5  4  2  0
  6  7  1  0
  6  5  1  0
  7  8  2  0
  8  4  1  0
  9 10  2  0
  9  2  1  0
 11 12  1  0
 12 14  1  0
 13 12  2  0
 14 15  1  0
 16 15  1  0
 17 16  1  0
 18 19  1  0
 18 17  1  1
 19  9  1  0
 20 18  1  0
 21 20  2  0
 22 20  1  0
 23 22  1  0
 24 25  1  0
 24 23  1  0
 26 24  2  0
M  END
$$$$
