HRG.pdb
     RDKit          3D

 26 26  0  0  1  0  0  0  0  0999 V2000
    8.4716  -20.0251   25.6963 N   0  0  0  0  0  0  0  0  0  0  0  0
    9.3302  -18.8625   25.7777 C   0  0  1  0  0  0  0  0  0  0  0  0
   10.6496  -19.2994   26.3224 C   0  0  0  0  0  0  0  0  0  0  0  0
   10.4175  -19.6877   27.7561 C   0  0  0  0  0  0  0  0  0  0  0  0
   10.7966  -18.9639   28.8794 C   0  0  0  0  0  0  0  0  0  0  0  0
   10.4146  -19.6347   29.9673 N   0  0  0  0  0  0  0  0  0  0  0  0
    9.8019  -20.7669   29.5844 C   0  0  0  0  0  0  0  0  0  0  0  0
    9.8113  -20.7853   28.2362 N   0  0  0  0  0  0  0  0  0  0  0  0
    9.3870  -18.1378   24.5036 C   0  0  0  0  0  0  0  0  0  0  0  0
    9.8187  -18.7388   23.4765 O   0  0  0  0  0  0  0  0  0  0  0  0
    7.7378  -14.4918   18.1591 N   0  0  0  0  0  0  0  0  0  0  0  0
    7.8551  -13.3802   19.0477 C   0  0  0  0  0  0  0  0  0  0  0  0
    8.1253  -12.2197   18.5624 N   0  0  0  0  0  0  0  0  0  0  0  0
    7.6778  -13.5390   20.4504 N   0  0  0  0  0  0  0  0  0  0  0  0
    7.4233  -14.8511   21.0087 C   0  0  0  0  0  0  0  0  0  0  0  0
    7.2495  -14.7848   22.5306 C   0  0  0  0  0  0  0  0  0  0  0  0
    8.6245  -14.6827   23.1124 C   0  0  0  0  0  0  0  0  0  0  0  0
    9.3554  -15.9855   23.1947 C   0  0  2  0  0  0  0  0  0  0  0  0
    8.9888  -16.7911   24.3268 N   0  0  0  0  0  0  0  0  0  0  0  0
   10.8015  -15.7198   23.2216 C   0  0  0  0  0  0  0  0  0  0  0  0
   11.3498  -15.3953   24.3023 O   0  0  0  0  0  0  0  0  0  0  0  0
    8.2197  -11.3521   19.1091 N   0  0  0  0  0  0  0  0  0  0  0  0
   11.6422  -15.8061   22.0854 C   0  0  0  0  0  0  0  0  0  0  0  0
   13.0848  -15.6741   22.1672 C   0  0  0  0  0  0  0  0  0  0  0  0
   13.7076  -15.6436   20.8286 O   0  0  0  0  0  0  0  0  0  0  0  0
   14.6767  -14.7264   20.4627 O   0  0  0  0  0  0  0  0  0  0  0  0
  2  1  1  6
  3  2  1  0
  4  3  1  0
  5  4  2  0
  6  7  1  0
  6  5  1  0
  7  8  2  0
  8  4  1  0
  9 10  2  0
  9  2  1  0
 11 12  1  0
 12 14  1  0
 13 12  2  0
 14 15  1  0
 16 15  1  0
 17 16  1  0
 18 19  1  0
 18 17  1  1
 19  9  1  0
 20 18  1  0
 21 20  2  0
 22 20  1  0
 23 22  1  0
 24 25  1  0
 24 23  1  0
 26 24  2  0
M  END
$$$$
