HRG.pdb
     RDKit          3D

 26 26  0  0  1  0  0  0  0  0999 V2000
    8.0993  -17.8143   18.9870 N   0  0  0  0  0  0  0  0  0  0  0  0
    8.5450  -16.4571   18.7527 C   0  0  1  0  0  0  0  0  0  0  0  0
    7.5827  -15.8103   17.8124 C   0  0  0  0  0  0  0  0  0  0  0  0
    7.5708  -16.6472   16.5636 C   0  0  0  0  0  0  0  0  0  0  0  0
    8.3582  -16.4576   15.4350 C   0  0  0  0  0  0  0  0  0  0  0  0
    8.0578  -17.4025   14.5425 N   0  0  0  0  0  0  0  0  0  0  0  0
    7.1033  -18.1954   15.0565 C   0  0  0  0  0  0  0  0  0  0  0  0
    6.8172  -17.7233   16.2868 N   0  0  0  0  0  0  0  0  0  0  0  0
    8.7751  -15.7354   20.0088 C   0  0  0  0  0  0  0  0  0  0  0  0
    9.1860  -14.5391   19.9608 O   0  0  0  0  0  0  0  0  0  0  0  0
    6.8743  -11.2938   27.4671 N   0  0  0  0  0  0  0  0  0  0  0  0
    6.7913  -12.1122   26.2999 C   0  0  0  0  0  0  0  0  0  0  0  0
    7.0101  -11.5808   25.1488 N   0  0  0  0  0  0  0  0  0  0  0  0
    6.4732  -13.4957   26.3938 N   0  0  0  0  0  0  0  0  0  0  0  0
    6.3884  -14.3068   25.1967 C   0  0  0  0  0  0  0  0  0  0  0  0
    7.7514  -14.4219   24.5040 C   0  0  0  0  0  0  0  0  0  0  0  0
    7.5534  -15.3151   23.3198 C   0  0  0  0  0  0  0  0  0  0  0  0
    8.7947  -15.5624   22.5220 C   0  0  2  0  0  0  0  0  0  0  0  0
    8.5698  -16.2816   21.2984 N   0  0  0  0  0  0  0  0  0  0  0  0
    9.7603  -16.2926   23.3570 C   0  0  0  0  0  0  0  0  0  0  0  0
    9.4909  -17.4571   23.7379 O   0  0  0  0  0  0  0  0  0  0  0  0
    6.9645  -12.0742   24.2460 N   0  0  0  0  0  0  0  0  0  0  0  0
   11.0054  -15.7619   23.7730 C   0  0  0  0  0  0  0  0  0  0  0  0
   11.7421  -16.2901   24.9060 C   0  0  0  0  0  0  0  0  0  0  0  0
   12.7774  -17.2546   24.4832 O   0  0  0  0  0  0  0  0  0  0  0  0
   13.6666  -17.8479   25.3615 O   0  0  0  0  0  0  0  0  0  0  0  0
  2  1  1  1
  3  2  1  0
  4  3  1  0
  5  4  2  0
  6  7  1  0
  6  5  1  0
  7  8  2  0
  8  4  1  0
  9 10  2  0
  9  2  1  0
 11 12  1  0
 12 14  1  0
 13 12  2  0
 14 15  1  0
 16 15  1  0
 17 16  1  0
 18 19  1  0
 18 17  1  1
 19  9  1  0
 20 18  1  0
 21 20  2  0
 22 20  1  0
 23 22  1  0
 24 25  1  0
 24 23  1  0
 26 24  2  0
M  END
$$$$
