HRG.pdb
     RDKit          3D

 26 26  0  0  1  0  0  0  0  0999 V2000
   11.3832  -18.1409   19.1713 N   0  0  0  0  0  0  0  0  0  0  0  0
   10.5581  -18.3909   20.3341 C   0  0  1  0  0  0  0  0  0  0  0  0
   11.0756  -19.6151   21.0138 C   0  0  0  0  0  0  0  0  0  0  0  0
   10.7120  -20.7815   20.1377 C   0  0  0  0  0  0  0  0  0  0  0  0
    9.7736  -20.7840   19.1137 C   0  0  0  0  0  0  0  0  0  0  0  0
    9.7373  -22.0027   18.5722 N   0  0  0  0  0  0  0  0  0  0  0  0
   10.6204  -22.7868   19.2120 C   0  0  0  0  0  0  0  0  0  0  0  0
   11.2058  -22.0298   20.1620 N   0  0  0  0  0  0  0  0  0  0  0  0
   10.4436  -17.2021   21.1858 C   0  0  0  0  0  0  0  0  0  0  0  0
   11.5004  -16.6469   21.6068 O   0  0  0  0  0  0  0  0  0  0  0  0
    7.0276  -12.2827   18.1083 N   0  0  0  0  0  0  0  0  0  0  0  0
    7.9834  -13.3170   17.8726 C   0  0  0  0  0  0  0  0  0  0  0  0
    8.0970  -13.8028   16.6866 N   0  0  0  0  0  0  0  0  0  0  0  0
    8.8047  -13.8118   18.9237 N   0  0  0  0  0  0  0  0  0  0  0  0
    8.4994  -13.4863   20.3017 C   0  0  0  0  0  0  0  0  0  0  0  0
    7.4470  -14.4401   20.8795 C   0  0  0  0  0  0  0  0  0  0  0  0
    7.8436  -14.7029   22.2983 C   0  0  0  0  0  0  0  0  0  0  0  0
    9.1195  -15.4699   22.4478 C   0  0  2  0  0  0  0  0  0  0  0  0
    9.2193  -16.6131   21.5830 N   0  0  0  0  0  0  0  0  0  0  0  0
    9.2595  -15.8934   23.8491 C   0  0  0  0  0  0  0  0  0  0  0  0
    8.3184  -16.5088   24.4053 O   0  0  0  0  0  0  0  0  0  0  0  0
    8.7707  -14.5275   16.4012 N   0  0  0  0  0  0  0  0  0  0  0  0
   10.4107  -15.6502   24.6370 C   0  0  0  0  0  0  0  0  0  0  0  0
   10.4973  -16.0303   26.0346 C   0  0  0  0  0  0  0  0  0  0  0  0
   11.3002  -17.2559   26.2189 O   0  0  0  0  0  0  0  0  0  0  0  0
   11.6251  -17.7712   27.4612 O   0  0  0  0  0  0  0  0  0  0  0  0
  2  1  1  6
  3  2  1  0
  4  3  1  0
  5  4  2  0
  6  7  1  0
  6  5  1  0
  7  8  2  0
  8  4  1  0
  9 10  2  0
  9  2  1  0
 11 12  1  0
 12 14  1  0
 13 12  2  0
 14 15  1  0
 16 15  1  0
 17 16  1  0
 18 19  1  0
 18 17  1  1
 19  9  1  0
 20 18  1  0
 21 20  2  0
 22 20  1  0
 23 22  1  0
 24 25  1  0
 24 23  1  0
 26 24  2  0
M  END
$$$$
