LLT.pdb
     RDKit          3D

 24 23  0  0  1  0  0  0  0  0999 V2000
   28.0449  -17.6574  -14.0601 C   0  0  0  0  0  0  0  0  0  0  0  0
   27.4425  -17.6972  -15.4266 C   0  0  2  0  0  0  0  0  0  0  0  0
   26.5121  -16.5464  -15.6261 C   0  0  0  0  0  0  0  0  0  0  0  0
   26.7186  -19.0258  -15.5986 C   0  0  0  0  0  0  0  0  0  0  0  0
   27.3620  -20.0032  -14.6400 C   0  0  2  0  0  0  0  0  0  0  0  0
   28.3624  -20.7902  -15.3341 N   0  0  0  0  0  0  0  0  0  0  0  0
   26.3641  -20.8954  -14.0074 C   0  0  0  0  0  0  0  0  0  0  0  0
   25.8905  -21.9116  -14.5876 O   0  0  0  0  0  0  0  0  0  0  0  0
   25.1224  -20.1065   -8.6054 C   0  0  0  0  0  0  0  0  0  0  0  0
   25.8772  -20.4154   -9.9349 C   0  0  1  0  0  0  0  0  0  0  0  0
   27.2930  -20.6889   -9.4766 C   0  0  0  0  0  0  0  0  0  0  0  0
   25.1877  -21.5451  -10.6145 C   0  0  0  0  0  0  0  0  0  0  0  0
   24.8527  -21.3707  -12.0178 C   0  0  2  0  0  0  0  0  0  0  0  0
   25.9170  -20.6170  -12.7164 N   0  0  0  0  0  0  0  0  0  0  0  0
   23.5997  -20.7470  -12.4195 C   0  0  0  0  0  0  0  0  0  0  0  0
   23.2862  -19.5319  -12.2819 O   0  0  0  0  0  0  0  0  0  0  0  0
   22.1489  -20.3919  -15.7204 C   0  0  0  0  0  0  0  0  0  0  0  0
   21.1001  -21.1339  -14.9432 C   0  0  1  0  0  0  0  0  0  0  0  0
   21.1879  -22.5137  -15.1783 O   0  0  0  0  0  0  0  0  0  0  0  0
   21.3439  -20.8829  -13.4648 C   0  0  2  0  0  0  0  0  0  0  0  0
   22.5616  -21.5346  -13.0455 N   0  0  0  0  0  0  0  0  0  0  0  0
   20.2248  -21.4716  -12.6846 C   0  0  0  0  0  0  0  0  0  0  0  0
   19.0711  -20.9892  -12.7461 O   0  0  0  0  0  0  0  0  0  0  0  0
   20.3995  -22.5799  -11.8524 O   0  0  0  0  0  0  0  0  0  0  0  0
  2  1  1  1
  2  3  1  0
  4  2  1  0
  4  5  1  0
  5  7  1  0
  5  6  1  6
  7  8  2  0
 10  9  1  1
 10 12  1  0
 11 10  1  0
 13 12  1  1
 14 13  1  0
 14  7  1  0
 15 16  2  0
 15 13  1  0
 18 17  1  6
 18 20  1  0
 19 18  1  0
 20 21  1  1
 21 15  1  0
 22 20  1  0
 22 24  1  0
 23 22  2  0
M  END
$$$$
