LLT.pdb
     RDKit          3D

 24 23  0  0  1  0  0  0  0  0999 V2000
   17.5375  -10.8898  -21.5424 C   0  0  0  0  0  0  0  0  0  0  0  0
   18.9101  -10.3500  -21.3051 C   0  0  2  0  0  0  0  0  0  0  0  0
   19.9441  -11.2884  -21.8342 C   0  0  0  0  0  0  0  0  0  0  0  0
   19.0891  -10.1206  -19.8104 C   0  0  0  0  0  0  0  0  0  0  0  0
   20.3223   -9.2608  -19.6433 C   0  0  2  0  0  0  0  0  0  0  0  0
   21.4937   -9.9827  -20.0997 N   0  0  0  0  0  0  0  0  0  0  0  0
   20.5085   -8.8278  -18.2397 C   0  0  0  0  0  0  0  0  0  0  0  0
   19.5696   -8.3578  -17.5390 O   0  0  0  0  0  0  0  0  0  0  0  0
   21.5686  -10.9347  -14.5555 C   0  0  0  0  0  0  0  0  0  0  0  0
   22.8627  -10.0759  -14.4135 C   0  0  1  0  0  0  0  0  0  0  0  0
   23.9017  -11.0819  -13.9691 C   0  0  0  0  0  0  0  0  0  0  0  0
   23.1265   -9.4058  -15.7154 C   0  0  0  0  0  0  0  0  0  0  0  0
   22.0732   -8.5607  -16.2524 C   0  0  2  0  0  0  0  0  0  0  0  0
   21.7674   -8.9366  -17.6503 N   0  0  0  0  0  0  0  0  0  0  0  0
   22.2005   -7.1101  -16.2533 C   0  0  0  0  0  0  0  0  0  0  0  0
   22.9405   -6.4204  -17.0082 O   0  0  0  0  0  0  0  0  0  0  0  0
   20.1248   -4.3262  -17.0765 C   0  0  0  0  0  0  0  0  0  0  0  0
   20.3941   -4.1350  -15.6118 C   0  0  1  0  0  0  0  0  0  0  0  0
   19.3465   -4.6575  -14.8396 O   0  0  0  0  0  0  0  0  0  0  0  0
   21.6672   -4.8879  -15.2649 C   0  0  2  0  0  0  0  0  0  0  0  0
   21.4334   -6.3110  -15.3243 N   0  0  0  0  0  0  0  0  0  0  0  0
   22.0615   -4.5527  -13.8720 C   0  0  0  0  0  0  0  0  0  0  0  0
   22.0190   -5.4138  -12.9642 O   0  0  0  0  0  0  0  0  0  0  0  0
   22.4946   -3.2756  -13.5077 O   0  0  0  0  0  0  0  0  0  0  0  0
  2  1  1  1
  2  3  1  0
  4  2  1  0
  4  5  1  0
  5  7  1  0
  5  6  1  1
  7  8  2  0
 10  9  1  6
 10 12  1  0
 11 10  1  0
 13 12  1  6
 14 13  1  0
 14  7  1  0
 15 16  2  0
 15 13  1  0
 18 17  1  6
 18 20  1  0
 19 18  1  0
 20 21  1  1
 21 15  1  0
 22 20  1  0
 22 24  1  0
 23 22  2  0
M  END
$$$$
