LLT.pdb
     RDKit          3D

 24 23  0  0  1  0  0  0  0  0999 V2000
   24.9645  -17.9706  -17.8649 C   0  0  0  0  0  0  0  0  0  0  0  0
   23.8636  -18.4860  -18.7332 C   0  0  2  0  0  0  0  0  0  0  0  0
   23.5718  -17.5264  -19.8395 C   0  0  0  0  0  0  0  0  0  0  0  0
   22.6322  -18.7184  -17.8681 C   0  0  0  0  0  0  0  0  0  0  0  0
   23.0176  -19.7414  -16.8225 C   0  0  2  0  0  0  0  0  0  0  0  0
   23.3864  -20.9884  -17.4634 N   0  0  0  0  0  0  0  0  0  0  0  0
   21.9268  -19.9750  -15.8489 C   0  0  0  0  0  0  0  0  0  0  0  0
   20.8767  -20.6128  -16.1387 O   0  0  0  0  0  0  0  0  0  0  0  0
   19.9739  -21.0251  -10.9901 C   0  0  0  0  0  0  0  0  0  0  0  0
   20.5895  -19.5935  -11.0546 C   0  0  1  0  0  0  0  0  0  0  0  0
   21.1982  -19.4135   -9.6812 C   0  0  0  0  0  0  0  0  0  0  0  0
   21.5423  -19.5433  -12.1961 C   0  0  0  0  0  0  0  0  0  0  0  0
   20.9751  -19.5235  -13.5339 C   0  0  2  0  0  0  0  0  0  0  0  0
   22.0473  -19.4766  -14.5523 N   0  0  0  0  0  0  0  0  0  0  0  0
   20.0132  -18.5035  -13.9273 C   0  0  0  0  0  0  0  0  0  0  0  0
   20.2092  -17.2569  -13.9591 O   0  0  0  0  0  0  0  0  0  0  0  0
   18.3713  -17.4564  -16.9359 C   0  0  0  0  0  0  0  0  0  0  0  0
   17.2510  -17.9353  -16.0584 C   0  0  1  0  0  0  0  0  0  0  0  0
   16.9347  -19.2726  -16.3384 O   0  0  0  0  0  0  0  0  0  0  0  0
   17.7124  -17.8441  -14.6138 C   0  0  2  0  0  0  0  0  0  0  0  0
   18.6783  -18.8798  -14.3355 N   0  0  0  0  0  0  0  0  0  0  0  0
   16.5456  -18.0625  -13.7200 C   0  0  0  0  0  0  0  0  0  0  0  0
   16.4987  -19.0479  -12.9491 O   0  0  0  0  0  0  0  0  0  0  0  0
   15.4544  -17.1909  -13.6938 O   0  0  0  0  0  0  0  0  0  0  0  0
  2  1  1  1
  2  3  1  0
  4  2  1  0
  4  5  1  0
  5  7  1  0
  5  6  1  6
  7  8  2  0
 10  9  1  1
 10 12  1  0
 11 10  1  0
 13 12  1  1
 14 13  1  0
 14  7  1  0
 15 16  2  0
 15 13  1  0
 18 17  1  6
 18 20  1  0
 19 18  1  0
 20 21  1  1
 21 15  1  0
 22 20  1  0
 22 24  1  0
 23 22  2  0
M  END
$$$$
