LLT.pdb
     RDKit          3D

 24 23  0  0  1  0  0  0  0  0999 V2000
   24.4835  -18.7432  -17.2581 C   0  0  0  0  0  0  0  0  0  0  0  0
   24.9723  -20.1134  -17.5978 C   0  0  2  0  0  0  0  0  0  0  0  0
   24.3736  -20.5831  -18.8826 C   0  0  0  0  0  0  0  0  0  0  0  0
   24.6199  -21.0518  -16.4515 C   0  0  0  0  0  0  0  0  0  0  0  0
   25.8480  -21.1532  -15.5743 C   0  0  2  0  0  0  0  0  0  0  0  0
   26.8437  -21.9913  -16.2131 N   0  0  0  0  0  0  0  0  0  0  0  0
   25.5254  -21.6839  -14.2303 C   0  0  0  0  0  0  0  0  0  0  0  0
   25.4779  -22.9196  -13.9765 O   0  0  0  0  0  0  0  0  0  0  0  0
   26.3197  -21.7845   -8.9002 C   0  0  0  0  0  0  0  0  0  0  0  0
   25.3630  -20.6594   -9.4018 C   0  0  1  0  0  0  0  0  0  0  0  0
   25.6562  -19.5087   -8.4640 C   0  0  0  0  0  0  0  0  0  0  0  0
   25.6463  -20.4094  -10.8407 C   0  0  0  0  0  0  0  0  0  0  0  0
   24.9094  -21.2028  -11.8100 C   0  0  2  0  0  0  0  0  0  0  0  0
   25.2598  -20.7960  -13.1886 N   0  0  0  0  0  0  0  0  0  0  0  0
   23.4552  -21.2697  -11.7765 C   0  0  0  0  0  0  0  0  0  0  0  0
   22.7415  -21.6450  -10.8053 O   0  0  0  0  0  0  0  0  0  0  0  0
   20.9528  -18.4983  -12.8483 C   0  0  0  0  0  0  0  0  0  0  0  0
   20.6443  -19.7507  -13.6170 C   0  0  1  0  0  0  0  0  0  0  0  0
   21.2217  -19.7071  -14.8943 O   0  0  0  0  0  0  0  0  0  0  0  0
   21.2405  -20.9260  -12.8612 C   0  0  2  0  0  0  0  0  0  0  0  0
   22.6813  -20.8834  -12.9349 N   0  0  0  0  0  0  0  0  0  0  0  0
   20.7925  -22.1893  -13.5026 C   0  0  0  0  0  0  0  0  0  0  0  0
   21.6176  -22.9871  -14.0028 O   0  0  0  0  0  0  0  0  0  0  0  0
   19.4446  -22.5477  -13.5799 O   0  0  0  0  0  0  0  0  0  0  0  0
  2  1  1  1
  2  3  1  0
  4  2  1  0
  4  5  1  0
  5  7  1  0
  5  6  1  6
  7  8  2  0
 10  9  1  1
 10 12  1  0
 11 10  1  0
 13 12  1  1
 14 13  1  0
 14  7  1  0
 15 16  2  0
 15 13  1  0
 18 17  1  1
 18 20  1  0
 19 18  1  0
 20 21  1  6
 21 15  1  0
 22 20  1  0
 22 24  1  0
 23 22  2  0
M  END
$$$$
