LLT.pdb
     RDKit          3D

 24 23  0  0  1  0  0  0  0  0999 V2000
   18.7951  -21.5203   -9.1932 C   0  0  0  0  0  0  0  0  0  0  0  0
   20.0372  -21.9482   -8.4820 C   0  0  2  0  0  0  0  0  0  0  0  0
   19.7939  -22.0515   -7.0123 C   0  0  0  0  0  0  0  0  0  0  0  0
   21.1408  -20.9443   -8.7872 C   0  0  0  0  0  0  0  0  0  0  0  0
   22.4554  -21.6748   -8.6248 C   0  0  2  0  0  0  0  0  0  0  0  0
   22.6542  -22.0310   -7.2336 N   0  0  0  0  0  0  0  0  0  0  0  0
   23.5991  -20.8698   -9.1105 C   0  0  0  0  0  0  0  0  0  0  0  0
   23.4652  -19.9110   -9.9206 O   0  0  0  0  0  0  0  0  0  0  0  0
   27.7637  -20.0069   -5.7050 C   0  0  0  0  0  0  0  0  0  0  0  0
   26.6947  -19.7103   -6.8013 C   0  0  1  0  0  0  0  0  0  0  0  0
   26.6836  -18.1993   -6.8777 C   0  0  0  0  0  0  0  0  0  0  0  0
   27.0921  -20.4181   -8.0481 C   0  0  0  0  0  0  0  0  0  0  0  0
   26.1119  -20.4766   -9.1194 C   0  0  2  0  0  0  0  0  0  0  0  0
   24.8860  -21.1689   -8.6649 N   0  0  0  0  0  0  0  0  0  0  0  0
   26.4424  -21.0666  -10.4091 C   0  0  0  0  0  0  0  0  0  0  0  0
   27.1244  -22.1103  -10.6062 O   0  0  0  0  0  0  0  0  0  0  0  0
   25.1353  -23.0339  -12.9056 C   0  0  0  0  0  0  0  0  0  0  0  0
   25.3218  -21.7154  -13.5993 C   0  0  1  0  0  0  0  0  0  0  0  0
   24.1557  -20.9405  -13.5199 O   0  0  0  0  0  0  0  0  0  0  0  0
   26.4428  -20.9682  -12.8970 C   0  0  2  0  0  0  0  0  0  0  0  0
   25.9778  -20.4515  -11.6321 N   0  0  0  0  0  0  0  0  0  0  0  0
   26.8505  -19.8111  -13.7353 C   0  0  0  0  0  0  0  0  0  0  0  0
   26.6939  -18.6358  -13.3332 O   0  0  0  0  0  0  0  0  0  0  0  0
   27.4224  -19.9724  -14.9995 O   0  0  0  0  0  0  0  0  0  0  0  0
  2  1  1  6
  2  3  1  0
  4  2  1  0
  4  5  1  0
  5  7  1  0
  5  6  1  1
  7  8  2  0
 10  9  1  1
 10 12  1  0
 11 10  1  0
 13 12  1  1
 14 13  1  0
 14  7  1  0
 15 16  2  0
 15 13  1  0
 18 17  1  1
 18 20  1  0
 19 18  1  0
 20 21  1  1
 21 15  1  0
 22 20  1  0
 22 24  1  0
 23 22  2  0
M  END
$$$$
