LLT.pdb
     RDKit          3D

 24 23  0  0  1  0  0  0  0  0999 V2000
   17.0054   -8.8442  -19.2758 C   0  0  0  0  0  0  0  0  0  0  0  0
   16.1401   -8.8882  -18.0588 C   0  0  2  0  0  0  0  0  0  0  0  0
   15.0348   -7.8895  -18.1617 C   0  0  0  0  0  0  0  0  0  0  0  0
   17.0088   -8.6228  -16.8366 C   0  0  0  0  0  0  0  0  0  0  0  0
   18.0757   -9.6950  -16.8157 C   0  0  2  0  0  0  0  0  0  0  0  0
   17.4892  -10.9686  -16.4474 N   0  0  0  0  0  0  0  0  0  0  0  0
   19.1799   -9.3583  -15.8887 C   0  0  0  0  0  0  0  0  0  0  0  0
   19.0629   -9.4242  -14.6335 O   0  0  0  0  0  0  0  0  0  0  0  0
   23.9617  -11.5835  -15.6872 C   0  0  0  0  0  0  0  0  0  0  0  0
   22.6805  -10.8133  -15.2420 C   0  0  1  0  0  0  0  0  0  0  0  0
   22.7668  -10.8369  -13.7316 C   0  0  0  0  0  0  0  0  0  0  0  0
   22.7015   -9.4649  -15.8702 C   0  0  0  0  0  0  0  0  0  0  0  0
   21.5829   -8.5822  -15.5847 C   0  0  2  0  0  0  0  0  0  0  0  0
   20.4084   -8.9493  -16.4061 N   0  0  0  0  0  0  0  0  0  0  0  0
   21.7147   -7.1373  -15.7095 C   0  0  0  0  0  0  0  0  0  0  0  0
   22.1160   -6.5035  -16.7247 O   0  0  0  0  0  0  0  0  0  0  0  0
   19.6431   -4.4952  -16.1629 C   0  0  0  0  0  0  0  0  0  0  0  0
   20.2554   -4.1319  -14.8409 C   0  0  1  0  0  0  0  0  0  0  0  0
   19.4343   -4.5431  -13.7809 O   0  0  0  0  0  0  0  0  0  0  0  0
   21.5868   -4.8543  -14.7242 C   0  0  2  0  0  0  0  0  0  0  0  0
   21.3703   -6.2759  -14.6007 N   0  0  0  0  0  0  0  0  0  0  0  0
   22.2789   -4.3941  -13.4925 C   0  0  0  0  0  0  0  0  0  0  0  0
   22.4889   -5.1778  -12.5390 O   0  0  0  0  0  0  0  0  0  0  0  0
   22.7257   -3.0798  -13.3365 O   0  0  0  0  0  0  0  0  0  0  0  0
  2  1  1  6
  2  3  1  0
  4  2  1  0
  4  5  1  0
  5  7  1  0
  5  6  1  1
  7  8  2  0
 10  9  1  6
 10 12  1  0
 11 10  1  0
 13 12  1  6
 14 13  1  0
 14  7  1  0
 15 16  2  0
 15 13  1  0
 18 17  1  6
 18 20  1  0
 19 18  1  0
 20 21  1  1
 21 15  1  0
 22 20  1  0
 22 24  1  0
 23 22  2  0
M  END
$$$$
