LLT.pdb
     RDKit          3D

 24 23  0  0  1  0  0  0  0  0999 V2000
   17.3142  -22.7807  -12.5345 C   0  0  0  0  0  0  0  0  0  0  0  0
   17.8585  -22.5139  -11.1691 C   0  0  2  0  0  0  0  0  0  0  0  0
   16.7873  -21.9970  -10.2664 C   0  0  0  0  0  0  0  0  0  0  0  0
   19.0037  -21.5175  -11.2901 C   0  0  0  0  0  0  0  0  0  0  0  0
   19.8885  -22.0011  -12.4177 C   0  0  2  0  0  0  0  0  0  0  0  0
   20.3871  -23.3294  -12.1198 N   0  0  0  0  0  0  0  0  0  0  0  0
   21.0198  -21.0791  -12.6672 C   0  0  0  0  0  0  0  0  0  0  0  0
   20.8677  -19.8347  -12.8152 O   0  0  0  0  0  0  0  0  0  0  0  0
   25.7172  -21.7741  -10.0494 C   0  0  0  0  0  0  0  0  0  0  0  0
   24.4791  -21.1094  -10.7261 C   0  0  1  0  0  0  0  0  0  0  0  0
   24.4896  -19.7033  -10.1676 C   0  0  0  0  0  0  0  0  0  0  0  0
   24.6345  -21.2206  -12.2015 C   0  0  0  0  0  0  0  0  0  0  0  0
   23.5201  -20.7765  -13.0217 C   0  0  2  0  0  0  0  0  0  0  0  0
   22.3151  -21.5891  -12.7453 N   0  0  0  0  0  0  0  0  0  0  0  0
   23.6313  -20.7175  -14.4725 C   0  0  0  0  0  0  0  0  0  0  0  0
   23.6444  -21.6989  -15.2664 O   0  0  0  0  0  0  0  0  0  0  0  0
   22.1325  -17.5622  -16.4105 C   0  0  0  0  0  0  0  0  0  0  0  0
   22.3932  -18.8789  -17.0834 C   0  0  1  0  0  0  0  0  0  0  0  0
   22.4696  -18.7217  -18.4748 O   0  0  0  0  0  0  0  0  0  0  0  0
   23.7288  -19.4053  -16.5863 C   0  0  2  0  0  0  0  0  0  0  0  0
   23.7414  -19.4418  -15.1435 N   0  0  0  0  0  0  0  0  0  0  0  0
   24.8055  -18.4796  -17.0242 C   0  0  0  0  0  0  0  0  0  0  0  0
   25.4035  -17.7499  -16.2012 O   0  0  0  0  0  0  0  0  0  0  0  0
   25.2013  -18.3768  -18.3599 O   0  0  0  0  0  0  0  0  0  0  0  0
  2  1  1  6
  2  3  1  0
  4  2  1  0
  4  5  1  0
  5  7  1  0
  5  6  1  1
  7  8  2  0
 10  9  1  1
 10 12  1  0
 11 10  1  0
 13 12  1  1
 14 13  1  0
 14  7  1  0
 15 16  2  0
 15 13  1  0
 18 17  1  1
 18 20  1  0
 19 18  1  0
 20 21  1  1
 21 15  1  0
 22 20  1  0
 22 24  1  0
 23 22  2  0
M  END
$$$$
