LLT.pdb
     RDKit          3D

 24 23  0  0  1  0  0  0  0  0999 V2000
   27.2927  -32.4131   -8.7906 C   0  0  0  0  0  0  0  0  0  0  0  0
   25.9934  -32.9379   -8.2731 C   0  0  2  0  0  0  0  0  0  0  0  0
   25.2619  -31.8796   -7.5150 C   0  0  0  0  0  0  0  0  0  0  0  0
   26.2753  -34.1487   -7.3938 C   0  0  0  0  0  0  0  0  0  0  0  0
   27.6691  -34.6254   -7.7377 C   0  0  2  0  0  0  0  0  0  0  0  0
   27.5972  -35.7185   -8.6873 N   0  0  0  0  0  0  0  0  0  0  0  0
   28.4218  -35.0477   -6.5346 C   0  0  0  0  0  0  0  0  0  0  0  0
   28.3633  -36.2191   -6.0678 O   0  0  0  0  0  0  0  0  0  0  0  0
   33.6077  -33.4279   -5.9784 C   0  0  0  0  0  0  0  0  0  0  0  0
   32.3806  -34.3833   -5.8597 C   0  0  1  0  0  0  0  0  0  0  0  0
   33.0012  -35.6969   -5.4371 C   0  0  0  0  0  0  0  0  0  0  0  0
   31.4126  -33.7869   -4.9002 C   0  0  0  0  0  0  0  0  0  0  0  0
   30.1317  -34.4561   -4.7472 C   0  0  2  0  0  0  0  0  0  0  0  0
   29.2346  -34.1257   -5.8763 N   0  0  0  0  0  0  0  0  0  0  0  0
   29.3311  -34.2808   -3.5435 C   0  0  0  0  0  0  0  0  0  0  0  0
   28.7808  -33.2132   -3.1551 O   0  0  0  0  0  0  0  0  0  0  0  0
   26.1841  -35.7256   -2.2416 C   0  0  0  0  0  0  0  0  0  0  0  0
   27.2487  -36.1328   -1.2642 C   0  0  1  0  0  0  0  0  0  0  0  0
   27.7120  -37.4270   -1.5416 O   0  0  0  0  0  0  0  0  0  0  0  0
   28.4123  -35.1663   -1.4055 C   0  0  2  0  0  0  0  0  0  0  0  0
   29.0991  -35.3965   -2.6539 N   0  0  0  0  0  0  0  0  0  0  0  0
   29.3802  -35.4125   -0.3053 C   0  0  0  0  0  0  0  0  0  0  0  0
   30.5076  -35.9057   -0.5359 O   0  0  0  0  0  0  0  0  0  0  0  0
   29.0863  -35.1103    1.0264 O   0  0  0  0  0  0  0  0  0  0  0  0
  2  1  1  1
  2  3  1  0
  4  2  1  0
  4  5  1  0
  5  7  1  0
  5  6  1  6
  7  8  2  0
 10  9  1  1
 10 12  1  0
 11 10  1  0
 13 12  1  1
 14 13  1  0
 14  7  1  0
 15 16  2  0
 15 13  1  0
 18 17  1  6
 18 20  1  0
 19 18  1  0
 20 21  1  6
 21 15  1  0
 22 20  1  0
 22 24  1  0
 23 22  2  0
M  END
$$$$
