LLT.pdb
     RDKit          3D

 24 23  0  0  1  0  0  0  0  0999 V2000
   27.3199  -15.2227  -15.1341 C   0  0  0  0  0  0  0  0  0  0  0  0
   26.6555  -15.5481  -16.4319 C   0  0  2  0  0  0  0  0  0  0  0  0
   25.8053  -14.4088  -16.8890 C   0  0  0  0  0  0  0  0  0  0  0  0
   25.8276  -16.8130  -16.2489 C   0  0  0  0  0  0  0  0  0  0  0  0
   26.7705  -17.8860  -15.7510 C   0  0  2  0  0  0  0  0  0  0  0  0
   27.5688  -18.3915  -16.8505 N   0  0  0  0  0  0  0  0  0  0  0  0
   26.0456  -18.9991  -15.0971 C   0  0  0  0  0  0  0  0  0  0  0  0
   25.6140  -20.0008  -15.7326 O   0  0  0  0  0  0  0  0  0  0  0  0
   25.6521  -22.4869  -11.0309 C   0  0  0  0  0  0  0  0  0  0  0  0
   25.0845  -21.0799  -10.6691 C   0  0  1  0  0  0  0  0  0  0  0  0
   25.4447  -20.9239   -9.2078 C   0  0  0  0  0  0  0  0  0  0  0  0
   25.6840  -20.0801  -11.5934 C   0  0  0  0  0  0  0  0  0  0  0  0
   25.1584  -20.0288  -12.9472 C   0  0  2  0  0  0  0  0  0  0  0  0
   25.8209  -18.9563  -13.7216 N   0  0  0  0  0  0  0  0  0  0  0  0
   23.7322  -19.8696  -13.1943 C   0  0  0  0  0  0  0  0  0  0  0  0
   23.0375  -18.8429  -12.9561 O   0  0  0  0  0  0  0  0  0  0  0  0
   21.7782  -20.1922  -16.3667 C   0  0  0  0  0  0  0  0  0  0  0  0
   21.1977  -21.1971  -15.4141 C   0  0  1  0  0  0  0  0  0  0  0  0
   21.7405  -22.4703  -15.6401 O   0  0  0  0  0  0  0  0  0  0  0  0
   21.5546  -20.7676  -14.0013 C   0  0  2  0  0  0  0  0  0  0  0  0
   22.9668  -20.9534  -13.7684 N   0  0  0  0  0  0  0  0  0  0  0  0
   20.8208  -21.6265  -13.0361 C   0  0  0  0  0  0  0  0  0  0  0  0
   19.5791  -21.5346  -12.9046 O   0  0  0  0  0  0  0  0  0  0  0  0
   21.4700  -22.5692  -12.2353 O   0  0  0  0  0  0  0  0  0  0  0  0
  2  1  1  1
  2  3  1  0
  4  2  1  0
  4  5  1  0
  5  7  1  0
  5  6  1  6
  7  8  2  0
 10  9  1  6
 10 12  1  0
 11 10  1  0
 13 12  1  1
 14 13  1  0
 14  7  1  0
 15 16  2  0
 15 13  1  0
 18 17  1  6
 18 20  1  0
 19 18  1  0
 20 21  1  1
 21 15  1  0
 22 20  1  0
 22 24  1  0
 23 22  2  0
M  END
$$$$
