KQV.pdb
     RDKit          3D

 26 25  0  0  1  0  0  0  0  0999 V2000
   10.3964  -16.2647   19.8122 N   0  0  0  0  0  0  0  0  0  0  0  0
    9.1016  -15.6564   19.7191 C   0  0  1  0  0  0  0  0  0  0  0  0
    8.2527  -16.2119   18.6278 C   0  0  0  0  0  0  0  0  0  0  0  0
    8.2085  -17.6872   18.5090 C   0  0  0  0  0  0  0  0  0  0  0  0
    7.4221  -18.2738   17.4013 C   0  0  0  0  0  0  0  0  0  0  0  0
    7.4094  -19.7714   17.3315 C   0  0  0  0  0  0  0  0  0  0  0  0
    6.6221  -20.3230   16.2837 N   0  0  0  0  0  0  0  0  0  0  0  0
    8.4400  -15.7500   21.0543 C   0  0  0  0  0  0  0  0  0  0  0  0
    7.2574  -15.2771   21.2142 O   0  0  0  0  0  0  0  0  0  0  0  0
    9.9811  -20.1477   25.2425 N   0  0  0  0  0  0  0  0  0  0  0  0
   10.7917  -18.9955   25.1986 C   0  0  0  0  0  0  0  0  0  0  0  0
   11.9230  -19.0136   25.7130 O   0  0  0  0  0  0  0  0  0  0  0  0
   10.2872  -17.7753   24.5405 C   0  0  0  0  0  0  0  0  0  0  0  0
    8.9048  -17.8641   24.0244 C   0  0  0  0  0  0  0  0  0  0  0  0
    8.3545  -16.6041   23.4390 C   0  0  2  0  0  0  0  0  0  0  0  0
    9.0680  -16.3448   22.1691 N   0  0  0  0  0  0  0  0  0  0  0  0
    8.6771  -15.4480   24.3027 C   0  0  0  0  0  0  0  0  0  0  0  0
    9.7959  -14.8296   24.2075 O   0  0  0  0  0  0  0  0  0  0  0  0
    6.2742  -12.4732   25.0721 C   0  0  0  0  0  0  0  0  0  0  0  0
    6.8753  -13.0112   26.3628 C   0  0  2  0  0  0  0  0  0  0  0  0
    7.1972  -11.7758   27.2126 C   0  0  0  0  0  0  0  0  0  0  0  0
    8.1759  -13.7378   26.0463 C   0  0  2  0  0  0  0  0  0  0  0  0
    7.8038  -14.9224   25.2891 N   0  0  0  0  0  0  0  0  0  0  0  0
    8.8031  -14.0770   27.3382 C   0  0  0  0  0  0  0  0  0  0  0  0
    9.4793  -13.0740   28.0177 O   0  0  0  0  0  0  0  0  0  0  0  0
    8.7738  -15.2123   27.8778 O   0  0  0  0  0  0  0  0  0  0  0  0
  2  1  1  1
  3  2  1  0
  4  3  1  0
  5  4  1  0
  5  6  1  0
  7  6  1  0
  8  9  2  0
  8  2  1  0
 10 11  1  0
 11 12  2  0
 11 13  1  0
 13 14  1  0
 15 14  1  1
 15 16  1  0
 16  8  1  0
 17 15  1  0
 18 17  2  0
 20 19  1  6
 20 22  1  0
 21 20  1  0
 22 23  1  1
 22 24  1  0
 23 17  1  0
 24 25  1  0
 26 24  2  0
M  END
$$$$
