KQV.pdb
     RDKit          3D

 26 25  0  0  1  0  0  0  0  0999 V2000
    7.5672  -16.9704   20.0069 N   0  0  0  0  0  0  0  0  0  0  0  0
    8.3383  -16.0330   20.7697 C   0  0  1  0  0  0  0  0  0  0  0  0
    7.8428  -14.6307   20.6786 C   0  0  0  0  0  0  0  0  0  0  0  0
    7.4421  -14.1560   19.3345 C   0  0  0  0  0  0  0  0  0  0  0  0
    8.3231  -13.1861   18.6468 C   0  0  0  0  0  0  0  0  0  0  0  0
    7.8841  -12.7626   17.2772 C   0  0  0  0  0  0  0  0  0  0  0  0
    8.7028  -11.7807   16.6546 N   0  0  0  0  0  0  0  0  0  0  0  0
    8.4086  -16.5180   22.1800 C   0  0  0  0  0  0  0  0  0  0  0  0
    7.3425  -16.9253   22.7678 O   0  0  0  0  0  0  0  0  0  0  0  0
   11.2673  -20.0812   26.0626 N   0  0  0  0  0  0  0  0  0  0  0  0
   11.0958  -20.2600   24.6751 C   0  0  0  0  0  0  0  0  0  0  0  0
   11.0508  -21.4072   24.1988 O   0  0  0  0  0  0  0  0  0  0  0  0
   10.9715  -19.0796   23.7990 C   0  0  0  0  0  0  0  0  0  0  0  0
   10.9361  -17.7777   24.4982 C   0  0  0  0  0  0  0  0  0  0  0  0
    9.6808  -16.9864   24.3215 C   0  0  2  0  0  0  0  0  0  0  0  0
    9.6159  -16.5484   22.9098 N   0  0  0  0  0  0  0  0  0  0  0  0
    9.7421  -15.7358   25.1082 C   0  0  0  0  0  0  0  0  0  0  0  0
   10.6813  -14.8803   24.9379 O   0  0  0  0  0  0  0  0  0  0  0  0
    7.1930  -13.1082   25.4458 C   0  0  0  0  0  0  0  0  0  0  0  0
    7.5925  -13.4643   26.8707 C   0  0  2  0  0  0  0  0  0  0  0  0
    7.7148  -12.1262   27.6100 C   0  0  0  0  0  0  0  0  0  0  0  0
    8.9577  -14.1395   26.8554 C   0  0  2  0  0  0  0  0  0  0  0  0
    8.7926  -15.3689   26.0961 N   0  0  0  0  0  0  0  0  0  0  0  0
    9.3240  -14.3983   28.2612 C   0  0  0  0  0  0  0  0  0  0  0  0
    9.8234  -13.3422   29.0096 O   0  0  0  0  0  0  0  0  0  0  0  0
    9.2190  -15.5091   28.8408 O   0  0  0  0  0  0  0  0  0  0  0  0
  2  1  1  6
  3  2  1  0
  4  3  1  0
  5  4  1  0
  5  6  1  0
  7  6  1  0
  8  9  2  0
  8  2  1  0
 10 11  1  0
 11 12  2  0
 11 13  1  0
 13 14  1  0
 15 14  1  6
 15 16  1  0
 16  8  1  0
 17 15  1  0
 18 17  2  0
 20 19  1  6
 20 22  1  0
 21 20  1  0
 22 23  1  6
 22 24  1  0
 23 17  1  0
 24 25  1  0
 26 24  2  0
M  END
$$$$
