KQV.pdb
     RDKit          3D

 26 25  0  0  1  0  0  0  0  0999 V2000
    6.1879  -17.1903   19.8564 N   0  0  0  0  0  0  0  0  0  0  0  0
    7.0577  -16.3394   20.6145 C   0  0  1  0  0  0  0  0  0  0  0  0
    7.0536  -14.9192   20.1636 C   0  0  0  0  0  0  0  0  0  0  0  0
    7.5884  -14.6532   18.8087 C   0  0  0  0  0  0  0  0  0  0  0  0
    7.8558  -13.2483   18.4287 C   0  0  0  0  0  0  0  0  0  0  0  0
    8.3919  -13.0372   17.0446 C   0  0  0  0  0  0  0  0  0  0  0  0
    7.8569  -13.8999   16.0488 N   0  0  0  0  0  0  0  0  0  0  0  0
    6.7079  -16.4755   22.0596 C   0  0  0  0  0  0  0  0  0  0  0  0
    5.4760  -16.4682   22.4205 O   0  0  0  0  0  0  0  0  0  0  0  0
    6.5889  -21.2231   25.5506 N   0  0  0  0  0  0  0  0  0  0  0  0
    7.4521  -20.2256   26.0472 C   0  0  0  0  0  0  0  0  0  0  0  0
    8.5186  -20.5472   26.5986 O   0  0  0  0  0  0  0  0  0  0  0  0
    7.0794  -18.8051   25.9072 C   0  0  0  0  0  0  0  0  0  0  0  0
    7.9397  -18.0149   25.0013 C   0  0  0  0  0  0  0  0  0  0  0  0
    7.3445  -16.7398   24.4986 C   0  0  2  0  0  0  0  0  0  0  0  0
    7.6881  -16.6132   23.0651 N   0  0  0  0  0  0  0  0  0  0  0  0
    7.9851  -15.5772   25.1502 C   0  0  0  0  0  0  0  0  0  0  0  0
    8.3000  -14.5253   24.4888 O   0  0  0  0  0  0  0  0  0  0  0  0
    7.0815  -12.9590   25.6531 C   0  0  0  0  0  0  0  0  0  0  0  0
    7.2967  -13.4257   27.0858 C   0  0  2  0  0  0  0  0  0  0  0  0
    7.4688  -12.1461   27.9135 C   0  0  0  0  0  0  0  0  0  0  0  0
    8.5858  -14.2332   27.1624 C   0  0  2  0  0  0  0  0  0  0  0  0
    8.3003  -15.5121   26.5317 N   0  0  0  0  0  0  0  0  0  0  0  0
    8.9160  -14.3793   28.5932 C   0  0  0  0  0  0  0  0  0  0  0  0
    9.6635  -13.3774   29.1952 O   0  0  0  0  0  0  0  0  0  0  0  0
    8.5714  -15.3477   29.3173 O   0  0  0  0  0  0  0  0  0  0  0  0
  2  1  1  6
  3  2  1  0
  4  3  1  0
  5  4  1  0
  5  6  1  0
  7  6  1  0
  8  9  2  0
  8  2  1  0
 10 11  1  0
 11 12  2  0
 11 13  1  0
 13 14  1  0
 15 14  1  1
 15 16  1  0
 16  8  1  0
 17 15  1  0
 18 17  2  0
 20 19  1  6
 20 22  1  0
 21 20  1  0
 22 23  1  1
 22 24  1  0
 23 17  1  0
 24 25  1  0
 26 24  2  0
M  END
$$$$
