KQV.pdb
     RDKit          3D

 26 25  0  0  1  0  0  0  0  0999 V2000
    6.9158  -16.5338   20.0929 N   0  0  0  0  0  0  0  0  0  0  0  0
    7.5936  -15.5558   20.8925 C   0  0  1  0  0  0  0  0  0  0  0  0
    6.9621  -14.2067   20.8570 C   0  0  0  0  0  0  0  0  0  0  0  0
    7.2312  -13.3810   19.6577 C   0  0  0  0  0  0  0  0  0  0  0  0
    8.6045  -13.3796   19.1066 C   0  0  0  0  0  0  0  0  0  0  0  0
    8.8101  -12.5602   17.8680 C   0  0  0  0  0  0  0  0  0  0  0  0
    8.5206  -13.2260   16.6454 N   0  0  0  0  0  0  0  0  0  0  0  0
    7.7163  -16.0869   22.2825 C   0  0  0  0  0  0  0  0  0  0  0  0
    6.6856  -16.5751   22.8716 O   0  0  0  0  0  0  0  0  0  0  0  0
   11.5882  -20.3953   24.4283 N   0  0  0  0  0  0  0  0  0  0  0  0
   10.9441  -19.8600   23.2946 C   0  0  0  0  0  0  0  0  0  0  0  0
   11.3152  -20.1929   22.1560 O   0  0  0  0  0  0  0  0  0  0  0  0
    9.8325  -18.9064   23.4716 C   0  0  0  0  0  0  0  0  0  0  0  0
   10.1548  -17.7050   24.2704 C   0  0  0  0  0  0  0  0  0  0  0  0
    9.0790  -16.6701   24.3385 C   0  0  2  0  0  0  0  0  0  0  0  0
    8.9363  -16.0751   22.9914 N   0  0  0  0  0  0  0  0  0  0  0  0
    9.4930  -15.5497   25.2102 C   0  0  0  0  0  0  0  0  0  0  0  0
    9.8798  -14.4282   24.7249 O   0  0  0  0  0  0  0  0  0  0  0  0
    7.4603  -14.1092   27.9649 C   0  0  0  0  0  0  0  0  0  0  0  0
    8.6769  -13.4741   27.3067 C   0  0  2  0  0  0  0  0  0  0  0  0
    8.3046  -13.3080   25.8282 C   0  0  0  0  0  0  0  0  0  0  0  0
    9.8585  -14.4298   27.4076 C   0  0  2  0  0  0  0  0  0  0  0  0
    9.4978  -15.6031   26.6277 N   0  0  0  0  0  0  0  0  0  0  0  0
   10.0344  -14.7448   28.8385 C   0  0  0  0  0  0  0  0  0  0  0  0
   10.6719  -13.8076   29.6386 O   0  0  0  0  0  0  0  0  0  0  0  0
    9.6496  -15.8040   29.3960 O   0  0  0  0  0  0  0  0  0  0  0  0
  2  1  1  6
  3  2  1  0
  4  3  1  0
  5  4  1  0
  5  6  1  0
  7  6  1  0
  8  9  2  0
  8  2  1  0
 10 11  1  0
 11 12  2  0
 11 13  1  0
 13 14  1  0
 15 14  1  6
 15 16  1  0
 16  8  1  0
 17 15  1  0
 18 17  2  0
 20 19  1  1
 20 22  1  0
 21 20  1  0
 22 23  1  6
 22 24  1  0
 23 17  1  0
 24 25  1  0
 26 24  2  0
M  END
$$$$
