KQV.pdb
     RDKit          3D

 26 25  0  0  1  0  0  0  0  0999 V2000
    6.3365  -16.3752   19.9914 N   0  0  0  0  0  0  0  0  0  0  0  0
    7.2943  -15.5491   20.6663 C   0  0  1  0  0  0  0  0  0  0  0  0
    7.0786  -14.0888   20.4635 C   0  0  0  0  0  0  0  0  0  0  0  0
    7.6554  -13.4987   19.2341 C   0  0  0  0  0  0  0  0  0  0  0  0
    9.0828  -13.1092   19.2517 C   0  0  0  0  0  0  0  0  0  0  0  0
    9.6128  -12.5143   17.9816 C   0  0  0  0  0  0  0  0  0  0  0  0
   10.9988  -12.1967   17.9928 N   0  0  0  0  0  0  0  0  0  0  0  0
    7.3049  -15.9244   22.1114 C   0  0  0  0  0  0  0  0  0  0  0  0
    6.1961  -16.0440   22.7470 O   0  0  0  0  0  0  0  0  0  0  0  0
   11.9035  -18.9883   25.0974 N   0  0  0  0  0  0  0  0  0  0  0  0
   11.1118  -18.5651   26.1840 C   0  0  0  0  0  0  0  0  0  0  0  0
   11.4265  -18.8869   27.3426 O   0  0  0  0  0  0  0  0  0  0  0  0
    9.9134  -17.7417   25.9342 C   0  0  0  0  0  0  0  0  0  0  0  0
    9.6699  -17.3981   24.5173 C   0  0  0  0  0  0  0  0  0  0  0  0
    8.5165  -16.4817   24.2667 C   0  0  2  0  0  0  0  0  0  0  0  0
    8.5008  -16.1569   22.8233 N   0  0  0  0  0  0  0  0  0  0  0  0
    8.7267  -15.1865   24.9485 C   0  0  0  0  0  0  0  0  0  0  0  0
    9.6626  -14.3851   24.5950 O   0  0  0  0  0  0  0  0  0  0  0  0
    6.0184  -13.6557   27.6519 C   0  0  0  0  0  0  0  0  0  0  0  0
    7.0725  -12.7424   27.0424 C   0  0  2  0  0  0  0  0  0  0  0  0
    6.4950  -12.2893   25.6959 C   0  0  0  0  0  0  0  0  0  0  0  0
    8.3419  -13.5434   26.7839 C   0  0  2  0  0  0  0  0  0  0  0  0
    7.9334  -14.7156   26.0260 N   0  0  0  0  0  0  0  0  0  0  0  0
    8.9004  -13.8997   28.1025 C   0  0  0  0  0  0  0  0  0  0  0  0
    9.5253  -12.9022   28.8367 O   0  0  0  0  0  0  0  0  0  0  0  0
    8.8550  -15.0452   28.6189 O   0  0  0  0  0  0  0  0  0  0  0  0
  2  1  1  6
  3  2  1  0
  4  3  1  0
  5  4  1  0
  5  6  1  0
  7  6  1  0
  8  9  2  0
  8  2  1  0
 10 11  1  0
 11 12  2  0
 11 13  1  0
 13 14  1  0
 15 14  1  6
 15 16  1  0
 16  8  1  0
 17 15  1  0
 18 17  2  0
 20 19  1  6
 20 22  1  0
 21 20  1  0
 22 23  1  6
 22 24  1  0
 23 17  1  0
 24 25  1  0
 26 24  2  0
M  END
$$$$
