KQV.pdb
     RDKit          3D

 26 25  0  0  1  0  0  0  0  0999 V2000
    8.1940  -17.7042   19.5613 N   0  0  0  0  0  0  0  0  0  0  0  0
    8.6663  -16.5817   20.3178 C   0  0  1  0  0  0  0  0  0  0  0  0
    8.2085  -15.2652   19.7910 C   0  0  0  0  0  0  0  0  0  0  0  0
    8.4625  -15.0015   18.3564 C   0  0  0  0  0  0  0  0  0  0  0  0
    8.0034  -13.7126   17.7929 C   0  0  0  0  0  0  0  0  0  0  0  0
    8.2424  -13.5196   16.3254 C   0  0  0  0  0  0  0  0  0  0  0  0
    7.7256  -12.3122   15.7804 N   0  0  0  0  0  0  0  0  0  0  0  0
    8.2850  -16.7831   21.7472 C   0  0  0  0  0  0  0  0  0  0  0  0
    7.2335  -17.4600   22.0371 O   0  0  0  0  0  0  0  0  0  0  0  0
   11.7335  -18.9984   26.1715 N   0  0  0  0  0  0  0  0  0  0  0  0
   10.6789  -18.3489   26.8442 C   0  0  0  0  0  0  0  0  0  0  0  0
   10.7994  -18.0521   28.0452 O   0  0  0  0  0  0  0  0  0  0  0  0
    9.4383  -18.0272   26.1136 C   0  0  0  0  0  0  0  0  0  0  0  0
    9.6256  -17.6120   24.7073 C   0  0  0  0  0  0  0  0  0  0  0  0
    8.7176  -16.5249   24.2312 C   0  0  2  0  0  0  0  0  0  0  0  0
    9.0414  -16.2522   22.8135 N   0  0  0  0  0  0  0  0  0  0  0  0
    9.0078  -15.2603   24.9405 C   0  0  0  0  0  0  0  0  0  0  0  0
   10.1349  -14.6629   24.8151 O   0  0  0  0  0  0  0  0  0  0  0  0
    6.0941  -13.2451   27.1510 C   0  0  0  0  0  0  0  0  0  0  0  0
    7.2661  -12.4932   26.5365 C   0  0  2  0  0  0  0  0  0  0  0  0
    6.8517  -12.1973   25.0899 C   0  0  0  0  0  0  0  0  0  0  0  0
    8.4897  -13.3999   26.5175 C   0  0  2  0  0  0  0  0  0  0  0  0
    8.0923  -14.6011   25.8003 N   0  0  0  0  0  0  0  0  0  0  0  0
    8.8376  -13.6805   27.9238 C   0  0  0  0  0  0  0  0  0  0  0  0
    9.4304  -12.6672   28.6632 O   0  0  0  0  0  0  0  0  0  0  0  0
    8.6382  -14.7740   28.5114 O   0  0  0  0  0  0  0  0  0  0  0  0
  2  1  1  6
  3  2  1  0
  4  3  1  0
  5  4  1  0
  5  6  1  0
  7  6  1  0
  8  9  2  0
  8  2  1  0
 10 11  1  0
 11 12  2  0
 11 13  1  0
 13 14  1  0
 15 14  1  1
 15 16  1  0
 16  8  1  0
 17 15  1  0
 18 17  2  0
 20 19  1  1
 20 22  1  0
 21 20  1  0
 22 23  1  6
 22 24  1  0
 23 17  1  0
 24 25  1  0
 26 24  2  0
M  END
$$$$
