KQV.pdb
     RDKit          3D

 26 25  0  0  1  0  0  0  0  0999 V2000
    6.4552  -17.5328   20.0726 N   0  0  0  0  0  0  0  0  0  0  0  0
    7.3521  -16.6241   20.7246 C   0  0  1  0  0  0  0  0  0  0  0  0
    7.4313  -15.2859   20.0742 C   0  0  0  0  0  0  0  0  0  0  0  0
    7.8964  -15.2592   18.6688 C   0  0  0  0  0  0  0  0  0  0  0  0
    8.0545  -13.9427   18.0120 C   0  0  0  0  0  0  0  0  0  0  0  0
    8.2947  -13.9759   16.5324 C   0  0  0  0  0  0  0  0  0  0  0  0
    8.4562  -12.7050   15.9155 N   0  0  0  0  0  0  0  0  0  0  0  0
    6.9656  -16.5321   22.1638 C   0  0  0  0  0  0  0  0  0  0  0  0
    5.7321  -16.3777   22.4838 O   0  0  0  0  0  0  0  0  0  0  0  0
    7.3198  -19.5495   27.3366 N   0  0  0  0  0  0  0  0  0  0  0  0
    7.0221  -19.9468   26.0175 C   0  0  0  0  0  0  0  0  0  0  0  0
    6.3741  -20.9879   25.8150 O   0  0  0  0  0  0  0  0  0  0  0  0
    7.4847  -19.1202   24.8865 C   0  0  0  0  0  0  0  0  0  0  0  0
    8.1183  -17.8383   25.2614 C   0  0  0  0  0  0  0  0  0  0  0  0
    7.5234  -16.6191   24.6347 C   0  0  2  0  0  0  0  0  0  0  0  0
    7.9125  -16.6073   23.2073 N   0  0  0  0  0  0  0  0  0  0  0  0
    8.1271  -15.3963   25.2064 C   0  0  0  0  0  0  0  0  0  0  0  0
    9.3288  -15.0472   24.9289 O   0  0  0  0  0  0  0  0  0  0  0  0
    5.9626  -12.8903   27.7308 C   0  0  0  0  0  0  0  0  0  0  0  0
    7.1350  -12.3160   26.9484 C   0  0  2  0  0  0  0  0  0  0  0  0
    6.5559  -11.8896   25.5938 C   0  0  0  0  0  0  0  0  0  0  0  0
    8.1672  -13.4112   26.7144 C   0  0  2  0  0  0  0  0  0  0  0  0
    7.4534  -14.5129   26.0884 N   0  0  0  0  0  0  0  0  0  0  0  0
    8.7096  -13.7790   28.0366 C   0  0  0  0  0  0  0  0  0  0  0  0
    8.4142  -15.0398   28.5345 O   0  0  0  0  0  0  0  0  0  0  0  0
    9.4245  -13.0348   28.7549 O   0  0  0  0  0  0  0  0  0  0  0  0
  2  1  1  6
  3  2  1  0
  4  3  1  0
  5  4  1  0
  5  6  1  0
  7  6  1  0
  8  9  2  0
  8  2  1  0
 10 11  1  0
 11 12  2  0
 11 13  1  0
 13 14  1  0
 15 14  1  1
 15 16  1  0
 16  8  1  0
 17 15  1  0
 18 17  2  0
 20 19  1  1
 20 22  1  0
 21 20  1  0
 22 23  1  1
 22 24  1  0
 23 17  1  0
 24 25  1  0
 26 24  2  0
M  END
$$$$
