KQV.pdb
     RDKit          3D

 26 25  0  0  1  0  0  0  0  0999 V2000
    8.6782  -18.2137   16.6014 N   0  0  0  0  0  0  0  0  0  0  0  0
    7.8511  -17.9618   17.7450 C   0  0  1  0  0  0  0  0  0  0  0  0
    7.4128  -19.1966   18.4545 C   0  0  0  0  0  0  0  0  0  0  0  0
    6.5428  -20.1233   17.6950 C   0  0  0  0  0  0  0  0  0  0  0  0
    6.0590  -21.3430   18.3790 C   0  0  0  0  0  0  0  0  0  0  0  0
    5.3410  -22.3351   17.5141 C   0  0  0  0  0  0  0  0  0  0  0  0
    4.8953  -23.5097   18.1802 N   0  0  0  0  0  0  0  0  0  0  0  0
    8.5711  -17.0155   18.6478 C   0  0  0  0  0  0  0  0  0  0  0  0
    9.8478  -17.0881   18.7597 O   0  0  0  0  0  0  0  0  0  0  0  0
    9.7933  -11.9998   19.6954 N   0  0  0  0  0  0  0  0  0  0  0  0
    8.7505  -12.5944   18.9567 C   0  0  0  0  0  0  0  0  0  0  0  0
    8.8813  -12.7738   17.7337 O   0  0  0  0  0  0  0  0  0  0  0  0
    7.5099  -12.9990   19.6449 C   0  0  0  0  0  0  0  0  0  0  0  0
    7.6799  -14.0194   20.7009 C   0  0  0  0  0  0  0  0  0  0  0  0
    8.5977  -15.1490   20.3622 C   0  0  2  0  0  0  0  0  0  0  0  0
    7.8991  -16.0275   19.3984 N   0  0  0  0  0  0  0  0  0  0  0  0
    8.8357  -15.9965   21.5503 C   0  0  0  0  0  0  0  0  0  0  0  0
    7.9199  -16.7550   22.0290 O   0  0  0  0  0  0  0  0  0  0  0  0
   12.2070  -17.9032   22.2303 C   0  0  0  0  0  0  0  0  0  0  0  0
   11.7189  -17.2272   23.5036 C   0  0  2  0  0  0  0  0  0  0  0  0
   11.9440  -18.2497   24.6242 C   0  0  0  0  0  0  0  0  0  0  0  0
   10.2253  -16.9536   23.3860 C   0  0  2  0  0  0  0  0  0  0  0  0
   10.0664  -16.0554   22.2532 N   0  0  0  0  0  0  0  0  0  0  0  0
    9.8021  -16.3300   24.6547 C   0  0  0  0  0  0  0  0  0  0  0  0
    9.5930  -14.9585   24.6689 O   0  0  0  0  0  0  0  0  0  0  0  0
    9.6141  -16.9472   25.7338 O   0  0  0  0  0  0  0  0  0  0  0  0
  2  1  1  6
  3  2  1  0
  4  3  1  0
  5  4  1  0
  5  6  1  0
  7  6  1  0
  8  9  2  0
  8  2  1  0
 10 11  1  0
 11 12  2  0
 11 13  1  0
 13 14  1  0
 15 14  1  1
 15 16  1  0
 16  8  1  0
 17 15  1  0
 18 17  2  0
 20 19  1  6
 20 22  1  0
 21 20  1  0
 22 23  1  6
 22 24  1  0
 23 17  1  0
 24 25  1  0
 26 24  2  0
M  END
$$$$
