KQV.pdb
     RDKit          3D

 26 25  0  0  1  0  0  0  0  0999 V2000
    6.9873  -16.6279   19.0068 N   0  0  0  0  0  0  0  0  0  0  0  0
    7.5246  -15.6251   19.8792 C   0  0  1  0  0  0  0  0  0  0  0  0
    7.3053  -14.2310   19.4010 C   0  0  0  0  0  0  0  0  0  0  0  0
    8.1780  -13.7636   18.3000 C   0  0  0  0  0  0  0  0  0  0  0  0
    7.8453  -14.1841   16.9208 C   0  0  0  0  0  0  0  0  0  0  0  0
    8.8147  -13.7620   15.8578 C   0  0  0  0  0  0  0  0  0  0  0  0
    8.5606  -14.2885   14.5616 N   0  0  0  0  0  0  0  0  0  0  0  0
    6.9728  -15.8473   21.2486 C   0  0  0  0  0  0  0  0  0  0  0  0
    5.7022  -15.8500   21.4310 O   0  0  0  0  0  0  0  0  0  0  0  0
    8.6199  -20.0575   25.2236 N   0  0  0  0  0  0  0  0  0  0  0  0
    7.7789  -19.2853   26.0502 C   0  0  0  0  0  0  0  0  0  0  0  0
    7.4389  -19.7175   27.1649 O   0  0  0  0  0  0  0  0  0  0  0  0
    7.3088  -17.9677   25.5820 C   0  0  0  0  0  0  0  0  0  0  0  0
    7.7051  -17.6114   24.2032 C   0  0  0  0  0  0  0  0  0  0  0  0
    7.2561  -16.2661   23.7321 C   0  0  2  0  0  0  0  0  0  0  0  0
    7.8001  -16.0572   22.3722 N   0  0  0  0  0  0  0  0  0  0  0  0
    7.8645  -15.1996   24.5561 C   0  0  0  0  0  0  0  0  0  0  0  0
    9.1162  -14.9311   24.4903 O   0  0  0  0  0  0  0  0  0  0  0  0
    7.3750  -11.1162   27.2481 C   0  0  0  0  0  0  0  0  0  0  0  0
    6.7592  -12.2496   26.4401 C   0  0  2  0  0  0  0  0  0  0  0  0
    5.6574  -12.8376   27.3303 C   0  0  0  0  0  0  0  0  0  0  0  0
    7.8127  -13.3220   26.1956 C   0  0  2  0  0  0  0  0  0  0  0  0
    7.1428  -14.3894   25.4697 N   0  0  0  0  0  0  0  0  0  0  0  0
    8.2905  -13.7638   27.5201 C   0  0  0  0  0  0  0  0  0  0  0  0
    9.2015  -12.9573   28.1867 O   0  0  0  0  0  0  0  0  0  0  0  0
    7.9351  -14.8222   28.0984 O   0  0  0  0  0  0  0  0  0  0  0  0
  2  1  1  6
  3  2  1  0
  4  3  1  0
  5  4  1  0
  5  6  1  0
  7  6  1  0
  8  9  2  0
  8  2  1  0
 10 11  1  0
 11 12  2  0
 11 13  1  0
 13 14  1  0
 15 14  1  1
 15 16  1  0
 16  8  1  0
 17 15  1  0
 18 17  2  0
 20 19  1  1
 20 22  1  0
 21 20  1  0
 22 23  1  1
 22 24  1  0
 23 17  1  0
 24 25  1  0
 26 24  2  0
M  END
$$$$
