KQV.pdb
     RDKit          3D

 26 25  0  0  1  0  0  0  0  0999 V2000
    8.6522  -15.8835   20.2962 N   0  0  0  0  0  0  0  0  0  0  0  0
    8.3727  -14.6397   20.9523 C   0  0  1  0  0  0  0  0  0  0  0  0
    7.3240  -13.8250   20.2765 C   0  0  0  0  0  0  0  0  0  0  0  0
    7.6887  -13.2264   18.9723 C   0  0  0  0  0  0  0  0  0  0  0  0
    7.3571  -13.9799   17.7427 C   0  0  0  0  0  0  0  0  0  0  0  0
    7.8129  -13.3614   16.4552 C   0  0  0  0  0  0  0  0  0  0  0  0
    7.3953  -14.0378   15.2762 N   0  0  0  0  0  0  0  0  0  0  0  0
    8.0365  -14.9248   22.3787 C   0  0  0  0  0  0  0  0  0  0  0  0
    7.6449  -13.9714   23.1440 O   0  0  0  0  0  0  0  0  0  0  0  0
    7.0872  -20.7951   24.5941 N   0  0  0  0  0  0  0  0  0  0  0  0
    6.7940  -20.0059   25.7245 C   0  0  0  0  0  0  0  0  0  0  0  0
    6.3493  -20.5401   26.7550 O   0  0  0  0  0  0  0  0  0  0  0  0
    7.0183  -18.5487   25.6728 C   0  0  0  0  0  0  0  0  0  0  0  0
    7.3775  -18.0138   24.3424 C   0  0  0  0  0  0  0  0  0  0  0  0
    7.6293  -16.5419   24.2874 C   0  0  2  0  0  0  0  0  0  0  0  0
    8.1325  -16.2183   22.9342 N   0  0  0  0  0  0  0  0  0  0  0  0
    8.7285  -16.1701   25.2039 C   0  0  0  0  0  0  0  0  0  0  0  0
    9.9569  -16.3661   24.8944 O   0  0  0  0  0  0  0  0  0  0  0  0
    8.8488  -12.9119   27.4019 C   0  0  0  0  0  0  0  0  0  0  0  0
    9.2221  -14.1270   28.2390 C   0  0  2  0  0  0  0  0  0  0  0  0
   10.4115  -13.6837   29.0997 C   0  0  0  0  0  0  0  0  0  0  0  0
    9.6788  -15.2504   27.3176 C   0  0  2  0  0  0  0  0  0  0  0  0
    8.5371  -15.5731   26.4764 N   0  0  0  0  0  0  0  0  0  0  0  0
   10.0713  -16.3808   28.1812 C   0  0  0  0  0  0  0  0  0  0  0  0
   11.3788  -16.4245   28.6432 O   0  0  0  0  0  0  0  0  0  0  0  0
    9.3093  -17.3160   28.5352 O   0  0  0  0  0  0  0  0  0  0  0  0
  2  1  1  6
  3  2  1  0
  4  3  1  0
  5  4  1  0
  5  6  1  0
  7  6  1  0
  8  9  2  0
  8  2  1  0
 10 11  1  0
 11 12  2  0
 11 13  1  0
 13 14  1  0
 15 14  1  6
 15 16  1  0
 16  8  1  0
 17 15  1  0
 18 17  2  0
 20 19  1  6
 20 22  1  0
 21 20  1  0
 22 23  1  6
 22 24  1  0
 23 17  1  0
 24 25  1  0
 26 24  2  0
M  END
$$$$
