YAI.pdb
     RDKit          3D

 26 26  0  0  1  0  0  0  0  0999 V2000
   16.1738  -14.9781   19.1908 O   0  0  0  0  0  0  0  0  0  0  0  0
   14.8149  -14.7083   19.3113 C   0  0  0  0  0  0  0  0  0  0  0  0
   14.1163  -14.1412   18.2540 C   0  0  0  0  0  0  0  0  0  0  0  0
   12.7705  -13.8639   18.3467 C   0  0  0  0  0  0  0  0  0  0  0  0
   12.1160  -14.1573   19.5109 C   0  0  0  0  0  0  0  0  0  0  0  0
   10.6948  -13.9001   19.7024 C   0  0  0  0  0  0  0  0  0  0  0  0
    9.7982  -15.0677   19.4406 C   0  0  2  0  0  0  0  0  0  0  0  0
    8.7527  -14.7782   18.4802 N   0  0  0  0  0  0  0  0  0  0  0  0
    9.1228  -15.3989   20.7236 C   0  0  0  0  0  0  0  0  0  0  0  0
    8.1153  -14.7108   21.0296 O   0  0  0  0  0  0  0  0  0  0  0  0
   12.8083  -14.7280   20.5814 C   0  0  0  0  0  0  0  0  0  0  0  0
   14.1553  -15.0040   20.4843 C   0  0  0  0  0  0  0  0  0  0  0  0
    8.8318  -18.1487   23.2034 C   0  0  0  0  0  0  0  0  0  0  0  0
    8.7927  -16.6901   22.8002 C   0  0  2  0  0  0  0  0  0  0  0  0
    9.5282  -16.4184   21.6104 N   0  0  0  0  0  0  0  0  0  0  0  0
    9.2348  -15.8347   23.9494 C   0  0  0  0  0  0  0  0  0  0  0  0
   10.4274  -15.4553   24.0178 O   0  0  0  0  0  0  0  0  0  0  0  0
    5.5268  -12.4785   26.1009 C   0  0  0  0  0  0  0  0  0  0  0  0
    6.7816  -13.0834   25.4902 C   0  0  0  0  0  0  0  0  0  0  0  0
    7.4534  -13.8843   26.5811 C   0  0  2  0  0  0  0  0  0  0  0  0
    7.8654  -12.9273   27.6631 C   0  0  0  0  0  0  0  0  0  0  0  0
    8.6863  -14.6013   26.0758 C   0  0  2  0  0  0  0  0  0  0  0  0
    8.3135  -15.4544   24.9551 N   0  0  0  0  0  0  0  0  0  0  0  0
    9.1651  -15.4705   27.1722 C   0  0  0  0  0  0  0  0  0  0  0  0
    8.6297  -16.5885   27.3562 O   0  0  0  0  0  0  0  0  0  0  0  0
   10.1970  -15.1046   28.0246 O   0  0  0  0  0  0  0  0  0  0  0  0
  1  2  1  0
  2 12  2  0
  3  4  2  0
  3  2  1  0
  4  5  1  0
  5  6  1  0
  5 11  2  0
  6  7  1  0
  7  9  1  0
  7  8  1  6
  9 10  2  0
  9 15  1  0
 12 11  1  0
 14 13  1  1
 14 16  1  0
 15 14  1  0
 16 17  2  0
 18 19  1  0
 19 20  1  0
 20 22  1  0
 20 21  1  1
 22 24  1  0
 23 16  1  0
 22 23  1  6
 24 25  2  0
 24 26  1  0
M  END
$$$$
