YAI.pdb
     RDKit          3D

 26 26  0  0  1  0  0  0  0  0999 V2000
    8.3856  -13.1662   15.2616 O   0  0  0  0  0  0  0  0  0  0  0  0
    8.2130  -13.6181   16.5654 C   0  0  0  0  0  0  0  0  0  0  0  0
    8.8600  -14.7668   17.0006 C   0  0  0  0  0  0  0  0  0  0  0  0
    8.7066  -15.2362   18.2862 C   0  0  0  0  0  0  0  0  0  0  0  0
    7.8963  -14.5483   19.1465 C   0  0  0  0  0  0  0  0  0  0  0  0
    7.6727  -14.9674   20.5238 C   0  0  0  0  0  0  0  0  0  0  0  0
    7.4664  -16.4361   20.7141 C   0  0  2  0  0  0  0  0  0  0  0  0
    6.1785  -16.8965   20.2361 N   0  0  0  0  0  0  0  0  0  0  0  0
    7.4999  -16.6982   22.1777 C   0  0  0  0  0  0  0  0  0  0  0  0
    6.4256  -16.5294   22.8099 O   0  0  0  0  0  0  0  0  0  0  0  0
    7.2402  -13.3913   18.7200 C   0  0  0  0  0  0  0  0  0  0  0  0
    7.3966  -12.9250   17.4323 C   0  0  0  0  0  0  0  0  0  0  0  0
    9.0652  -18.6871   24.7337 C   0  0  0  0  0  0  0  0  0  0  0  0
    8.5815  -17.3175   24.3072 C   0  0  2  0  0  0  0  0  0  0  0  0
    8.6383  -17.1178   22.8975 N   0  0  0  0  0  0  0  0  0  0  0  0
    9.3282  -16.2587   25.0617 C   0  0  0  0  0  0  0  0  0  0  0  0
   10.4782  -15.9262   24.6900 O   0  0  0  0  0  0  0  0  0  0  0  0
    6.6861  -11.9350   26.6763 C   0  0  0  0  0  0  0  0  0  0  0  0
    7.7054  -12.9284   26.1398 C   0  0  0  0  0  0  0  0  0  0  0  0
    8.3936  -13.5359   27.3397 C   0  0  2  0  0  0  0  0  0  0  0  0
    9.1022  -12.4302   28.0687 C   0  0  0  0  0  0  0  0  0  0  0  0
    9.4128  -14.5789   26.9364 C   0  0  2  0  0  0  0  0  0  0  0  0
    8.7418  -15.6345   26.1892 N   0  0  0  0  0  0  0  0  0  0  0  0
    9.9478  -15.1700   28.1820 C   0  0  0  0  0  0  0  0  0  0  0  0
    9.3736  -16.1582   28.6960 O   0  0  0  0  0  0  0  0  0  0  0  0
   11.0751  -14.6771   28.8235 O   0  0  0  0  0  0  0  0  0  0  0  0
  1  2  1  0
  2 12  2  0
  3  4  2  0
  3  2  1  0
  4  5  1  0
  5  6  1  0
  5 11  2  0
  6  7  1  0
  7  9  1  0
  7  8  1  1
  9 10  2  0
  9 15  1  0
 12 11  1  0
 14 13  1  6
 14 16  1  0
 15 14  1  0
 16 17  2  0
 18 19  1  0
 19 20  1  0
 20 22  1  0
 20 21  1  6
 22 24  1  0
 23 16  1  0
 22 23  1  6
 24 25  2  0
 24 26  1  0
M  END
$$$$
