YAI.pdb
     RDKit          3D

 26 26  0  0  1  0  0  0  0  0999 V2000
    8.6176  -13.3029   15.8211 O   0  0  0  0  0  0  0  0  0  0  0  0
    8.3104  -13.7519   17.1009 C   0  0  0  0  0  0  0  0  0  0  0  0
    8.7376  -15.0025   17.5266 C   0  0  0  0  0  0  0  0  0  0  0  0
    8.4473  -15.4713   18.7885 C   0  0  0  0  0  0  0  0  0  0  0  0
    7.7209  -14.6798   19.6345 C   0  0  0  0  0  0  0  0  0  0  0  0
    7.3653  -15.0898   20.9866 C   0  0  0  0  0  0  0  0  0  0  0  0
    7.0195  -16.5364   21.1402 C   0  0  2  0  0  0  0  0  0  0  0  0
    5.7093  -16.8669   20.6171 N   0  0  0  0  0  0  0  0  0  0  0  0
    6.9854  -16.8272   22.5984 C   0  0  0  0  0  0  0  0  0  0  0  0
    6.0317  -16.3344   23.2540 O   0  0  0  0  0  0  0  0  0  0  0  0
    7.2856  -13.4198   19.2174 C   0  0  0  0  0  0  0  0  0  0  0  0
    7.5785  -12.9545   17.9535 C   0  0  0  0  0  0  0  0  0  0  0  0
    8.1859  -19.1020   25.2180 C   0  0  0  0  0  0  0  0  0  0  0  0
    7.9136  -17.7020   24.7106 C   0  0  2  0  0  0  0  0  0  0  0  0
    7.9363  -17.6076   23.2890 N   0  0  0  0  0  0  0  0  0  0  0  0
    8.8582  -16.7353   25.3594 C   0  0  0  0  0  0  0  0  0  0  0  0
   10.0029  -16.5676   24.8771 O   0  0  0  0  0  0  0  0  0  0  0  0
    7.4901  -11.8581   26.6321 C   0  0  0  0  0  0  0  0  0  0  0  0
    8.2358  -13.1184   26.2211 C   0  0  0  0  0  0  0  0  0  0  0  0
    8.6532  -13.8121   27.4967 C   0  0  2  0  0  0  0  0  0  0  0  0
    9.5923  -12.8966   28.2288 C   0  0  0  0  0  0  0  0  0  0  0  0
    9.3681  -15.1167   27.2206 C   0  0  2  0  0  0  0  0  0  0  0  0
    8.4641  -16.0127   26.5115 N   0  0  0  0  0  0  0  0  0  0  0  0
    9.6823  -15.7272   28.5304 C   0  0  0  0  0  0  0  0  0  0  0  0
    8.8071  -16.3949   29.1294 O   0  0  0  0  0  0  0  0  0  0  0  0
   10.9207  -15.5963   29.1423 O   0  0  0  0  0  0  0  0  0  0  0  0
  1  2  1  0
  2 12  2  0
  3  4  2  0
  3  2  1  0
  4  5  1  0
  5  6  1  0
  5 11  2  0
  6  7  1  0
  7  9  1  0
  7  8  1  1
  9 10  2  0
  9 15  1  0
 12 11  1  0
 14 13  1  6
 14 16  1  0
 15 14  1  0
 16 17  2  0
 18 19  1  0
 19 20  1  0
 20 22  1  0
 20 21  1  6
 22 24  1  0
 23 16  1  0
 22 23  1  6
 24 25  2  0
 24 26  1  0
M  END
$$$$
