YAI.pdb
     RDKit          3D

 26 26  0  0  1  0  0  0  0  0999 V2000
    8.2780  -23.6835   29.0706 O   0  0  0  0  0  0  0  0  0  0  0  0
    8.3475  -22.4818   28.3745 C   0  0  0  0  0  0  0  0  0  0  0  0
    7.3755  -22.1569   27.4377 C   0  0  0  0  0  0  0  0  0  0  0  0
    7.4204  -20.9737   26.7345 C   0  0  0  0  0  0  0  0  0  0  0  0
    8.4497  -20.1052   26.9712 C   0  0  0  0  0  0  0  0  0  0  0  0
    8.5813  -18.8311   26.2768 C   0  0  0  0  0  0  0  0  0  0  0  0
    9.0109  -18.9291   24.8480 C   0  0  2  0  0  0  0  0  0  0  0  0
   10.3706  -19.4055   24.6940 N   0  0  0  0  0  0  0  0  0  0  0  0
    8.9711  -17.5543   24.2822 C   0  0  0  0  0  0  0  0  0  0  0  0
    9.8322  -16.7406   24.7051 O   0  0  0  0  0  0  0  0  0  0  0  0
    9.4333  -20.4210   27.9113 C   0  0  0  0  0  0  0  0  0  0  0  0
    9.3845  -21.6065   28.6129 C   0  0  0  0  0  0  0  0  0  0  0  0
    6.9300  -15.4247   21.9206 C   0  0  0  0  0  0  0  0  0  0  0  0
    7.8201  -15.7129   23.1107 C   0  0  2  0  0  0  0  0  0  0  0  0
    8.0464  -17.1045   23.3164 N   0  0  0  0  0  0  0  0  0  0  0  0
    7.2674  -15.0405   24.3315 C   0  0  0  0  0  0  0  0  0  0  0  0
    6.3449  -15.5896   24.9784 O   0  0  0  0  0  0  0  0  0  0  0  0
   10.3962  -13.2177   28.0932 C   0  0  0  0  0  0  0  0  0  0  0  0
    9.1923  -13.7999   27.3685 C   0  0  0  0  0  0  0  0  0  0  0  0
    8.4359  -12.6340   26.7759 C   0  0  2  0  0  0  0  0  0  0  0  0
    7.9056  -11.8078   27.9128 C   0  0  0  0  0  0  0  0  0  0  0  0
    7.2700  -13.0917   25.9270 C   0  0  2  0  0  0  0  0  0  0  0  0
    7.7814  -13.7913   24.7557 N   0  0  0  0  0  0  0  0  0  0  0  0
    6.5657  -11.8771   25.4626 C   0  0  0  0  0  0  0  0  0  0  0  0
    6.9248  -11.3207   24.3986 O   0  0  0  0  0  0  0  0  0  0  0  0
    5.5069  -11.3107   26.1578 O   0  0  0  0  0  0  0  0  0  0  0  0
  1  2  1  0
  2 12  2  0
  3  4  2  0
  3  2  1  0
  4  5  1  0
  5  6  1  0
  5 11  2  0
  6  7  1  0
  7  9  1  0
  7  8  1  1
  9 10  2  0
  9 15  1  0
 12 11  1  0
 14 13  1  6
 14 16  1  0
 15 14  1  0
 16 17  2  0
 18 19  1  0
 19 20  1  0
 20 22  1  0
 20 21  1  1
 22 24  1  0
 23 16  1  0
 22 23  1  6
 24 25  2  0
 24 26  1  0
M  END
$$$$
