YAI.pdb
     RDKit          3D

 26 26  0  0  1  0  0  0  0  0999 V2000
    7.8193  -12.2173   16.2916 O   0  0  0  0  0  0  0  0  0  0  0  0
    7.7471  -12.8495   17.5281 C   0  0  0  0  0  0  0  0  0  0  0  0
    6.5181  -13.2290   18.0508 C   0  0  0  0  0  0  0  0  0  0  0  0
    6.4183  -13.8565   19.2726 C   0  0  0  0  0  0  0  0  0  0  0  0
    7.5614  -14.1073   19.9798 C   0  0  0  0  0  0  0  0  0  0  0  0
    7.5556  -14.7653   21.2797 C   0  0  0  0  0  0  0  0  0  0  0  0
    7.7769  -16.2436   21.2431 C   0  0  2  0  0  0  0  0  0  0  0  0
    6.5968  -16.9862   20.8493 N   0  0  0  0  0  0  0  0  0  0  0  0
    8.1116  -16.6719   22.6275 C   0  0  0  0  0  0  0  0  0  0  0  0
    7.1482  -16.8417   23.4182 O   0  0  0  0  0  0  0  0  0  0  0  0
    8.8036  -13.7302   19.4642 C   0  0  0  0  0  0  0  0  0  0  0  0
    8.8988  -13.1023   18.2408 C   0  0  0  0  0  0  0  0  0  0  0  0
   10.5387  -18.5774   24.5028 C   0  0  0  0  0  0  0  0  0  0  0  0
    9.6383  -17.3622   24.4388 C   0  0  2  0  0  0  0  0  0  0  0  0
    9.4178  -16.8983   23.1097 N   0  0  0  0  0  0  0  0  0  0  0  0
   10.1749  -16.2863   25.3345 C   0  0  0  0  0  0  0  0  0  0  0  0
   11.2080  -15.6595   25.0016 O   0  0  0  0  0  0  0  0  0  0  0  0
    6.8149  -12.8060   27.1891 C   0  0  0  0  0  0  0  0  0  0  0  0
    8.0292  -13.5451   26.6483 C   0  0  0  0  0  0  0  0  0  0  0  0
    8.7885  -14.0683   27.8451 C   0  0  2  0  0  0  0  0  0  0  0  0
    9.2860  -12.8843   28.6241 C   0  0  0  0  0  0  0  0  0  0  0  0
    9.9769  -14.9100   27.4346 C   0  0  2  0  0  0  0  0  0  0  0  0
    9.5215  -15.9758   26.5517 N   0  0  0  0  0  0  0  0  0  0  0  0
   10.5150  -15.5329   28.6632 C   0  0  0  0  0  0  0  0  0  0  0  0
   11.2005  -14.8472   29.4571 O   0  0  0  0  0  0  0  0  0  0  0  0
   10.2956  -16.8638   28.9885 O   0  0  0  0  0  0  0  0  0  0  0  0
  1  2  1  0
  2 12  2  0
  3  4  2  0
  3  2  1  0
  4  5  1  0
  5  6  1  0
  5 11  2  0
  6  7  1  0
  7  9  1  0
  7  8  1  1
  9 10  2  0
  9 15  1  0
 12 11  1  0
 14 13  1  6
 14 16  1  0
 15 14  1  0
 16 17  2  0
 18 19  1  0
 19 20  1  0
 20 22  1  0
 20 21  1  6
 22 24  1  0
 23 16  1  0
 22 23  1  6
 24 25  2  0
 24 26  1  0
M  END
$$$$
