YAI.pdb
     RDKit          3D

 26 26  0  0  1  0  0  0  0  0999 V2000
    7.7807  -13.7172   14.1761 O   0  0  0  0  0  0  0  0  0  0  0  0
    7.6781  -13.9992   15.5339 C   0  0  0  0  0  0  0  0  0  0  0  0
    7.1664  -15.2174   15.9603 C   0  0  0  0  0  0  0  0  0  0  0  0
    7.0539  -15.5222   17.2986 C   0  0  0  0  0  0  0  0  0  0  0  0
    7.4580  -14.5974   18.2212 C   0  0  0  0  0  0  0  0  0  0  0  0
    7.3774  -14.8295   19.6573 C   0  0  0  0  0  0  0  0  0  0  0  0
    8.6939  -14.9061   20.3621 C   0  0  2  0  0  0  0  0  0  0  0  0
    9.6208  -15.8284   19.7379 N   0  0  0  0  0  0  0  0  0  0  0  0
    8.4296  -15.4238   21.7311 C   0  0  0  0  0  0  0  0  0  0  0  0
    7.5789  -14.8028   22.4189 O   0  0  0  0  0  0  0  0  0  0  0  0
    7.9744  -13.3683   17.8043 C   0  0  0  0  0  0  0  0  0  0  0  0
    8.0853  -13.0674   16.4637 C   0  0  0  0  0  0  0  0  0  0  0  0
    9.3438  -18.2801   24.0187 C   0  0  0  0  0  0  0  0  0  0  0  0
    8.8316  -16.8996   23.6671 C   0  0  2  0  0  0  0  0  0  0  0  0
    9.0584  -16.5486   22.3049 N   0  0  0  0  0  0  0  0  0  0  0  0
    9.4031  -15.8901   24.6168 C   0  0  0  0  0  0  0  0  0  0  0  0
   10.5028  -15.3472   24.3577 O   0  0  0  0  0  0  0  0  0  0  0  0
    6.4136  -12.0054   26.3957 C   0  0  0  0  0  0  0  0  0  0  0  0
    7.5454  -12.8941   25.9032 C   0  0  0  0  0  0  0  0  0  0  0  0
    8.0933  -13.6119   27.1145 C   0  0  2  0  0  0  0  0  0  0  0  0
    8.6344  -12.5734   28.0552 C   0  0  0  0  0  0  0  0  0  0  0  0
    9.2128  -14.5616   26.7481 C   0  0  2  0  0  0  0  0  0  0  0  0
    8.7081  -15.5480   25.8020 N   0  0  0  0  0  0  0  0  0  0  0  0
    9.6034  -15.2725   27.9847 C   0  0  0  0  0  0  0  0  0  0  0  0
    8.9770  -16.3004   28.3333 O   0  0  0  0  0  0  0  0  0  0  0  0
   10.6484  -14.8517   28.7947 O   0  0  0  0  0  0  0  0  0  0  0  0
  1  2  1  0
  2 12  2  0
  3  4  2  0
  3  2  1  0
  4  5  1  0
  5  6  1  0
  5 11  2  0
  6  7  1  0
  7  9  1  0
  7  8  1  6
  9 10  2  0
  9 15  1  0
 12 11  1  0
 14 13  1  1
 14 16  1  0
 15 14  1  0
 16 17  2  0
 18 19  1  0
 19 20  1  0
 20 22  1  0
 20 21  1  1
 22 24  1  0
 23 16  1  0
 22 23  1  6
 24 25  2  0
 24 26  1  0
M  END
$$$$
