YAI.pdb
     RDKit          3D

 26 26  0  0  1  0  0  0  0  0999 V2000
    8.6822  -13.6698   15.6094 O   0  0  0  0  0  0  0  0  0  0  0  0
    8.3917  -14.0229   16.9227 C   0  0  0  0  0  0  0  0  0  0  0  0
    8.7611  -15.2687   17.4118 C   0  0  0  0  0  0  0  0  0  0  0  0
    8.4858  -15.6437   18.7080 C   0  0  0  0  0  0  0  0  0  0  0  0
    7.8333  -14.7619   19.5245 C   0  0  0  0  0  0  0  0  0  0  0  0
    7.4991  -15.0690   20.9090 C   0  0  0  0  0  0  0  0  0  0  0  0
    6.9823  -16.4522   21.1447 C   0  0  2  0  0  0  0  0  0  0  0  0
    5.6553  -16.6639   20.6028 N   0  0  0  0  0  0  0  0  0  0  0  0
    6.8795  -16.6376   22.6168 C   0  0  0  0  0  0  0  0  0  0  0  0
    6.1494  -15.8263   23.2421 O   0  0  0  0  0  0  0  0  0  0  0  0
    7.4567  -13.5057   19.0436 C   0  0  0  0  0  0  0  0  0  0  0  0
    7.7343  -13.1346   17.7455 C   0  0  0  0  0  0  0  0  0  0  0  0
    7.7730  -19.0262   25.3663 C   0  0  0  0  0  0  0  0  0  0  0  0
    7.4966  -17.6599   24.7760 C   0  0  2  0  0  0  0  0  0  0  0  0
    7.5356  -17.6473   23.3517 N   0  0  0  0  0  0  0  0  0  0  0  0
    8.4263  -16.6499   25.3789 C   0  0  0  0  0  0  0  0  0  0  0  0
    9.5196  -16.4007   24.8188 O   0  0  0  0  0  0  0  0  0  0  0  0
    6.5917  -12.0386   27.1496 C   0  0  0  0  0  0  0  0  0  0  0  0
    7.4779  -13.1144   26.5406 C   0  0  0  0  0  0  0  0  0  0  0  0
    8.1417  -13.8338   27.6914 C   0  0  2  0  0  0  0  0  0  0  0  0
    9.0583  -12.8581   28.3727 C   0  0  0  0  0  0  0  0  0  0  0  0
    8.9597  -15.0162   27.2201 C   0  0  2  0  0  0  0  0  0  0  0  0
    8.0757  -15.9781   26.5749 N   0  0  0  0  0  0  0  0  0  0  0  0
    9.5323  -15.6574   28.4234 C   0  0  0  0  0  0  0  0  0  0  0  0
    8.8571  -16.5021   29.0568 O   0  0  0  0  0  0  0  0  0  0  0  0
   10.8038  -15.3664   28.8965 O   0  0  0  0  0  0  0  0  0  0  0  0
  1  2  1  0
  2 12  2  0
  3  4  2  0
  3  2  1  0
  4  5  1  0
  5  6  1  0
  5 11  2  0
  6  7  1  0
  7  9  1  0
  7  8  1  6
  9 10  2  0
  9 15  1  0
 12 11  1  0
 14 13  1  1
 14 16  1  0
 15 14  1  0
 16 17  2  0
 18 19  1  0
 19 20  1  0
 20 22  1  0
 20 21  1  6
 22 24  1  0
 23 16  1  0
 22 23  1  1
 24 25  2  0
 24 26  1  0
M  END
$$$$
