YAI.pdb
     RDKit          3D

 26 26  0  0  1  0  0  0  0  0999 V2000
    7.8387  -22.2237   29.2920 O   0  0  0  0  0  0  0  0  0  0  0  0
    7.6984  -21.2711   28.2887 C   0  0  0  0  0  0  0  0  0  0  0  0
    8.6809  -20.3100   28.0920 C   0  0  0  0  0  0  0  0  0  0  0  0
    8.5670  -19.3554   27.1059 C   0  0  0  0  0  0  0  0  0  0  0  0
    7.4571  -19.3623   26.3072 C   0  0  0  0  0  0  0  0  0  0  0  0
    7.2486  -18.3935   25.2393 C   0  0  0  0  0  0  0  0  0  0  0  0
    7.2442  -18.9642   23.8573 C   0  0  2  0  0  0  0  0  0  0  0  0
    8.2048  -20.0344   23.6805 N   0  0  0  0  0  0  0  0  0  0  0  0
    7.6427  -17.8720   22.9299 C   0  0  0  0  0  0  0  0  0  0  0  0
    8.8731  -17.7382   22.7050 O   0  0  0  0  0  0  0  0  0  0  0  0
    6.4620  -20.3243   26.4956 C   0  0  0  0  0  0  0  0  0  0  0  0
    6.5801  -21.2779   27.4838 C   0  0  0  0  0  0  0  0  0  0  0  0
    6.1117  -14.9882   21.0207 C   0  0  0  0  0  0  0  0  0  0  0  0
    7.2176  -15.7964   21.6653 C   0  0  2  0  0  0  0  0  0  0  0  0
    6.7483  -16.9866   22.2926 N   0  0  0  0  0  0  0  0  0  0  0  0
    7.9975  -14.9278   22.6061 C   0  0  0  0  0  0  0  0  0  0  0  0
    9.1800  -14.6181   22.3289 O   0  0  0  0  0  0  0  0  0  0  0  0
    6.3550  -10.7695   26.7616 C   0  0  0  0  0  0  0  0  0  0  0  0
    7.5211  -11.6280   26.2959 C   0  0  0  0  0  0  0  0  0  0  0  0
    6.9447  -12.6878   25.3864 C   0  0  2  0  0  0  0  0  0  0  0  0
    6.1983  -13.6695   26.2440 C   0  0  0  0  0  0  0  0  0  0  0  0
    8.0252  -13.4304   24.6312 C   0  0  2  0  0  0  0  0  0  0  0  0
    7.4058  -14.4569   23.8032 N   0  0  0  0  0  0  0  0  0  0  0  0
    8.8744  -14.1051   25.6364 C   0  0  0  0  0  0  0  0  0  0  0  0
    9.6663  -13.4289   26.3336 O   0  0  0  0  0  0  0  0  0  0  0  0
    8.8390  -15.4754   25.8516 O   0  0  0  0  0  0  0  0  0  0  0  0
  1  2  1  0
  2 12  2  0
  3  4  2  0
  3  2  1  0
  4  5  1  0
  5  6  1  0
  5 11  2  0
  6  7  1  0
  7  9  1  0
  7  8  1  1
  9 10  2  0
  9 15  1  0
 12 11  1  0
 14 13  1  1
 14 16  1  0
 15 14  1  0
 16 17  2  0
 18 19  1  0
 19 20  1  0
 20 22  1  0
 20 21  1  1
 22 24  1  0
 23 16  1  0
 22 23  1  6
 24 25  2  0
 24 26  1  0
M  END
$$$$
