YAI.pdb
     RDKit          3D

 26 26  0  0  1  0  0  0  0  0999 V2000
    9.1851  -12.3807   16.7614 O   0  0  0  0  0  0  0  0  0  0  0  0
    8.5623  -12.9784   17.8516 C   0  0  0  0  0  0  0  0  0  0  0  0
    9.0793  -12.8165   19.1299 C   0  0  0  0  0  0  0  0  0  0  0  0
    8.4824  -13.3973   20.2267 C   0  0  0  0  0  0  0  0  0  0  0  0
    7.3550  -14.1489   20.0425 C   0  0  0  0  0  0  0  0  0  0  0  0
    6.6547  -14.8016   21.1408 C   0  0  0  0  0  0  0  0  0  0  0  0
    6.8004  -16.2889   21.1910 C   0  0  2  0  0  0  0  0  0  0  0  0
    5.5537  -16.9909   20.9625 N   0  0  0  0  0  0  0  0  0  0  0  0
    7.2453  -16.6404   22.5659 C   0  0  0  0  0  0  0  0  0  0  0  0
    6.3964  -16.5189   23.4862 O   0  0  0  0  0  0  0  0  0  0  0  0
    6.8256  -14.3189   18.7611 C   0  0  0  0  0  0  0  0  0  0  0  0
    7.4263  -13.7357   17.6661 C   0  0  0  0  0  0  0  0  0  0  0  0
    9.7939  -18.6150   24.3637 C   0  0  0  0  0  0  0  0  0  0  0  0
    8.8674  -17.4230   24.2524 C   0  0  2  0  0  0  0  0  0  0  0  0
    8.5368  -17.0949   22.9058 N   0  0  0  0  0  0  0  0  0  0  0  0
    9.4495  -16.2577   24.9947 C   0  0  0  0  0  0  0  0  0  0  0  0
   10.4146  -15.6276   24.5021 O   0  0  0  0  0  0  0  0  0  0  0  0
    6.5051  -12.4250   26.9204 C   0  0  0  0  0  0  0  0  0  0  0  0
    7.6483  -13.2389   26.3337 C   0  0  0  0  0  0  0  0  0  0  0  0
    8.3756  -13.8693   27.4983 C   0  0  2  0  0  0  0  0  0  0  0  0
    8.9752  -12.7615   28.3166 C   0  0  0  0  0  0  0  0  0  0  0  0
    9.4879  -14.7861   27.0384 C   0  0  2  0  0  0  0  0  0  0  0  0
    8.9155  -15.8668   26.2464 N   0  0  0  0  0  0  0  0  0  0  0  0
   10.0934  -15.3788   28.2504 C   0  0  0  0  0  0  0  0  0  0  0  0
   10.9452  -14.7282   28.8997 O   0  0  0  0  0  0  0  0  0  0  0  0
    9.7605  -16.6432   28.7148 O   0  0  0  0  0  0  0  0  0  0  0  0
  1  2  1  0
  2 12  2  0
  3  4  2  0
  3  2  1  0
  4  5  1  0
  5  6  1  0
  5 11  2  0
  6  7  1  0
  7  9  1  0
  7  8  1  1
  9 10  2  0
  9 15  1  0
 12 11  1  0
 14 13  1  6
 14 16  1  0
 15 14  1  0
 16 17  2  0
 18 19  1  0
 19 20  1  0
 20 22  1  0
 20 21  1  1
 22 24  1  0
 23 16  1  0
 22 23  1  6
 24 25  2  0
 24 26  1  0
M  END
$$$$
