YAI.pdb
     RDKit          3D

 26 26  0  0  1  0  0  0  0  0999 V2000
    8.6509  -13.4966   15.7257 O   0  0  0  0  0  0  0  0  0  0  0  0
    8.3520  -13.8791   17.0289 C   0  0  0  0  0  0  0  0  0  0  0  0
    8.7996  -15.0973   17.5222 C   0  0  0  0  0  0  0  0  0  0  0  0
    8.5179  -15.5003   18.8086 C   0  0  0  0  0  0  0  0  0  0  0  0
    7.7797  -14.6750   19.6109 C   0  0  0  0  0  0  0  0  0  0  0  0
    7.4318  -15.0154   20.9841 C   0  0  0  0  0  0  0  0  0  0  0  0
    7.0135  -16.4347   21.1991 C   0  0  2  0  0  0  0  0  0  0  0  0
    5.7146  -16.7372   20.6328 N   0  0  0  0  0  0  0  0  0  0  0  0
    6.9003  -16.6415   22.6676 C   0  0  0  0  0  0  0  0  0  0  0  0
    6.1433  -15.8570   23.2951 O   0  0  0  0  0  0  0  0  0  0  0  0
    7.3238  -13.4471   19.1256 C   0  0  0  0  0  0  0  0  0  0  0  0
    7.6082  -13.0476   17.8374 C   0  0  0  0  0  0  0  0  0  0  0  0
    7.7913  -19.0384   25.4027 C   0  0  0  0  0  0  0  0  0  0  0  0
    7.5368  -17.6642   24.8209 C   0  0  2  0  0  0  0  0  0  0  0  0
    7.5743  -17.6436   23.3967 N   0  0  0  0  0  0  0  0  0  0  0  0
    8.4837  -16.6733   25.4287 C   0  0  0  0  0  0  0  0  0  0  0  0
    9.6092  -16.4906   24.9082 O   0  0  0  0  0  0  0  0  0  0  0  0
    6.8137  -11.9079   26.9056 C   0  0  0  0  0  0  0  0  0  0  0  0
    7.6621  -13.0617   26.3932 C   0  0  0  0  0  0  0  0  0  0  0  0
    8.2302  -13.7568   27.6084 C   0  0  2  0  0  0  0  0  0  0  0  0
    9.1591  -12.7950   28.2927 C   0  0  0  0  0  0  0  0  0  0  0  0
    9.0104  -14.9980   27.2341 C   0  0  2  0  0  0  0  0  0  0  0  0
    8.1133  -15.9450   26.5851 N   0  0  0  0  0  0  0  0  0  0  0  0
    9.4870  -15.6095   28.4935 C   0  0  0  0  0  0  0  0  0  0  0  0
   10.4668  -15.1093   29.0938 O   0  0  0  0  0  0  0  0  0  0  0  0
    8.8934  -16.7305   29.0557 O   0  0  0  0  0  0  0  0  0  0  0  0
  1  2  1  0
  2 12  2  0
  3  4  2  0
  3  2  1  0
  4  5  1  0
  5  6  1  0
  5 11  2  0
  6  7  1  0
  7  9  1  0
  7  8  1  6
  9 10  2  0
  9 15  1  0
 12 11  1  0
 14 13  1  1
 14 16  1  0
 15 14  1  0
 16 17  2  0
 18 19  1  0
 19 20  1  0
 20 22  1  0
 20 21  1  6
 22 24  1  0
 23 16  1  0
 22 23  1  1
 24 25  2  0
 24 26  1  0
M  END
$$$$
