YAI.pdb
     RDKit          3D

 26 26  0  0  1  0  0  0  0  0999 V2000
   11.6429  -15.3548   31.4413 O   0  0  0  0  0  0  0  0  0  0  0  0
   10.8650  -15.6978   30.3408 C   0  0  0  0  0  0  0  0  0  0  0  0
   10.6334  -14.7739   29.3307 C   0  0  0  0  0  0  0  0  0  0  0  0
    9.8670  -15.0875   28.2303 C   0  0  0  0  0  0  0  0  0  0  0  0
    9.3260  -16.3400   28.1393 C   0  0  0  0  0  0  0  0  0  0  0  0
    8.5025  -16.7631   27.0144 C   0  0  0  0  0  0  0  0  0  0  0  0
    8.6749  -18.1905   26.6037 C   0  0  2  0  0  0  0  0  0  0  0  0
   10.0589  -18.6190   26.6025 N   0  0  0  0  0  0  0  0  0  0  0  0
    8.1883  -18.3062   25.2031 C   0  0  0  0  0  0  0  0  0  0  0  0
    9.0381  -18.1393   24.2908 O   0  0  0  0  0  0  0  0  0  0  0  0
    9.5522  -17.2780   29.1494 C   0  0  0  0  0  0  0  0  0  0  0  0
   10.3199  -16.9599   30.2491 C   0  0  0  0  0  0  0  0  0  0  0  0
    5.0231  -18.9831   23.2507 C   0  0  0  0  0  0  0  0  0  0  0  0
    6.4462  -18.5148   23.4683 C   0  0  2  0  0  0  0  0  0  0  0  0
    6.8568  -18.5866   24.8308 N   0  0  0  0  0  0  0  0  0  0  0  0
    6.6209  -17.1411   22.8937 C   0  0  0  0  0  0  0  0  0  0  0  0
    6.2975  -16.9207   21.7030 O   0  0  0  0  0  0  0  0  0  0  0  0
    6.1391  -12.8745   26.2566 C   0  0  0  0  0  0  0  0  0  0  0  0
    5.9814  -13.7487   25.0219 C   0  0  0  0  0  0  0  0  0  0  0  0
    7.3239  -13.7690   24.3292 C   0  0  2  0  0  0  0  0  0  0  0  0
    7.5839  -12.3892   23.7956 C   0  0  0  0  0  0  0  0  0  0  0  0
    7.3470  -14.7457   23.1738 C   0  0  2  0  0  0  0  0  0  0  0  0
    7.1483  -16.0943   23.6881 N   0  0  0  0  0  0  0  0  0  0  0  0
    8.6972  -14.6796   22.5741 C   0  0  0  0  0  0  0  0  0  0  0  0
    9.6058  -15.4256   23.0084 O   0  0  0  0  0  0  0  0  0  0  0  0
    9.0162  -13.8173   21.5350 O   0  0  0  0  0  0  0  0  0  0  0  0
  1  2  1  0
  2 12  2  0
  3  4  2  0
  3  2  1  0
  4  5  1  0
  5  6  1  0
  5 11  2  0
  6  7  1  0
  7  9  1  0
  7  8  1  6
  9 10  2  0
  9 15  1  0
 12 11  1  0
 14 13  1  1
 14 16  1  0
 15 14  1  0
 16 17  2  0
 18 19  1  0
 19 20  1  0
 20 22  1  0
 20 21  1  6
 22 24  1  0
 23 16  1  0
 22 23  1  1
 24 25  2  0
 24 26  1  0
M  END
$$$$
