WEF.pdb
     RDKit          3D

 35 37  0  0  1  0  0  0  0  0999 V2000
   21.5202  -29.9559  -18.6962 N   0  0  0  0  0  0  0  0  0  0  0  0
   21.7124  -29.4821  -17.3514 C   0  0  1  0  0  0  0  0  0  0  0  0
   20.5782  -28.6230  -16.9016 C   0  0  0  0  0  0  0  0  0  0  0  0
   20.6297  -27.2840  -17.5278 C   0  0  0  0  0  0  0  0  0  0  0  0
   20.3664  -27.0181  -18.8796 C   0  0  0  0  0  0  0  0  0  0  0  0
   20.4657  -25.7186  -19.1192 N   0  0  0  0  0  0  0  0  0  0  0  0
   20.7870  -25.1168  -17.9685 C   0  0  0  0  0  0  0  0  0  0  0  0
   21.0178  -23.7863  -17.6519 C   0  0  0  0  0  0  0  0  0  0  0  0
   21.3482  -23.3716  -16.3943 C   0  0  0  0  0  0  0  0  0  0  0  0
   21.4508  -24.3283  -15.4181 C   0  0  0  0  0  0  0  0  0  0  0  0
   21.2261  -25.6740  -15.6973 C   0  0  0  0  0  0  0  0  0  0  0  0
   20.8961  -26.0627  -16.9627 C   0  0  0  0  0  0  0  0  0  0  0  0
   21.9042  -30.6725  -16.4693 C   0  0  0  0  0  0  0  0  0  0  0  0
   21.1290  -31.6543  -16.5781 O   0  0  0  0  0  0  0  0  0  0  0  0
   22.9174  -30.7644  -15.5062 N   0  0  0  0  0  0  0  0  0  0  0  0
   23.0403  -31.8635  -14.5333 C   0  0  1  0  0  0  0  0  0  0  0  0
   24.4994  -32.2513  -14.5858 C   0  0  0  0  0  0  0  0  0  0  0  0
   24.8406  -33.2511  -15.6411 C   0  0  0  0  0  0  0  0  0  0  0  0
   25.2814  -32.4621  -16.8470 C   0  0  0  0  0  0  0  0  0  0  0  0
   25.3355  -31.2075  -16.8497 O   0  0  0  0  0  0  0  0  0  0  0  0
   22.6380  -31.3942  -13.1839 C   0  0  0  0  0  0  0  0  0  0  0  0
   23.0592  -30.3068  -12.7325 O   0  0  0  0  0  0  0  0  0  0  0  0
   25.6456  -33.1424  -18.0103 O   0  0  0  0  0  0  0  0  0  0  0  0
   21.7744  -32.1634  -12.3839 N   0  0  0  0  0  0  0  0  0  0  0  0
   21.1516  -31.6916  -11.1541 C   0  0  1  0  0  0  0  0  0  0  0  0
   19.8765  -30.9626  -11.4320 C   0  0  0  0  0  0  0  0  0  0  0  0
   20.0340  -29.6122  -12.0002 C   0  0  0  0  0  0  0  0  0  0  0  0
   19.8780  -28.5118  -11.1839 C   0  0  0  0  0  0  0  0  0  0  0  0
   20.0202  -27.2226  -11.6280 C   0  0  0  0  0  0  0  0  0  0  0  0
   20.3334  -26.9792  -12.9471 C   0  0  0  0  0  0  0  0  0  0  0  0
   20.4949  -28.0552  -13.7845 C   0  0  0  0  0  0  0  0  0  0  0  0
   20.3468  -29.3679  -13.3164 C   0  0  0  0  0  0  0  0  0  0  0  0
   20.9397  -32.7827  -10.1956 C   0  0  0  0  0  0  0  0  0  0  0  0
   21.0423  -33.9771  -10.5762 O   0  0  0  0  0  0  0  0  0  0  0  0
   20.6289  -32.5498   -8.8708 O   0  0  0  0  0  0  0  0  0  0  0  0
  2  1  1  6
  2 13  1  0
  3  4  1  0
  3  2  1  0
  4  5  2  0
  5  6  1  0
  7  6  1  0
  8  7  2  0
  9  8  1  0
 10 11  1  0
 10  9  2  0
 11 12  2  0
 12  4  1  0
 12  7  1  0
 13 14  2  0
 15 16  1  0
 15 13  1  0
 16 17  1  1
 18 17  1  0
 19 18  1  0
 20 19  2  0
 21 22  2  0
 21 16  1  0
 23 19  1  0
 24 21  1  0
 25 24  1  0
 25 26  1  6
 27 26  1  0
 28 27  2  0
 29 28  1  0
 30 31  1  0
 30 29  2  0
 31 32  2  0
 32 27  1  0
 33 25  1  0
 33 35  1  0
 34 33  2  0
M  END
$$$$
