WEF.pdb
     RDKit          3D

 35 37  0  0  1  0  0  0  0  0999 V2000
   19.4865  -16.7678  -22.2046 N   0  0  0  0  0  0  0  0  0  0  0  0
   19.0538  -16.3642  -20.8932 C   0  0  1  0  0  0  0  0  0  0  0  0
   17.8503  -15.4843  -20.9558 C   0  0  0  0  0  0  0  0  0  0  0  0
   18.2253  -14.0602  -21.0938 C   0  0  0  0  0  0  0  0  0  0  0  0
   19.1932  -13.5662  -21.9807 C   0  0  0  0  0  0  0  0  0  0  0  0
   19.2722  -12.2469  -21.8848 N   0  0  0  0  0  0  0  0  0  0  0  0
   18.3876  -11.8530  -20.9620 C   0  0  0  0  0  0  0  0  0  0  0  0
   18.0617  -10.5990  -20.4669 C   0  0  0  0  0  0  0  0  0  0  0  0
   17.1167  -10.4076  -19.5009 C   0  0  0  0  0  0  0  0  0  0  0  0
   16.4751  -11.5165  -19.0136 C   0  0  0  0  0  0  0  0  0  0  0  0
   16.7747  -12.7918  -19.4859 C   0  0  0  0  0  0  0  0  0  0  0  0
   17.7229  -12.9563  -20.4528 C   0  0  0  0  0  0  0  0  0  0  0  0
   18.8090  -17.6005  -20.0909 C   0  0  0  0  0  0  0  0  0  0  0  0
   18.1567  -18.5468  -20.5962 O   0  0  0  0  0  0  0  0  0  0  0  0
   19.2720  -17.7743  -18.7801 N   0  0  0  0  0  0  0  0  0  0  0  0
   19.0076  -18.9677  -17.9581 C   0  0  1  0  0  0  0  0  0  0  0  0
   20.2774  -19.1669  -17.1643 C   0  0  0  0  0  0  0  0  0  0  0  0
   21.5361  -18.9837  -17.9466 C   0  0  0  0  0  0  0  0  0  0  0  0
   22.6720  -19.2110  -16.9828 C   0  0  0  0  0  0  0  0  0  0  0  0
   22.9507  -20.3461  -16.5237 O   0  0  0  0  0  0  0  0  0  0  0  0
   17.8348  -18.7295  -17.0801 C   0  0  0  0  0  0  0  0  0  0  0  0
   17.6932  -17.6402  -16.4827 O   0  0  0  0  0  0  0  0  0  0  0  0
   23.4502  -18.1248  -16.5786 O   0  0  0  0  0  0  0  0  0  0  0  0
   16.8576  -19.7249  -16.9012 N   0  0  0  0  0  0  0  0  0  0  0  0
   15.6533  -19.5623  -16.0976 C   0  0  1  0  0  0  0  0  0  0  0  0
   14.4240  -19.8887  -16.8829 C   0  0  0  0  0  0  0  0  0  0  0  0
   14.1418  -18.9880  -18.0144 C   0  0  0  0  0  0  0  0  0  0  0  0
   13.2708  -17.9333  -17.8393 C   0  0  0  0  0  0  0  0  0  0  0  0
   12.9636  -17.0415  -18.8341 C   0  0  0  0  0  0  0  0  0  0  0  0
   13.5345  -17.1764  -20.0805 C   0  0  0  0  0  0  0  0  0  0  0  0
   14.4060  -18.2174  -20.2853 C   0  0  0  0  0  0  0  0  0  0  0  0
   14.7109  -19.1215  -19.2586 C   0  0  0  0  0  0  0  0  0  0  0  0
   15.7136  -20.3462  -14.8582 C   0  0  0  0  0  0  0  0  0  0  0  0
   16.6936  -21.1058  -14.6467 O   0  0  0  0  0  0  0  0  0  0  0  0
   14.7243  -20.2830  -13.8974 O   0  0  0  0  0  0  0  0  0  0  0  0
  2  1  1  6
  2 13  1  0
  3  4  1  0
  3  2  1  0
  4  5  2  0
  5  6  1  0
  7  6  1  0
  8  7  2  0
  9  8  1  0
 10 11  1  0
 10  9  2  0
 11 12  2  0
 12  4  1  0
 12  7  1  0
 13 14  2  0
 15 16  1  0
 15 13  1  0
 16 17  1  1
 18 17  1  0
 19 18  1  0
 20 19  2  0
 21 22  2  0
 21 16  1  0
 23 19  1  0
 24 21  1  0
 25 24  1  0
 25 26  1  6
 27 26  1  0
 28 27  2  0
 29 28  1  0
 30 31  1  0
 30 29  2  0
 31 32  2  0
 32 27  1  0
 33 25  1  0
 33 35  1  0
 34 33  2  0
M  END
$$$$
