WEF.pdb
     RDKit          3D

 35 37  0  0  1  0  0  0  0  0999 V2000
   27.8847  -20.3949  -11.2192 N   0  0  0  0  0  0  0  0  0  0  0  0
   26.8074  -21.2899  -10.8899 C   0  0  1  0  0  0  0  0  0  0  0  0
   26.6229  -21.4118   -9.4142 C   0  0  0  0  0  0  0  0  0  0  0  0
   27.9009  -21.2358   -8.6906 C   0  0  0  0  0  0  0  0  0  0  0  0
   29.1613  -21.6032   -9.1844 C   0  0  0  0  0  0  0  0  0  0  0  0
   30.1061  -21.2866   -8.3109 N   0  0  0  0  0  0  0  0  0  0  0  0
   29.5102  -20.7219   -7.2548 C   0  0  0  0  0  0  0  0  0  0  0  0
   30.0159  -20.2167   -6.0662 C   0  0  0  0  0  0  0  0  0  0  0  0
   29.2231  -19.6794   -5.0938 C   0  0  0  0  0  0  0  0  0  0  0  0
   27.8721  -19.6485   -5.3230 C   0  0  0  0  0  0  0  0  0  0  0  0
   27.3270  -20.1458   -6.5041 C   0  0  0  0  0  0  0  0  0  0  0  0
   28.1414  -20.6769   -7.4611 C   0  0  0  0  0  0  0  0  0  0  0  0
   25.5753  -20.7954  -11.5747 C   0  0  0  0  0  0  0  0  0  0  0  0
   25.0453  -19.7222  -11.1954 O   0  0  0  0  0  0  0  0  0  0  0  0
   24.9596  -21.4691  -12.6376 N   0  0  0  0  0  0  0  0  0  0  0  0
   23.7798  -20.9698  -13.3645 C   0  0  1  0  0  0  0  0  0  0  0  0
   24.1177  -21.1820  -14.8215 C   0  0  0  0  0  0  0  0  0  0  0  0
   25.1791  -20.2761  -15.3531 C   0  0  0  0  0  0  0  0  0  0  0  0
   24.4873  -18.9963  -15.7461 C   0  0  0  0  0  0  0  0  0  0  0  0
   23.5299  -18.9685  -16.5582 O   0  0  0  0  0  0  0  0  0  0  0  0
   22.5728  -21.7316  -12.9571 C   0  0  0  0  0  0  0  0  0  0  0  0
   22.6775  -22.8246  -12.3588 O   0  0  0  0  0  0  0  0  0  0  0  0
   24.9198  -17.7902  -15.1920 O   0  0  0  0  0  0  0  0  0  0  0  0
   21.2852  -21.2398  -13.2360 N   0  0  0  0  0  0  0  0  0  0  0  0
   20.0477  -21.9015  -12.8440 C   0  0  1  0  0  0  0  0  0  0  0  0
   19.8847  -21.9198  -11.3583 C   0  0  0  0  0  0  0  0  0  0  0  0
   18.6365  -22.5312  -10.8691 C   0  0  0  0  0  0  0  0  0  0  0  0
   17.5743  -21.7210  -10.5273 C   0  0  0  0  0  0  0  0  0  0  0  0
   16.3744  -22.2078  -10.0770 C   0  0  0  0  0  0  0  0  0  0  0  0
   16.1872  -23.5663   -9.9478 C   0  0  0  0  0  0  0  0  0  0  0  0
   17.2271  -24.3988  -10.2805 C   0  0  0  0  0  0  0  0  0  0  0  0
   18.4482  -23.8869  -10.7398 C   0  0  0  0  0  0  0  0  0  0  0  0
   18.8776  -21.3034  -13.4977 C   0  0  0  0  0  0  0  0  0  0  0  0
   17.7772  -21.9126  -13.4876 O   0  0  0  0  0  0  0  0  0  0  0  0
   18.9339  -20.0788  -14.1325 O   0  0  0  0  0  0  0  0  0  0  0  0
  2  1  1  1
  2 13  1  0
  3  4  1  0
  3  2  1  0
  4  5  2  0
  5  6  1  0
  7  6  1  0
  8  7  2  0
  9  8  1  0
 10 11  1  0
 10  9  2  0
 11 12  2  0
 12  4  1  0
 12  7  1  0
 13 14  2  0
 15 16  1  0
 15 13  1  0
 16 17  1  6
 18 17  1  0
 19 18  1  0
 20 19  2  0
 21 22  2  0
 21 16  1  0
 23 19  1  0
 24 21  1  0
 25 24  1  0
 25 26  1  1
 27 26  1  0
 28 27  2  0
 29 28  1  0
 30 31  1  0
 30 29  2  0
 31 32  2  0
 32 27  1  0
 33 25  1  0
 33 35  1  0
 34 33  2  0
M  END
$$$$
