WEF.pdb
     RDKit          3D

 35 37  0  0  1  0  0  0  0  0999 V2000
   26.3362  -19.0674  -17.7034 N   0  0  0  0  0  0  0  0  0  0  0  0
   25.8620  -19.9691  -16.6875 C   0  0  1  0  0  0  0  0  0  0  0  0
   26.9229  -20.2775  -15.6846 C   0  0  0  0  0  0  0  0  0  0  0  0
   27.8230  -21.3512  -16.1589 C   0  0  0  0  0  0  0  0  0  0  0  0
   29.1326  -21.1561  -16.6220 C   0  0  0  0  0  0  0  0  0  0  0  0
   29.6831  -22.3178  -16.9434 N   0  0  0  0  0  0  0  0  0  0  0  0
   28.7787  -23.2749  -16.7081 C   0  0  0  0  0  0  0  0  0  0  0  0
   28.8226  -24.6515  -16.8718 C   0  0  0  0  0  0  0  0  0  0  0  0
   27.7686  -25.4660  -16.5748 C   0  0  0  0  0  0  0  0  0  0  0  0
   26.6277  -24.8765  -16.0957 C   0  0  0  0  0  0  0  0  0  0  0  0
   26.5455  -23.4978  -15.9174 C   0  0  0  0  0  0  0  0  0  0  0  0
   27.6138  -22.7055  -16.2210 C   0  0  0  0  0  0  0  0  0  0  0  0
   24.6520  -19.3571  -16.0603 C   0  0  0  0  0  0  0  0  0  0  0  0
   24.6882  -18.1591  -15.6861 O   0  0  0  0  0  0  0  0  0  0  0  0
   23.4522  -20.0516  -15.8585 N   0  0  0  0  0  0  0  0  0  0  0  0
   22.2859  -19.5033  -15.1452 C   0  0  1  0  0  0  0  0  0  0  0  0
   21.2512  -19.2883  -16.2247 C   0  0  0  0  0  0  0  0  0  0  0  0
   19.9304  -18.7957  -15.7321 C   0  0  0  0  0  0  0  0  0  0  0  0
   20.0679  -17.3040  -15.5678 C   0  0  0  0  0  0  0  0  0  0  0  0
   20.9887  -16.6470  -16.1130 O   0  0  0  0  0  0  0  0  0  0  0  0
   21.8225  -20.4661  -14.1149 C   0  0  0  0  0  0  0  0  0  0  0  0
   21.6298  -21.6677  -14.4024 O   0  0  0  0  0  0  0  0  0  0  0  0
   19.1413  -16.6171  -14.7815 O   0  0  0  0  0  0  0  0  0  0  0  0
   21.5899  -20.0467  -12.7929 N   0  0  0  0  0  0  0  0  0  0  0  0
   21.1897  -20.9310  -11.7064 C   0  0  1  0  0  0  0  0  0  0  0  0
   21.7847  -20.5009  -10.4043 C   0  0  0  0  0  0  0  0  0  0  0  0
   23.2503  -20.6208  -10.3114 C   0  0  0  0  0  0  0  0  0  0  0  0
   23.9712  -19.6346   -9.6715 C   0  0  0  0  0  0  0  0  0  0  0  0
   25.3340  -19.6747   -9.5291 C   0  0  0  0  0  0  0  0  0  0  0  0
   26.0488  -20.7365  -10.0381 C   0  0  0  0  0  0  0  0  0  0  0  0
   25.3585  -21.7341  -10.6810 C   0  0  0  0  0  0  0  0  0  0  0  0
   23.9648  -21.6800  -10.8189 C   0  0  0  0  0  0  0  0  0  0  0  0
   19.7301  -21.0497  -11.6080 C   0  0  0  0  0  0  0  0  0  0  0  0
   19.2236  -21.9237  -10.8586 O   0  0  0  0  0  0  0  0  0  0  0  0
   18.8747  -20.2275  -12.3138 O   0  0  0  0  0  0  0  0  0  0  0  0
  2  1  1  6
  2 13  1  0
  3  4  1  0
  3  2  1  0
  4  5  2  0
  5  6  1  0
  7  6  1  0
  8  7  2  0
  9  8  1  0
 10 11  1  0
 10  9  2  0
 11 12  2  0
 12  4  1  0
 12  7  1  0
 13 14  2  0
 15 16  1  0
 15 13  1  0
 16 17  1  6
 18 17  1  0
 19 18  1  0
 20 19  2  0
 21 22  2  0
 21 16  1  0
 23 19  1  0
 24 21  1  0
 25 24  1  0
 25 26  1  1
 27 26  1  0
 28 27  2  0
 29 28  1  0
 30 31  1  0
 30 29  2  0
 31 32  2  0
 32 27  1  0
 33 25  1  0
 33 35  1  0
 34 33  2  0
M  END
$$$$
