WEF.pdb
     RDKit          3D

 35 37  0  0  1  0  0  0  0  0999 V2000
   17.9176  -22.3753  -18.9918 N   0  0  0  0  0  0  0  0  0  0  0  0
   18.2430  -22.1355  -17.6110 C   0  0  1  0  0  0  0  0  0  0  0  0
   18.9850  -20.8531  -17.4336 C   0  0  0  0  0  0  0  0  0  0  0  0
   20.1088  -20.7393  -18.3885 C   0  0  0  0  0  0  0  0  0  0  0  0
   21.3734  -21.3208  -18.2145 C   0  0  0  0  0  0  0  0  0  0  0  0
   22.1457  -21.0600  -19.2592 N   0  0  0  0  0  0  0  0  0  0  0  0
   21.4320  -20.3239  -20.1184 C   0  0  0  0  0  0  0  0  0  0  0  0
   21.7467  -19.7767  -21.3533 C   0  0  0  0  0  0  0  0  0  0  0  0
   20.8616  -19.0356  -22.0815 C   0  0  0  0  0  0  0  0  0  0  0  0
   19.6140  -18.8363  -21.5499 C   0  0  0  0  0  0  0  0  0  0  0  0
   19.2608  -19.3700  -20.3130 C   0  0  0  0  0  0  0  0  0  0  0  0
   20.1637  -20.1082  -19.6052 C   0  0  0  0  0  0  0  0  0  0  0  0
   16.9707  -22.1653  -16.8286 C   0  0  0  0  0  0  0  0  0  0  0  0
   16.0280  -21.4013  -17.1515 O   0  0  0  0  0  0  0  0  0  0  0  0
   16.7582  -23.0111  -15.7322 N   0  0  0  0  0  0  0  0  0  0  0  0
   15.4930  -23.0964  -14.9828 C   0  0  1  0  0  0  0  0  0  0  0  0
   15.7165  -24.2153  -13.9928 C   0  0  0  0  0  0  0  0  0  0  0  0
   14.5663  -24.4753  -13.0767 C   0  0  0  0  0  0  0  0  0  0  0  0
   14.0192  -25.8276  -13.4551 C   0  0  0  0  0  0  0  0  0  0  0  0
   14.7383  -26.8556  -13.5086 O   0  0  0  0  0  0  0  0  0  0  0  0
   15.2150  -21.8041  -14.3077 C   0  0  0  0  0  0  0  0  0  0  0  0
   16.0785  -21.2609  -13.5847 O   0  0  0  0  0  0  0  0  0  0  0  0
   12.6626  -25.9528  -13.7595 O   0  0  0  0  0  0  0  0  0  0  0  0
   13.9733  -21.1633  -14.4668 N   0  0  0  0  0  0  0  0  0  0  0  0
   13.6167  -19.8929  -13.8490 C   0  0  1  0  0  0  0  0  0  0  0  0
   13.4543  -18.8145  -14.8713 C   0  0  0  0  0  0  0  0  0  0  0  0
   12.1220  -18.7339  -15.4955 C   0  0  0  0  0  0  0  0  0  0  0  0
   11.8463  -19.5053  -16.6049 C   0  0  0  0  0  0  0  0  0  0  0  0
   10.6303  -19.5007  -17.2379 C   0  0  0  0  0  0  0  0  0  0  0  0
    9.6131  -18.6985  -16.7696 C   0  0  0  0  0  0  0  0  0  0  0  0
    9.8578  -17.9187  -15.6664 C   0  0  0  0  0  0  0  0  0  0  0  0
   11.1059  -17.9338  -15.0292 C   0  0  0  0  0  0  0  0  0  0  0  0
   12.4187  -20.0111  -13.0093 C   0  0  0  0  0  0  0  0  0  0  0  0
   11.8091  -21.1092  -12.9418 O   0  0  0  0  0  0  0  0  0  0  0  0
   11.9249  -18.9505  -12.2764 O   0  0  0  0  0  0  0  0  0  0  0  0
  2  1  1  6
  2 13  1  0
  3  4  1  0
  3  2  1  0
  4  5  2  0
  5  6  1  0
  7  6  1  0
  8  7  2  0
  9  8  1  0
 10 11  1  0
 10  9  2  0
 11 12  2  0
 12  4  1  0
 12  7  1  0
 13 14  2  0
 15 16  1  0
 15 13  1  0
 16 17  1  1
 18 17  1  0
 19 18  1  0
 20 19  2  0
 21 22  2  0
 21 16  1  0
 23 19  1  0
 24 21  1  0
 25 24  1  0
 25 26  1  6
 27 26  1  0
 28 27  2  0
 29 28  1  0
 30 31  1  0
 30 29  2  0
 31 32  2  0
 32 27  1  0
 33 25  1  0
 33 35  1  0
 34 33  2  0
M  END
$$$$
