WEF.pdb
     RDKit          3D

 35 37  0  0  1  0  0  0  0  0999 V2000
   27.7317  -20.9114  -12.2993 N   0  0  0  0  0  0  0  0  0  0  0  0
   26.5261  -21.4024  -11.6865 C   0  0  1  0  0  0  0  0  0  0  0  0
   26.3822  -20.9148  -10.2836 C   0  0  0  0  0  0  0  0  0  0  0  0
   27.6103  -21.1572   -9.4957 C   0  0  0  0  0  0  0  0  0  0  0  0
   28.7294  -21.8702   -9.9504 C   0  0  0  0  0  0  0  0  0  0  0  0
   29.6736  -21.8833   -9.0207 N   0  0  0  0  0  0  0  0  0  0  0  0
   29.2139  -21.2020   -7.9653 C   0  0  0  0  0  0  0  0  0  0  0  0
   29.7781  -20.9138   -6.7315 C   0  0  0  0  0  0  0  0  0  0  0  0
   29.1275  -20.1964   -5.7698 C   0  0  0  0  0  0  0  0  0  0  0  0
   27.8633  -19.7519   -6.0574 C   0  0  0  0  0  0  0  0  0  0  0  0
   27.2635  -20.0209   -7.2851 C   0  0  0  0  0  0  0  0  0  0  0  0
   27.9355  -20.7394   -8.2301 C   0  0  0  0  0  0  0  0  0  0  0  0
   25.3755  -20.9945  -12.5475 C   0  0  0  0  0  0  0  0  0  0  0  0
   25.1962  -19.7788  -12.8051 O   0  0  0  0  0  0  0  0  0  0  0  0
   24.4629  -21.9037  -13.0981 N   0  0  0  0  0  0  0  0  0  0  0  0
   23.1852  -21.5213  -13.7233 C   0  0  1  0  0  0  0  0  0  0  0  0
   23.0141  -22.5012  -14.8602 C   0  0  0  0  0  0  0  0  0  0  0  0
   21.7090  -22.3998  -15.5788 C   0  0  0  0  0  0  0  0  0  0  0  0
   21.8105  -21.1928  -16.4754 C   0  0  0  0  0  0  0  0  0  0  0  0
   22.8475  -20.9240  -17.1305 O   0  0  0  0  0  0  0  0  0  0  0  0
   22.0849  -21.6223  -12.7321 C   0  0  0  0  0  0  0  0  0  0  0  0
   21.8305  -22.7082  -12.1667 O   0  0  0  0  0  0  0  0  0  0  0  0
   20.7154  -20.3345  -16.5888 O   0  0  0  0  0  0  0  0  0  0  0  0
   21.3046  -20.4981  -12.4082 N   0  0  0  0  0  0  0  0  0  0  0  0
   20.2146  -20.5026  -11.4415 C   0  0  1  0  0  0  0  0  0  0  0  0
   19.8565  -19.1153  -11.0151 C   0  0  0  0  0  0  0  0  0  0  0  0
   19.4308  -18.2132  -12.0996 C   0  0  0  0  0  0  0  0  0  0  0  0
   20.3491  -17.3539  -12.6652 C   0  0  0  0  0  0  0  0  0  0  0  0
   20.0402  -16.4925  -13.6860 C   0  0  0  0  0  0  0  0  0  0  0  0
   18.7605  -16.4579  -14.1945 C   0  0  0  0  0  0  0  0  0  0  0  0
   17.8238  -17.3021  -13.6514 C   0  0  0  0  0  0  0  0  0  0  0  0
   18.1540  -18.1778  -12.6081 C   0  0  0  0  0  0  0  0  0  0  0  0
   19.0389  -21.2210  -11.9472 C   0  0  0  0  0  0  0  0  0  0  0  0
   18.1104  -21.5329  -11.1582 O   0  0  0  0  0  0  0  0  0  0  0  0
   18.9057  -21.5736  -13.2753 O   0  0  0  0  0  0  0  0  0  0  0  0
  2  1  1  6
  2 13  1  0
  3  4  1  0
  3  2  1  0
  4  5  2  0
  5  6  1  0
  7  6  1  0
  8  7  2  0
  9  8  1  0
 10 11  1  0
 10  9  2  0
 11 12  2  0
 12  4  1  0
 12  7  1  0
 13 14  2  0
 15 16  1  0
 15 13  1  0
 16 17  1  6
 18 17  1  0
 19 18  1  0
 20 19  2  0
 21 22  2  0
 21 16  1  0
 23 19  1  0
 24 21  1  0
 25 24  1  0
 25 26  1  6
 27 26  1  0
 28 27  2  0
 29 28  1  0
 30 31  1  0
 30 29  2  0
 31 32  2  0
 32 27  1  0
 33 25  1  0
 33 35  1  0
 34 33  2  0
M  END
$$$$
