WEF.pdb
     RDKit          3D

 35 37  0  0  1  0  0  0  0  0999 V2000
   22.1007  -18.9478  -17.1868 N   0  0  0  0  0  0  0  0  0  0  0  0
   22.9525  -18.5003  -16.1171 C   0  0  1  0  0  0  0  0  0  0  0  0
   22.3727  -17.3238  -15.4055 C   0  0  0  0  0  0  0  0  0  0  0  0
   22.2256  -16.1614  -16.3083 C   0  0  0  0  0  0  0  0  0  0  0  0
   23.2891  -15.4603  -16.8958 C   0  0  0  0  0  0  0  0  0  0  0  0
   22.8261  -14.4931  -17.6743 N   0  0  0  0  0  0  0  0  0  0  0  0
   21.4901  -14.5320  -17.6197 C   0  0  0  0  0  0  0  0  0  0  0  0
   20.5151  -13.7546  -18.2268 C   0  0  0  0  0  0  0  0  0  0  0  0
   19.1796  -13.9561  -18.0305 C   0  0  0  0  0  0  0  0  0  0  0  0
   18.8091  -14.9761  -17.1932 C   0  0  0  0  0  0  0  0  0  0  0  0
   19.7588  -15.7784  -16.5657 C   0  0  0  0  0  0  0  0  0  0  0  0
   21.0879  -15.5569  -16.7794 C   0  0  0  0  0  0  0  0  0  0  0  0
   23.1838  -19.6574  -15.2010 C   0  0  0  0  0  0  0  0  0  0  0  0
   22.2170  -20.1472  -14.5670 O   0  0  0  0  0  0  0  0  0  0  0  0
   24.4402  -20.2437  -14.9998 N   0  0  0  0  0  0  0  0  0  0  0  0
   24.6694  -21.4628  -14.2056 C   0  0  1  0  0  0  0  0  0  0  0  0
   25.3403  -22.4170  -15.1655 C   0  0  0  0  0  0  0  0  0  0  0  0
   25.7183  -23.7341  -14.5722 C   0  0  0  0  0  0  0  0  0  0  0  0
   26.3190  -24.5468  -15.6901 C   0  0  0  0  0  0  0  0  0  0  0  0
   26.4407  -24.1017  -16.8580 O   0  0  0  0  0  0  0  0  0  0  0  0
   25.5307  -21.1527  -13.0371 C   0  0  0  0  0  0  0  0  0  0  0  0
   26.7043  -20.7514  -13.1956 O   0  0  0  0  0  0  0  0  0  0  0  0
   26.7600  -25.8450  -15.4277 O   0  0  0  0  0  0  0  0  0  0  0  0
   25.0445  -21.3044  -11.7262 N   0  0  0  0  0  0  0  0  0  0  0  0
   25.8839  -21.3485  -10.5362 C   0  0  1  0  0  0  0  0  0  0  0  0
   26.8428  -20.2023  -10.5010 C   0  0  0  0  0  0  0  0  0  0  0  0
   27.6105  -20.0616   -9.2512 C   0  0  0  0  0  0  0  0  0  0  0  0
   27.2943  -19.0464   -8.3730 C   0  0  0  0  0  0  0  0  0  0  0  0
   27.9483  -18.8528   -7.1838 C   0  0  0  0  0  0  0  0  0  0  0  0
   28.9756  -19.6944   -6.8178 C   0  0  0  0  0  0  0  0  0  0  0  0
   29.3135  -20.7148   -7.6720 C   0  0  0  0  0  0  0  0  0  0  0  0
   28.6358  -20.9008   -8.8846 C   0  0  0  0  0  0  0  0  0  0  0  0
   25.0852  -21.4085   -9.3063 C   0  0  0  0  0  0  0  0  0  0  0  0
   25.5221  -22.0367   -8.3079 O   0  0  0  0  0  0  0  0  0  0  0  0
   23.8545  -20.7929   -9.1960 O   0  0  0  0  0  0  0  0  0  0  0  0
  2  1  1  6
  2 13  1  0
  3  4  1  0
  3  2  1  0
  4  5  2  0
  5  6  1  0
  7  6  1  0
  8  7  2  0
  9  8  1  0
 10 11  1  0
 10  9  2  0
 11 12  2  0
 12  4  1  0
 12  7  1  0
 13 14  2  0
 15 16  1  0
 15 13  1  0
 16 17  1  6
 18 17  1  0
 19 18  1  0
 20 19  2  0
 21 22  2  0
 21 16  1  0
 23 19  1  0
 24 21  1  0
 25 24  1  0
 25 26  1  1
 27 26  1  0
 28 27  2  0
 29 28  1  0
 30 31  1  0
 30 29  2  0
 31 32  2  0
 32 27  1  0
 33 25  1  0
 33 35  1  0
 34 33  2  0
M  END
$$$$
