WEF.pdb
     RDKit          3D

 35 37  0  0  1  0  0  0  0  0999 V2000
   23.6272  -19.5114  -15.7871 N   0  0  0  0  0  0  0  0  0  0  0  0
   24.5282  -18.9538  -14.8138 C   0  0  1  0  0  0  0  0  0  0  0  0
   23.8287  -18.0155  -13.8882 C   0  0  0  0  0  0  0  0  0  0  0  0
   23.5098  -16.7334  -14.5533 C   0  0  0  0  0  0  0  0  0  0  0  0
   22.2152  -16.2806  -14.8476 C   0  0  0  0  0  0  0  0  0  0  0  0
   22.2658  -15.0843  -15.4153 N   0  0  0  0  0  0  0  0  0  0  0  0
   23.5530  -14.7319  -15.5062 C   0  0  0  0  0  0  0  0  0  0  0  0
   24.1695  -13.5992  -16.0166 C   0  0  0  0  0  0  0  0  0  0  0  0
   25.5242  -13.4333  -16.0227 C   0  0  0  0  0  0  0  0  0  0  0  0
   26.2885  -14.4422  -15.4969 C   0  0  0  0  0  0  0  0  0  0  0  0
   25.7060  -15.5944  -14.9749 C   0  0  0  0  0  0  0  0  0  0  0  0
   24.3491  -15.7355  -14.9797 C   0  0  0  0  0  0  0  0  0  0  0  0
   25.1759  -20.0869  -14.0869 C   0  0  0  0  0  0  0  0  0  0  0  0
   24.4885  -21.0853  -13.7596 O   0  0  0  0  0  0  0  0  0  0  0  0
   26.5329  -20.1060  -13.7393 N   0  0  0  0  0  0  0  0  0  0  0  0
   27.2138  -21.2539  -13.1163 C   0  0  1  0  0  0  0  0  0  0  0  0
   28.5294  -21.3558  -13.8518 C   0  0  0  0  0  0  0  0  0  0  0  0
   28.4127  -21.3500  -15.3405 C   0  0  0  0  0  0  0  0  0  0  0  0
   27.9575  -22.7310  -15.7362 C   0  0  0  0  0  0  0  0  0  0  0  0
   28.2847  -23.7593  -15.0941 O   0  0  0  0  0  0  0  0  0  0  0  0
   27.4059  -21.0039  -11.6658 C   0  0  0  0  0  0  0  0  0  0  0  0
   28.5419  -20.7617  -11.2029 O   0  0  0  0  0  0  0  0  0  0  0  0
   27.1405  -22.8837  -16.8578 O   0  0  0  0  0  0  0  0  0  0  0  0
   26.3132  -21.0348  -10.7810 N   0  0  0  0  0  0  0  0  0  0  0  0
   26.4254  -20.9579   -9.3304 C   0  0  1  0  0  0  0  0  0  0  0  0
   27.3362  -19.8494   -8.9106 C   0  0  0  0  0  0  0  0  0  0  0  0
   27.5568  -19.7313   -7.4585 C   0  0  0  0  0  0  0  0  0  0  0  0
   27.1647  -18.5817   -6.8054 C   0  0  0  0  0  0  0  0  0  0  0  0
   27.3207  -18.3957   -5.4562 C   0  0  0  0  0  0  0  0  0  0  0  0
   27.8930  -19.3841   -4.6862 C   0  0  0  0  0  0  0  0  0  0  0  0
   28.2937  -20.5405   -5.3085 C   0  0  0  0  0  0  0  0  0  0  0  0
   28.1277  -20.7170   -6.6889 C   0  0  0  0  0  0  0  0  0  0  0  0
   25.1120  -20.8366   -8.6866 C   0  0  0  0  0  0  0  0  0  0  0  0
   24.1177  -20.4646   -9.3612 O   0  0  0  0  0  0  0  0  0  0  0  0
   24.9178  -21.1199   -7.3495 O   0  0  0  0  0  0  0  0  0  0  0  0
  2  1  1  6
  2 13  1  0
  3  4  1  0
  3  2  1  0
  4  5  2  0
  5  6  1  0
  7  6  1  0
  8  7  2  0
  9  8  1  0
 10 11  1  0
 10  9  2  0
 11 12  2  0
 12  4  1  0
 12  7  1  0
 13 14  2  0
 15 16  1  0
 15 13  1  0
 16 17  1  6
 18 17  1  0
 19 18  1  0
 20 19  2  0
 21 22  2  0
 21 16  1  0
 23 19  1  0
 24 21  1  0
 25 24  1  0
 25 26  1  6
 27 26  1  0
 28 27  2  0
 29 28  1  0
 30 31  1  0
 30 29  2  0
 31 32  2  0
 32 27  1  0
 33 25  1  0
 33 35  1  0
 34 33  2  0
M  END
$$$$
