WEF.pdb
     RDKit          3D

 35 37  0  0  1  0  0  0  0  0999 V2000
   15.6531  -16.2006    7.0812 N   0  0  0  0  0  0  0  0  0  0  0  0
   16.8054  -16.8504    6.5156 C   0  0  1  0  0  0  0  0  0  0  0  0
   18.0416  -16.0336    6.6920 C   0  0  0  0  0  0  0  0  0  0  0  0
   18.0610  -14.8728    5.7755 C   0  0  0  0  0  0  0  0  0  0  0  0
   17.0602  -14.5702    4.8404 C   0  0  0  0  0  0  0  0  0  0  0  0
   17.3580  -13.4513    4.1960 N   0  0  0  0  0  0  0  0  0  0  0  0
   18.5245  -13.0048    4.6749 C   0  0  0  0  0  0  0  0  0  0  0  0
   19.2919  -11.8940    4.3574 C   0  0  0  0  0  0  0  0  0  0  0  0
   20.4798  -11.6160    4.9693 C   0  0  0  0  0  0  0  0  0  0  0  0
   20.9135  -12.4857    5.9358 C   0  0  0  0  0  0  0  0  0  0  0  0
   20.1706  -13.6115    6.2823 C   0  0  0  0  0  0  0  0  0  0  0  0
   18.9856  -13.8665    5.6563 C   0  0  0  0  0  0  0  0  0  0  0  0
   16.9252  -18.2001    7.1447 C   0  0  0  0  0  0  0  0  0  0  0  0
   17.3020  -18.2948    8.3387 O   0  0  0  0  0  0  0  0  0  0  0  0
   16.6372  -19.3942    6.4710 N   0  0  0  0  0  0  0  0  0  0  0  0
   16.8032  -20.7367    7.0539 C   0  0  1  0  0  0  0  0  0  0  0  0
   15.4536  -21.3925    6.8793 C   0  0  0  0  0  0  0  0  0  0  0  0
   14.4237  -20.9729    7.8757 C   0  0  0  0  0  0  0  0  0  0  0  0
   13.0932  -21.0591    7.1733 C   0  0  0  0  0  0  0  0  0  0  0  0
   12.5477  -20.0636    6.6366 O   0  0  0  0  0  0  0  0  0  0  0  0
   17.8754  -21.4719    6.3376 C   0  0  0  0  0  0  0  0  0  0  0  0
   18.0489  -21.3144    5.1093 O   0  0  0  0  0  0  0  0  0  0  0  0
   12.4339  -22.2880    7.1114 O   0  0  0  0  0  0  0  0  0  0  0  0
   18.7189  -22.3622    7.0258 N   0  0  0  0  0  0  0  0  0  0  0  0
   19.8434  -23.0648    6.4220 C   0  0  1  0  0  0  0  0  0  0  0  0
   20.9020  -22.1127    5.9667 C   0  0  0  0  0  0  0  0  0  0  0  0
   21.4265  -21.2099    7.0065 C   0  0  0  0  0  0  0  0  0  0  0  0
   21.2109  -19.8523    6.8961 C   0  0  0  0  0  0  0  0  0  0  0  0
   21.6523  -18.9452    7.8243 C   0  0  0  0  0  0  0  0  0  0  0  0
   22.3481  -19.3763    8.9321 C   0  0  0  0  0  0  0  0  0  0  0  0
   22.5786  -20.7229    9.0695 C   0  0  0  0  0  0  0  0  0  0  0  0
   22.1210  -21.6390    8.1126 C   0  0  0  0  0  0  0  0  0  0  0  0
   20.3985  -24.0826    7.3221 C   0  0  0  0  0  0  0  0  0  0  0  0
   21.2709  -24.8830    6.8975 O   0  0  0  0  0  0  0  0  0  0  0  0
   19.9981  -24.1999    8.6381 O   0  0  0  0  0  0  0  0  0  0  0  0
  2  1  1  1
  2 13  1  0
  3  4  1  0
  3  2  1  0
  4  5  2  0
  5  6  1  0
  7  6  1  0
  8  7  2  0
  9  8  1  0
 10 11  1  0
 10  9  2  0
 11 12  2  0
 12  4  1  0
 12  7  1  0
 13 14  2  0
 15 16  1  0
 15 13  1  0
 16 17  1  6
 18 17  1  0
 19 18  1  0
 20 19  2  0
 21 22  2  0
 21 16  1  0
 23 19  1  0
 24 21  1  0
 25 24  1  0
 25 26  1  1
 27 26  1  0
 28 27  2  0
 29 28  1  0
 30 31  1  0
 30 29  2  0
 31 32  2  0
 32 27  1  0
 33 25  1  0
 33 35  1  0
 34 33  2  0
M  END
$$$$
