WEF.pdb
     RDKit          3D

 35 37  0  0  1  0  0  0  0  0999 V2000
   25.3001  -17.7580  -15.7698 N   0  0  0  0  0  0  0  0  0  0  0  0
   26.2768  -18.1581  -14.7921 C   0  0  1  0  0  0  0  0  0  0  0  0
   26.9751  -16.9816  -14.1963 C   0  0  0  0  0  0  0  0  0  0  0  0
   27.6705  -16.1827  -15.2288 C   0  0  0  0  0  0  0  0  0  0  0  0
   27.5233  -14.7995  -15.4092 C   0  0  0  0  0  0  0  0  0  0  0  0
   28.3032  -14.3800  -16.3949 N   0  0  0  0  0  0  0  0  0  0  0  0
   28.9611  -15.4423  -16.8725 C   0  0  0  0  0  0  0  0  0  0  0  0
   29.8878  -15.5748  -17.8958 C   0  0  0  0  0  0  0  0  0  0  0  0
   30.4459  -16.7723  -18.2382 C   0  0  0  0  0  0  0  0  0  0  0  0
   30.0591  -17.8782  -17.5268 C   0  0  0  0  0  0  0  0  0  0  0  0
   29.1315  -17.7850  -16.4923 C   0  0  0  0  0  0  0  0  0  0  0  0
   28.5889  -16.5758  -16.1689 C   0  0  0  0  0  0  0  0  0  0  0  0
   25.5805  -18.9842  -13.7603 C   0  0  0  0  0  0  0  0  0  0  0  0
   24.4649  -18.6126  -13.3201 O   0  0  0  0  0  0  0  0  0  0  0  0
   26.1059  -20.1745  -13.2410 N   0  0  0  0  0  0  0  0  0  0  0  0
   25.5397  -20.8991  -12.0904 C   0  0  1  0  0  0  0  0  0  0  0  0
   25.4361  -22.3309  -12.5610 C   0  0  0  0  0  0  0  0  0  0  0  0
   24.3581  -23.1267  -11.9020 C   0  0  0  0  0  0  0  0  0  0  0  0
   23.0624  -22.6975  -12.5409 C   0  0  0  0  0  0  0  0  0  0  0  0
   23.0208  -22.0783  -13.6325 O   0  0  0  0  0  0  0  0  0  0  0  0
   26.4355  -20.7639  -10.9147 C   0  0  0  0  0  0  0  0  0  0  0  0
   27.6730  -20.8981  -11.0341 O   0  0  0  0  0  0  0  0  0  0  0  0
   21.8570  -22.9949  -11.9028 O   0  0  0  0  0  0  0  0  0  0  0  0
   25.9109  -20.4823   -9.6406 N   0  0  0  0  0  0  0  0  0  0  0  0
   26.6227  -20.7046   -8.3890 C   0  0  1  0  0  0  0  0  0  0  0  0
   27.3522  -19.4762   -7.9495 C   0  0  0  0  0  0  0  0  0  0  0  0
   28.0368  -19.5817   -6.6490 C   0  0  0  0  0  0  0  0  0  0  0  0
   29.2205  -20.2838   -6.5618 C   0  0  0  0  0  0  0  0  0  0  0  0
   29.9277  -20.4194   -5.3953 C   0  0  0  0  0  0  0  0  0  0  0  0
   29.4618  -19.8393   -4.2360 C   0  0  0  0  0  0  0  0  0  0  0  0
   28.2853  -19.1337   -4.2914 C   0  0  0  0  0  0  0  0  0  0  0  0
   27.5730  -19.0032   -5.4913 C   0  0  0  0  0  0  0  0  0  0  0  0
   25.7300  -21.1965   -7.3328 C   0  0  0  0  0  0  0  0  0  0  0  0
   24.4926  -20.9855   -7.4125 O   0  0  0  0  0  0  0  0  0  0  0  0
   26.1985  -21.8944   -6.2378 O   0  0  0  0  0  0  0  0  0  0  0  0
  2  1  1  6
  2 13  1  0
  3  4  1  0
  3  2  1  0
  4  5  2  0
  5  6  1  0
  7  6  1  0
  8  7  2  0
  9  8  1  0
 10 11  1  0
 10  9  2  0
 11 12  2  0
 12  4  1  0
 12  7  1  0
 13 14  2  0
 15 16  1  0
 15 13  1  0
 16 17  1  6
 18 17  1  0
 19 18  1  0
 20 19  2  0
 21 22  2  0
 21 16  1  0
 23 19  1  0
 24 21  1  0
 25 24  1  0
 25 26  1  1
 27 26  1  0
 28 27  2  0
 29 28  1  0
 30 31  1  0
 30 29  2  0
 31 32  2  0
 32 27  1  0
 33 25  1  0
 33 35  1  0
 34 33  2  0
M  END
$$$$
