WEF.pdb
     RDKit          3D

 35 37  0  0  1  0  0  0  0  0999 V2000
   28.0718  -21.9065  -14.2769 N   0  0  0  0  0  0  0  0  0  0  0  0
   26.9656  -21.9866  -13.3604 C   0  0  1  0  0  0  0  0  0  0  0  0
   26.9055  -20.7961  -12.4628 C   0  0  0  0  0  0  0  0  0  0  0  0
   27.9994  -20.8106  -11.4673 C   0  0  0  0  0  0  0  0  0  0  0  0
   29.3664  -20.8715  -11.7761 C   0  0  0  0  0  0  0  0  0  0  0  0
   30.0892  -20.8370  -10.6660 N   0  0  0  0  0  0  0  0  0  0  0  0
   29.2433  -20.7560   -9.6329 C   0  0  0  0  0  0  0  0  0  0  0  0
   29.4564  -20.6980   -8.2636 C   0  0  0  0  0  0  0  0  0  0  0  0
   28.4373  -20.6254   -7.3587 C   0  0  0  0  0  0  0  0  0  0  0  0
   27.1565  -20.6107   -7.8465 C   0  0  0  0  0  0  0  0  0  0  0  0
   26.9026  -20.6671   -9.2147 C   0  0  0  0  0  0  0  0  0  0  0  0
   27.9391  -20.7382  -10.0988 C   0  0  0  0  0  0  0  0  0  0  0  0
   25.7167  -22.1530  -14.1631 C   0  0  0  0  0  0  0  0  0  0  0  0
   25.4126  -21.2876  -15.0205 O   0  0  0  0  0  0  0  0  0  0  0  0
   24.8433  -23.2384  -14.0159 N   0  0  0  0  0  0  0  0  0  0  0  0
   23.6136  -23.4268  -14.8046 C   0  0  1  0  0  0  0  0  0  0  0  0
   23.6198  -24.8934  -15.1671 C   0  0  0  0  0  0  0  0  0  0  0  0
   24.6729  -25.2876  -16.1496 C   0  0  0  0  0  0  0  0  0  0  0  0
   24.2307  -24.7482  -17.4855 C   0  0  0  0  0  0  0  0  0  0  0  0
   23.0529  -24.8668  -17.9048 O   0  0  0  0  0  0  0  0  0  0  0  0
   22.4276  -23.0605  -13.9907 C   0  0  0  0  0  0  0  0  0  0  0  0
   22.0858  -23.7551  -13.0088 O   0  0  0  0  0  0  0  0  0  0  0  0
   25.1579  -24.0901  -18.2952 O   0  0  0  0  0  0  0  0  0  0  0  0
   21.6626  -21.9237  -14.3074 N   0  0  0  0  0  0  0  0  0  0  0  0
   20.5175  -21.4599  -13.5352 C   0  0  1  0  0  0  0  0  0  0  0  0
   20.8377  -20.2103  -12.7799 C   0  0  0  0  0  0  0  0  0  0  0  0
   21.9304  -20.3300  -11.7987 C   0  0  0  0  0  0  0  0  0  0  0  0
   21.6306  -20.6104  -10.4821 C   0  0  0  0  0  0  0  0  0  0  0  0
   22.5860  -20.7514   -9.5092 C   0  0  0  0  0  0  0  0  0  0  0  0
   23.9189  -20.6124   -9.8275 C   0  0  0  0  0  0  0  0  0  0  0  0
   24.2487  -20.3329  -11.1306 C   0  0  0  0  0  0  0  0  0  0  0  0
   23.2611  -20.1917  -12.1150 C   0  0  0  0  0  0  0  0  0  0  0  0
   19.3281  -21.2802  -14.3761 C   0  0  0  0  0  0  0  0  0  0  0  0
   19.4488  -21.2358  -15.6273 O   0  0  0  0  0  0  0  0  0  0  0  0
   18.0605  -21.1577  -13.8432 O   0  0  0  0  0  0  0  0  0  0  0  0
  2  1  1  6
  2 13  1  0
  3  4  1  0
  3  2  1  0
  4  5  2  0
  5  6  1  0
  7  6  1  0
  8  7  2  0
  9  8  1  0
 10 11  1  0
 10  9  2  0
 11 12  2  0
 12  4  1  0
 12  7  1  0
 13 14  2  0
 15 16  1  0
 15 13  1  0
 16 17  1  1
 18 17  1  0
 19 18  1  0
 20 19  2  0
 21 22  2  0
 21 16  1  0
 23 19  1  0
 24 21  1  0
 25 24  1  0
 25 26  1  6
 27 26  1  0
 28 27  2  0
 29 28  1  0
 30 31  1  0
 30 29  2  0
 31 32  2  0
 32 27  1  0
 33 25  1  0
 33 35  1  0
 34 33  2  0
M  END
$$$$
