WEF.pdb
     RDKit          3D

 35 37  0  0  1  0  0  0  0  0999 V2000
   18.2092   -9.6106  -14.8334 N   0  0  0  0  0  0  0  0  0  0  0  0
   17.0883   -8.7614  -15.1374 C   0  0  1  0  0  0  0  0  0  0  0  0
   15.7904   -9.4747  -14.9555 C   0  0  0  0  0  0  0  0  0  0  0  0
   15.5382  -10.4321  -16.0545 C   0  0  0  0  0  0  0  0  0  0  0  0
   16.3494  -11.5342  -16.3625 C   0  0  0  0  0  0  0  0  0  0  0  0
   15.8364  -12.2112  -17.3795 N   0  0  0  0  0  0  0  0  0  0  0  0
   14.7119  -11.5912  -17.7543 C   0  0  0  0  0  0  0  0  0  0  0  0
   13.7937  -11.8643  -18.7572 C   0  0  0  0  0  0  0  0  0  0  0  0
   12.6943  -11.0882  -18.9853 C   0  0  0  0  0  0  0  0  0  0  0  0
   12.5101   -9.9972  -18.1764 C   0  0  0  0  0  0  0  0  0  0  0  0
   13.4099   -9.6908  -17.1587 C   0  0  0  0  0  0  0  0  0  0  0  0
   14.5007  -10.4832  -16.9506 C   0  0  0  0  0  0  0  0  0  0  0  0
   17.1894   -7.5439  -14.2775 C   0  0  0  0  0  0  0  0  0  0  0  0
   17.5512   -7.6601  -13.0808 O   0  0  0  0  0  0  0  0  0  0  0  0
   16.8992   -6.2511  -14.7326 N   0  0  0  0  0  0  0  0  0  0  0  0
   16.8596   -5.0573  -13.8707 C   0  0  1  0  0  0  0  0  0  0  0  0
   16.9895   -3.8967  -14.8289 C   0  0  0  0  0  0  0  0  0  0  0  0
   16.8993   -2.5494  -14.1911 C   0  0  0  0  0  0  0  0  0  0  0  0
   17.1292   -1.5434  -15.2893 C   0  0  0  0  0  0  0  0  0  0  0  0
   17.3815   -1.8813  -16.4721 O   0  0  0  0  0  0  0  0  0  0  0  0
   15.5807   -5.0167  -13.1185 C   0  0  0  0  0  0  0  0  0  0  0  0
   14.5265   -5.4606  -13.6238 O   0  0  0  0  0  0  0  0  0  0  0  0
   17.0612   -0.1815  -14.9907 O   0  0  0  0  0  0  0  0  0  0  0  0
   15.5275   -4.4772  -11.8209 N   0  0  0  0  0  0  0  0  0  0  0  0
   14.2982   -4.2512  -11.0723 C   0  0  1  0  0  0  0  0  0  0  0  0
   14.0065   -5.3867  -10.1449 C   0  0  0  0  0  0  0  0  0  0  0  0
   13.5746   -4.9987   -8.7906 C   0  0  0  0  0  0  0  0  0  0  0  0
   14.5131   -4.8880   -7.7863 C   0  0  0  0  0  0  0  0  0  0  0  0
   14.1988   -4.5200   -6.5037 C   0  0  0  0  0  0  0  0  0  0  0  0
   12.8925   -4.2405   -6.1677 C   0  0  0  0  0  0  0  0  0  0  0  0
   11.9353   -4.3423   -7.1467 C   0  0  0  0  0  0  0  0  0  0  0  0
   12.2712   -4.7194   -8.4541 C   0  0  0  0  0  0  0  0  0  0  0  0
   14.3244   -2.9727  -10.3520 C   0  0  0  0  0  0  0  0  0  0  0  0
   13.2543   -2.4855   -9.9051 O   0  0  0  0  0  0  0  0  0  0  0  0
   15.4938   -2.2707  -10.1389 O   0  0  0  0  0  0  0  0  0  0  0  0
  2  1  1  1
  2 13  1  0
  3  4  1  0
  3  2  1  0
  4  5  2  0
  5  6  1  0
  7  6  1  0
  8  7  2  0
  9  8  1  0
 10 11  1  0
 10  9  2  0
 11 12  2  0
 12  4  1  0
 12  7  1  0
 13 14  2  0
 15 16  1  0
 15 13  1  0
 16 17  1  6
 18 17  1  0
 19 18  1  0
 20 19  2  0
 21 22  2  0
 21 16  1  0
 23 19  1  0
 24 21  1  0
 25 24  1  0
 25 26  1  1
 27 26  1  0
 28 27  2  0
 29 28  1  0
 30 31  1  0
 30 29  2  0
 31 32  2  0
 32 27  1  0
 33 25  1  0
 33 35  1  0
 34 33  2  0
M  END
$$$$
