PRW.pdb
     RDKit          3D

 33 35  0  0  1  0  0  0  0  0999 V2000
    6.0832  -18.3894   21.1227 N   0  0  0  0  0  0  0  0  0  0  0  0
    5.2623  -19.3154   20.3760 C   0  0  0  0  0  0  0  0  0  0  0  0
    5.6610  -20.7051   20.7491 C   0  0  0  0  0  0  0  0  0  0  0  0
    6.6919  -20.5442   21.8362 C   0  0  0  0  0  0  0  0  0  0  0  0
    6.5948  -19.0970   22.2753 C   0  0  1  0  0  0  0  0  0  0  0  0
    7.9409  -18.5532   22.5861 C   0  0  0  0  0  0  0  0  0  0  0  0
    8.5723  -18.9527   23.6156 O   0  0  0  0  0  0  0  0  0  0  0  0
    8.3555  -14.0938   17.1328 N   0  0  0  0  0  0  0  0  0  0  0  0
    8.2092  -13.1827   18.2081 C   0  0  0  0  0  0  0  0  0  0  0  0
    7.3384  -12.2316   18.1894 N   0  0  0  0  0  0  0  0  0  0  0  0
    9.0291  -13.2849   19.3655 N   0  0  0  0  0  0  0  0  0  0  0  0
    9.9915  -14.3285   19.4627 C   0  0  0  0  0  0  0  0  0  0  0  0
    9.4270  -15.6089   20.0723 C   0  0  0  0  0  0  0  0  0  0  0  0
   10.4134  -16.0681   21.0970 C   0  0  0  0  0  0  0  0  0  0  0  0
    9.8542  -16.9878   22.1296 C   0  0  2  0  0  0  0  0  0  0  0  0
    8.5977  -17.5916   21.7977 N   0  0  0  0  0  0  0  0  0  0  0  0
    9.8050  -16.3360   23.4846 C   0  0  0  0  0  0  0  0  0  0  0  0
    9.6620  -15.0722   23.5814 O   0  0  0  0  0  0  0  0  0  0  0  0
    7.2274  -11.6642   19.0804 N   0  0  0  0  0  0  0  0  0  0  0  0
    9.9108  -17.0521   24.6973 C   0  0  1  0  0  0  0  0  0  0  0  0
   10.1566  -16.4304   25.9930 C   0  0  0  0  0  0  0  0  0  0  0  0
    8.8847  -16.5079   26.7652 C   0  0  0  0  0  0  0  0  0  0  0  0
    7.7847  -15.6340   26.3217 C   0  0  0  0  0  0  0  0  0  0  0  0
    6.5758  -16.0423   25.7341 N   0  0  0  0  0  0  0  0  0  0  0  0
    5.8348  -14.9776   25.4407 C   0  0  0  0  0  0  0  0  0  0  0  0
    6.4983  -13.8438   25.8098 C   0  0  0  0  0  0  0  0  0  0  0  0
    6.1542  -12.5166   25.7292 C   0  0  0  0  0  0  0  0  0  0  0  0
    7.0188  -11.5606   26.1988 C   0  0  0  0  0  0  0  0  0  0  0  0
    8.2159  -11.9681   26.7409 C   0  0  0  0  0  0  0  0  0  0  0  0
    8.5600  -13.2746   26.8221 C   0  0  0  0  0  0  0  0  0  0  0  0
    7.7072  -14.2570   26.3559 C   0  0  0  0  0  0  0  0  0  0  0  0
   11.3682  -16.9131   26.6219 O   0  0  0  0  0  0  0  0  0  0  0  0
   11.7137  -16.5011   27.7827 O   0  0  0  0  0  0  0  0  0  0  0  0
  2  1  1  0
  3  2  1  0
  4  3  1  0
  4  5  1  0
  5  1  1  0
  5  6  1  6
  6  7  2  0
  8  9  1  0
  9 11  1  0
 10  9  2  0
 11 12  1  0
 12 13  1  0
 13 14  1  0
 15 14  1  6
 15 16  1  0
 16  6  1  0
 17 15  1  0
 18 17  2  0
 19 17  1  0
 20 21  1  1
 20 19  1  0
 21 22  1  0
 22 23  2  0
 23 24  1  0
 25 26  2  0
 25 24  1  0
 27 26  1  0
 28 27  2  0
 29 28  1  0
 29 30  2  0
 30 22  1  0
 30 25  1  0
 31 33  1  0
 31 20  1  0
 32 31  2  0
M  END
$$$$
