PRW.pdb
     RDKit          3D

 33 35  0  0  1  0  0  0  0  0999 V2000
    9.0925  -13.7657   19.1950 N   0  0  0  0  0  0  0  0  0  0  0  0
    8.3770  -13.1682   18.0904 C   0  0  0  0  0  0  0  0  0  0  0  0
    6.9422  -13.0283   18.4790 C   0  0  0  0  0  0  0  0  0  0  0  0
    6.8735  -13.4810   19.9146 C   0  0  0  0  0  0  0  0  0  0  0  0
    8.3112  -13.5382   20.3903 C   0  0  1  0  0  0  0  0  0  0  0  0
    8.5162  -14.6948   21.2983 C   0  0  0  0  0  0  0  0  0  0  0  0
    7.8655  -14.7781   22.3882 O   0  0  0  0  0  0  0  0  0  0  0  0
   14.1775  -20.3896   23.2774 N   0  0  0  0  0  0  0  0  0  0  0  0
   13.2011  -21.4014   23.1024 C   0  0  0  0  0  0  0  0  0  0  0  0
   13.3073  -22.5619   23.6548 N   0  0  0  0  0  0  0  0  0  0  0  0
   12.0501  -21.1713   22.2995 N   0  0  0  0  0  0  0  0  0  0  0  0
   11.8803  -19.9187   21.6462 C   0  0  0  0  0  0  0  0  0  0  0  0
   10.8338  -19.0315   22.3149 C   0  0  0  0  0  0  0  0  0  0  0  0
   10.7146  -17.8003   21.4759 C   0  0  0  0  0  0  0  0  0  0  0  0
    9.6658  -16.8403   21.9264 C   0  0  2  0  0  0  0  0  0  0  0  0
    9.4106  -15.7475   21.0352 N   0  0  0  0  0  0  0  0  0  0  0  0
    9.9238  -16.3536   23.3263 C   0  0  0  0  0  0  0  0  0  0  0  0
   10.6157  -15.2996   23.5194 O   0  0  0  0  0  0  0  0  0  0  0  0
   12.5054  -23.2417   23.5028 N   0  0  0  0  0  0  0  0  0  0  0  0
    9.4363  -17.0066   24.4798 C   0  0  2  0  0  0  0  0  0  0  0  0
    9.8463  -16.6754   25.8392 C   0  0  0  0  0  0  0  0  0  0  0  0
    8.6065  -16.5767   26.6597 C   0  0  0  0  0  0  0  0  0  0  0  0
    7.5956  -15.5995   26.2198 C   0  0  0  0  0  0  0  0  0  0  0  0
    6.5234  -15.8403   25.3446 N   0  0  0  0  0  0  0  0  0  0  0  0
    5.8345  -14.7184   25.1562 C   0  0  0  0  0  0  0  0  0  0  0  0
    6.4008  -13.7082   25.8778 C   0  0  0  0  0  0  0  0  0  0  0  0
    6.0582  -12.3862   26.0235 C   0  0  0  0  0  0  0  0  0  0  0  0
    6.8059  -11.5763   26.8402 C   0  0  0  0  0  0  0  0  0  0  0  0
    7.8870  -12.1219   27.4935 C   0  0  0  0  0  0  0  0  0  0  0  0
    8.2292  -13.4239   27.3527 C   0  0  0  0  0  0  0  0  0  0  0  0
    7.4928  -14.2605   26.5357 C   0  0  0  0  0  0  0  0  0  0  0  0
   10.9181  -17.5219   26.3200 O   0  0  0  0  0  0  0  0  0  0  0  0
   11.3368  -18.5097   25.6232 O   0  0  0  0  0  0  0  0  0  0  0  0
  2  1  1  0
  3  2  1  0
  4  3  1  0
  4  5  1  0
  5  1  1  0
  5  6  1  1
  6  7  2  0
  8  9  1  0
  9 11  1  0
 10  9  2  0
 11 12  1  0
 12 13  1  0
 13 14  1  0
 15 14  1  6
 15 16  1  0
 16  6  1  0
 17 15  1  0
 18 17  2  0
 19 17  1  0
 20 21  1  6
 20 19  1  0
 21 22  1  0
 22 23  2  0
 23 24  1  0
 25 26  2  0
 25 24  1  0
 27 26  1  0
 28 27  2  0
 29 28  1  0
 29 30  2  0
 30 22  1  0
 30 25  1  0
 31 33  1  0
 31 20  1  0
 32 31  2  0
M  END
$$$$
