PRW.pdb
     RDKit          3D

 33 35  0  0  1  0  0  0  0  0999 V2000
    9.2553  -13.8914   19.2854 N   0  0  0  0  0  0  0  0  0  0  0  0
    8.7720  -13.1666   18.1322 C   0  0  0  0  0  0  0  0  0  0  0  0
    7.3599  -12.7563   18.3913 C   0  0  0  0  0  0  0  0  0  0  0  0
    7.0734  -13.1902   19.8056 C   0  0  0  0  0  0  0  0  0  0  0  0
    8.4236  -13.5212   20.4089 C   0  0  1  0  0  0  0  0  0  0  0  0
    8.3201  -14.6973   21.3092 C   0  0  0  0  0  0  0  0  0  0  0  0
    7.4656  -14.7109   22.2514 O   0  0  0  0  0  0  0  0  0  0  0  0
   11.6571  -19.8632   17.4266 N   0  0  0  0  0  0  0  0  0  0  0  0
   10.3829  -20.4809   17.4794 C   0  0  0  0  0  0  0  0  0  0  0  0
    9.8768  -21.1003   16.4678 N   0  0  0  0  0  0  0  0  0  0  0  0
    9.6033  -20.4408   18.6681 N   0  0  0  0  0  0  0  0  0  0  0  0
   10.1187  -19.8068   19.8330 C   0  0  0  0  0  0  0  0  0  0  0  0
    9.3931  -18.5095   20.1795 C   0  0  0  0  0  0  0  0  0  0  0  0
    9.7078  -18.2098   21.6096 C   0  0  0  0  0  0  0  0  0  0  0  0
    9.1221  -16.9371   22.1213 C   0  0  2  0  0  0  0  0  0  0  0  0
    9.1270  -15.8434   21.1954 N   0  0  0  0  0  0  0  0  0  0  0  0
    9.7277  -16.5384   23.4394 C   0  0  0  0  0  0  0  0  0  0  0  0
   10.8057  -15.8571   23.4678 O   0  0  0  0  0  0  0  0  0  0  0  0
    8.8716  -21.4307   16.5603 N   0  0  0  0  0  0  0  0  0  0  0  0
    9.1656  -16.8792   24.6894 C   0  0  1  0  0  0  0  0  0  0  0  0
    9.7698  -16.5459   25.9737 C   0  0  0  0  0  0  0  0  0  0  0  0
    8.6572  -16.2324   26.9139 C   0  0  0  0  0  0  0  0  0  0  0  0
    7.5650  -15.3922   26.3929 C   0  0  0  0  0  0  0  0  0  0  0  0
    6.4175  -15.8361   25.7147 N   0  0  0  0  0  0  0  0  0  0  0  0
    5.6655  -14.7945   25.3710 C   0  0  0  0  0  0  0  0  0  0  0  0
    6.2615  -13.6419   25.7935 C   0  0  0  0  0  0  0  0  0  0  0  0
    5.8804  -12.3262   25.6928 C   0  0  0  0  0  0  0  0  0  0  0  0
    6.6752  -11.3454   26.2298 C   0  0  0  0  0  0  0  0  0  0  0  0
    7.8413  -11.7169   26.8584 C   0  0  0  0  0  0  0  0  0  0  0  0
    8.2217  -13.0120   26.9598 C   0  0  0  0  0  0  0  0  0  0  0  0
    7.4393  -14.0187   26.4269 C   0  0  0  0  0  0  0  0  0  0  0  0
   10.7638  -17.5130   26.3899 O   0  0  0  0  0  0  0  0  0  0  0  0
   10.9134  -18.6141   25.7561 O   0  0  0  0  0  0  0  0  0  0  0  0
  2  1  1  0
  3  2  1  0
  4  3  1  0
  4  5  1  0
  5  1  1  0
  5  6  1  1
  6  7  2  0
  8  9  1  0
  9 11  1  0
 10  9  2  0
 11 12  1  0
 12 13  1  0
 13 14  1  0
 15 14  1  6
 15 16  1  0
 16  6  1  0
 17 15  1  0
 18 17  2  0
 19 17  1  0
 20 21  1  6
 20 19  1  0
 21 22  1  0
 22 23  2  0
 23 24  1  0
 25 26  2  0
 25 24  1  0
 27 26  1  0
 28 27  2  0
 29 28  1  0
 29 30  2  0
 30 22  1  0
 30 25  1  0
 31 33  1  0
 31 20  1  0
 32 31  2  0
M  END
$$$$
