PRW.pdb
     RDKit          3D

 33 35  0  0  1  0  0  0  0  0999 V2000
    9.1258  -14.5323   18.6113 N   0  0  0  0  0  0  0  0  0  0  0  0
    8.9317  -13.8088   17.3752 C   0  0  0  0  0  0  0  0  0  0  0  0
    7.8032  -12.8493   17.5631 C   0  0  0  0  0  0  0  0  0  0  0  0
    7.4122  -12.9750   19.0128 C   0  0  0  0  0  0  0  0  0  0  0  0
    8.5410  -13.7420   19.6716 C   0  0  1  0  0  0  0  0  0  0  0  0
    8.0108  -14.6741   20.6984 C   0  0  0  0  0  0  0  0  0  0  0  0
    7.3851  -14.2250   21.7109 O   0  0  0  0  0  0  0  0  0  0  0  0
   11.1820  -20.7197   21.1599 N   0  0  0  0  0  0  0  0  0  0  0  0
   10.9036  -21.0346   19.8066 C   0  0  0  0  0  0  0  0  0  0  0  0
   11.8186  -21.4393   18.9930 N   0  0  0  0  0  0  0  0  0  0  0  0
    9.5851  -20.9147   19.2878 N   0  0  0  0  0  0  0  0  0  0  0  0
    8.5555  -20.3501   20.0915 C   0  0  0  0  0  0  0  0  0  0  0  0
    8.8115  -18.8897   20.4539 C   0  0  0  0  0  0  0  0  0  0  0  0
    7.6072  -18.4148   21.2009 C   0  0  0  0  0  0  0  0  0  0  0  0
    7.6616  -16.9854   21.6233 C   0  0  2  0  0  0  0  0  0  0  0  0
    8.1530  -16.0717   20.6348 N   0  0  0  0  0  0  0  0  0  0  0  0
    8.3905  -16.8203   22.9289 C   0  0  0  0  0  0  0  0  0  0  0  0
    7.9787  -17.4274   23.9724 O   0  0  0  0  0  0  0  0  0  0  0  0
   11.5269  -21.6030   17.9848 N   0  0  0  0  0  0  0  0  0  0  0  0
    9.5377  -16.0111   23.0832 C   0  0  2  0  0  0  0  0  0  0  0  0
   10.2234  -15.8016   24.3528 C   0  0  0  0  0  0  0  0  0  0  0  0
    9.7616  -14.4907   24.8898 C   0  0  0  0  0  0  0  0  0  0  0  0
    8.3909  -14.4395   25.4274 C   0  0  0  0  0  0  0  0  0  0  0  0
    7.4463  -15.4793   25.4126 N   0  0  0  0  0  0  0  0  0  0  0  0
    6.3091  -15.0632   25.9623 C   0  0  0  0  0  0  0  0  0  0  0  0
    6.4415  -13.7638   26.3574 C   0  0  0  0  0  0  0  0  0  0  0  0
    5.5682  -12.9037   26.9771 C   0  0  0  0  0  0  0  0  0  0  0  0
    5.9717  -11.6285   27.2821 C   0  0  0  0  0  0  0  0  0  0  0  0
    7.2526  -11.2493   26.9529 C   0  0  0  0  0  0  0  0  0  0  0  0
    8.1168  -12.0928   26.3417 C   0  0  0  0  0  0  0  0  0  0  0  0
    7.7350  -13.3822   26.0233 C   0  0  0  0  0  0  0  0  0  0  0  0
   10.1543  -16.9582   25.2211 O   0  0  0  0  0  0  0  0  0  0  0  0
   10.8430  -17.0123   26.2978 O   0  0  0  0  0  0  0  0  0  0  0  0
  2  1  1  0
  3  2  1  0
  4  3  1  0
  4  5  1  0
  5  1  1  0
  5  6  1  1
  6  7  2  0
  8  9  1  0
  9 11  1  0
 10  9  2  0
 11 12  1  0
 12 13  1  0
 13 14  1  0
 15 14  1  6
 15 16  1  0
 16  6  1  0
 17 15  1  0
 18 17  2  0
 19 17  1  0
 20 21  1  6
 20 19  1  0
 21 22  1  0
 22 23  2  0
 23 24  1  0
 25 26  2  0
 25 24  1  0
 27 26  1  0
 28 27  2  0
 29 28  1  0
 29 30  2  0
 30 22  1  0
 30 25  1  0
 31 33  1  0
 31 20  1  0
 32 31  2  0
M  END
$$$$
