PRW.pdb
     RDKit          3D

 33 35  0  0  1  0  0  0  0  0999 V2000
    8.9270  -14.4758   18.6868 N   0  0  0  0  0  0  0  0  0  0  0  0
    8.3579  -13.7619   17.5664 C   0  0  0  0  0  0  0  0  0  0  0  0
    7.1141  -13.0764   18.0272 C   0  0  0  0  0  0  0  0  0  0  0  0
    7.0399  -13.3417   19.5086 C   0  0  0  0  0  0  0  0  0  0  0  0
    8.4058  -13.8734   19.8936 C   0  0  1  0  0  0  0  0  0  0  0  0
    8.2821  -14.9385   20.9206 C   0  0  0  0  0  0  0  0  0  0  0  0
    7.7976  -14.6721   22.0662 O   0  0  0  0  0  0  0  0  0  0  0  0
   10.3902  -20.5576   17.2033 N   0  0  0  0  0  0  0  0  0  0  0  0
   11.6033  -20.6413   17.9309 C   0  0  0  0  0  0  0  0  0  0  0  0
   12.7355  -20.8662   17.3558 N   0  0  0  0  0  0  0  0  0  0  0  0
   11.6178  -20.4775   19.3433 N   0  0  0  0  0  0  0  0  0  0  0  0
   10.4042  -20.2180   20.0394 C   0  0  0  0  0  0  0  0  0  0  0  0
   10.2596  -18.7602   20.4680 C   0  0  0  0  0  0  0  0  0  0  0  0
    8.9886  -18.6659   21.2488 C   0  0  0  0  0  0  0  0  0  0  0  0
    8.6506  -17.2924   21.7222 C   0  0  2  0  0  0  0  0  0  0  0  0
    8.6756  -16.2729   20.7155 N   0  0  0  0  0  0  0  0  0  0  0  0
    9.4752  -16.8991   22.9174 C   0  0  0  0  0  0  0  0  0  0  0  0
   10.5096  -16.1679   22.7679 O   0  0  0  0  0  0  0  0  0  0  0  0
   13.5922  -20.9110   17.9821 N   0  0  0  0  0  0  0  0  0  0  0  0
    9.1722  -17.2982   24.2378 C   0  0  1  0  0  0  0  0  0  0  0  0
    9.7522  -16.6877   25.4280 C   0  0  0  0  0  0  0  0  0  0  0  0
    9.6384  -15.2112   25.2636 C   0  0  0  0  0  0  0  0  0  0  0  0
    8.2833  -14.6378   25.3363 C   0  0  0  0  0  0  0  0  0  0  0  0
    7.0839  -15.2757   24.9780 N   0  0  0  0  0  0  0  0  0  0  0  0
    6.0613  -14.4434   25.1517 C   0  0  0  0  0  0  0  0  0  0  0  0
    6.5207  -13.2472   25.6208 C   0  0  0  0  0  0  0  0  0  0  0  0
    5.8677  -12.0884   25.9631 C   0  0  0  0  0  0  0  0  0  0  0  0
    6.5849  -11.0173   26.4326 C   0  0  0  0  0  0  0  0  0  0  0  0
    7.9505  -11.1412   26.5459 C   0  0  0  0  0  0  0  0  0  0  0  0
    8.5989  -12.2807   26.2094 C   0  0  0  0  0  0  0  0  0  0  0  0
    7.8997  -13.3736   25.7336 C   0  0  0  0  0  0  0  0  0  0  0  0
    9.2588  -17.2786   26.6544 O   0  0  0  0  0  0  0  0  0  0  0  0
    8.2329  -18.0427   26.6479 O   0  0  0  0  0  0  0  0  0  0  0  0
  2  1  1  0
  3  2  1  0
  4  3  1  0
  4  5  1  0
  5  1  1  0
  5  6  1  1
  6  7  2  0
  8  9  1  0
  9 11  1  0
 10  9  2  0
 11 12  1  0
 12 13  1  0
 13 14  1  0
 15 14  1  6
 15 16  1  0
 16  6  1  0
 17 15  1  0
 18 17  2  0
 19 17  1  0
 20 21  1  1
 20 19  1  0
 21 22  1  0
 22 23  2  0
 23 24  1  0
 25 26  2  0
 25 24  1  0
 27 26  1  0
 28 27  2  0
 29 28  1  0
 29 30  2  0
 30 22  1  0
 30 25  1  0
 31 33  1  0
 31 20  1  0
 32 31  2  0
M  END
$$$$
