PRW.pdb
     RDKit          3D

 33 35  0  0  1  0  0  0  0  0999 V2000
    6.4727  -19.7863   21.6364 N   0  0  0  0  0  0  0  0  0  0  0  0
    5.4199  -20.6058   21.0804 C   0  0  0  0  0  0  0  0  0  0  0  0
    5.6041  -20.6689   19.6000 C   0  0  0  0  0  0  0  0  0  0  0  0
    6.8862  -19.9258   19.3272 C   0  0  0  0  0  0  0  0  0  0  0  0
    7.5547  -19.7625   20.6774 C   0  0  1  0  0  0  0  0  0  0  0  0
    8.2229  -18.4402   20.7738 C   0  0  0  0  0  0  0  0  0  0  0  0
    9.2893  -18.2110   20.1192 O   0  0  0  0  0  0  0  0  0  0  0  0
    9.9205  -13.4104   18.6228 N   0  0  0  0  0  0  0  0  0  0  0  0
    8.7043  -13.3856   17.8961 C   0  0  0  0  0  0  0  0  0  0  0  0
    8.6467  -13.6821   16.6423 N   0  0  0  0  0  0  0  0  0  0  0  0
    7.4836  -13.0281   18.5318 N   0  0  0  0  0  0  0  0  0  0  0  0
    7.4583  -12.7883   19.9342 C   0  0  0  0  0  0  0  0  0  0  0  0
    8.3639  -13.7330   20.7197 C   0  0  0  0  0  0  0  0  0  0  0  0
    7.5936  -14.9979   20.9216 C   0  0  0  0  0  0  0  0  0  0  0  0
    8.3451  -16.0778   21.6243 C   0  0  2  0  0  0  0  0  0  0  0  0
    7.7482  -17.3792   21.5652 N   0  0  0  0  0  0  0  0  0  0  0  0
    8.6748  -15.6927   23.0407 C   0  0  0  0  0  0  0  0  0  0  0  0
    7.8745  -14.9547   23.7054 O   0  0  0  0  0  0  0  0  0  0  0  0
    7.6890  -13.6486   16.1840 N   0  0  0  0  0  0  0  0  0  0  0  0
    9.8497  -16.1060   23.7065 C   0  0  1  0  0  0  0  0  0  0  0  0
   10.1348  -15.8247   25.1084 C   0  0  0  0  0  0  0  0  0  0  0  0
    8.9265  -16.2138   25.8886 C   0  0  0  0  0  0  0  0  0  0  0  0
    7.8150  -15.2473   25.9166 C   0  0  0  0  0  0  0  0  0  0  0  0
    6.4710  -15.5074   25.6007 N   0  0  0  0  0  0  0  0  0  0  0  0
    5.7574  -14.3907   25.7121 C   0  0  0  0  0  0  0  0  0  0  0  0
    6.5713  -13.3651   26.0968 C   0  0  0  0  0  0  0  0  0  0  0  0
    6.3129  -12.0410   26.3544 C   0  0  0  0  0  0  0  0  0  0  0  0
    7.3336  -11.2137   26.7491 C   0  0  0  0  0  0  0  0  0  0  0  0
    8.5968  -11.7443   26.8750 C   0  0  0  0  0  0  0  0  0  0  0  0
    8.8567  -13.0483   26.6218 C   0  0  0  0  0  0  0  0  0  0  0  0
    7.8465  -13.9023   26.2223 C   0  0  0  0  0  0  0  0  0  0  0  0
   11.4181  -16.3451   25.5316 O   0  0  0  0  0  0  0  0  0  0  0  0
   12.1749  -16.9706   24.7117 O   0  0  0  0  0  0  0  0  0  0  0  0
  2  1  1  0
  3  2  1  0
  4  3  1  0
  4  5  1  0
  5  1  1  0
  5  6  1  6
  6  7  2  0
  8  9  1  0
  9 11  1  0
 10  9  2  0
 11 12  1  0
 12 13  1  0
 13 14  1  0
 15 14  1  1
 15 16  1  0
 16  6  1  0
 17 15  1  0
 18 17  2  0
 19 17  1  0
 20 21  1  1
 20 19  1  0
 21 22  1  0
 22 23  2  0
 23 24  1  0
 25 26  2  0
 25 24  1  0
 27 26  1  0
 28 27  2  0
 29 28  1  0
 29 30  2  0
 30 22  1  0
 30 25  1  0
 31 33  1  0
 31 20  1  0
 32 31  2  0
M  END
$$$$
