PRW.pdb
     RDKit          3D

 33 35  0  0  1  0  0  0  0  0999 V2000
    8.9979  -14.4455   18.5820 N   0  0  0  0  0  0  0  0  0  0  0  0
    8.4857  -13.7280   17.4367 C   0  0  0  0  0  0  0  0  0  0  0  0
    7.5693  -12.6548   17.9243 C   0  0  0  0  0  0  0  0  0  0  0  0
    7.6527  -12.7140   19.4276 C   0  0  0  0  0  0  0  0  0  0  0  0
    8.8579  -13.5807   19.7324 C   0  0  1  0  0  0  0  0  0  0  0  0
    8.6010  -14.4353   20.9191 C   0  0  0  0  0  0  0  0  0  0  0  0
    8.2792  -13.9086   22.0315 O   0  0  0  0  0  0  0  0  0  0  0  0
    6.7686  -21.9667   18.9143 N   0  0  0  0  0  0  0  0  0  0  0  0
    7.4753  -21.0399   18.1084 C   0  0  0  0  0  0  0  0  0  0  0  0
    8.0612  -21.3879   17.0135 N   0  0  0  0  0  0  0  0  0  0  0  0
    7.5657  -19.6709   18.4823 N   0  0  0  0  0  0  0  0  0  0  0  0
    8.2921  -19.3009   19.6485 C   0  0  0  0  0  0  0  0  0  0  0  0
    7.4725  -18.4585   20.6224 C   0  0  0  0  0  0  0  0  0  0  0  0
    8.3719  -18.1324   21.7708 C   0  0  0  0  0  0  0  0  0  0  0  0
    8.5112  -16.6752   22.0567 C   0  0  2  0  0  0  0  0  0  0  0  0
    8.6899  -15.8386   20.9070 N   0  0  0  0  0  0  0  0  0  0  0  0
    9.5699  -16.4119   23.0925 C   0  0  0  0  0  0  0  0  0  0  0  0
   10.5120  -15.5873   22.8487 O   0  0  0  0  0  0  0  0  0  0  0  0
    8.6071  -20.6350   16.5004 N   0  0  0  0  0  0  0  0  0  0  0  0
    9.5929  -17.0372   24.3587 C   0  0  1  0  0  0  0  0  0  0  0  0
   10.4206  -16.5921   25.4734 C   0  0  0  0  0  0  0  0  0  0  0  0
   10.2021  -15.1259   25.6240 C   0  0  0  0  0  0  0  0  0  0  0  0
    8.9635  -14.7057   26.3020 C   0  0  0  0  0  0  0  0  0  0  0  0
    8.3190  -15.3725   27.3574 N   0  0  0  0  0  0  0  0  0  0  0  0
    7.2139  -14.7156   27.6978 C   0  0  0  0  0  0  0  0  0  0  0  0
    7.0766  -13.6122   26.9068 C   0  0  0  0  0  0  0  0  0  0  0  0
    6.1234  -12.6239   26.8746 C   0  0  0  0  0  0  0  0  0  0  0  0
    6.2371  -11.5992   25.9696 C   0  0  0  0  0  0  0  0  0  0  0  0
    7.3147  -11.5959   25.1142 C   0  0  0  0  0  0  0  0  0  0  0  0
    8.2564  -12.5677   25.1414 C   0  0  0  0  0  0  0  0  0  0  0  0
    8.1649  -13.6110   26.0429 C   0  0  0  0  0  0  0  0  0  0  0  0
   10.2732  -17.4288   26.6459 O   0  0  0  0  0  0  0  0  0  0  0  0
    9.2889  -18.2386   26.7544 O   0  0  0  0  0  0  0  0  0  0  0  0
  2  1  1  0
  3  2  1  0
  4  3  1  0
  4  5  1  0
  5  1  1  0
  5  6  1  1
  6  7  2  0
  8  9  1  0
  9 11  1  0
 10  9  2  0
 11 12  1  0
 12 13  1  0
 13 14  1  0
 15 14  1  6
 15 16  1  0
 16  6  1  0
 17 15  1  0
 18 17  2  0
 19 17  1  0
 20 21  1  6
 20 19  1  0
 21 22  1  0
 22 23  2  0
 23 24  1  0
 25 26  2  0
 25 24  1  0
 27 26  1  0
 28 27  2  0
 29 28  1  0
 29 30  2  0
 30 22  1  0
 30 25  1  0
 31 33  1  0
 31 20  1  0
 32 31  2  0
M  END
$$$$
