PRW.pdb
     RDKit          3D

 33 35  0  0  1  0  0  0  0  0999 V2000
    9.4897  -14.3647   19.0959 N   0  0  0  0  0  0  0  0  0  0  0  0
    9.2861  -13.6410   17.8615 C   0  0  0  0  0  0  0  0  0  0  0  0
    8.0624  -12.7977   18.0062 C   0  0  0  0  0  0  0  0  0  0  0  0
    7.6164  -12.9864   19.4330 C   0  0  0  0  0  0  0  0  0  0  0  0
    8.7812  -13.6533   20.1365 C   0  0  1  0  0  0  0  0  0  0  0  0
    8.2950  -14.6503   21.1234 C   0  0  0  0  0  0  0  0  0  0  0  0
    7.5005  -14.2987   22.0525 O   0  0  0  0  0  0  0  0  0  0  0  0
    5.0769  -20.3570   18.7030 N   0  0  0  0  0  0  0  0  0  0  0  0
    6.1362  -20.3031   17.7633 C   0  0  0  0  0  0  0  0  0  0  0  0
    5.9316  -20.3767   16.4921 N   0  0  0  0  0  0  0  0  0  0  0  0
    7.4844  -20.1633   18.1934 N   0  0  0  0  0  0  0  0  0  0  0  0
    7.7703  -19.9440   19.5699 C   0  0  0  0  0  0  0  0  0  0  0  0
    7.6216  -18.4833   19.9871 C   0  0  0  0  0  0  0  0  0  0  0  0
    8.0820  -18.3927   21.4062 C   0  0  0  0  0  0  0  0  0  0  0  0
    8.1004  -17.0105   21.9665 C   0  0  2  0  0  0  0  0  0  0  0  0
    8.6603  -16.0082   21.1090 N   0  0  0  0  0  0  0  0  0  0  0  0
    8.7306  -16.9740   23.3321 C   0  0  0  0  0  0  0  0  0  0  0  0
    8.2929  -17.7333   24.2588 O   0  0  0  0  0  0  0  0  0  0  0  0
    6.7820  -20.2839   15.8624 N   0  0  0  0  0  0  0  0  0  0  0  0
    9.8094  -16.1273   23.6692 C   0  0  2  0  0  0  0  0  0  0  0  0
   10.3008  -15.9340   25.0283 C   0  0  0  0  0  0  0  0  0  0  0  0
    9.7874  -14.6162   25.4972 C   0  0  0  0  0  0  0  0  0  0  0  0
    8.3379  -14.5175   25.7411 C   0  0  0  0  0  0  0  0  0  0  0  0
    7.3837  -15.5283   25.5375 N   0  0  0  0  0  0  0  0  0  0  0  0
    6.1717  -15.0718   25.8395 C   0  0  0  0  0  0  0  0  0  0  0  0
    6.2616  -13.7725   26.2469 C   0  0  0  0  0  0  0  0  0  0  0  0
    5.3075  -12.8794   26.6694 C   0  0  0  0  0  0  0  0  0  0  0  0
    5.6802  -11.6135   27.0445 C   0  0  0  0  0  0  0  0  0  0  0  0
    7.0129  -11.2770   26.9839 C   0  0  0  0  0  0  0  0  0  0  0  0
    7.9569  -12.1532   26.5678 C   0  0  0  0  0  0  0  0  0  0  0  0
    7.6076  -13.4340   26.1841 C   0  0  0  0  0  0  0  0  0  0  0  0
   10.0816  -17.0914   25.8702 O   0  0  0  0  0  0  0  0  0  0  0  0
    9.2975  -18.0323   25.5007 O   0  0  0  0  0  0  0  0  0  0  0  0
  2  1  1  0
  3  2  1  0
  4  3  1  0
  4  5  1  0
  5  1  1  0
  5  6  1  1
  6  7  2  0
  8  9  1  0
  9 11  1  0
 10  9  2  0
 11 12  1  0
 12 13  1  0
 13 14  1  0
 15 14  1  6
 15 16  1  0
 16  6  1  0
 17 15  1  0
 18 17  2  0
 19 17  1  0
 20 21  1  6
 20 19  1  0
 21 22  1  0
 22 23  2  0
 23 24  1  0
 25 26  2  0
 25 24  1  0
 27 26  1  0
 28 27  2  0
 29 28  1  0
 29 30  2  0
 30 22  1  0
 30 25  1  0
 31 33  1  0
 31 20  1  0
 32 31  2  0
M  END
$$$$
