PRW.pdb
     RDKit          3D

 33 35  0  0  1  0  0  0  0  0999 V2000
    8.6043  -15.0098   18.5188 N   0  0  0  0  0  0  0  0  0  0  0  0
    8.0617  -14.2994   17.3830 C   0  0  0  0  0  0  0  0  0  0  0  0
    7.2643  -13.1425   17.8880 C   0  0  0  0  0  0  0  0  0  0  0  0
    7.4547  -13.1511   19.3827 C   0  0  0  0  0  0  0  0  0  0  0  0
    8.6132  -14.0941   19.6379 C   0  0  1  0  0  0  0  0  0  0  0  0
    8.3840  -14.8815   20.8756 C   0  0  0  0  0  0  0  0  0  0  0  0
    8.3599  -14.3034   22.0085 O   0  0  0  0  0  0  0  0  0  0  0  0
   11.0176  -20.9630   20.2308 N   0  0  0  0  0  0  0  0  0  0  0  0
   10.0991  -21.3766   19.2343 C   0  0  0  0  0  0  0  0  0  0  0  0
   10.4808  -21.9408   18.1393 N   0  0  0  0  0  0  0  0  0  0  0  0
    8.7010  -21.1827   19.4075 N   0  0  0  0  0  0  0  0  0  0  0  0
    8.2134  -20.5517   20.5860 C   0  0  0  0  0  0  0  0  0  0  0  0
    8.4964  -19.0523   20.6234 C   0  0  0  0  0  0  0  0  0  0  0  0
    7.8429  -18.5223   21.8587 C   0  0  0  0  0  0  0  0  0  0  0  0
    8.0273  -17.0589   22.0802 C   0  0  2  0  0  0  0  0  0  0  0  0
    8.1835  -16.2733   20.8919 N   0  0  0  0  0  0  0  0  0  0  0  0
    9.1293  -16.7817   23.0661 C   0  0  0  0  0  0  0  0  0  0  0  0
   10.1096  -16.0354   22.7360 O   0  0  0  0  0  0  0  0  0  0  0  0
    9.7230  -22.1927   17.4389 N   0  0  0  0  0  0  0  0  0  0  0  0
    9.1534  -17.3097   24.3757 C   0  0  2  0  0  0  0  0  0  0  0  0
    8.8079  -16.5470   25.5693 C   0  0  0  0  0  0  0  0  0  0  0  0
    7.5284  -15.8393   25.2827 C   0  0  0  0  0  0  0  0  0  0  0  0
    7.5961  -14.3736   25.1500 C   0  0  0  0  0  0  0  0  0  0  0  0
    8.0242  -13.6538   24.0221 N   0  0  0  0  0  0  0  0  0  0  0  0
    7.9753  -12.3490   24.2745 C   0  0  0  0  0  0  0  0  0  0  0  0
    7.5245  -12.1466   25.5465 C   0  0  0  0  0  0  0  0  0  0  0  0
    7.2917  -10.9972   26.2613 C   0  0  0  0  0  0  0  0  0  0  0  0
    6.8132  -11.0798   27.5443 C   0  0  0  0  0  0  0  0  0  0  0  0
    6.5800  -12.3261   28.0785 C   0  0  0  0  0  0  0  0  0  0  0  0
    6.8084  -13.4619   27.3785 C   0  0  0  0  0  0  0  0  0  0  0  0
    7.2907  -13.4060   26.0848 C   0  0  0  0  0  0  0  0  0  0  0  0
    8.8956  -17.3364   26.7800 O   0  0  0  0  0  0  0  0  0  0  0  0
    8.4583  -18.5382   26.8126 O   0  0  0  0  0  0  0  0  0  0  0  0
  2  1  1  0
  3  2  1  0
  4  3  1  0
  4  5  1  0
  5  1  1  0
  5  6  1  1
  6  7  2  0
  8  9  1  0
  9 11  1  0
 10  9  2  0
 11 12  1  0
 12 13  1  0
 13 14  1  0
 15 14  1  6
 15 16  1  0
 16  6  1  0
 17 15  1  0
 18 17  2  0
 19 17  1  0
 20 21  1  6
 20 19  1  0
 21 22  1  0
 22 23  2  0
 23 24  1  0
 25 26  2  0
 25 24  1  0
 27 26  1  0
 28 27  2  0
 29 28  1  0
 29 30  2  0
 30 22  1  0
 30 25  1  0
 31 33  1  0
 31 20  1  0
 32 31  2  0
M  END
$$$$
