PRW.pdb
     RDKit          3D

 33 35  0  0  1  0  0  0  0  0999 V2000
    8.9060  -14.9109   18.5220 N   0  0  0  0  0  0  0  0  0  0  0  0
    8.8812  -14.3350   17.1966 C   0  0  0  0  0  0  0  0  0  0  0  0
    8.4067  -12.9235   17.3051 C   0  0  0  0  0  0  0  0  0  0  0  0
    8.2535  -12.6683   18.7822 C   0  0  0  0  0  0  0  0  0  0  0  0
    8.9636  -13.8184   19.4675 C   0  0  1  0  0  0  0  0  0  0  0  0
    8.2301  -14.2319   20.6903 C   0  0  0  0  0  0  0  0  0  0  0  0
    8.0089  -13.3929   21.6205 O   0  0  0  0  0  0  0  0  0  0  0  0
    7.8614  -20.0534   18.9250 N   0  0  0  0  0  0  0  0  0  0  0  0
    6.4920  -20.2296   18.6065 C   0  0  0  0  0  0  0  0  0  0  0  0
    6.1039  -20.6535   17.4521 N   0  0  0  0  0  0  0  0  0  0  0  0
    5.4794  -19.9416   19.5626 N   0  0  0  0  0  0  0  0  0  0  0  0
    5.8251  -19.3250   20.7975 C   0  0  0  0  0  0  0  0  0  0  0  0
    6.2728  -17.8746   20.6380 C   0  0  0  0  0  0  0  0  0  0  0  0
    6.4524  -17.3262   22.0167 C   0  0  0  0  0  0  0  0  0  0  0  0
    7.0069  -15.9425   22.0678 C   0  0  2  0  0  0  0  0  0  0  0  0
    7.7414  -15.5325   20.9076 N   0  0  0  0  0  0  0  0  0  0  0  0
    7.7985  -15.7082   23.3254 C   0  0  0  0  0  0  0  0  0  0  0  0
    7.3278  -14.9633   24.2477 O   0  0  0  0  0  0  0  0  0  0  0  0
    5.0559  -20.7227   17.2929 N   0  0  0  0  0  0  0  0  0  0  0  0
    9.0700  -16.2753   23.5620 C   0  0  2  0  0  0  0  0  0  0  0  0
    9.8986  -15.9656   24.7211 C   0  0  0  0  0  0  0  0  0  0  0  0
    9.0531  -16.1673   25.9313 C   0  0  0  0  0  0  0  0  0  0  0  0
    7.8559  -15.3176   26.0536 C   0  0  0  0  0  0  0  0  0  0  0  0
    6.5196  -15.7287   25.9159 N   0  0  0  0  0  0  0  0  0  0  0  0
    5.7090  -14.6851   26.0658 C   0  0  0  0  0  0  0  0  0  0  0  0
    6.4484  -13.5632   26.3039 C   0  0  0  0  0  0  0  0  0  0  0  0
    6.0824  -12.2596   26.5343 C   0  0  0  0  0  0  0  0  0  0  0  0
    7.0482  -11.3132   26.7655 C   0  0  0  0  0  0  0  0  0  0  0  0
    8.3667  -11.7061   26.7585 C   0  0  0  0  0  0  0  0  0  0  0  0
    8.7327  -12.9893   26.5315 C   0  0  0  0  0  0  0  0  0  0  0  0
    7.7794  -13.9615   26.2954 C   0  0  0  0  0  0  0  0  0  0  0  0
   11.1901  -16.6184   24.6734 O   0  0  0  0  0  0  0  0  0  0  0  0
   11.5302  -17.3269   23.6640 O   0  0  0  0  0  0  0  0  0  0  0  0
  2  1  1  0
  3  2  1  0
  4  3  1  0
  4  5  1  0
  5  1  1  0
  5  6  1  1
  6  7  2  0
  8  9  1  0
  9 11  1  0
 10  9  2  0
 11 12  1  0
 12 13  1  0
 13 14  1  0
 15 14  1  6
 15 16  1  0
 16  6  1  0
 17 15  1  0
 18 17  2  0
 19 17  1  0
 20 21  1  6
 20 19  1  0
 21 22  1  0
 22 23  2  0
 23 24  1  0
 25 26  2  0
 25 24  1  0
 27 26  1  0
 28 27  2  0
 29 28  1  0
 29 30  2  0
 30 22  1  0
 30 25  1  0
 31 33  1  0
 31 20  1  0
 32 31  2  0
M  END
$$$$
