PRW.pdb
     RDKit          3D

 33 35  0  0  1  0  0  0  0  0999 V2000
    8.3240  -19.6242   21.6924 N   0  0  0  0  0  0  0  0  0  0  0  0
    7.3702  -20.5789   21.1751 C   0  0  0  0  0  0  0  0  0  0  0  0
    7.4955  -20.6114   19.6876 C   0  0  0  0  0  0  0  0  0  0  0  0
    8.6501  -19.6980   19.3663 C   0  0  0  0  0  0  0  0  0  0  0  0
    9.3489  -19.4486   20.6876 C   0  0  1  0  0  0  0  0  0  0  0  0
    9.8328  -18.0472   20.7671 C   0  0  0  0  0  0  0  0  0  0  0  0
   10.8835  -17.6948   20.1426 O   0  0  0  0  0  0  0  0  0  0  0  0
    8.6230  -14.7851   15.8395 N   0  0  0  0  0  0  0  0  0  0  0  0
    8.0045  -13.6039   16.3193 C   0  0  0  0  0  0  0  0  0  0  0  0
    7.8026  -12.5783   15.5641 N   0  0  0  0  0  0  0  0  0  0  0  0
    7.5765  -13.5042   17.6718 N   0  0  0  0  0  0  0  0  0  0  0  0
    7.7874  -14.5922   18.5642 C   0  0  0  0  0  0  0  0  0  0  0  0
    9.0606  -14.4485   19.3936 C   0  0  0  0  0  0  0  0  0  0  0  0
    8.6822  -14.7235   20.8131 C   0  0  0  0  0  0  0  0  0  0  0  0
    9.5932  -15.6634   21.5282 C   0  0  2  0  0  0  0  0  0  0  0  0
    9.1928  -17.0392   21.5100 N   0  0  0  0  0  0  0  0  0  0  0  0
    9.8817  -15.1978   22.9293 C   0  0  0  0  0  0  0  0  0  0  0  0
    9.7083  -13.9742   23.2450 O   0  0  0  0  0  0  0  0  0  0  0  0
    7.3354  -11.7361   16.0120 N   0  0  0  0  0  0  0  0  0  0  0  0
   10.3479  -16.0518   23.9530 C   0  0  2  0  0  0  0  0  0  0  0  0
    9.6678  -16.2432   25.2285 C   0  0  0  0  0  0  0  0  0  0  0  0
    8.2096  -16.3402   24.9381 C   0  0  0  0  0  0  0  0  0  0  0  0
    7.3330  -15.3648   25.6093 C   0  0  0  0  0  0  0  0  0  0  0  0
    6.1391  -15.6449   26.2948 N   0  0  0  0  0  0  0  0  0  0  0  0
    5.6041  -14.5152   26.7489 C   0  0  0  0  0  0  0  0  0  0  0  0
    6.3958  -13.4611   26.3964 C   0  0  0  0  0  0  0  0  0  0  0  0
    6.2831  -12.1135   26.6361 C   0  0  0  0  0  0  0  0  0  0  0  0
    7.2492  -11.2574   26.1716 C   0  0  0  0  0  0  0  0  0  0  0  0
    8.3111  -11.7836   25.4727 C   0  0  0  0  0  0  0  0  0  0  0  0
    8.4266  -13.1108   25.2333 C   0  0  0  0  0  0  0  0  0  0  0  0
    7.4669  -13.9941   25.6898 C   0  0  0  0  0  0  0  0  0  0  0  0
   10.2747  -17.2826   26.0333 O   0  0  0  0  0  0  0  0  0  0  0  0
   10.1382  -17.2913   27.3052 O   0  0  0  0  0  0  0  0  0  0  0  0
  2  1  1  0
  3  2  1  0
  4  3  1  0
  4  5  1  0
  5  1  1  0
  5  6  1  6
  6  7  2  0
  8  9  1  0
  9 11  1  0
 10  9  2  0
 11 12  1  0
 12 13  1  0
 13 14  1  0
 15 14  1  1
 15 16  1  0
 16  6  1  0
 17 15  1  0
 18 17  2  0
 19 17  1  0
 20 21  1  1
 20 19  1  0
 21 22  1  0
 22 23  2  0
 23 24  1  0
 25 26  2  0
 25 24  1  0
 27 26  1  0
 28 27  2  0
 29 28  1  0
 29 30  2  0
 30 22  1  0
 30 25  1  0
 31 33  1  0
 31 20  1  0
 32 31  2  0
M  END
$$$$
