PRW.pdb
     RDKit          3D

 33 35  0  0  1  0  0  0  0  0999 V2000
    7.3205  -19.0843   20.5570 N   0  0  0  0  0  0  0  0  0  0  0  0
    6.5537  -19.8219   19.5789 C   0  0  0  0  0  0  0  0  0  0  0  0
    7.0819  -19.4941   18.2214 C   0  0  0  0  0  0  0  0  0  0  0  0
    8.2718  -18.6019   18.4630 C   0  0  0  0  0  0  0  0  0  0  0  0
    8.5798  -18.7292   19.9413 C   0  0  1  0  0  0  0  0  0  0  0  0
    9.0106  -17.4229   20.5003 C   0  0  0  0  0  0  0  0  0  0  0  0
   10.2089  -17.0239   20.3486 O   0  0  0  0  0  0  0  0  0  0  0  0
    8.9712  -15.1969   17.1777 N   0  0  0  0  0  0  0  0  0  0  0  0
    8.3935  -13.9715   16.7625 C   0  0  0  0  0  0  0  0  0  0  0  0
    8.2148  -13.6826   15.5184 N   0  0  0  0  0  0  0  0  0  0  0  0
    7.9825  -13.0002   17.7164 N   0  0  0  0  0  0  0  0  0  0  0  0
    8.2600  -13.2012   19.0974 C   0  0  0  0  0  0  0  0  0  0  0  0
    7.2750  -14.1505   19.7743 C   0  0  0  0  0  0  0  0  0  0  0  0
    7.6090  -14.1493   21.2311 C   0  0  0  0  0  0  0  0  0  0  0  0
    8.5245  -15.2460   21.6597 C   0  0  2  0  0  0  0  0  0  0  0  0
    8.1611  -16.5584   21.2134 N   0  0  0  0  0  0  0  0  0  0  0  0
    8.7621  -15.2215   23.1450 C   0  0  0  0  0  0  0  0  0  0  0  0
    7.8734  -14.7462   23.9269 O   0  0  0  0  0  0  0  0  0  0  0  0
    7.8159  -12.7226   15.3004 N   0  0  0  0  0  0  0  0  0  0  0  0
    9.9419  -15.7044   23.7528 C   0  0  1  0  0  0  0  0  0  0  0  0
   10.1842  -15.6887   25.1905 C   0  0  0  0  0  0  0  0  0  0  0  0
    8.9870  -16.2889   25.8438 C   0  0  0  0  0  0  0  0  0  0  0  0
    7.8072  -15.4195   25.9938 C   0  0  0  0  0  0  0  0  0  0  0  0
    6.4750  -15.7584   25.7037 N   0  0  0  0  0  0  0  0  0  0  0  0
    5.6835  -14.7152   25.9359 C   0  0  0  0  0  0  0  0  0  0  0  0
    6.4320  -13.6639   26.3792 C   0  0  0  0  0  0  0  0  0  0  0  0
    6.0843  -12.3906   26.7590 C   0  0  0  0  0  0  0  0  0  0  0  0
    7.0543  -11.5205   27.1879 C   0  0  0  0  0  0  0  0  0  0  0  0
    8.3585  -11.9576   27.2234 C   0  0  0  0  0  0  0  0  0  0  0  0
    8.7064  -13.2111   26.8496 C   0  0  0  0  0  0  0  0  0  0  0  0
    7.7486  -14.1065   26.4133 C   0  0  0  0  0  0  0  0  0  0  0  0
   11.4881  -16.2113   25.5417 O   0  0  0  0  0  0  0  0  0  0  0  0
   11.8425  -16.3218   26.7659 O   0  0  0  0  0  0  0  0  0  0  0  0
  2  1  1  0
  3  2  1  0
  4  3  1  0
  4  5  1  0
  5  1  1  0
  5  6  1  1
  6  7  2  0
  8  9  1  0
  9 11  1  0
 10  9  2  0
 11 12  1  0
 12 13  1  0
 13 14  1  0
 15 14  1  1
 15 16  1  0
 16  6  1  0
 17 15  1  0
 18 17  2  0
 19 17  1  0
 20 21  1  1
 20 19  1  0
 21 22  1  0
 22 23  2  0
 23 24  1  0
 25 26  2  0
 25 24  1  0
 27 26  1  0
 28 27  2  0
 29 28  1  0
 29 30  2  0
 30 22  1  0
 30 25  1  0
 31 33  1  0
 31 20  1  0
 32 31  2  0
M  END
$$$$
