PRW.pdb
     RDKit          3D

 33 35  0  0  1  0  0  0  0  0999 V2000
    9.2921  -14.5674   17.3937 N   0  0  0  0  0  0  0  0  0  0  0  0
    8.6661  -14.0031   16.2195 C   0  0  0  0  0  0  0  0  0  0  0  0
    7.3517  -13.4196   16.6207 C   0  0  0  0  0  0  0  0  0  0  0  0
    7.2864  -13.5795   18.1176 C   0  0  0  0  0  0  0  0  0  0  0  0
    8.6952  -13.9344   18.5487 C   0  0  1  0  0  0  0  0  0  0  0  0
    8.6702  -14.9266   19.6528 C   0  0  0  0  0  0  0  0  0  0  0  0
    8.1084  -14.6425   20.7582 O   0  0  0  0  0  0  0  0  0  0  0  0
    9.8132  -22.0608   23.0784 N   0  0  0  0  0  0  0  0  0  0  0  0
    9.8011  -22.4456   21.7147 C   0  0  0  0  0  0  0  0  0  0  0  0
    9.2338  -23.5315   21.3121 N   0  0  0  0  0  0  0  0  0  0  0  0
   10.4229  -21.6364   20.7244 N   0  0  0  0  0  0  0  0  0  0  0  0
   11.1194  -20.4564   21.1079 C   0  0  0  0  0  0  0  0  0  0  0  0
   10.1894  -19.3243   21.5357 C   0  0  0  0  0  0  0  0  0  0  0  0
   10.1429  -18.3539   20.3999 C   0  0  0  0  0  0  0  0  0  0  0  0
    9.3014  -17.1475   20.6472 C   0  0  2  0  0  0  0  0  0  0  0  0
    9.2430  -16.2080   19.5667 N   0  0  0  0  0  0  0  0  0  0  0  0
    9.6690  -16.4703   21.9393 C   0  0  0  0  0  0  0  0  0  0  0  0
   10.7681  -15.8302   22.0356 O   0  0  0  0  0  0  0  0  0  0  0  0
    9.2980  -23.7512   20.2748 N   0  0  0  0  0  0  0  0  0  0  0  0
    8.8530  -16.4966   23.0917 C   0  0  2  0  0  0  0  0  0  0  0  0
    9.1088  -15.7073   24.2906 C   0  0  0  0  0  0  0  0  0  0  0  0
    7.7961  -15.1778   24.7558 C   0  0  0  0  0  0  0  0  0  0  0  0
    7.8042  -14.3765   25.9920 C   0  0  0  0  0  0  0  0  0  0  0  0
    8.3529  -14.7518   27.2296 N   0  0  0  0  0  0  0  0  0  0  0  0
    8.1515  -13.7877   28.1232 C   0  0  0  0  0  0  0  0  0  0  0  0
    7.4786  -12.7553   27.5372 C   0  0  0  0  0  0  0  0  0  0  0  0
    7.0532  -11.5456   28.0292 C   0  0  0  0  0  0  0  0  0  0  0  0
    6.3994  -10.6676   27.2024 C   0  0  0  0  0  0  0  0  0  0  0  0
    6.1890  -11.0325   25.8926 C   0  0  0  0  0  0  0  0  0  0  0  0
    6.6057  -12.2236   25.4030 C   0  0  0  0  0  0  0  0  0  0  0  0
    7.2659  -13.1259   26.2151 C   0  0  0  0  0  0  0  0  0  0  0  0
    9.9430  -16.4027   25.2482 O   0  0  0  0  0  0  0  0  0  0  0  0
    9.9107  -17.6781   25.3421 O   0  0  0  0  0  0  0  0  0  0  0  0
  2  1  1  0
  3  2  1  0
  4  3  1  0
  4  5  1  0
  5  1  1  0
  5  6  1  1
  6  7  2  0
  8  9  1  0
  9 11  1  0
 10  9  2  0
 11 12  1  0
 12 13  1  0
 13 14  1  0
 15 14  1  6
 15 16  1  0
 16  6  1  0
 17 15  1  0
 18 17  2  0
 19 17  1  0
 20 21  1  6
 20 19  1  0
 21 22  1  0
 22 23  2  0
 23 24  1  0
 25 26  2  0
 25 24  1  0
 27 26  1  0
 28 27  2  0
 29 28  1  0
 29 30  2  0
 30 22  1  0
 30 25  1  0
 31 33  1  0
 31 20  1  0
 32 31  2  0
M  END
$$$$
