PRW.pdb
     RDKit          3D

 33 35  0  0  1  0  0  0  0  0999 V2000
    9.1951  -13.9398   19.1937 N   0  0  0  0  0  0  0  0  0  0  0  0
    8.5203  -13.4471   18.0144 C   0  0  0  0  0  0  0  0  0  0  0  0
    7.0491  -13.4723   18.2683 C   0  0  0  0  0  0  0  0  0  0  0  0
    6.9011  -13.9092   19.7027 C   0  0  0  0  0  0  0  0  0  0  0  0
    8.2853  -13.7890   20.3075 C   0  0  1  0  0  0  0  0  0  0  0  0
    8.5387  -14.9001   21.2593 C   0  0  0  0  0  0  0  0  0  0  0  0
    7.8041  -15.0439   22.2878 O   0  0  0  0  0  0  0  0  0  0  0  0
   14.7575  -20.3060   22.7994 N   0  0  0  0  0  0  0  0  0  0  0  0
   13.7509  -21.2412   23.1461 C   0  0  0  0  0  0  0  0  0  0  0  0
   13.9895  -22.2596   23.9006 N   0  0  0  0  0  0  0  0  0  0  0  0
   12.4203  -21.0891   22.6683 N   0  0  0  0  0  0  0  0  0  0  0  0
   12.0812  -19.9687   21.8593 C   0  0  0  0  0  0  0  0  0  0  0  0
   11.0643  -19.0403   22.5179 C   0  0  0  0  0  0  0  0  0  0  0  0
   10.8882  -17.8747   21.5990 C   0  0  0  0  0  0  0  0  0  0  0  0
    9.8789  -16.8739   22.0511 C   0  0  2  0  0  0  0  0  0  0  0  0
    9.5700  -15.8434   21.1044 N   0  0  0  0  0  0  0  0  0  0  0  0
   10.2356  -16.2934   23.3923 C   0  0  0  0  0  0  0  0  0  0  0  0
   11.1688  -15.4290   23.4871 O   0  0  0  0  0  0  0  0  0  0  0  0
   13.1637  -22.8825   24.1422 N   0  0  0  0  0  0  0  0  0  0  0  0
    9.5863  -16.6529   24.5938 C   0  0  2  0  0  0  0  0  0  0  0  0
    9.9524  -16.1331   25.9060 C   0  0  0  0  0  0  0  0  0  0  0  0
    8.6849  -15.8822   26.6478 C   0  0  0  0  0  0  0  0  0  0  0  0
    7.6175  -15.1761   25.9181 C   0  0  0  0  0  0  0  0  0  0  0  0
    6.7937  -15.7119   24.9141 N   0  0  0  0  0  0  0  0  0  0  0  0
    5.9628  -14.7756   24.4652 C   0  0  0  0  0  0  0  0  0  0  0  0
    6.1892  -13.6066   25.1317 C   0  0  0  0  0  0  0  0  0  0  0  0
    5.5925  -12.3729   25.0412 C   0  0  0  0  0  0  0  0  0  0  0  0
    6.0119  -11.3535   25.8578 C   0  0  0  0  0  0  0  0  0  0  0  0
    7.0283  -11.6039   26.7506 C   0  0  0  0  0  0  0  0  0  0  0  0
    7.6201  -12.8177   26.8433 C   0  0  0  0  0  0  0  0  0  0  0  0
    7.2165  -13.8610   26.0319 C   0  0  0  0  0  0  0  0  0  0  0  0
   10.9774  -16.9251   26.5531 O   0  0  0  0  0  0  0  0  0  0  0  0
   11.4517  -16.5814   27.6903 O   0  0  0  0  0  0  0  0  0  0  0  0
  2  1  1  0
  3  2  1  0
  4  3  1  0
  4  5  1  0
  5  1  1  0
  5  6  1  1
  6  7  2  0
  8  9  1  0
  9 11  1  0
 10  9  2  0
 11 12  1  0
 12 13  1  0
 13 14  1  0
 15 14  1  6
 15 16  1  0
 16  6  1  0
 17 15  1  0
 18 17  2  0
 19 17  1  0
 20 21  1  6
 20 19  1  0
 21 22  1  0
 22 23  2  0
 23 24  1  0
 25 26  2  0
 25 24  1  0
 27 26  1  0
 28 27  2  0
 29 28  1  0
 29 30  2  0
 30 22  1  0
 30 25  1  0
 31 33  1  0
 31 20  1  0
 32 31  2  0
M  END
$$$$
