PRW.pdb
     RDKit          3D

 33 35  0  0  1  0  0  0  0  0999 V2000
    9.2507  -14.2747   19.4063 N   0  0  0  0  0  0  0  0  0  0  0  0
    8.8851  -13.5490   18.2110 C   0  0  0  0  0  0  0  0  0  0  0  0
    7.4449  -13.1685   18.3128 C   0  0  0  0  0  0  0  0  0  0  0  0
    7.0106  -13.6204   19.6830 C   0  0  0  0  0  0  0  0  0  0  0  0
    8.2910  -13.9307   20.4318 C   0  0  1  0  0  0  0  0  0  0  0  0
    8.1111  -15.1166   21.3069 C   0  0  0  0  0  0  0  0  0  0  0  0
    7.2335  -15.1073   22.2277 O   0  0  0  0  0  0  0  0  0  0  0  0
   10.2250  -18.2484   17.3177 N   0  0  0  0  0  0  0  0  0  0  0  0
   10.8742  -19.4622   17.6540 C   0  0  0  0  0  0  0  0  0  0  0  0
   12.1121  -19.6820   17.3670 N   0  0  0  0  0  0  0  0  0  0  0  0
   10.1745  -20.4985   18.3313 N   0  0  0  0  0  0  0  0  0  0  0  0
    9.2189  -20.1712   19.3335 C   0  0  0  0  0  0  0  0  0  0  0  0
    9.5536  -18.8841   20.0825 C   0  0  0  0  0  0  0  0  0  0  0  0
    8.5421  -18.7468   21.1743 C   0  0  0  0  0  0  0  0  0  0  0  0
    8.6450  -17.4842   21.9617 C   0  0  2  0  0  0  0  0  0  0  0  0
    8.8670  -16.2967   21.1909 N   0  0  0  0  0  0  0  0  0  0  0  0
    9.6475  -17.6060   23.0767 C   0  0  0  0  0  0  0  0  0  0  0  0
    9.8076  -18.7219   23.6735 O   0  0  0  0  0  0  0  0  0  0  0  0
   12.5155  -20.6185   17.6646 N   0  0  0  0  0  0  0  0  0  0  0  0
   10.4499  -16.5329   23.5230 C   0  0  1  0  0  0  0  0  0  0  0  0
   10.3078  -15.8952   24.8264 C   0  0  0  0  0  0  0  0  0  0  0  0
    9.3375  -14.7762   24.6641 C   0  0  0  0  0  0  0  0  0  0  0  0
    8.8424  -14.1429   25.8986 C   0  0  0  0  0  0  0  0  0  0  0  0
    9.2915  -14.3927   27.2061 N   0  0  0  0  0  0  0  0  0  0  0  0
    8.5970  -13.6574   28.0697 C   0  0  0  0  0  0  0  0  0  0  0  0
    7.6798  -12.9054   27.3949 C   0  0  0  0  0  0  0  0  0  0  0  0
    6.7502  -11.9921   27.8286 C   0  0  0  0  0  0  0  0  0  0  0  0
    5.9475  -11.3541   26.9172 C   0  0  0  0  0  0  0  0  0  0  0  0
    6.1023  -11.6542   25.5834 C   0  0  0  0  0  0  0  0  0  0  0  0
    7.0165  -12.5539   25.1509 C   0  0  0  0  0  0  0  0  0  0  0  0
    7.8366  -13.2105   26.0485 C   0  0  0  0  0  0  0  0  0  0  0  0
   10.0787  -16.8490   25.8915 O   0  0  0  0  0  0  0  0  0  0  0  0
   10.8900  -16.9399   26.8764 O   0  0  0  0  0  0  0  0  0  0  0  0
  2  1  1  0
  3  2  1  0
  4  3  1  0
  4  5  1  0
  5  1  1  0
  5  6  1  1
  6  7  2  0
  8  9  1  0
  9 11  1  0
 10  9  2  0
 11 12  1  0
 12 13  1  0
 13 14  1  0
 15 14  1  6
 15 16  1  0
 16  6  1  0
 17 15  1  0
 18 17  2  0
 19 17  1  0
 20 21  1  6
 20 19  1  0
 21 22  1  0
 22 23  2  0
 23 24  1  0
 25 26  2  0
 25 24  1  0
 27 26  1  0
 28 27  2  0
 29 28  1  0
 29 30  2  0
 30 22  1  0
 30 25  1  0
 31 33  1  0
 31 20  1  0
 32 31  2  0
M  END
$$$$
