DFH.pdb
     RDKit          3D

 30 31  0  0  1  0  0  0  0  0999 V2000
    9.8954  -16.7388   19.4714 N   0  0  0  0  0  0  0  0  0  0  0  0
    9.0330  -17.1678   20.6024 C   0  0  1  0  0  0  0  0  0  0  0  0
    9.4484  -18.5650   20.8979 C   0  0  0  0  0  0  0  0  0  0  0  0
    9.1437  -19.5857   19.9173 C   0  0  0  0  0  0  0  0  0  0  0  0
    9.8350  -19.7389   18.8934 O   0  0  0  0  0  0  0  0  0  0  0  0
    9.1894  -16.2096   21.7194 C   0  0  0  0  0  0  0  0  0  0  0  0
   10.2423  -15.5586   21.8705 O   0  0  0  0  0  0  0  0  0  0  0  0
    8.0572  -20.4250   20.1053 O   0  0  0  0  0  0  0  0  0  0  0  0
    8.1490  -15.9806   22.6780 N   0  0  0  0  0  0  0  0  0  0  0  0
    8.2488  -14.9575   23.7139 C   0  0  1  0  0  0  0  0  0  0  0  0
    6.9008  -14.5390   24.2053 C   0  0  0  0  0  0  0  0  0  0  0  0
    6.9113  -13.6068   25.3459 C   0  0  0  0  0  0  0  0  0  0  0  0
    7.5537  -12.3978   25.2231 C   0  0  0  0  0  0  0  0  0  0  0  0
    7.5817  -11.4866   26.2801 C   0  0  0  0  0  0  0  0  0  0  0  0
    6.9584  -11.7931   27.4723 C   0  0  0  0  0  0  0  0  0  0  0  0
    6.3246  -13.0074   27.5673 C   0  0  0  0  0  0  0  0  0  0  0  0
    6.2868  -13.9193   26.5336 C   0  0  0  0  0  0  0  0  0  0  0  0
    9.0761  -15.5133   24.8081 C   0  0  0  0  0  0  0  0  0  0  0  0
    9.4589  -14.7840   25.7646 O   0  0  0  0  0  0  0  0  0  0  0  0
    9.4697  -16.8760   24.8278 N   0  0  0  0  0  0  0  0  0  0  0  0
   10.3657  -17.3372   25.8792 C   0  0  1  0  0  0  0  0  0  0  0  0
   11.5932  -16.4452   25.9248 C   0  0  0  0  0  0  0  0  0  0  0  0
   12.3909  -16.4965   24.6862 C   0  0  0  0  0  0  0  0  0  0  0  0
   12.1541  -17.1325   23.5041 C   0  0  0  0  0  0  0  0  0  0  0  0
   13.2026  -16.8716   22.6915 N   0  0  0  0  0  0  0  0  0  0  0  0
   14.0688  -16.0976   23.3422 C   0  0  0  0  0  0  0  0  0  0  0  0
   13.5848  -15.8587   24.5681 N   0  0  0  0  0  0  0  0  0  0  0  0
    9.6645  -17.3049   27.1854 C   0  0  0  0  0  0  0  0  0  0  0  0
    8.4524  -17.0070   27.3067 O   0  0  0  0  0  0  0  0  0  0  0  0
   10.3406  -17.6133   28.3733 O   0  0  0  0  0  0  0  0  0  0  0  0
  2  1  1  6
  2  3  1  0
  4  5  2  0
  4  3  1  0
  6  2  1  0
  6  7  2  0
  8  4  1  0
  9  6  1  0
 10  9  1  0
 11 12  1  0
 10 11  1  1
 12 17  2  0
 13 14  2  0
 13 12  1  0
 14 15  1  0
 15 16  2  0
 17 16  1  0
 18 10  1  0
 18 19  2  0
 20 18  1  0
 21 20  1  0
 21 28  1  0
 21 22  1  1
 23 22  1  0
 24 23  2  0
 25 24  1  0
 26 25  1  0
 26 27  2  0
 27 23  1  0
 28 30  1  0
 29 28  2  0
M  END
$$$$
