DFH.pdb
     RDKit          3D

 30 31  0  0  1  0  0  0  0  0999 V2000
   10.5858  -15.7829   19.8002 N   0  0  0  0  0  0  0  0  0  0  0  0
   10.1986  -16.7780   20.8332 C   0  0  1  0  0  0  0  0  0  0  0  0
   11.2738  -17.8051   20.8036 C   0  0  0  0  0  0  0  0  0  0  0  0
   11.1861  -18.9070   21.7388 C   0  0  0  0  0  0  0  0  0  0  0  0
   10.2215  -19.6939   21.7368 O   0  0  0  0  0  0  0  0  0  0  0  0
   10.0189  -16.0846   22.1283 C   0  0  0  0  0  0  0  0  0  0  0  0
   10.9684  -15.4989   22.6856 O   0  0  0  0  0  0  0  0  0  0  0  0
   12.1932  -19.1081   22.6693 O   0  0  0  0  0  0  0  0  0  0  0  0
    8.7560  -16.0493   22.8047 N   0  0  0  0  0  0  0  0  0  0  0  0
    8.5411  -15.2769   24.0242 C   0  0  1  0  0  0  0  0  0  0  0  0
    7.2680  -14.4965   23.9637 C   0  0  0  0  0  0  0  0  0  0  0  0
    7.0155  -13.6189   25.1196 C   0  0  0  0  0  0  0  0  0  0  0  0
    7.9125  -12.6209   25.4175 C   0  0  0  0  0  0  0  0  0  0  0  0
    7.7057  -11.7668   26.5020 C   0  0  0  0  0  0  0  0  0  0  0  0
    6.5867  -11.9170   27.2951 C   0  0  0  0  0  0  0  0  0  0  0  0
    5.7075  -12.9220   26.9748 C   0  0  0  0  0  0  0  0  0  0  0  0
    5.8959  -13.7744   25.9075 C   0  0  0  0  0  0  0  0  0  0  0  0
    8.5401  -16.2287   25.1576 C   0  0  0  0  0  0  0  0  0  0  0  0
    7.4774  -16.4802   25.7907 O   0  0  0  0  0  0  0  0  0  0  0  0
    9.7221  -16.8920   25.5762 N   0  0  0  0  0  0  0  0  0  0  0  0
    9.6944  -17.6784   26.8016 C   0  0  1  0  0  0  0  0  0  0  0  0
   10.3223  -19.0366   26.5451 C   0  0  0  0  0  0  0  0  0  0  0  0
    9.5774  -19.8403   25.5590 C   0  0  0  0  0  0  0  0  0  0  0  0
    8.2648  -19.8033   25.1939 C   0  0  0  0  0  0  0  0  0  0  0  0
    8.0831  -20.7574   24.2536 N   0  0  0  0  0  0  0  0  0  0  0  0
    9.2434  -21.3731   24.0359 C   0  0  0  0  0  0  0  0  0  0  0  0
   10.1706  -20.8214   24.8298 N   0  0  0  0  0  0  0  0  0  0  0  0
   10.4377  -16.9680   27.8702 C   0  0  0  0  0  0  0  0  0  0  0  0
   10.5955  -17.4349   29.0234 O   0  0  0  0  0  0  0  0  0  0  0  0
   11.0119  -15.7118   27.6348 O   0  0  0  0  0  0  0  0  0  0  0  0
  2  1  1  6
  2  3  1  0
  4  5  2  0
  4  3  1  0
  6  2  1  0
  6  7  2  0
  8  4  1  0
  9  6  1  0
 10  9  1  0
 11 12  1  0
 10 11  1  6
 12 17  2  0
 13 14  2  0
 13 12  1  0
 14 15  1  0
 15 16  2  0
 17 16  1  0
 18 10  1  0
 18 19  2  0
 20 18  1  0
 21 20  1  0
 21 28  1  0
 21 22  1  6
 23 22  1  0
 24 23  2  0
 25 24  1  0
 26 25  1  0
 26 27  2  0
 27 23  1  0
 28 30  1  0
 29 28  2  0
M  END
$$$$
