DFH.pdb
     RDKit          3D

 30 31  0  0  1  0  0  0  0  0999 V2000
    8.8507  -17.0540   19.7952 N   0  0  0  0  0  0  0  0  0  0  0  0
   10.1953  -16.9630   20.4203 C   0  0  1  0  0  0  0  0  0  0  0  0
   11.0779  -16.4052   19.3611 C   0  0  0  0  0  0  0  0  0  0  0  0
   11.2377  -17.1666   18.1400 C   0  0  0  0  0  0  0  0  0  0  0  0
   10.5364  -18.1651   17.8929 O   0  0  0  0  0  0  0  0  0  0  0  0
   10.0994  -16.1553   21.6567 C   0  0  0  0  0  0  0  0  0  0  0  0
   11.1202  -15.7209   22.2265 O   0  0  0  0  0  0  0  0  0  0  0  0
   12.1917  -16.7898   17.2082 O   0  0  0  0  0  0  0  0  0  0  0  0
    8.8402  -15.8319   22.2597 N   0  0  0  0  0  0  0  0  0  0  0  0
    8.7379  -15.0791   23.5057 C   0  0  1  0  0  0  0  0  0  0  0  0
    7.3756  -14.4904   23.6823 C   0  0  0  0  0  0  0  0  0  0  0  0
    7.1529  -13.7995   24.9642 C   0  0  0  0  0  0  0  0  0  0  0  0
    7.7148  -12.5620   25.1699 C   0  0  0  0  0  0  0  0  0  0  0  0
    7.5231  -11.8745   26.3695 C   0  0  0  0  0  0  0  0  0  0  0  0
    6.7595  -12.4358   27.3723 C   0  0  0  0  0  0  0  0  0  0  0  0
    6.2105  -13.6728   27.1399 C   0  0  0  0  0  0  0  0  0  0  0  0
    6.3893  -14.3659   25.9613 C   0  0  0  0  0  0  0  0  0  0  0  0
    9.0766  -16.0030   24.6112 C   0  0  0  0  0  0  0  0  0  0  0  0
    8.3964  -17.0469   24.8137 O   0  0  0  0  0  0  0  0  0  0  0  0
   10.1696  -15.7568   25.4813 N   0  0  0  0  0  0  0  0  0  0  0  0
   10.4176  -16.6777   26.5818 C   0  0  1  0  0  0  0  0  0  0  0  0
   11.8457  -17.1868   26.5030 C   0  0  0  0  0  0  0  0  0  0  0  0
   12.0484  -18.1738   25.4270 C   0  0  0  0  0  0  0  0  0  0  0  0
   11.1661  -18.7108   24.5377 C   0  0  0  0  0  0  0  0  0  0  0  0
   11.8549  -19.5798   23.7644 N   0  0  0  0  0  0  0  0  0  0  0  0
   13.1276  -19.5881   24.1556 C   0  0  0  0  0  0  0  0  0  0  0  0
   13.2623  -18.7301   25.1755 N   0  0  0  0  0  0  0  0  0  0  0  0
   10.1947  -15.9860   27.8744 C   0  0  0  0  0  0  0  0  0  0  0  0
    9.9198  -14.7656   27.9614 O   0  0  0  0  0  0  0  0  0  0  0  0
   10.2832  -16.6813   29.0877 O   0  0  0  0  0  0  0  0  0  0  0  0
  2  1  1  6
  2  3  1  0
  4  5  2  0
  4  3  1  0
  6  2  1  0
  6  7  2  0
  8  4  1  0
  9  6  1  0
 10  9  1  0
 11 12  1  0
 10 11  1  1
 12 17  2  0
 13 14  2  0
 13 12  1  0
 14 15  1  0
 15 16  2  0
 17 16  1  0
 18 10  1  0
 18 19  2  0
 20 18  1  0
 21 20  1  0
 21 28  1  0
 21 22  1  1
 23 22  1  0
 24 23  2  0
 25 24  1  0
 26 25  1  0
 26 27  2  0
 27 23  1  0
 28 30  1  0
 29 28  2  0
M  END
$$$$
