DFH.pdb
     RDKit          3D

 30 31  0  0  1  0  0  0  0  0999 V2000
   10.8567  -16.6319   19.9394 N   0  0  0  0  0  0  0  0  0  0  0  0
    9.8704  -17.1538   20.9201 C   0  0  1  0  0  0  0  0  0  0  0  0
   10.2911  -18.5557   21.1838 C   0  0  0  0  0  0  0  0  0  0  0  0
   10.2972  -19.4833   20.0721 C   0  0  0  0  0  0  0  0  0  0  0  0
   11.1427  -20.3924   19.9808 O   0  0  0  0  0  0  0  0  0  0  0  0
    9.8487  -16.2646   22.1029 C   0  0  0  0  0  0  0  0  0  0  0  0
   10.9048  -15.8375   22.6106 O   0  0  0  0  0  0  0  0  0  0  0  0
    9.3442  -19.3728   19.0721 O   0  0  0  0  0  0  0  0  0  0  0  0
    8.6246  -15.8505   22.7224 N   0  0  0  0  0  0  0  0  0  0  0  0
    8.5932  -14.9678   23.8842 C   0  0  1  0  0  0  0  0  0  0  0  0
    7.2781  -14.2689   24.0086 C   0  0  0  0  0  0  0  0  0  0  0  0
    7.1323  -13.4155   25.2005 C   0  0  0  0  0  0  0  0  0  0  0  0
    7.8729  -12.2617   25.2986 C   0  0  0  0  0  0  0  0  0  0  0  0
    7.7592  -11.4254   26.4104 C   0  0  0  0  0  0  0  0  0  0  0  0
    6.8931  -11.7516   27.4337 C   0  0  0  0  0  0  0  0  0  0  0  0
    6.1660  -12.9098   27.3096 C   0  0  0  0  0  0  0  0  0  0  0  0
    6.2656  -13.7473   26.2188 C   0  0  0  0  0  0  0  0  0  0  0  0
    8.8828  -15.7945   25.0772 C   0  0  0  0  0  0  0  0  0  0  0  0
    8.1334  -16.7601   25.3929 O   0  0  0  0  0  0  0  0  0  0  0  0
   10.0037  -15.5391   25.9081 N   0  0  0  0  0  0  0  0  0  0  0  0
   10.2521  -16.4120   27.0471 C   0  0  1  0  0  0  0  0  0  0  0  0
   11.6597  -16.9735   26.9564 C   0  0  0  0  0  0  0  0  0  0  0  0
   11.8060  -17.9988   25.9074 C   0  0  0  0  0  0  0  0  0  0  0  0
   10.8801  -18.5588   25.0786 C   0  0  0  0  0  0  0  0  0  0  0  0
   11.5267  -19.4598   24.3056 N   0  0  0  0  0  0  0  0  0  0  0  0
   12.8159  -19.4653   24.6383 C   0  0  0  0  0  0  0  0  0  0  0  0
   13.0032  -18.5737   25.6203 N   0  0  0  0  0  0  0  0  0  0  0  0
   10.0890  -15.6493   28.3082 C   0  0  0  0  0  0  0  0  0  0  0  0
    9.9341  -14.4053   28.3430 O   0  0  0  0  0  0  0  0  0  0  0  0
   10.1006  -16.2993   29.5494 O   0  0  0  0  0  0  0  0  0  0  0  0
  2  1  1  6
  2  3  1  0
  4  5  2  0
  4  3  1  0
  6  2  1  0
  6  7  2  0
  8  4  1  0
  9  6  1  0
 10  9  1  0
 11 12  1  0
 10 11  1  1
 12 17  2  0
 13 14  2  0
 13 12  1  0
 14 15  1  0
 15 16  2  0
 17 16  1  0
 18 10  1  0
 18 19  2  0
 20 18  1  0
 21 20  1  0
 21 28  1  0
 21 22  1  6
 23 22  1  0
 24 23  2  0
 25 24  1  0
 26 25  1  0
 26 27  2  0
 27 23  1  0
 28 30  1  0
 29 28  2  0
M  END
$$$$
