DFH.pdb
     RDKit          3D

 30 31  0  0  1  0  0  0  0  0999 V2000
    8.0240  -17.1306   21.5593 N   0  0  0  0  0  0  0  0  0  0  0  0
    9.4164  -16.7984   21.9566 C   0  0  1  0  0  0  0  0  0  0  0  0
    9.8752  -15.7959   20.9584 C   0  0  0  0  0  0  0  0  0  0  0  0
   10.1033  -16.2446   19.6009 C   0  0  0  0  0  0  0  0  0  0  0  0
    9.3033  -16.9980   19.0159 O   0  0  0  0  0  0  0  0  0  0  0  0
    9.4207  -16.3405   23.3640 C   0  0  0  0  0  0  0  0  0  0  0  0
   10.4086  -15.7550   23.8506 O   0  0  0  0  0  0  0  0  0  0  0  0
   11.2370  -15.8355   18.9170 O   0  0  0  0  0  0  0  0  0  0  0  0
    8.3006  -16.5433   24.2346 N   0  0  0  0  0  0  0  0  0  0  0  0
    8.3145  -16.1398   25.6370 C   0  0  1  0  0  0  0  0  0  0  0  0
    7.0222  -15.5064   26.0398 C   0  0  0  0  0  0  0  0  0  0  0  0
    6.9933  -14.0357   25.9593 C   0  0  0  0  0  0  0  0  0  0  0  0
    7.9099  -13.3029   26.6749 C   0  0  0  0  0  0  0  0  0  0  0  0
    7.9167  -11.9080   26.6210 C   0  0  0  0  0  0  0  0  0  0  0  0
    6.9934  -11.2430   25.8407 C   0  0  0  0  0  0  0  0  0  0  0  0
    6.0895  -11.9999   25.1367 C   0  0  0  0  0  0  0  0  0  0  0  0
    6.0684  -13.3780   25.1781 C   0  0  0  0  0  0  0  0  0  0  0  0
    8.6008  -17.3475   26.4432 C   0  0  0  0  0  0  0  0  0  0  0  0
    7.7017  -18.2051   26.6658 O   0  0  0  0  0  0  0  0  0  0  0  0
    9.8852  -17.5898   26.9943 N   0  0  0  0  0  0  0  0  0  0  0  0
   10.1983  -18.9201   27.4976 C   0  0  1  0  0  0  0  0  0  0  0  0
   10.0505  -19.9327   26.3762 C   0  0  0  0  0  0  0  0  0  0  0  0
    8.7064  -20.5352   26.3156 C   0  0  0  0  0  0  0  0  0  0  0  0
    7.7864  -20.7527   27.2974 C   0  0  0  0  0  0  0  0  0  0  0  0
    6.7170  -21.3454   26.7206 N   0  0  0  0  0  0  0  0  0  0  0  0
    6.9580  -21.4951   25.4197 C   0  0  0  0  0  0  0  0  0  0  0  0
    8.1753  -21.0026   25.1555 N   0  0  0  0  0  0  0  0  0  0  0  0
   11.5842  -18.9434   28.0246 C   0  0  0  0  0  0  0  0  0  0  0  0
   12.5299  -18.3108   27.4973 O   0  0  0  0  0  0  0  0  0  0  0  0
   11.9087  -19.6916   29.1640 O   0  0  0  0  0  0  0  0  0  0  0  0
  2  1  1  6
  2  3  1  0
  4  5  2  0
  4  3  1  0
  6  2  1  0
  6  7  2  0
  8  4  1  0
  9  6  1  0
 10  9  1  0
 11 12  1  0
 10 11  1  1
 12 17  2  0
 13 14  2  0
 13 12  1  0
 14 15  1  0
 15 16  2  0
 17 16  1  0
 18 10  1  0
 18 19  2  0
 20 18  1  0
 21 20  1  0
 21 28  1  0
 21 22  1  6
 23 22  1  0
 24 23  2  0
 25 24  1  0
 26 25  1  0
 26 27  2  0
 27 23  1  0
 28 30  1  0
 29 28  2  0
M  END
$$$$
