DFH.pdb
     RDKit          3D

 30 31  0  0  1  0  0  0  0  0999 V2000
   10.0613  -16.1702   18.9798 N   0  0  0  0  0  0  0  0  0  0  0  0
    9.1870  -16.8628   19.9612 C   0  0  1  0  0  0  0  0  0  0  0  0
    9.6005  -18.2904   19.9083 C   0  0  0  0  0  0  0  0  0  0  0  0
    9.4558  -18.9930   18.6506 C   0  0  0  0  0  0  0  0  0  0  0  0
   10.4160  -19.5693   18.1068 O   0  0  0  0  0  0  0  0  0  0  0  0
    9.3305  -16.2091   21.2812 C   0  0  0  0  0  0  0  0  0  0  0  0
   10.4395  -16.1287   21.8461 O   0  0  0  0  0  0  0  0  0  0  0  0
    8.2231  -19.0367   18.0190 O   0  0  0  0  0  0  0  0  0  0  0  0
    8.2133  -15.6388   21.9744 N   0  0  0  0  0  0  0  0  0  0  0  0
    8.3550  -14.9367   23.2459 C   0  0  1  0  0  0  0  0  0  0  0  0
    7.1325  -14.1426   23.5748 C   0  0  0  0  0  0  0  0  0  0  0  0
    7.1787  -13.4246   24.8603 C   0  0  0  0  0  0  0  0  0  0  0  0
    6.3424  -13.8124   25.8799 C   0  0  0  0  0  0  0  0  0  0  0  0
    6.3600  -13.1594   27.1135 C   0  0  0  0  0  0  0  0  0  0  0  0
    7.2261  -12.1063   27.3247 C   0  0  0  0  0  0  0  0  0  0  0  0
    8.0500  -11.7400   26.2890 C   0  0  0  0  0  0  0  0  0  0  0  0
    8.0461  -12.3738   25.0644 C   0  0  0  0  0  0  0  0  0  0  0  0
    8.6370  -15.9528   24.2846 C   0  0  0  0  0  0  0  0  0  0  0  0
    7.8278  -16.8967   24.5032 O   0  0  0  0  0  0  0  0  0  0  0  0
    9.8171  -15.9091   25.0704 N   0  0  0  0  0  0  0  0  0  0  0  0
    9.9642  -16.8450   26.1764 C   0  0  1  0  0  0  0  0  0  0  0  0
   11.2083  -17.6885   25.9631 C   0  0  0  0  0  0  0  0  0  0  0  0
   11.0156  -18.7608   24.9700 C   0  0  0  0  0  0  0  0  0  0  0  0
    9.9240  -19.0949   24.2253 C   0  0  0  0  0  0  0  0  0  0  0  0
   10.2639  -20.1661   23.4738 N   0  0  0  0  0  0  0  0  0  0  0  0
   11.5271  -20.4936   23.7383 C   0  0  0  0  0  0  0  0  0  0  0  0
   12.0024  -19.6402   24.6550 N   0  0  0  0  0  0  0  0  0  0  0  0
   10.0683  -16.0991   27.4539 C   0  0  0  0  0  0  0  0  0  0  0  0
    9.7832  -16.6013   28.5671 O   0  0  0  0  0  0  0  0  0  0  0  0
   10.5006  -14.7665   27.4764 O   0  0  0  0  0  0  0  0  0  0  0  0
  2  1  1  6
  2  3  1  0
  4  5  2  0
  4  3  1  0
  6  2  1  0
  6  7  2  0
  8  4  1  0
  9  6  1  0
 10  9  1  0
 11 12  1  0
 10 11  1  1
 12 17  2  0
 13 14  2  0
 13 12  1  0
 14 15  1  0
 15 16  2  0
 17 16  1  0
 18 10  1  0
 18 19  2  0
 20 18  1  0
 21 20  1  0
 21 28  1  0
 21 22  1  6
 23 22  1  0
 24 23  2  0
 25 24  1  0
 26 25  1  0
 26 27  2  0
 27 23  1  0
 28 30  1  0
 29 28  2  0
M  END
$$$$
