DFH.pdb
     RDKit          3D

 30 31  0  0  1  0  0  0  0  0999 V2000
    8.8301  -14.8905   20.6025 N   0  0  0  0  0  0  0  0  0  0  0  0
    9.1348  -16.2321   21.1632 C   0  0  1  0  0  0  0  0  0  0  0  0
   10.3202  -16.7096   20.4025 C   0  0  0  0  0  0  0  0  0  0  0  0
   10.0901  -17.4146   19.1589 C   0  0  0  0  0  0  0  0  0  0  0  0
    8.9603  -17.4779   18.6401 O   0  0  0  0  0  0  0  0  0  0  0  0
    9.3256  -16.1122   22.6259 C   0  0  0  0  0  0  0  0  0  0  0  0
   10.4399  -15.8341   23.1122 O   0  0  0  0  0  0  0  0  0  0  0  0
   11.1433  -18.0424   18.5131 O   0  0  0  0  0  0  0  0  0  0  0  0
    8.2503  -16.3072   23.5529 N   0  0  0  0  0  0  0  0  0  0  0  0
    8.4197  -16.1515   24.9941 C   0  0  1  0  0  0  0  0  0  0  0  0
    7.1758  -15.6346   25.6414 C   0  0  0  0  0  0  0  0  0  0  0  0
    7.1168  -14.1719   25.8066 C   0  0  0  0  0  0  0  0  0  0  0  0
    8.2770  -13.4717   26.0364 C   0  0  0  0  0  0  0  0  0  0  0  0
    8.2620  -12.0848   26.1941 C   0  0  0  0  0  0  0  0  0  0  0  0
    7.0695  -11.3948   26.1204 C   0  0  0  0  0  0  0  0  0  0  0  0
    5.9260  -12.1193   25.8901 C   0  0  0  0  0  0  0  0  0  0  0  0
    5.9224  -13.4891   25.7319 C   0  0  0  0  0  0  0  0  0  0  0  0
    8.8067  -17.4716   25.5403 C   0  0  0  0  0  0  0  0  0  0  0  0
    8.8190  -18.4978   24.8053 O   0  0  0  0  0  0  0  0  0  0  0  0
    9.1766  -17.6375   26.8997 N   0  0  0  0  0  0  0  0  0  0  0  0
   10.3260  -18.4716   27.2221 C   0  0  1  0  0  0  0  0  0  0  0  0
   11.5756  -17.8720   26.6026 C   0  0  0  0  0  0  0  0  0  0  0  0
   11.9636  -18.5241   25.3388 C   0  0  0  0  0  0  0  0  0  0  0  0
   11.3818  -19.5489   24.6540 C   0  0  0  0  0  0  0  0  0  0  0  0
   12.1373  -19.7778   23.5565 N   0  0  0  0  0  0  0  0  0  0  0  0
   13.1598  -18.9249   23.5528 C   0  0  0  0  0  0  0  0  0  0  0  0
   13.0671  -18.1486   24.6406 N   0  0  0  0  0  0  0  0  0  0  0  0
   10.4817  -18.5635   28.6939 C   0  0  0  0  0  0  0  0  0  0  0  0
   10.0666  -17.6829   29.4844 O   0  0  0  0  0  0  0  0  0  0  0  0
   11.1153  -19.6654   29.2835 O   0  0  0  0  0  0  0  0  0  0  0  0
  2  1  1  6
  2  3  1  0
  4  5  2  0
  4  3  1  0
  6  2  1  0
  6  7  2  0
  8  4  1  0
  9  6  1  0
 10  9  1  0
 11 12  1  0
 10 11  1  1
 12 17  2  0
 13 14  2  0
 13 12  1  0
 14 15  1  0
 15 16  2  0
 17 16  1  0
 18 10  1  0
 18 19  2  0
 20 18  1  0
 21 20  1  0
 21 28  1  0
 21 22  1  6
 23 22  1  0
 24 23  2  0
 25 24  1  0
 26 25  1  0
 26 27  2  0
 27 23  1  0
 28 30  1  0
 29 28  2  0
M  END
$$$$
