DFH.pdb
     RDKit          3D

 30 31  0  0  1  0  0  0  0  0999 V2000
    9.1234  -17.7919   20.8003 N   0  0  0  0  0  0  0  0  0  0  0  0
   10.4540  -17.2987   21.2400 C   0  0  1  0  0  0  0  0  0  0  0  0
   11.1528  -16.9019   19.9885 C   0  0  0  0  0  0  0  0  0  0  0  0
   11.2297  -17.8725   18.9169 C   0  0  0  0  0  0  0  0  0  0  0  0
   11.5351  -17.5446   17.7554 O   0  0  0  0  0  0  0  0  0  0  0  0
   10.2644  -16.2163   22.2313 C   0  0  0  0  0  0  0  0  0  0  0  0
   11.2233  -15.5204   22.6206 O   0  0  0  0  0  0  0  0  0  0  0  0
   10.9596  -19.2078   19.1705 O   0  0  0  0  0  0  0  0  0  0  0  0
    8.9808  -15.9127   22.7916 N   0  0  0  0  0  0  0  0  0  0  0  0
    8.7920  -14.8789   23.8042 C   0  0  1  0  0  0  0  0  0  0  0  0
    7.3912  -14.3582   23.8041 C   0  0  0  0  0  0  0  0  0  0  0  0
    7.0825  -13.3900   24.8706 C   0  0  0  0  0  0  0  0  0  0  0  0
    7.6533  -12.1402   24.8329 C   0  0  0  0  0  0  0  0  0  0  0  0
    7.3820  -11.1943   25.8229 C   0  0  0  0  0  0  0  0  0  0  0  0
    6.5289  -11.5073   26.8612 C   0  0  0  0  0  0  0  0  0  0  0  0
    5.9729  -12.7628   26.8740 C   0  0  0  0  0  0  0  0  0  0  0  0
    6.2297  -13.7092   25.9046 C   0  0  0  0  0  0  0  0  0  0  0  0
    9.1508  -15.4693   25.1132 C   0  0  0  0  0  0  0  0  0  0  0  0
    9.1157  -14.7759   26.1674 O   0  0  0  0  0  0  0  0  0  0  0  0
    9.5453  -16.8263   25.2369 N   0  0  0  0  0  0  0  0  0  0  0  0
    9.9620  -17.3246   26.5403 C   0  0  1  0  0  0  0  0  0  0  0  0
    9.2997  -18.6649   26.8045 C   0  0  0  0  0  0  0  0  0  0  0  0
    9.7700  -19.3067   28.0455 C   0  0  0  0  0  0  0  0  0  0  0  0
   10.5228  -18.8138   29.0693 C   0  0  0  0  0  0  0  0  0  0  0  0
   10.6848  -19.8131   29.9652 N   0  0  0  0  0  0  0  0  0  0  0  0
   10.0546  -20.8975   29.5184 C   0  0  0  0  0  0  0  0  0  0  0  0
    9.4880  -20.6027   28.3409 N   0  0  0  0  0  0  0  0  0  0  0  0
   11.4373  -17.4710   26.5729 C   0  0  0  0  0  0  0  0  0  0  0  0
   12.1484  -17.0481   27.5153 O   0  0  0  0  0  0  0  0  0  0  0  0
   12.1213  -18.1041   25.5267 O   0  0  0  0  0  0  0  0  0  0  0  0
  2  1  1  6
  2  3  1  0
  4  5  2  0
  4  3  1  0
  6  2  1  0
  6  7  2  0
  8  4  1  0
  9  6  1  0
 10  9  1  0
 11 12  1  0
 10 11  1  1
 12 17  2  0
 13 14  2  0
 13 12  1  0
 14 15  1  0
 15 16  2  0
 17 16  1  0
 18 10  1  0
 18 19  2  0
 20 18  1  0
 21 20  1  0
 21 28  1  0
 21 22  1  6
 23 22  1  0
 24 23  2  0
 25 24  1  0
 26 25  1  0
 26 27  2  0
 27 23  1  0
 28 30  1  0
 29 28  2  0
M  END
$$$$
