DFH.pdb
     RDKit          3D

 30 31  0  0  1  0  0  0  0  0999 V2000
   10.5633  -17.0043   19.6999 N   0  0  0  0  0  0  0  0  0  0  0  0
    9.2033  -16.8764   20.2839 C   0  0  1  0  0  0  0  0  0  0  0  0
    8.6886  -18.2687   20.3754 C   0  0  0  0  0  0  0  0  0  0  0  0
    9.4455  -19.3165   19.7231 C   0  0  0  0  0  0  0  0  0  0  0  0
    9.2965  -19.5788   18.5153 O   0  0  0  0  0  0  0  0  0  0  0  0
    9.2962  -16.1485   21.5692 C   0  0  0  0  0  0  0  0  0  0  0  0
   10.3643  -16.1040   22.2116 O   0  0  0  0  0  0  0  0  0  0  0  0
   10.3658  -20.0592   20.4455 O   0  0  0  0  0  0  0  0  0  0  0  0
    8.1745  -15.4623   22.1389 N   0  0  0  0  0  0  0  0  0  0  0  0
    8.2380  -14.7997   23.4377 C   0  0  1  0  0  0  0  0  0  0  0  0
    7.1772  -13.7560   23.5750 C   0  0  0  0  0  0  0  0  0  0  0  0
    7.1297  -13.0790   24.8826 C   0  0  0  0  0  0  0  0  0  0  0  0
    8.0848  -12.1400   25.1911 C   0  0  0  0  0  0  0  0  0  0  0  0
    8.0707  -11.4745   26.4180 C   0  0  0  0  0  0  0  0  0  0  0  0
    7.0874  -11.7554   27.3442 C   0  0  0  0  0  0  0  0  0  0  0  0
    6.1462  -12.6978   27.0099 C   0  0  0  0  0  0  0  0  0  0  0  0
    6.1449  -13.3645   25.8029 C   0  0  0  0  0  0  0  0  0  0  0  0
    8.1065  -15.8461   24.4763 C   0  0  0  0  0  0  0  0  0  0  0  0
    7.2327  -16.7515   24.3758 O   0  0  0  0  0  0  0  0  0  0  0  0
    8.9490  -15.8752   25.6172 N   0  0  0  0  0  0  0  0  0  0  0  0
    9.4491  -17.1574   26.0932 C   0  0  1  0  0  0  0  0  0  0  0  0
   10.3095  -17.7955   25.0174 C   0  0  0  0  0  0  0  0  0  0  0  0
   10.8441  -19.1119   25.4107 C   0  0  0  0  0  0  0  0  0  0  0  0
   12.0090  -19.4462   26.0344 C   0  0  0  0  0  0  0  0  0  0  0  0
   12.0273  -20.7926   26.1547 N   0  0  0  0  0  0  0  0  0  0  0  0
   10.9108  -21.2870   25.6239 C   0  0  0  0  0  0  0  0  0  0  0  0
   10.1740  -20.2677   25.1629 N   0  0  0  0  0  0  0  0  0  0  0  0
   10.2444  -16.9579   27.3288 C   0  0  0  0  0  0  0  0  0  0  0  0
   10.2701  -17.7865   28.2699 O   0  0  0  0  0  0  0  0  0  0  0  0
   11.0229  -15.8065   27.5059 O   0  0  0  0  0  0  0  0  0  0  0  0
  2  1  1  1
  2  3  1  0
  4  5  2  0
  4  3  1  0
  6  2  1  0
  6  7  2  0
  8  4  1  0
  9  6  1  0
 10  9  1  0
 11 12  1  0
 10 11  1  6
 12 17  2  0
 13 14  2  0
 13 12  1  0
 14 15  1  0
 15 16  2  0
 17 16  1  0
 18 10  1  0
 18 19  2  0
 20 18  1  0
 21 20  1  0
 21 28  1  0
 21 22  1  6
 23 22  1  0
 24 23  2  0
 25 24  1  0
 26 25  1  0
 26 27  2  0
 27 23  1  0
 28 30  1  0
 29 28  2  0
M  END
$$$$
