DFH.pdb
     RDKit          3D

 30 31  0  0  1  0  0  0  0  0999 V2000
   10.5052  -16.5445   19.2321 N   0  0  0  0  0  0  0  0  0  0  0  0
    9.4290  -16.9889   20.1548 C   0  0  1  0  0  0  0  0  0  0  0  0
    9.6127  -18.4591   20.2843 C   0  0  0  0  0  0  0  0  0  0  0  0
    9.5597  -19.2587   19.0784 C   0  0  0  0  0  0  0  0  0  0  0  0
    9.3449  -18.7499   17.9627 O   0  0  0  0  0  0  0  0  0  0  0  0
    9.5288  -16.2234   21.4175 C   0  0  0  0  0  0  0  0  0  0  0  0
   10.6349  -15.9729   21.9364 O   0  0  0  0  0  0  0  0  0  0  0  0
    9.7507  -20.6296   19.1469 O   0  0  0  0  0  0  0  0  0  0  0  0
    8.3708  -15.7334   22.1048 N   0  0  0  0  0  0  0  0  0  0  0  0
    8.4588  -14.9889   23.3570 C   0  0  1  0  0  0  0  0  0  0  0  0
    7.2199  -14.1929   23.6118 C   0  0  0  0  0  0  0  0  0  0  0  0
    7.2053  -13.4456   24.8813 C   0  0  0  0  0  0  0  0  0  0  0  0
    8.0117  -12.3416   25.0234 C   0  0  0  0  0  0  0  0  0  0  0  0
    8.0225  -11.6055   26.2094 C   0  0  0  0  0  0  0  0  0  0  0  0
    7.2153  -11.9825   27.2630 C   0  0  0  0  0  0  0  0  0  0  0  0
    6.4202  -13.0891   27.0937 C   0  0  0  0  0  0  0  0  0  0  0  0
    6.3968  -13.8276   25.9294 C   0  0  0  0  0  0  0  0  0  0  0  0
    8.7059  -15.9684   24.4388 C   0  0  0  0  0  0  0  0  0  0  0  0
    7.9013  -16.9183   24.6480 O   0  0  0  0  0  0  0  0  0  0  0  0
    9.8463  -15.8816   25.2780 N   0  0  0  0  0  0  0  0  0  0  0  0
   10.0625  -16.9118   26.2844 C   0  0  1  0  0  0  0  0  0  0  0  0
   11.4439  -17.5144   26.1025 C   0  0  0  0  0  0  0  0  0  0  0  0
   11.5356  -18.4058   24.9319 C   0  0  0  0  0  0  0  0  0  0  0  0
   10.5697  -19.1038   24.2704 C   0  0  0  0  0  0  0  0  0  0  0  0
   11.1776  -19.7794   23.2696 N   0  0  0  0  0  0  0  0  0  0  0  0
   12.4821  -19.5144   23.3021 C   0  0  0  0  0  0  0  0  0  0  0  0
   12.7176  -18.6726   24.3171 N   0  0  0  0  0  0  0  0  0  0  0  0
    9.9391  -16.3225   27.6396 C   0  0  0  0  0  0  0  0  0  0  0  0
    9.4581  -16.9437   28.6171 O   0  0  0  0  0  0  0  0  0  0  0  0
   10.3646  -15.0125   27.8966 O   0  0  0  0  0  0  0  0  0  0  0  0
  2  1  1  6
  2  3  1  0
  4  5  2  0
  4  3  1  0
  6  2  1  0
  6  7  2  0
  8  4  1  0
  9  6  1  0
 10  9  1  0
 11 12  1  0
 10 11  1  1
 12 17  2  0
 13 14  2  0
 13 12  1  0
 14 15  1  0
 15 16  2  0
 17 16  1  0
 18 10  1  0
 18 19  2  0
 20 18  1  0
 21 20  1  0
 21 28  1  0
 21 22  1  6
 23 22  1  0
 24 23  2  0
 25 24  1  0
 26 25  1  0
 26 27  2  0
 27 23  1  0
 28 30  1  0
 29 28  2  0
M  END
$$$$
