DFH.pdb
     RDKit          3D

 30 31  0  0  1  0  0  0  0  0999 V2000
    9.5499  -15.9323   18.8051 N   0  0  0  0  0  0  0  0  0  0  0  0
    9.1283  -16.7591   19.9652 C   0  0  1  0  0  0  0  0  0  0  0  0
    9.9612  -17.9888   19.8874 C   0  0  0  0  0  0  0  0  0  0  0  0
    9.8237  -18.8289   18.7163 C   0  0  0  0  0  0  0  0  0  0  0  0
    8.7562  -19.4103   18.4476 O   0  0  0  0  0  0  0  0  0  0  0  0
    9.2824  -15.9657   21.2050 C   0  0  0  0  0  0  0  0  0  0  0  0
   10.3770  -15.4538   21.5135 O   0  0  0  0  0  0  0  0  0  0  0  0
   10.8980  -19.0035   17.8585 O   0  0  0  0  0  0  0  0  0  0  0  0
    8.1923  -15.7452   22.1088 N   0  0  0  0  0  0  0  0  0  0  0  0
    8.3328  -14.9570   23.3290 C   0  0  1  0  0  0  0  0  0  0  0  0
    7.0878  -14.1883   23.6335 C   0  0  0  0  0  0  0  0  0  0  0  0
    7.1090  -13.4377   24.9009 C   0  0  0  0  0  0  0  0  0  0  0  0
    7.8509  -12.2840   24.9893 C   0  0  0  0  0  0  0  0  0  0  0  0
    7.8926  -11.5433   26.1717 C   0  0  0  0  0  0  0  0  0  0  0  0
    7.1822  -11.9662   27.2763 C   0  0  0  0  0  0  0  0  0  0  0  0
    6.4499  -13.1220   27.1601 C   0  0  0  0  0  0  0  0  0  0  0  0
    6.3972  -13.8657   26.0002 C   0  0  0  0  0  0  0  0  0  0  0  0
    8.6739  -15.8922   24.4243 C   0  0  0  0  0  0  0  0  0  0  0  0
    7.9174  -16.8626   24.7060 O   0  0  0  0  0  0  0  0  0  0  0  0
    9.8542  -15.7389   25.1961 N   0  0  0  0  0  0  0  0  0  0  0  0
   10.1663  -16.7323   26.2142 C   0  0  1  0  0  0  0  0  0  0  0  0
   11.6288  -17.1249   26.1061 C   0  0  0  0  0  0  0  0  0  0  0  0
   11.9392  -17.8604   24.8668 C   0  0  0  0  0  0  0  0  0  0  0  0
   11.1649  -18.6858   24.1072 C   0  0  0  0  0  0  0  0  0  0  0  0
   11.9277  -19.1157   23.0772 N   0  0  0  0  0  0  0  0  0  0  0  0
   13.1408  -18.5781   23.1869 C   0  0  0  0  0  0  0  0  0  0  0  0
   13.1637  -17.8049   24.2805 N   0  0  0  0  0  0  0  0  0  0  0  0
    9.8873  -16.1757   27.5601 C   0  0  0  0  0  0  0  0  0  0  0  0
    9.4945  -14.9997   27.7487 O   0  0  0  0  0  0  0  0  0  0  0  0
   10.0537  -16.9572   28.7111 O   0  0  0  0  0  0  0  0  0  0  0  0
  2  1  1  6
  2  3  1  0
  4  5  2  0
  4  3  1  0
  6  2  1  0
  6  7  2  0
  8  4  1  0
  9  6  1  0
 10  9  1  0
 11 12  1  0
 10 11  1  1
 12 17  2  0
 13 14  2  0
 13 12  1  0
 14 15  1  0
 15 16  2  0
 17 16  1  0
 18 10  1  0
 18 19  2  0
 20 18  1  0
 21 20  1  0
 21 28  1  0
 21 22  1  1
 23 22  1  0
 24 23  2  0
 25 24  1  0
 26 25  1  0
 26 27  2  0
 27 23  1  0
 28 30  1  0
 29 28  2  0
M  END
$$$$
