MNI.pdb
     RDKit          3D

 25 24  0  0  1  0  0  0  0  0999 V2000
    8.2075  -11.4237   19.1913 C   0  0  0  0  0  0  0  0  0  0  0  0
    8.1062  -12.5266   20.6278 S   0  0  0  0  0  0  0  0  0  0  0  0
    7.1955  -14.0301   20.1804 C   0  0  0  0  0  0  0  0  0  0  0  0
    7.0266  -14.8659   21.4386 C   0  0  0  0  0  0  0  0  0  0  0  0
    7.6566  -16.2360   21.1505 C   0  0  2  0  0  0  0  0  0  0  0  0
    6.6071  -17.1318   20.7255 N   0  0  0  0  0  0  0  0  0  0  0  0
    8.2248  -16.7334   22.4250 C   0  0  0  0  0  0  0  0  0  0  0  0
    7.4910  -17.1267   23.3817 O   0  0  0  0  0  0  0  0  0  0  0  0
   12.1694  -19.1755   21.9780 N   0  0  0  0  0  0  0  0  0  0  0  0
   11.4015  -19.1735   23.1756 C   0  0  0  0  0  0  0  0  0  0  0  0
   10.7553  -20.2017   23.4560 O   0  0  0  0  0  0  0  0  0  0  0  0
   11.4125  -17.9537   24.0238 C   0  0  0  0  0  0  0  0  0  0  0  0
   10.1427  -17.2253   23.9444 C   0  0  2  0  0  0  0  0  0  0  0  0
    9.6171  -16.8178   22.7001 N   0  0  0  0  0  0  0  0  0  0  0  0
   10.2674  -16.0245   24.8586 C   0  0  0  0  0  0  0  0  0  0  0  0
   10.9160  -15.0007   24.5115 O   0  0  0  0  0  0  0  0  0  0  0  0
    7.1211  -12.4477   26.0526 C   0  0  0  0  0  0  0  0  0  0  0  0
    8.3924  -13.2800   25.9077 C   0  0  0  0  0  0  0  0  0  0  0  0
    8.7935  -13.9159   27.2089 C   0  0  2  0  0  0  0  0  0  0  0  0
    9.2001  -12.8699   28.2394 C   0  0  0  0  0  0  0  0  0  0  0  0
    9.8873  -14.8587   27.0478 C   0  0  2  0  0  0  0  0  0  0  0  0
    9.6882  -15.9506   26.1351 N   0  0  0  0  0  0  0  0  0  0  0  0
   10.3182  -15.4590   28.3255 C   0  0  0  0  0  0  0  0  0  0  0  0
   10.2010  -16.8548   28.5545 O   0  0  0  0  0  0  0  0  0  0  0  0
   10.8094  -14.8438   29.3020 O   0  0  0  0  0  0  0  0  0  0  0  0
  2  1  1  0
  3  2  1  0
  4  3  1  0
  5  4  1  0
  5  6  1  1
  7  5  1  0
  8  7  2  0
 10  9  1  0
 11 10  2  0
 13 12  1  6
 12 10  1  0
 13 14  1  0
 14  7  1  0
 15 13  1  0
 15 16  2  0
 17 18  1  0
 18 19  1  0
 19 21  1  0
 19 20  1  1
 21 22  1  6
 22 15  1  0
 23 21  1  0
 24 23  1  0
 25 23  2  0
M  END
$$$$
