MNI.pdb
     RDKit          3D

 25 24  0  0  1  0  0  0  0  0999 V2000
    8.5049  -11.5782   20.3680 C   0  0  0  0  0  0  0  0  0  0  0  0
    7.7447  -12.3840   18.9317 S   0  0  0  0  0  0  0  0  0  0  0  0
    8.1431  -14.1535   18.9423 C   0  0  0  0  0  0  0  0  0  0  0  0
    8.1691  -14.6179   20.3894 C   0  0  0  0  0  0  0  0  0  0  0  0
    8.4923  -16.1186   20.3693 C   0  0  2  0  0  0  0  0  0  0  0  0
    7.3982  -16.8045   19.7236 N   0  0  0  0  0  0  0  0  0  0  0  0
    8.5749  -16.5675   21.7786 C   0  0  0  0  0  0  0  0  0  0  0  0
    7.5452  -16.8939   22.4431 O   0  0  0  0  0  0  0  0  0  0  0  0
   11.8717  -19.5678   22.4271 N   0  0  0  0  0  0  0  0  0  0  0  0
   10.7938  -19.3517   23.3300 C   0  0  0  0  0  0  0  0  0  0  0  0
    9.8567  -20.1735   23.3271 O   0  0  0  0  0  0  0  0  0  0  0  0
   10.8435  -18.1662   24.2241 C   0  0  0  0  0  0  0  0  0  0  0  0
    9.8561  -17.1534   23.8388 C   0  0  2  0  0  0  0  0  0  0  0  0
    9.7874  -16.6751   22.5132 N   0  0  0  0  0  0  0  0  0  0  0  0
   10.0295  -15.9871   24.7890 C   0  0  0  0  0  0  0  0  0  0  0  0
   10.9751  -15.1647   24.6520 O   0  0  0  0  0  0  0  0  0  0  0  0
    6.2540  -12.5779   26.2049 C   0  0  0  0  0  0  0  0  0  0  0  0
    7.5535  -13.3100   25.8804 C   0  0  0  0  0  0  0  0  0  0  0  0
    8.2301  -13.8211   27.1211 C   0  0  2  0  0  0  0  0  0  0  0  0
    8.6915  -12.6779   28.0164 C   0  0  0  0  0  0  0  0  0  0  0  0
    9.3740  -14.6642   26.8179 C   0  0  2  0  0  0  0  0  0  0  0  0
    9.1767  -15.7293   25.8738 N   0  0  0  0  0  0  0  0  0  0  0  0
    9.9656  -15.2805   28.0214 C   0  0  0  0  0  0  0  0  0  0  0  0
    9.8512  -16.6748   28.2610 O   0  0  0  0  0  0  0  0  0  0  0  0
   10.6013  -14.6812   28.9215 O   0  0  0  0  0  0  0  0  0  0  0  0
  2  1  1  0
  3  2  1  0
  4  3  1  0
  5  4  1  0
  5  6  1  6
  7  5  1  0
  8  7  2  0
 10  9  1  0
 11 10  2  0
 13 12  1  6
 12 10  1  0
 13 14  1  0
 14  7  1  0
 15 13  1  0
 15 16  2  0
 17 18  1  0
 18 19  1  0
 19 21  1  0
 19 20  1  1
 21 22  1  6
 22 15  1  0
 23 21  1  0
 24 23  1  0
 25 23  2  0
M  END
$$$$
