MNI.pdb
     RDKit          3D

 25 24  0  0  1  0  0  0  0  0999 V2000
    8.9026  -12.4145   19.5565 C   0  0  0  0  0  0  0  0  0  0  0  0
    7.8186  -12.7781   18.1483 S   0  0  0  0  0  0  0  0  0  0  0  0
    7.2067  -14.4811   18.2724 C   0  0  0  0  0  0  0  0  0  0  0  0
    6.8382  -14.7406   19.7241 C   0  0  0  0  0  0  0  0  0  0  0  0
    8.1340  -15.1311   20.4490 C   0  0  2  0  0  0  0  0  0  0  0  0
    8.7141  -16.2568   19.7556 N   0  0  0  0  0  0  0  0  0  0  0  0
    7.7592  -15.5529   21.8188 C   0  0  0  0  0  0  0  0  0  0  0  0
    7.0890  -14.8057   22.5940 O   0  0  0  0  0  0  0  0  0  0  0  0
    6.0151  -19.0239   25.8087 N   0  0  0  0  0  0  0  0  0  0  0  0
    7.3876  -18.7787   25.5258 C   0  0  0  0  0  0  0  0  0  0  0  0
    8.1806  -18.7257   26.4859 O   0  0  0  0  0  0  0  0  0  0  0  0
    7.7999  -18.6021   24.1094 C   0  0  0  0  0  0  0  0  0  0  0  0
    7.7369  -17.1969   23.6964 C   0  0  2  0  0  0  0  0  0  0  0  0
    8.1047  -16.8076   22.3912 N   0  0  0  0  0  0  0  0  0  0  0  0
    8.5420  -16.4059   24.7060 C   0  0  0  0  0  0  0  0  0  0  0  0
    9.7893  -16.2677   24.5866 O   0  0  0  0  0  0  0  0  0  0  0  0
    6.0560  -12.0365   26.5548 C   0  0  0  0  0  0  0  0  0  0  0  0
    7.0911  -13.0131   26.0027 C   0  0  0  0  0  0  0  0  0  0  0  0
    7.8856  -13.6627   27.1005 C   0  0  2  0  0  0  0  0  0  0  0  0
    8.8261  -12.6694   27.7716 C   0  0  0  0  0  0  0  0  0  0  0  0
    8.6663  -14.7911   26.6227 C   0  0  2  0  0  0  0  0  0  0  0  0
    7.9842  -15.7769   25.8302 N   0  0  0  0  0  0  0  0  0  0  0  0
    9.3362  -15.5262   27.7132 C   0  0  0  0  0  0  0  0  0  0  0  0
   10.5394  -15.0427   28.2903 O   0  0  0  0  0  0  0  0  0  0  0  0
    8.9455  -16.6012   28.2282 O   0  0  0  0  0  0  0  0  0  0  0  0
  2  1  1  0
  3  2  1  0
  4  3  1  0
  5  4  1  0
  5  6  1  6
  7  5  1  0
  8  7  2  0
 10  9  1  0
 11 10  2  0
 13 12  1  6
 12 10  1  0
 13 14  1  0
 14  7  1  0
 15 13  1  0
 15 16  2  0
 17 18  1  0
 18 19  1  0
 19 21  1  0
 19 20  1  6
 21 22  1  1
 22 15  1  0
 23 21  1  0
 24 23  1  0
 25 23  2  0
M  END
$$$$
