MNI.pdb
     RDKit          3D

 25 24  0  0  1  0  0  0  0  0999 V2000
    8.5756  -11.2931   20.5010 C   0  0  0  0  0  0  0  0  0  0  0  0
    7.3720  -12.3159   19.6091 S   0  0  0  0  0  0  0  0  0  0  0  0
    8.0280  -13.9949   19.4074 C   0  0  0  0  0  0  0  0  0  0  0  0
    8.0301  -14.6629   20.7727 C   0  0  0  0  0  0  0  0  0  0  0  0
    8.6094  -16.0712   20.5781 C   0  0  2  0  0  0  0  0  0  0  0  0
    7.6143  -16.8775   19.9116 N   0  0  0  0  0  0  0  0  0  0  0  0
    8.8573  -16.6328   21.9264 C   0  0  0  0  0  0  0  0  0  0  0  0
    7.9300  -17.1450   22.6237 O   0  0  0  0  0  0  0  0  0  0  0  0
   10.9566  -20.2497   23.1732 N   0  0  0  0  0  0  0  0  0  0  0  0
   11.6969  -19.0368   23.1050 C   0  0  0  0  0  0  0  0  0  0  0  0
   12.4886  -18.8892   22.1537 O   0  0  0  0  0  0  0  0  0  0  0  0
   11.4864  -18.0162   24.1640 C   0  0  0  0  0  0  0  0  0  0  0  0
   10.3413  -17.1512   23.8649 C   0  0  2  0  0  0  0  0  0  0  0  0
   10.1290  -16.6540   22.5617 N   0  0  0  0  0  0  0  0  0  0  0  0
   10.3949  -15.9973   24.8441 C   0  0  0  0  0  0  0  0  0  0  0  0
   11.4708  -15.3817   25.0739 O   0  0  0  0  0  0  0  0  0  0  0  0
    6.4793  -12.2702   25.7710 C   0  0  0  0  0  0  0  0  0  0  0  0
    7.7600  -13.0761   25.5706 C   0  0  0  0  0  0  0  0  0  0  0  0
    8.2272  -13.7079   26.8516 C   0  0  2  0  0  0  0  0  0  0  0  0
    8.6090  -12.6561   27.8858 C   0  0  0  0  0  0  0  0  0  0  0  0
    9.3618  -14.5925   26.6485 C   0  0  2  0  0  0  0  0  0  0  0  0
    9.2827  -15.5277   25.5603 N   0  0  0  0  0  0  0  0  0  0  0  0
    9.6946  -15.3816   27.8505 C   0  0  0  0  0  0  0  0  0  0  0  0
   10.4733  -14.8252   28.8987 O   0  0  0  0  0  0  0  0  0  0  0  0
    9.3499  -16.5666   28.0749 O   0  0  0  0  0  0  0  0  0  0  0  0
  2  1  1  0
  3  2  1  0
  4  3  1  0
  5  4  1  0
  5  6  1  1
  7  5  1  0
  8  7  2  0
 10  9  1  0
 11 10  2  0
 13 12  1  6
 12 10  1  0
 13 14  1  0
 14  7  1  0
 15 13  1  0
 15 16  2  0
 17 18  1  0
 18 19  1  0
 19 21  1  0
 19 20  1  1
 21 22  1  6
 22 15  1  0
 23 21  1  0
 24 23  1  0
 25 23  2  0
M  END
$$$$
