MNI.pdb
     RDKit          3D

 25 24  0  0  1  0  0  0  0  0999 V2000
    7.4989  -12.0616   21.2783 C   0  0  0  0  0  0  0  0  0  0  0  0
    6.1368  -13.2072   20.9285 S   0  0  0  0  0  0  0  0  0  0  0  0
    6.7992  -14.8672   20.6190 C   0  0  0  0  0  0  0  0  0  0  0  0
    7.7439  -15.2131   21.7584 C   0  0  0  0  0  0  0  0  0  0  0  0
    8.3382  -16.5925   21.4403 C   0  0  2  0  0  0  0  0  0  0  0  0
    7.2926  -17.5767   21.5898 N   0  0  0  0  0  0  0  0  0  0  0  0
    9.3933  -16.8571   22.4459 C   0  0  0  0  0  0  0  0  0  0  0  0
    9.4158  -17.9218   23.1345 O   0  0  0  0  0  0  0  0  0  0  0  0
   14.4095  -17.7077   23.4948 N   0  0  0  0  0  0  0  0  0  0  0  0
   14.0743  -16.3492   23.7514 C   0  0  0  0  0  0  0  0  0  0  0  0
   14.7531  -15.7299   24.5935 O   0  0  0  0  0  0  0  0  0  0  0  0
   12.9412  -15.7444   23.0046 C   0  0  0  0  0  0  0  0  0  0  0  0
   11.6621  -16.3649   23.3622 C   0  0  2  0  0  0  0  0  0  0  0  0
   10.4625  -15.9658   22.7358 N   0  0  0  0  0  0  0  0  0  0  0  0
   11.5158  -16.2357   24.8639 C   0  0  0  0  0  0  0  0  0  0  0  0
   12.4419  -16.5838   25.6452 O   0  0  0  0  0  0  0  0  0  0  0  0
    7.9403  -12.3853   26.5395 C   0  0  0  0  0  0  0  0  0  0  0  0
    9.1426  -13.2747   26.2341 C   0  0  0  0  0  0  0  0  0  0  0  0
    9.3019  -14.3662   27.2547 C   0  0  2  0  0  0  0  0  0  0  0  0
    9.6524  -13.8014   28.6257 C   0  0  0  0  0  0  0  0  0  0  0  0
   10.3202  -15.3310   26.8760 C   0  0  2  0  0  0  0  0  0  0  0  0
   10.3686  -15.7322   25.4970 N   0  0  0  0  0  0  0  0  0  0  0  0
   10.2531  -16.5746   27.6679 C   0  0  0  0  0  0  0  0  0  0  0  0
   11.0585  -16.7508   28.8233 O   0  0  0  0  0  0  0  0  0  0  0  0
    9.5204  -17.5642   27.4282 O   0  0  0  0  0  0  0  0  0  0  0  0
  2  1  1  0
  3  2  1  0
  4  3  1  0
  5  4  1  0
  5  6  1  1
  7  5  1  0
  8  7  2  0
 10  9  1  0
 11 10  2  0
 13 12  1  6
 12 10  1  0
 13 14  1  0
 14  7  1  0
 15 13  1  0
 15 16  2  0
 17 18  1  0
 18 19  1  0
 19 21  1  0
 19 20  1  1
 21 22  1  6
 22 15  1  0
 23 21  1  0
 24 23  1  0
 25 23  2  0
M  END
$$$$
