MNI.pdb
     RDKit          3D

 25 24  0  0  1  0  0  0  0  0999 V2000
    8.0162  -11.6938   18.7180 C   0  0  0  0  0  0  0  0  0  0  0  0
    7.5530  -12.8917   17.4371 S   0  0  0  0  0  0  0  0  0  0  0  0
    7.7657  -14.5774   18.0719 C   0  0  0  0  0  0  0  0  0  0  0  0
    7.4535  -14.5595   19.5593 C   0  0  0  0  0  0  0  0  0  0  0  0
    8.5067  -15.4408   20.2456 C   0  0  2  0  0  0  0  0  0  0  0  0
    8.6515  -16.6514   19.4723 N   0  0  0  0  0  0  0  0  0  0  0  0
    7.9807  -15.7881   21.5863 C   0  0  0  0  0  0  0  0  0  0  0  0
    7.3147  -14.9638   22.2829 O   0  0  0  0  0  0  0  0  0  0  0  0
    5.8620  -18.8356   25.6585 N   0  0  0  0  0  0  0  0  0  0  0  0
    7.2670  -18.7856   25.4407 C   0  0  0  0  0  0  0  0  0  0  0  0
    8.0132  -18.8076   26.4387 O   0  0  0  0  0  0  0  0  0  0  0  0
    7.7666  -18.7122   24.0434 C   0  0  0  0  0  0  0  0  0  0  0  0
    7.7186  -17.3435   23.5205 C   0  0  2  0  0  0  0  0  0  0  0  0
    8.1647  -17.0502   22.2145 N   0  0  0  0  0  0  0  0  0  0  0  0
    8.4522  -16.4676   24.5143 C   0  0  0  0  0  0  0  0  0  0  0  0
    9.7060  -16.3418   24.4769 O   0  0  0  0  0  0  0  0  0  0  0  0
    5.7876  -12.2239   27.4332 C   0  0  0  0  0  0  0  0  0  0  0  0
    6.4988  -13.5639   27.2642 C   0  0  0  0  0  0  0  0  0  0  0  0
    7.7320  -13.4372   26.4148 C   0  0  2  0  0  0  0  0  0  0  0  0
    7.3978  -12.9276   25.0183 C   0  0  0  0  0  0  0  0  0  0  0  0
    8.4480  -14.6954   26.2907 C   0  0  2  0  0  0  0  0  0  0  0  0
    7.8171  -15.7416   25.5342 N   0  0  0  0  0  0  0  0  0  0  0  0
    8.8020  -15.2836   27.5973 C   0  0  0  0  0  0  0  0  0  0  0  0
    9.6185  -14.5788   28.5199 O   0  0  0  0  0  0  0  0  0  0  0  0
    8.4451  -16.4086   28.0218 O   0  0  0  0  0  0  0  0  0  0  0  0
  2  1  1  0
  3  2  1  0
  4  3  1  0
  5  4  1  0
  5  6  1  6
  7  5  1  0
  8  7  2  0
 10  9  1  0
 11 10  2  0
 13 12  1  1
 12 10  1  0
 13 14  1  0
 14  7  1  0
 15 13  1  0
 15 16  2  0
 17 18  1  0
 18 19  1  0
 19 21  1  0
 19 20  1  6
 21 22  1  1
 22 15  1  0
 23 21  1  0
 24 23  1  0
 25 23  2  0
M  END
$$$$
