MNI.pdb
     RDKit          3D

 25 24  0  0  1  0  0  0  0  0999 V2000
    9.1119  -12.4514   19.5819 C   0  0  0  0  0  0  0  0  0  0  0  0
    7.5712  -12.5340   20.5356 S   0  0  0  0  0  0  0  0  0  0  0  0
    7.3678  -14.1996   21.2243 C   0  0  0  0  0  0  0  0  0  0  0  0
    7.3530  -15.1850   20.0671 C   0  0  0  0  0  0  0  0  0  0  0  0
    7.1277  -16.5780   20.6719 C   0  0  2  0  0  0  0  0  0  0  0  0
    6.0642  -16.4786   21.6434 N   0  0  0  0  0  0  0  0  0  0  0  0
    8.3784  -16.9608   21.3675 C   0  0  0  0  0  0  0  0  0  0  0  0
    9.0845  -17.9447   20.9910 O   0  0  0  0  0  0  0  0  0  0  0  0
   11.3574  -19.0671   21.8431 N   0  0  0  0  0  0  0  0  0  0  0  0
   11.4574  -17.7121   21.4212 C   0  0  0  0  0  0  0  0  0  0  0  0
   11.6052  -17.4896   20.2038 O   0  0  0  0  0  0  0  0  0  0  0  0
   11.3787  -16.6413   22.4481 C   0  0  0  0  0  0  0  0  0  0  0  0
   10.0944  -16.6594   23.1546 C   0  0  2  0  0  0  0  0  0  0  0  0
    8.9022  -16.2816   22.5014 N   0  0  0  0  0  0  0  0  0  0  0  0
   10.2704  -15.8270   24.4073 C   0  0  0  0  0  0  0  0  0  0  0  0
   11.4103  -15.4424   24.7842 O   0  0  0  0  0  0  0  0  0  0  0  0
    6.5046  -12.2091   25.9662 C   0  0  0  0  0  0  0  0  0  0  0  0
    7.7842  -12.9690   25.6269 C   0  0  0  0  0  0  0  0  0  0  0  0
    8.2956  -13.7523   26.8030 C   0  0  2  0  0  0  0  0  0  0  0  0
    8.7877  -12.8334   27.9143 C   0  0  0  0  0  0  0  0  0  0  0  0
    9.3727  -14.6564   26.4372 C   0  0  2  0  0  0  0  0  0  0  0  0
    9.2094  -15.4241   25.2334 N   0  0  0  0  0  0  0  0  0  0  0  0
    9.6964  -15.6225   27.5049 C   0  0  0  0  0  0  0  0  0  0  0  0
   10.4723  -15.2376   28.6294 O   0  0  0  0  0  0  0  0  0  0  0  0
    9.3457  -16.8262   27.5429 O   0  0  0  0  0  0  0  0  0  0  0  0
  2  1  1  0
  3  2  1  0
  4  3  1  0
  5  4  1  0
  5  6  1  1
  7  5  1  0
  8  7  2  0
 10  9  1  0
 11 10  2  0
 13 12  1  6
 12 10  1  0
 13 14  1  0
 14  7  1  0
 15 13  1  0
 15 16  2  0
 17 18  1  0
 18 19  1  0
 19 21  1  0
 19 20  1  1
 21 22  1  6
 22 15  1  0
 23 21  1  0
 24 23  1  0
 25 23  2  0
M  END
$$$$
