MNI.pdb
     RDKit          3D

 25 24  0  0  1  0  0  0  0  0999 V2000
    2.5063  -18.9024   20.4215 C   0  0  0  0  0  0  0  0  0  0  0  0
    2.5295  -18.7316   22.2272 S   0  0  0  0  0  0  0  0  0  0  0  0
    4.2386  -18.5269   22.7993 C   0  0  0  0  0  0  0  0  0  0  0  0
    5.1431  -19.3036   21.8565 C   0  0  0  0  0  0  0  0  0  0  0  0
    6.5871  -19.0341   22.3027 C   0  0  2  0  0  0  0  0  0  0  0  0
    6.5516  -18.5234   23.6527 N   0  0  0  0  0  0  0  0  0  0  0  0
    7.1336  -17.9872   21.4082 C   0  0  0  0  0  0  0  0  0  0  0  0
    6.5855  -17.6919   20.3033 O   0  0  0  0  0  0  0  0  0  0  0  0
    7.8749  -13.1565   19.8187 N   0  0  0  0  0  0  0  0  0  0  0  0
    7.4625  -13.5985   21.1065 C   0  0  0  0  0  0  0  0  0  0  0  0
    7.3830  -12.7506   22.0165 O   0  0  0  0  0  0  0  0  0  0  0  0
    7.1485  -15.0383   21.2959 C   0  0  0  0  0  0  0  0  0  0  0  0
    8.3461  -15.8166   21.6261 C   0  0  2  0  0  0  0  0  0  0  0  0
    8.3006  -17.2254   21.6894 N   0  0  0  0  0  0  0  0  0  0  0  0
    8.8796  -15.2685   22.9330 C   0  0  0  0  0  0  0  0  0  0  0  0
   10.0455  -14.7967   23.0190 O   0  0  0  0  0  0  0  0  0  0  0  0
    6.8663  -11.5479   25.9508 C   0  0  0  0  0  0  0  0  0  0  0  0
    7.7500  -12.5764   25.2501 C   0  0  0  0  0  0  0  0  0  0  0  0
    7.9945  -13.7818   26.1136 C   0  0  2  0  0  0  0  0  0  0  0  0
    8.8048  -13.4251   27.3536 C   0  0  0  0  0  0  0  0  0  0  0  0
    8.6834  -14.8423   25.3980 C   0  0  2  0  0  0  0  0  0  0  0  0
    8.1427  -15.2401   24.1275 N   0  0  0  0  0  0  0  0  0  0  0  0
    8.8196  -16.0764   26.1960 C   0  0  0  0  0  0  0  0  0  0  0  0
    9.7222  -16.1451   27.2893 O   0  0  0  0  0  0  0  0  0  0  0  0
    8.1918  -17.1469   26.0135 O   0  0  0  0  0  0  0  0  0  0  0  0
  2  1  1  0
  3  2  1  0
  4  3  1  0
  5  4  1  0
  5  6  1  1
  7  5  1  0
  8  7  2  0
 10  9  1  0
 11 10  2  0
 13 12  1  1
 12 10  1  0
 13 14  1  0
 14  7  1  0
 15 13  1  0
 15 16  2  0
 17 18  1  0
 18 19  1  0
 19 21  1  0
 19 20  1  1
 21 22  1  6
 22 15  1  0
 23 21  1  0
 24 23  1  0
 25 23  2  0
M  END
$$$$
