MNI.pdb
     RDKit          3D

 25 24  0  0  1  0  0  0  0  0999 V2000
    7.7851  -11.7678   19.4475 C   0  0  0  0  0  0  0  0  0  0  0  0
    7.9093  -12.5807   17.8307 S   0  0  0  0  0  0  0  0  0  0  0  0
    8.3775  -14.3186   18.0553 C   0  0  0  0  0  0  0  0  0  0  0  0
    7.7405  -14.8112   19.3445 C   0  0  0  0  0  0  0  0  0  0  0  0
    8.8336  -15.5550   20.1248 C   0  0  2  0  0  0  0  0  0  0  0  0
    9.2330  -16.7063   19.3505 N   0  0  0  0  0  0  0  0  0  0  0  0
    8.2269  -16.0180   21.3945 C   0  0  0  0  0  0  0  0  0  0  0  0
    7.3284  -15.3532   21.9936 O   0  0  0  0  0  0  0  0  0  0  0  0
    6.3673  -19.4490   25.3476 N   0  0  0  0  0  0  0  0  0  0  0  0
    7.7363  -19.0805   25.2294 C   0  0  0  0  0  0  0  0  0  0  0  0
    8.3853  -18.9030   26.2785 O   0  0  0  0  0  0  0  0  0  0  0  0
    8.3160  -18.9300   23.8697 C   0  0  0  0  0  0  0  0  0  0  0  0
    8.1116  -17.5791   23.3385 C   0  0  2  0  0  0  0  0  0  0  0  0
    8.5819  -17.2254   22.0561 N   0  0  0  0  0  0  0  0  0  0  0  0
    8.6679  -16.6147   24.3650 C   0  0  0  0  0  0  0  0  0  0  0  0
    9.9037  -16.3772   24.4395 O   0  0  0  0  0  0  0  0  0  0  0  0
    7.2015  -11.0738   26.1749 C   0  0  0  0  0  0  0  0  0  0  0  0
    8.0250  -12.3267   26.4612 C   0  0  0  0  0  0  0  0  0  0  0  0
    7.4683  -13.5324   25.7578 C   0  0  2  0  0  0  0  0  0  0  0  0
    6.0476  -13.8388   26.2152 C   0  0  0  0  0  0  0  0  0  0  0  0
    8.2866  -14.7158   25.9604 C   0  0  2  0  0  0  0  0  0  0  0  0
    7.8775  -15.9224   25.2959 N   0  0  0  0  0  0  0  0  0  0  0  0
    8.4496  -15.0617   27.3859 C   0  0  0  0  0  0  0  0  0  0  0  0
    7.9948  -16.3068   27.8934 O   0  0  0  0  0  0  0  0  0  0  0  0
    8.9773  -14.3397   28.2654 O   0  0  0  0  0  0  0  0  0  0  0  0
  2  1  1  0
  3  2  1  0
  4  3  1  0
  5  4  1  0
  5  6  1  6
  7  5  1  0
  8  7  2  0
 10  9  1  0
 11 10  2  0
 13 12  1  1
 12 10  1  0
 13 14  1  0
 14  7  1  0
 15 13  1  0
 15 16  2  0
 17 18  1  0
 18 19  1  0
 19 21  1  0
 19 20  1  1
 21 22  1  6
 22 15  1  0
 23 21  1  0
 24 23  1  0
 25 23  2  0
M  END
$$$$
