MNI.pdb
     RDKit          3D

 25 24  0  0  1  0  0  0  0  0999 V2000
    7.9584  -11.5552   20.3291 C   0  0  0  0  0  0  0  0  0  0  0  0
    7.0387  -12.4588   19.0532 S   0  0  0  0  0  0  0  0  0  0  0  0
    7.6256  -14.1733   18.9762 C   0  0  0  0  0  0  0  0  0  0  0  0
    8.3029  -14.4951   20.2984 C   0  0  0  0  0  0  0  0  0  0  0  0
    8.9109  -15.8977   20.1569 C   0  0  2  0  0  0  0  0  0  0  0  0
    7.8298  -16.8413   19.9976 N   0  0  0  0  0  0  0  0  0  0  0  0
    9.6245  -16.1950   21.4207 C   0  0  0  0  0  0  0  0  0  0  0  0
   10.6570  -15.5514   21.7787 O   0  0  0  0  0  0  0  0  0  0  0  0
   11.3615  -19.5151   25.2771 N   0  0  0  0  0  0  0  0  0  0  0  0
   12.0483  -18.6031   24.4283 C   0  0  0  0  0  0  0  0  0  0  0  0
   13.1748  -18.2080   24.7865 O   0  0  0  0  0  0  0  0  0  0  0  0
   11.3906  -18.1745   23.1669 C   0  0  0  0  0  0  0  0  0  0  0  0
   10.0454  -17.6444   23.4085 C   0  0  2  0  0  0  0  0  0  0  0  0
    9.2351  -17.2082   22.3390 N   0  0  0  0  0  0  0  0  0  0  0  0
   10.1885  -16.5287   24.4224 C   0  0  0  0  0  0  0  0  0  0  0  0
   11.1227  -15.6861   24.3427 O   0  0  0  0  0  0  0  0  0  0  0  0
    7.2571  -11.9816   26.7192 C   0  0  0  0  0  0  0  0  0  0  0  0
    8.3429  -13.0130   27.0146 C   0  0  0  0  0  0  0  0  0  0  0  0
    8.2225  -14.2190   26.1261 C   0  0  2  0  0  0  0  0  0  0  0  0
    6.8953  -14.9371   26.3366 C   0  0  0  0  0  0  0  0  0  0  0  0
    9.3024  -15.1683   26.3356 C   0  0  2  0  0  0  0  0  0  0  0  0
    9.3181  -16.3428   25.5079 N   0  0  0  0  0  0  0  0  0  0  0  0
    9.3848  -15.6425   27.7308 C   0  0  0  0  0  0  0  0  0  0  0  0
    9.7446  -14.7608   28.7834 O   0  0  0  0  0  0  0  0  0  0  0  0
    9.1605  -16.8109   28.1282 O   0  0  0  0  0  0  0  0  0  0  0  0
  2  1  1  0
  3  2  1  0
  4  3  1  0
  5  4  1  0
  5  6  1  1
  7  5  1  0
  8  7  2  0
 10  9  1  0
 11 10  2  0
 13 12  1  6
 12 10  1  0
 13 14  1  0
 14  7  1  0
 15 13  1  0
 15 16  2  0
 17 18  1  0
 18 19  1  0
 19 21  1  0
 19 20  1  1
 21 22  1  6
 22 15  1  0
 23 21  1  0
 24 23  1  0
 25 23  2  0
M  END
$$$$
