MNI.pdb
     RDKit          3D

 25 24  0  0  1  0  0  0  0  0999 V2000
    7.7418  -11.7677   20.0667 C   0  0  0  0  0  0  0  0  0  0  0  0
    8.6327  -12.9150   18.9804 S   0  0  0  0  0  0  0  0  0  0  0  0
    7.5349  -14.2757   18.4974 C   0  0  0  0  0  0  0  0  0  0  0  0
    6.8537  -14.7947   19.7531 C   0  0  0  0  0  0  0  0  0  0  0  0
    7.4689  -16.1679   20.0578 C   0  0  2  0  0  0  0  0  0  0  0  0
    6.8813  -17.1323   19.1582 N   0  0  0  0  0  0  0  0  0  0  0  0
    7.0933  -16.5173   21.4475 C   0  0  0  0  0  0  0  0  0  0  0  0
    5.9490  -16.2488   21.9239 O   0  0  0  0  0  0  0  0  0  0  0  0
    6.5129  -17.6499   26.1835 N   0  0  0  0  0  0  0  0  0  0  0  0
    7.1744  -18.8019   25.6745 C   0  0  0  0  0  0  0  0  0  0  0  0
    7.2483  -19.8051   26.4104 O   0  0  0  0  0  0  0  0  0  0  0  0
    7.7366  -18.7485   24.3003 C   0  0  0  0  0  0  0  0  0  0  0  0
    7.6223  -17.4079   23.7183 C   0  0  2  0  0  0  0  0  0  0  0  0
    7.9564  -17.1728   22.3678 N   0  0  0  0  0  0  0  0  0  0  0  0
    8.4181  -16.4743   24.6061 C   0  0  0  0  0  0  0  0  0  0  0  0
    9.6740  -16.4031   24.5240 O   0  0  0  0  0  0  0  0  0  0  0  0
    6.0211  -11.8305   26.4158 C   0  0  0  0  0  0  0  0  0  0  0  0
    6.9857  -12.8426   25.8034 C   0  0  0  0  0  0  0  0  0  0  0  0
    7.8196  -13.5229   26.8523 C   0  0  2  0  0  0  0  0  0  0  0  0
    8.7942  -12.5518   27.5070 C   0  0  0  0  0  0  0  0  0  0  0  0
    8.5717  -14.6449   26.3168 C   0  0  2  0  0  0  0  0  0  0  0  0
    7.8418  -15.6321   25.5701 N   0  0  0  0  0  0  0  0  0  0  0  0
    9.3205  -15.3796   27.3549 C   0  0  0  0  0  0  0  0  0  0  0  0
   10.5171  -14.8513   27.9060 O   0  0  0  0  0  0  0  0  0  0  0  0
    9.0074  -16.4914   27.8439 O   0  0  0  0  0  0  0  0  0  0  0  0
  2  1  1  0
  3  2  1  0
  4  3  1  0
  5  4  1  0
  5  6  1  6
  7  5  1  0
  8  7  2  0
 10  9  1  0
 11 10  2  0
 13 12  1  1
 12 10  1  0
 13 14  1  0
 14  7  1  0
 15 13  1  0
 15 16  2  0
 17 18  1  0
 18 19  1  0
 19 21  1  0
 19 20  1  6
 21 22  1  1
 22 15  1  0
 23 21  1  0
 24 23  1  0
 25 23  2  0
M  END
$$$$
