MNI.pdb
     RDKit          3D

 25 24  0  0  1  0  0  0  0  0999 V2000
    9.1449  -12.7135   20.3064 C   0  0  0  0  0  0  0  0  0  0  0  0
    7.8712  -12.8689   19.0244 S   0  0  0  0  0  0  0  0  0  0  0  0
    7.6537  -14.6160   18.5882 C   0  0  0  0  0  0  0  0  0  0  0  0
    6.6675  -15.2240   19.5722 C   0  0  0  0  0  0  0  0  0  0  0  0
    7.1900  -16.6258   19.9169 C   0  0  2  0  0  0  0  0  0  0  0  0
    6.5288  -17.5758   19.0539 N   0  0  0  0  0  0  0  0  0  0  0  0
    6.8050  -16.9038   21.3202 C   0  0  0  0  0  0  0  0  0  0  0  0
    5.7862  -17.5995   21.6140 O   0  0  0  0  0  0  0  0  0  0  0  0
    6.3694  -17.7342   26.2642 N   0  0  0  0  0  0  0  0  0  0  0  0
    7.2121  -18.6051   25.5191 C   0  0  0  0  0  0  0  0  0  0  0  0
    7.7473  -19.5558   26.1217 O   0  0  0  0  0  0  0  0  0  0  0  0
    7.4064  -18.3373   24.0706 C   0  0  0  0  0  0  0  0  0  0  0  0
    7.3086  -16.9070   23.7646 C   0  0  2  0  0  0  0  0  0  0  0  0
    7.5203  -16.4299   22.4539 N   0  0  0  0  0  0  0  0  0  0  0  0
    8.2379  -16.1888   24.7206 C   0  0  0  0  0  0  0  0  0  0  0  0
    9.4904  -16.2674   24.6008 O   0  0  0  0  0  0  0  0  0  0  0  0
    5.8798  -11.8468   27.6643 C   0  0  0  0  0  0  0  0  0  0  0  0
    6.5543  -13.1804   27.3536 C   0  0  0  0  0  0  0  0  0  0  0  0
    7.7209  -13.0111   26.4215 C   0  0  2  0  0  0  0  0  0  0  0  0
    7.2700  -12.5502   25.0410 C   0  0  0  0  0  0  0  0  0  0  0  0
    8.4909  -14.2344   26.2739 C   0  0  2  0  0  0  0  0  0  0  0  0
    7.7968  -15.3969   25.7924 N   0  0  0  0  0  0  0  0  0  0  0  0
    9.1645  -14.6408   27.5226 C   0  0  0  0  0  0  0  0  0  0  0  0
    8.9492  -15.9259   28.0855 O   0  0  0  0  0  0  0  0  0  0  0  0
    9.9594  -13.9407   28.1946 O   0  0  0  0  0  0  0  0  0  0  0  0
  2  1  1  0
  3  2  1  0
  4  3  1  0
  5  4  1  0
  5  6  1  6
  7  5  1  0
  8  7  2  0
 10  9  1  0
 11 10  2  0
 13 12  1  6
 12 10  1  0
 13 14  1  0
 14  7  1  0
 15 13  1  0
 15 16  2  0
 17 18  1  0
 18 19  1  0
 19 21  1  0
 19 20  1  6
 21 22  1  1
 22 15  1  0
 23 21  1  0
 24 23  1  0
 25 23  2  0
M  END
$$$$
