MNI.pdb
     RDKit          3D

 25 24  0  0  1  0  0  0  0  0999 V2000
    7.3144  -11.6507   19.8558 C   0  0  0  0  0  0  0  0  0  0  0  0
    7.5133  -12.7862   18.4553 S   0  0  0  0  0  0  0  0  0  0  0  0
    8.6086  -14.1526   18.9278 C   0  0  0  0  0  0  0  0  0  0  0  0
    8.2452  -14.5752   20.3419 C   0  0  0  0  0  0  0  0  0  0  0  0
    9.4643  -15.3132   20.9128 C   0  0  2  0  0  0  0  0  0  0  0  0
    9.7146  -16.4712   20.0878 N   0  0  0  0  0  0  0  0  0  0  0  0
    9.1033  -15.7650   22.2767 C   0  0  0  0  0  0  0  0  0  0  0  0
    8.6000  -14.9792   23.1356 O   0  0  0  0  0  0  0  0  0  0  0  0
   11.2493  -19.9859   25.0914 N   0  0  0  0  0  0  0  0  0  0  0  0
   10.3849  -19.4988   24.0719 C   0  0  0  0  0  0  0  0  0  0  0  0
   10.7640  -19.5985   22.8888 O   0  0  0  0  0  0  0  0  0  0  0  0
    9.0833  -18.9029   24.4697 C   0  0  0  0  0  0  0  0  0  0  0  0
    8.9859  -17.4954   24.0714 C   0  0  2  0  0  0  0  0  0  0  0  0
    9.2806  -17.0934   22.7515 N   0  0  0  0  0  0  0  0  0  0  0  0
    9.8361  -16.7041   25.0430 C   0  0  0  0  0  0  0  0  0  0  0  0
   11.0478  -16.4542   24.8011 O   0  0  0  0  0  0  0  0  0  0  0  0
    7.8171  -12.5952   28.3829 C   0  0  0  0  0  0  0  0  0  0  0  0
    8.3255  -14.0114   28.1263 C   0  0  0  0  0  0  0  0  0  0  0  0
    9.6273  -14.0087   27.3755 C   0  0  2  0  0  0  0  0  0  0  0  0
    9.4985  -13.2914   26.0375 C   0  0  0  0  0  0  0  0  0  0  0  0
   10.1286  -15.3513   27.1361 C   0  0  2  0  0  0  0  0  0  0  0  0
    9.3615  -16.1959   26.2624 N   0  0  0  0  0  0  0  0  0  0  0  0
   10.3311  -16.1171   28.3814 C   0  0  0  0  0  0  0  0  0  0  0  0
    9.6948  -17.3700   28.5817 O   0  0  0  0  0  0  0  0  0  0  0  0
   11.0463  -15.7723   29.3524 O   0  0  0  0  0  0  0  0  0  0  0  0
  2  1  1  0
  3  2  1  0
  4  3  1  0
  5  4  1  0
  5  6  1  6
  7  5  1  0
  8  7  2  0
 10  9  1  0
 11 10  2  0
 13 12  1  6
 12 10  1  0
 13 14  1  0
 14  7  1  0
 15 13  1  0
 15 16  2  0
 17 18  1  0
 18 19  1  0
 19 21  1  0
 19 20  1  6
 21 22  1  6
 22 15  1  0
 23 21  1  0
 24 23  1  0
 25 23  2  0
M  END
$$$$
