MNI.pdb
     RDKit          3D

 25 24  0  0  1  0  0  0  0  0999 V2000
    8.3799  -11.4992   20.4169 C   0  0  0  0  0  0  0  0  0  0  0  0
    7.1601  -12.5381   19.5664 S   0  0  0  0  0  0  0  0  0  0  0  0
    7.8179  -14.2171   19.3715 C   0  0  0  0  0  0  0  0  0  0  0  0
    8.0212  -14.8033   20.7591 C   0  0  0  0  0  0  0  0  0  0  0  0
    8.4923  -16.2516   20.5656 C   0  0  2  0  0  0  0  0  0  0  0  0
    7.4205  -16.9927   19.9440 N   0  0  0  0  0  0  0  0  0  0  0  0
    8.7454  -16.8133   21.9129 C   0  0  0  0  0  0  0  0  0  0  0  0
    7.8783  -17.5046   22.5283 O   0  0  0  0  0  0  0  0  0  0  0  0
    9.9874  -18.7789   26.1549 N   0  0  0  0  0  0  0  0  0  0  0  0
   11.2232  -18.7985   25.4505 C   0  0  0  0  0  0  0  0  0  0  0  0
   12.1992  -19.3455   25.9999 O   0  0  0  0  0  0  0  0  0  0  0  0
   11.2834  -18.1714   24.1049 C   0  0  0  0  0  0  0  0  0  0  0  0
   10.1959  -17.2089   23.9050 C   0  0  2  0  0  0  0  0  0  0  0  0
    9.9565  -16.6386   22.6369 N   0  0  0  0  0  0  0  0  0  0  0  0
   10.3906  -16.1079   24.9262 C   0  0  0  0  0  0  0  0  0  0  0  0
   11.3730  -15.3204   24.8623 O   0  0  0  0  0  0  0  0  0  0  0  0
    6.5429  -12.8034   26.2023 C   0  0  0  0  0  0  0  0  0  0  0  0
    7.8708  -13.5059   25.9319 C   0  0  0  0  0  0  0  0  0  0  0  0
    8.5298  -13.9606   27.2037 C   0  0  2  0  0  0  0  0  0  0  0  0
    8.9754  -12.7782   28.0551 C   0  0  0  0  0  0  0  0  0  0  0  0
    9.6799  -14.8129   26.9546 C   0  0  2  0  0  0  0  0  0  0  0  0
    9.5188  -15.8765   26.0018 N   0  0  0  0  0  0  0  0  0  0  0  0
   10.2089  -15.4340   28.1845 C   0  0  0  0  0  0  0  0  0  0  0  0
   10.0299  -16.8186   28.4405 O   0  0  0  0  0  0  0  0  0  0  0  0
   10.8413  -14.8472   29.0951 O   0  0  0  0  0  0  0  0  0  0  0  0
  2  1  1  0
  3  2  1  0
  4  3  1  0
  5  4  1  0
  5  6  1  1
  7  5  1  0
  8  7  2  0
 10  9  1  0
 11 10  2  0
 13 12  1  6
 12 10  1  0
 13 14  1  0
 14  7  1  0
 15 13  1  0
 15 16  2  0
 17 18  1  0
 18 19  1  0
 19 21  1  0
 19 20  1  6
 21 22  1  6
 22 15  1  0
 23 21  1  0
 24 23  1  0
 25 23  2  0
M  END
$$$$
