MNI.pdb
     RDKit          3D

 25 24  0  0  1  0  0  0  0  0999 V2000
    8.1321  -11.4915   20.8917 C   0  0  0  0  0  0  0  0  0  0  0  0
    8.2216  -12.5788   19.4426 S   0  0  0  0  0  0  0  0  0  0  0  0
    7.1997  -14.0515   19.7200 C   0  0  0  0  0  0  0  0  0  0  0  0
    7.5700  -14.6284   21.0766 C   0  0  0  0  0  0  0  0  0  0  0  0
    8.1187  -16.0399   20.8250 C   0  0  2  0  0  0  0  0  0  0  0  0
    7.0361  -16.8620   20.3385 N   0  0  0  0  0  0  0  0  0  0  0  0
    8.5751  -16.5714   22.1304 C   0  0  0  0  0  0  0  0  0  0  0  0
    7.7760  -17.1087   22.9556 O   0  0  0  0  0  0  0  0  0  0  0  0
   12.7000  -18.7867   21.9112 N   0  0  0  0  0  0  0  0  0  0  0  0
   11.7130  -18.8853   22.9310 C   0  0  0  0  0  0  0  0  0  0  0  0
   10.9772  -19.8912   22.9354 O   0  0  0  0  0  0  0  0  0  0  0  0
   11.6144  -17.7913   23.9315 C   0  0  0  0  0  0  0  0  0  0  0  0
   10.3465  -17.0642   23.8181 C   0  0  2  0  0  0  0  0  0  0  0  0
    9.9230  -16.5336   22.5813 N   0  0  0  0  0  0  0  0  0  0  0  0
   10.3773  -15.9629   24.8570 C   0  0  0  0  0  0  0  0  0  0  0  0
   11.1499  -14.9735   24.7410 O   0  0  0  0  0  0  0  0  0  0  0  0
    6.2330  -13.3025   26.4552 C   0  0  0  0  0  0  0  0  0  0  0  0
    7.6435  -13.7800   26.1199 C   0  0  0  0  0  0  0  0  0  0  0  0
    8.3774  -14.2528   27.3432 C   0  0  2  0  0  0  0  0  0  0  0  0
    8.6839  -13.0996   28.2906 C   0  0  0  0  0  0  0  0  0  0  0  0
    9.6219  -14.9264   27.0138 C   0  0  2  0  0  0  0  0  0  0  0  0
    9.5715  -15.9499   26.0064 N   0  0  0  0  0  0  0  0  0  0  0  0
   10.2726  -15.5342   28.1908 C   0  0  0  0  0  0  0  0  0  0  0  0
   10.3300  -16.9435   28.3490 O   0  0  0  0  0  0  0  0  0  0  0  0
   10.8191  -14.9146   29.1347 O   0  0  0  0  0  0  0  0  0  0  0  0
  2  1  1  0
  3  2  1  0
  4  3  1  0
  5  4  1  0
  5  6  1  1
  7  5  1  0
  8  7  2  0
 10  9  1  0
 11 10  2  0
 13 12  1  6
 12 10  1  0
 13 14  1  0
 14  7  1  0
 15 13  1  0
 15 16  2  0
 17 18  1  0
 18 19  1  0
 19 21  1  0
 19 20  1  1
 21 22  1  6
 22 15  1  0
 23 21  1  0
 24 23  1  0
 25 23  2  0
M  END
$$$$
