MNI.pdb
     RDKit          3D

 25 24  0  0  1  0  0  0  0  0999 V2000
    7.2695  -11.7352   19.0166 C   0  0  0  0  0  0  0  0  0  0  0  0
    7.3378  -13.1860   17.9300 S   0  0  0  0  0  0  0  0  0  0  0  0
    8.1658  -14.5530   18.7878 C   0  0  0  0  0  0  0  0  0  0  0  0
    9.4175  -13.9997   19.4493 C   0  0  0  0  0  0  0  0  0  0  0  0
   10.1265  -15.1843   20.1207 C   0  0  2  0  0  0  0  0  0  0  0  0
   10.1308  -16.2896   19.1918 N   0  0  0  0  0  0  0  0  0  0  0  0
    9.3239  -15.5590   21.3082 C   0  0  0  0  0  0  0  0  0  0  0  0
    8.9314  -14.6999   22.1545 O   0  0  0  0  0  0  0  0  0  0  0  0
    5.5047  -19.0210   23.9285 N   0  0  0  0  0  0  0  0  0  0  0  0
    6.8734  -18.7327   24.1880 C   0  0  0  0  0  0  0  0  0  0  0  0
    7.2248  -18.5909   25.3754 O   0  0  0  0  0  0  0  0  0  0  0  0
    7.8056  -18.6188   23.0366 C   0  0  0  0  0  0  0  0  0  0  0  0
    8.0897  -17.2196   22.7041 C   0  0  2  0  0  0  0  0  0  0  0  0
    8.9218  -16.8881   21.6140 N   0  0  0  0  0  0  0  0  0  0  0  0
    8.6221  -16.5683   23.9633 C   0  0  0  0  0  0  0  0  0  0  0  0
    9.8592  -16.5092   24.1983 O   0  0  0  0  0  0  0  0  0  0  0  0
    7.1742  -11.5689   27.1400 C   0  0  0  0  0  0  0  0  0  0  0  0
    7.9832  -12.8611   27.0654 C   0  0  0  0  0  0  0  0  0  0  0  0
    7.4585  -13.7867   26.0041 C   0  0  2  0  0  0  0  0  0  0  0  0
    6.0116  -14.1812   26.2731 C   0  0  0  0  0  0  0  0  0  0  0  0
    8.2548  -14.9961   25.8842 C   0  0  2  0  0  0  0  0  0  0  0  0
    7.8066  -15.9912   24.9494 N   0  0  0  0  0  0  0  0  0  0  0  0
    8.4384  -15.6906   27.1735 C   0  0  0  0  0  0  0  0  0  0  0  0
    9.2208  -15.1162   28.2092 O   0  0  0  0  0  0  0  0  0  0  0  0
    7.9541  -16.8041   27.4881 O   0  0  0  0  0  0  0  0  0  0  0  0
  2  1  1  0
  3  2  1  0
  4  3  1  0
  5  4  1  0
  5  6  1  6
  7  5  1  0
  8  7  2  0
 10  9  1  0
 11 10  2  0
 13 12  1  1
 12 10  1  0
 13 14  1  0
 14  7  1  0
 15 13  1  0
 15 16  2  0
 17 18  1  0
 18 19  1  0
 19 21  1  0
 19 20  1  1
 21 22  1  6
 22 15  1  0
 23 21  1  0
 24 23  1  0
 25 23  2  0
M  END
$$$$
