QKK.pdb
     RDKit          3D

 28 27  0  0  1  0  0  0  0  0999 V2000
   11.8397   -9.8161  -10.1583 N   0  0  0  0  0  0  0  0  0  0  0  0
   11.5347  -11.0144  -10.9005 C   0  0  0  0  0  0  0  0  0  0  0  0
   10.4313  -11.0351  -11.4761 O   0  0  0  0  0  0  0  0  0  0  0  0
   12.5252  -12.1094  -10.9304 C   0  0  0  0  0  0  0  0  0  0  0  0
   13.7679  -11.8219  -10.1617 C   0  0  0  0  0  0  0  0  0  0  0  0
   14.9251  -11.6279  -11.0846 C   0  0  2  0  0  0  0  0  0  0  0  0
   15.6785  -12.8836  -11.1104 N   0  0  0  0  0  0  0  0  0  0  0  0
   15.8499  -10.5656  -10.6164 C   0  0  0  0  0  0  0  0  0  0  0  0
   16.5496  -10.7716   -9.5780 O   0  0  0  0  0  0  0  0  0  0  0  0
   15.9348   -9.3547  -11.3279 N   0  0  0  0  0  0  0  0  0  0  0  0
   16.7998   -8.2689  -10.7791 C   0  0  1  0  0  0  0  0  0  0  0  0
   17.8635   -8.0182  -11.8186 C   0  0  0  0  0  0  0  0  0  0  0  0
   18.7966   -6.9149  -11.4881 C   0  0  0  0  0  0  0  0  0  0  0  0
   19.8231   -6.6922  -12.5672 C   0  0  0  0  0  0  0  0  0  0  0  0
   20.7781   -5.5803  -12.2242 C   0  0  0  0  0  0  0  0  0  0  0  0
   21.7635   -5.3607  -13.2430 N   0  0  0  0  0  0  0  0  0  0  0  0
   15.9214   -7.1296  -10.4964 C   0  0  0  0  0  0  0  0  0  0  0  0
   15.0177   -6.8280  -11.3282 O   0  0  0  0  0  0  0  0  0  0  0  0
   16.0057   -6.3349   -9.3468 N   0  0  0  0  0  0  0  0  0  0  0  0
   15.1398   -5.1680   -9.1419 C   0  0  1  0  0  0  0  0  0  0  0  0
   14.6413   -5.2646   -7.7249 C   0  0  0  0  0  0  0  0  0  0  0  0
   13.7883   -4.1029   -7.3047 C   0  0  0  0  0  0  0  0  0  0  0  0
   13.2872   -4.2745   -5.8976 C   0  0  0  0  0  0  0  0  0  0  0  0
   12.3446   -3.1590   -5.4970 C   0  0  0  0  0  0  0  0  0  0  0  0
   11.0667   -3.3399   -6.1474 N   0  0  0  0  0  0  0  0  0  0  0  0
   15.9264   -3.9621   -9.4170 C   0  0  0  0  0  0  0  0  0  0  0  0
   15.2833   -2.7765   -9.7119 O   0  0  0  0  0  0  0  0  0  0  0  0
   17.1692   -3.9898   -9.3891 O   0  0  0  0  0  0  0  0  0  0  0  0
  2  1  1  0
  3  2  2  0
  4  2  1  0
  5  4  1  0
  6  8  1  0
  6  5  1  0
  6  7  1  1
  8  9  2  0
 10 11  1  0
 10  8  1  0
 12 13  1  0
 11 12  1  6
 13 14  1  0
 14 15  1  0
 15 16  1  0
 17 18  2  0
 17 11  1  0
 19 17  1  0
 20 26  1  0
 20 19  1  0
 20 21  1  1
 22 21  1  0
 23 24  1  0
 23 22  1  0
 25 24  1  0
 26 27  1  0
 28 26  2  0
M  END
$$$$
