QKK.pdb
     RDKit          3D

 28 27  0  0  1  0  0  0  0  0999 V2000
   27.3783  -17.2751  -16.8160 N   0  0  0  0  0  0  0  0  0  0  0  0
   28.1954  -17.9561  -17.7898 C   0  0  0  0  0  0  0  0  0  0  0  0
   29.1414  -17.3008  -18.2642 O   0  0  0  0  0  0  0  0  0  0  0  0
   27.8671  -19.3501  -18.1504 C   0  0  0  0  0  0  0  0  0  0  0  0
   26.7902  -19.9528  -17.3168 C   0  0  0  0  0  0  0  0  0  0  0  0
   27.3736  -20.8005  -16.2352 C   0  0  2  0  0  0  0  0  0  0  0  0
   27.8654  -22.0299  -16.8612 N   0  0  0  0  0  0  0  0  0  0  0  0
   26.3656  -21.1932  -15.2189 C   0  0  0  0  0  0  0  0  0  0  0  0
   25.3083  -21.7846  -15.5963 O   0  0  0  0  0  0  0  0  0  0  0  0
   26.5983  -20.9047  -13.8616 N   0  0  0  0  0  0  0  0  0  0  0  0
   25.5056  -21.1760  -12.8815 C   0  0  1  0  0  0  0  0  0  0  0  0
   26.1038  -20.9458  -11.5162 C   0  0  0  0  0  0  0  0  0  0  0  0
   25.1609  -21.1495  -10.3908 C   0  0  0  0  0  0  0  0  0  0  0  0
   25.7919  -20.8527   -9.0560 C   0  0  0  0  0  0  0  0  0  0  0  0
   24.8498  -21.1109   -7.9106 C   0  0  0  0  0  0  0  0  0  0  0  0
   25.4185  -20.7751   -6.6375 N   0  0  0  0  0  0  0  0  0  0  0  0
   24.3915  -20.2901  -13.2331 C   0  0  0  0  0  0  0  0  0  0  0  0
   24.6025  -19.0474  -13.3363 O   0  0  0  0  0  0  0  0  0  0  0  0
   23.0830  -20.7259  -13.4738 N   0  0  0  0  0  0  0  0  0  0  0  0
   21.9803  -19.7865  -13.7083 C   0  0  1  0  0  0  0  0  0  0  0  0
   21.7127  -19.8216  -15.1891 C   0  0  0  0  0  0  0  0  0  0  0  0
   20.5093  -19.0257  -15.6040 C   0  0  0  0  0  0  0  0  0  0  0  0
   20.2267  -19.1885  -17.0717 C   0  0  0  0  0  0  0  0  0  0  0  0
   19.0264  -18.3739  -17.5064 C   0  0  0  0  0  0  0  0  0  0  0  0
   18.8043  -18.5466  -18.9240 N   0  0  0  0  0  0  0  0  0  0  0  0
   20.8414  -20.2052  -12.8859 C   0  0  0  0  0  0  0  0  0  0  0  0
   20.7672  -21.5059  -12.4289 O   0  0  0  0  0  0  0  0  0  0  0  0
   19.9369  -19.4042  -12.5920 O   0  0  0  0  0  0  0  0  0  0  0  0
  2  1  1  0
  3  2  2  0
  4  2  1  0
  5  4  1  0
  6  8  1  0
  6  5  1  0
  6  7  1  6
  8  9  2  0
 10 11  1  0
 10  8  1  0
 12 13  1  0
 11 12  1  1
 13 14  1  0
 14 15  1  0
 15 16  1  0
 17 18  2  0
 17 11  1  0
 19 17  1  0
 20 26  1  0
 20 19  1  0
 20 21  1  6
 22 21  1  0
 23 24  1  0
 23 22  1  0
 25 24  1  0
 26 27  1  0
 28 26  2  0
M  END
$$$$
