QKK.pdb
     RDKit          3D

 28 27  0  0  1  0  0  0  0  0999 V2000
   21.7871  -21.2822  -10.9584 N   0  0  0  0  0  0  0  0  0  0  0  0
   22.0447  -21.1809   -9.5431 C   0  0  0  0  0  0  0  0  0  0  0  0
   21.2074  -21.7181   -8.7950 O   0  0  0  0  0  0  0  0  0  0  0  0
   23.2538  -20.4673   -9.0849 C   0  0  0  0  0  0  0  0  0  0  0  0
   24.0489  -19.8561  -10.1858 C   0  0  0  0  0  0  0  0  0  0  0  0
   25.1067  -20.7982  -10.6573 C   0  0  2  0  0  0  0  0  0  0  0  0
   26.2045  -20.7420   -9.6895 N   0  0  0  0  0  0  0  0  0  0  0  0
   25.6606  -20.4110  -11.9788 C   0  0  0  0  0  0  0  0  0  0  0  0
   26.1341  -19.2435  -12.1303 O   0  0  0  0  0  0  0  0  0  0  0  0
   25.6512  -21.3400  -13.0355 N   0  0  0  0  0  0  0  0  0  0  0  0
   26.0774  -20.8780  -14.3895 C   0  0  1  0  0  0  0  0  0  0  0  0
   26.8637  -22.0165  -14.9898 C   0  0  0  0  0  0  0  0  0  0  0  0
   27.3601  -21.7626  -16.3631 C   0  0  0  0  0  0  0  0  0  0  0  0
   28.2187  -22.8879  -16.8776 C   0  0  0  0  0  0  0  0  0  0  0  0
   28.7651  -22.6052  -18.2515 C   0  0  0  0  0  0  0  0  0  0  0  0
   29.6709  -23.6191  -18.7081 N   0  0  0  0  0  0  0  0  0  0  0  0
   24.8575  -20.5101  -15.1150 C   0  0  0  0  0  0  0  0  0  0  0  0
   23.7998  -21.1746  -14.9171 O   0  0  0  0  0  0  0  0  0  0  0  0
   24.7714  -19.4516  -16.0273 N   0  0  0  0  0  0  0  0  0  0  0  0
   23.5105  -19.0929  -16.6868 C   0  0  1  0  0  0  0  0  0  0  0  0
   23.7594  -17.7748  -17.3696 C   0  0  0  0  0  0  0  0  0  0  0  0
   22.5649  -17.2419  -18.1066 C   0  0  0  0  0  0  0  0  0  0  0  0
   22.9023  -15.9816  -18.8538 C   0  0  0  0  0  0  0  0  0  0  0  0
   21.7024  -15.4295  -19.5946 C   0  0  0  0  0  0  0  0  0  0  0  0
   20.8403  -14.7236  -18.6740 N   0  0  0  0  0  0  0  0  0  0  0  0
   23.1485  -20.1798  -17.6012 C   0  0  0  0  0  0  0  0  0  0  0  0
   21.8219  -20.5270  -17.7623 O   0  0  0  0  0  0  0  0  0  0  0  0
   24.0207  -20.7972  -18.2368 O   0  0  0  0  0  0  0  0  0  0  0  0
  2  1  1  0
  3  2  2  0
  4  2  1  0
  5  4  1  0
  6  8  1  0
  6  5  1  0
  6  7  1  1
  8  9  2  0
 10 11  1  0
 10  8  1  0
 12 13  1  0
 11 12  1  6
 13 14  1  0
 14 15  1  0
 15 16  1  0
 17 18  2  0
 17 11  1  0
 19 17  1  0
 20 26  1  0
 20 19  1  0
 20 21  1  6
 22 21  1  0
 23 24  1  0
 23 22  1  0
 25 24  1  0
 26 27  1  0
 28 26  2  0
M  END
$$$$
