QKK.pdb
     RDKit          3D

 28 27  0  0  1  0  0  0  0  0999 V2000
   23.5209  -22.0327  -22.2757 N   0  0  0  0  0  0  0  0  0  0  0  0
   24.7333  -21.2519  -22.2898 C   0  0  0  0  0  0  0  0  0  0  0  0
   25.0883  -20.8131  -23.3991 O   0  0  0  0  0  0  0  0  0  0  0  0
   25.4550  -21.0279  -21.0210 C   0  0  0  0  0  0  0  0  0  0  0  0
   24.8062  -21.6565  -19.8370 C   0  0  0  0  0  0  0  0  0  0  0  0
   24.0000  -20.6516  -19.0828 C   0  0  2  0  0  0  0  0  0  0  0  0
   24.7236  -19.3796  -19.1396 N   0  0  0  0  0  0  0  0  0  0  0  0
   23.8457  -21.0101  -17.6507 C   0  0  0  0  0  0  0  0  0  0  0  0
   23.3672  -22.1457  -17.3480 O   0  0  0  0  0  0  0  0  0  0  0  0
   24.2304  -20.0897  -16.6585 N   0  0  0  0  0  0  0  0  0  0  0  0
   24.1461  -20.5116  -15.2291 C   0  0  1  0  0  0  0  0  0  0  0  0
   25.0274  -19.5587  -14.4608 C   0  0  0  0  0  0  0  0  0  0  0  0
   25.0133  -19.7583  -12.9921 C   0  0  0  0  0  0  0  0  0  0  0  0
   25.7224  -21.0215  -12.5804 C   0  0  0  0  0  0  0  0  0  0  0  0
   25.7090  -21.2218  -11.0885 C   0  0  0  0  0  0  0  0  0  0  0  0
   26.3479  -22.4413  -10.6863 N   0  0  0  0  0  0  0  0  0  0  0  0
   22.7269  -20.4840  -14.8622 C   0  0  0  0  0  0  0  0  0  0  0  0
   22.0439  -19.4519  -15.1228 O   0  0  0  0  0  0  0  0  0  0  0  0
   22.0536  -21.5394  -14.2354 N   0  0  0  0  0  0  0  0  0  0  0  0
   20.6779  -21.4024  -13.7435 C   0  0  1  0  0  0  0  0  0  0  0  0
   20.2521  -22.7801  -13.3117 C   0  0  0  0  0  0  0  0  0  0  0  0
   18.8705  -22.8290  -12.7263 C   0  0  0  0  0  0  0  0  0  0  0  0
   18.4589  -24.2414  -12.4162 C   0  0  0  0  0  0  0  0  0  0  0  0
   17.1046  -24.2964  -11.7408 C   0  0  0  0  0  0  0  0  0  0  0  0
   16.8106  -25.6540  -11.3419 N   0  0  0  0  0  0  0  0  0  0  0  0
   20.6761  -20.4113  -12.6635 C   0  0  0  0  0  0  0  0  0  0  0  0
   19.5593  -19.6267  -12.4548 O   0  0  0  0  0  0  0  0  0  0  0  0
   21.6686  -20.2648  -11.9291 O   0  0  0  0  0  0  0  0  0  0  0  0
  2  1  1  0
  3  2  2  0
  4  2  1  0
  5  4  1  0
  6  8  1  0
  6  5  1  0
  6  7  1  1
  8  9  2  0
 10 11  1  0
 10  8  1  0
 12 13  1  0
 11 12  1  1
 13 14  1  0
 14 15  1  0
 15 16  1  0
 17 18  2  0
 17 11  1  0
 19 17  1  0
 20 26  1  0
 20 19  1  0
 20 21  1  1
 22 21  1  0
 23 24  1  0
 23 22  1  0
 25 24  1  0
 26 27  1  0
 28 26  2  0
M  END
$$$$
