QKK.pdb
     RDKit          3D

 28 27  0  0  1  0  0  0  0  0999 V2000
   29.2424  -18.9161  -12.1265 N   0  0  0  0  0  0  0  0  0  0  0  0
   29.3468  -20.2777  -11.6628 C   0  0  0  0  0  0  0  0  0  0  0  0
   30.4604  -20.6234  -11.2276 O   0  0  0  0  0  0  0  0  0  0  0  0
   28.1570  -21.1500  -11.7306 C   0  0  0  0  0  0  0  0  0  0  0  0
   26.9390  -20.4719  -12.2546 C   0  0  0  0  0  0  0  0  0  0  0  0
   25.7883  -21.4216  -12.3056 C   0  0  2  0  0  0  0  0  0  0  0  0
   26.0456  -22.3612  -13.3992 N   0  0  0  0  0  0  0  0  0  0  0  0
   24.5041  -20.7385  -12.6011 C   0  0  0  0  0  0  0  0  0  0  0  0
   23.9547  -20.0406  -11.6949 O   0  0  0  0  0  0  0  0  0  0  0  0
   23.9207  -20.8758  -13.8741 N   0  0  0  0  0  0  0  0  0  0  0  0
   22.6424  -20.1558  -14.1497 C   0  0  1  0  0  0  0  0  0  0  0  0
   22.7303  -19.6830  -15.5793 C   0  0  0  0  0  0  0  0  0  0  0  0
   23.0087  -18.2351  -15.7308 C   0  0  0  0  0  0  0  0  0  0  0  0
   24.3464  -17.9744  -16.3714 C   0  0  0  0  0  0  0  0  0  0  0  0
   24.6340  -16.5034  -16.5113 C   0  0  0  0  0  0  0  0  0  0  0  0
   25.8774  -16.2416  -17.1764 N   0  0  0  0  0  0  0  0  0  0  0  0
   21.5558  -21.0993  -13.8692 C   0  0  0  0  0  0  0  0  0  0  0  0
   21.6367  -22.2807  -14.3134 O   0  0  0  0  0  0  0  0  0  0  0  0
   20.4116  -20.7861  -13.1257 N   0  0  0  0  0  0  0  0  0  0  0  0
   19.3663  -21.7786  -12.8504 C   0  0  1  0  0  0  0  0  0  0  0  0
   19.5494  -22.1867  -11.4132 C   0  0  0  0  0  0  0  0  0  0  0  0
   18.5616  -23.2172  -10.9480 C   0  0  0  0  0  0  0  0  0  0  0  0
   18.7465  -23.5309   -9.4893 C   0  0  0  0  0  0  0  0  0  0  0  0
   17.8183  -24.6360   -9.0303 C   0  0  0  0  0  0  0  0  0  0  0  0
   17.9195  -24.7978   -7.5977 N   0  0  0  0  0  0  0  0  0  0  0  0
   18.0667  -21.1634  -13.1353 C   0  0  0  0  0  0  0  0  0  0  0  0
   16.9777  -21.9626  -13.4213 O   0  0  0  0  0  0  0  0  0  0  0  0
   17.9284  -19.9278  -13.1237 O   0  0  0  0  0  0  0  0  0  0  0  0
  2  1  1  0
  3  2  2  0
  4  2  1  0
  5  4  1  0
  6  8  1  0
  6  5  1  0
  6  7  1  6
  8  9  2  0
 10 11  1  0
 10  8  1  0
 12 13  1  0
 11 12  1  6
 13 14  1  0
 14 15  1  0
 15 16  1  0
 17 18  2  0
 17 11  1  0
 19 17  1  0
 20 26  1  0
 20 19  1  0
 20 21  1  1
 22 21  1  0
 23 24  1  0
 23 22  1  0
 25 24  1  0
 26 27  1  0
 28 26  2  0
M  END
$$$$
