QKK.pdb
     RDKit          3D

 28 27  0  0  1  0  0  0  0  0999 V2000
   26.5246  -24.4209  -15.5117 N   0  0  0  0  0  0  0  0  0  0  0  0
   27.1625  -23.2545  -16.0705 C   0  0  0  0  0  0  0  0  0  0  0  0
   28.1313  -23.4684  -16.8220 O   0  0  0  0  0  0  0  0  0  0  0  0
   26.6380  -21.9177  -15.7259 C   0  0  0  0  0  0  0  0  0  0  0  0
   25.4836  -21.9449  -14.7854 C   0  0  0  0  0  0  0  0  0  0  0  0
   24.9362  -20.5707  -14.5836 C   0  0  2  0  0  0  0  0  0  0  0  0
   23.7416  -20.6953  -13.7455 N   0  0  0  0  0  0  0  0  0  0  0  0
   24.5190  -19.9353  -15.8584 C   0  0  0  0  0  0  0  0  0  0  0  0
   25.4033  -19.6477  -16.7218 O   0  0  0  0  0  0  0  0  0  0  0  0
   23.1574  -19.6641  -16.0868 N   0  0  0  0  0  0  0  0  0  0  0  0
   22.7615  -19.0814  -17.4029 C   0  0  1  0  0  0  0  0  0  0  0  0
   21.3753  -19.6025  -17.6892 C   0  0  0  0  0  0  0  0  0  0  0  0
   20.7990  -19.1398  -18.9740 C   0  0  0  0  0  0  0  0  0  0  0  0
   19.4291  -19.7127  -19.2250 C   0  0  0  0  0  0  0  0  0  0  0  0
   18.8429  -19.2376  -20.5276 C   0  0  0  0  0  0  0  0  0  0  0  0
   17.5037  -19.7061  -20.7373 N   0  0  0  0  0  0  0  0  0  0  0  0
   22.8665  -17.6250  -17.2701 C   0  0  0  0  0  0  0  0  0  0  0  0
   22.3632  -17.0617  -16.2558 O   0  0  0  0  0  0  0  0  0  0  0  0
   23.5005  -16.7920  -18.1998 N   0  0  0  0  0  0  0  0  0  0  0  0
   23.6417  -15.3478  -17.9818 C   0  0  1  0  0  0  0  0  0  0  0  0
   24.9035  -14.9416  -18.6949 C   0  0  0  0  0  0  0  0  0  0  0  0
   25.1479  -13.4603  -18.6925 C   0  0  0  0  0  0  0  0  0  0  0  0
   26.3492  -13.1041  -19.5235 C   0  0  0  0  0  0  0  0  0  0  0  0
   26.7005  -11.6360  -19.4026 C   0  0  0  0  0  0  0  0  0  0  0  0
   27.8894  -11.3515  -20.1735 N   0  0  0  0  0  0  0  0  0  0  0  0
   22.4328  -14.6899  -18.4862 C   0  0  0  0  0  0  0  0  0  0  0  0
   22.0185  -13.4964  -17.9291 O   0  0  0  0  0  0  0  0  0  0  0  0
   21.7713  -15.1916  -19.4118 O   0  0  0  0  0  0  0  0  0  0  0  0
  2  1  1  0
  3  2  2  0
  4  2  1  0
  5  4  1  0
  6  8  1  0
  6  5  1  0
  6  7  1  1
  8  9  2  0
 10 11  1  0
 10  8  1  0
 12 13  1  0
 11 12  1  1
 13 14  1  0
 14 15  1  0
 15 16  1  0
 17 18  2  0
 17 11  1  0
 19 17  1  0
 20 26  1  0
 20 19  1  0
 20 21  1  6
 22 21  1  0
 23 24  1  0
 23 22  1  0
 25 24  1  0
 26 27  1  0
 28 26  2  0
M  END
$$$$
