QKK.pdb
     RDKit          3D

 28 27  0  0  1  0  0  0  0  0999 V2000
   12.8637  -14.8414  -13.1744 N   0  0  0  0  0  0  0  0  0  0  0  0
   12.2294  -13.6748  -12.6120 C   0  0  0  0  0  0  0  0  0  0  0  0
   11.1517  -13.8699  -12.0206 O   0  0  0  0  0  0  0  0  0  0  0  0
   12.8826  -12.3596  -12.7683 C   0  0  0  0  0  0  0  0  0  0  0  0
   14.1106  -12.3904  -13.6103 C   0  0  0  0  0  0  0  0  0  0  0  0
   15.2968  -11.9313  -12.8287 C   0  0  2  0  0  0  0  0  0  0  0  0
   15.4504  -12.8425  -11.6925 N   0  0  0  0  0  0  0  0  0  0  0  0
   15.1174  -10.5642  -12.2794 C   0  0  0  0  0  0  0  0  0  0  0  0
   14.9377   -9.5969  -13.0808 O   0  0  0  0  0  0  0  0  0  0  0  0
   15.1496  -10.3649  -10.8870 N   0  0  0  0  0  0  0  0  0  0  0  0
   14.8198   -9.0089  -10.3570 C   0  0  1  0  0  0  0  0  0  0  0  0
   13.9585   -9.2355   -9.1396 C   0  0  0  0  0  0  0  0  0  0  0  0
   12.5032   -9.2803   -9.4172 C   0  0  0  0  0  0  0  0  0  0  0  0
   11.7015   -9.6671   -8.2025 C   0  0  0  0  0  0  0  0  0  0  0  0
   10.2392   -9.8386   -8.5161 C   0  0  0  0  0  0  0  0  0  0  0  0
    9.4585  -10.1695   -7.3594 N   0  0  0  0  0  0  0  0  0  0  0  0
   16.0951   -8.3317  -10.1029 C   0  0  0  0  0  0  0  0  0  0  0  0
   17.0536   -8.9906   -9.6064 O   0  0  0  0  0  0  0  0  0  0  0  0
   16.3396   -6.9811  -10.3791 N   0  0  0  0  0  0  0  0  0  0  0  0
   17.6694   -6.3819  -10.2181 C   0  0  1  0  0  0  0  0  0  0  0  0
   18.5242   -6.9687  -11.3093 C   0  0  0  0  0  0  0  0  0  0  0  0
   19.8901   -6.3529  -11.4029 C   0  0  0  0  0  0  0  0  0  0  0  0
   20.6462   -6.8802  -12.5907 C   0  0  0  0  0  0  0  0  0  0  0  0
   22.0702   -6.3659  -12.6236 C   0  0  0  0  0  0  0  0  0  0  0  0
   22.0687   -4.9277  -12.7664 N   0  0  0  0  0  0  0  0  0  0  0  0
   17.5253   -4.9250  -10.2911 C   0  0  0  0  0  0  0  0  0  0  0  0
   18.4308   -4.1129   -9.6377 O   0  0  0  0  0  0  0  0  0  0  0  0
   16.5965   -4.4063  -10.9347 O   0  0  0  0  0  0  0  0  0  0  0  0
  2  1  1  0
  3  2  2  0
  4  2  1  0
  5  4  1  0
  6  8  1  0
  6  5  1  0
  6  7  1  1
  8  9  2  0
 10 11  1  0
 10  8  1  0
 12 13  1  0
 11 12  1  1
 13 14  1  0
 14 15  1  0
 15 16  1  0
 17 18  2  0
 17 11  1  0
 19 17  1  0
 20 26  1  0
 20 19  1  0
 20 21  1  6
 22 21  1  0
 23 24  1  0
 23 22  1  0
 25 24  1  0
 26 27  1  0
 28 26  2  0
M  END
$$$$
