QKK.pdb
     RDKit          3D

 28 27  0  0  1  0  0  0  0  0999 V2000
   18.1097  -10.7623  -16.1186 N   0  0  0  0  0  0  0  0  0  0  0  0
   16.8862  -10.8538  -15.3606 C   0  0  0  0  0  0  0  0  0  0  0  0
   16.1010  -11.7590  -15.6969 O   0  0  0  0  0  0  0  0  0  0  0  0
   16.6511   -9.8945  -14.2627 C   0  0  0  0  0  0  0  0  0  0  0  0
   17.6374   -8.7798  -14.2119 C   0  0  0  0  0  0  0  0  0  0  0  0
   17.9187   -8.3895  -12.7987 C   0  0  2  0  0  0  0  0  0  0  0  0
   18.1695   -9.6212  -12.0470 N   0  0  0  0  0  0  0  0  0  0  0  0
   16.7653   -7.7076  -12.1601 C   0  0  0  0  0  0  0  0  0  0  0  0
   16.2038   -6.7462  -12.7688 O   0  0  0  0  0  0  0  0  0  0  0  0
   16.3165   -8.1365  -10.8974 N   0  0  0  0  0  0  0  0  0  0  0  0
   15.1370   -7.4493  -10.2932 C   0  0  1  0  0  0  0  0  0  0  0  0
   14.5221   -8.4405   -9.3370 C   0  0  0  0  0  0  0  0  0  0  0  0
   13.1588   -8.8876   -9.7093 C   0  0  0  0  0  0  0  0  0  0  0  0
   12.6264   -9.9391   -8.7718 C   0  0  0  0  0  0  0  0  0  0  0  0
   11.2215  -10.3534   -9.1193 C   0  0  0  0  0  0  0  0  0  0  0  0
   10.6714  -11.2903   -8.1830 N   0  0  0  0  0  0  0  0  0  0  0  0
   15.6349   -6.2147   -9.6788 C   0  0  0  0  0  0  0  0  0  0  0  0
   16.6627   -6.2643   -8.9436 O   0  0  0  0  0  0  0  0  0  0  0  0
   15.0484   -4.9553   -9.8522 N   0  0  0  0  0  0  0  0  0  0  0  0
   15.5737   -3.7544   -9.1925 C   0  0  1  0  0  0  0  0  0  0  0  0
   15.6134   -2.6836  -10.2497 C   0  0  0  0  0  0  0  0  0  0  0  0
   15.9821   -1.3275   -9.7216 C   0  0  0  0  0  0  0  0  0  0  0  0
   16.0393   -0.3089  -10.8259 C   0  0  0  0  0  0  0  0  0  0  0  0
   16.4918    1.0445  -10.3189 C   0  0  0  0  0  0  0  0  0  0  0  0
   16.5619    1.9810  -11.4175 N   0  0  0  0  0  0  0  0  0  0  0  0
   14.7024   -3.4396   -8.0566 C   0  0  0  0  0  0  0  0  0  0  0  0
   13.5328   -4.1497   -7.8722 O   0  0  0  0  0  0  0  0  0  0  0  0
   15.0009   -2.5391   -7.2528 O   0  0  0  0  0  0  0  0  0  0  0  0
  2  1  1  0
  3  2  2  0
  4  2  1  0
  5  4  1  0
  6  8  1  0
  6  5  1  0
  6  7  1  1
  8  9  2  0
 10 11  1  0
 10  8  1  0
 12 13  1  0
 11 12  1  1
 13 14  1  0
 14 15  1  0
 15 16  1  0
 17 18  2  0
 17 11  1  0
 19 17  1  0
 20 26  1  0
 20 19  1  0
 20 21  1  6
 22 21  1  0
 23 24  1  0
 23 22  1  0
 25 24  1  0
 26 27  1  0
 28 26  2  0
M  END
$$$$
