QKK.pdb
     RDKit          3D

 28 27  0  0  1  0  0  0  0  0999 V2000
   15.0031  -15.7619  -16.0276 N   0  0  0  0  0  0  0  0  0  0  0  0
   16.3190  -16.3398  -15.9088 C   0  0  0  0  0  0  0  0  0  0  0  0
   16.3638  -17.5251  -15.5317 O   0  0  0  0  0  0  0  0  0  0  0  0
   17.4968  -15.5108  -16.2351 C   0  0  0  0  0  0  0  0  0  0  0  0
   17.1614  -14.1215  -16.6537 C   0  0  0  0  0  0  0  0  0  0  0  0
   17.7006  -13.1317  -15.6748 C   0  0  2  0  0  0  0  0  0  0  0  0
   17.3838  -13.6271  -14.3335 N   0  0  0  0  0  0  0  0  0  0  0  0
   17.0685  -11.7961  -15.8147 C   0  0  0  0  0  0  0  0  0  0  0  0
   17.1839  -11.1719  -16.9135 O   0  0  0  0  0  0  0  0  0  0  0  0
   16.3559  -11.2476  -14.7325 N   0  0  0  0  0  0  0  0  0  0  0  0
   15.7810   -9.8783  -14.8832 C   0  0  1  0  0  0  0  0  0  0  0  0
   14.4673   -9.8941  -14.1424 C   0  0  0  0  0  0  0  0  0  0  0  0
   13.7643   -8.5896  -14.1116 C   0  0  0  0  0  0  0  0  0  0  0  0
   12.5146   -8.6336  -13.2725 C   0  0  0  0  0  0  0  0  0  0  0  0
   11.7928   -7.3127  -13.2558 C   0  0  0  0  0  0  0  0  0  0  0  0
   10.6620   -7.3090  -12.3736 N   0  0  0  0  0  0  0  0  0  0  0  0
   16.7803   -8.9397  -14.3634 C   0  0  0  0  0  0  0  0  0  0  0  0
   17.2828   -9.1460  -13.2213 O   0  0  0  0  0  0  0  0  0  0  0  0
   17.2345   -7.8092  -15.0532 N   0  0  0  0  0  0  0  0  0  0  0  0
   18.2337   -6.8984  -14.4827 C   0  0  1  0  0  0  0  0  0  0  0  0
   19.3753   -6.8676  -15.4632 C   0  0  0  0  0  0  0  0  0  0  0  0
   20.4463   -5.8761  -15.1114 C   0  0  0  0  0  0  0  0  0  0  0  0
   21.5725   -5.9131  -16.1068 C   0  0  0  0  0  0  0  0  0  0  0  0
   22.6886   -4.9623  -15.7278 C   0  0  0  0  0  0  0  0  0  0  0  0
   23.8090   -5.1400  -16.6233 N   0  0  0  0  0  0  0  0  0  0  0  0
   17.5950   -5.5965  -14.2690 C   0  0  0  0  0  0  0  0  0  0  0  0
   16.6658   -5.1312  -15.1781 O   0  0  0  0  0  0  0  0  0  0  0  0
   17.8779   -4.9011  -13.2779 O   0  0  0  0  0  0  0  0  0  0  0  0
  2  1  1  0
  3  2  2  0
  4  2  1  0
  5  4  1  0
  6  8  1  0
  6  5  1  0
  6  7  1  1
  8  9  2  0
 10 11  1  0
 10  8  1  0
 12 13  1  0
 11 12  1  1
 13 14  1  0
 14 15  1  0
 15 16  1  0
 17 18  2  0
 17 11  1  0
 19 17  1  0
 20 26  1  0
 20 19  1  0
 20 21  1  6
 22 21  1  0
 23 24  1  0
 23 22  1  0
 25 24  1  0
 26 27  1  0
 28 26  2  0
M  END
$$$$
