QKK.pdb
     RDKit          3D

 28 27  0  0  1  0  0  0  0  0999 V2000
   24.7666  -25.1372  -13.9416 N   0  0  0  0  0  0  0  0  0  0  0  0
   24.8711  -24.1276  -14.9661 C   0  0  0  0  0  0  0  0  0  0  0  0
   25.5334  -24.4372  -15.9734 O   0  0  0  0  0  0  0  0  0  0  0  0
   24.2021  -22.8272  -14.7603 C   0  0  0  0  0  0  0  0  0  0  0  0
   23.3955  -22.7530  -13.5105 C   0  0  0  0  0  0  0  0  0  0  0  0
   22.0164  -22.2615  -13.8022 C   0  0  2  0  0  0  0  0  0  0  0  0
   21.8765  -20.9499  -13.1656 N   0  0  0  0  0  0  0  0  0  0  0  0
   20.9689  -23.1449  -13.2318 C   0  0  0  0  0  0  0  0  0  0  0  0
   20.7504  -24.2712  -13.7740 O   0  0  0  0  0  0  0  0  0  0  0  0
   20.2397  -22.7209  -12.1057 N   0  0  0  0  0  0  0  0  0  0  0  0
   19.1949  -23.6327  -11.5529 C   0  0  1  0  0  0  0  0  0  0  0  0
   19.4677  -23.7300  -10.0727 C   0  0  0  0  0  0  0  0  0  0  0  0
   18.4684  -24.5203   -9.3151 C   0  0  0  0  0  0  0  0  0  0  0  0
   18.8641  -24.7116   -7.8747 C   0  0  0  0  0  0  0  0  0  0  0  0
   17.7817  -25.3808   -7.0707 C   0  0  0  0  0  0  0  0  0  0  0  0
   18.1361  -25.5446   -5.6906 N   0  0  0  0  0  0  0  0  0  0  0  0
   17.8959  -23.0557  -11.9123 C   0  0  0  0  0  0  0  0  0  0  0  0
   17.7406  -21.8022  -11.8491 O   0  0  0  0  0  0  0  0  0  0  0  0
   16.7904  -23.8038  -12.3347 N   0  0  0  0  0  0  0  0  0  0  0  0
   15.5219  -23.1715  -12.7149 C   0  0  1  0  0  0  0  0  0  0  0  0
   15.2789  -23.5577  -14.1493 C   0  0  0  0  0  0  0  0  0  0  0  0
   14.0013  -23.0077  -14.7142 C   0  0  0  0  0  0  0  0  0  0  0  0
   13.8263  -23.4036  -16.1540 C   0  0  0  0  0  0  0  0  0  0  0  0
   12.5982  -22.7638  -16.7672 C   0  0  0  0  0  0  0  0  0  0  0  0
   12.5710  -23.0191  -18.1895 N   0  0  0  0  0  0  0  0  0  0  0  0
   14.4852  -23.6351  -11.7881 C   0  0  0  0  0  0  0  0  0  0  0  0
   13.4184  -22.8124  -11.4855 O   0  0  0  0  0  0  0  0  0  0  0  0
   14.5513  -24.7622  -11.2674 O   0  0  0  0  0  0  0  0  0  0  0  0
  2  1  1  0
  3  2  2  0
  4  2  1  0
  5  4  1  0
  6  8  1  0
  6  5  1  0
  6  7  1  1
  8  9  2  0
 10 11  1  0
 10  8  1  0
 12 13  1  0
 11 12  1  1
 13 14  1  0
 14 15  1  0
 15 16  1  0
 17 18  2  0
 17 11  1  0
 19 17  1  0
 20 26  1  0
 20 19  1  0
 20 21  1  6
 22 21  1  0
 23 24  1  0
 23 22  1  0
 25 24  1  0
 26 27  1  0
 28 26  2  0
M  END
$$$$
