QKK.pdb
     RDKit          3D

 28 27  0  0  1  0  0  0  0  0999 V2000
   20.0827  -17.2149  -18.9413 N   0  0  0  0  0  0  0  0  0  0  0  0
   20.5121  -17.5826  -17.6146 C   0  0  0  0  0  0  0  0  0  0  0  0
   20.8228  -18.7768  -17.4517 O   0  0  0  0  0  0  0  0  0  0  0  0
   20.5561  -16.5460  -16.5635 C   0  0  0  0  0  0  0  0  0  0  0  0
   20.1719  -15.1875  -17.0375 C   0  0  0  0  0  0  0  0  0  0  0  0
   18.9255  -14.7255  -16.3579 C   0  0  2  0  0  0  0  0  0  0  0  0
   17.8239  -15.5510  -16.8579 N   0  0  0  0  0  0  0  0  0  0  0  0
   18.5995  -13.3125  -16.6742 C   0  0  0  0  0  0  0  0  0  0  0  0
   18.5376  -12.9516  -17.8892 O   0  0  0  0  0  0  0  0  0  0  0  0
   18.3659  -12.4020  -15.6273 N   0  0  0  0  0  0  0  0  0  0  0  0
   17.9555  -11.0099  -15.9766 C   0  0  1  0  0  0  0  0  0  0  0  0
   16.6019  -10.8035  -15.3440 C   0  0  0  0  0  0  0  0  0  0  0  0
   16.0844   -9.4179  -15.4400 C   0  0  0  0  0  0  0  0  0  0  0  0
   14.7468   -9.2595  -14.7665 C   0  0  0  0  0  0  0  0  0  0  0  0
   14.1721   -7.8815  -14.9582 C   0  0  0  0  0  0  0  0  0  0  0  0
   12.8672   -7.7388  -14.3805 N   0  0  0  0  0  0  0  0  0  0  0  0
   19.0149  -10.1211  -15.4897 C   0  0  0  0  0  0  0  0  0  0  0  0
   19.5447  -10.3535  -14.3651 O   0  0  0  0  0  0  0  0  0  0  0  0
   19.4992   -9.0119  -16.1935 N   0  0  0  0  0  0  0  0  0  0  0  0
   20.5006   -8.1040  -15.6222 C   0  0  1  0  0  0  0  0  0  0  0  0
   21.0151   -7.2779  -16.7704 C   0  0  0  0  0  0  0  0  0  0  0  0
   21.9989   -6.2207  -16.3600 C   0  0  0  0  0  0  0  0  0  0  0  0
   22.4765   -5.4298  -17.5461 C   0  0  0  0  0  0  0  0  0  0  0  0
   23.5602   -4.4434  -17.1640 C   0  0  0  0  0  0  0  0  0  0  0  0
   23.9127   -3.6347  -18.3088 N   0  0  0  0  0  0  0  0  0  0  0  0
   19.8553   -7.3201  -14.5649 C   0  0  0  0  0  0  0  0  0  0  0  0
   20.5515   -7.0223  -13.4103 O   0  0  0  0  0  0  0  0  0  0  0  0
   18.6858   -6.9174  -14.6915 O   0  0  0  0  0  0  0  0  0  0  0  0
  2  1  1  0
  3  2  2  0
  4  2  1  0
  5  4  1  0
  6  8  1  0
  6  5  1  0
  6  7  1  6
  8  9  2  0
 10 11  1  0
 10  8  1  0
 12 13  1  0
 11 12  1  1
 13 14  1  0
 14 15  1  0
 15 16  1  0
 17 18  2  0
 17 11  1  0
 19 17  1  0
 20 26  1  0
 20 19  1  0
 20 21  1  6
 22 21  1  0
 23 24  1  0
 23 22  1  0
 25 24  1  0
 26 27  1  0
 28 26  2  0
M  END
$$$$
