QKK.pdb
     RDKit          3D

 28 27  0  0  1  0  0  0  0  0999 V2000
   23.2684  -20.1777   -9.5722 N   0  0  0  0  0  0  0  0  0  0  0  0
   24.3539  -20.6393   -8.7426 C   0  0  0  0  0  0  0  0  0  0  0  0
   24.0527  -20.9671   -7.5803 O   0  0  0  0  0  0  0  0  0  0  0  0
   25.7159  -20.6936   -9.3109 C   0  0  0  0  0  0  0  0  0  0  0  0
   25.8114  -20.1744  -10.7035 C   0  0  0  0  0  0  0  0  0  0  0  0
   25.1452  -21.1070  -11.6601 C   0  0  2  0  0  0  0  0  0  0  0  0
   25.8848  -22.3706  -11.6246 N   0  0  0  0  0  0  0  0  0  0  0  0
   25.1866  -20.6084  -13.0575 C   0  0  0  0  0  0  0  0  0  0  0  0
   25.0380  -19.3668  -13.2732 O   0  0  0  0  0  0  0  0  0  0  0  0
   25.3886  -21.5159  -14.1135 N   0  0  0  0  0  0  0  0  0  0  0  0
   25.4377  -20.9827  -15.5070 C   0  0  1  0  0  0  0  0  0  0  0  0
   26.1145  -22.0455  -16.3361 C   0  0  0  0  0  0  0  0  0  0  0  0
   27.5677  -21.8340  -16.5374 C   0  0  0  0  0  0  0  0  0  0  0  0
   28.1872  -22.9044  -17.3967 C   0  0  0  0  0  0  0  0  0  0  0  0
   29.6395  -22.6334  -17.6854 C   0  0  0  0  0  0  0  0  0  0  0  0
   30.2703  -23.6998  -18.4080 N   0  0  0  0  0  0  0  0  0  0  0  0
   24.0568  -20.6750  -15.8917 C   0  0  0  0  0  0  0  0  0  0  0  0
   23.1292  -21.4557  -15.5318 O   0  0  0  0  0  0  0  0  0  0  0  0
   23.6777  -19.5542  -16.6403 N   0  0  0  0  0  0  0  0  0  0  0  0
   22.2740  -19.2700  -16.9598 C   0  0  1  0  0  0  0  0  0  0  0  0
   22.1957  -17.7866  -17.2030 C   0  0  0  0  0  0  0  0  0  0  0  0
   20.8347  -17.3156  -17.6269 C   0  0  0  0  0  0  0  0  0  0  0  0
   20.8221  -15.8321  -17.8709 C   0  0  0  0  0  0  0  0  0  0  0  0
   19.4718  -15.3553  -18.3636 C   0  0  0  0  0  0  0  0  0  0  0  0
   19.5313  -13.9434  -18.6666 N   0  0  0  0  0  0  0  0  0  0  0  0
   21.8954  -20.0854  -18.1176 C   0  0  0  0  0  0  0  0  0  0  0  0
   22.7952  -20.2727  -19.1480 O   0  0  0  0  0  0  0  0  0  0  0  0
   20.7719  -20.6134  -18.1872 O   0  0  0  0  0  0  0  0  0  0  0  0
  2  1  1  0
  3  2  2  0
  4  2  1  0
  5  4  1  0
  6  8  1  0
  6  5  1  0
  6  7  1  6
  8  9  2  0
 10 11  1  0
 10  8  1  0
 12 13  1  0
 11 12  1  6
 13 14  1  0
 14 15  1  0
 15 16  1  0
 17 18  2  0
 17 11  1  0
 19 17  1  0
 20 26  1  0
 20 19  1  0
 20 21  1  6
 22 21  1  0
 23 24  1  0
 23 22  1  0
 25 24  1  0
 26 27  1  0
 28 26  2  0
M  END
$$$$
