QKK.pdb
     RDKit          3D

 28 27  0  0  1  0  0  0  0  0999 V2000
   21.5427  -20.1479   -9.1943 N   0  0  0  0  0  0  0  0  0  0  0  0
   21.0593  -20.8681  -10.3465 C   0  0  0  0  0  0  0  0  0  0  0  0
   19.9524  -21.4229  -10.2197 O   0  0  0  0  0  0  0  0  0  0  0  0
   21.8857  -20.8985  -11.5701 C   0  0  0  0  0  0  0  0  0  0  0  0
   23.1866  -20.1855  -11.4391 C   0  0  0  0  0  0  0  0  0  0  0  0
   24.3037  -21.0282  -11.9595 C   0  0  2  0  0  0  0  0  0  0  0  0
   25.2127  -21.2877  -10.8408 N   0  0  0  0  0  0  0  0  0  0  0  0
   25.0864  -20.3398  -13.0161 C   0  0  0  0  0  0  0  0  0  0  0  0
   25.4437  -19.1361  -12.8327 O   0  0  0  0  0  0  0  0  0  0  0  0
   25.4173  -21.0298  -14.1968 N   0  0  0  0  0  0  0  0  0  0  0  0
   26.1803  -20.3019  -15.2533 C   0  0  1  0  0  0  0  0  0  0  0  0
   27.0565  -21.3331  -15.9197 C   0  0  0  0  0  0  0  0  0  0  0  0
   27.8971  -20.8052  -17.0205 C   0  0  0  0  0  0  0  0  0  0  0  0
   28.7233  -21.8809  -17.6748 C   0  0  0  0  0  0  0  0  0  0  0  0
   29.6207  -21.3337  -18.7523 C   0  0  0  0  0  0  0  0  0  0  0  0
   28.9164  -20.5222  -19.7024 N   0  0  0  0  0  0  0  0  0  0  0  0
   25.1908  -19.6640  -16.1271 C   0  0  0  0  0  0  0  0  0  0  0  0
   24.1279  -20.2876  -16.4113 O   0  0  0  0  0  0  0  0  0  0  0  0
   25.3342  -18.3855  -16.6794 N   0  0  0  0  0  0  0  0  0  0  0  0
   24.3181  -17.8001  -17.5616 C   0  0  1  0  0  0  0  0  0  0  0  0
   24.6085  -16.3239  -17.6073 C   0  0  0  0  0  0  0  0  0  0  0  0
   23.7513  -15.5701  -18.5825 C   0  0  0  0  0  0  0  0  0  0  0  0
   24.0409  -14.0955  -18.5373 C   0  0  0  0  0  0  0  0  0  0  0  0
   23.2479  -13.3351  -19.5796 C   0  0  0  0  0  0  0  0  0  0  0  0
   23.4814  -11.9162  -19.4343 N   0  0  0  0  0  0  0  0  0  0  0  0
   24.4062  -18.4664  -18.8643 C   0  0  0  0  0  0  0  0  0  0  0  0
   25.6263  -18.9266  -19.3179 O   0  0  0  0  0  0  0  0  0  0  0  0
   23.3953  -18.6244  -19.5707 O   0  0  0  0  0  0  0  0  0  0  0  0
  2  1  1  0
  3  2  2  0
  4  2  1  0
  5  4  1  0
  6  8  1  0
  6  5  1  0
  6  7  1  1
  8  9  2  0
 10 11  1  0
 10  8  1  0
 12 13  1  0
 11 12  1  6
 13 14  1  0
 14 15  1  0
 15 16  1  0
 17 18  2  0
 17 11  1  0
 19 17  1  0
 20 26  1  0
 20 19  1  0
 20 21  1  6
 22 21  1  0
 23 24  1  0
 23 22  1  0
 25 24  1  0
 26 27  1  0
 28 26  2  0
M  END
$$$$
