QKK.pdb
     RDKit          3D

 28 27  0  0  1  0  0  0  0  0999 V2000
   28.0339  -13.3254  -20.8966 N   0  0  0  0  0  0  0  0  0  0  0  0
   27.3802  -12.9541  -19.6660 C   0  0  0  0  0  0  0  0  0  0  0  0
   27.9960  -12.1524  -18.9399 O   0  0  0  0  0  0  0  0  0  0  0  0
   26.0570  -13.5320  -19.3558 C   0  0  0  0  0  0  0  0  0  0  0  0
   24.9547  -12.5314  -19.3145 C   0  0  0  0  0  0  0  0  0  0  0  0
   24.9513  -11.8050  -18.0103 C   0  0  2  0  0  0  0  0  0  0  0  0
   24.7747  -12.8043  -16.9543 N   0  0  0  0  0  0  0  0  0  0  0  0
   23.8267  -10.8424  -17.9021 C   0  0  0  0  0  0  0  0  0  0  0  0
   23.7638   -9.8740  -18.7197 O   0  0  0  0  0  0  0  0  0  0  0  0
   22.8547  -11.0189  -16.9003 N   0  0  0  0  0  0  0  0  0  0  0  0
   21.6489  -10.1391  -16.9194 C   0  0  1  0  0  0  0  0  0  0  0  0
   20.5774  -10.8844  -16.1634 C   0  0  0  0  0  0  0  0  0  0  0  0
   19.3104  -10.1340  -15.9951 C   0  0  0  0  0  0  0  0  0  0  0  0
   18.3102  -10.8828  -15.1542 C   0  0  0  0  0  0  0  0  0  0  0  0
   17.0790  -10.0646  -14.8699 C   0  0  0  0  0  0  0  0  0  0  0  0
   16.2186  -10.6755  -13.8985 N   0  0  0  0  0  0  0  0  0  0  0  0
   22.0506   -8.8569  -16.3327 C   0  0  0  0  0  0  0  0  0  0  0  0
   22.7634   -8.8546  -15.2879 O   0  0  0  0  0  0  0  0  0  0  0  0
   21.7013   -7.6062  -16.8560 N   0  0  0  0  0  0  0  0  0  0  0  0
   22.1439   -6.3519  -16.2362 C   0  0  1  0  0  0  0  0  0  0  0  0
   22.0434   -5.3007  -17.3088 C   0  0  0  0  0  0  0  0  0  0  0  0
   22.3751   -3.9168  -16.8305 C   0  0  0  0  0  0  0  0  0  0  0  0
   22.3332   -2.9246  -17.9594 C   0  0  0  0  0  0  0  0  0  0  0  0
   22.8313   -1.5612  -17.5276 C   0  0  0  0  0  0  0  0  0  0  0  0
   22.9318   -0.6898  -18.6763 N   0  0  0  0  0  0  0  0  0  0  0  0
   21.2958   -6.0959  -15.0683 C   0  0  0  0  0  0  0  0  0  0  0  0
   21.8075   -5.4060  -13.9874 O   0  0  0  0  0  0  0  0  0  0  0  0
   20.1177   -6.4921  -15.0351 O   0  0  0  0  0  0  0  0  0  0  0  0
  2  1  1  0
  3  2  2  0
  4  2  1  0
  5  4  1  0
  6  8  1  0
  6  5  1  0
  6  7  1  1
  8  9  2  0
 10 11  1  0
 10  8  1  0
 12 13  1  0
 11 12  1  1
 13 14  1  0
 14 15  1  0
 15 16  1  0
 17 18  2  0
 17 11  1  0
 19 17  1  0
 20 26  1  0
 20 19  1  0
 20 21  1  6
 22 21  1  0
 23 24  1  0
 23 22  1  0
 25 24  1  0
 26 27  1  0
 28 26  2  0
M  END
$$$$
