QKK.pdb
     RDKit          3D

 28 27  0  0  1  0  0  0  0  0999 V2000
   19.1573  -15.0388  -15.3851 N   0  0  0  0  0  0  0  0  0  0  0  0
   17.7471  -15.2712  -15.5776 C   0  0  0  0  0  0  0  0  0  0  0  0
   17.4271  -16.4153  -15.9488 O   0  0  0  0  0  0  0  0  0  0  0  0
   16.7990  -14.1670  -15.3269 C   0  0  0  0  0  0  0  0  0  0  0  0
   17.4490  -12.8971  -14.8993 C   0  0  0  0  0  0  0  0  0  0  0  0
   16.4321  -11.8184  -14.7228 C   0  0  2  0  0  0  0  0  0  0  0  0
   15.7769  -11.6198  -16.0175 N   0  0  0  0  0  0  0  0  0  0  0  0
   17.0434  -10.5235  -14.3322 C   0  0  0  0  0  0  0  0  0  0  0  0
   17.6786  -10.4477  -13.2363 O   0  0  0  0  0  0  0  0  0  0  0  0
   16.9089   -9.4079  -15.1789 N   0  0  0  0  0  0  0  0  0  0  0  0
   17.5959   -8.1394  -14.7950 C   0  0  1  0  0  0  0  0  0  0  0  0
   17.9983   -7.4757  -16.0883 C   0  0  0  0  0  0  0  0  0  0  0  0
   19.1883   -8.0725  -16.7400 C   0  0  0  0  0  0  0  0  0  0  0  0
   19.5944   -7.3250  -17.9826 C   0  0  0  0  0  0  0  0  0  0  0  0
   20.7987   -7.9365  -18.6473 C   0  0  0  0  0  0  0  0  0  0  0  0
   21.0474   -7.3952  -19.9520 N   0  0  0  0  0  0  0  0  0  0  0  0
   16.6519   -7.3793  -13.9699 C   0  0  0  0  0  0  0  0  0  0  0  0
   15.4443   -7.2947  -14.3360 O   0  0  0  0  0  0  0  0  0  0  0  0
   16.9926   -6.7294  -12.7776 N   0  0  0  0  0  0  0  0  0  0  0  0
   16.0344   -5.8930  -12.0457 C   0  0  1  0  0  0  0  0  0  0  0  0
   16.0075   -6.4266  -10.6385 C   0  0  0  0  0  0  0  0  0  0  0  0
   15.1101   -5.6529   -9.7167 C   0  0  0  0  0  0  0  0  0  0  0  0
   15.1608   -6.2017   -8.3178 C   0  0  0  0  0  0  0  0  0  0  0  0
   14.2443   -5.4411   -7.3824 C   0  0  0  0  0  0  0  0  0  0  0  0
   14.2933   -6.0290   -6.0630 N   0  0  0  0  0  0  0  0  0  0  0  0
   16.4752   -4.4987  -12.1470 C   0  0  0  0  0  0  0  0  0  0  0  0
   15.5948   -3.4778  -11.8487 O   0  0  0  0  0  0  0  0  0  0  0  0
   17.6345   -4.2191  -12.4990 O   0  0  0  0  0  0  0  0  0  0  0  0
  2  1  1  0
  3  2  2  0
  4  2  1  0
  5  4  1  0
  6  8  1  0
  6  5  1  0
  6  7  1  6
  8  9  2  0
 10 11  1  0
 10  8  1  0
 12 13  1  0
 11 12  1  6
 13 14  1  0
 14 15  1  0
 15 16  1  0
 17 18  2  0
 17 11  1  0
 19 17  1  0
 20 26  1  0
 20 19  1  0
 20 21  1  1
 22 21  1  0
 23 24  1  0
 23 22  1  0
 25 24  1  0
 26 27  1  0
 28 26  2  0
M  END
$$$$
