GMC.pdb
     RDKit          3D

 19 18  0  0  1  0  0  0  0  0999 V2000
    5.2550  -19.0962   22.7123 N   0  0  0  0  0  0  0  0  0  0  0  0
    5.4011  -18.4025   23.9746 C   0  0  0  0  0  0  0  0  0  0  0  0
    6.4939  -17.3805   23.9027 C   0  0  0  0  0  0  0  0  0  0  0  0
    7.3396  -17.4074   22.9477 O   0  0  0  0  0  0  0  0  0  0  0  0
    7.4842  -11.4771   27.0866 C   0  0  0  0  0  0  0  0  0  0  0  0
    5.9231  -12.1175   26.4193 S   0  0  0  0  0  0  0  0  0  0  0  0
    6.2632  -13.5229   25.2934 C   0  0  0  0  0  0  0  0  0  0  0  0
    7.3726  -14.3245   25.8641 C   0  0  0  0  0  0  0  0  0  0  0  0
    7.6911  -15.5162   25.0355 C   0  0  2  0  0  0  0  0  0  0  0  0
    6.5346  -16.4045   24.9315 N   0  0  0  0  0  0  0  0  0  0  0  0
    8.8771  -16.2880   25.4253 C   0  0  0  0  0  0  0  0  0  0  0  0
    8.8270  -17.2520   26.2050 O   0  0  0  0  0  0  0  0  0  0  0  0
   10.1942  -15.9812   24.9278 N   0  0  0  0  0  0  0  0  0  0  0  0
   11.1508  -16.9792   24.5263 C   0  0  1  0  0  0  0  0  0  0  0  0
   10.5336  -17.7140   23.3291 C   0  0  0  0  0  0  0  0  0  0  0  0
   11.2853  -19.3300   23.0748 S   0  0  0  0  0  0  0  0  0  0  0  0
   12.4283  -16.4301   24.0947 C   0  0  0  0  0  0  0  0  0  0  0  0
   12.5599  -15.0820   23.8297 O   0  0  0  0  0  0  0  0  0  0  0  0
   13.4262  -17.1677   23.9565 O   0  0  0  0  0  0  0  0  0  0  0  0
  2  1  1  0
  2  3  1  0
  3  4  2  0
  5  6  1  0
  7  6  1  0
  7  8  1  0
  9  8  1  1
  9 11  1  0
 10  3  1  0
 10  9  1  0
 11 12  2  0
 13 14  1  0
 13 11  1  0
 14 17  1  0
 14 15  1  6
 16 15  1  0
 17 19  2  0
 17 18  1  0
M  END
$$$$
