GMC.pdb
     RDKit          3D

 19 18  0  0  1  0  0  0  0  0999 V2000
    6.5294  -19.5714   23.5156 N   0  0  0  0  0  0  0  0  0  0  0  0
    6.5756  -18.7091   24.6775 C   0  0  0  0  0  0  0  0  0  0  0  0
    7.2543  -17.4125   24.3578 C   0  0  0  0  0  0  0  0  0  0  0  0
    8.1346  -17.3562   23.4360 O   0  0  0  0  0  0  0  0  0  0  0  0
    4.8941  -11.8800   26.5564 C   0  0  0  0  0  0  0  0  0  0  0  0
    6.5679  -11.2824   26.1909 S   0  0  0  0  0  0  0  0  0  0  0  0
    7.5087  -12.5829   25.3066 C   0  0  0  0  0  0  0  0  0  0  0  0
    6.8403  -13.8862   25.5384 C   0  0  0  0  0  0  0  0  0  0  0  0
    7.5999  -15.0211   24.9526 C   0  0  2  0  0  0  0  0  0  0  0  0
    6.8723  -16.2782   25.1194 N   0  0  0  0  0  0  0  0  0  0  0  0
    8.9863  -15.1856   25.4053 C   0  0  0  0  0  0  0  0  0  0  0  0
    9.9264  -14.5128   24.9545 O   0  0  0  0  0  0  0  0  0  0  0  0
    9.3594  -16.1459   26.4128 N   0  0  0  0  0  0  0  0  0  0  0  0
   10.6981  -16.2936   26.9212 C   0  0  1  0  0  0  0  0  0  0  0  0
   10.6450  -15.8974   28.4026 C   0  0  0  0  0  0  0  0  0  0  0  0
   10.2667  -14.1503   28.6158 S   0  0  0  0  0  0  0  0  0  0  0  0
   11.2088  -17.6550   26.8478 C   0  0  0  0  0  0  0  0  0  0  0  0
   10.4393  -18.6658   26.3082 O   0  0  0  0  0  0  0  0  0  0  0  0
   12.3502  -17.9324   27.2712 O   0  0  0  0  0  0  0  0  0  0  0  0
  2  1  1  0
  2  3  1  0
  3  4  2  0
  5  6  1  0
  7  6  1  0
  7  8  1  0
  9  8  1  1
  9 11  1  0
 10  3  1  0
 10  9  1  0
 11 12  2  0
 13 14  1  0
 13 11  1  0
 14 17  1  0
 14 15  1  1
 16 15  1  0
 17 19  2  0
 17 18  1  0
M  END
$$$$
