GMC.pdb
     RDKit          3D

 19 18  0  0  1  0  0  0  0  0999 V2000
    4.9891  -20.0677   22.6902 N   0  0  0  0  0  0  0  0  0  0  0  0
    5.4130  -19.5716   23.9825 C   0  0  0  0  0  0  0  0  0  0  0  0
    6.2508  -18.3384   23.8361 C   0  0  0  0  0  0  0  0  0  0  0  0
    6.9616  -18.1626   22.7914 O   0  0  0  0  0  0  0  0  0  0  0  0
    7.8491  -11.2059   26.7586 C   0  0  0  0  0  0  0  0  0  0  0  0
    6.8363  -12.7090   26.8439 S   0  0  0  0  0  0  0  0  0  0  0  0
    7.5384  -13.9904   25.7379 C   0  0  0  0  0  0  0  0  0  0  0  0
    6.6669  -15.1888   25.7944 C   0  0  0  0  0  0  0  0  0  0  0  0
    7.1473  -16.2776   24.9044 C   0  0  2  0  0  0  0  0  0  0  0  0
    6.2103  -17.3998   24.8992 N   0  0  0  0  0  0  0  0  0  0  0  0
    8.5093  -16.7686   25.1453 C   0  0  0  0  0  0  0  0  0  0  0  0
    8.8267  -17.4023   26.1638 O   0  0  0  0  0  0  0  0  0  0  0  0
    9.5841  -16.5496   24.2107 N   0  0  0  0  0  0  0  0  0  0  0  0
   10.8847  -17.1550   24.3303 C   0  0  1  0  0  0  0  0  0  0  0  0
   11.5628  -16.9986   22.9628 C   0  0  0  0  0  0  0  0  0  0  0  0
   11.8632  -15.2704   22.5577 S   0  0  0  0  0  0  0  0  0  0  0  0
   11.7410  -16.5192   25.3214 C   0  0  0  0  0  0  0  0  0  0  0  0
   12.9844  -17.0418   25.6142 O   0  0  0  0  0  0  0  0  0  0  0  0
   11.3666  -15.4914   25.9233 O   0  0  0  0  0  0  0  0  0  0  0  0
  2  1  1  0
  2  3  1  0
  3  4  2  0
  5  6  1  0
  7  6  1  0
  7  8  1  0
  9  8  1  1
  9 11  1  0
 10  3  1  0
 10  9  1  0
 11 12  2  0
 13 14  1  0
 13 11  1  0
 14 17  1  0
 14 15  1  6
 16 15  1  0
 17 19  2  0
 17 18  1  0
M  END
$$$$
