GMC.pdb
     RDKit          3D

 19 18  0  0  1  0  0  0  0  0999 V2000
    4.9405  -19.1328   22.7064 N   0  0  0  0  0  0  0  0  0  0  0  0
    5.2840  -18.4967   23.9606 C   0  0  0  0  0  0  0  0  0  0  0  0
    6.3605  -17.4731   23.7670 C   0  0  0  0  0  0  0  0  0  0  0  0
    7.0143  -17.4249   22.6725 O   0  0  0  0  0  0  0  0  0  0  0  0
    7.8359  -12.1214   27.4001 C   0  0  0  0  0  0  0  0  0  0  0  0
    6.2071  -12.3840   26.6447 S   0  0  0  0  0  0  0  0  0  0  0  0
    6.2860  -13.7994   25.4833 C   0  0  0  0  0  0  0  0  0  0  0  0
    7.5595  -14.5241   25.7115 C   0  0  0  0  0  0  0  0  0  0  0  0
    7.7381  -15.6599   24.7700 C   0  0  2  0  0  0  0  0  0  0  0  0
    6.6060  -16.5821   24.8433 N   0  0  0  0  0  0  0  0  0  0  0  0
    8.9963  -16.4082   24.8764 C   0  0  0  0  0  0  0  0  0  0  0  0
    9.0626  -17.5493   25.3591 O   0  0  0  0  0  0  0  0  0  0  0  0
   10.2541  -15.8693   24.4247 N   0  0  0  0  0  0  0  0  0  0  0  0
   11.4051  -16.6760   24.1136 C   0  0  1  0  0  0  0  0  0  0  0  0
   11.0464  -17.4749   22.8537 C   0  0  0  0  0  0  0  0  0  0  0  0
   10.5148  -16.4025   21.5090 S   0  0  0  0  0  0  0  0  0  0  0  0
   12.6031  -15.9032   23.8183 C   0  0  0  0  0  0  0  0  0  0  0  0
   13.8027  -16.5367   23.5641 O   0  0  0  0  0  0  0  0  0  0  0  0
   12.5671  -14.6555   23.7899 O   0  0  0  0  0  0  0  0  0  0  0  0
  2  1  1  0
  2  3  1  0
  3  4  2  0
  5  6  1  0
  7  6  1  0
  7  8  1  0
  9  8  1  1
  9 11  1  0
 10  3  1  0
 10  9  1  0
 11 12  2  0
 13 14  1  0
 13 11  1  0
 14 17  1  0
 14 15  1  6
 16 15  1  0
 17 19  2  0
 17 18  1  0
M  END
$$$$
