GMC.pdb
     RDKit          3D

 19 18  0  0  1  0  0  0  0  0999 V2000
    8.2645  -15.8773   19.1779 N   0  0  0  0  0  0  0  0  0  0  0  0
    7.2911  -15.6405   20.2230 C   0  0  0  0  0  0  0  0  0  0  0  0
    7.9579  -15.1876   21.4857 C   0  0  0  0  0  0  0  0  0  0  0  0
    9.2292  -15.2163   21.5891 O   0  0  0  0  0  0  0  0  0  0  0  0
    6.8882  -11.3792   28.2968 C   0  0  0  0  0  0  0  0  0  0  0  0
    6.1663  -11.9937   26.7496 S   0  0  0  0  0  0  0  0  0  0  0  0
    7.3692  -13.0813   25.8960 C   0  0  0  0  0  0  0  0  0  0  0  0
    6.7805  -13.5107   24.6045 C   0  0  0  0  0  0  0  0  0  0  0  0
    7.7039  -14.3743   23.8236 C   0  0  2  0  0  0  0  0  0  0  0  0
    7.1162  -14.7361   22.5347 N   0  0  0  0  0  0  0  0  0  0  0  0
    8.2030  -15.5787   24.4978 C   0  0  0  0  0  0  0  0  0  0  0  0
    7.6504  -16.6851   24.3969 O   0  0  0  0  0  0  0  0  0  0  0  0
    9.3787  -15.5644   25.3310 N   0  0  0  0  0  0  0  0  0  0  0  0
   10.0341  -16.7527   25.8110 C   0  0  1  0  0  0  0  0  0  0  0  0
   11.1887  -17.0329   24.8402 C   0  0  0  0  0  0  0  0  0  0  0  0
   12.1813  -18.4391   25.3676 S   0  0  0  0  0  0  0  0  0  0  0  0
   10.6037  -16.6134   27.1437 C   0  0  0  0  0  0  0  0  0  0  0  0
   10.7052  -17.7051   27.9819 O   0  0  0  0  0  0  0  0  0  0  0  0
   11.0099  -15.5054   27.5516 O   0  0  0  0  0  0  0  0  0  0  0  0
  2  1  1  0
  2  3  1  0
  3  4  2  0
  5  6  1  0
  7  6  1  0
  7  8  1  0
  9  8  1  1
  9 11  1  0
 10  3  1  0
 10  9  1  0
 11 12  2  0
 13 14  1  0
 13 11  1  0
 14 17  1  0
 14 15  1  6
 16 15  1  0
 17 19  2  0
 17 18  1  0
M  END
$$$$
