GMC.pdb
     RDKit          3D

 19 18  0  0  1  0  0  0  0  0999 V2000
    6.2795  -17.1240   19.8349 N   0  0  0  0  0  0  0  0  0  0  0  0
    6.0246  -17.1528   21.2597 C   0  0  0  0  0  0  0  0  0  0  0  0
    7.0698  -16.3839   22.0082 C   0  0  0  0  0  0  0  0  0  0  0  0
    8.1309  -15.9947   21.4163 O   0  0  0  0  0  0  0  0  0  0  0  0
    6.2704  -10.9684   26.6602 C   0  0  0  0  0  0  0  0  0  0  0  0
    6.6129  -12.7390   26.8602 S   0  0  0  0  0  0  0  0  0  0  0  0
    6.9967  -13.4818   25.2295 C   0  0  0  0  0  0  0  0  0  0  0  0
    7.3155  -14.9161   25.4298 C   0  0  0  0  0  0  0  0  0  0  0  0
    7.8788  -15.5444   24.2066 C   0  0  2  0  0  0  0  0  0  0  0  0
    6.8193  -16.1195   23.3794 N   0  0  0  0  0  0  0  0  0  0  0  0
    8.9439  -16.5338   24.4086 C   0  0  0  0  0  0  0  0  0  0  0  0
    8.7199  -17.7021   24.7616 O   0  0  0  0  0  0  0  0  0  0  0  0
   10.3360  -16.2192   24.2101 N   0  0  0  0  0  0  0  0  0  0  0  0
   11.4045  -17.1669   24.3903 C   0  0  1  0  0  0  0  0  0  0  0  0
   12.6766  -16.4912   23.8617 C   0  0  0  0  0  0  0  0  0  0  0  0
   14.1065  -17.5800   23.9664 S   0  0  0  0  0  0  0  0  0  0  0  0
   11.6431  -17.5277   25.7805 C   0  0  0  0  0  0  0  0  0  0  0  0
   11.3313  -16.6486   26.7978 O   0  0  0  0  0  0  0  0  0  0  0  0
   12.1333  -18.6370   26.0770 O   0  0  0  0  0  0  0  0  0  0  0  0
  2  1  1  0
  2  3  1  0
  3  4  2  0
  5  6  1  0
  7  6  1  0
  7  8  1  0
  9  8  1  1
  9 11  1  0
 10  3  1  0
 10  9  1  0
 11 12  2  0
 13 14  1  0
 13 11  1  0
 14 17  1  0
 14 15  1  1
 16 15  1  0
 17 19  2  0
 17 18  1  0
M  END
$$$$
