GMC.pdb
     RDKit          3D

 19 18  0  0  1  0  0  0  0  0999 V2000
    5.4593  -19.5170   21.4471 N   0  0  0  0  0  0  0  0  0  0  0  0
    5.1592  -18.8742   22.7090 C   0  0  0  0  0  0  0  0  0  0  0  0
    6.2258  -17.8889   23.0772 C   0  0  0  0  0  0  0  0  0  0  0  0
    7.3059  -17.8259   22.4011 O   0  0  0  0  0  0  0  0  0  0  0  0
    7.8086  -11.5113   27.4333 C   0  0  0  0  0  0  0  0  0  0  0  0
    6.6151  -12.7952   26.9648 S   0  0  0  0  0  0  0  0  0  0  0  0
    7.4318  -14.0354   25.8908 C   0  0  0  0  0  0  0  0  0  0  0  0
    6.4212  -15.0400   25.4804 C   0  0  0  0  0  0  0  0  0  0  0  0
    7.0063  -16.1174   24.6407 C   0  0  2  0  0  0  0  0  0  0  0  0
    5.9732  -17.0501   24.1931 N   0  0  0  0  0  0  0  0  0  0  0  0
    8.1312  -16.8619   25.2191 C   0  0  0  0  0  0  0  0  0  0  0  0
    7.9803  -17.7795   26.0407 O   0  0  0  0  0  0  0  0  0  0  0  0
    9.5013  -16.5803   24.8729 N   0  0  0  0  0  0  0  0  0  0  0  0
   10.5992  -17.4635   25.1677 C   0  0  1  0  0  0  0  0  0  0  0  0
   11.3314  -17.7024   23.8406 C   0  0  0  0  0  0  0  0  0  0  0  0
   11.7903  -16.1563   23.0407 S   0  0  0  0  0  0  0  0  0  0  0  0
   11.5630  -16.9108   26.1086 C   0  0  0  0  0  0  0  0  0  0  0  0
   11.3902  -15.6440   26.6284 O   0  0  0  0  0  0  0  0  0  0  0  0
   12.5616  -17.5718   26.4618 O   0  0  0  0  0  0  0  0  0  0  0  0
  2  1  1  0
  2  3  1  0
  3  4  2  0
  5  6  1  0
  7  6  1  0
  7  8  1  0
  9  8  1  1
  9 11  1  0
 10  3  1  0
 10  9  1  0
 11 12  2  0
 13 14  1  0
 13 11  1  0
 14 17  1  0
 14 15  1  6
 16 15  1  0
 17 19  2  0
 17 18  1  0
M  END
$$$$
