GMC.pdb
     RDKit          3D

 19 18  0  0  1  0  0  0  0  0999 V2000
    5.1525  -20.5366   23.4177 N   0  0  0  0  0  0  0  0  0  0  0  0
    5.7861  -19.8310   24.5115 C   0  0  0  0  0  0  0  0  0  0  0  0
    6.0744  -18.4092   24.1386 C   0  0  0  0  0  0  0  0  0  0  0  0
    5.8153  -17.9861   22.9631 O   0  0  0  0  0  0  0  0  0  0  0  0
    7.1175  -11.1685   26.8797 C   0  0  0  0  0  0  0  0  0  0  0  0
    7.0679  -12.9437   27.2520 S   0  0  0  0  0  0  0  0  0  0  0  0
    7.0901  -13.9030   25.6908 C   0  0  0  0  0  0  0  0  0  0  0  0
    6.9945  -15.3449   26.0237 C   0  0  0  0  0  0  0  0  0  0  0  0
    7.0134  -16.2055   24.8124 C   0  0  2  0  0  0  0  0  0  0  0  0
    6.6382  -17.5796   25.1419 N   0  0  0  0  0  0  0  0  0  0  0  0
    8.2526  -16.2037   24.0260 C   0  0  0  0  0  0  0  0  0  0  0  0
    9.2215  -16.9312   24.2937 O   0  0  0  0  0  0  0  0  0  0  0  0
    8.4359  -15.3520   22.8781 N   0  0  0  0  0  0  0  0  0  0  0  0
    9.5806  -15.4170   22.0076 C   0  0  1  0  0  0  0  0  0  0  0  0
    9.4017  -14.2988   20.9724 C   0  0  0  0  0  0  0  0  0  0  0  0
    7.7193  -14.2392   20.3344 S   0  0  0  0  0  0  0  0  0  0  0  0
   10.8491  -15.1903   22.6854 C   0  0  0  0  0  0  0  0  0  0  0  0
   12.0354  -15.2087   21.9802 O   0  0  0  0  0  0  0  0  0  0  0  0
   10.8866  -14.9757   23.9148 O   0  0  0  0  0  0  0  0  0  0  0  0
  2  1  1  0
  2  3  1  0
  3  4  2  0
  5  6  1  0
  7  6  1  0
  7  8  1  0
  9  8  1  1
  9 11  1  0
 10  3  1  0
 10  9  1  0
 11 12  2  0
 13 14  1  0
 13 11  1  0
 14 17  1  0
 14 15  1  6
 16 15  1  0
 17 19  2  0
 17 18  1  0
M  END
$$$$
