GMC.pdb
     RDKit          3D

 19 18  0  0  1  0  0  0  0  0999 V2000
    6.5656  -19.5533   23.4207 N   0  0  0  0  0  0  0  0  0  0  0  0
    6.3093  -18.5898   24.4704 C   0  0  0  0  0  0  0  0  0  0  0  0
    7.0855  -17.3288   24.2435 C   0  0  0  0  0  0  0  0  0  0  0  0
    7.9232  -17.2516   23.2844 O   0  0  0  0  0  0  0  0  0  0  0  0
    4.9266  -11.8939   26.7537 C   0  0  0  0  0  0  0  0  0  0  0  0
    6.5520  -11.2674   26.2458 S   0  0  0  0  0  0  0  0  0  0  0  0
    7.4274  -12.5447   25.2658 C   0  0  0  0  0  0  0  0  0  0  0  0
    6.7685  -13.8519   25.5021 C   0  0  0  0  0  0  0  0  0  0  0  0
    7.5487  -14.9858   24.9418 C   0  0  2  0  0  0  0  0  0  0  0  0
    6.8424  -16.2514   25.1339 N   0  0  0  0  0  0  0  0  0  0  0  0
    8.9368  -15.1168   25.4005 C   0  0  0  0  0  0  0  0  0  0  0  0
    9.7656  -14.1977   25.3105 O   0  0  0  0  0  0  0  0  0  0  0  0
    9.4416  -16.3296   25.9929 N   0  0  0  0  0  0  0  0  0  0  0  0
   10.6999  -16.4181   26.6865 C   0  0  1  0  0  0  0  0  0  0  0  0
   10.4339  -15.9609   28.1268 C   0  0  0  0  0  0  0  0  0  0  0  0
   10.7483  -14.2012   28.3400 S   0  0  0  0  0  0  0  0  0  0  0  0
   11.2453  -17.7667   26.7466 C   0  0  0  0  0  0  0  0  0  0  0  0
   12.4829  -17.9994   27.3114 O   0  0  0  0  0  0  0  0  0  0  0  0
   10.6043  -18.7356   26.2889 O   0  0  0  0  0  0  0  0  0  0  0  0
  2  1  1  0
  2  3  1  0
  3  4  2  0
  5  6  1  0
  7  6  1  0
  7  8  1  0
  9  8  1  1
  9 11  1  0
 10  3  1  0
 10  9  1  0
 11 12  2  0
 13 14  1  0
 13 11  1  0
 14 17  1  0
 14 15  1  1
 16 15  1  0
 17 19  2  0
 17 18  1  0
M  END
$$$$
