GMC.pdb
     RDKit          3D

 19 18  0  0  1  0  0  0  0  0999 V2000
    4.7564  -20.4132   23.3422 N   0  0  0  0  0  0  0  0  0  0  0  0
    5.6276  -19.9410   24.3976 C   0  0  0  0  0  0  0  0  0  0  0  0
    6.2326  -18.6173   24.0431 C   0  0  0  0  0  0  0  0  0  0  0  0
    6.5013  -18.3364   22.8279 O   0  0  0  0  0  0  0  0  0  0  0  0
    7.2906  -11.2129   26.3644 C   0  0  0  0  0  0  0  0  0  0  0  0
    6.6732  -12.8743   26.7529 S   0  0  0  0  0  0  0  0  0  0  0  0
    7.2326  -14.0568   25.4696 C   0  0  0  0  0  0  0  0  0  0  0  0
    6.7204  -15.4044   25.8169 C   0  0  0  0  0  0  0  0  0  0  0  0
    7.1347  -16.4362   24.8310 C   0  0  2  0  0  0  0  0  0  0  0  0
    6.4841  -17.7156   25.1091 N   0  0  0  0  0  0  0  0  0  0  0  0
    8.5785  -16.6393   24.6618 C   0  0  0  0  0  0  0  0  0  0  0  0
    9.2974  -17.1325   25.5448 O   0  0  0  0  0  0  0  0  0  0  0  0
    9.2708  -16.2791   23.4504 N   0  0  0  0  0  0  0  0  0  0  0  0
   10.6129  -16.6977   23.1408 C   0  0  1  0  0  0  0  0  0  0  0  0
   10.8065  -16.4551   21.6382 C   0  0  0  0  0  0  0  0  0  0  0  0
   10.4768  -14.7436   21.1878 S   0  0  0  0  0  0  0  0  0  0  0  0
   11.6414  -15.9447   23.8442 C   0  0  0  0  0  0  0  0  0  0  0  0
   11.3030  -14.8745   24.6473 O   0  0  0  0  0  0  0  0  0  0  0  0
   12.8463  -16.2529   23.7337 O   0  0  0  0  0  0  0  0  0  0  0  0
  2  1  1  0
  2  3  1  0
  3  4  2  0
  5  6  1  0
  7  6  1  0
  7  8  1  0
  9  8  1  1
  9 11  1  0
 10  3  1  0
 10  9  1  0
 11 12  2  0
 13 14  1  0
 13 11  1  0
 14 17  1  0
 14 15  1  6
 16 15  1  0
 17 19  2  0
 17 18  1  0
M  END
$$$$
