GMC.pdb
     RDKit          3D

 19 18  0  0  1  0  0  0  0  0999 V2000
    8.3257  -18.0779   21.0371 N   0  0  0  0  0  0  0  0  0  0  0  0
    7.7107  -18.0177   22.3462 C   0  0  0  0  0  0  0  0  0  0  0  0
    8.1907  -16.8225   23.1110 C   0  0  0  0  0  0  0  0  0  0  0  0
    9.2284  -16.1866   22.7280 O   0  0  0  0  0  0  0  0  0  0  0  0
    6.3013  -10.7207   25.3795 C   0  0  0  0  0  0  0  0  0  0  0  0
    5.9129  -12.1187   26.4692 S   0  0  0  0  0  0  0  0  0  0  0  0
    7.2597  -13.3587   26.3867 C   0  0  0  0  0  0  0  0  0  0  0  0
    6.8003  -14.4968   25.5543 C   0  0  0  0  0  0  0  0  0  0  0  0
    7.9259  -15.3560   25.1038 C   0  0  2  0  0  0  0  0  0  0  0  0
    7.4445  -16.4466   24.2576 N   0  0  0  0  0  0  0  0  0  0  0  0
    8.8032  -15.8905   26.1521 C   0  0  0  0  0  0  0  0  0  0  0  0
    8.5057  -16.8795   26.8400 O   0  0  0  0  0  0  0  0  0  0  0  0
   10.0822  -15.3027   26.4608 N   0  0  0  0  0  0  0  0  0  0  0  0
   11.0091  -15.8569   27.4126 C   0  0  1  0  0  0  0  0  0  0  0  0
   10.4973  -15.4527   28.8015 C   0  0  0  0  0  0  0  0  0  0  0  0
   10.1604  -13.6872   28.9038 S   0  0  0  0  0  0  0  0  0  0  0  0
   11.0891  -17.3102   27.3789 C   0  0  0  0  0  0  0  0  0  0  0  0
   11.9091  -17.9892   28.2572 O   0  0  0  0  0  0  0  0  0  0  0  0
   10.4183  -17.9676   26.5561 O   0  0  0  0  0  0  0  0  0  0  0  0
  2  1  1  0
  2  3  1  0
  3  4  2  0
  5  6  1  0
  7  6  1  0
  7  8  1  0
  9  8  1  1
  9 11  1  0
 10  3  1  0
 10  9  1  0
 11 12  2  0
 13 14  1  0
 13 11  1  0
 14 17  1  0
 14 15  1  1
 16 15  1  0
 17 19  2  0
 17 18  1  0
M  END
$$$$
