AKA.pdb
     RDKit          3D

 20 19  0  0  1  0  0  0  0  0999 V2000
    8.8842  -11.9957   19.1476 C   0  0  0  0  0  0  0  0  0  0  0  0
    8.1482  -13.1917   18.6061 C   0  0  2  0  0  0  0  0  0  0  0  0
    6.9066  -12.7690   17.9960 N   0  0  0  0  0  0  0  0  0  0  0  0
    7.9091  -14.2177   19.6563 C   0  0  0  0  0  0  0  0  0  0  0  0
    6.8920  -14.0741   20.3789 O   0  0  0  0  0  0  0  0  0  0  0  0
    8.7548  -15.3205   19.8721 N   0  0  0  0  0  0  0  0  0  0  0  0
    8.4923  -16.2801   20.9160 C   0  0  1  0  0  0  0  0  0  0  0  0
    8.8268  -17.6826   20.4806 C   0  0  0  0  0  0  0  0  0  0  0  0
    7.9324  -18.1874   19.3703 C   0  0  0  0  0  0  0  0  0  0  0  0
    8.2935  -19.5602   18.9107 C   0  0  0  0  0  0  0  0  0  0  0  0
    7.3465  -20.0900   17.8555 C   0  0  0  0  0  0  0  0  0  0  0  0
    7.7844  -21.3217   17.2697 N   0  0  0  0  0  0  0  0  0  0  0  0
    9.3484  -15.9905   22.1022 C   0  0  0  0  0  0  0  0  0  0  0  0
   10.5416  -15.6441   21.9705 O   0  0  0  0  0  0  0  0  0  0  0  0
    8.8165  -14.8310   25.4748 C   0  0  0  0  0  0  0  0  0  0  0  0
    9.5795  -15.7998   24.5848 C   0  0  2  0  0  0  0  0  0  0  0  0
    8.8032  -16.1091   23.4025 N   0  0  0  0  0  0  0  0  0  0  0  0
    9.8676  -17.0527   25.3531 C   0  0  0  0  0  0  0  0  0  0  0  0
    9.2526  -18.1047   25.0807 O   0  0  0  0  0  0  0  0  0  0  0  0
   10.8011  -17.0554   26.3535 O   0  0  0  0  0  0  0  0  0  0  0  0
  2  1  1  1
  2  3  1  0
  2  4  1  0
  4  6  1  0
  5  4  2  0
  6  7  1  0
  7 13  1  0
  7  8  1  6
  9  8  1  0
 10 11  1  0
 10  9  1  0
 12 11  1  0
 13 17  1  0
 13 14  2  0
 16 15  1  1
 17 16  1  0
 18 16  1  0
 18 20  1  0
 19 18  2  0
M  END
$$$$
