AKA.pdb
     RDKit          3D

 20 19  0  0  1  0  0  0  0  0999 V2000
    8.1429  -12.1372   19.3157 C   0  0  0  0  0  0  0  0  0  0  0  0
    8.2886  -13.4827   18.6572 C   0  0  2  0  0  0  0  0  0  0  0  0
    7.2442  -13.6632   17.6728 N   0  0  0  0  0  0  0  0  0  0  0  0
    8.2874  -14.5895   19.6512 C   0  0  0  0  0  0  0  0  0  0  0  0
    7.1731  -15.0697   19.9751 O   0  0  0  0  0  0  0  0  0  0  0  0
    9.4561  -15.1123   20.2335 N   0  0  0  0  0  0  0  0  0  0  0  0
    9.4209  -16.2806   21.0779 C   0  0  1  0  0  0  0  0  0  0  0  0
   10.1266  -17.4492   20.4417 C   0  0  0  0  0  0  0  0  0  0  0  0
   10.0116  -18.7223   21.2502 C   0  0  0  0  0  0  0  0  0  0  0  0
   10.6036  -19.9054   20.5604 C   0  0  0  0  0  0  0  0  0  0  0  0
   10.3468  -21.2008   21.3001 C   0  0  0  0  0  0  0  0  0  0  0  0
   10.7989  -22.3581   20.5873 N   0  0  0  0  0  0  0  0  0  0  0  0
   10.1313  -16.0051   22.3599 C   0  0  0  0  0  0  0  0  0  0  0  0
   11.2877  -15.5321   22.3706 O   0  0  0  0  0  0  0  0  0  0  0  0
    9.1352  -15.7073   25.9281 C   0  0  0  0  0  0  0  0  0  0  0  0
   10.1510  -16.0796   24.8592 C   0  0  2  0  0  0  0  0  0  0  0  0
    9.4873  -16.2831   23.5887 N   0  0  0  0  0  0  0  0  0  0  0  0
   10.8656  -17.3294   25.2722 C   0  0  0  0  0  0  0  0  0  0  0  0
   10.4850  -18.4361   24.8370 O   0  0  0  0  0  0  0  0  0  0  0  0
   11.9346  -17.2695   26.1241 O   0  0  0  0  0  0  0  0  0  0  0  0
  2  1  1  1
  2  3  1  0
  2  4  1  0
  4  6  1  0
  5  4  2  0
  6  7  1  0
  7 13  1  0
  7  8  1  6
  9  8  1  0
 10 11  1  0
 10  9  1  0
 12 11  1  0
 13 17  1  0
 13 14  2  0
 16 15  1  1
 17 16  1  0
 18 16  1  0
 18 20  1  0
 19 18  2  0
M  END
$$$$
