AKA.pdb
     RDKit          3D

 20 19  0  0  1  0  0  0  0  0999 V2000
    8.6714  -20.3366   19.3370 C   0  0  0  0  0  0  0  0  0  0  0  0
    8.6694  -18.9517   18.7479 C   0  0  2  0  0  0  0  0  0  0  0  0
    9.3540  -18.9593   17.4736 N   0  0  0  0  0  0  0  0  0  0  0  0
    9.2691  -17.9542   19.6744 C   0  0  0  0  0  0  0  0  0  0  0  0
   10.5209  -17.8528   19.6775 O   0  0  0  0  0  0  0  0  0  0  0  0
    8.5115  -17.1353   20.5308 N   0  0  0  0  0  0  0  0  0  0  0  0
    9.1300  -16.1181   21.3446 C   0  0  1  0  0  0  0  0  0  0  0  0
    8.1626  -15.0167   21.6903 C   0  0  0  0  0  0  0  0  0  0  0  0
    8.3335  -13.7859   20.8280 C   0  0  0  0  0  0  0  0  0  0  0  0
    7.6263  -13.8898   19.5184 C   0  0  0  0  0  0  0  0  0  0  0  0
    7.8946  -12.7054   18.6149 C   0  0  0  0  0  0  0  0  0  0  0  0
    7.2798  -12.8261   17.3267 N   0  0  0  0  0  0  0  0  0  0  0  0
    9.5818  -16.7051   22.6389 C   0  0  0  0  0  0  0  0  0  0  0  0
    8.8059  -17.3777   23.3507 O   0  0  0  0  0  0  0  0  0  0  0  0
   12.9411  -16.9673   24.3352 C   0  0  0  0  0  0  0  0  0  0  0  0
   11.4304  -17.1294   24.2684 C   0  0  2  0  0  0  0  0  0  0  0  0
   10.9129  -16.4988   23.0723 N   0  0  0  0  0  0  0  0  0  0  0  0
   10.8138  -16.5096   25.4844 C   0  0  0  0  0  0  0  0  0  0  0  0
   11.0664  -16.9743   26.6155 O   0  0  0  0  0  0  0  0  0  0  0  0
    9.9738  -15.4358   25.3672 O   0  0  0  0  0  0  0  0  0  0  0  0
  2  1  1  1
  2  3  1  0
  2  4  1  0
  4  6  1  0
  5  4  2  0
  6  7  1  0
  7 13  1  0
  7  8  1  1
  9  8  1  0
 10 11  1  0
 10  9  1  0
 12 11  1  0
 13 17  1  0
 13 14  2  0
 16 15  1  1
 17 16  1  0
 18 16  1  0
 18 20  1  0
 19 18  2  0
M  END
$$$$
