AKA.pdb
     RDKit          3D

 20 19  0  0  1  0  0  0  0  0999 V2000
    8.4653  -12.5988   19.6709 C   0  0  0  0  0  0  0  0  0  0  0  0
    8.0941  -14.0560   19.7321 C   0  0  2  0  0  0  0  0  0  0  0  0
    7.1830  -14.3761   18.6550 N   0  0  0  0  0  0  0  0  0  0  0  0
    7.5169  -14.4262   21.0522 C   0  0  0  0  0  0  0  0  0  0  0  0
    6.2721  -14.3241   21.1841 O   0  0  0  0  0  0  0  0  0  0  0  0
    8.2881  -14.8768   22.1386 N   0  0  0  0  0  0  0  0  0  0  0  0
    7.6753  -15.3247   23.3647 C   0  0  1  0  0  0  0  0  0  0  0  0
    8.0967  -16.7268   23.7184 C   0  0  0  0  0  0  0  0  0  0  0  0
    7.5491  -17.1920   25.0492 C   0  0  0  0  0  0  0  0  0  0  0  0
    7.9462  -18.5904   25.3854 C   0  0  0  0  0  0  0  0  0  0  0  0
    7.3443  -19.0706   26.6885 C   0  0  0  0  0  0  0  0  0  0  0  0
    7.7862  -20.3795   27.0671 N   0  0  0  0  0  0  0  0  0  0  0  0
    8.1063  -14.4558   24.4975 C   0  0  0  0  0  0  0  0  0  0  0  0
    9.3162  -14.2496   24.7314 O   0  0  0  0  0  0  0  0  0  0  0  0
    6.2874  -12.1879   26.8898 C   0  0  0  0  0  0  0  0  0  0  0  0
    7.4956  -12.9871   26.4270 C   0  0  2  0  0  0  0  0  0  0  0  0
    7.1301  -13.8519   25.3249 N   0  0  0  0  0  0  0  0  0  0  0  0
    8.0146  -13.8031   27.5707 C   0  0  0  0  0  0  0  0  0  0  0  0
    7.8093  -15.0344   27.5999 O   0  0  0  0  0  0  0  0  0  0  0  0
    8.7134  -13.2102   28.5867 O   0  0  0  0  0  0  0  0  0  0  0  0
  2  1  1  1
  2  3  1  0
  2  4  1  0
  4  6  1  0
  5  4  2  0
  6  7  1  0
  7 13  1  0
  7  8  1  1
  9  8  1  0
 10 11  1  0
 10  9  1  0
 12 11  1  0
 13 17  1  0
 13 14  2  0
 16 15  1  1
 17 16  1  0
 18 16  1  0
 18 20  1  0
 19 18  2  0
M  END
$$$$
