AKA.pdb
     RDKit          3D

 20 19  0  0  1  0  0  0  0  0999 V2000
    9.0387  -20.5940   20.2242 C   0  0  0  0  0  0  0  0  0  0  0  0
    7.5572  -20.8572   20.2526 C   0  0  2  0  0  0  0  0  0  0  0  0
    6.8969  -20.0554   19.2457 N   0  0  0  0  0  0  0  0  0  0  0  0
    6.9763  -20.6131   21.6001 C   0  0  0  0  0  0  0  0  0  0  0  0
    6.3258  -19.5510   21.7616 O   0  0  0  0  0  0  0  0  0  0  0  0
    7.1203  -21.5014   22.6809 N   0  0  0  0  0  0  0  0  0  0  0  0
    6.5320  -21.2255   23.9682 C   0  0  1  0  0  0  0  0  0  0  0  0
    6.1580  -22.4918   24.6928 C   0  0  0  0  0  0  0  0  0  0  0  0
    5.5112  -22.2368   26.0359 C   0  0  0  0  0  0  0  0  0  0  0  0
    5.1805  -23.4926   26.7706 C   0  0  0  0  0  0  0  0  0  0  0  0
    4.4868  -23.2310   28.0902 C   0  0  0  0  0  0  0  0  0  0  0  0
    4.1264  -24.4296   28.7870 N   0  0  0  0  0  0  0  0  0  0  0  0
    7.5149  -20.5163   24.8369 C   0  0  0  0  0  0  0  0  0  0  0  0
    8.6685  -20.9645   25.0091 O   0  0  0  0  0  0  0  0  0  0  0  0
    7.4659  -17.2284   26.6936 C   0  0  0  0  0  0  0  0  0  0  0  0
    8.0611  -18.5763   26.3170 C   0  0  2  0  0  0  0  0  0  0  0  0
    7.1382  -19.3135   25.4799 N   0  0  0  0  0  0  0  0  0  0  0  0
    8.3553  -19.3512   27.5645 C   0  0  0  0  0  0  0  0  0  0  0  0
    9.4862  -19.2798   28.0889 O   0  0  0  0  0  0  0  0  0  0  0  0
    7.3936  -20.1388   28.1364 O   0  0  0  0  0  0  0  0  0  0  0  0
  2  1  1  1
  2  3  1  0
  2  4  1  0
  4  6  1  0
  5  4  2  0
  6  7  1  0
  7 13  1  0
  7  8  1  1
  9  8  1  0
 10 11  1  0
 10  9  1  0
 12 11  1  0
 13 17  1  0
 13 14  2  0
 16 15  1  1
 17 16  1  0
 18 16  1  0
 18 20  1  0
 19 18  2  0
M  END
$$$$
