AKA.pdb
     RDKit          3D

 20 19  0  0  1  0  0  0  0  0999 V2000
    8.6655  -12.0855   19.7637 C   0  0  0  0  0  0  0  0  0  0  0  0
    8.1727  -13.2391   18.9321 C   0  0  2  0  0  0  0  0  0  0  0  0
    6.7725  -13.0553   18.6186 N   0  0  0  0  0  0  0  0  0  0  0  0
    8.4063  -14.5460   19.6031 C   0  0  0  0  0  0  0  0  0  0  0  0
    7.4442  -15.0469   20.2362 O   0  0  0  0  0  0  0  0  0  0  0  0
    9.6329  -15.2328   19.5612 N   0  0  0  0  0  0  0  0  0  0  0  0
    9.8185  -16.4886   20.2452 C   0  0  1  0  0  0  0  0  0  0  0  0
   10.5309  -17.4945   19.3798 C   0  0  0  0  0  0  0  0  0  0  0  0
   10.6594  -18.8525   20.0330 C   0  0  0  0  0  0  0  0  0  0  0  0
    9.4415  -19.6976   19.8636 C   0  0  0  0  0  0  0  0  0  0  0  0
    9.5520  -21.0293   20.5746 C   0  0  0  0  0  0  0  0  0  0  0  0
    8.4593  -21.9121   20.2946 N   0  0  0  0  0  0  0  0  0  0  0  0
   10.6713  -16.2908   21.4525 C   0  0  0  0  0  0  0  0  0  0  0  0
   11.7945  -15.7497   21.3702 O   0  0  0  0  0  0  0  0  0  0  0  0
   10.0543  -16.4466   25.1307 C   0  0  0  0  0  0  0  0  0  0  0  0
   10.9765  -16.5209   23.9237 C   0  0  2  0  0  0  0  0  0  0  0  0
   10.2035  -16.7224   22.7162 N   0  0  0  0  0  0  0  0  0  0  0  0
   11.9426  -17.6500   24.1101 C   0  0  0  0  0  0  0  0  0  0  0  0
   12.8189  -17.5789   24.9968 O   0  0  0  0  0  0  0  0  0  0  0  0
   11.8739  -18.7619   23.3157 O   0  0  0  0  0  0  0  0  0  0  0  0
  2  1  1  1
  2  3  1  0
  2  4  1  0
  4  6  1  0
  5  4  2  0
  6  7  1  0
  7 13  1  0
  7  8  1  6
  9  8  1  0
 10 11  1  0
 10  9  1  0
 12 11  1  0
 13 17  1  0
 13 14  2  0
 16 15  1  1
 17 16  1  0
 18 16  1  0
 18 20  1  0
 19 18  2  0
M  END
$$$$
