AKA.pdb
     RDKit          3D

 20 19  0  0  1  0  0  0  0  0999 V2000
    8.9598  -20.8051   18.6049 C   0  0  0  0  0  0  0  0  0  0  0  0
    9.1691  -19.4780   17.9264 C   0  0  2  0  0  0  0  0  0  0  0  0
    9.9794  -19.6550   16.7412 N   0  0  0  0  0  0  0  0  0  0  0  0
    9.7718  -18.4748   18.8447 C   0  0  0  0  0  0  0  0  0  0  0  0
   11.0255  -18.4077   18.8794 O   0  0  0  0  0  0  0  0  0  0  0  0
    9.0151  -17.6144   19.6603 N   0  0  0  0  0  0  0  0  0  0  0  0
    9.6425  -16.6186   20.4933 C   0  0  1  0  0  0  0  0  0  0  0  0
    8.7150  -15.4670   20.7796 C   0  0  0  0  0  0  0  0  0  0  0  0
    8.4059  -14.6365   19.5539 C   0  0  0  0  0  0  0  0  0  0  0  0
    7.3539  -13.6071   19.7984 C   0  0  0  0  0  0  0  0  0  0  0  0
    7.0900  -12.7429   18.5841 C   0  0  0  0  0  0  0  0  0  0  0  0
    6.0031  -11.8279   18.7666 N   0  0  0  0  0  0  0  0  0  0  0  0
   10.0009  -17.2107   21.8143 C   0  0  0  0  0  0  0  0  0  0  0  0
    9.1539  -17.8196   22.5021 O   0  0  0  0  0  0  0  0  0  0  0  0
   13.2257  -17.9135   23.5735 C   0  0  0  0  0  0  0  0  0  0  0  0
   11.7269  -17.6557   23.5680 C   0  0  2  0  0  0  0  0  0  0  0  0
   11.3233  -17.0828   22.3012 N   0  0  0  0  0  0  0  0  0  0  0  0
   11.3831  -16.7220   24.6875 C   0  0  0  0  0  0  0  0  0  0  0  0
   10.9528  -15.5778   24.4331 O   0  0  0  0  0  0  0  0  0  0  0  0
   11.5365  -17.1123   25.9899 O   0  0  0  0  0  0  0  0  0  0  0  0
  2  1  1  1
  2  3  1  0
  2  4  1  0
  4  6  1  0
  5  4  2  0
  6  7  1  0
  7 13  1  0
  7  8  1  1
  9  8  1  0
 10 11  1  0
 10  9  1  0
 12 11  1  0
 13 17  1  0
 13 14  2  0
 16 15  1  6
 17 16  1  0
 18 16  1  0
 18 20  1  0
 19 18  2  0
M  END
$$$$
