AKA.pdb
     RDKit          3D

 20 19  0  0  1  0  0  0  0  0999 V2000
    7.2414  -12.9476   20.1749 C   0  0  0  0  0  0  0  0  0  0  0  0
    8.3599  -13.7921   20.7234 C   0  0  2  0  0  0  0  0  0  0  0  0
    8.5423  -14.9637   19.8947 N   0  0  0  0  0  0  0  0  0  0  0  0
    8.1251  -14.1691   22.1431 C   0  0  0  0  0  0  0  0  0  0  0  0
    7.8853  -13.2392   22.9525 O   0  0  0  0  0  0  0  0  0  0  0  0
    8.1588  -15.4951   22.6107 N   0  0  0  0  0  0  0  0  0  0  0  0
    7.7990  -15.8263   23.9673 C   0  0  1  0  0  0  0  0  0  0  0  0
    7.6507  -17.3131   24.1572 C   0  0  0  0  0  0  0  0  0  0  0  0
    7.3624  -17.7014   25.5902 C   0  0  0  0  0  0  0  0  0  0  0  0
    7.1789  -19.1712   25.7694 C   0  0  0  0  0  0  0  0  0  0  0  0
    6.7458  -19.5382   27.1725 C   0  0  0  0  0  0  0  0  0  0  0  0
    6.5639  -20.9469   27.3579 N   0  0  0  0  0  0  0  0  0  0  0  0
    8.8743  -15.3863   24.9022 C   0  0  0  0  0  0  0  0  0  0  0  0
   10.0774  -15.6240   24.6632 O   0  0  0  0  0  0  0  0  0  0  0  0
    9.1020  -13.0215   27.7646 C   0  0  0  0  0  0  0  0  0  0  0  0
    9.5284  -14.2980   27.0564 C   0  0  2  0  0  0  0  0  0  0  0  0
    8.5298  -14.6864   26.0828 N   0  0  0  0  0  0  0  0  0  0  0  0
    9.7100  -15.3865   28.0690 C   0  0  0  0  0  0  0  0  0  0  0  0
    8.9397  -16.3692   28.0709 O   0  0  0  0  0  0  0  0  0  0  0  0
   10.7151  -15.3140   28.9947 O   0  0  0  0  0  0  0  0  0  0  0  0
  2  1  1  6
  2  3  1  0
  2  4  1  0
  4  6  1  0
  5  4  2  0
  6  7  1  0
  7 13  1  0
  7  8  1  6
  9  8  1  0
 10 11  1  0
 10  9  1  0
 12 11  1  0
 13 17  1  0
 13 14  2  0
 16 15  1  1
 17 16  1  0
 18 16  1  0
 18 20  1  0
 19 18  2  0
M  END
$$$$
