AKA.pdb
     RDKit          3D

 20 19  0  0  1  0  0  0  0  0999 V2000
   12.2705  -17.8934   17.0703 C   0  0  0  0  0  0  0  0  0  0  0  0
   12.0404  -18.7934   18.2545 C   0  0  2  0  0  0  0  0  0  0  0  0
   10.8940  -19.6413   18.0113 N   0  0  0  0  0  0  0  0  0  0  0  0
   11.8795  -18.0204   19.5153 C   0  0  0  0  0  0  0  0  0  0  0  0
   12.9263  -17.6127   20.0769 O   0  0  0  0  0  0  0  0  0  0  0  0
   10.6314  -17.7312   20.0955 N   0  0  0  0  0  0  0  0  0  0  0  0
   10.5241  -16.9617   21.3103 C   0  0  1  0  0  0  0  0  0  0  0  0
    9.2611  -16.1416   21.3406 C   0  0  0  0  0  0  0  0  0  0  0  0
    9.2942  -14.9676   20.3876 C   0  0  0  0  0  0  0  0  0  0  0  0
    8.0008  -14.2257   20.3329 C   0  0  0  0  0  0  0  0  0  0  0  0
    8.0197  -13.0937   19.3283 C   0  0  0  0  0  0  0  0  0  0  0  0
    6.7578  -12.4274   19.2034 N   0  0  0  0  0  0  0  0  0  0  0  0
   10.4636  -17.8741   22.4884 C   0  0  0  0  0  0  0  0  0  0  0  0
    9.5523  -18.7208   22.6055 O   0  0  0  0  0  0  0  0  0  0  0  0
   12.6149  -19.6415   24.5550 C   0  0  0  0  0  0  0  0  0  0  0  0
   11.4555  -18.6614   24.6446 C   0  0  2  0  0  0  0  0  0  0  0  0
   11.4546  -17.7823   23.4943 N   0  0  0  0  0  0  0  0  0  0  0  0
   11.5831  -17.8604   25.9037 C   0  0  0  0  0  0  0  0  0  0  0  0
   11.8388  -16.6399   25.8412 O   0  0  0  0  0  0  0  0  0  0  0  0
   11.4218  -18.4554   27.1252 O   0  0  0  0  0  0  0  0  0  0  0  0
  2  1  1  6
  2  3  1  0
  2  4  1  0
  4  6  1  0
  5  4  2  0
  6  7  1  0
  7 13  1  0
  7  8  1  6
  9  8  1  0
 10 11  1  0
 10  9  1  0
 12 11  1  0
 13 17  1  0
 13 14  2  0
 16 15  1  6
 17 16  1  0
 18 16  1  0
 18 20  1  0
 19 18  2  0
M  END
$$$$
