AKA.pdb
     RDKit          3D

 20 19  0  0  1  0  0  0  0  0999 V2000
    9.4909  -12.4153   20.0665 C   0  0  0  0  0  0  0  0  0  0  0  0
    8.5146  -13.5505   19.9140 C   0  0  2  0  0  0  0  0  0  0  0  0
    7.4765  -13.1825   18.9762 N   0  0  0  0  0  0  0  0  0  0  0  0
    7.9365  -13.9640   21.2208 C   0  0  0  0  0  0  0  0  0  0  0  0
    6.9235  -13.3407   21.6240 O   0  0  0  0  0  0  0  0  0  0  0  0
    8.4635  -15.0020   22.0101 N   0  0  0  0  0  0  0  0  0  0  0  0
    7.8228  -15.4205   23.2323 C   0  0  1  0  0  0  0  0  0  0  0  0
    7.6888  -16.9188   23.3063 C   0  0  0  0  0  0  0  0  0  0  0  0
    6.6263  -17.4651   22.3788 C   0  0  0  0  0  0  0  0  0  0  0  0
    6.4722  -18.9458   22.4782 C   0  0  0  0  0  0  0  0  0  0  0  0
    5.3153  -19.4685   21.6539 C   0  0  0  0  0  0  0  0  0  0  0  0
    5.1126  -20.8795   21.7949 N   0  0  0  0  0  0  0  0  0  0  0  0
    8.6468  -15.0116   24.4061 C   0  0  0  0  0  0  0  0  0  0  0  0
    9.8823  -15.1962   24.4257 O   0  0  0  0  0  0  0  0  0  0  0  0
    7.9442  -12.9450   27.4684 C   0  0  0  0  0  0  0  0  0  0  0  0
    8.7858  -13.9083   26.6458 C   0  0  2  0  0  0  0  0  0  0  0  0
    8.0215  -14.4031   25.5201 N   0  0  0  0  0  0  0  0  0  0  0  0
    9.2198  -15.0489   27.5140 C   0  0  0  0  0  0  0  0  0  0  0  0
    8.6967  -16.1736   27.3707 O   0  0  0  0  0  0  0  0  0  0  0  0
   10.1868  -14.8695   28.4652 O   0  0  0  0  0  0  0  0  0  0  0  0
  2  1  1  1
  2  3  1  0
  2  4  1  0
  4  6  1  0
  5  4  2  0
  6  7  1  0
  7 13  1  0
  7  8  1  6
  9  8  1  0
 10 11  1  0
 10  9  1  0
 12 11  1  0
 13 17  1  0
 13 14  2  0
 16 15  1  1
 17 16  1  0
 18 16  1  0
 18 20  1  0
 19 18  2  0
M  END
$$$$
