AKA.pdb
     RDKit          3D

 20 19  0  0  1  0  0  0  0  0999 V2000
    8.2010  -12.2046   20.5691 C   0  0  0  0  0  0  0  0  0  0  0  0
    8.2311  -13.6919   20.3400 C   0  0  2  0  0  0  0  0  0  0  0  0
    7.2027  -14.0635   19.3930 N   0  0  0  0  0  0  0  0  0  0  0  0
    8.0909  -14.4516   21.6113 C   0  0  0  0  0  0  0  0  0  0  0  0
    6.9250  -14.6958   22.0092 O   0  0  0  0  0  0  0  0  0  0  0  0
    9.1848  -14.9001   22.3731 N   0  0  0  0  0  0  0  0  0  0  0  0
    9.0051  -15.7503   23.5239 C   0  0  1  0  0  0  0  0  0  0  0  0
    9.6470  -17.0983   23.3263 C   0  0  0  0  0  0  0  0  0  0  0  0
    9.4402  -18.0306   24.4991 C   0  0  0  0  0  0  0  0  0  0  0  0
   10.0340  -19.3818   24.2805 C   0  0  0  0  0  0  0  0  0  0  0  0
    9.7733  -20.3271   25.4335 C   0  0  0  0  0  0  0  0  0  0  0  0
   10.2918  -21.6442   25.2133 N   0  0  0  0  0  0  0  0  0  0  0  0
    9.6613  -15.1406   24.7162 C   0  0  0  0  0  0  0  0  0  0  0  0
   10.8759  -14.8476   24.7077 O   0  0  0  0  0  0  0  0  0  0  0  0
    8.3957  -13.4236   27.7599 C   0  0  0  0  0  0  0  0  0  0  0  0
    9.4666  -14.2233   27.0343 C   0  0  2  0  0  0  0  0  0  0  0  0
    8.8979  -14.8876   25.8804 N   0  0  0  0  0  0  0  0  0  0  0  0
   10.0491  -15.2337   27.9740 C   0  0  0  0  0  0  0  0  0  0  0  0
    9.7940  -16.4462   27.8198 O   0  0  0  0  0  0  0  0  0  0  0  0
   10.8604  -14.8393   29.0028 O   0  0  0  0  0  0  0  0  0  0  0  0
  2  1  1  1
  2  3  1  0
  2  4  1  0
  4  6  1  0
  5  4  2  0
  6  7  1  0
  7 13  1  0
  7  8  1  6
  9  8  1  0
 10 11  1  0
 10  9  1  0
 12 11  1  0
 13 17  1  0
 13 14  2  0
 16 15  1  1
 17 16  1  0
 18 16  1  0
 18 20  1  0
 19 18  2  0
M  END
$$$$
