AKA.pdb
     RDKit          3D

 20 19  0  0  1  0  0  0  0  0999 V2000
    8.4800  -12.3514   19.8051 C   0  0  0  0  0  0  0  0  0  0  0  0
    8.0640  -13.7948   19.7119 C   0  0  2  0  0  0  0  0  0  0  0  0
    7.1365  -13.9685   18.6154 N   0  0  0  0  0  0  0  0  0  0  0  0
    7.4841  -14.2883   20.9898 C   0  0  0  0  0  0  0  0  0  0  0  0
    6.2401  -14.1901   21.1321 O   0  0  0  0  0  0  0  0  0  0  0  0
    8.2519  -14.8493   22.0261 N   0  0  0  0  0  0  0  0  0  0  0  0
    7.6380  -15.3767   23.2196 C   0  0  1  0  0  0  0  0  0  0  0  0
    7.9609  -16.8349   23.4143 C   0  0  0  0  0  0  0  0  0  0  0  0
    7.2299  -17.4522   24.5857 C   0  0  0  0  0  0  0  0  0  0  0  0
    8.0905  -18.3651   25.3933 C   0  0  0  0  0  0  0  0  0  0  0  0
    7.3194  -19.0853   26.4785 C   0  0  0  0  0  0  0  0  0  0  0  0
    8.1354  -19.9604   27.2662 N   0  0  0  0  0  0  0  0  0  0  0  0
    8.1618  -14.6641   24.4203 C   0  0  0  0  0  0  0  0  0  0  0  0
    9.3847  -14.6364   24.6746 O   0  0  0  0  0  0  0  0  0  0  0  0
    6.5766  -12.4113   26.9982 C   0  0  0  0  0  0  0  0  0  0  0  0
    7.7236  -13.2227   26.4162 C   0  0  2  0  0  0  0  0  0  0  0  0
    7.2604  -14.0059   25.2901 N   0  0  0  0  0  0  0  0  0  0  0  0
    8.2776  -14.1241   27.4763 C   0  0  0  0  0  0  0  0  0  0  0  0
    7.9543  -15.3299   27.4987 O   0  0  0  0  0  0  0  0  0  0  0  0
    9.1371  -13.6371   28.4230 O   0  0  0  0  0  0  0  0  0  0  0  0
  2  1  1  1
  2  3  1  0
  2  4  1  0
  4  6  1  0
  5  4  2  0
  6  7  1  0
  7 13  1  0
  7  8  1  1
  9  8  1  0
 10 11  1  0
 10  9  1  0
 12 11  1  0
 13 17  1  0
 13 14  2  0
 16 15  1  1
 17 16  1  0
 18 16  1  0
 18 20  1  0
 19 18  2  0
M  END
$$$$
