AKA.pdb
     RDKit          3D

 20 19  0  0  1  0  0  0  0  0999 V2000
   11.4487  -18.5454   19.2350 C   0  0  0  0  0  0  0  0  0  0  0  0
   11.0004  -18.8004   20.6489 C   0  0  2  0  0  0  0  0  0  0  0  0
    9.7990  -19.6062   20.6452 N   0  0  0  0  0  0  0  0  0  0  0  0
   10.7960  -17.5342   21.4026 C   0  0  0  0  0  0  0  0  0  0  0  0
   11.8124  -16.8348   21.6374 O   0  0  0  0  0  0  0  0  0  0  0  0
    9.5394  -17.0936   21.8553 N   0  0  0  0  0  0  0  0  0  0  0  0
    9.4020  -15.9076   22.6640 C   0  0  1  0  0  0  0  0  0  0  0  0
    8.2745  -15.0326   22.1827 C   0  0  0  0  0  0  0  0  0  0  0  0
    8.5511  -14.3955   20.8392 C   0  0  0  0  0  0  0  0  0  0  0  0
    7.4051  -13.5859   20.3319 C   0  0  0  0  0  0  0  0  0  0  0  0
    7.6888  -12.9519   18.9871 C   0  0  0  0  0  0  0  0  0  0  0  0
    6.5935  -12.1776   18.4846 N   0  0  0  0  0  0  0  0  0  0  0  0
    9.0745  -16.2836   24.0695 C   0  0  0  0  0  0  0  0  0  0  0  0
    7.9383  -16.7002   24.3803 O   0  0  0  0  0  0  0  0  0  0  0  0
    9.8000  -18.3424   26.1350 C   0  0  0  0  0  0  0  0  0  0  0  0
    9.9420  -16.8431   26.3471 C   0  0  2  0  0  0  0  0  0  0  0  0
   10.0660  -16.1679   25.0724 N   0  0  0  0  0  0  0  0  0  0  0  0
   11.1511  -16.5767   27.1899 C   0  0  0  0  0  0  0  0  0  0  0  0
   12.1162  -15.9455   26.7111 O   0  0  0  0  0  0  0  0  0  0  0  0
   11.2081  -17.0198   28.4832 O   0  0  0  0  0  0  0  0  0  0  0  0
  2  1  1  6
  2  3  1  0
  2  4  1  0
  4  6  1  0
  5  4  2  0
  6  7  1  0
  7 13  1  0
  7  8  1  6
  9  8  1  0
 10 11  1  0
 10  9  1  0
 12 11  1  0
 13 17  1  0
 13 14  2  0
 16 15  1  6
 17 16  1  0
 18 16  1  0
 18 20  1  0
 19 18  2  0
M  END
$$$$
