AKA.pdb
     RDKit          3D

 20 19  0  0  1  0  0  0  0  0999 V2000
    9.5672  -19.7977   17.4633 C   0  0  0  0  0  0  0  0  0  0  0  0
    9.4639  -19.6261   18.9550 C   0  0  2  0  0  0  0  0  0  0  0  0
    8.1112  -19.9000   19.3881 N   0  0  0  0  0  0  0  0  0  0  0  0
    9.9038  -18.2730   19.3892 C   0  0  0  0  0  0  0  0  0  0  0  0
   11.0913  -17.9479   19.1414 O   0  0  0  0  0  0  0  0  0  0  0  0
    9.0654  -17.3589   20.0522 N   0  0  0  0  0  0  0  0  0  0  0  0
    9.5566  -16.0864   20.5197 C   0  0  1  0  0  0  0  0  0  0  0  0
    8.5258  -14.9995   20.3629 C   0  0  0  0  0  0  0  0  0  0  0  0
    8.2994  -14.6013   18.9214 C   0  0  0  0  0  0  0  0  0  0  0  0
    7.2541  -13.5482   18.7657 C   0  0  0  0  0  0  0  0  0  0  0  0
    7.0220  -13.1658   17.3197 C   0  0  0  0  0  0  0  0  0  0  0  0
    6.0180  -12.1575   17.1555 N   0  0  0  0  0  0  0  0  0  0  0  0
    9.8701  -16.1642   21.9756 C   0  0  0  0  0  0  0  0  0  0  0  0
    8.9673  -16.3215   22.8248 O   0  0  0  0  0  0  0  0  0  0  0  0
   11.3693  -17.8521   24.0463 C   0  0  0  0  0  0  0  0  0  0  0  0
   11.6044  -16.3762   23.7646 C   0  0  2  0  0  0  0  0  0  0  0  0
   11.2135  -16.0584   22.4072 N   0  0  0  0  0  0  0  0  0  0  0  0
   13.0539  -16.0598   23.9697 C   0  0  0  0  0  0  0  0  0  0  0  0
   13.7744  -15.7805   22.9890 O   0  0  0  0  0  0  0  0  0  0  0  0
   13.5974  -16.0741   25.2253 O   0  0  0  0  0  0  0  0  0  0  0  0
  2  1  1  6
  2  3  1  0
  2  4  1  0
  4  6  1  0
  5  4  2  0
  6  7  1  0
  7 13  1  0
  7  8  1  1
  9  8  1  0
 10 11  1  0
 10  9  1  0
 12 11  1  0
 13 17  1  0
 13 14  2  0
 16 15  1  6
 17 16  1  0
 18 16  1  0
 18 20  1  0
 19 18  2  0
M  END
$$$$
