AKA.pdb
     RDKit          3D

 20 19  0  0  1  0  0  0  0  0999 V2000
    4.4058  -19.3035   23.4220 C   0  0  0  0  0  0  0  0  0  0  0  0
    4.9953  -19.0016   22.0705 C   0  0  2  0  0  0  0  0  0  0  0  0
    5.2232  -20.2339   21.3480 N   0  0  0  0  0  0  0  0  0  0  0  0
    6.2450  -18.2018   22.1768 C   0  0  0  0  0  0  0  0  0  0  0  0
    7.3137  -18.8298   22.3790 O   0  0  0  0  0  0  0  0  0  0  0  0
    6.2828  -16.8004   22.0632 N   0  0  0  0  0  0  0  0  0  0  0  0
    7.4970  -16.0572   22.2925 C   0  0  1  0  0  0  0  0  0  0  0  0
    7.4126  -14.6638   21.7268 C   0  0  0  0  0  0  0  0  0  0  0  0
    7.5312  -14.6282   20.2194 C   0  0  0  0  0  0  0  0  0  0  0  0
    7.7887  -13.2581   19.6880 C   0  0  0  0  0  0  0  0  0  0  0  0
    7.8986  -13.2289   18.1786 C   0  0  0  0  0  0  0  0  0  0  0  0
    7.8909  -11.9030   17.6366 N   0  0  0  0  0  0  0  0  0  0  0  0
    7.7331  -15.9049   23.7571 C   0  0  0  0  0  0  0  0  0  0  0  0
    6.8211  -15.5302   24.5244 O   0  0  0  0  0  0  0  0  0  0  0  0
    8.3359  -17.2499   26.3758 C   0  0  0  0  0  0  0  0  0  0  0  0
    9.2496  -16.2269   25.7191 C   0  0  2  0  0  0  0  0  0  0  0  0
    9.0122  -16.1889   24.2914 N   0  0  0  0  0  0  0  0  0  0  0  0
   10.6760  -16.5916   25.9936 C   0  0  0  0  0  0  0  0  0  0  0  0
   11.0707  -16.7151   27.1718 O   0  0  0  0  0  0  0  0  0  0  0  0
   11.5531  -16.7914   24.9626 O   0  0  0  0  0  0  0  0  0  0  0  0
  2  1  1  1
  2  3  1  0
  2  4  1  0
  4  6  1  0
  5  4  2  0
  6  7  1  0
  7 13  1  0
  7  8  1  6
  9  8  1  0
 10 11  1  0
 10  9  1  0
 12 11  1  0
 13 17  1  0
 13 14  2  0
 16 15  1  1
 17 16  1  0
 18 16  1  0
 18 20  1  0
 19 18  2  0
M  END
$$$$
