DAP.pdb
     RDKit          3D

 21 21  0  0  1  0  0  0  0  0999 V2000
    9.3188  -15.0705   19.1643 N   0  0  0  0  0  0  0  0  0  0  0  0
   10.0384  -14.9744   20.4393 C   0  0  1  0  0  0  0  0  0  0  0  0
   11.1371  -13.9747   20.2033 C   0  0  0  0  0  0  0  0  0  0  0  0
   12.2913  -14.4915   19.4549 C   0  0  0  0  0  0  0  0  0  0  0  0
   12.7796  -15.6270   19.6334 O   0  0  0  0  0  0  0  0  0  0  0  0
    9.0544  -14.5214   21.4777 C   0  0  0  0  0  0  0  0  0  0  0  0
    8.6586  -13.3572   21.5769 O   0  0  0  0  0  0  0  0  0  0  0  0
   12.8624  -13.6360   18.4842 O   0  0  0  0  0  0  0  0  0  0  0  0
    6.8653  -16.4613   23.7565 C   0  0  0  0  0  0  0  0  0  0  0  0
    7.5388  -15.1608   23.3911 C   0  0  2  0  0  0  0  0  0  0  0  0
    8.5453  -15.4716   22.3990 N   0  0  0  0  0  0  0  0  0  0  0  0
    8.2601  -14.5950   24.5820 C   0  0  0  0  0  0  0  0  0  0  0  0
    9.5074  -14.8272   24.7463 O   0  0  0  0  0  0  0  0  0  0  0  0
    7.6132  -13.8021   25.5501 N   0  0  0  0  0  0  0  0  0  0  0  0
    6.2489  -13.3349   25.4976 C   0  0  0  0  0  0  0  0  0  0  0  0
    6.4337  -11.9396   26.1146 C   0  0  0  0  0  0  0  0  0  0  0  0
    7.2332  -12.3012   27.3460 C   0  0  0  0  0  0  0  0  0  0  0  0
    8.2160  -13.3190   26.7690 C   0  0  1  0  0  0  0  0  0  0  0  0
    8.3429  -14.3837   27.7948 C   0  0  0  0  0  0  0  0  0  0  0  0
    7.6500  -15.4202   27.6271 O   0  0  0  0  0  0  0  0  0  0  0  0
    9.1602  -14.3127   28.9055 O   0  0  0  0  0  0  0  0  0  0  0  0
  2  1  1  6
  3  2  1  0
  3  4  1  0
  4  8  1  0
  5  4  2  0
  6  2  1  0
  7  6  2  0
 10  9  1  1
 10 12  1  0
 10 11  1  0
 11  6  1  0
 12 14  1  0
 13 12  2  0
 14 15  1  0
 14 18  1  0
 15 16  1  0
 16 17  1  0
 18 17  1  0
 18 19  1  1
 19 21  1  0
 20 19  2  0
M  END
$$$$
