DAP.pdb
     RDKit          3D

 21 21  0  0  1  0  0  0  0  0999 V2000
    8.1286  -16.6653   19.4348 N   0  0  0  0  0  0  0  0  0  0  0  0
    8.9038  -16.7786   20.6753 C   0  0  1  0  0  0  0  0  0  0  0  0
   10.2726  -16.2530   20.3401 C   0  0  0  0  0  0  0  0  0  0  0  0
   11.3324  -17.2703   20.3037 C   0  0  0  0  0  0  0  0  0  0  0  0
   11.4463  -18.1185   19.3943 O   0  0  0  0  0  0  0  0  0  0  0  0
    8.2055  -15.9564   21.7184 C   0  0  0  0  0  0  0  0  0  0  0  0
    7.8636  -14.7841   21.5432 O   0  0  0  0  0  0  0  0  0  0  0  0
   12.2622  -17.2674   21.3695 O   0  0  0  0  0  0  0  0  0  0  0  0
    6.4104  -17.0470   24.7423 C   0  0  0  0  0  0  0  0  0  0  0  0
    7.0675  -15.9287   23.9702 C   0  0  2  0  0  0  0  0  0  0  0  0
    7.9177  -16.5461   22.9755 N   0  0  0  0  0  0  0  0  0  0  0  0
    7.9631  -15.1282   24.8735 C   0  0  0  0  0  0  0  0  0  0  0  0
    9.2258  -15.3337   24.8708 O   0  0  0  0  0  0  0  0  0  0  0  0
    7.4672  -14.1383   25.7445 N   0  0  0  0  0  0  0  0  0  0  0  0
    6.0889  -13.7333   25.8795 C   0  0  0  0  0  0  0  0  0  0  0  0
    6.2869  -12.2248   26.0970 C   0  0  0  0  0  0  0  0  0  0  0  0
    7.3454  -12.2522   27.1763 C   0  0  0  0  0  0  0  0  0  0  0  0
    8.2661  -13.3553   26.6562 C   0  0  1  0  0  0  0  0  0  0  0  0
    8.6805  -14.1315   27.8510 C   0  0  0  0  0  0  0  0  0  0  0  0
    9.5158  -13.5893   28.6196 O   0  0  0  0  0  0  0  0  0  0  0  0
    8.2158  -15.3920   28.1703 O   0  0  0  0  0  0  0  0  0  0  0  0
  2  1  1  6
  3  2  1  0
  3  4  1  0
  4  8  1  0
  5  4  2  0
  6  2  1  0
  7  6  2  0
 10  9  1  1
 10 12  1  0
 10 11  1  0
 11  6  1  0
 12 14  1  0
 13 12  2  0
 14 15  1  0
 14 18  1  0
 15 16  1  0
 16 17  1  0
 18 17  1  0
 18 19  1  1
 19 21  1  0
 20 19  2  0
M  END
$$$$
