DAP.pdb
     RDKit          3D

 21 21  0  0  1  0  0  0  0  0999 V2000
    8.3652  -17.0479   19.6315 N   0  0  0  0  0  0  0  0  0  0  0  0
    9.0978  -16.9000   20.8941 C   0  0  1  0  0  0  0  0  0  0  0  0
   10.3923  -16.2273   20.5281 C   0  0  0  0  0  0  0  0  0  0  0  0
   11.3884  -17.1061   19.8999 C   0  0  0  0  0  0  0  0  0  0  0  0
   11.5053  -18.3207   20.1659 O   0  0  0  0  0  0  0  0  0  0  0  0
    8.2499  -16.0680   21.8109 C   0  0  0  0  0  0  0  0  0  0  0  0
    7.6979  -15.0211   21.4628 O   0  0  0  0  0  0  0  0  0  0  0  0
   12.2504  -16.5196   18.9443 O   0  0  0  0  0  0  0  0  0  0  0  0
    6.4685  -16.8650   24.8699 C   0  0  0  0  0  0  0  0  0  0  0  0
    7.2194  -15.8064   24.0992 C   0  0  2  0  0  0  0  0  0  0  0  0
    8.0657  -16.4967   23.1500 N   0  0  0  0  0  0  0  0  0  0  0  0
    8.1290  -15.0399   25.0180 C   0  0  0  0  0  0  0  0  0  0  0  0
    9.3744  -15.3274   25.0739 O   0  0  0  0  0  0  0  0  0  0  0  0
    7.6652  -13.9949   25.8408 N   0  0  0  0  0  0  0  0  0  0  0  0
    6.3167  -13.4838   25.8924 C   0  0  0  0  0  0  0  0  0  0  0  0
    6.6180  -11.9898   26.0902 C   0  0  0  0  0  0  0  0  0  0  0  0
    7.6129  -12.0712   27.2260 C   0  0  0  0  0  0  0  0  0  0  0  0
    8.4724  -13.2527   26.7789 C   0  0  1  0  0  0  0  0  0  0  0  0
    8.7624  -14.0292   28.0097 C   0  0  0  0  0  0  0  0  0  0  0  0
    8.0584  -15.0511   28.2163 O   0  0  0  0  0  0  0  0  0  0  0  0
    9.7406  -13.7085   28.9301 O   0  0  0  0  0  0  0  0  0  0  0  0
  2  1  1  6
  3  2  1  0
  3  4  1  0
  4  8  1  0
  5  4  2  0
  6  2  1  0
  7  6  2  0
 10  9  1  1
 10 12  1  0
 10 11  1  0
 11  6  1  0
 12 14  1  0
 13 12  2  0
 14 15  1  0
 14 18  1  0
 15 16  1  0
 16 17  1  0
 18 17  1  0
 18 19  1  1
 19 21  1  0
 20 19  2  0
M  END
$$$$
