DAP.pdb
     RDKit          3D

 21 21  0  0  1  0  0  0  0  0999 V2000
    8.4640  -17.0930   19.5617 N   0  0  0  0  0  0  0  0  0  0  0  0
    9.1672  -16.9513   20.8416 C   0  0  1  0  0  0  0  0  0  0  0  0
   10.4784  -16.2951   20.5061 C   0  0  0  0  0  0  0  0  0  0  0  0
   11.5874  -17.2256   20.2539 C   0  0  0  0  0  0  0  0  0  0  0  0
   11.6436  -17.9824   19.2622 O   0  0  0  0  0  0  0  0  0  0  0  0
    8.3074  -16.1071   21.7358 C   0  0  0  0  0  0  0  0  0  0  0  0
    7.7748  -15.0557   21.3716 O   0  0  0  0  0  0  0  0  0  0  0  0
   12.6368  -17.2458   21.2019 O   0  0  0  0  0  0  0  0  0  0  0  0
    6.4015  -16.9086   24.7019 C   0  0  0  0  0  0  0  0  0  0  0  0
    7.2012  -15.8455   23.9885 C   0  0  2  0  0  0  0  0  0  0  0  0
    8.0877  -16.5291   23.0717 N   0  0  0  0  0  0  0  0  0  0  0  0
    8.0705  -15.1044   24.9651 C   0  0  0  0  0  0  0  0  0  0  0  0
    9.3133  -15.3918   25.0640 O   0  0  0  0  0  0  0  0  0  0  0  0
    7.5709  -14.0836   25.7974 N   0  0  0  0  0  0  0  0  0  0  0  0
    6.2002  -13.6390   25.8736 C   0  0  0  0  0  0  0  0  0  0  0  0
    6.4318  -12.1322   26.0682 C   0  0  0  0  0  0  0  0  0  0  0  0
    7.4493  -12.1655   27.1861 C   0  0  0  0  0  0  0  0  0  0  0  0
    8.3574  -13.3035   26.7223 C   0  0  1  0  0  0  0  0  0  0  0  0
    8.7067  -14.0656   27.9466 C   0  0  0  0  0  0  0  0  0  0  0  0
    8.1001  -15.1519   28.1325 O   0  0  0  0  0  0  0  0  0  0  0  0
    9.6408  -13.6666   28.8821 O   0  0  0  0  0  0  0  0  0  0  0  0
  2  1  1  6
  3  2  1  0
  3  4  1  0
  4  8  1  0
  5  4  2  0
  6  2  1  0
  7  6  2  0
 10  9  1  1
 10 12  1  0
 10 11  1  0
 11  6  1  0
 12 14  1  0
 13 12  2  0
 14 15  1  0
 14 18  1  0
 15 16  1  0
 16 17  1  0
 18 17  1  0
 18 19  1  1
 19 21  1  0
 20 19  2  0
M  END
$$$$
