DAP.pdb
     RDKit          3D

 21 21  0  0  1  0  0  0  0  0999 V2000
    9.9332  -15.0261   18.9418 N   0  0  0  0  0  0  0  0  0  0  0  0
   10.3950  -15.0398   20.3344 C   0  0  1  0  0  0  0  0  0  0  0  0
   11.6309  -14.1828   20.3536 C   0  0  0  0  0  0  0  0  0  0  0  0
   12.8283  -14.8138   19.7814 C   0  0  0  0  0  0  0  0  0  0  0  0
   13.3387  -15.8621   20.2288 O   0  0  0  0  0  0  0  0  0  0  0  0
    9.2884  -14.4819   21.1805 C   0  0  0  0  0  0  0  0  0  0  0  0
    8.7190  -13.4149   20.9376 O   0  0  0  0  0  0  0  0  0  0  0  0
   13.4163  -14.1790   18.6626 O   0  0  0  0  0  0  0  0  0  0  0  0
    6.8596  -16.0142   23.3082 C   0  0  0  0  0  0  0  0  0  0  0  0
    7.7549  -14.8083   23.1574 C   0  0  2  0  0  0  0  0  0  0  0  0
    8.8656  -15.2099   22.3216 N   0  0  0  0  0  0  0  0  0  0  0  0
    8.3303  -14.4169   24.4895 C   0  0  0  0  0  0  0  0  0  0  0  0
    9.5224  -14.7623   24.7997 O   0  0  0  0  0  0  0  0  0  0  0  0
    7.6026  -13.6698   25.4364 N   0  0  0  0  0  0  0  0  0  0  0  0
    6.2479  -13.1946   25.2900 C   0  0  0  0  0  0  0  0  0  0  0  0
    6.3790  -11.8322   25.9890 C   0  0  0  0  0  0  0  0  0  0  0  0
    7.0695  -12.2577   27.2651 C   0  0  0  0  0  0  0  0  0  0  0  0
    8.0982  -13.2501   26.7251 C   0  0  1  0  0  0  0  0  0  0  0  0
    8.1361  -14.3646   27.7040 C   0  0  0  0  0  0  0  0  0  0  0  0
    8.7451  -14.1522   28.7841 O   0  0  0  0  0  0  0  0  0  0  0  0
    7.5547  -15.6020   27.5103 O   0  0  0  0  0  0  0  0  0  0  0  0
  2  1  1  6
  3  2  1  0
  3  4  1  0
  4  8  1  0
  5  4  2  0
  6  2  1  0
  7  6  2  0
 10  9  1  1
 10 12  1  0
 10 11  1  0
 11  6  1  0
 12 14  1  0
 13 12  2  0
 14 15  1  0
 14 18  1  0
 15 16  1  0
 16 17  1  0
 18 17  1  0
 18 19  1  1
 19 21  1  0
 20 19  2  0
M  END
$$$$
