DAP.pdb
     RDKit          3D

 21 21  0  0  1  0  0  0  0  0999 V2000
    9.1645  -13.9833   18.7549 N   0  0  0  0  0  0  0  0  0  0  0  0
    9.7550  -14.3845   20.0368 C   0  0  1  0  0  0  0  0  0  0  0  0
   11.0415  -13.6127   20.1427 C   0  0  0  0  0  0  0  0  0  0  0  0
   12.1497  -14.1471   19.3391 C   0  0  0  0  0  0  0  0  0  0  0  0
   12.8487  -13.4499   18.5743 O   0  0  0  0  0  0  0  0  0  0  0  0
    8.7737  -14.0283   21.1147 C   0  0  0  0  0  0  0  0  0  0  0  0
    8.2594  -12.9124   21.2240 O   0  0  0  0  0  0  0  0  0  0  0  0
   12.4190  -15.5306   19.4564 O   0  0  0  0  0  0  0  0  0  0  0  0
    6.7152  -16.1151   23.3153 C   0  0  0  0  0  0  0  0  0  0  0  0
    7.4286  -14.8017   23.1045 C   0  0  2  0  0  0  0  0  0  0  0  0
    8.4102  -15.0175   22.0636 N   0  0  0  0  0  0  0  0  0  0  0  0
    8.1851  -14.4149   24.3443 C   0  0  0  0  0  0  0  0  0  0  0  0
    9.4193  -14.7287   24.4666 O   0  0  0  0  0  0  0  0  0  0  0  0
    7.5861  -13.7063   25.4042 N   0  0  0  0  0  0  0  0  0  0  0  0
    6.2434  -13.1783   25.4266 C   0  0  0  0  0  0  0  0  0  0  0  0
    6.4975  -11.8685   26.1893 C   0  0  0  0  0  0  0  0  0  0  0  0
    7.2955  -12.3973   27.3598 C   0  0  0  0  0  0  0  0  0  0  0  0
    8.2249  -13.3865   26.6581 C   0  0  1  0  0  0  0  0  0  0  0  0
    8.3170  -14.5620   27.5590 C   0  0  0  0  0  0  0  0  0  0  0  0
    7.5961  -15.5533   27.2757 O   0  0  0  0  0  0  0  0  0  0  0  0
    9.1309  -14.6385   28.6719 O   0  0  0  0  0  0  0  0  0  0  0  0
  2  1  1  6
  3  2  1  0
  3  4  1  0
  4  8  1  0
  5  4  2  0
  6  2  1  0
  7  6  2  0
 10  9  1  1
 10 12  1  0
 10 11  1  0
 11  6  1  0
 12 14  1  0
 13 12  2  0
 14 15  1  0
 14 18  1  0
 15 16  1  0
 16 17  1  0
 18 17  1  0
 18 19  1  1
 19 21  1  0
 20 19  2  0
M  END
$$$$
