DAP.pdb
     RDKit          3D

 21 21  0  0  1  0  0  0  0  0999 V2000
    9.0738  -18.8182   15.3497 N   0  0  0  0  0  0  0  0  0  0  0  0
    9.7337  -18.4366   16.6034 C   0  0  1  0  0  0  0  0  0  0  0  0
   11.0742  -17.8879   16.1981 C   0  0  0  0  0  0  0  0  0  0  0  0
   12.0965  -18.9043   15.9133 C   0  0  0  0  0  0  0  0  0  0  0  0
   12.5227  -19.7140   16.7632 O   0  0  0  0  0  0  0  0  0  0  0  0
    8.8660  -17.4127   17.2745 C   0  0  0  0  0  0  0  0  0  0  0  0
    8.5457  -16.3435   16.7490 O   0  0  0  0  0  0  0  0  0  0  0  0
   12.6101  -18.9470   14.5962 O   0  0  0  0  0  0  0  0  0  0  0  0
    6.5827  -17.6319   20.1319 C   0  0  0  0  0  0  0  0  0  0  0  0
    7.5116  -16.7756   19.3059 C   0  0  2  0  0  0  0  0  0  0  0  0
    8.3822  -17.6759   18.5813 N   0  0  0  0  0  0  0  0  0  0  0  0
    8.3892  -15.9461   20.2007 C   0  0  0  0  0  0  0  0  0  0  0  0
    9.5041  -16.4143   20.6186 O   0  0  0  0  0  0  0  0  0  0  0  0
    8.0347  -14.6462   20.6119 N   0  0  0  0  0  0  0  0  0  0  0  0
    6.9078  -13.8791   20.1387 C   0  0  0  0  0  0  0  0  0  0  0  0
    7.5434  -12.4800   20.1169 C   0  0  0  0  0  0  0  0  0  0  0  0
    8.1592  -12.4502   21.4975 C   0  0  0  0  0  0  0  0  0  0  0  0
    8.7495  -13.8568   21.5857 C   0  0  1  0  0  0  0  0  0  0  0  0
    8.4980  -14.3135   22.9749 C   0  0  0  0  0  0  0  0  0  0  0  0
    9.2545  -13.8556   23.8697 O   0  0  0  0  0  0  0  0  0  0  0  0
    7.5020  -15.1954   23.3451 O   0  0  0  0  0  0  0  0  0  0  0  0
  2  1  1  6
  3  2  1  0
  3  4  1  0
  4  8  1  0
  5  4  2  0
  6  2  1  0
  7  6  2  0
 10  9  1  1
 10 12  1  0
 10 11  1  0
 11  6  1  0
 12 14  1  0
 13 12  2  0
 14 15  1  0
 14 18  1  0
 15 16  1  0
 16 17  1  0
 18 17  1  0
 18 19  1  1
 19 21  1  0
 20 19  2  0
M  END
$$$$
