DAP.pdb
     RDKit          3D

 21 21  0  0  1  0  0  0  0  0999 V2000
    8.9672  -17.2846   20.0238 N   0  0  0  0  0  0  0  0  0  0  0  0
    9.6787  -17.0715   21.2891 C   0  0  1  0  0  0  0  0  0  0  0  0
   10.9760  -16.4109   20.9113 C   0  0  0  0  0  0  0  0  0  0  0  0
   11.9793  -17.3109   20.3260 C   0  0  0  0  0  0  0  0  0  0  0  0
   12.2554  -18.4360   20.7924 O   0  0  0  0  0  0  0  0  0  0  0  0
    8.8126  -16.2001   22.1505 C   0  0  0  0  0  0  0  0  0  0  0  0
    8.5433  -15.0276   21.8776 O   0  0  0  0  0  0  0  0  0  0  0  0
   12.6558  -16.8541   19.1709 O   0  0  0  0  0  0  0  0  0  0  0  0
    6.6391  -17.0235   25.0488 C   0  0  0  0  0  0  0  0  0  0  0  0
    7.3871  -16.0049   24.2234 C   0  0  2  0  0  0  0  0  0  0  0  0
    8.2689  -16.7409   23.3434 N   0  0  0  0  0  0  0  0  0  0  0  0
    8.2595  -15.1578   25.1066 C   0  0  0  0  0  0  0  0  0  0  0  0
    9.5059  -15.4227   25.2210 O   0  0  0  0  0  0  0  0  0  0  0  0
    7.7590  -14.0593   25.8326 N   0  0  0  0  0  0  0  0  0  0  0  0
    6.4489  -13.4705   25.6941 C   0  0  0  0  0  0  0  0  0  0  0  0
    6.8133  -11.9901   25.8878 C   0  0  0  0  0  0  0  0  0  0  0  0
    7.6474  -12.0877   27.1451 C   0  0  0  0  0  0  0  0  0  0  0  0
    8.4831  -13.3317   26.8469 C   0  0  1  0  0  0  0  0  0  0  0  0
    8.5647  -14.0792   28.1260 C   0  0  0  0  0  0  0  0  0  0  0  0
    7.8020  -15.0713   28.2543 O   0  0  0  0  0  0  0  0  0  0  0  0
    9.4111  -13.7621   29.1700 O   0  0  0  0  0  0  0  0  0  0  0  0
  2  1  1  6
  3  2  1  0
  3  4  1  0
  4  8  1  0
  5  4  2  0
  6  2  1  0
  7  6  2  0
 10  9  1  1
 10 12  1  0
 10 11  1  0
 11  6  1  0
 12 14  1  0
 13 12  2  0
 14 15  1  0
 14 18  1  0
 15 16  1  0
 16 17  1  0
 18 17  1  0
 18 19  1  1
 19 21  1  0
 20 19  2  0
M  END
$$$$
