GPT.pdb
     RDKit          3D

 19 19  0  0  1  0  0  0  0  0999 V2000
   40.6451  -32.4414   -0.0559 N   0  0  0  0  0  0  0  0  0  0  0  0
   40.8700  -31.7342   -1.3027 C   0  0  0  0  0  0  0  0  0  0  0  0
   42.2577  -31.8806   -1.7835 C   0  0  0  0  0  0  0  0  0  0  0  0
   43.0294  -32.6527   -1.1790 O   0  0  0  0  0  0  0  0  0  0  0  0
   42.6924  -31.1601   -2.9003 N   0  0  0  0  0  0  0  0  0  0  0  0
   41.8904  -30.1770   -3.6347 C   0  0  0  0  0  0  0  0  0  0  0  0
   42.3444  -30.4599   -5.0758 C   0  0  0  0  0  0  0  0  0  0  0  0
   43.8363  -30.5786   -4.8939 C   0  0  0  0  0  0  0  0  0  0  0  0
   43.9689  -31.2348   -3.5362 C   0  0  1  0  0  0  0  0  0  0  0  0
   45.0264  -30.4966   -2.7928 C   0  0  0  0  0  0  0  0  0  0  0  0
   44.7473  -29.4132   -2.2156 O   0  0  0  0  0  0  0  0  0  0  0  0
   46.9161  -31.0006    0.4072 C   0  0  0  0  0  0  0  0  0  0  0  0
   47.8952  -31.0246   -0.7503 C   0  0  1  0  0  0  0  0  0  0  0  0
   48.2758  -32.3076   -1.0886 O   0  0  0  0  0  0  0  0  0  0  0  0
   47.3786  -30.2353   -1.9302 C   0  0  2  0  0  0  0  0  0  0  0  0
   46.3769  -30.9360   -2.6785 N   0  0  0  0  0  0  0  0  0  0  0  0
   48.5406  -29.9801   -2.8188 C   0  0  0  0  0  0  0  0  0  0  0  0
   48.6783  -30.5977   -3.9068 O   0  0  0  0  0  0  0  0  0  0  0  0
   49.5227  -29.0366   -2.4653 O   0  0  0  0  0  0  0  0  0  0  0  0
  2  1  1  0
  3  2  1  0
  3  4  2  0
  5  3  1  0
  6  5  1  0
  7  8  1  0
  7  6  1  0
  8  9  1  0
  9 10  1  1
  9  5  1  0
 10 11  2  0
 13 12  1  1
 13 15  1  0
 13 14  1  0
 15 16  1  6
 16 10  1  0
 17 15  1  0
 17 19  1  0
 18 17  2  0
M  END
$$$$
