GPT.pdb
     RDKit          3D

 19 19  0  0  1  0  0  0  0  0999 V2000
   14.7816  -18.3761    2.0312 N   0  0  0  0  0  0  0  0  0  0  0  0
   15.1133  -17.0367    2.4797 C   0  0  0  0  0  0  0  0  0  0  0  0
   16.3286  -17.0147    3.3168 C   0  0  0  0  0  0  0  0  0  0  0  0
   16.9958  -18.0617    3.4429 O   0  0  0  0  0  0  0  0  0  0  0  0
   16.7184  -15.8336    3.9559 N   0  0  0  0  0  0  0  0  0  0  0  0
   15.9687  -14.5741    3.9317 C   0  0  0  0  0  0  0  0  0  0  0  0
   17.1211  -13.5592    3.8614 C   0  0  0  0  0  0  0  0  0  0  0  0
   18.0700  -14.1233    4.8881 C   0  0  0  0  0  0  0  0  0  0  0  0
   17.8938  -15.6192    4.7381 C   0  0  1  0  0  0  0  0  0  0  0  0
   17.7847  -16.1885    6.1092 C   0  0  0  0  0  0  0  0  0  0  0  0
   16.6899  -16.1286    6.7278 O   0  0  0  0  0  0  0  0  0  0  0  0
   17.4346  -19.5248    7.4409 C   0  0  0  0  0  0  0  0  0  0  0  0
   18.7451  -18.9751    7.9697 C   0  0  1  0  0  0  0  0  0  0  0  0
   19.8338  -19.4437    7.2623 O   0  0  0  0  0  0  0  0  0  0  0  0
   18.7144  -17.4681    8.0696 C   0  0  2  0  0  0  0  0  0  0  0  0
   18.8596  -16.8188    6.8001 N   0  0  0  0  0  0  0  0  0  0  0  0
   19.8528  -17.0715    8.9367 C   0  0  0  0  0  0  0  0  0  0  0  0
   20.8662  -16.4963    8.4608 O   0  0  0  0  0  0  0  0  0  0  0  0
   19.8276  -17.3298   10.3195 O   0  0  0  0  0  0  0  0  0  0  0  0
  2  1  1  0
  3  2  1  0
  3  4  2  0
  5  3  1  0
  6  5  1  0
  7  8  1  0
  7  6  1  0
  8  9  1  0
  9 10  1  1
  9  5  1  0
 10 11  2  0
 13 12  1  6
 13 15  1  0
 13 14  1  0
 15 16  1  6
 16 10  1  0
 17 15  1  0
 17 19  1  0
 18 17  2  0
M  END
$$$$
