GPT.pdb
     RDKit          3D

 19 19  0  0  1  0  0  0  0  0999 V2000
   28.0306  -19.5406  -17.3739 N   0  0  0  0  0  0  0  0  0  0  0  0
   28.7223  -19.4159  -16.1045 C   0  0  0  0  0  0  0  0  0  0  0  0
   28.0833  -20.2154  -15.0412 C   0  0  0  0  0  0  0  0  0  0  0  0
   27.0217  -20.8206  -15.2941 O   0  0  0  0  0  0  0  0  0  0  0  0
   28.6657  -20.2871  -13.7720 N   0  0  0  0  0  0  0  0  0  0  0  0
   29.8899  -19.5910  -13.3649 C   0  0  0  0  0  0  0  0  0  0  0  0
   30.5309  -20.6521  -12.4560 C   0  0  0  0  0  0  0  0  0  0  0  0
   29.3394  -21.1056  -11.6513 C   0  0  0  0  0  0  0  0  0  0  0  0
   28.2011  -21.0335  -12.6466 C   0  0  1  0  0  0  0  0  0  0  0  0
   27.0547  -20.3811  -11.9566 C   0  0  0  0  0  0  0  0  0  0  0  0
   27.0138  -19.1268  -11.8574 O   0  0  0  0  0  0  0  0  0  0  0  0
   23.5191  -20.0192  -12.8397 C   0  0  0  0  0  0  0  0  0  0  0  0
   23.5392  -20.6985  -11.4842 C   0  0  1  0  0  0  0  0  0  0  0  0
   23.2179  -22.0385  -11.5644 O   0  0  0  0  0  0  0  0  0  0  0  0
   24.8403  -20.4492  -10.7581 C   0  0  2  0  0  0  0  0  0  0  0  0
   25.9614  -21.0899  -11.3802 N   0  0  0  0  0  0  0  0  0  0  0  0
   24.6807  -21.0003   -9.3885 C   0  0  0  0  0  0  0  0  0  0  0  0
   25.3438  -21.9992   -9.0056 O   0  0  0  0  0  0  0  0  0  0  0  0
   23.7795  -20.4169   -8.4791 O   0  0  0  0  0  0  0  0  0  0  0  0
  2  1  1  0
  3  2  1  0
  3  4  2  0
  5  3  1  0
  6  5  1  0
  7  8  1  0
  7  6  1  0
  8  9  1  0
  9 10  1  1
  9  5  1  0
 10 11  2  0
 13 12  1  6
 13 15  1  0
 13 14  1  0
 15 16  1  6
 16 10  1  0
 17 15  1  0
 17 19  1  0
 18 17  2  0
M  END
$$$$
