GPT.pdb
     RDKit          3D

 19 19  0  0  1  0  0  0  0  0999 V2000
   19.7549  -11.3811  -18.3865 N   0  0  0  0  0  0  0  0  0  0  0  0
   20.9405  -10.5740  -18.6061 C   0  0  0  0  0  0  0  0  0  0  0  0
   21.3348   -9.8233  -17.3981 C   0  0  0  0  0  0  0  0  0  0  0  0
   20.5980   -9.8657  -16.3918 O   0  0  0  0  0  0  0  0  0  0  0  0
   22.5177   -9.0778  -17.3909 N   0  0  0  0  0  0  0  0  0  0  0  0
   23.4503   -8.9642  -18.5162 C   0  0  0  0  0  0  0  0  0  0  0  0
   24.7947   -8.9544  -17.7708 C   0  0  0  0  0  0  0  0  0  0  0  0
   24.4938   -8.0053  -16.6387 C   0  0  0  0  0  0  0  0  0  0  0  0
   23.0444   -8.2991  -16.3158 C   0  0  1  0  0  0  0  0  0  0  0  0
   22.3542   -6.9892  -16.1617 C   0  0  0  0  0  0  0  0  0  0  0  0
   21.9931   -6.3467  -17.1823 O   0  0  0  0  0  0  0  0  0  0  0  0
   19.0712   -5.9343  -15.4816 C   0  0  0  0  0  0  0  0  0  0  0  0
   19.9003   -5.3535  -14.3527 C   0  0  1  0  0  0  0  0  0  0  0  0
   19.7745   -6.0770  -13.1839 O   0  0  0  0  0  0  0  0  0  0  0  0
   21.3391   -5.1534  -14.7673 C   0  0  2  0  0  0  0  0  0  0  0  0
   22.0594   -6.3848  -14.9056 N   0  0  0  0  0  0  0  0  0  0  0  0
   21.9849   -4.3448  -13.7024 C   0  0  0  0  0  0  0  0  0  0  0  0
   22.8445   -4.8470  -12.9323 O   0  0  0  0  0  0  0  0  0  0  0  0
   21.6507   -2.9895  -13.5261 O   0  0  0  0  0  0  0  0  0  0  0  0
  2  1  1  0
  3  2  1  0
  3  4  2  0
  5  3  1  0
  6  5  1  0
  7  8  1  0
  7  6  1  0
  8  9  1  0
  9 10  1  6
  9  5  1  0
 10 11  2  0
 13 12  1  6
 13 15  1  0
 13 14  1  0
 15 16  1  1
 16 10  1  0
 17 15  1  0
 17 19  1  0
 18 17  2  0
M  END
$$$$
