GPT.pdb
     RDKit          3D

 19 19  0  0  1  0  0  0  0  0999 V2000
   19.3757  -11.8429  -18.3533 N   0  0  0  0  0  0  0  0  0  0  0  0
   20.7318  -11.7011  -17.8571 C   0  0  0  0  0  0  0  0  0  0  0  0
   20.8041  -10.8139  -16.6799 C   0  0  0  0  0  0  0  0  0  0  0  0
   19.7842  -10.1839  -16.3331 O   0  0  0  0  0  0  0  0  0  0  0  0
   22.0022  -10.6869  -15.9703 N   0  0  0  0  0  0  0  0  0  0  0  0
   23.2505  -11.3857  -16.2903 C   0  0  0  0  0  0  0  0  0  0  0  0
   23.7828  -11.6771  -14.8779 C   0  0  0  0  0  0  0  0  0  0  0  0
   23.5388  -10.3551  -14.1955 C   0  0  0  0  0  0  0  0  0  0  0  0
   22.2464   -9.8755  -14.8207 C   0  0  1  0  0  0  0  0  0  0  0  0
   22.4291   -8.4375  -15.1593 C   0  0  0  0  0  0  0  0  0  0  0  0
   23.1198   -8.1117  -16.1602 O   0  0  0  0  0  0  0  0  0  0  0  0
   20.4514   -5.8308  -16.7264 C   0  0  0  0  0  0  0  0  0  0  0  0
   20.7353   -5.3738  -15.3087 C   0  0  1  0  0  0  0  0  0  0  0  0
   19.6558   -5.5656  -14.4700 O   0  0  0  0  0  0  0  0  0  0  0  0
   22.0097   -5.9838  -14.7741 C   0  0  2  0  0  0  0  0  0  0  0  0
   21.8631   -7.3633  -14.4138 N   0  0  0  0  0  0  0  0  0  0  0  0
   22.3778   -5.2141  -13.5587 C   0  0  0  0  0  0  0  0  0  0  0  0
   22.3159   -5.7332  -12.4138 O   0  0  0  0  0  0  0  0  0  0  0  0
   22.8074   -3.8779  -13.6564 O   0  0  0  0  0  0  0  0  0  0  0  0
  2  1  1  0
  3  2  1  0
  3  4  2  0
  5  3  1  0
  6  5  1  0
  7  8  1  0
  7  6  1  0
  8  9  1  0
  9 10  1  6
  9  5  1  0
 10 11  2  0
 13 12  1  6
 13 15  1  0
 13 14  1  0
 15 16  1  1
 16 10  1  0
 17 15  1  0
 17 19  1  0
 18 17  2  0
M  END
$$$$
