GPT.pdb
     RDKit          3D

 19 19  0  0  1  0  0  0  0  0999 V2000
   24.4603  -20.7235   -9.1731 N   0  0  0  0  0  0  0  0  0  0  0  0
   25.6030  -20.9918  -10.0261 C   0  0  0  0  0  0  0  0  0  0  0  0
   25.5398  -20.2399  -11.2945 C   0  0  0  0  0  0  0  0  0  0  0  0
   24.5628  -19.4934  -11.5076 O   0  0  0  0  0  0  0  0  0  0  0  0
   26.5639  -20.3690  -12.2378 N   0  0  0  0  0  0  0  0  0  0  0  0
   27.7243  -21.2552  -12.1074 C   0  0  0  0  0  0  0  0  0  0  0  0
   28.8214  -20.3806  -12.7354 C   0  0  0  0  0  0  0  0  0  0  0  0
   28.1125  -19.8562  -13.9582 C   0  0  0  0  0  0  0  0  0  0  0  0
   26.6857  -19.6817  -13.4837 C   0  0  1  0  0  0  0  0  0  0  0  0
   25.7996  -20.2431  -14.5399 C   0  0  0  0  0  0  0  0  0  0  0  0
   25.7718  -21.4857  -14.7400 O   0  0  0  0  0  0  0  0  0  0  0  0
   22.0937  -20.6303  -14.8488 C   0  0  0  0  0  0  0  0  0  0  0  0
   22.5838  -19.7315  -15.9673 C   0  0  1  0  0  0  0  0  0  0  0  0
   22.3458  -18.3964  -15.7095 O   0  0  0  0  0  0  0  0  0  0  0  0
   24.0266  -20.0142  -16.3144 C   0  0  2  0  0  0  0  0  0  0  0  0
   24.9501  -19.4568  -15.3706 N   0  0  0  0  0  0  0  0  0  0  0  0
   24.2779  -19.3987  -17.6421 C   0  0  0  0  0  0  0  0  0  0  0  0
   25.0358  -18.4015  -17.7662 O   0  0  0  0  0  0  0  0  0  0  0  0
   23.6722  -19.9171  -18.8014 O   0  0  0  0  0  0  0  0  0  0  0  0
  2  1  1  0
  3  2  1  0
  3  4  2  0
  5  3  1  0
  6  5  1  0
  7  8  1  0
  7  6  1  0
  8  9  1  0
  9 10  1  6
  9  5  1  0
 10 11  2  0
 13 12  1  1
 13 15  1  0
 13 14  1  0
 15 16  1  1
 16 10  1  0
 17 15  1  0
 17 19  1  0
 18 17  2  0
M  END
$$$$
