GPT.pdb
     RDKit          3D

 19 19  0  0  1  0  0  0  0  0999 V2000
   20.0393  -12.0713  -18.4447 N   0  0  0  0  0  0  0  0  0  0  0  0
   21.2867  -11.5009  -17.9716 C   0  0  0  0  0  0  0  0  0  0  0  0
   21.0820  -10.5734  -16.8420 C   0  0  0  0  0  0  0  0  0  0  0  0
   20.0322   -9.9004  -16.7940 O   0  0  0  0  0  0  0  0  0  0  0  0
   22.0557  -10.4566  -15.8453 N   0  0  0  0  0  0  0  0  0  0  0  0
   23.3325  -11.1765  -15.8247 C   0  0  0  0  0  0  0  0  0  0  0  0
   23.4735  -11.4614  -14.3208 C   0  0  0  0  0  0  0  0  0  0  0  0
   23.0820  -10.1293  -13.7333 C   0  0  0  0  0  0  0  0  0  0  0  0
   22.0053   -9.6374  -14.6766 C   0  0  1  0  0  0  0  0  0  0  0  0
   22.2937   -8.2056  -14.9644 C   0  0  0  0  0  0  0  0  0  0  0  0
   23.1037   -7.9004  -15.8785 O   0  0  0  0  0  0  0  0  0  0  0  0
   20.4042   -5.4633  -16.5687 C   0  0  0  0  0  0  0  0  0  0  0  0
   20.6894   -5.0565  -15.1361 C   0  0  1  0  0  0  0  0  0  0  0  0
   19.5902   -5.2171  -14.3167 O   0  0  0  0  0  0  0  0  0  0  0  0
   21.9255   -5.7404  -14.6009 C   0  0  2  0  0  0  0  0  0  0  0  0
   21.7035   -7.1153  -14.2623 N   0  0  0  0  0  0  0  0  0  0  0  0
   22.3233   -5.0089  -13.3715 C   0  0  0  0  0  0  0  0  0  0  0  0
   22.2149   -5.5367  -12.2340 O   0  0  0  0  0  0  0  0  0  0  0  0
   22.8343   -3.7001  -13.4470 O   0  0  0  0  0  0  0  0  0  0  0  0
  2  1  1  0
  3  2  1  0
  3  4  2  0
  5  3  1  0
  6  5  1  0
  7  8  1  0
  7  6  1  0
  8  9  1  0
  9 10  1  6
  9  5  1  0
 10 11  2  0
 13 12  1  6
 13 15  1  0
 13 14  1  0
 15 16  1  1
 16 10  1  0
 17 15  1  0
 17 19  1  0
 18 17  2  0
M  END
$$$$
