GPT.pdb
     RDKit          3D

 19 19  0  0  1  0  0  0  0  0999 V2000
   28.1622  -21.6876  -15.0259 N   0  0  0  0  0  0  0  0  0  0  0  0
   27.7406  -21.0665  -13.7843 C   0  0  0  0  0  0  0  0  0  0  0  0
   26.3743  -21.4680  -13.3966 C   0  0  0  0  0  0  0  0  0  0  0  0
   25.7335  -22.2343  -14.1445 O   0  0  0  0  0  0  0  0  0  0  0  0
   25.8143  -20.9912  -12.2074 N   0  0  0  0  0  0  0  0  0  0  0  0
   26.4915  -20.1133  -11.2484 C   0  0  0  0  0  0  0  0  0  0  0  0
   25.9634  -20.6815   -9.9213 C   0  0  0  0  0  0  0  0  0  0  0  0
   24.4997  -20.8533  -10.2391 C   0  0  0  0  0  0  0  0  0  0  0  0
   24.5068  -21.2566  -11.6981 C   0  0  1  0  0  0  0  0  0  0  0  0
   23.4507  -20.4590  -12.3796 C   0  0  0  0  0  0  0  0  0  0  0  0
   23.6480  -19.2410  -12.6297 O   0  0  0  0  0  0  0  0  0  0  0  0
   22.2490  -20.1813  -15.7536 C   0  0  0  0  0  0  0  0  0  0  0  0
   21.0526  -20.6195  -14.9315 C   0  0  1  0  0  0  0  0  0  0  0  0
   20.7697  -21.9610  -15.0913 O   0  0  0  0  0  0  0  0  0  0  0  0
   21.1987  -20.2189  -13.4823 C   0  0  2  0  0  0  0  0  0  0  0  0
   22.1903  -20.9845  -12.7860 N   0  0  0  0  0  0  0  0  0  0  0  0
   19.8819  -20.4521  -12.8370 C   0  0  0  0  0  0  0  0  0  0  0  0
   19.7329  -21.3440  -11.9615 O   0  0  0  0  0  0  0  0  0  0  0  0
   18.7612  -19.6779  -13.1894 O   0  0  0  0  0  0  0  0  0  0  0  0
  2  1  1  0
  3  2  1  0
  3  4  2  0
  5  3  1  0
  6  5  1  0
  7  8  1  0
  7  6  1  0
  8  9  1  0
  9 10  1  6
  9  5  1  0
 10 11  2  0
 13 12  1  6
 13 15  1  0
 13 14  1  0
 15 16  1  1
 16 10  1  0
 17 15  1  0
 17 19  1  0
 18 17  2  0
M  END
$$$$
