GPT.pdb
     RDKit          3D

 19 19  0  0  1  0  0  0  0  0999 V2000
   23.8428  -21.1009  -12.0562 N   0  0  0  0  0  0  0  0  0  0  0  0
   25.1414  -20.4843  -11.8600 C   0  0  0  0  0  0  0  0  0  0  0  0
   25.8012  -20.9557  -10.6268 C   0  0  0  0  0  0  0  0  0  0  0  0
   25.0983  -21.4001   -9.6963 O   0  0  0  0  0  0  0  0  0  0  0  0
   27.1936  -20.9007  -10.5116 N   0  0  0  0  0  0  0  0  0  0  0  0
   28.1057  -20.3899  -11.5392 C   0  0  0  0  0  0  0  0  0  0  0  0
   29.2828  -21.3665  -11.3849 C   0  0  0  0  0  0  0  0  0  0  0  0
   29.4193  -21.4243   -9.8846 C   0  0  0  0  0  0  0  0  0  0  0  0
   27.9883  -21.3210   -9.4020 C   0  0  1  0  0  0  0  0  0  0  0  0
   27.9726  -20.3433   -8.2795 C   0  0  0  0  0  0  0  0  0  0  0  0
   27.7080  -19.1334   -8.5053 O   0  0  0  0  0  0  0  0  0  0  0  0
   27.2231  -19.1313   -3.6185 C   0  0  0  0  0  0  0  0  0  0  0  0
   27.2152  -20.1281   -4.7611 C   0  0  1  0  0  0  0  0  0  0  0  0
   25.9435  -20.3609   -5.2448 O   0  0  0  0  0  0  0  0  0  0  0  0
   28.1930  -19.7378   -5.8444 C   0  0  2  0  0  0  0  0  0  0  0  0
   28.2423  -20.6815   -6.9220 N   0  0  0  0  0  0  0  0  0  0  0  0
   29.5341  -19.6735   -5.2103 C   0  0  0  0  0  0  0  0  0  0  0  0
   29.8496  -18.7250   -4.4455 O   0  0  0  0  0  0  0  0  0  0  0  0
   30.4914  -20.6765   -5.4493 O   0  0  0  0  0  0  0  0  0  0  0  0
  2  1  1  0
  3  2  1  0
  3  4  2  0
  5  3  1  0
  6  5  1  0
  7  8  1  0
  7  6  1  0
  8  9  1  0
  9 10  1  1
  9  5  1  0
 10 11  2  0
 13 12  1  1
 13 15  1  0
 13 14  1  0
 15 16  1  6
 16 10  1  0
 17 15  1  0
 17 19  1  0
 18 17  2  0
M  END
$$$$
