GPT.pdb
     RDKit          3D

 19 19  0  0  1  0  0  0  0  0999 V2000
   28.2735  -18.9825  -17.0863 N   0  0  0  0  0  0  0  0  0  0  0  0
   28.8845  -18.9939  -15.7703 C   0  0  0  0  0  0  0  0  0  0  0  0
   28.1588  -19.8664  -14.8268 C   0  0  0  0  0  0  0  0  0  0  0  0
   27.0686  -20.3624  -15.1772 O   0  0  0  0  0  0  0  0  0  0  0  0
   28.6923  -20.1272  -13.5609 N   0  0  0  0  0  0  0  0  0  0  0  0
   29.9469  -19.5729  -13.0435 C   0  0  0  0  0  0  0  0  0  0  0  0
   30.4833  -20.7760  -12.2511 C   0  0  0  0  0  0  0  0  0  0  0  0
   29.2374  -21.2336  -11.5361 C   0  0  0  0  0  0  0  0  0  0  0  0
   28.1406  -20.9645  -12.5440 C   0  0  1  0  0  0  0  0  0  0  0  0
   27.0190  -20.3165  -11.8105 C   0  0  0  0  0  0  0  0  0  0  0  0
   27.0602  -19.0824  -11.5649 O   0  0  0  0  0  0  0  0  0  0  0  0
   23.5266  -19.7541  -12.8625 C   0  0  0  0  0  0  0  0  0  0  0  0
   23.4635  -20.5206  -11.5558 C   0  0  1  0  0  0  0  0  0  0  0  0
   23.1142  -21.8433  -11.7402 O   0  0  0  0  0  0  0  0  0  0  0  0
   24.7328  -20.3550  -10.7537 C   0  0  2  0  0  0  0  0  0  0  0  0
   25.8616  -21.0075  -11.3490 N   0  0  0  0  0  0  0  0  0  0  0  0
   24.4826  -20.9635   -9.4225 C   0  0  0  0  0  0  0  0  0  0  0  0
   25.0896  -22.0033   -9.0557 O   0  0  0  0  0  0  0  0  0  0  0  0
   23.5559  -20.3903   -8.5325 O   0  0  0  0  0  0  0  0  0  0  0  0
  2  1  1  0
  3  2  1  0
  3  4  2  0
  5  3  1  0
  6  5  1  0
  7  8  1  0
  7  6  1  0
  8  9  1  0
  9 10  1  1
  9  5  1  0
 10 11  2  0
 13 12  1  6
 13 15  1  0
 13 14  1  0
 15 16  1  6
 16 10  1  0
 17 15  1  0
 17 19  1  0
 18 17  2  0
M  END
$$$$
