GPT.pdb
     RDKit          3D

 19 19  0  0  1  0  0  0  0  0999 V2000
   21.9491  -12.4856  -18.6495 N   0  0  0  0  0  0  0  0  0  0  0  0
   23.1846  -11.7735  -18.3819 C   0  0  0  0  0  0  0  0  0  0  0  0
   23.0804  -10.9043  -17.1937 C   0  0  0  0  0  0  0  0  0  0  0  0
   21.9495  -10.6181  -16.7505 O   0  0  0  0  0  0  0  0  0  0  0  0
   24.2372  -10.4131  -16.5807 N   0  0  0  0  0  0  0  0  0  0  0  0
   25.6081  -10.6996  -17.0135 C   0  0  0  0  0  0  0  0  0  0  0  0
   26.3186  -10.8054  -15.6545 C   0  0  0  0  0  0  0  0  0  0  0  0
   25.7407   -9.6166  -14.9296 C   0  0  0  0  0  0  0  0  0  0  0  0
   24.3166   -9.5584  -15.4393 C   0  0  1  0  0  0  0  0  0  0  0  0
   24.0238   -8.1355  -15.7642 C   0  0  0  0  0  0  0  0  0  0  0  0
   24.6014   -7.5826  -16.7366 O   0  0  0  0  0  0  0  0  0  0  0  0
   21.2573   -6.4655  -17.3642 C   0  0  0  0  0  0  0  0  0  0  0  0
   21.3536   -5.8797  -15.9689 C   0  0  1  0  0  0  0  0  0  0  0  0
   20.4013   -6.3992  -15.1153 O   0  0  0  0  0  0  0  0  0  0  0  0
   22.7563   -5.9864  -15.4183 C   0  0  2  0  0  0  0  0  0  0  0  0
   23.1086   -7.3220  -15.0357 N   0  0  0  0  0  0  0  0  0  0  0  0
   22.8125   -5.1192  -14.2142 C   0  0  0  0  0  0  0  0  0  0  0  0
   22.9619   -5.6082  -13.0641 O   0  0  0  0  0  0  0  0  0  0  0  0
   22.6997   -3.7214  -14.3288 O   0  0  0  0  0  0  0  0  0  0  0  0
  2  1  1  0
  3  2  1  0
  3  4  2  0
  5  3  1  0
  6  5  1  0
  7  8  1  0
  7  6  1  0
  8  9  1  0
  9 10  1  6
  9  5  1  0
 10 11  2  0
 13 12  1  6
 13 15  1  0
 13 14  1  0
 15 16  1  1
 16 10  1  0
 17 15  1  0
 17 19  1  0
 18 17  2  0
M  END
$$$$
