GPT.pdb
     RDKit          3D

 19 19  0  0  1  0  0  0  0  0999 V2000
   40.5590  -10.3796   -5.3841 N   0  0  0  0  0  0  0  0  0  0  0  0
   40.9390  -10.0261   -6.7390 C   0  0  0  0  0  0  0  0  0  0  0  0
   40.6336   -8.6168   -7.0534 C   0  0  0  0  0  0  0  0  0  0  0  0
   39.8594   -7.9842   -6.3066 O   0  0  0  0  0  0  0  0  0  0  0  0
   41.2072   -8.0082   -8.1739 N   0  0  0  0  0  0  0  0  0  0  0  0
   42.0556   -8.6844   -9.1598 C   0  0  0  0  0  0  0  0  0  0  0  0
   43.0746   -7.5750   -9.4660 C   0  0  0  0  0  0  0  0  0  0  0  0
   42.1699   -6.3763   -9.5992 C   0  0  0  0  0  0  0  0  0  0  0  0
   41.0888   -6.6423   -8.5736 C   0  0  1  0  0  0  0  0  0  0  0  0
   39.7834   -6.3438   -9.2238 C   0  0  0  0  0  0  0  0  0  0  0  0
   39.3303   -7.1192  -10.1059 O   0  0  0  0  0  0  0  0  0  0  0  0
   36.2595   -5.8120   -7.6184 C   0  0  0  0  0  0  0  0  0  0  0  0
   36.6376   -4.6145   -8.4681 C   0  0  1  0  0  0  0  0  0  0  0  0
   36.9836   -3.5180   -7.7043 O   0  0  0  0  0  0  0  0  0  0  0  0
   37.6885   -4.9712   -9.4930 C   0  0  2  0  0  0  0  0  0  0  0  0
   38.9779   -5.2100   -8.9144 N   0  0  0  0  0  0  0  0  0  0  0  0
   37.7930   -3.8169  -10.4212 C   0  0  0  0  0  0  0  0  0  0  0  0
   38.8516   -3.1413  -10.5060 O   0  0  0  0  0  0  0  0  0  0  0  0
   36.7058   -3.4470  -11.2340 O   0  0  0  0  0  0  0  0  0  0  0  0
  2  1  1  0
  3  2  1  0
  3  4  2  0
  5  3  1  0
  6  5  1  0
  7  8  1  0
  7  6  1  0
  8  9  1  0
  9 10  1  6
  9  5  1  0
 10 11  2  0
 13 12  1  1
 13 15  1  0
 13 14  1  0
 15 16  1  1
 16 10  1  0
 17 15  1  0
 17 19  1  0
 18 17  2  0
M  END
$$$$
