PST.pdb
     RDKit          3D

 21 21  0  0  1  0  0  0  0  0999 V2000
    8.4177  -13.2348   18.9251 N   0  0  0  0  0  0  0  0  0  0  0  0
    7.6589  -13.6762   17.7689 C   0  0  0  0  0  0  0  0  0  0  0  0
    7.3943  -15.1365   18.1596 C   0  0  0  0  0  0  0  0  0  0  0  0
    6.8774  -14.9314   19.5814 C   0  0  0  0  0  0  0  0  0  0  0  0
    7.6325  -13.6974   20.0267 C   0  0  1  0  0  0  0  0  0  0  0  0
    8.4593  -14.0931   21.1937 C   0  0  0  0  0  0  0  0  0  0  0  0
    9.6745  -14.3336   20.9909 O   0  0  0  0  0  0  0  0  0  0  0  0
    6.7087  -14.7109   24.9513 O   0  0  0  0  0  0  0  0  0  0  0  0
    7.9549  -14.0863   24.9387 C   0  0  0  0  0  0  0  0  0  0  0  0
    8.6912  -14.4679   23.6729 C   0  0  2  0  0  0  0  0  0  0  0  0
    7.9326  -14.2037   22.4896 N   0  0  0  0  0  0  0  0  0  0  0  0
    8.9767  -15.9172   23.7504 C   0  0  0  0  0  0  0  0  0  0  0  0
    8.1409  -16.7398   23.3132 O   0  0  0  0  0  0  0  0  0  0  0  0
   11.4835  -17.6702   22.1093 C   0  0  0  0  0  0  0  0  0  0  0  0
   11.7653  -17.9309   23.5526 C   0  0  1  0  0  0  0  0  0  0  0  0
   12.7155  -17.0226   23.9980 O   0  0  0  0  0  0  0  0  0  0  0  0
   10.5136  -17.7223   24.3906 C   0  0  2  0  0  0  0  0  0  0  0  0
   10.2131  -16.3084   24.3305 N   0  0  0  0  0  0  0  0  0  0  0  0
   10.7814  -18.0447   25.8261 C   0  0  0  0  0  0  0  0  0  0  0  0
   10.7454  -17.1952   26.7508 O   0  0  0  0  0  0  0  0  0  0  0  0
   11.0871  -19.3534   26.1613 O   0  0  0  0  0  0  0  0  0  0  0  0
  1  2  1  0
  3  2  1  0
  4  5  1  0
  4  3  1  0
  5  1  1  0
  6 11  1  0
  5  6  1  1
  7  6  2  0
 10  9  1  1
  9  8  1  0
 10 12  1  0
 10 11  1  0
 12 18  1  0
 13 12  2  0
 15 16  1  0
 15 14  1  6
 17 19  1  0
 17 15  1  0
 17 18  1  1
 19 21  1  0
 20 19  2  0
M  END
$$$$
