PST.pdb
     RDKit          3D

 21 21  0  0  1  0  0  0  0  0999 V2000
    7.5137  -15.0958   18.9203 N   0  0  0  0  0  0  0  0  0  0  0  0
    6.9069  -14.3236   17.8512 C   0  0  0  0  0  0  0  0  0  0  0  0
    7.2748  -12.9030   18.3003 C   0  0  0  0  0  0  0  0  0  0  0  0
    8.7649  -13.0975   18.5696 C   0  0  0  0  0  0  0  0  0  0  0  0
    8.8283  -14.5420   19.0172 C   0  0  1  0  0  0  0  0  0  0  0  0
    9.3493  -14.5425   20.4067 C   0  0  0  0  0  0  0  0  0  0  0  0
   10.5606  -14.2587   20.5738 O   0  0  0  0  0  0  0  0  0  0  0  0
    6.8922  -15.6308   23.7013 O   0  0  0  0  0  0  0  0  0  0  0  0
    7.8632  -14.6437   23.8623 C   0  0  0  0  0  0  0  0  0  0  0  0
    8.9852  -14.8821   22.8751 C   0  0  2  0  0  0  0  0  0  0  0  0
    8.5437  -14.8446   21.5152 N   0  0  0  0  0  0  0  0  0  0  0  0
    9.5481  -16.2191   23.1638 C   0  0  0  0  0  0  0  0  0  0  0  0
    9.0440  -17.2340   22.6324 O   0  0  0  0  0  0  0  0  0  0  0  0
   12.9377  -17.2655   22.5701 C   0  0  0  0  0  0  0  0  0  0  0  0
   12.7092  -17.4803   24.0303 C   0  0  1  0  0  0  0  0  0  0  0  0
   13.1959  -16.3844   24.7291 O   0  0  0  0  0  0  0  0  0  0  0  0
   11.2222  -17.5840   24.3319 C   0  0  2  0  0  0  0  0  0  0  0  0
   10.6569  -16.2826   24.0497 N   0  0  0  0  0  0  0  0  0  0  0  0
   10.9972  -17.8447   25.7871 C   0  0  0  0  0  0  0  0  0  0  0  0
   10.4813  -17.0122   26.5738 O   0  0  0  0  0  0  0  0  0  0  0  0
   11.3774  -19.0727   26.3027 O   0  0  0  0  0  0  0  0  0  0  0  0
  1  2  1  0
  3  2  1  0
  4  5  1  0
  4  3  1  0
  5  1  1  0
  6 11  1  0
  5  6  1  1
  7  6  2  0
 10  9  1  1
  9  8  1  0
 10 12  1  0
 10 11  1  0
 12 18  1  0
 13 12  2  0
 15 16  1  0
 15 14  1  6
 17 19  1  0
 17 15  1  0
 17 18  1  1
 19 21  1  0
 20 19  2  0
M  END
$$$$
