PST.pdb
     RDKit          3D

 21 21  0  0  1  0  0  0  0  0999 V2000
    7.5891  -15.0527   19.3031 N   0  0  0  0  0  0  0  0  0  0  0  0
    7.0953  -14.2717   18.1835 C   0  0  0  0  0  0  0  0  0  0  0  0
    7.3752  -12.8531   18.6980 C   0  0  0  0  0  0  0  0  0  0  0  0
    8.8272  -13.0225   19.1382 C   0  0  0  0  0  0  0  0  0  0  0  0
    8.8702  -14.4741   19.5646 C   0  0  1  0  0  0  0  0  0  0  0  0
    9.2237  -14.4920   21.0058 C   0  0  0  0  0  0  0  0  0  0  0  0
   10.4226  -14.2829   21.3133 O   0  0  0  0  0  0  0  0  0  0  0  0
    7.8165  -14.1519   25.5860 O   0  0  0  0  0  0  0  0  0  0  0  0
    7.4322  -14.1728   24.2463 C   0  0  0  0  0  0  0  0  0  0  0  0
    8.5492  -14.7672   23.4162 C   0  0  2  0  0  0  0  0  0  0  0  0
    8.2761  -14.7310   22.0128 N   0  0  0  0  0  0  0  0  0  0  0  0
    8.7114  -16.1748   23.8409 C   0  0  0  0  0  0  0  0  0  0  0  0
    7.7636  -16.9799   23.6995 O   0  0  0  0  0  0  0  0  0  0  0  0
   10.9703  -18.6653   22.7001 C   0  0  0  0  0  0  0  0  0  0  0  0
   11.2864  -18.5054   24.1509 C   0  0  1  0  0  0  0  0  0  0  0  0
   12.3532  -17.6280   24.2862 O   0  0  0  0  0  0  0  0  0  0  0  0
   10.1062  -17.8995   24.8944 C   0  0  2  0  0  0  0  0  0  0  0  0
    9.9631  -16.5474   24.3998 N   0  0  0  0  0  0  0  0  0  0  0  0
   10.4030  -17.7939   26.3562 C   0  0  0  0  0  0  0  0  0  0  0  0
   10.5838  -16.7045   26.9549 O   0  0  0  0  0  0  0  0  0  0  0  0
   10.4844  -18.9610   27.0977 O   0  0  0  0  0  0  0  0  0  0  0  0
  1  2  1  0
  3  2  1  0
  4  5  1  0
  4  3  1  0
  5  1  1  0
  6 11  1  0
  5  6  1  1
  7  6  2  0
 10  9  1  1
  9  8  1  0
 10 12  1  0
 10 11  1  0
 12 18  1  0
 13 12  2  0
 15 16  1  0
 15 14  1  6
 17 19  1  0
 17 15  1  0
 17 18  1  6
 19 21  1  0
 20 19  2  0
M  END
$$$$
