PST.pdb
     RDKit          3D

 21 21  0  0  1  0  0  0  0  0999 V2000
    8.1854  -14.9077   19.4485 N   0  0  0  0  0  0  0  0  0  0  0  0
    7.3820  -15.7041   18.5386 C   0  0  0  0  0  0  0  0  0  0  0  0
    6.9986  -16.8676   19.4630 C   0  0  0  0  0  0  0  0  0  0  0  0
    6.5132  -16.0802   20.6776 C   0  0  0  0  0  0  0  0  0  0  0  0
    7.3735  -14.8361   20.6232 C   0  0  1  0  0  0  0  0  0  0  0  0
    8.1742  -14.8081   21.8723 C   0  0  0  0  0  0  0  0  0  0  0  0
    9.3749  -15.1670   21.8018 O   0  0  0  0  0  0  0  0  0  0  0  0
    6.3469  -14.3252   25.6313 O   0  0  0  0  0  0  0  0  0  0  0  0
    7.5721  -13.6860   25.4482 C   0  0  0  0  0  0  0  0  0  0  0  0
    8.3410  -14.3869   24.3493 C   0  0  2  0  0  0  0  0  0  0  0  0
    7.6386  -14.4005   23.1036 N   0  0  0  0  0  0  0  0  0  0  0  0
    8.5680  -15.7801   24.7914 C   0  0  0  0  0  0  0  0  0  0  0  0
    7.6884  -16.6474   24.5902 O   0  0  0  0  0  0  0  0  0  0  0  0
   12.4621  -16.8233   25.3846 C   0  0  0  0  0  0  0  0  0  0  0  0
   11.3831  -17.7928   25.0292 C   0  0  1  0  0  0  0  0  0  0  0  0
   11.7625  -19.0618   25.4437 O   0  0  0  0  0  0  0  0  0  0  0  0
   10.0913  -17.4484   25.7540 C   0  0  2  0  0  0  0  0  0  0  0  0
    9.8009  -16.0671   25.4362 N   0  0  0  0  0  0  0  0  0  0  0  0
   10.2842  -17.5178   27.2352 C   0  0  0  0  0  0  0  0  0  0  0  0
   10.2315  -16.5178   27.9937 O   0  0  0  0  0  0  0  0  0  0  0  0
   10.5358  -18.7529   27.8095 O   0  0  0  0  0  0  0  0  0  0  0  0
  1  2  1  0
  3  2  1  0
  4  5  1  0
  4  3  1  0
  5  1  1  0
  6 11  1  0
  5  6  1  1
  7  6  2  0
 10  9  1  1
  9  8  1  0
 10 12  1  0
 10 11  1  0
 12 18  1  0
 13 12  2  0
 15 16  1  0
 15 14  1  1
 17 19  1  0
 17 15  1  0
 17 18  1  1
 19 21  1  0
 20 19  2  0
M  END
$$$$
