PST.pdb
     RDKit          3D

 21 21  0  0  1  0  0  0  0  0999 V2000
    8.5219  -14.7577   18.0651 N   0  0  0  0  0  0  0  0  0  0  0  0
    8.1194  -13.8143   17.0378 C   0  0  0  0  0  0  0  0  0  0  0  0
    7.1127  -12.9668   17.8274 C   0  0  0  0  0  0  0  0  0  0  0  0
    7.9446  -12.6768   19.0742 C   0  0  0  0  0  0  0  0  0  0  0  0
    8.8042  -13.9176   19.1870 C   0  0  1  0  0  0  0  0  0  0  0  0
    8.4699  -14.5599   20.4823 C   0  0  0  0  0  0  0  0  0  0  0  0
    8.6813  -13.9014   21.5299 O   0  0  0  0  0  0  0  0  0  0  0  0
    7.9407  -18.7304   21.1189 O   0  0  0  0  0  0  0  0  0  0  0  0
    6.9215  -17.8710   21.5258 C   0  0  0  0  0  0  0  0  0  0  0  0
    7.4985  -16.4935   21.7702 C   0  0  2  0  0  0  0  0  0  0  0  0
    7.9356  -15.8546   20.5675 N   0  0  0  0  0  0  0  0  0  0  0  0
    8.6544  -16.6560   22.6787 C   0  0  0  0  0  0  0  0  0  0  0  0
    9.8094  -16.7467   22.2053 O   0  0  0  0  0  0  0  0  0  0  0  0
    8.1932  -15.4582   26.5300 C   0  0  0  0  0  0  0  0  0  0  0  0
    9.5216  -15.6435   25.8729 C   0  0  1  0  0  0  0  0  0  0  0  0
   10.4820  -15.8617   26.8507 O   0  0  0  0  0  0  0  0  0  0  0  0
    9.5087  -16.8680   24.9712 C   0  0  2  0  0  0  0  0  0  0  0  0
    8.3867  -16.7016   24.0731 N   0  0  0  0  0  0  0  0  0  0  0  0
    9.2428  -18.1054   25.7676 C   0  0  0  0  0  0  0  0  0  0  0  0
    8.1598  -18.7407   25.7296 O   0  0  0  0  0  0  0  0  0  0  0  0
   10.2444  -18.5831   26.5965 O   0  0  0  0  0  0  0  0  0  0  0  0
  1  2  1  0
  3  2  1  0
  4  5  1  0
  4  3  1  0
  5  1  1  0
  6 11  1  0
  5  6  1  1
  7  6  2  0
 10  9  1  6
  9  8  1  0
 10 12  1  0
 10 11  1  0
 12 18  1  0
 13 12  2  0
 15 16  1  0
 15 14  1  1
 17 19  1  0
 17 15  1  0
 17 18  1  6
 19 21  1  0
 20 19  2  0
M  END
$$$$
