PST.pdb
     RDKit          3D

 21 21  0  0  1  0  0  0  0  0999 V2000
    7.2392  -14.8414   20.0010 N   0  0  0  0  0  0  0  0  0  0  0  0
    6.7167  -13.9337   18.9958 C   0  0  0  0  0  0  0  0  0  0  0  0
    7.4317  -12.6381   19.4025 C   0  0  0  0  0  0  0  0  0  0  0  0
    8.8609  -13.1613   19.5224 C   0  0  0  0  0  0  0  0  0  0  0  0
    8.6468  -14.5928   19.9650 C   0  0  1  0  0  0  0  0  0  0  0  0
    9.2881  -14.7354   21.2956 C   0  0  0  0  0  0  0  0  0  0  0  0
   10.5414  -14.6880   21.3454 O   0  0  0  0  0  0  0  0  0  0  0  0
    6.9329  -15.1405   24.7455 O   0  0  0  0  0  0  0  0  0  0  0  0
    8.1691  -14.5070   24.8618 C   0  0  0  0  0  0  0  0  0  0  0  0
    9.1002  -15.0296   23.7894 C   0  0  2  0  0  0  0  0  0  0  0  0
    8.5490  -14.9177   22.4745 N   0  0  0  0  0  0  0  0  0  0  0  0
    9.3561  -16.4559   24.0864 C   0  0  0  0  0  0  0  0  0  0  0  0
    8.5165  -17.3212   23.7508 O   0  0  0  0  0  0  0  0  0  0  0  0
   11.8765  -18.5796   22.9156 C   0  0  0  0  0  0  0  0  0  0  0  0
   12.0752  -18.5795   24.3958 C   0  0  1  0  0  0  0  0  0  0  0  0
   13.0538  -17.6501   24.7196 O   0  0  0  0  0  0  0  0  0  0  0  0
   10.7995  -18.1591   25.1090 C   0  0  2  0  0  0  0  0  0  0  0  0
   10.5694  -16.7760   24.7524 N   0  0  0  0  0  0  0  0  0  0  0  0
   10.9891  -18.1954   26.5919 C   0  0  0  0  0  0  0  0  0  0  0  0
   11.0004  -17.1715   27.3195 O   0  0  0  0  0  0  0  0  0  0  0  0
   11.1628  -19.4258   27.2038 O   0  0  0  0  0  0  0  0  0  0  0  0
  1  2  1  0
  3  2  1  0
  4  5  1  0
  4  3  1  0
  5  1  1  0
  6 11  1  0
  5  6  1  1
  7  6  2  0
 10  9  1  1
  9  8  1  0
 10 12  1  0
 10 11  1  0
 12 18  1  0
 13 12  2  0
 15 16  1  0
 15 14  1  6
 17 19  1  0
 17 15  1  0
 17 18  1  6
 19 21  1  0
 20 19  2  0
M  END
$$$$
