PST.pdb
     RDKit          3D

 21 21  0  0  1  0  0  0  0  0999 V2000
    7.5287  -15.0460   19.5567 N   0  0  0  0  0  0  0  0  0  0  0  0
    6.9357  -14.2273   18.5149 C   0  0  0  0  0  0  0  0  0  0  0  0
    7.3323  -12.8297   19.0097 C   0  0  0  0  0  0  0  0  0  0  0  0
    8.8186  -13.0623   19.2691 C   0  0  0  0  0  0  0  0  0  0  0  0
    8.8541  -14.5218   19.6689 C   0  0  1  0  0  0  0  0  0  0  0  0
    9.3771  -14.5783   21.0565 C   0  0  0  0  0  0  0  0  0  0  0  0
   10.5884  -14.3005   21.2333 O   0  0  0  0  0  0  0  0  0  0  0  0
    6.8393  -15.5274   24.2962 O   0  0  0  0  0  0  0  0  0  0  0  0
    7.9391  -14.6982   24.5105 C   0  0  0  0  0  0  0  0  0  0  0  0
    9.0206  -15.0351   23.5070 C   0  0  2  0  0  0  0  0  0  0  0  0
    8.5733  -14.9259   22.1529 N   0  0  0  0  0  0  0  0  0  0  0  0
    9.4418  -16.4292   23.7660 C   0  0  0  0  0  0  0  0  0  0  0  0
    8.8213  -17.3756   23.2315 O   0  0  0  0  0  0  0  0  0  0  0  0
   12.4789  -17.9499   22.9402 C   0  0  0  0  0  0  0  0  0  0  0  0
   12.4023  -18.1047   24.4237 C   0  0  1  0  0  0  0  0  0  0  0  0
   13.1226  -17.0804   25.0220 O   0  0  0  0  0  0  0  0  0  0  0  0
   10.9640  -17.9850   24.9028 C   0  0  2  0  0  0  0  0  0  0  0  0
   10.5541  -16.6251   24.6276 N   0  0  0  0  0  0  0  0  0  0  0  0
   10.8860  -18.1665   26.3850 C   0  0  0  0  0  0  0  0  0  0  0  0
   10.5593  -17.2538   27.1839 O   0  0  0  0  0  0  0  0  0  0  0  0
   11.1906  -19.4102   26.9132 O   0  0  0  0  0  0  0  0  0  0  0  0
  1  2  1  0
  3  2  1  0
  4  5  1  0
  4  3  1  0
  5  1  1  0
  6 11  1  0
  5  6  1  1
  7  6  2  0
 10  9  1  1
  9  8  1  0
 10 12  1  0
 10 11  1  0
 12 18  1  0
 13 12  2  0
 15 16  1  0
 15 14  1  6
 17 19  1  0
 17 15  1  0
 17 18  1  1
 19 21  1  0
 20 19  2  0
M  END
$$$$
