PST.pdb
     RDKit          3D

 21 21  0  0  1  0  0  0  0  0999 V2000
    8.6977  -15.0267   19.7898 N   0  0  0  0  0  0  0  0  0  0  0  0
    8.1848  -14.4962   18.5396 C   0  0  0  0  0  0  0  0  0  0  0  0
    6.9936  -13.6803   19.0598 C   0  0  0  0  0  0  0  0  0  0  0  0
    7.6837  -12.9050   20.1793 C   0  0  0  0  0  0  0  0  0  0  0  0
    8.7528  -13.8748   20.6349 C   0  0  1  0  0  0  0  0  0  0  0  0
    8.4713  -14.1932   22.0567 C   0  0  0  0  0  0  0  0  0  0  0  0
    8.3996  -13.2349   22.8643 O   0  0  0  0  0  0  0  0  0  0  0  0
    8.9432  -18.0414   23.8680 O   0  0  0  0  0  0  0  0  0  0  0  0
    7.7322  -17.3665   24.0130 C   0  0  0  0  0  0  0  0  0  0  0  0
    7.9681  -15.8798   23.8576 C   0  0  2  0  0  0  0  0  0  0  0  0
    8.2872  -15.5070   22.5142 N   0  0  0  0  0  0  0  0  0  0  0  0
    9.0987  -15.5194   24.7407 C   0  0  0  0  0  0  0  0  0  0  0  0
   10.2410  -15.3603   24.2547 O   0  0  0  0  0  0  0  0  0  0  0  0
    9.4467  -12.6190   26.9951 C   0  0  0  0  0  0  0  0  0  0  0  0
    9.4853  -13.8548   27.8328 C   0  0  1  0  0  0  0  0  0  0  0  0
    8.2059  -14.1247   28.2979 O   0  0  0  0  0  0  0  0  0  0  0  0
    9.9266  -15.0515   27.0047 C   0  0  2  0  0  0  0  0  0  0  0  0
    8.8221  -15.3694   26.1260 N   0  0  0  0  0  0  0  0  0  0  0  0
   10.1393  -16.2465   27.8782 C   0  0  0  0  0  0  0  0  0  0  0  0
    9.4826  -17.3124   27.7751 O   0  0  0  0  0  0  0  0  0  0  0  0
   11.1149  -16.1800   28.8592 O   0  0  0  0  0  0  0  0  0  0  0  0
  1  2  1  0
  3  2  1  0
  4  5  1  0
  4  3  1  0
  5  1  1  0
  6 11  1  0
  5  6  1  1
  7  6  2  0
 10  9  1  6
  9  8  1  0
 10 12  1  0
 10 11  1  0
 12 18  1  0
 13 12  2  0
 15 16  1  0
 15 14  1  6
 17 19  1  0
 17 15  1  0
 17 18  1  6
 19 21  1  0
 20 19  2  0
M  END
$$$$
