PST.pdb
     RDKit          3D

 21 21  0  0  1  0  0  0  0  0999 V2000
    8.9688  -14.9736   19.3106 N   0  0  0  0  0  0  0  0  0  0  0  0
    8.8241  -14.6104   17.9125 C   0  0  0  0  0  0  0  0  0  0  0  0
    7.5368  -13.7776   17.9806 C   0  0  0  0  0  0  0  0  0  0  0  0
    7.8905  -12.8543   19.1439 C   0  0  0  0  0  0  0  0  0  0  0  0
    8.7892  -13.7291   19.9912 C   0  0  1  0  0  0  0  0  0  0  0  0
    8.1235  -13.8871   21.3081 C   0  0  0  0  0  0  0  0  0  0  0  0
    7.8128  -12.8430   21.9318 O   0  0  0  0  0  0  0  0  0  0  0  0
    8.1439  -17.3549   23.8901 O   0  0  0  0  0  0  0  0  0  0  0  0
    6.9472  -16.8371   23.3971 C   0  0  0  0  0  0  0  0  0  0  0  0
    7.1302  -15.3674   23.0866 C   0  0  2  0  0  0  0  0  0  0  0  0
    7.8377  -15.1434   21.8639 N   0  0  0  0  0  0  0  0  0  0  0  0
    7.8966  -14.7741   24.2040 C   0  0  0  0  0  0  0  0  0  0  0  0
    9.1420  -14.6808   24.1233 O   0  0  0  0  0  0  0  0  0  0  0  0
    6.6134  -11.5579   26.2202 C   0  0  0  0  0  0  0  0  0  0  0  0
    6.9041  -12.7414   27.0835 C   0  0  1  0  0  0  0  0  0  0  0  0
    5.7301  -13.4547   27.2813 O   0  0  0  0  0  0  0  0  0  0  0  0
    7.8905  -13.6756   26.4002 C   0  0  2  0  0  0  0  0  0  0  0  0
    7.1617  -14.3311   25.3362 N   0  0  0  0  0  0  0  0  0  0  0  0
    8.3370  -14.7489   27.3408 C   0  0  0  0  0  0  0  0  0  0  0  0
    8.0369  -15.9615   27.2094 O   0  0  0  0  0  0  0  0  0  0  0  0
    9.1272  -14.3914   28.4208 O   0  0  0  0  0  0  0  0  0  0  0  0
  1  2  1  0
  3  2  1  0
  4  5  1  0
  4  3  1  0
  5  1  1  0
  6 11  1  0
  5  6  1  1
  7  6  2  0
 10  9  1  1
  9  8  1  0
 10 12  1  0
 10 11  1  0
 12 18  1  0
 13 12  2  0
 15 16  1  0
 15 14  1  6
 17 19  1  0
 17 15  1  0
 17 18  1  6
 19 21  1  0
 20 19  2  0
M  END
$$$$
