PST.pdb
     RDKit          3D

 21 21  0  0  1  0  0  0  0  0999 V2000
    8.1827  -14.9856   18.3916 N   0  0  0  0  0  0  0  0  0  0  0  0
    7.7624  -14.0646   17.3512 C   0  0  0  0  0  0  0  0  0  0  0  0
    7.3224  -12.8700   18.2084 C   0  0  0  0  0  0  0  0  0  0  0  0
    8.5425  -12.7438   19.1172 C   0  0  0  0  0  0  0  0  0  0  0  0
    9.0163  -14.1773   19.2258 C   0  0  1  0  0  0  0  0  0  0  0  0
    8.9311  -14.5544   20.6585 C   0  0  0  0  0  0  0  0  0  0  0  0
    9.7439  -14.0179   21.4505 O   0  0  0  0  0  0  0  0  0  0  0  0
    6.3513  -17.6625   21.9262 O   0  0  0  0  0  0  0  0  0  0  0  0
    6.6123  -16.6220   22.8163 C   0  0  0  0  0  0  0  0  0  0  0  0
    7.9466  -15.9955   22.4736 C   0  0  2  0  0  0  0  0  0  0  0  0
    7.9881  -15.4738   21.1426 N   0  0  0  0  0  0  0  0  0  0  0  0
    8.9755  -17.0491   22.6122 C   0  0  0  0  0  0  0  0  0  0  0  0
    9.5068  -17.5374   21.5897 O   0  0  0  0  0  0  0  0  0  0  0  0
   11.6490  -16.0910   24.6446 C   0  0  0  0  0  0  0  0  0  0  0  0
   11.6801  -17.3028   23.7722 C   0  0  1  0  0  0  0  0  0  0  0  0
   12.8548  -18.0017   24.0127 O   0  0  0  0  0  0  0  0  0  0  0  0
   10.5245  -18.2338   24.1044 C   0  0  2  0  0  0  0  0  0  0  0  0
    9.3143  -17.4608   23.9289 N   0  0  0  0  0  0  0  0  0  0  0  0
   10.5717  -18.6387   25.5432 C   0  0  0  0  0  0  0  0  0  0  0  0
    9.7570  -18.2340   26.4094 O   0  0  0  0  0  0  0  0  0  0  0  0
   11.5689  -19.5098   25.9499 O   0  0  0  0  0  0  0  0  0  0  0  0
  1  2  1  0
  3  2  1  0
  4  5  1  0
  4  3  1  0
  5  1  1  0
  6 11  1  0
  5  6  1  1
  7  6  2  0
 10  9  1  6
  9  8  1  0
 10 12  1  0
 10 11  1  0
 12 18  1  0
 13 12  2  0
 15 16  1  0
 15 14  1  1
 17 19  1  0
 17 15  1  0
 17 18  1  1
 19 21  1  0
 20 19  2  0
M  END
$$$$
