PST.pdb
     RDKit          3D

 21 21  0  0  1  0  0  0  0  0999 V2000
    9.2091  -14.5503   19.2303 N   0  0  0  0  0  0  0  0  0  0  0  0
    8.7454  -14.2085   17.8978 C   0  0  0  0  0  0  0  0  0  0  0  0
    7.2721  -13.8979   18.1948 C   0  0  0  0  0  0  0  0  0  0  0  0
    7.4437  -12.9561   19.3840 C   0  0  0  0  0  0  0  0  0  0  0  0
    8.7048  -13.4818   20.0354 C   0  0  1  0  0  0  0  0  0  0  0  0
    8.3350  -13.9205   21.4039 C   0  0  0  0  0  0  0  0  0  0  0  0
    7.7863  -13.0789   22.1563 O   0  0  0  0  0  0  0  0  0  0  0  0
    9.9322  -17.3105   23.3361 O   0  0  0  0  0  0  0  0  0  0  0  0
    8.5437  -17.1884   23.3347 C   0  0  0  0  0  0  0  0  0  0  0  0
    8.1711  -15.7342   23.1430 C   0  0  2  0  0  0  0  0  0  0  0  0
    8.5762  -15.2217   21.8707 N   0  0  0  0  0  0  0  0  0  0  0  0
    8.8442  -14.9635   24.2111 C   0  0  0  0  0  0  0  0  0  0  0  0
    9.9485  -14.4201   23.9841 O   0  0  0  0  0  0  0  0  0  0  0  0
    7.6337  -11.9907   25.9413 C   0  0  0  0  0  0  0  0  0  0  0  0
    7.7847  -13.0730   26.9593 C   0  0  1  0  0  0  0  0  0  0  0  0
    6.5748  -13.7399   27.0917 O   0  0  0  0  0  0  0  0  0  0  0  0
    8.8165  -14.0949   26.5079 C   0  0  2  0  0  0  0  0  0  0  0  0
    8.1866  -14.8786   25.4675 N   0  0  0  0  0  0  0  0  0  0  0  0
    9.1433  -15.0396   27.6200 C   0  0  0  0  0  0  0  0  0  0  0  0
    8.8866  -16.2689   27.5900 O   0  0  0  0  0  0  0  0  0  0  0  0
    9.7649  -14.5359   28.7508 O   0  0  0  0  0  0  0  0  0  0  0  0
  1  2  1  0
  3  2  1  0
  4  5  1  0
  4  3  1  0
  5  1  1  0
  6 11  1  0
  5  6  1  1
  7  6  2  0
 10  9  1  6
  9  8  1  0
 10 12  1  0
 10 11  1  0
 12 18  1  0
 13 12  2  0
 15 16  1  0
 15 14  1  6
 17 19  1  0
 17 15  1  0
 17 18  1  6
 19 21  1  0
 20 19  2  0
M  END
$$$$
