QTC.pdb
     RDKit          3D

 23 22  0  0  1  0  0  0  0  0999 V2000
   25.5537  -31.6223   -8.4144 N   0  0  0  0  0  0  0  0  0  0  0  0
   25.6941  -31.8918   -7.0104 C   0  0  0  0  0  0  0  0  0  0  0  0
   24.8163  -31.5956   -6.1820 O   0  0  0  0  0  0  0  0  0  0  0  0
   26.9616  -32.5510   -6.6048 C   0  0  0  0  0  0  0  0  0  0  0  0
   26.6204  -33.6749   -5.6597 C   0  0  0  0  0  0  0  0  0  0  0  0
   27.9101  -34.2990   -5.1108 C   0  0  2  0  0  0  0  0  0  0  0  0
   28.5211  -35.1299   -6.1279 N   0  0  0  0  0  0  0  0  0  0  0  0
   27.6546  -35.1079   -3.9191 C   0  0  0  0  0  0  0  0  0  0  0  0
   26.9577  -36.1714   -4.0194 O   0  0  0  0  0  0  0  0  0  0  0  0
   29.9737  -37.0761   -2.1943 C   0  0  0  0  0  0  0  0  0  0  0  0
   29.3942  -36.1590   -1.1688 C   0  0  1  0  0  0  0  0  0  0  0  0
   30.1149  -34.9368   -1.1563 O   0  0  0  0  0  0  0  0  0  0  0  0
   27.9544  -35.7328   -1.4739 C   0  0  2  0  0  0  0  0  0  0  0  0
   28.1165  -34.8225   -2.6222 N   0  0  0  0  0  0  0  0  0  0  0  0
   27.2967  -35.0517   -0.3575 C   0  0  0  0  0  0  0  0  0  0  0  0
   27.3981  -33.7769   -0.2924 O   0  0  0  0  0  0  0  0  0  0  0  0
   26.5471  -35.6391    0.6783 N   0  0  0  0  0  0  0  0  0  0  0  0
   25.9751  -34.8820    1.7791 C   0  0  1  0  0  0  0  0  0  0  0  0
   24.5325  -35.3825    1.9234 C   0  0  0  0  0  0  0  0  0  0  0  0
   23.7971  -34.6911    3.4199 S   0  0  0  0  0  0  0  0  0  0  0  0
   26.7431  -35.1360    3.0077 C   0  0  0  0  0  0  0  0  0  0  0  0
   27.4502  -36.1555    3.1042 O   0  0  0  0  0  0  0  0  0  0  0  0
   26.6812  -34.2454    4.0545 O   0  0  0  0  0  0  0  0  0  0  0  0
  2  1  1  0
  2  4  1  0
  3  2  2  0
  5  4  1  0
  6  7  1  6
  6  5  1  0
  8  6  1  0
  9  8  2  0
 11 10  1  6
 11 13  1  0
 12 11  1  0
 13 14  1  6
 13 15  1  0
 14  8  1  0
 15 17  1  0
 16 15  2  0
 17 18  1  0
 18 19  1  1
 18 21  1  0
 20 19  1  0
 21 22  2  0
 21 23  1  0
M  END
$$$$
