QTC.pdb
     RDKit          3D

 23 22  0  0  1  0  0  0  0  0999 V2000
   29.2919  -28.3519  -16.9580 N   0  0  0  0  0  0  0  0  0  0  0  0
   30.3341  -29.3247  -17.1342 C   0  0  0  0  0  0  0  0  0  0  0  0
   31.4538  -29.0300  -17.5858 O   0  0  0  0  0  0  0  0  0  0  0  0
   29.9906  -30.7150  -16.7412 C   0  0  0  0  0  0  0  0  0  0  0  0
   28.5913  -30.7082  -16.1802 C   0  0  0  0  0  0  0  0  0  0  0  0
   28.2435  -32.1016  -15.6403 C   0  0  2  0  0  0  0  0  0  0  0  0
   29.0746  -33.0965  -16.2865 N   0  0  0  0  0  0  0  0  0  0  0  0
   26.8362  -32.4322  -15.8638 C   0  0  0  0  0  0  0  0  0  0  0  0
   26.4957  -33.0383  -16.9332 O   0  0  0  0  0  0  0  0  0  0  0  0
   24.8455  -34.8550  -14.4489 C   0  0  0  0  0  0  0  0  0  0  0  0
   24.0993  -33.5863  -14.1992 C   0  0  1  0  0  0  0  0  0  0  0  0
   24.5383  -33.0034  -12.9823 O   0  0  0  0  0  0  0  0  0  0  0  0
   24.3721  -32.5007  -15.2454 C   0  0  2  0  0  0  0  0  0  0  0  0
   25.7776  -32.1391  -14.9863 N   0  0  0  0  0  0  0  0  0  0  0  0
   23.5006  -31.3315  -15.1164 C   0  0  0  0  0  0  0  0  0  0  0  0
   24.0380  -30.2212  -14.7732 O   0  0  0  0  0  0  0  0  0  0  0  0
   22.1110  -31.2753  -15.3293 N   0  0  0  0  0  0  0  0  0  0  0  0
   21.3217  -30.0699  -15.1392 C   0  0  1  0  0  0  0  0  0  0  0  0
   21.8424  -29.0639  -16.1733 C   0  0  0  0  0  0  0  0  0  0  0  0
   20.8809  -27.5393  -16.0744 S   0  0  0  0  0  0  0  0  0  0  0  0
   19.8992  -30.3672  -15.3678 C   0  0  0  0  0  0  0  0  0  0  0  0
   19.0216  -29.7464  -14.7409 O   0  0  0  0  0  0  0  0  0  0  0  0
   19.5356  -31.3339  -16.2768 O   0  0  0  0  0  0  0  0  0  0  0  0
  2  1  1  0
  2  4  1  0
  3  2  2  0
  5  4  1  0
  6  7  1  6
  6  5  1  0
  8  6  1  0
  9  8  2  0
 11 10  1  6
 11 13  1  0
 12 11  1  0
 13 14  1  1
 13 15  1  0
 14  8  1  0
 15 17  1  0
 16 15  2  0
 17 18  1  0
 18 19  1  6
 18 21  1  0
 20 19  1  0
 21 22  2  0
 21 23  1  0
M  END
$$$$
