QTC.pdb
     RDKit          3D

 23 22  0  0  1  0  0  0  0  0999 V2000
   15.0762  -13.5607  -15.3351 N   0  0  0  0  0  0  0  0  0  0  0  0
   16.1579  -14.4963  -15.2007 C   0  0  0  0  0  0  0  0  0  0  0  0
   16.3825  -15.1109  -14.1442 O   0  0  0  0  0  0  0  0  0  0  0  0
   16.9988  -14.6866  -16.4100 C   0  0  0  0  0  0  0  0  0  0  0  0
   18.1160  -13.6754  -16.3644 C   0  0  0  0  0  0  0  0  0  0  0  0
   18.4327  -13.1899  -17.7849 C   0  0  2  0  0  0  0  0  0  0  0  0
   19.0924  -14.2456  -18.5255 N   0  0  0  0  0  0  0  0  0  0  0  0
   19.2891  -12.0041  -17.7725 C   0  0  0  0  0  0  0  0  0  0  0  0
   20.5565  -12.1443  -17.8040 O   0  0  0  0  0  0  0  0  0  0  0  0
   19.7098   -9.6620  -20.3509 C   0  0  0  0  0  0  0  0  0  0  0  0
   19.3140   -8.8627  -19.1537 C   0  0  1  0  0  0  0  0  0  0  0  0
   17.8992   -8.7969  -19.0674 O   0  0  0  0  0  0  0  0  0  0  0  0
   19.7332   -9.5022  -17.8260 C   0  0  2  0  0  0  0  0  0  0  0  0
   18.8414  -10.6721  -17.7276 N   0  0  0  0  0  0  0  0  0  0  0  0
   19.5631   -8.6185  -16.6714 C   0  0  0  0  0  0  0  0  0  0  0  0
   18.3766   -8.4434  -16.2230 O   0  0  0  0  0  0  0  0  0  0  0  0
   20.5675   -7.9212  -15.9752 N   0  0  0  0  0  0  0  0  0  0  0  0
   20.2881   -6.9378  -14.9423 C   0  0  1  0  0  0  0  0  0  0  0  0
   21.5903   -6.7891  -14.1457 C   0  0  0  0  0  0  0  0  0  0  0  0
   21.9012   -8.2974  -13.2039 S   0  0  0  0  0  0  0  0  0  0  0  0
   19.9056   -5.6605  -15.5640 C   0  0  0  0  0  0  0  0  0  0  0  0
   19.5162   -4.7127  -14.8579 O   0  0  0  0  0  0  0  0  0  0  0  0
   19.9779   -5.5111  -16.9297 O   0  0  0  0  0  0  0  0  0  0  0  0
  2  1  1  0
  2  4  1  0
  3  2  2  0
  5  4  1  0
  6  7  1  6
  6  5  1  0
  8  6  1  0
  9  8  2  0
 11 10  1  6
 11 13  1  0
 12 11  1  0
 13 14  1  1
 13 15  1  0
 14  8  1  0
 15 17  1  0
 16 15  2  0
 17 18  1  0
 18 19  1  6
 18 21  1  0
 20 19  1  0
 21 22  2  0
 21 23  1  0
M  END
$$$$
