QTC.pdb
     RDKit          3D

 23 22  0  0  1  0  0  0  0  0999 V2000
   27.8680  -21.1465  -16.6681 N   0  0  0  0  0  0  0  0  0  0  0  0
   28.8843  -21.6693  -17.5383 C   0  0  0  0  0  0  0  0  0  0  0  0
   29.5925  -20.9396  -18.2528 O   0  0  0  0  0  0  0  0  0  0  0  0
   29.0393  -23.1463  -17.5331 C   0  0  0  0  0  0  0  0  0  0  0  0
   28.1753  -23.7014  -16.4294 C   0  0  0  0  0  0  0  0  0  0  0  0
   26.7361  -23.8695  -16.9337 C   0  0  2  0  0  0  0  0  0  0  0  0
   25.9079  -22.8028  -16.4097 N   0  0  0  0  0  0  0  0  0  0  0  0
   26.1702  -25.1578  -16.5341 C   0  0  0  0  0  0  0  0  0  0  0  0
   25.6240  -25.2753  -15.3875 O   0  0  0  0  0  0  0  0  0  0  0  0
   23.1959  -26.7297  -17.4313 C   0  0  0  0  0  0  0  0  0  0  0  0
   24.2960  -27.6580  -17.8268 C   0  0  1  0  0  0  0  0  0  0  0  0
   24.8062  -27.2835  -19.0968 O   0  0  0  0  0  0  0  0  0  0  0  0
   25.5177  -27.5860  -16.9049 C   0  0  2  0  0  0  0  0  0  0  0  0
   26.1661  -26.3270  -17.3148 N   0  0  0  0  0  0  0  0  0  0  0  0
   26.4334  -28.7178  -17.0574 C   0  0  0  0  0  0  0  0  0  0  0  0
   27.6658  -28.4615  -17.2921 O   0  0  0  0  0  0  0  0  0  0  0  0
   26.1193  -30.0868  -16.9746 N   0  0  0  0  0  0  0  0  0  0  0  0
   27.0828  -31.1445  -17.2298 C   0  0  1  0  0  0  0  0  0  0  0  0
   27.6915  -31.4913  -15.8653 C   0  0  0  0  0  0  0  0  0  0  0  0
   28.7509  -32.9441  -16.0249 S   0  0  0  0  0  0  0  0  0  0  0  0
   26.3980  -32.3103  -17.8094 C   0  0  0  0  0  0  0  0  0  0  0  0
   25.1676  -32.4426  -17.6775 O   0  0  0  0  0  0  0  0  0  0  0  0
   27.1175  -33.2582  -18.4996 O   0  0  0  0  0  0  0  0  0  0  0  0
  2  1  1  0
  2  4  1  0
  3  2  2  0
  5  4  1  0
  6  7  1  1
  6  5  1  0
  8  6  1  0
  9  8  2  0
 11 10  1  1
 11 13  1  0
 12 11  1  0
 13 14  1  6
 13 15  1  0
 14  8  1  0
 15 17  1  0
 16 15  2  0
 17 18  1  0
 18 19  1  1
 18 21  1  0
 20 19  1  0
 21 22  2  0
 21 23  1  0
M  END
$$$$
