QTC.pdb
     RDKit          3D

 23 22  0  0  1  0  0  0  0  0999 V2000
   16.0751  -11.4955  -10.7361 N   0  0  0  0  0  0  0  0  0  0  0  0
   14.6580  -11.6779  -10.8843 C   0  0  0  0  0  0  0  0  0  0  0  0
   13.9725  -12.2927  -10.0497 O   0  0  0  0  0  0  0  0  0  0  0  0
   14.0562  -11.0829  -12.1046 C   0  0  0  0  0  0  0  0  0  0  0  0
   15.1572  -10.4161  -12.8894 C   0  0  0  0  0  0  0  0  0  0  0  0
   14.5820   -9.8121  -14.1772 C   0  0  2  0  0  0  0  0  0  0  0  0
   14.0194  -10.8632  -15.0000 N   0  0  0  0  0  0  0  0  0  0  0  0
   15.6037   -9.0977  -14.9424 C   0  0  0  0  0  0  0  0  0  0  0  0
   16.1702   -9.6770  -15.9275 O   0  0  0  0  0  0  0  0  0  0  0  0
   15.2985   -6.0288  -16.9370 C   0  0  0  0  0  0  0  0  0  0  0  0
   16.3754   -5.8102  -15.9265 C   0  0  1  0  0  0  0  0  0  0  0  0
   15.8110   -5.3092  -14.7249 O   0  0  0  0  0  0  0  0  0  0  0  0
   17.0770   -7.1011  -15.4920 C   0  0  2  0  0  0  0  0  0  0  0  0
   16.0433   -7.7855  -14.6942 N   0  0  0  0  0  0  0  0  0  0  0  0
   18.2835   -6.8717  -14.6952 C   0  0  0  0  0  0  0  0  0  0  0  0
   18.1349   -6.5722  -13.4592 O   0  0  0  0  0  0  0  0  0  0  0  0
   19.6197   -6.9426  -15.1302 N   0  0  0  0  0  0  0  0  0  0  0  0
   20.7548   -6.6267  -14.2793 C   0  0  1  0  0  0  0  0  0  0  0  0
   21.8881   -7.5540  -14.7359 C   0  0  0  0  0  0  0  0  0  0  0  0
   23.3863   -7.1888  -13.7974 S   0  0  0  0  0  0  0  0  0  0  0  0
   21.1296   -5.2152  -14.4559 C   0  0  0  0  0  0  0  0  0  0  0  0
   21.7182   -4.6054  -13.5447 O   0  0  0  0  0  0  0  0  0  0  0  0
   20.8296   -4.5654  -15.6308 O   0  0  0  0  0  0  0  0  0  0  0  0
  2  1  1  0
  2  4  1  0
  3  2  2  0
  5  4  1  0
  6  7  1  6
  6  5  1  0
  8  6  1  0
  9  8  2  0
 11 10  1  6
 11 13  1  0
 12 11  1  0
 13 14  1  1
 13 15  1  0
 14  8  1  0
 15 17  1  0
 16 15  2  0
 17 18  1  0
 18 19  1  6
 18 21  1  0
 20 19  1  0
 21 22  2  0
 21 23  1  0
M  END
$$$$
