QTC.pdb
     RDKit          3D

 23 22  0  0  1  0  0  0  0  0999 V2000
   22.6740  -20.1659   -9.1460 N   0  0  0  0  0  0  0  0  0  0  0  0
   21.9975  -21.2143   -9.8578 C   0  0  0  0  0  0  0  0  0  0  0  0
   21.1194  -21.9198   -9.3327 O   0  0  0  0  0  0  0  0  0  0  0  0
   22.4138  -21.4064  -11.2703 C   0  0  0  0  0  0  0  0  0  0  0  0
   23.4539  -20.3645  -11.5952 C   0  0  0  0  0  0  0  0  0  0  0  0
   24.6779  -21.0361  -12.2314 C   0  0  2  0  0  0  0  0  0  0  0  0
   25.6355  -21.3816  -11.2009 N   0  0  0  0  0  0  0  0  0  0  0  0
   25.3226  -20.1652  -13.2141 C   0  0  0  0  0  0  0  0  0  0  0  0
   25.8351  -19.0608  -12.8339 O   0  0  0  0  0  0  0  0  0  0  0  0
   28.2838  -20.4387  -15.0360 C   0  0  0  0  0  0  0  0  0  0  0  0
   27.2440  -20.2130  -16.0831 C   0  0  1  0  0  0  0  0  0  0  0  0
   26.7374  -21.4599  -16.5326 O   0  0  0  0  0  0  0  0  0  0  0  0
   26.0035  -19.4785  -15.5644 C   0  0  2  0  0  0  0  0  0  0  0  0
   25.4403  -20.4305  -14.5897 N   0  0  0  0  0  0  0  0  0  0  0  0
   25.0285  -19.1655  -16.6106 C   0  0  0  0  0  0  0  0  0  0  0  0
   24.0254  -19.9497  -16.7460 O   0  0  0  0  0  0  0  0  0  0  0  0
   25.0575  -18.0818  -17.5076 N   0  0  0  0  0  0  0  0  0  0  0  0
   24.0674  -17.8830  -18.5526 C   0  0  1  0  0  0  0  0  0  0  0  0
   23.0753  -16.8542  -17.9960 C   0  0  0  0  0  0  0  0  0  0  0  0
   21.4181  -17.2119  -18.6160 S   0  0  0  0  0  0  0  0  0  0  0  0
   24.7233  -17.3743  -19.7672 C   0  0  0  0  0  0  0  0  0  0  0  0
   25.8952  -16.9589  -19.7181 O   0  0  0  0  0  0  0  0  0  0  0  0
   24.0411  -17.3569  -20.9618 O   0  0  0  0  0  0  0  0  0  0  0  0
  2  1  1  0
  2  4  1  0
  3  2  2  0
  5  4  1  0
  6  7  1  1
  6  5  1  0
  8  6  1  0
  9  8  2  0
 11 10  1  1
 11 13  1  0
 12 11  1  0
 13 14  1  1
 13 15  1  0
 14  8  1  0
 15 17  1  0
 16 15  2  0
 17 18  1  0
 18 19  1  1
 18 21  1  0
 20 19  1  0
 21 22  2  0
 21 23  1  0
M  END
$$$$
