QTC.pdb
     RDKit          3D

 23 22  0  0  1  0  0  0  0  0999 V2000
   20.1872  -22.6669  -13.8434 N   0  0  0  0  0  0  0  0  0  0  0  0
   19.2437  -22.8100  -12.7697 C   0  0  0  0  0  0  0  0  0  0  0  0
   18.4127  -23.7331  -12.7290 O   0  0  0  0  0  0  0  0  0  0  0  0
   19.3215  -21.7802  -11.7025 C   0  0  0  0  0  0  0  0  0  0  0  0
   20.4816  -20.8703  -12.0168 C   0  0  0  0  0  0  0  0  0  0  0  0
   21.7489  -21.3898  -11.3253 C   0  0  2  0  0  0  0  0  0  0  0  0
   21.6116  -21.2541   -9.8896 N   0  0  0  0  0  0  0  0  0  0  0  0
   22.9406  -20.6643  -11.7648 C   0  0  0  0  0  0  0  0  0  0  0  0
   23.2060  -19.5254  -11.2556 O   0  0  0  0  0  0  0  0  0  0  0  0
   26.3904  -21.4740  -11.3483 C   0  0  0  0  0  0  0  0  0  0  0  0
   26.2057  -21.2689  -12.8154 C   0  0  1  0  0  0  0  0  0  0  0  0
   25.8523  -22.4976  -13.4307 O   0  0  0  0  0  0  0  0  0  0  0  0
   25.0394  -20.3370  -13.1602 C   0  0  2  0  0  0  0  0  0  0  0  0
   23.8608  -21.1109  -12.7293 N   0  0  0  0  0  0  0  0  0  0  0  0
   24.9547  -20.0076  -14.5841 C   0  0  0  0  0  0  0  0  0  0  0  0
   24.1416  -20.6837  -15.3061 O   0  0  0  0  0  0  0  0  0  0  0  0
   25.6735  -19.0144  -15.2744 N   0  0  0  0  0  0  0  0  0  0  0  0
   25.5279  -18.7675  -16.6992 C   0  0  1  0  0  0  0  0  0  0  0  0
   25.4721  -17.2425  -16.8539 C   0  0  0  0  0  0  0  0  0  0  0  0
   25.3415  -16.8144  -18.6027 S   0  0  0  0  0  0  0  0  0  0  0  0
   26.6827  -19.3253  -17.4198 C   0  0  0  0  0  0  0  0  0  0  0  0
   27.7446  -19.5590  -16.8146 O   0  0  0  0  0  0  0  0  0  0  0  0
   26.5909  -19.5900  -18.7668 O   0  0  0  0  0  0  0  0  0  0  0  0
  2  1  1  0
  2  4  1  0
  3  2  2  0
  5  4  1  0
  6  7  1  1
  6  5  1  0
  8  6  1  0
  9  8  2  0
 11 10  1  1
 11 13  1  0
 12 11  1  0
 13 14  1  6
 13 15  1  0
 14  8  1  0
 15 17  1  0
 16 15  2  0
 17 18  1  0
 18 19  1  1
 18 21  1  0
 20 19  1  0
 21 22  2  0
 21 23  1  0
M  END
$$$$
