QTC.pdb
     RDKit          3D

 23 22  0  0  1  0  0  0  0  0999 V2000
   15.6901  -10.9422  -13.4978 N   0  0  0  0  0  0  0  0  0  0  0  0
   15.0968  -11.8180  -14.4697 C   0  0  0  0  0  0  0  0  0  0  0  0
   13.9292  -12.2320  -14.3715 O   0  0  0  0  0  0  0  0  0  0  0  0
   15.9696  -12.2022  -15.6082 C   0  0  0  0  0  0  0  0  0  0  0  0
   17.2615  -11.4351  -15.4843 C   0  0  0  0  0  0  0  0  0  0  0  0
   18.1815  -11.7771  -16.6636 C   0  0  2  0  0  0  0  0  0  0  0  0
   18.5456  -13.1780  -16.6079 N   0  0  0  0  0  0  0  0  0  0  0  0
   19.3973  -10.9638  -16.6543 C   0  0  0  0  0  0  0  0  0  0  0  0
   20.4677  -11.4402  -16.1501 O   0  0  0  0  0  0  0  0  0  0  0  0
   21.1564   -9.5151  -19.5917 C   0  0  0  0  0  0  0  0  0  0  0  0
   20.8715   -8.4138  -18.6249 C   0  0  1  0  0  0  0  0  0  0  0  0
   19.5931   -7.8594  -18.8925 O   0  0  0  0  0  0  0  0  0  0  0  0
   20.7690   -8.8878  -17.1715 C   0  0  2  0  0  0  0  0  0  0  0  0
   19.5124   -9.6587  -17.1642 N   0  0  0  0  0  0  0  0  0  0  0  0
   20.7145   -7.7928  -16.2014 C   0  0  0  0  0  0  0  0  0  0  0  0
   19.5736   -7.2629  -15.9624 O   0  0  0  0  0  0  0  0  0  0  0  0
   21.7874   -7.2375  -15.4801 N   0  0  0  0  0  0  0  0  0  0  0  0
   21.6449   -6.1030  -14.5830 C   0  0  1  0  0  0  0  0  0  0  0  0
   22.3667   -6.5017  -13.2897 C   0  0  0  0  0  0  0  0  0  0  0  0
   22.4695   -5.0756  -12.1878 S   0  0  0  0  0  0  0  0  0  0  0  0
   22.2670   -4.9136  -15.1848 C   0  0  0  0  0  0  0  0  0  0  0  0
   23.2481   -5.0352  -15.9406 O   0  0  0  0  0  0  0  0  0  0  0  0
   21.7645   -3.6620  -14.9127 O   0  0  0  0  0  0  0  0  0  0  0  0
  2  1  1  0
  2  4  1  0
  3  2  2  0
  5  4  1  0
  6  7  1  1
  6  5  1  0
  8  6  1  0
  9  8  2  0
 11 10  1  6
 11 13  1  0
 12 11  1  0
 13 14  1  6
 13 15  1  0
 14  8  1  0
 15 17  1  0
 16 15  2  0
 17 18  1  0
 18 19  1  1
 18 21  1  0
 20 19  1  0
 21 22  2  0
 21 23  1  0
M  END
$$$$
