QTC.pdb
     RDKit          3D

 23 22  0  0  1  0  0  0  0  0999 V2000
   19.1780  -10.9916  -22.0388 N   0  0  0  0  0  0  0  0  0  0  0  0
   20.4326  -10.6906  -22.6705 C   0  0  0  0  0  0  0  0  0  0  0  0
   20.6840  -11.0127  -23.8442 O   0  0  0  0  0  0  0  0  0  0  0  0
   21.4191   -9.9653  -21.8302 C   0  0  0  0  0  0  0  0  0  0  0  0
   20.7964   -9.7321  -20.4772 C   0  0  0  0  0  0  0  0  0  0  0  0
   21.6251  -10.4398  -19.3972 C   0  0  2  0  0  0  0  0  0  0  0  0
   21.4393  -11.8726  -19.5005 N   0  0  0  0  0  0  0  0  0  0  0  0
   21.2484  -10.0020  -18.0533 C   0  0  0  0  0  0  0  0  0  0  0  0
   20.1024  -10.3151  -17.5889 O   0  0  0  0  0  0  0  0  0  0  0  0
   22.7266   -9.3666  -13.5403 C   0  0  0  0  0  0  0  0  0  0  0  0
   22.6342   -9.7797  -14.9719 C   0  0  1  0  0  0  0  0  0  0  0  0
   22.0751  -11.0808  -15.0605 O   0  0  0  0  0  0  0  0  0  0  0  0
   21.6783   -8.9126  -15.7977 C   0  0  2  0  0  0  0  0  0  0  0  0
   22.0514   -9.2410  -17.1857 N   0  0  0  0  0  0  0  0  0  0  0  0
   21.8229   -7.4780  -15.5445 C   0  0  0  0  0  0  0  0  0  0  0  0
   22.8966   -6.9064  -15.9441 O   0  0  0  0  0  0  0  0  0  0  0  0
   20.9043   -6.6282  -14.9013 N   0  0  0  0  0  0  0  0  0  0  0  0
   21.1906   -5.2404  -14.5785 C   0  0  1  0  0  0  0  0  0  0  0  0
   19.8254   -4.5563  -14.4343 C   0  0  0  0  0  0  0  0  0  0  0  0
   20.0487   -2.8865  -13.7861 S   0  0  0  0  0  0  0  0  0  0  0  0
   21.9473   -5.1700  -13.3189 C   0  0  0  0  0  0  0  0  0  0  0  0
   22.8944   -4.3714  -13.2017 O   0  0  0  0  0  0  0  0  0  0  0  0
   21.6089   -5.9885  -12.2662 O   0  0  0  0  0  0  0  0  0  0  0  0
  2  1  1  0
  2  4  1  0
  3  2  2  0
  5  4  1  0
  6  7  1  1
  6  5  1  0
  8  6  1  0
  9  8  2  0
 11 10  1  1
 11 13  1  0
 12 11  1  0
 13 14  1  6
 13 15  1  0
 14  8  1  0
 15 17  1  0
 16 15  2  0
 17 18  1  0
 18 19  1  1
 18 21  1  0
 20 19  1  0
 21 22  2  0
 21 23  1  0
M  END
$$$$
