QTC.pdb
     RDKit          3D

 23 22  0  0  1  0  0  0  0  0999 V2000
   17.0588  -14.7219  -15.4802 N   0  0  0  0  0  0  0  0  0  0  0  0
   16.5154  -13.4582  -15.8941 C   0  0  0  0  0  0  0  0  0  0  0  0
   15.3469  -13.1184  -15.6417 O   0  0  0  0  0  0  0  0  0  0  0  0
   17.4411  -12.5748  -16.6478 C   0  0  0  0  0  0  0  0  0  0  0  0
   18.7070  -12.4307  -15.8419 C   0  0  0  0  0  0  0  0  0  0  0  0
   19.8693  -12.0486  -16.7678 C   0  0  2  0  0  0  0  0  0  0  0  0
   20.5573  -13.2455  -17.2063 N   0  0  0  0  0  0  0  0  0  0  0  0
   20.8233  -11.1630  -16.1005 C   0  0  0  0  0  0  0  0  0  0  0  0
   21.9057  -11.6463  -15.6297 O   0  0  0  0  0  0  0  0  0  0  0  0
   23.4179  -10.5144  -16.2988 C   0  0  0  0  0  0  0  0  0  0  0  0
   22.8845   -9.1204  -16.3257 C   0  0  1  0  0  0  0  0  0  0  0  0
   22.3375   -8.8408  -17.6047 O   0  0  0  0  0  0  0  0  0  0  0  0
   21.7100   -8.8968  -15.3675 C   0  0  2  0  0  0  0  0  0  0  0  0
   20.6639   -9.7782  -15.9172 N   0  0  0  0  0  0  0  0  0  0  0  0
   21.2497   -7.5079  -15.3201 C   0  0  0  0  0  0  0  0  0  0  0  0
   20.1177   -7.2355  -15.8529 O   0  0  0  0  0  0  0  0  0  0  0  0
   21.9134   -6.4081  -14.7461 N   0  0  0  0  0  0  0  0  0  0  0  0
   21.3128   -5.0909  -14.6172 C   0  0  1  0  0  0  0  0  0  0  0  0
   20.1371   -5.2625  -13.6471 C   0  0  0  0  0  0  0  0  0  0  0  0
   19.4301   -3.6477  -13.2588 S   0  0  0  0  0  0  0  0  0  0  0  0
   22.3024   -4.1451  -14.0787 C   0  0  0  0  0  0  0  0  0  0  0  0
   23.1250   -4.5195  -13.2233 O   0  0  0  0  0  0  0  0  0  0  0  0
   22.3205   -2.8422  -14.5204 O   0  0  0  0  0  0  0  0  0  0  0  0
  2  1  1  0
  2  4  1  0
  3  2  2  0
  5  4  1  0
  6  7  1  1
  6  5  1  0
  8  6  1  0
  9  8  2  0
 11 10  1  6
 11 13  1  0
 12 11  1  0
 13 14  1  6
 13 15  1  0
 14  8  1  0
 15 17  1  0
 16 15  2  0
 17 18  1  0
 18 19  1  1
 18 21  1  0
 20 19  1  0
 21 22  2  0
 21 23  1  0
M  END
$$$$
