QTC.pdb
     RDKit          3D

 23 22  0  0  1  0  0  0  0  0999 V2000
   18.4264  -12.6913  -19.7585 N   0  0  0  0  0  0  0  0  0  0  0  0
   19.7743  -13.0895  -20.0555 C   0  0  0  0  0  0  0  0  0  0  0  0
   20.0392  -14.0903  -20.7431 O   0  0  0  0  0  0  0  0  0  0  0  0
   20.8409  -12.2266  -19.4870 C   0  0  0  0  0  0  0  0  0  0  0  0
   20.1780  -11.0792  -18.7681 C   0  0  0  0  0  0  0  0  0  0  0  0
   20.9225  -10.7901  -17.4580 C   0  0  2  0  0  0  0  0  0  0  0  0
   20.8221  -11.9355  -16.5769 N   0  0  0  0  0  0  0  0  0  0  0  0
   20.3834   -9.6123  -16.7785 C   0  0  0  0  0  0  0  0  0  0  0  0
   19.1543   -9.5911  -16.4383 O   0  0  0  0  0  0  0  0  0  0  0  0
   19.3441   -9.1994  -14.3976 C   0  0  0  0  0  0  0  0  0  0  0  0
   20.2869   -8.0477  -14.2830 C   0  0  1  0  0  0  0  0  0  0  0  0
   21.5594   -8.5100  -13.8584 O   0  0  0  0  0  0  0  0  0  0  0  0
   20.5747   -7.3580  -15.6206 C   0  0  2  0  0  0  0  0  0  0  0  0
   21.1095   -8.4545  -16.4483 N   0  0  0  0  0  0  0  0  0  0  0  0
   21.5409   -6.2630  -15.5184 C   0  0  0  0  0  0  0  0  0  0  0  0
   21.2034   -5.2300  -14.8412 O   0  0  0  0  0  0  0  0  0  0  0  0
   22.8272   -6.2042  -16.0855 N   0  0  0  0  0  0  0  0  0  0  0  0
   23.6606   -5.0139  -16.0541 C   0  0  1  0  0  0  0  0  0  0  0  0
   25.0158   -5.4391  -16.6331 C   0  0  0  0  0  0  0  0  0  0  0  0
   26.1061   -4.0046  -16.7423 S   0  0  0  0  0  0  0  0  0  0  0  0
   23.0483   -3.9579  -16.8751 C   0  0  0  0  0  0  0  0  0  0  0  0
   23.1872   -2.7618  -16.5612 O   0  0  0  0  0  0  0  0  0  0  0  0
   22.3197   -4.2912  -17.9935 O   0  0  0  0  0  0  0  0  0  0  0  0
  2  1  1  0
  2  4  1  0
  3  2  2  0
  5  4  1  0
  6  7  1  1
  6  5  1  0
  8  6  1  0
  9  8  2  0
 11 10  1  6
 11 13  1  0
 12 11  1  0
 13 14  1  6
 13 15  1  0
 14  8  1  0
 15 17  1  0
 16 15  2  0
 17 18  1  0
 18 19  1  6
 18 21  1  0
 20 19  1  0
 21 22  2  0
 21 23  1  0
M  END
$$$$
