QTC.pdb
     RDKit          3D

 23 22  0  0  1  0  0  0  0  0999 V2000
   16.5344  -11.8810  -12.6255 N   0  0  0  0  0  0  0  0  0  0  0  0
   15.7588  -12.9164  -12.0009 C   0  0  0  0  0  0  0  0  0  0  0  0
   16.0806  -14.1156  -12.0524 O   0  0  0  0  0  0  0  0  0  0  0  0
   14.5394  -12.4641  -11.2841 C   0  0  0  0  0  0  0  0  0  0  0  0
   14.4381  -10.9676  -11.4355 C   0  0  0  0  0  0  0  0  0  0  0  0
   14.1583  -10.3270  -10.0697 C   0  0  2  0  0  0  0  0  0  0  0  0
   12.8362  -10.7059   -9.6149 N   0  0  0  0  0  0  0  0  0  0  0  0
   14.2465   -8.8681  -10.1287 C   0  0  0  0  0  0  0  0  0  0  0  0
   13.2348   -8.1927  -10.5126 O   0  0  0  0  0  0  0  0  0  0  0  0
   14.8263   -6.2652   -7.5469 C   0  0  0  0  0  0  0  0  0  0  0  0
   15.8970   -6.1549   -8.5813 C   0  0  1  0  0  0  0  0  0  0  0  0
   16.9779   -7.0106   -8.2459 O   0  0  0  0  0  0  0  0  0  0  0  0
   15.4605   -6.6411   -9.9671 C   0  0  2  0  0  0  0  0  0  0  0  0
   15.3767   -8.1026   -9.7922 N   0  0  0  0  0  0  0  0  0  0  0  0
   16.4039   -6.2967  -11.0322 C   0  0  0  0  0  0  0  0  0  0  0  0
   17.1845   -7.2175  -11.4592 O   0  0  0  0  0  0  0  0  0  0  0  0
   16.5622   -5.0481  -11.6611 N   0  0  0  0  0  0  0  0  0  0  0  0
   17.5242   -4.8046  -12.7229 C   0  0  1  0  0  0  0  0  0  0  0  0
   17.0437   -5.6362  -13.9189 C   0  0  0  0  0  0  0  0  0  0  0  0
   17.9993   -5.1976  -15.3862 S   0  0  0  0  0  0  0  0  0  0  0  0
   17.5440   -3.3718  -13.0554 C   0  0  0  0  0  0  0  0  0  0  0  0
   18.5205   -2.8809  -13.6504 O   0  0  0  0  0  0  0  0  0  0  0  0
   16.4811   -2.5701  -12.7086 O   0  0  0  0  0  0  0  0  0  0  0  0
  2  1  1  0
  2  4  1  0
  3  2  2  0
  5  4  1  0
  6  7  1  6
  6  5  1  0
  8  6  1  0
  9  8  2  0
 11 10  1  1
 11 13  1  0
 12 11  1  0
 13 14  1  1
 13 15  1  0
 14  8  1  0
 15 17  1  0
 16 15  2  0
 17 18  1  0
 18 19  1  6
 18 21  1  0
 20 19  1  0
 21 22  2  0
 21 23  1  0
M  END
$$$$
