QTC.pdb
     RDKit          3D

 23 22  0  0  1  0  0  0  0  0999 V2000
   13.0744  -12.9390  -13.4204 N   0  0  0  0  0  0  0  0  0  0  0  0
   13.3855  -12.9036  -14.8223 C   0  0  0  0  0  0  0  0  0  0  0  0
   12.6635  -13.4386  -15.6808 O   0  0  0  0  0  0  0  0  0  0  0  0
   14.6319  -12.1835  -15.1875 C   0  0  0  0  0  0  0  0  0  0  0  0
   15.1997  -11.5696  -13.9331 C   0  0  0  0  0  0  0  0  0  0  0  0
   16.4939  -10.8158  -14.2659 C   0  0  2  0  0  0  0  0  0  0  0  0
   17.5135  -11.7570  -14.6816 N   0  0  0  0  0  0  0  0  0  0  0  0
   16.9844  -10.0513  -13.1193 C   0  0  0  0  0  0  0  0  0  0  0  0
   17.6243  -10.6501  -12.1925 O   0  0  0  0  0  0  0  0  0  0  0  0
   19.5761   -7.7670  -13.0210 C   0  0  0  0  0  0  0  0  0  0  0  0
   18.4215   -7.0199  -12.4401 C   0  0  1  0  0  0  0  0  0  0  0  0
   17.7024   -6.3681  -13.4751 O   0  0  0  0  0  0  0  0  0  0  0  0
   17.3762   -7.9262  -11.7816 C   0  0  2  0  0  0  0  0  0  0  0  0
   16.8166   -8.6690  -12.9255 N   0  0  0  0  0  0  0  0  0  0  0  0
   16.3268   -7.1908  -11.0738 C   0  0  0  0  0  0  0  0  0  0  0  0
   15.3597   -6.7161  -11.7658 O   0  0  0  0  0  0  0  0  0  0  0  0
   16.2468   -6.9357   -9.6924 N   0  0  0  0  0  0  0  0  0  0  0  0
   15.1610   -6.1892   -9.0793 C   0  0  1  0  0  0  0  0  0  0  0  0
   15.0133   -6.7571   -7.6622 C   0  0  0  0  0  0  0  0  0  0  0  0
   14.5620   -8.5026   -7.7519 S   0  0  0  0  0  0  0  0  0  0  0  0
   15.5039   -4.7592   -9.0374 C   0  0  0  0  0  0  0  0  0  0  0  0
   16.6670   -4.3874   -9.2770 O   0  0  0  0  0  0  0  0  0  0  0  0
   14.5376   -3.8285   -8.7328 O   0  0  0  0  0  0  0  0  0  0  0  0
  2  1  1  0
  2  4  1  0
  3  2  2  0
  5  4  1  0
  6  7  1  1
  6  5  1  0
  8  6  1  0
  9  8  2  0
 11 10  1  6
 11 13  1  0
 12 11  1  0
 13 14  1  6
 13 15  1  0
 14  8  1  0
 15 17  1  0
 16 15  2  0
 17 18  1  0
 18 19  1  1
 18 21  1  0
 20 19  1  0
 21 22  2  0
 21 23  1  0
M  END
$$$$
