TQH.pdb
     RDKit          3D

 27 27  0  0  1  0  0  0  0  0999 V2000
    7.6638  -11.8089   19.0796 C   0  0  0  0  0  0  0  0  0  0  0  0
    8.5815  -12.8141   19.7694 C   0  0  1  0  0  0  0  0  0  0  0  0
    7.7688  -13.6228   20.5496 O   0  0  0  0  0  0  0  0  0  0  0  0
    9.2035  -13.6627   18.7003 C   0  0  2  0  0  0  0  0  0  0  0  0
    8.1575  -14.2559   17.8965 N   0  0  0  0  0  0  0  0  0  0  0  0
   10.1042  -14.6938   19.1901 C   0  0  0  0  0  0  0  0  0  0  0  0
    9.6368  -15.8740   19.3411 O   0  0  0  0  0  0  0  0  0  0  0  0
   15.5996  -14.4054   18.2962 N   0  0  0  0  0  0  0  0  0  0  0  0
   14.7589  -15.1515   17.4423 C   0  0  0  0  0  0  0  0  0  0  0  0
   15.0245  -15.1803   16.2176 O   0  0  0  0  0  0  0  0  0  0  0  0
   13.5758  -15.8837   18.0364 C   0  0  0  0  0  0  0  0  0  0  0  0
   13.5785  -15.5270   19.4961 C   0  0  0  0  0  0  0  0  0  0  0  0
   12.2230  -15.5829   20.1608 C   0  0  2  0  0  0  0  0  0  0  0  0
   11.4666  -14.4925   19.5150 N   0  0  0  0  0  0  0  0  0  0  0  0
   12.2329  -15.2669   21.5953 C   0  0  0  0  0  0  0  0  0  0  0  0
   12.5644  -14.1027   22.0215 O   0  0  0  0  0  0  0  0  0  0  0  0
   11.8862  -16.1794   22.6310 N   0  0  0  0  0  0  0  0  0  0  0  0
   10.7989  -15.9100   23.5895 C   0  0  1  0  0  0  0  0  0  0  0  0
    9.5658  -15.4779   22.8730 C   0  0  0  0  0  0  0  0  0  0  0  0
    8.5042  -15.1125   23.8236 C   0  0  0  0  0  0  0  0  0  0  0  0
    8.5384  -15.0808   25.2049 C   0  0  0  0  0  0  0  0  0  0  0  0
    7.3522  -14.7160   25.7135 N   0  0  0  0  0  0  0  0  0  0  0  0
    6.5533  -14.5132   24.6391 C   0  0  0  0  0  0  0  0  0  0  0  0
    7.2282  -14.7462   23.5101 N   0  0  0  0  0  0  0  0  0  0  0  0
   10.5729  -17.0537   24.4659 C   0  0  0  0  0  0  0  0  0  0  0  0
   11.5965  -17.6622   25.1784 O   0  0  0  0  0  0  0  0  0  0  0  0
    9.4278  -17.5320   24.6060 O   0  0  0  0  0  0  0  0  0  0  0  0
  2  1  1  6
  2  4  1  0
  3  2  1  0
  4  6  1  0
  4  5  1  1
  6  7  2  0
  6 14  1  0
  8  9  1  0
  9 10  2  0
 11  9  1  0
 12 11  1  0
 13 15  1  0
 13 12  1  6
 14 13  1  0
 15 16  2  0
 17 18  1  0
 17 15  1  0
 18 19  1  6
 20 19  1  0
 21 20  2  0
 22 21  1  0
 23 22  1  0
 23 24  2  0
 24 20  1  0
 25 18  1  0
 26 25  1  0
 27 25  2  0
M  END
$$$$
