TQH.pdb
     RDKit          3D

 27 27  0  0  1  0  0  0  0  0999 V2000
   10.1071  -13.9826   17.4019 C   0  0  0  0  0  0  0  0  0  0  0  0
    9.7611  -14.4676   18.8067 C   0  0  1  0  0  0  0  0  0  0  0  0
   10.5087  -13.6997   19.6868 O   0  0  0  0  0  0  0  0  0  0  0  0
    8.3091  -14.1718   19.0397 C   0  0  2  0  0  0  0  0  0  0  0  0
    8.0396  -12.7988   18.6732 N   0  0  0  0  0  0  0  0  0  0  0  0
    7.8464  -14.4284   20.3942 C   0  0  0  0  0  0  0  0  0  0  0  0
    7.0844  -13.5597   20.9408 O   0  0  0  0  0  0  0  0  0  0  0  0
    4.8162  -18.6937   22.5297 N   0  0  0  0  0  0  0  0  0  0  0  0
    5.9889  -19.0565   21.8328 C   0  0  0  0  0  0  0  0  0  0  0  0
    6.0710  -20.2159   21.3632 O   0  0  0  0  0  0  0  0  0  0  0  0
    7.0956  -18.0362   21.6807 C   0  0  0  0  0  0  0  0  0  0  0  0
    6.6101  -16.8112   22.4030 C   0  0  0  0  0  0  0  0  0  0  0  0
    7.6325  -15.7057   22.5260 C   0  0  2  0  0  0  0  0  0  0  0  0
    8.1753  -15.5718   21.1601 N   0  0  0  0  0  0  0  0  0  0  0  0
    8.7814  -16.0292   23.3822 C   0  0  0  0  0  0  0  0  0  0  0  0
    9.4524  -17.1112   23.2208 O   0  0  0  0  0  0  0  0  0  0  0  0
    9.2616  -15.2095   24.4419 N   0  0  0  0  0  0  0  0  0  0  0  0
    9.1320  -15.5947   25.8591 C   0  0  1  0  0  0  0  0  0  0  0  0
    7.7245  -15.4283   26.3192 C   0  0  0  0  0  0  0  0  0  0  0  0
    7.3648  -14.0048   26.4123 C   0  0  0  0  0  0  0  0  0  0  0  0
    8.1450  -12.8875   26.1819 C   0  0  0  0  0  0  0  0  0  0  0  0
    7.4546  -11.7581   26.3976 N   0  0  0  0  0  0  0  0  0  0  0  0
    6.2179  -12.1646   26.7705 C   0  0  0  0  0  0  0  0  0  0  0  0
    6.1534  -13.4988   26.7826 N   0  0  0  0  0  0  0  0  0  0  0  0
    9.6476  -16.9394   26.0895 C   0  0  0  0  0  0  0  0  0  0  0  0
    9.4244  -17.9862   25.2062 O   0  0  0  0  0  0  0  0  0  0  0  0
   10.3201  -17.1974   27.1098 O   0  0  0  0  0  0  0  0  0  0  0  0
  2  1  1  6
  2  4  1  0
  3  2  1  0
  4  6  1  0
  4  5  1  1
  6  7  2  0
  6 14  1  0
  8  9  1  0
  9 10  2  0
 11  9  1  0
 12 11  1  0
 13 15  1  0
 13 12  1  6
 14 13  1  0
 15 16  2  0
 17 18  1  0
 17 15  1  0
 18 19  1  6
 20 19  1  0
 21 20  2  0
 22 21  1  0
 23 22  1  0
 23 24  2  0
 24 20  1  0
 25 18  1  0
 26 25  1  0
 27 25  2  0
M  END
$$$$
