TQH.pdb
     RDKit          3D

 27 27  0  0  1  0  0  0  0  0999 V2000
    6.7399  -20.9337   19.6450 C   0  0  0  0  0  0  0  0  0  0  0  0
    7.4766  -20.0486   20.6462 C   0  0  1  0  0  0  0  0  0  0  0  0
    8.3503  -20.8742   21.3378 O   0  0  0  0  0  0  0  0  0  0  0  0
    8.2854  -19.0587   19.8614 C   0  0  2  0  0  0  0  0  0  0  0  0
    9.2963  -19.7648   19.1053 N   0  0  0  0  0  0  0  0  0  0  0  0
    8.8986  -18.0077   20.6576 C   0  0  0  0  0  0  0  0  0  0  0  0
   10.0003  -18.2715   21.2500 O   0  0  0  0  0  0  0  0  0  0  0  0
    7.5156  -12.1045   20.5653 N   0  0  0  0  0  0  0  0  0  0  0  0
    8.2625  -12.7063   19.5297 C   0  0  0  0  0  0  0  0  0  0  0  0
    8.3353  -12.1178   18.4253 O   0  0  0  0  0  0  0  0  0  0  0  0
    8.9426  -14.0319   19.7924 C   0  0  0  0  0  0  0  0  0  0  0  0
    8.5765  -14.3947   21.2039 C   0  0  0  0  0  0  0  0  0  0  0  0
    9.0991  -15.7349   21.6656 C   0  0  2  0  0  0  0  0  0  0  0  0
    8.3684  -16.7071   20.8294 N   0  0  0  0  0  0  0  0  0  0  0  0
    8.7663  -16.0741   23.0555 C   0  0  0  0  0  0  0  0  0  0  0  0
    7.5622  -16.3431   23.4085 O   0  0  0  0  0  0  0  0  0  0  0  0
    9.7055  -16.1430   24.1226 N   0  0  0  0  0  0  0  0  0  0  0  0
    9.3120  -16.4930   25.4996 C   0  0  1  0  0  0  0  0  0  0  0  0
    8.6612  -17.8332   25.5324 C   0  0  0  0  0  0  0  0  0  0  0  0
    9.6317  -18.8981   25.2351 C   0  0  0  0  0  0  0  0  0  0  0  0
   10.9729  -18.7970   24.9173 C   0  0  0  0  0  0  0  0  0  0  0  0
   11.5121  -20.0038   24.6898 N   0  0  0  0  0  0  0  0  0  0  0  0
   10.4981  -20.8839   24.8658 C   0  0  0  0  0  0  0  0  0  0  0  0
    9.3752  -20.2371   25.1903 N   0  0  0  0  0  0  0  0  0  0  0  0
   10.4439  -16.3910   26.4137 C   0  0  0  0  0  0  0  0  0  0  0  0
   10.3273  -16.6290   27.7760 O   0  0  0  0  0  0  0  0  0  0  0  0
   11.5774  -16.0800   25.9916 O   0  0  0  0  0  0  0  0  0  0  0  0
  2  1  1  6
  2  4  1  0
  3  2  1  0
  4  6  1  0
  4  5  1  1
  6  7  2  0
  6 14  1  0
  8  9  1  0
  9 10  2  0
 11  9  1  0
 12 11  1  0
 13 15  1  0
 13 12  1  6
 14 13  1  0
 15 16  2  0
 17 18  1  0
 17 15  1  0
 18 19  1  6
 20 19  1  0
 21 20  2  0
 22 21  1  0
 23 22  1  0
 23 24  2  0
 24 20  1  0
 25 18  1  0
 26 25  1  0
 27 25  2  0
M  END
$$$$
