TQH.pdb
     RDKit          3D

 27 27  0  0  1  0  0  0  0  0999 V2000
    8.3610  -12.5400   19.0963 C   0  0  0  0  0  0  0  0  0  0  0  0
    7.7326  -13.6475   18.2553 C   0  0  1  0  0  0  0  0  0  0  0  0
    6.8396  -13.0313   17.3915 O   0  0  0  0  0  0  0  0  0  0  0  0
    8.8270  -14.2675   17.4380 C   0  0  2  0  0  0  0  0  0  0  0  0
    8.2447  -15.1834   16.4819 N   0  0  0  0  0  0  0  0  0  0  0  0
    9.8573  -14.9404   18.2127 C   0  0  0  0  0  0  0  0  0  0  0  0
    9.6924  -16.1800   18.4782 O   0  0  0  0  0  0  0  0  0  0  0  0
   15.5729  -13.5134   18.2558 N   0  0  0  0  0  0  0  0  0  0  0  0
   15.7256  -14.4118   19.3337 C   0  0  0  0  0  0  0  0  0  0  0  0
   16.8758  -14.6037   19.7939 O   0  0  0  0  0  0  0  0  0  0  0  0
   14.5005  -15.1046   19.8887 C   0  0  0  0  0  0  0  0  0  0  0  0
   13.3402  -14.5392   19.1193 C   0  0  0  0  0  0  0  0  0  0  0  0
   11.9973  -15.1299   19.4801 C   0  0  2  0  0  0  0  0  0  0  0  0
   11.0360  -14.3271   18.6992 N   0  0  0  0  0  0  0  0  0  0  0  0
   11.6122  -14.9565   20.8870 C   0  0  0  0  0  0  0  0  0  0  0  0
   10.8643  -13.9830   21.2607 O   0  0  0  0  0  0  0  0  0  0  0  0
   12.0071  -15.8170   21.9496 N   0  0  0  0  0  0  0  0  0  0  0  0
   11.0419  -16.3734   22.9153 C   0  0  1  0  0  0  0  0  0  0  0  0
    9.8922  -16.9993   22.2032 C   0  0  0  0  0  0  0  0  0  0  0  0
    8.7562  -16.0686   22.1157 C   0  0  0  0  0  0  0  0  0  0  0  0
    8.5769  -14.8450   22.7328 C   0  0  0  0  0  0  0  0  0  0  0  0
    7.3886  -14.3094   22.4169 N   0  0  0  0  0  0  0  0  0  0  0  0
    6.8050  -15.2062   21.5870 C   0  0  0  0  0  0  0  0  0  0  0  0
    7.6096  -16.2563   21.4010 N   0  0  0  0  0  0  0  0  0  0  0  0
   11.6947  -17.2855   23.8475 C   0  0  0  0  0  0  0  0  0  0  0  0
   11.3664  -17.3373   25.1949 O   0  0  0  0  0  0  0  0  0  0  0  0
   12.5882  -18.0650   23.4554 O   0  0  0  0  0  0  0  0  0  0  0  0
  2  1  1  1
  2  4  1  0
  3  2  1  0
  4  6  1  0
  4  5  1  6
  6  7  2  0
  6 14  1  0
  8  9  1  0
  9 10  2  0
 11  9  1  0
 12 11  1  0
 13 15  1  0
 13 12  1  1
 14 13  1  0
 15 16  2  0
 17 18  1  0
 17 15  1  0
 18 19  1  6
 20 19  1  0
 21 20  2  0
 22 21  1  0
 23 22  1  0
 23 24  2  0
 24 20  1  0
 25 18  1  0
 26 25  1  0
 27 25  2  0
M  END
$$$$
