TQH.pdb
     RDKit          3D

 27 27  0  0  1  0  0  0  0  0999 V2000
    9.1702  -12.4511   20.4294 C   0  0  0  0  0  0  0  0  0  0  0  0
    8.2020  -12.8710   19.3272 C   0  0  1  0  0  0  0  0  0  0  0  0
    8.3925  -11.9883   18.2746 O   0  0  0  0  0  0  0  0  0  0  0  0
    8.6064  -14.2417   18.8715 C   0  0  2  0  0  0  0  0  0  0  0  0
    7.7777  -14.6338   17.7527 N   0  0  0  0  0  0  0  0  0  0  0  0
    8.5662  -15.2625   19.9063 C   0  0  0  0  0  0  0  0  0  0  0  0
    7.4463  -15.8323   20.1414 O   0  0  0  0  0  0  0  0  0  0  0  0
   12.5886  -19.4182   20.8522 N   0  0  0  0  0  0  0  0  0  0  0  0
   11.5995  -19.4300   19.8452 C   0  0  0  0  0  0  0  0  0  0  0  0
   11.7333  -20.2246   18.8849 O   0  0  0  0  0  0  0  0  0  0  0  0
   10.4223  -18.4873   19.9640 C   0  0  0  0  0  0  0  0  0  0  0  0
   10.6329  -17.7477   21.2550 C   0  0  0  0  0  0  0  0  0  0  0  0
    9.5179  -16.7982   21.6262 C   0  0  2  0  0  0  0  0  0  0  0  0
    9.6767  -15.6778   20.6787 N   0  0  0  0  0  0  0  0  0  0  0  0
    9.6390  -16.2083   22.9660 C   0  0  0  0  0  0  0  0  0  0  0  0
   10.5127  -15.3040   23.2223 O   0  0  0  0  0  0  0  0  0  0  0  0
    8.8304  -16.5577   24.0839 N   0  0  0  0  0  0  0  0  0  0  0  0
    9.0500  -15.9882   25.4260 C   0  0  1  0  0  0  0  0  0  0  0  0
    7.7517  -15.8011   26.1331 C   0  0  0  0  0  0  0  0  0  0  0  0
    7.0487  -14.6075   25.6376 C   0  0  0  0  0  0  0  0  0  0  0  0
    7.4368  -13.7016   24.6687 C   0  0  0  0  0  0  0  0  0  0  0  0
    6.5259  -12.7288   24.5182 N   0  0  0  0  0  0  0  0  0  0  0  0
    5.5451  -13.0215   25.4048 C   0  0  0  0  0  0  0  0  0  0  0  0
    5.8457  -14.1368   26.0758 N   0  0  0  0  0  0  0  0  0  0  0  0
   10.0002  -16.7889   26.1897 C   0  0  0  0  0  0  0  0  0  0  0  0
   10.4708  -16.4014   27.4364 O   0  0  0  0  0  0  0  0  0  0  0  0
   10.4296  -17.8709   25.7373 O   0  0  0  0  0  0  0  0  0  0  0  0
  2  1  1  1
  2  4  1  0
  3  2  1  0
  4  6  1  0
  4  5  1  6
  6  7  2  0
  6 14  1  0
  8  9  1  0
  9 10  2  0
 11  9  1  0
 12 11  1  0
 13 15  1  0
 13 12  1  6
 14 13  1  0
 15 16  2  0
 17 18  1  0
 17 15  1  0
 18 19  1  1
 20 19  1  0
 21 20  2  0
 22 21  1  0
 23 22  1  0
 23 24  2  0
 24 20  1  0
 25 18  1  0
 26 25  1  0
 27 25  2  0
M  END
$$$$
