TQH.pdb
     RDKit          3D

 27 27  0  0  1  0  0  0  0  0999 V2000
   11.0797  -19.0349   18.0169 C   0  0  0  0  0  0  0  0  0  0  0  0
   12.2172  -18.4096   17.2146 C   0  0  1  0  0  0  0  0  0  0  0  0
   12.3204  -19.1379   16.0389 O   0  0  0  0  0  0  0  0  0  0  0  0
   11.8057  -17.0096   16.8670 C   0  0  2  0  0  0  0  0  0  0  0  0
   12.7995  -16.4260   15.9930 N   0  0  0  0  0  0  0  0  0  0  0  0
   11.5740  -16.1425   18.0111 C   0  0  0  0  0  0  0  0  0  0  0  0
   12.5905  -15.7479   18.6783 O   0  0  0  0  0  0  0  0  0  0  0  0
    6.4444  -13.2239   19.7075 N   0  0  0  0  0  0  0  0  0  0  0  0
    7.1811  -12.8952   18.5492 C   0  0  0  0  0  0  0  0  0  0  0  0
    6.6198  -12.2187   17.6555 O   0  0  0  0  0  0  0  0  0  0  0  0
    8.6127  -13.3702   18.4327 C   0  0  0  0  0  0  0  0  0  0  0  0
    8.8267  -14.2825   19.6074 C   0  0  0  0  0  0  0  0  0  0  0  0
   10.2040  -14.8988   19.6838 C   0  0  2  0  0  0  0  0  0  0  0  0
   10.3033  -15.6981   18.4471 N   0  0  0  0  0  0  0  0  0  0  0  0
   10.3873  -15.8488   20.7891 C   0  0  0  0  0  0  0  0  0  0  0  0
    9.8766  -17.0255   20.7514 O   0  0  0  0  0  0  0  0  0  0  0  0
   11.1254  -15.5818   21.9763 N   0  0  0  0  0  0  0  0  0  0  0  0
   11.2014  -16.5428   23.0918 C   0  0  1  0  0  0  0  0  0  0  0  0
   12.6021  -16.6591   23.5868 C   0  0  0  0  0  0  0  0  0  0  0  0
   13.4657  -17.2966   22.5807 C   0  0  0  0  0  0  0  0  0  0  0  0
   13.2545  -18.4504   21.8497 C   0  0  0  0  0  0  0  0  0  0  0  0
   14.2954  -18.7162   21.0470 N   0  0  0  0  0  0  0  0  0  0  0  0
   15.1805  -17.7163   21.2716 C   0  0  0  0  0  0  0  0  0  0  0  0
   14.6972  -16.8664   22.1820 N   0  0  0  0  0  0  0  0  0  0  0  0
   10.2546  -16.2015   24.1474 C   0  0  0  0  0  0  0  0  0  0  0  0
   10.1105  -16.9656   25.2969 O   0  0  0  0  0  0  0  0  0  0  0  0
    9.5283  -15.1903   24.0488 O   0  0  0  0  0  0  0  0  0  0  0  0
  2  1  1  1
  2  4  1  0
  3  2  1  0
  4  6  1  0
  4  5  1  6
  6  7  2  0
  6 14  1  0
  8  9  1  0
  9 10  2  0
 11  9  1  0
 12 11  1  0
 13 15  1  0
 13 12  1  1
 14 13  1  0
 15 16  2  0
 17 18  1  0
 17 15  1  0
 18 19  1  1
 20 19  1  0
 21 20  2  0
 22 21  1  0
 23 22  1  0
 23 24  2  0
 24 20  1  0
 25 18  1  0
 26 25  1  0
 27 25  2  0
M  END
$$$$
