TQH.pdb
     RDKit          3D

 27 27  0  0  1  0  0  0  0  0999 V2000
    4.6161  -19.6261   19.9131 C   0  0  0  0  0  0  0  0  0  0  0  0
    5.7632  -18.9068   20.6169 C   0  0  1  0  0  0  0  0  0  0  0  0
    6.7577  -19.8515   20.8212 O   0  0  0  0  0  0  0  0  0  0  0  0
    6.2885  -17.8664   19.6726 C   0  0  2  0  0  0  0  0  0  0  0  0
    6.8422  -18.5196   18.5069 N   0  0  0  0  0  0  0  0  0  0  0  0
    7.2673  -16.9597   20.2508 C   0  0  0  0  0  0  0  0  0  0  0  0
    8.4905  -17.3306   20.2662 O   0  0  0  0  0  0  0  0  0  0  0  0
    8.4872  -13.3196   17.9330 N   0  0  0  0  0  0  0  0  0  0  0  0
    8.4781  -12.9253   19.2883 C   0  0  0  0  0  0  0  0  0  0  0  0
    9.5562  -12.5572   19.8112 O   0  0  0  0  0  0  0  0  0  0  0  0
    7.1732  -12.9624   20.0528 C   0  0  0  0  0  0  0  0  0  0  0  0
    7.5247  -13.4891   21.4156 C   0  0  0  0  0  0  0  0  0  0  0  0
    8.0519  -14.9048   21.4270 C   0  0  2  0  0  0  0  0  0  0  0  0
    6.9705  -15.6905   20.8015 N   0  0  0  0  0  0  0  0  0  0  0  0
    8.2370  -15.4766   22.7674 C   0  0  0  0  0  0  0  0  0  0  0  0
    7.2994  -15.4456   23.6431 O   0  0  0  0  0  0  0  0  0  0  0  0
    9.4282  -16.1068   23.2247 N   0  0  0  0  0  0  0  0  0  0  0  0
    9.6621  -16.4155   24.6473 C   0  0  1  0  0  0  0  0  0  0  0  0
    9.7674  -17.8878   24.8520 C   0  0  0  0  0  0  0  0  0  0  0  0
    8.4729  -18.5466   24.6182 C   0  0  0  0  0  0  0  0  0  0  0  0
    7.7508  -18.6675   23.4460 C   0  0  0  0  0  0  0  0  0  0  0  0
    6.5981  -19.3222   23.6491 N   0  0  0  0  0  0  0  0  0  0  0  0
    6.5882  -19.6212   24.9697 C   0  0  0  0  0  0  0  0  0  0  0  0
    7.6985  -19.1646   25.5557 N   0  0  0  0  0  0  0  0  0  0  0  0
   10.8171  -15.6885   25.1618 C   0  0  0  0  0  0  0  0  0  0  0  0
   11.1791  -15.7136   26.5013 O   0  0  0  0  0  0  0  0  0  0  0  0
   11.5320  -15.0062   24.3981 O   0  0  0  0  0  0  0  0  0  0  0  0
  2  1  1  6
  2  4  1  0
  3  2  1  0
  4  6  1  0
  4  5  1  6
  6  7  2  0
  6 14  1  0
  8  9  1  0
  9 10  2  0
 11  9  1  0
 12 11  1  0
 13 15  1  0
 13 12  1  1
 14 13  1  0
 15 16  2  0
 17 18  1  0
 17 15  1  0
 18 19  1  6
 20 19  1  0
 21 20  2  0
 22 21  1  0
 23 22  1  0
 23 24  2  0
 24 20  1  0
 25 18  1  0
 26 25  1  0
 27 25  2  0
M  END
$$$$
