TQH.pdb
     RDKit          3D

 27 27  0  0  1  0  0  0  0  0999 V2000
    8.9973  -12.6099   19.6702 C   0  0  0  0  0  0  0  0  0  0  0  0
    8.1383  -13.3298   18.6346 C   0  0  1  0  0  0  0  0  0  0  0  0
    8.2118  -12.5818   17.4692 O   0  0  0  0  0  0  0  0  0  0  0  0
    8.7694  -14.6660   18.3774 C   0  0  2  0  0  0  0  0  0  0  0  0
    8.0595  -15.3278   17.3049 N   0  0  0  0  0  0  0  0  0  0  0  0
    8.8447  -15.5364   19.5398 C   0  0  0  0  0  0  0  0  0  0  0  0
    7.7729  -16.1194   19.9211 O   0  0  0  0  0  0  0  0  0  0  0  0
   10.1231  -19.4840   22.4549 N   0  0  0  0  0  0  0  0  0  0  0  0
   10.6631  -19.5918   21.1552 C   0  0  0  0  0  0  0  0  0  0  0  0
   10.4803  -20.6558   20.5181 O   0  0  0  0  0  0  0  0  0  0  0  0
   11.4377  -18.4241   20.5850 C   0  0  0  0  0  0  0  0  0  0  0  0
   11.2669  -17.3095   21.5783 C   0  0  0  0  0  0  0  0  0  0  0  0
    9.9308  -16.6072   21.5135 C   0  0  2  0  0  0  0  0  0  0  0  0
   10.0190  -15.7907   20.2873 N   0  0  0  0  0  0  0  0  0  0  0  0
    9.6861  -15.6586   22.6081 C   0  0  0  0  0  0  0  0  0  0  0  0
   10.5299  -14.7351   22.8942 O   0  0  0  0  0  0  0  0  0  0  0  0
    8.5299  -15.6560   23.4380 N   0  0  0  0  0  0  0  0  0  0  0  0
    8.3535  -14.6965   24.5434 C   0  0  1  0  0  0  0  0  0  0  0  0
    6.9761  -14.1281   24.5271 C   0  0  0  0  0  0  0  0  0  0  0  0
    6.7634  -13.2284   25.6715 C   0  0  0  0  0  0  0  0  0  0  0  0
    7.1630  -11.9161   25.8400 C   0  0  0  0  0  0  0  0  0  0  0  0
    6.7962  -11.4453   27.0410 N   0  0  0  0  0  0  0  0  0  0  0  0
    6.1541  -12.4740   27.6438 C   0  0  0  0  0  0  0  0  0  0  0  0
    6.1288  -13.5393   26.8382 N   0  0  0  0  0  0  0  0  0  0  0  0
    8.7022  -15.2987   25.8252 C   0  0  0  0  0  0  0  0  0  0  0  0
    9.1348  -14.5485   26.9096 O   0  0  0  0  0  0  0  0  0  0  0  0
    8.6211  -16.5338   25.9916 O   0  0  0  0  0  0  0  0  0  0  0  0
  2  1  1  1
  2  4  1  0
  3  2  1  0
  4  6  1  0
  4  5  1  6
  6  7  2  0
  6 14  1  0
  8  9  1  0
  9 10  2  0
 11  9  1  0
 12 11  1  0
 13 15  1  0
 13 12  1  1
 14 13  1  0
 15 16  2  0
 17 18  1  0
 17 15  1  0
 18 19  1  1
 20 19  1  0
 21 20  2  0
 22 21  1  0
 23 22  1  0
 23 24  2  0
 24 20  1  0
 25 18  1  0
 26 25  1  0
 27 25  2  0
M  END
$$$$
