TQH.pdb
     RDKit          3D

 27 27  0  0  1  0  0  0  0  0999 V2000
    8.8716  -13.9040   21.2392 C   0  0  0  0  0  0  0  0  0  0  0  0
    7.6292  -14.6780   20.8080 C   0  0  1  0  0  0  0  0  0  0  0  0
    7.0492  -13.9544   19.7768 O   0  0  0  0  0  0  0  0  0  0  0  0
    8.0885  -15.9959   20.2584 C   0  0  2  0  0  0  0  0  0  0  0  0
    6.9633  -16.6778   19.6575 N   0  0  0  0  0  0  0  0  0  0  0  0
    8.7412  -16.8634   21.2258 C   0  0  0  0  0  0  0  0  0  0  0  0
    8.0236  -17.7307   21.8316 O   0  0  0  0  0  0  0  0  0  0  0  0
   14.1301  -18.1710   19.2189 N   0  0  0  0  0  0  0  0  0  0  0  0
   13.7551  -18.6324   20.4991 C   0  0  0  0  0  0  0  0  0  0  0  0
   14.6584  -18.9260   21.3172 O   0  0  0  0  0  0  0  0  0  0  0  0
   12.2843  -18.7538   20.8319 C   0  0  0  0  0  0  0  0  0  0  0  0
   12.0966  -17.9694   22.0997 C   0  0  0  0  0  0  0  0  0  0  0  0
   10.6574  -17.7932   22.5242 C   0  0  2  0  0  0  0  0  0  0  0  0
   10.1176  -16.8230   21.5518 N   0  0  0  0  0  0  0  0  0  0  0  0
   10.4818  -17.1744   23.8449 C   0  0  0  0  0  0  0  0  0  0  0  0
   11.3495  -16.3580   24.3218 O   0  0  0  0  0  0  0  0  0  0  0  0
    9.3720  -17.3998   24.7069 N   0  0  0  0  0  0  0  0  0  0  0  0
    9.3274  -16.8851   26.0877 C   0  0  1  0  0  0  0  0  0  0  0  0
    7.9380  -16.4891   26.4531 C   0  0  0  0  0  0  0  0  0  0  0  0
    7.5666  -15.2175   25.8135 C   0  0  0  0  0  0  0  0  0  0  0  0
    8.3420  -14.3571   25.0593 C   0  0  0  0  0  0  0  0  0  0  0  0
    7.6401  -13.2824   24.6706 N   0  0  0  0  0  0  0  0  0  0  0  0
    6.4008  -13.4633   25.1855 C   0  0  0  0  0  0  0  0  0  0  0  0
    6.3460  -14.6109   25.8671 N   0  0  0  0  0  0  0  0  0  0  0  0
    9.9092  -17.8389   27.0253 C   0  0  0  0  0  0  0  0  0  0  0  0
   10.2553  -17.4931   28.3239 O   0  0  0  0  0  0  0  0  0  0  0  0
   10.1189  -19.0214   26.6827 O   0  0  0  0  0  0  0  0  0  0  0  0
  2  1  1  6
  2  4  1  0
  3  2  1  0
  4  6  1  0
  4  5  1  1
  6  7  2  0
  6 14  1  0
  8  9  1  0
  9 10  2  0
 11  9  1  0
 12 11  1  0
 13 15  1  0
 13 12  1  6
 14 13  1  0
 15 16  2  0
 17 18  1  0
 17 15  1  0
 18 19  1  1
 20 19  1  0
 21 20  2  0
 22 21  1  0
 23 22  1  0
 23 24  2  0
 24 20  1  0
 25 18  1  0
 26 25  1  0
 27 25  2  0
M  END
$$$$
