TQH.pdb
     RDKit          3D

 27 27  0  0  1  0  0  0  0  0999 V2000
    9.1852  -12.5652   20.5229 C   0  0  0  0  0  0  0  0  0  0  0  0
    8.1330  -13.0061   19.5095 C   0  0  1  0  0  0  0  0  0  0  0  0
    8.1265  -12.0513   18.5037 O   0  0  0  0  0  0  0  0  0  0  0  0
    8.5926  -14.3070   18.9211 C   0  0  2  0  0  0  0  0  0  0  0  0
    7.6852  -14.6970   17.8644 N   0  0  0  0  0  0  0  0  0  0  0  0
    8.7390  -15.3899   19.8804 C   0  0  0  0  0  0  0  0  0  0  0  0
    7.7084  -16.0989   20.1442 O   0  0  0  0  0  0  0  0  0  0  0  0
   13.2967  -18.8620   19.9866 N   0  0  0  0  0  0  0  0  0  0  0  0
   12.7924  -19.4490   21.1670 C   0  0  0  0  0  0  0  0  0  0  0  0
   13.3845  -20.4485   21.6379 O   0  0  0  0  0  0  0  0  0  0  0  0
   11.5625  -18.8514   21.8143 C   0  0  0  0  0  0  0  0  0  0  0  0
   11.2128  -17.6544   20.9760 C   0  0  0  0  0  0  0  0  0  0  0  0
    9.9741  -16.9133   21.4217 C   0  0  2  0  0  0  0  0  0  0  0  0
    9.9404  -15.7231   20.5496 N   0  0  0  0  0  0  0  0  0  0  0  0
   10.0318  -16.3993   22.7966 C   0  0  0  0  0  0  0  0  0  0  0  0
   10.7998  -15.4211   23.1134 O   0  0  0  0  0  0  0  0  0  0  0  0
    9.2700  -16.9064   23.8865 N   0  0  0  0  0  0  0  0  0  0  0  0
    9.4505  -16.4243   25.2681 C   0  0  1  0  0  0  0  0  0  0  0  0
    8.1294  -16.1820   25.9137 C   0  0  0  0  0  0  0  0  0  0  0  0
    7.5063  -14.9544   25.3951 C   0  0  0  0  0  0  0  0  0  0  0  0
    8.0071  -14.0293   24.4987 C   0  0  0  0  0  0  0  0  0  0  0  0
    7.1387  -13.0275   24.2961 N   0  0  0  0  0  0  0  0  0  0  0  0
    6.0710  -13.3210   25.0755 C   0  0  0  0  0  0  0  0  0  0  0  0
    6.2789  -14.4649   25.7335 N   0  0  0  0  0  0  0  0  0  0  0  0
   10.2982  -17.3292   26.0360 C   0  0  0  0  0  0  0  0  0  0  0  0
   10.8668  -18.4684   25.4839 O   0  0  0  0  0  0  0  0  0  0  0  0
   10.5447  -17.1036   27.2393 O   0  0  0  0  0  0  0  0  0  0  0  0
  2  1  1  1
  2  4  1  0
  3  2  1  0
  4  6  1  0
  4  5  1  6
  6  7  2  0
  6 14  1  0
  8  9  1  0
  9 10  2  0
 11  9  1  0
 12 11  1  0
 13 15  1  0
 13 12  1  6
 14 13  1  0
 15 16  2  0
 17 18  1  0
 17 15  1  0
 18 19  1  1
 20 19  1  0
 21 20  2  0
 22 21  1  0
 23 22  1  0
 23 24  2  0
 24 20  1  0
 25 18  1  0
 26 25  1  0
 27 25  2  0
M  END
$$$$
