TQH.pdb
     RDKit          3D

 27 27  0  0  1  0  0  0  0  0999 V2000
    8.4695  -12.2843   19.1255 C   0  0  0  0  0  0  0  0  0  0  0  0
    7.8968  -13.4305   18.2966 C   0  0  1  0  0  0  0  0  0  0  0  0
    7.0565  -12.8570   17.3541 O   0  0  0  0  0  0  0  0  0  0  0  0
    9.0408  -14.0792   17.5752 C   0  0  2  0  0  0  0  0  0  0  0  0
    8.5193  -14.9982   16.5876 N   0  0  0  0  0  0  0  0  0  0  0  0
    9.9955  -14.7584   18.4364 C   0  0  0  0  0  0  0  0  0  0  0  0
    9.6942  -15.9265   18.8593 O   0  0  0  0  0  0  0  0  0  0  0  0
   15.9216  -15.1557   19.5614 N   0  0  0  0  0  0  0  0  0  0  0  0
   15.3627  -14.8278   18.3074 C   0  0  0  0  0  0  0  0  0  0  0  0
   16.0662  -14.9798   17.2810 O   0  0  0  0  0  0  0  0  0  0  0  0
   13.9429  -14.3083   18.2518 C   0  0  0  0  0  0  0  0  0  0  0  0
   13.4395  -14.3725   19.6661 C   0  0  0  0  0  0  0  0  0  0  0  0
   12.0614  -14.9729   19.8176 C   0  0  2  0  0  0  0  0  0  0  0  0
   11.2403  -14.2247   18.8460 N   0  0  0  0  0  0  0  0  0  0  0  0
   11.4368  -14.7450   21.1274 C   0  0  0  0  0  0  0  0  0  0  0  0
   11.2663  -13.5602   21.5901 O   0  0  0  0  0  0  0  0  0  0  0  0
   10.9664  -15.7719   21.9933 N   0  0  0  0  0  0  0  0  0  0  0  0
   10.2584  -15.4797   23.2531 C   0  0  1  0  0  0  0  0  0  0  0  0
    8.7860  -15.4381   23.0274 C   0  0  0  0  0  0  0  0  0  0  0  0
    8.0729  -15.0824   24.2641 C   0  0  0  0  0  0  0  0  0  0  0  0
    8.5770  -14.8487   25.5295 C   0  0  0  0  0  0  0  0  0  0  0  0
    7.5961  -14.5734   26.4017 N   0  0  0  0  0  0  0  0  0  0  0  0
    6.4524  -14.6333   25.6792 C   0  0  0  0  0  0  0  0  0  0  0  0
    6.7243  -14.9353   24.4067 N   0  0  0  0  0  0  0  0  0  0  0  0
   10.6437  -16.4150   24.3038 C   0  0  0  0  0  0  0  0  0  0  0  0
   10.4841  -16.1299   25.6525 O   0  0  0  0  0  0  0  0  0  0  0  0
   11.1397  -17.5249   24.0179 O   0  0  0  0  0  0  0  0  0  0  0  0
  2  1  1  1
  2  4  1  0
  3  2  1  0
  4  6  1  0
  4  5  1  6
  6  7  2  0
  6 14  1  0
  8  9  1  0
  9 10  2  0
 11  9  1  0
 12 11  1  0
 13 15  1  0
 13 12  1  1
 14 13  1  0
 15 16  2  0
 17 18  1  0
 17 15  1  0
 18 19  1  6
 20 19  1  0
 21 20  2  0
 22 21  1  0
 23 22  1  0
 23 24  2  0
 24 20  1  0
 25 18  1  0
 26 25  1  0
 27 25  2  0
M  END
$$$$
