TQH.pdb
     RDKit          3D

 27 27  0  0  1  0  0  0  0  0999 V2000
    8.7021  -12.6665   19.5639 C   0  0  0  0  0  0  0  0  0  0  0  0
    7.9485  -13.4428   18.4877 C   0  0  1  0  0  0  0  0  0  0  0  0
    8.1138  -12.7409   17.3032 O   0  0  0  0  0  0  0  0  0  0  0  0
    8.6192  -14.7767   18.3425 C   0  0  2  0  0  0  0  0  0  0  0  0
    7.9939  -15.5073   17.2621 N   0  0  0  0  0  0  0  0  0  0  0  0
    8.6330  -15.5848   19.5513 C   0  0  0  0  0  0  0  0  0  0  0  0
    7.7190  -16.4675   19.6913 O   0  0  0  0  0  0  0  0  0  0  0  0
   12.0701  -19.6985   21.1879 N   0  0  0  0  0  0  0  0  0  0  0  0
   12.5504  -18.3843   21.0022 C   0  0  0  0  0  0  0  0  0  0  0  0
   13.7620  -18.1533   21.2258 O   0  0  0  0  0  0  0  0  0  0  0  0
   11.5882  -17.3111   20.5424 C   0  0  0  0  0  0  0  0  0  0  0  0
   10.2869  -17.6235   21.2257 C   0  0  0  0  0  0  0  0  0  0  0  0
    9.5315  -16.4142   21.7253 C   0  0  2  0  0  0  0  0  0  0  0  0
    9.5848  -15.4703   20.5920 N   0  0  0  0  0  0  0  0  0  0  0  0
   10.1674  -15.7203   22.8531 C   0  0  0  0  0  0  0  0  0  0  0  0
   10.8952  -14.6788   22.6732 O   0  0  0  0  0  0  0  0  0  0  0  0
   10.0487  -16.1082   24.2173 N   0  0  0  0  0  0  0  0  0  0  0  0
    9.4837  -15.2157   25.2458 C   0  0  1  0  0  0  0  0  0  0  0  0
    8.1421  -14.7199   24.8275 C   0  0  0  0  0  0  0  0  0  0  0  0
    7.5868  -13.7943   25.8271 C   0  0  0  0  0  0  0  0  0  0  0  0
    8.1411  -13.3500   27.0127 C   0  0  0  0  0  0  0  0  0  0  0  0
    7.3062  -12.5257   27.6623 N   0  0  0  0  0  0  0  0  0  0  0  0
    6.2055  -12.4455   26.8775 C   0  0  0  0  0  0  0  0  0  0  0  0
    6.3617  -13.1961   25.7835 N   0  0  0  0  0  0  0  0  0  0  0  0
    9.4660  -15.8621   26.5531 C   0  0  0  0  0  0  0  0  0  0  0  0
    9.7858  -17.2010   26.7284 O   0  0  0  0  0  0  0  0  0  0  0  0
    9.1560  -15.2185   27.5775 O   0  0  0  0  0  0  0  0  0  0  0  0
  2  1  1  1
  2  4  1  0
  3  2  1  0
  4  6  1  0
  4  5  1  6
  6  7  2  0
  6 14  1  0
  8  9  1  0
  9 10  2  0
 11  9  1  0
 12 11  1  0
 13 15  1  0
 13 12  1  6
 14 13  1  0
 15 16  2  0
 17 18  1  0
 17 15  1  0
 18 19  1  6
 20 19  1  0
 21 20  2  0
 22 21  1  0
 23 22  1  0
 23 24  2  0
 24 20  1  0
 25 18  1  0
 26 25  1  0
 27 25  2  0
M  END
$$$$
