WVI.pdb
     RDKit          3D

 30 31  0  0  1  0  0  0  0  0999 V2000
   28.2393  -21.2949   -9.6788 N   0  0  0  0  0  0  0  0  0  0  0  0
   26.7887  -21.1219   -9.7890 C   0  0  1  0  0  0  0  0  0  0  0  0
   26.3496  -19.9881   -8.8833 C   0  0  0  0  0  0  0  0  0  0  0  0
   27.5233  -19.6287   -8.0448 C   0  0  0  0  0  0  0  0  0  0  0  0
   28.6790  -18.9809   -8.3937 C   0  0  0  0  0  0  0  0  0  0  0  0
   29.4419  -18.9112   -7.3015 N   0  0  0  0  0  0  0  0  0  0  0  0
   28.8102  -19.4931   -6.2520 C   0  0  0  0  0  0  0  0  0  0  0  0
   29.1645  -19.6796   -4.9198 C   0  0  0  0  0  0  0  0  0  0  0  0
   28.2992  -20.3254   -4.0310 C   0  0  0  0  0  0  0  0  0  0  0  0
   27.0903  -20.7713   -4.5084 C   0  0  0  0  0  0  0  0  0  0  0  0
   26.7519  -20.5803   -5.8412 C   0  0  0  0  0  0  0  0  0  0  0  0
   27.6056  -19.9498   -6.6959 C   0  0  0  0  0  0  0  0  0  0  0  0
   26.5022  -20.8882  -11.2241 C   0  0  0  0  0  0  0  0  0  0  0  0
   27.3772  -20.4150  -11.9211 O   0  0  0  0  0  0  0  0  0  0  0  0
   25.2550  -23.5791  -13.6063 C   0  0  0  0  0  0  0  0  0  0  0  0
   24.2818  -22.4296  -13.6608 C   0  0  1  0  0  0  0  0  0  0  0  0
   23.2428  -22.7507  -12.5728 C   0  0  0  0  0  0  0  0  0  0  0  0
   24.9093  -21.1162  -13.2009 C   0  0  2  0  0  0  0  0  0  0  0  0
   25.2645  -21.2053  -11.8042 N   0  0  0  0  0  0  0  0  0  0  0  0
   23.8430  -20.0879  -13.2819 C   0  0  0  0  0  0  0  0  0  0  0  0
   23.0965  -19.8411  -12.2664 O   0  0  0  0  0  0  0  0  0  0  0  0
   24.9511  -15.6093  -15.8773 C   0  0  0  0  0  0  0  0  0  0  0  0
   24.3483  -16.5536  -14.9072 C   0  0  0  0  0  0  0  0  0  0  0  0
   23.0437  -17.1644  -15.2446 C   0  0  2  0  0  0  0  0  0  0  0  0
   22.0485  -16.0218  -15.4679 C   0  0  0  0  0  0  0  0  0  0  0  0
   22.5121  -18.2105  -14.3531 C   0  0  2  0  0  0  0  0  0  0  0  0
   23.5459  -19.3036  -14.4213 N   0  0  0  0  0  0  0  0  0  0  0  0
   21.2605  -18.8217  -14.7580 C   0  0  0  0  0  0  0  0  0  0  0  0
   21.1666  -19.6867  -15.7068 O   0  0  0  0  0  0  0  0  0  0  0  0
   20.0312  -18.5378  -14.1528 O   0  0  0  0  0  0  0  0  0  0  0  0
  2  1  1  6
  2 13  1  0
  2  3  1  0
  3  4  1  0
  4  5  2  0
  4 12  1  0
  5  6  1  0
  6  7  1  0
  7  8  2  0
  8  9  1  0
 10  9  2  0
 11 10  1  0
 12 11  2  0
 12  7  1  0
 13 19  1  0
 14 13  2  0
 16 15  1  1
 16 18  1  0
 17 16  1  0
 18 20  1  0
 18 19  1  1
 20 21  2  0
 20 27  1  0
 23 22  1  0
 23 24  1  0
 24 26  1  0
 24 25  1  1
 26 28  1  0
 26 27  1  6
 28 30  1  0
 29 28  2  0
M  END
$$$$
