WVI.pdb
     RDKit          3D

 30 31  0  0  1  0  0  0  0  0999 V2000
   23.4148  -21.5746  -14.1689 N   0  0  0  0  0  0  0  0  0  0  0  0
   23.8727  -20.5394  -13.2389 C   0  0  1  0  0  0  0  0  0  0  0  0
   22.6700  -19.8371  -12.6399 C   0  0  0  0  0  0  0  0  0  0  0  0
   21.9944  -19.1181  -13.7519 C   0  0  0  0  0  0  0  0  0  0  0  0
   20.8192  -19.4100  -14.3926 C   0  0  0  0  0  0  0  0  0  0  0  0
   20.6406  -18.4858  -15.3379 N   0  0  0  0  0  0  0  0  0  0  0  0
   21.6669  -17.5994  -15.3250 C   0  0  0  0  0  0  0  0  0  0  0  0
   21.9530  -16.4721  -16.0881 C   0  0  0  0  0  0  0  0  0  0  0  0
   23.1086  -15.7206  -15.8525 C   0  0  0  0  0  0  0  0  0  0  0  0
   23.9543  -16.1255  -14.8481 C   0  0  0  0  0  0  0  0  0  0  0  0
   23.6569  -17.2545  -14.0968 C   0  0  0  0  0  0  0  0  0  0  0  0
   22.5273  -17.9773  -14.3382 C   0  0  0  0  0  0  0  0  0  0  0  0
   24.7276  -21.2223  -12.2393 C   0  0  0  0  0  0  0  0  0  0  0  0
   24.3204  -22.2476  -11.7309 O   0  0  0  0  0  0  0  0  0  0  0  0
   28.4724  -21.9365  -12.8584 C   0  0  0  0  0  0  0  0  0  0  0  0
   28.3417  -21.2458  -11.5252 C   0  0  1  0  0  0  0  0  0  0  0  0
   28.5164  -19.7513  -11.8451 C   0  0  0  0  0  0  0  0  0  0  0  0
   26.9278  -21.3427  -10.9580 C   0  0  2  0  0  0  0  0  0  0  0  0
   25.9904  -20.7332  -11.8715 N   0  0  0  0  0  0  0  0  0  0  0  0
   26.9051  -20.5026   -9.7354 C   0  0  0  0  0  0  0  0  0  0  0  0
   26.4394  -19.3063   -9.7748 O   0  0  0  0  0  0  0  0  0  0  0  0
   24.8946  -21.9180   -5.1167 C   0  0  0  0  0  0  0  0  0  0  0  0
   25.4368  -21.1259   -6.2459 C   0  0  0  0  0  0  0  0  0  0  0  0
   26.8487  -20.6890   -6.1790 C   0  0  2  0  0  0  0  0  0  0  0  0
   27.0420  -19.9722   -4.8393 C   0  0  0  0  0  0  0  0  0  0  0  0
   27.3963  -19.9240   -7.3132 C   0  0  2  0  0  0  0  0  0  0  0  0
   27.3643  -20.9019   -8.4583 N   0  0  0  0  0  0  0  0  0  0  0  0
   28.7782  -19.4997   -7.1918 C   0  0  0  0  0  0  0  0  0  0  0  0
   29.7812  -20.2599   -7.4627 O   0  0  0  0  0  0  0  0  0  0  0  0
   29.1590  -18.2192   -6.7754 O   0  0  0  0  0  0  0  0  0  0  0  0
  2  1  1  6
  2 13  1  0
  2  3  1  0
  3  4  1  0
  4  5  2  0
  4 12  1  0
  5  6  1  0
  6  7  1  0
  7  8  2  0
  8  9  1  0
 10  9  2  0
 11 10  1  0
 12 11  2  0
 12  7  1  0
 13 19  1  0
 14 13  2  0
 16 15  1  6
 16 18  1  0
 17 16  1  0
 18 20  1  0
 18 19  1  6
 20 21  2  0
 20 27  1  0
 23 22  1  0
 23 24  1  0
 24 26  1  0
 24 25  1  1
 26 28  1  0
 26 27  1  6
 28 30  1  0
 29 28  2  0
M  END
$$$$
