WVI.pdb
     RDKit          3D

 30 31  0  0  1  0  0  0  0  0999 V2000
   28.4655  -20.0869  -16.4496 N   0  0  0  0  0  0  0  0  0  0  0  0
   27.6074  -20.4332  -15.3138 C   0  0  1  0  0  0  0  0  0  0  0  0
   27.6697  -19.3235  -14.2828 C   0  0  0  0  0  0  0  0  0  0  0  0
   28.9969  -19.4257  -13.6210 C   0  0  0  0  0  0  0  0  0  0  0  0
   30.1594  -18.7521  -13.8890 C   0  0  0  0  0  0  0  0  0  0  0  0
   31.0857  -19.2035  -13.0417 N   0  0  0  0  0  0  0  0  0  0  0  0
   30.5541  -20.1495  -12.2283 C   0  0  0  0  0  0  0  0  0  0  0  0
   31.0840  -20.9142  -11.1942 C   0  0  0  0  0  0  0  0  0  0  0  0
   30.2902  -21.8356  -10.5038 C   0  0  0  0  0  0  0  0  0  0  0  0
   28.9735  -21.9661  -10.8743 C   0  0  0  0  0  0  0  0  0  0  0  0
   28.4596  -21.1980  -11.9103 C   0  0  0  0  0  0  0  0  0  0  0  0
   29.2453  -20.3045  -12.5744 C   0  0  0  0  0  0  0  0  0  0  0  0
   26.2518  -20.6623  -15.8671 C   0  0  0  0  0  0  0  0  0  0  0  0
   25.8541  -19.9298  -16.7507 O   0  0  0  0  0  0  0  0  0  0  0  0
   24.1294  -24.3558  -15.7655 C   0  0  0  0  0  0  0  0  0  0  0  0
   23.7371  -23.0899  -16.4832 C   0  0  1  0  0  0  0  0  0  0  0  0
   22.2032  -23.1586  -16.5780 C   0  0  0  0  0  0  0  0  0  0  0  0
   24.0032  -21.8420  -15.6452 C   0  0  2  0  0  0  0  0  0  0  0  0
   25.4215  -21.6993  -15.4152 N   0  0  0  0  0  0  0  0  0  0  0  0
   23.4008  -22.0921  -14.3127 C   0  0  0  0  0  0  0  0  0  0  0  0
   23.4887  -23.2501  -13.7643 O   0  0  0  0  0  0  0  0  0  0  0  0
   23.8382  -20.3609   -8.8578 C   0  0  0  0  0  0  0  0  0  0  0  0
   22.9099  -21.0401   -9.7922 C   0  0  0  0  0  0  0  0  0  0  0  0
   23.1034  -20.8323  -11.2442 C   0  0  2  0  0  0  0  0  0  0  0  0
   23.1945  -19.3219  -11.4814 C   0  0  0  0  0  0  0  0  0  0  0  0
   22.1715  -21.4949  -12.1737 C   0  0  2  0  0  0  0  0  0  0  0  0
   22.7037  -21.1367  -13.5363 N   0  0  0  0  0  0  0  0  0  0  0  0
   20.7991  -21.0257  -12.1475 C   0  0  0  0  0  0  0  0  0  0  0  0
   20.3707  -20.0425  -12.8596 O   0  0  0  0  0  0  0  0  0  0  0  0
   19.8019  -21.5997  -11.3510 O   0  0  0  0  0  0  0  0  0  0  0  0
  2  1  1  6
  2 13  1  0
  2  3  1  0
  3  4  1  0
  4  5  2  0
  4 12  1  0
  5  6  1  0
  6  7  1  0
  7  8  2  0
  8  9  1  0
 10  9  2  0
 11 10  1  0
 12 11  2  0
 12  7  1  0
 13 19  1  0
 14 13  2  0
 16 15  1  1
 16 18  1  0
 17 16  1  0
 18 20  1  0
 18 19  1  1
 20 21  2  0
 20 27  1  0
 23 22  1  0
 23 24  1  0
 24 26  1  0
 24 25  1  1
 26 28  1  0
 26 27  1  6
 28 30  1  0
 29 28  2  0
M  END
$$$$
