WVI.pdb
     RDKit          3D

 30 31  0  0  1  0  0  0  0  0999 V2000
   28.3299  -21.9040  -10.5824 N   0  0  0  0  0  0  0  0  0  0  0  0
   27.0995  -21.1358  -10.3776 C   0  0  1  0  0  0  0  0  0  0  0  0
   27.4313  -19.8402   -9.6635 C   0  0  0  0  0  0  0  0  0  0  0  0
   28.4123  -20.1757   -8.5982 C   0  0  0  0  0  0  0  0  0  0  0  0
   29.6392  -20.7766   -8.7001 C   0  0  0  0  0  0  0  0  0  0  0  0
   30.1339  -20.8841   -7.4659 N   0  0  0  0  0  0  0  0  0  0  0  0
   29.2622  -20.3652   -6.5659 C   0  0  0  0  0  0  0  0  0  0  0  0
   29.2987  -20.2322   -5.1817 C   0  0  0  0  0  0  0  0  0  0  0  0
   28.2376  -19.6399   -4.4897 C   0  0  0  0  0  0  0  0  0  0  0  0
   27.1579  -19.1933   -5.2129 C   0  0  0  0  0  0  0  0  0  0  0  0
   27.1346  -19.3356   -6.5937 C   0  0  0  0  0  0  0  0  0  0  0  0
   28.1757  -19.9154   -7.2544 C   0  0  0  0  0  0  0  0  0  0  0  0
   26.4967  -20.9444  -11.7178 C   0  0  0  0  0  0  0  0  0  0  0  0
   27.1970  -20.5173  -12.6136 O   0  0  0  0  0  0  0  0  0  0  0  0
   25.5898  -23.3743  -13.9545 C   0  0  0  0  0  0  0  0  0  0  0  0
   24.2889  -22.6305  -13.7931 C   0  0  1  0  0  0  0  0  0  0  0  0
   23.5703  -23.3538  -12.6411 C   0  0  0  0  0  0  0  0  0  0  0  0
   24.4936  -21.2105  -13.2716 C   0  0  2  0  0  0  0  0  0  0  0  0
   25.1541  -21.2502  -11.9882 N   0  0  0  0  0  0  0  0  0  0  0  0
   23.1416  -20.6568  -13.0133 C   0  0  0  0  0  0  0  0  0  0  0  0
   22.6619  -20.6366  -11.8221 O   0  0  0  0  0  0  0  0  0  0  0  0
   21.9460  -16.2184  -15.6233 C   0  0  0  0  0  0  0  0  0  0  0  0
   21.9851  -17.2618  -14.5716 C   0  0  0  0  0  0  0  0  0  0  0  0
   20.9199  -18.2885  -14.5655 C   0  0  2  0  0  0  0  0  0  0  0  0
   19.5781  -17.5541  -14.4859 C   0  0  0  0  0  0  0  0  0  0  0  0
   21.0193  -19.3905  -13.5922 C   0  0  2  0  0  0  0  0  0  0  0  0
   22.2772  -20.1152  -13.9934 N   0  0  0  0  0  0  0  0  0  0  0  0
   19.9598  -20.3804  -13.6353 C   0  0  0  0  0  0  0  0  0  0  0  0
   19.8999  -21.3192  -14.5141 O   0  0  0  0  0  0  0  0  0  0  0  0
   18.9009  -20.4183  -12.7212 O   0  0  0  0  0  0  0  0  0  0  0  0
  2  1  1  6
  2 13  1  0
  2  3  1  0
  3  4  1  0
  4  5  2  0
  4 12  1  0
  5  6  1  0
  6  7  1  0
  7  8  2  0
  8  9  1  0
 10  9  2  0
 11 10  1  0
 12 11  2  0
 12  7  1  0
 13 19  1  0
 14 13  2  0
 16 15  1  1
 16 18  1  0
 17 16  1  0
 18 20  1  0
 18 19  1  1
 20 21  2  0
 20 27  1  0
 23 22  1  0
 23 24  1  0
 24 26  1  0
 24 25  1  1
 26 28  1  0
 26 27  1  6
 28 30  1  0
 29 28  2  0
M  END
$$$$
