WVI.pdb
     RDKit          3D

 30 31  0  0  1  0  0  0  0  0999 V2000
   24.1750  -19.6165  -15.4592 N   0  0  0  0  0  0  0  0  0  0  0  0
   24.1215  -20.1326  -14.0892 C   0  0  1  0  0  0  0  0  0  0  0  0
   22.8556  -20.9473  -13.9102 C   0  0  0  0  0  0  0  0  0  0  0  0
   21.7151  -20.0014  -14.0312 C   0  0  0  0  0  0  0  0  0  0  0  0
   21.0662  -19.5563  -15.1526 C   0  0  0  0  0  0  0  0  0  0  0  0
   20.1241  -18.6998  -14.7542 N   0  0  0  0  0  0  0  0  0  0  0  0
   20.1419  -18.5803  -13.4035 C   0  0  0  0  0  0  0  0  0  0  0  0
   19.3808  -17.8339  -12.5097 C   0  0  0  0  0  0  0  0  0  0  0  0
   19.6163  -17.9052  -11.1331 C   0  0  0  0  0  0  0  0  0  0  0  0
   20.6196  -18.7312  -10.6867 C   0  0  0  0  0  0  0  0  0  0  0  0
   21.3726  -19.4678  -11.5910 C   0  0  0  0  0  0  0  0  0  0  0  0
   21.1321  -19.3877  -12.9298 C   0  0  0  0  0  0  0  0  0  0  0  0
   25.3677  -20.9082  -13.8844 C   0  0  0  0  0  0  0  0  0  0  0  0
   25.5674  -21.8811  -14.5837 O   0  0  0  0  0  0  0  0  0  0  0  0
   28.7005  -20.0660  -14.4244 C   0  0  0  0  0  0  0  0  0  0  0  0
   28.7554  -20.4990  -12.9818 C   0  0  1  0  0  0  0  0  0  0  0  0
   28.6561  -19.1893  -12.1810 C   0  0  0  0  0  0  0  0  0  0  0  0
   27.5155  -21.2858  -12.5648 C   0  0  2  0  0  0  0  0  0  0  0  0
   26.3253  -20.5509  -12.9230 N   0  0  0  0  0  0  0  0  0  0  0  0
   27.5275  -21.3376  -11.0822 C   0  0  0  0  0  0  0  0  0  0  0  0
   28.3696  -22.0836  -10.4626 O   0  0  0  0  0  0  0  0  0  0  0  0
   28.6380  -18.6718   -7.0282 C   0  0  0  0  0  0  0  0  0  0  0  0
   28.1898  -19.7755   -7.9098 C   0  0  0  0  0  0  0  0  0  0  0  0
   26.7477  -20.1044   -7.9400 C   0  0  2  0  0  0  0  0  0  0  0  0
   26.3107  -20.3750   -6.4971 C   0  0  0  0  0  0  0  0  0  0  0  0
   26.2900  -21.1482   -8.8740 C   0  0  2  0  0  0  0  0  0  0  0  0
   26.6642  -20.6097  -10.2299 N   0  0  0  0  0  0  0  0  0  0  0  0
   24.8593  -21.3829   -8.9210 C   0  0  0  0  0  0  0  0  0  0  0  0
   24.2382  -22.1525   -8.0968 O   0  0  0  0  0  0  0  0  0  0  0  0
   24.0101  -20.7905   -9.8623 O   0  0  0  0  0  0  0  0  0  0  0  0
  2  1  1  6
  2 13  1  0
  2  3  1  0
  3  4  1  0
  4  5  2  0
  4 12  1  0
  5  6  1  0
  6  7  1  0
  7  8  2  0
  8  9  1  0
 10  9  2  0
 11 10  1  0
 12 11  2  0
 12  7  1  0
 13 19  1  0
 14 13  2  0
 16 15  1  6
 16 18  1  0
 17 16  1  0
 18 20  1  0
 18 19  1  1
 20 21  2  0
 20 27  1  0
 23 22  1  0
 23 24  1  0
 24 26  1  0
 24 25  1  1
 26 28  1  0
 26 27  1  6
 28 30  1  0
 29 28  2  0
M  END
$$$$
