WVI.pdb
     RDKit          3D

 30 31  0  0  1  0  0  0  0  0999 V2000
   28.4236  -24.7897  -17.2361 N   0  0  0  0  0  0  0  0  0  0  0  0
   27.0570  -24.3158  -17.0038 C   0  0  1  0  0  0  0  0  0  0  0  0
   26.2159  -25.4573  -16.4670 C   0  0  0  0  0  0  0  0  0  0  0  0
   25.9464  -26.3675  -17.6110 C   0  0  0  0  0  0  0  0  0  0  0  0
   26.4899  -27.5918  -17.8984 C   0  0  0  0  0  0  0  0  0  0  0  0
   25.9488  -28.0087  -19.0443 N   0  0  0  0  0  0  0  0  0  0  0  0
   25.0656  -27.0892  -19.5062 C   0  0  0  0  0  0  0  0  0  0  0  0
   24.2512  -27.0422  -20.6330 C   0  0  0  0  0  0  0  0  0  0  0  0
   23.4137  -25.9472  -20.8677 C   0  0  0  0  0  0  0  0  0  0  0  0
   23.4167  -24.9188  -19.9564 C   0  0  0  0  0  0  0  0  0  0  0  0
   24.2371  -24.9786  -18.8380 C   0  0  0  0  0  0  0  0  0  0  0  0
   25.0485  -26.0518  -18.6227 C   0  0  0  0  0  0  0  0  0  0  0  0
   27.1645  -23.1634  -16.0783 C   0  0  0  0  0  0  0  0  0  0  0  0
   28.0767  -23.1461  -15.2764 O   0  0  0  0  0  0  0  0  0  0  0  0
   26.0474  -19.7155  -17.4747 C   0  0  0  0  0  0  0  0  0  0  0  0
   25.6594  -19.7367  -16.0185 C   0  0  1  0  0  0  0  0  0  0  0  0
   24.1527  -20.0474  -16.0242 C   0  0  0  0  0  0  0  0  0  0  0  0
   26.2798  -20.9137  -15.2701 C   0  0  2  0  0  0  0  0  0  0  0  0
   26.2597  -22.0912  -16.1055 N   0  0  0  0  0  0  0  0  0  0  0  0
   25.3780  -21.2116  -14.1302 C   0  0  0  0  0  0  0  0  0  0  0  0
   24.3552  -21.9719  -14.2893 O   0  0  0  0  0  0  0  0  0  0  0  0
   27.0940  -20.3782   -8.9314 C   0  0  0  0  0  0  0  0  0  0  0  0
   26.4082  -21.0439  -10.0640 C   0  0  0  0  0  0  0  0  0  0  0  0
   25.1104  -20.4954  -10.5153 C   0  0  2  0  0  0  0  0  0  0  0  0
   24.1497  -20.5562   -9.3240 C   0  0  0  0  0  0  0  0  0  0  0  0
   24.5153  -21.0383  -11.7493 C   0  0  2  0  0  0  0  0  0  0  0  0
   25.5350  -20.7229  -12.8119 N   0  0  0  0  0  0  0  0  0  0  0  0
   23.2789  -20.4205  -12.1895 C   0  0  0  0  0  0  0  0  0  0  0  0
   22.1224  -20.9693  -12.0527 O   0  0  0  0  0  0  0  0  0  0  0  0
   23.2188  -19.1629  -12.8003 O   0  0  0  0  0  0  0  0  0  0  0  0
  2  1  1  1
  2 13  1  0
  2  3  1  0
  3  4  1  0
  4  5  2  0
  4 12  1  0
  5  6  1  0
  6  7  1  0
  7  8  2  0
  8  9  1  0
 10  9  2  0
 11 10  1  0
 12 11  2  0
 12  7  1  0
 13 19  1  0
 14 13  2  0
 16 15  1  6
 16 18  1  0
 17 16  1  0
 18 20  1  0
 18 19  1  6
 20 21  2  0
 20 27  1  0
 23 22  1  0
 23 24  1  0
 24 26  1  0
 24 25  1  1
 26 28  1  0
 26 27  1  6
 28 30  1  0
 29 28  2  0
M  END
$$$$
