WVI.pdb
     RDKit          3D

 30 31  0  0  1  0  0  0  0  0999 V2000
  -23.0948  -48.0441  -36.4012 N   0  0  0  0  0  0  0  0  0  0  0  0
  -23.0933  -47.2090  -37.6048 C   0  0  1  0  0  0  0  0  0  0  0  0
  -24.5111  -46.7663  -37.9086 C   0  0  0  0  0  0  0  0  0  0  0  0
  -25.1699  -47.8929  -38.6207 C   0  0  0  0  0  0  0  0  0  0  0  0
  -24.9924  -49.2429  -38.4700 C   0  0  0  0  0  0  0  0  0  0  0  0
  -25.7914  -49.8502  -39.3490 N   0  0  0  0  0  0  0  0  0  0  0  0
  -26.4856  -48.9300  -40.0634 C   0  0  0  0  0  0  0  0  0  0  0  0
  -27.4302  -49.0369  -41.0789 C   0  0  0  0  0  0  0  0  0  0  0  0
  -28.0024  -47.8956  -41.6496 C   0  0  0  0  0  0  0  0  0  0  0  0
  -27.6064  -46.6660  -41.1813 C   0  0  0  0  0  0  0  0  0  0  0  0
  -26.6604  -46.5751  -40.1692 C   0  0  0  0  0  0  0  0  0  0  0  0
  -26.1110  -47.6961  -39.6231 C   0  0  0  0  0  0  0  0  0  0  0  0
  -22.1600  -46.0894  -37.3372 C   0  0  0  0  0  0  0  0  0  0  0  0
  -21.7633  -45.9234  -36.2012 O   0  0  0  0  0  0  0  0  0  0  0  0
  -24.3478  -45.8904  -38.2709 C   0  0  0  0  0  0  0  0  0  0  0  0
  -23.9916  -44.5441  -38.8473 C   0  0  1  0  0  0  0  0  0  0  0  0
  -24.0997  -43.5738  -37.6585 C   0  0  0  0  0  0  0  0  0  0  0  0
  -22.5254  -44.4612  -39.2639 C   0  0  2  0  0  0  0  0  0  0  0  0
  -21.7118  -45.2268  -38.3492 N   0  0  0  0  0  0  0  0  0  0  0  0
  -22.1147  -43.0470  -39.0834 C   0  0  0  0  0  0  0  0  0  0  0  0
  -22.5298  -42.1392  -39.8914 O   0  0  0  0  0  0  0  0  0  0  0  0
  -23.2676  -40.5891  -34.8686 C   0  0  0  0  0  0  0  0  0  0  0  0
  -22.6822  -41.2343  -36.0675 C   0  0  0  0  0  0  0  0  0  0  0  0
  -22.4487  -42.6948  -36.0317 C   0  0  2  0  0  0  0  0  0  0  0  0
  -22.5461  -43.1371  -34.5685 C   0  0  0  0  0  0  0  0  0  0  0  0
  -21.2495  -43.2258  -36.7038 C   0  0  2  0  0  0  0  0  0  0  0  0
  -21.2700  -42.5640  -38.0565 N   0  0  0  0  0  0  0  0  0  0  0  0
  -21.2386  -44.6535  -36.9603 C   0  0  0  0  0  0  0  0  0  0  0  0
  -21.1421  -45.5412  -36.0329 O   0  0  0  0  0  0  0  0  0  0  0  0
  -21.3393  -45.2087  -38.2408 O   0  0  0  0  0  0  0  0  0  0  0  0
  2  1  1  1
  2 13  1  0
  2  3  1  0
  3  4  1  0
  4  5  2  0
  4 12  1  0
  5  6  1  0
  6  7  1  0
  7  8  2  0
  8  9  1  0
 10  9  2  0
 11 10  1  0
 12 11  2  0
 12  7  1  0
 13 19  1  0
 14 13  2  0
 16 15  1  1
 16 18  1  0
 17 16  1  0
 18 20  1  0
 18 19  1  1
 20 21  2  0
 20 27  1  0
 23 22  1  0
 23 24  1  0
 24 26  1  0
 24 25  1  1
 26 28  1  0
 26 27  1  6
 28 30  1  0
 29 28  2  0
M  END
$$$$
