WVI.pdb
     RDKit          3D

 30 31  0  0  1  0  0  0  0  0999 V2000
   27.7689  -21.8222  -14.7683 N   0  0  0  0  0  0  0  0  0  0  0  0
   26.6632  -21.4768  -13.8714 C   0  0  1  0  0  0  0  0  0  0  0  0
   26.8450  -20.0552  -13.3772 C   0  0  0  0  0  0  0  0  0  0  0  0
   27.8950  -20.0966  -12.3257 C   0  0  0  0  0  0  0  0  0  0  0  0
   29.2132  -19.7297  -12.3943 C   0  0  0  0  0  0  0  0  0  0  0  0
   29.7569  -19.9726  -11.2006 N   0  0  0  0  0  0  0  0  0  0  0  0
   28.8256  -20.4838  -10.3578 C   0  0  0  0  0  0  0  0  0  0  0  0
   28.8755  -20.8951   -9.0299 C   0  0  0  0  0  0  0  0  0  0  0  0
   27.7357  -21.3914   -8.3893 C   0  0  0  0  0  0  0  0  0  0  0  0
   26.5657  -21.4626   -9.1061 C   0  0  0  0  0  0  0  0  0  0  0  0
   26.5320  -21.0510  -10.4316 C   0  0  0  0  0  0  0  0  0  0  0  0
   27.6508  -20.5701  -11.0429 C   0  0  0  0  0  0  0  0  0  0  0  0
   25.4158  -21.6885  -14.6429 C   0  0  0  0  0  0  0  0  0  0  0  0
   25.3715  -21.3001  -15.7930 O   0  0  0  0  0  0  0  0  0  0  0  0
   23.7228  -24.8562  -13.9491 C   0  0  0  0  0  0  0  0  0  0  0  0
   22.7161  -24.0634  -14.7426 C   0  0  1  0  0  0  0  0  0  0  0  0
   21.4117  -24.1764  -13.9351 C   0  0  0  0  0  0  0  0  0  0  0  0
   23.0257  -22.5686  -14.7434 C   0  0  2  0  0  0  0  0  0  0  0  0
   24.2942  -22.3305  -14.0961 N   0  0  0  0  0  0  0  0  0  0  0  0
   22.0045  -21.9258  -13.8802 C   0  0  0  0  0  0  0  0  0  0  0  0
   22.0881  -22.0056  -12.6012 O   0  0  0  0  0  0  0  0  0  0  0  0
   19.3947  -16.6395  -13.4218 C   0  0  0  0  0  0  0  0  0  0  0  0
   19.2428  -18.0696  -13.0641 C   0  0  0  0  0  0  0  0  0  0  0  0
   20.0607  -19.0634  -13.7937 C   0  0  2  0  0  0  0  0  0  0  0  0
   19.7743  -18.8825  -15.2874 C   0  0  0  0  0  0  0  0  0  0  0  0
   19.9862  -20.4731  -13.3709 C   0  0  2  0  0  0  0  0  0  0  0  0
   20.8876  -21.1900  -14.3414 N   0  0  0  0  0  0  0  0  0  0  0  0
   18.6883  -21.1097  -13.4899 C   0  0  0  0  0  0  0  0  0  0  0  0
   17.7615  -21.0049  -12.6026 O   0  0  0  0  0  0  0  0  0  0  0  0
   18.3111  -21.8953  -14.5848 O   0  0  0  0  0  0  0  0  0  0  0  0
  2  1  1  6
  2 13  1  0
  2  3  1  0
  3  4  1  0
  4  5  2  0
  4 12  1  0
  5  6  1  0
  6  7  1  0
  7  8  2  0
  8  9  1  0
 10  9  2  0
 11 10  1  0
 12 11  2  0
 12  7  1  0
 13 19  1  0
 14 13  2  0
 16 15  1  1
 16 18  1  0
 17 16  1  0
 18 20  1  0
 18 19  1  1
 20 21  2  0
 20 27  1  0
 23 22  1  0
 23 24  1  0
 24 26  1  0
 24 25  1  6
 26 28  1  0
 26 27  1  6
 28 30  1  0
 29 28  2  0
M  END
$$$$
