WVI.pdb
     RDKit          3D

 30 31  0  0  1  0  0  0  0  0999 V2000
   25.1163  -21.5781  -14.9980 N   0  0  0  0  0  0  0  0  0  0  0  0
   26.2267  -21.6427  -14.0446 C   0  0  1  0  0  0  0  0  0  0  0  0
   27.5317  -21.4071  -14.7792 C   0  0  0  0  0  0  0  0  0  0  0  0
   28.6227  -21.5846  -13.7852 C   0  0  0  0  0  0  0  0  0  0  0  0
   29.1041  -22.7332  -13.2143 C   0  0  0  0  0  0  0  0  0  0  0  0
   30.0705  -22.3809  -12.3647 N   0  0  0  0  0  0  0  0  0  0  0  0
   30.2317  -21.0344  -12.3721 C   0  0  0  0  0  0  0  0  0  0  0  0
   31.0881  -20.1804  -11.6849 C   0  0  0  0  0  0  0  0  0  0  0  0
   31.0417  -18.7982  -11.8926 C   0  0  0  0  0  0  0  0  0  0  0  0
   30.1275  -18.3060  -12.7927 C   0  0  0  0  0  0  0  0  0  0  0  0
   29.2775  -19.1706  -13.4689 C   0  0  0  0  0  0  0  0  0  0  0  0
   29.3338  -20.5152  -13.2558 C   0  0  0  0  0  0  0  0  0  0  0  0
   25.9384  -20.6355  -12.9963 C   0  0  0  0  0  0  0  0  0  0  0  0
   25.8904  -19.4642  -13.3144 O   0  0  0  0  0  0  0  0  0  0  0  0
   23.1176  -19.6296  -11.7080 C   0  0  0  0  0  0  0  0  0  0  0  0
   23.7984  -20.0959  -10.4468 C   0  0  1  0  0  0  0  0  0  0  0  0
   23.4173  -21.5815  -10.3281 C   0  0  0  0  0  0  0  0  0  0  0  0
   25.3190  -20.1107  -10.5801 C   0  0  2  0  0  0  0  0  0  0  0  0
   25.7080  -20.9891  -11.6581 N   0  0  0  0  0  0  0  0  0  0  0  0
   25.8452  -20.7341   -9.3409 C   0  0  0  0  0  0  0  0  0  0  0  0
   26.0072  -22.0061   -9.2690 O   0  0  0  0  0  0  0  0  0  0  0  0
   29.4797  -19.4258   -4.5982 C   0  0  0  0  0  0  0  0  0  0  0  0
   28.4779  -20.3425   -5.1918 C   0  0  0  0  0  0  0  0  0  0  0  0
   27.7261  -19.8818   -6.3798 C   0  0  2  0  0  0  0  0  0  0  0  0
   27.1627  -18.4952   -6.0543 C   0  0  0  0  0  0  0  0  0  0  0  0
   26.7120  -20.7826   -6.9556 C   0  0  2  0  0  0  0  0  0  0  0  0
   26.2114  -20.0377   -8.1652 N   0  0  0  0  0  0  0  0  0  0  0  0
   25.5433  -21.0390   -6.1354 C   0  0  0  0  0  0  0  0  0  0  0  0
   24.4329  -20.4000   -6.2615 O   0  0  0  0  0  0  0  0  0  0  0  0
   25.5038  -22.0117   -5.1302 O   0  0  0  0  0  0  0  0  0  0  0  0
  2  1  1  6
  2 13  1  0
  2  3  1  0
  3  4  1  0
  4  5  2  0
  4 12  1  0
  5  6  1  0
  6  7  1  0
  7  8  2  0
  8  9  1  0
 10  9  2  0
 11 10  1  0
 12 11  2  0
 12  7  1  0
 13 19  1  0
 14 13  2  0
 16 15  1  6
 16 18  1  0
 17 16  1  0
 18 20  1  0
 18 19  1  6
 20 21  2  0
 20 27  1  0
 23 22  1  0
 23 24  1  0
 24 26  1  0
 24 25  1  1
 26 28  1  0
 26 27  1  6
 28 30  1  0
 29 28  2  0
M  END
$$$$
