WVI.pdb
     RDKit          3D

 30 31  0  0  1  0  0  0  0  0999 V2000
   24.9242  -21.6256  -13.3153 N   0  0  0  0  0  0  0  0  0  0  0  0
   24.7039  -21.0578  -11.9829 C   0  0  1  0  0  0  0  0  0  0  0  0
   23.2692  -21.3091  -11.5627 C   0  0  0  0  0  0  0  0  0  0  0  0
   22.4347  -20.2897  -12.2513 C   0  0  0  0  0  0  0  0  0  0  0  0
   22.5715  -19.7518  -13.5039 C   0  0  0  0  0  0  0  0  0  0  0  0
   21.5933  -18.8588  -13.6629 N   0  0  0  0  0  0  0  0  0  0  0  0
   20.8229  -18.8056  -12.5482 C   0  0  0  0  0  0  0  0  0  0  0  0
   19.7004  -18.0574  -12.2088 C   0  0  0  0  0  0  0  0  0  0  0  0
   19.0874  -18.2092  -10.9610 C   0  0  0  0  0  0  0  0  0  0  0  0
   19.6234  -19.1163  -10.0791 C   0  0  0  0  0  0  0  0  0  0  0  0
   20.7457  -19.8538  -10.4309 C   0  0  0  0  0  0  0  0  0  0  0  0
   21.3328  -19.6947  -11.6502 C   0  0  0  0  0  0  0  0  0  0  0  0
   25.7085  -21.6819  -11.0899 C   0  0  0  0  0  0  0  0  0  0  0  0
   25.5673  -22.8488  -10.7834 O   0  0  0  0  0  0  0  0  0  0  0  0
   29.5712  -19.7938  -10.4330 C   0  0  0  0  0  0  0  0  0  0  0  0
   29.2177  -21.2547  -10.3221 C   0  0  1  0  0  0  0  0  0  0  0  0
   30.1919  -21.8094   -9.2687 C   0  0  0  0  0  0  0  0  0  0  0  0
   27.8384  -21.4724   -9.7053 C   0  0  2  0  0  0  0  0  0  0  0  0
   26.8182  -20.9771  -10.5991 N   0  0  0  0  0  0  0  0  0  0  0  0
   27.7739  -20.6091   -8.5004 C   0  0  0  0  0  0  0  0  0  0  0  0
   27.1298  -19.4983   -8.5278 O   0  0  0  0  0  0  0  0  0  0  0  0
   28.4979  -22.7165   -3.3790 C   0  0  0  0  0  0  0  0  0  0  0  0
   27.9282  -21.8698   -4.4537 C   0  0  0  0  0  0  0  0  0  0  0  0
   28.7287  -20.7245   -4.9398 C   0  0  2  0  0  0  0  0  0  0  0  0
   29.0385  -19.8377   -3.7301 C   0  0  0  0  0  0  0  0  0  0  0  0
   28.2189  -19.9551   -6.0885 C   0  0  2  0  0  0  0  0  0  0  0  0
   28.3771  -20.8965   -7.2535 N   0  0  0  0  0  0  0  0  0  0  0  0
   28.9627  -18.7602   -6.4398 C   0  0  0  0  0  0  0  0  0  0  0  0
   30.0353  -18.7746   -7.1515 O   0  0  0  0  0  0  0  0  0  0  0  0
   28.5844  -17.4717   -6.0464 O   0  0  0  0  0  0  0  0  0  0  0  0
  2  1  1  6
  2 13  1  0
  2  3  1  0
  3  4  1  0
  4  5  2  0
  4 12  1  0
  5  6  1  0
  6  7  1  0
  7  8  2  0
  8  9  1  0
 10  9  2  0
 11 10  1  0
 12 11  2  0
 12  7  1  0
 13 19  1  0
 14 13  2  0
 16 15  1  1
 16 18  1  0
 17 16  1  0
 18 20  1  0
 18 19  1  6
 20 21  2  0
 20 27  1  0
 23 22  1  0
 23 24  1  0
 24 26  1  0
 24 25  1  1
 26 28  1  0
 26 27  1  6
 28 30  1  0
 29 28  2  0
M  END
$$$$
