WVI.pdb
     RDKit          3D

 30 31  0  0  1  0  0  0  0  0999 V2000
   21.9716  -21.4530  -15.1244 N   0  0  0  0  0  0  0  0  0  0  0  0
   22.6132  -20.4845  -14.2319 C   0  0  1  0  0  0  0  0  0  0  0  0
   21.5459  -19.6845  -13.5113 C   0  0  0  0  0  0  0  0  0  0  0  0
   20.8163  -18.9089  -14.5486 C   0  0  0  0  0  0  0  0  0  0  0  0
   19.5699  -19.1172  -15.0777 C   0  0  0  0  0  0  0  0  0  0  0  0
   19.3630  -18.1704  -15.9945 N   0  0  0  0  0  0  0  0  0  0  0  0
   20.4407  -17.3508  -16.0716 C   0  0  0  0  0  0  0  0  0  0  0  0
   20.7255  -16.2331  -16.8492 C   0  0  0  0  0  0  0  0  0  0  0  0
   21.9439  -15.5593  -16.7179 C   0  0  0  0  0  0  0  0  0  0  0  0
   22.8524  -16.0307  -15.8012 C   0  0  0  0  0  0  0  0  0  0  0  0
   22.5551  -17.1491  -15.0342 C   0  0  0  0  0  0  0  0  0  0  0  0
   21.3639  -17.7958  -15.1735 C   0  0  0  0  0  0  0  0  0  0  0  0
   23.4906  -21.2649  -13.3277 C   0  0  0  0  0  0  0  0  0  0  0  0
   23.0647  -22.3004  -12.8569 O   0  0  0  0  0  0  0  0  0  0  0  0
   26.7083  -21.5843  -14.6100 C   0  0  0  0  0  0  0  0  0  0  0  0
   26.9754  -21.9190  -13.1650 C   0  0  1  0  0  0  0  0  0  0  0  0
   28.0543  -20.9132  -12.7281 C   0  0  0  0  0  0  0  0  0  0  0  0
   25.7834  -21.6008  -12.2661 C   0  0  2  0  0  0  0  0  0  0  0  0
   24.7944  -20.8558  -13.0089 N   0  0  0  0  0  0  0  0  0  0  0  0
   26.2808  -20.6774  -11.2167 C   0  0  0  0  0  0  0  0  0  0  0  0
   26.3456  -19.4139  -11.4374 O   0  0  0  0  0  0  0  0  0  0  0  0
   24.5542  -20.9806   -6.2763 C   0  0  0  0  0  0  0  0  0  0  0  0
   25.1448  -20.5181   -7.5544 C   0  0  0  0  0  0  0  0  0  0  0  0
   26.6191  -20.4541   -7.6605 C   0  0  2  0  0  0  0  0  0  0  0  0
   27.1263  -19.6211   -6.4795 C   0  0  0  0  0  0  0  0  0  0  0  0
   27.2081  -20.0320   -8.9437 C   0  0  2  0  0  0  0  0  0  0  0  0
   26.7124  -21.0612   -9.9253 N   0  0  0  0  0  0  0  0  0  0  0  0
   28.6559  -20.0689   -9.0267 C   0  0  0  0  0  0  0  0  0  0  0  0
   29.3197  -21.1062   -9.4018 O   0  0  0  0  0  0  0  0  0  0  0  0
   29.4753  -18.9784   -8.7146 O   0  0  0  0  0  0  0  0  0  0  0  0
  2  1  1  6
  2 13  1  0
  2  3  1  0
  3  4  1  0
  4  5  2  0
  4 12  1  0
  5  6  1  0
  6  7  1  0
  7  8  2  0
  8  9  1  0
 10  9  2  0
 11 10  1  0
 12 11  2  0
 12  7  1  0
 13 19  1  0
 14 13  2  0
 16 15  1  6
 16 18  1  0
 17 16  1  0
 18 20  1  0
 18 19  1  6
 20 21  2  0
 20 27  1  0
 23 22  1  0
 23 24  1  0
 24 26  1  0
 24 25  1  1
 26 28  1  0
 26 27  1  6
 28 30  1  0
 29 28  2  0
M  END
$$$$
