WVI.pdb
     RDKit          3D

 30 31  0  0  1  0  0  0  0  0999 V2000
   23.5021  -21.9377  -13.3363 N   0  0  0  0  0  0  0  0  0  0  0  0
   23.7557  -20.8969  -12.3370 C   0  0  1  0  0  0  0  0  0  0  0  0
   22.4425  -20.4787  -11.7055 C   0  0  0  0  0  0  0  0  0  0  0  0
   21.4953  -20.2122  -12.8198 C   0  0  0  0  0  0  0  0  0  0  0  0
   20.3941  -20.9235  -13.2175 C   0  0  0  0  0  0  0  0  0  0  0  0
   19.8806  -20.3016  -14.2801 N   0  0  0  0  0  0  0  0  0  0  0  0
   20.6171  -19.2032  -14.5802 C   0  0  0  0  0  0  0  0  0  0  0  0
   20.5081  -18.2327  -15.5708 C   0  0  0  0  0  0  0  0  0  0  0  0
   21.4261  -17.1806  -15.6486 C   0  0  0  0  0  0  0  0  0  0  0  0
   22.4388  -17.1311  -14.7212 C   0  0  0  0  0  0  0  0  0  0  0  0
   22.5364  -18.1085  -13.7401 C   0  0  0  0  0  0  0  0  0  0  0  0
   21.6348  -19.1282  -13.6771 C   0  0  0  0  0  0  0  0  0  0  0  0
   24.7287  -21.4671  -11.3755 C   0  0  0  0  0  0  0  0  0  0  0  0
   24.4592  -22.5196  -10.8323 O   0  0  0  0  0  0  0  0  0  0  0  0
   28.3282  -21.9918  -12.2416 C   0  0  0  0  0  0  0  0  0  0  0  0
   28.3396  -21.2611  -10.9234 C   0  0  1  0  0  0  0  0  0  0  0  0
   28.4870  -19.7781  -11.3047 C   0  0  0  0  0  0  0  0  0  0  0  0
   26.9916  -21.3303  -10.2103 C   0  0  2  0  0  0  0  0  0  0  0  0
   25.9500  -20.8413  -11.0825 N   0  0  0  0  0  0  0  0  0  0  0  0
   27.0603  -20.3675   -9.0836 C   0  0  0  0  0  0  0  0  0  0  0  0
   26.5587  -19.1910   -9.1998 O   0  0  0  0  0  0  0  0  0  0  0  0
   27.4741  -22.0737   -3.8164 C   0  0  0  0  0  0  0  0  0  0  0  0
   27.0975  -21.3114   -5.0302 C   0  0  0  0  0  0  0  0  0  0  0  0
   28.0401  -20.2881   -5.5334 C   0  0  2  0  0  0  0  0  0  0  0  0
   28.3658  -19.3530   -4.3648 C   0  0  0  0  0  0  0  0  0  0  0  0
   27.6833  -19.5550   -6.7609 C   0  0  2  0  0  0  0  0  0  0  0  0
   27.6496  -20.6224   -7.8230 N   0  0  0  0  0  0  0  0  0  0  0  0
   28.6429  -18.5686   -7.2196 C   0  0  0  0  0  0  0  0  0  0  0  0
   29.7373  -18.8708   -7.8265 O   0  0  0  0  0  0  0  0  0  0  0  0
   28.4714  -17.1896   -7.0549 O   0  0  0  0  0  0  0  0  0  0  0  0
  2  1  1  6
  2 13  1  0
  2  3  1  0
  3  4  1  0
  4  5  2  0
  4 12  1  0
  5  6  1  0
  6  7  1  0
  7  8  2  0
  8  9  1  0
 10  9  2  0
 11 10  1  0
 12 11  2  0
 12  7  1  0
 13 19  1  0
 14 13  2  0
 16 15  1  6
 16 18  1  0
 17 16  1  0
 18 20  1  0
 18 19  1  6
 20 21  2  0
 20 27  1  0
 23 22  1  0
 23 24  1  0
 24 26  1  0
 24 25  1  1
 26 28  1  0
 26 27  1  6
 28 30  1  0
 29 28  2  0
M  END
$$$$
