WVI.pdb
     RDKit          3D

 30 31  0  0  1  0  0  0  0  0999 V2000
   25.7784  -22.7405  -17.9305 N   0  0  0  0  0  0  0  0  0  0  0  0
   25.0151  -22.6664  -16.6822 C   0  0  1  0  0  0  0  0  0  0  0  0
   24.2567  -23.9637  -16.4815 C   0  0  0  0  0  0  0  0  0  0  0  0
   23.1515  -23.9736  -17.4757 C   0  0  0  0  0  0  0  0  0  0  0  0
   23.0375  -24.6761  -18.6463 C   0  0  0  0  0  0  0  0  0  0  0  0
   21.8749  -24.3346  -19.2043 N   0  0  0  0  0  0  0  0  0  0  0  0
   21.2295  -23.4318  -18.4249 C   0  0  0  0  0  0  0  0  0  0  0  0
   20.0098  -22.7748  -18.5498 C   0  0  0  0  0  0  0  0  0  0  0  0
   19.5759  -21.8751  -17.5711 C   0  0  0  0  0  0  0  0  0  0  0  0
   20.3864  -21.6566  -16.4833 C   0  0  0  0  0  0  0  0  0  0  0  0
   21.6024  -22.3176  -16.3738 C   0  0  0  0  0  0  0  0  0  0  0  0
   22.0123  -23.1912  -17.3358 C   0  0  0  0  0  0  0  0  0  0  0  0
   25.9939  -22.3719  -15.6091 C   0  0  0  0  0  0  0  0  0  0  0  0
   27.1251  -22.7999  -15.7219 O   0  0  0  0  0  0  0  0  0  0  0  0
   27.4201  -19.2350  -14.9792 C   0  0  0  0  0  0  0  0  0  0  0  0
   26.7310  -19.5751  -13.6827 C   0  0  1  0  0  0  0  0  0  0  0  0
   25.2913  -19.0646  -13.8645 C   0  0  0  0  0  0  0  0  0  0  0  0
   26.5709  -21.0807  -13.4886 C   0  0  2  0  0  0  0  0  0  0  0  0
   25.6628  -21.6088  -14.4791 N   0  0  0  0  0  0  0  0  0  0  0  0
   25.8959  -21.2682  -12.1807 C   0  0  0  0  0  0  0  0  0  0  0  0
   24.6462  -21.5596  -12.1278 O   0  0  0  0  0  0  0  0  0  0  0  0
   26.9552  -19.7578   -6.2635 C   0  0  0  0  0  0  0  0  0  0  0  0
   26.1053  -20.4625   -7.2521 C   0  0  0  0  0  0  0  0  0  0  0  0
   26.5774  -20.5378   -8.6522 C   0  0  2  0  0  0  0  0  0  0  0  0
   27.0204  -19.1298   -9.0612 C   0  0  0  0  0  0  0  0  0  0  0  0
   25.6958  -21.1655   -9.6524 C   0  0  2  0  0  0  0  0  0  0  0  0
   26.5174  -21.1572  -10.9147 N   0  0  0  0  0  0  0  0  0  0  0  0
   24.4745  -20.4496   -9.9688 C   0  0  0  0  0  0  0  0  0  0  0  0
   24.4360  -19.4123  -10.7301 O   0  0  0  0  0  0  0  0  0  0  0  0
   23.2150  -20.8195   -9.4840 O   0  0  0  0  0  0  0  0  0  0  0  0
  2  1  1  6
  2 13  1  0
  2  3  1  0
  3  4  1  0
  4  5  2  0
  4 12  1  0
  5  6  1  0
  6  7  1  0
  7  8  2  0
  8  9  1  0
 10  9  2  0
 11 10  1  0
 12 11  2  0
 12  7  1  0
 13 19  1  0
 14 13  2  0
 16 15  1  6
 16 18  1  0
 17 16  1  0
 18 20  1  0
 18 19  1  6
 20 21  2  0
 20 27  1  0
 23 22  1  0
 23 24  1  0
 24 26  1  0
 24 25  1  6
 26 28  1  0
 26 27  1  6
 28 30  1  0
 29 28  2  0
M  END
$$$$
