WVI.pdb
     RDKit          3D

 30 31  0  0  1  0  0  0  0  0999 V2000
   24.1496  -20.9983  -14.1779 N   0  0  0  0  0  0  0  0  0  0  0  0
   24.0353  -20.9986  -12.7174 C   0  0  1  0  0  0  0  0  0  0  0  0
   22.8450  -21.8439  -12.3086 C   0  0  0  0  0  0  0  0  0  0  0  0
   21.6271  -21.0508  -12.6209 C   0  0  0  0  0  0  0  0  0  0  0  0
   20.9534  -20.9171  -13.8063 C   0  0  0  0  0  0  0  0  0  0  0  0
   19.9355  -20.0814  -13.5939 N   0  0  0  0  0  0  0  0  0  0  0  0
   19.9285  -19.6721  -12.3010 C   0  0  0  0  0  0  0  0  0  0  0  0
   19.0953  -18.8207  -11.5828 C   0  0  0  0  0  0  0  0  0  0  0  0
   19.3216  -18.5722  -10.2253 C   0  0  0  0  0  0  0  0  0  0  0  0
   20.3888  -19.1908   -9.6199 C   0  0  0  0  0  0  0  0  0  0  0  0
   21.2133  -20.0357  -10.3505 C   0  0  0  0  0  0  0  0  0  0  0  0
   20.9808  -20.2679  -11.6729 C   0  0  0  0  0  0  0  0  0  0  0  0
   25.3306  -21.4949  -12.1956 C   0  0  0  0  0  0  0  0  0  0  0  0
   25.5689  -22.6837  -12.2693 O   0  0  0  0  0  0  0  0  0  0  0  0
   28.5336  -18.7440  -11.1098 C   0  0  0  0  0  0  0  0  0  0  0  0
   28.6740  -20.2156  -11.4037 C   0  0  1  0  0  0  0  0  0  0  0  0
   29.8378  -20.6790  -10.5107 C   0  0  0  0  0  0  0  0  0  0  0  0
   27.4780  -21.0231  -10.9059 C   0  0  2  0  0  0  0  0  0  0  0  0
   26.2911  -20.6401  -11.6336 N   0  0  0  0  0  0  0  0  0  0  0  0
   27.2428  -20.6068   -9.5015 C   0  0  0  0  0  0  0  0  0  0  0  0
   26.2922  -19.7928   -9.2130 O   0  0  0  0  0  0  0  0  0  0  0  0
   29.7333  -21.4607   -3.8459 C   0  0  0  0  0  0  0  0  0  0  0  0
   28.6639  -20.8859   -4.6957 C   0  0  0  0  0  0  0  0  0  0  0  0
   28.7126  -21.1452   -6.1514 C   0  0  2  0  0  0  0  0  0  0  0  0
   30.1541  -20.9054   -6.6101 C   0  0  0  0  0  0  0  0  0  0  0  0
   27.7259  -20.4705   -7.0132 C   0  0  2  0  0  0  0  0  0  0  0  0
   27.9939  -21.0374   -8.3826 N   0  0  0  0  0  0  0  0  0  0  0  0
   27.8669  -19.0328   -7.1441 C   0  0  0  0  0  0  0  0  0  0  0  0
   28.6370  -18.4702   -8.0088 O   0  0  0  0  0  0  0  0  0  0  0  0
   27.1741  -18.1134   -6.3484 O   0  0  0  0  0  0  0  0  0  0  0  0
  2  1  1  6
  2 13  1  0
  2  3  1  0
  3  4  1  0
  4  5  2  0
  4 12  1  0
  5  6  1  0
  6  7  1  0
  7  8  2  0
  8  9  1  0
 10  9  2  0
 11 10  1  0
 12 11  2  0
 12  7  1  0
 13 19  1  0
 14 13  2  0
 16 15  1  1
 16 18  1  0
 17 16  1  0
 18 20  1  0
 18 19  1  6
 20 21  2  0
 20 27  1  0
 23 22  1  0
 23 24  1  0
 24 26  1  0
 24 25  1  6
 26 28  1  0
 26 27  1  6
 28 30  1  0
 29 28  2  0
M  END
$$$$
