WVI.pdb
     RDKit          3D

 30 31  0  0  1  0  0  0  0  0999 V2000
   23.9970  -35.8121  -12.4878 N   0  0  0  0  0  0  0  0  0  0  0  0
   23.5200  -35.0037  -11.3629 C   0  0  1  0  0  0  0  0  0  0  0  0
   22.0249  -35.1985  -11.2049 C   0  0  0  0  0  0  0  0  0  0  0  0
   21.3757  -34.4711  -12.3271 C   0  0  0  0  0  0  0  0  0  0  0  0
   21.0195  -34.9238  -13.5701 C   0  0  0  0  0  0  0  0  0  0  0  0
   20.4897  -33.8941  -14.2324 N   0  0  0  0  0  0  0  0  0  0  0  0
   20.4891  -32.7859  -13.4507 C   0  0  0  0  0  0  0  0  0  0  0  0
   20.0554  -31.4809  -13.6600 C   0  0  0  0  0  0  0  0  0  0  0  0
   20.1744  -30.5155  -12.6553 C   0  0  0  0  0  0  0  0  0  0  0  0
   20.7314  -30.8898  -11.4562 C   0  0  0  0  0  0  0  0  0  0  0  0
   21.1622  -32.1954  -11.2631 C   0  0  0  0  0  0  0  0  0  0  0  0
   21.0404  -33.1252  -12.2517 C   0  0  0  0  0  0  0  0  0  0  0  0
   24.3079  -35.4247  -10.1804 C   0  0  0  0  0  0  0  0  0  0  0  0
   24.5005  -36.6109  -10.0036 O   0  0  0  0  0  0  0  0  0  0  0  0
   27.3262  -33.4785   -9.5337 C   0  0  0  0  0  0  0  0  0  0  0  0
   26.9000  -33.8586   -8.1389 C   0  0  1  0  0  0  0  0  0  0  0  0
   26.3662  -32.5517   -7.5279 C   0  0  0  0  0  0  0  0  0  0  0  0
   25.6921  -34.7921   -8.1357 C   0  0  2  0  0  0  0  0  0  0  0  0
   24.8463  -34.5029   -9.2696 N   0  0  0  0  0  0  0  0  0  0  0  0
   24.8925  -34.4434   -6.9357 C   0  0  0  0  0  0  0  0  0  0  0  0
   24.2209  -33.3494   -6.8949 O   0  0  0  0  0  0  0  0  0  0  0  0
   22.1354  -38.3010   -4.4775 C   0  0  0  0  0  0  0  0  0  0  0  0
   22.6545  -37.0266   -5.0277 C   0  0  0  0  0  0  0  0  0  0  0  0
   23.3674  -36.1088   -4.1121 C   0  0  2  0  0  0  0  0  0  0  0  0
   22.4881  -35.9274   -2.8712 C   0  0  0  0  0  0  0  0  0  0  0  0
   23.8559  -34.8271   -4.6506 C   0  0  2  0  0  0  0  0  0  0  0  0
   24.7817  -35.2330   -5.7671 N   0  0  0  0  0  0  0  0  0  0  0  0
   24.6523  -34.0158   -3.7496 C   0  0  0  0  0  0  0  0  0  0  0  0
   25.9206  -34.1680   -3.5897 O   0  0  0  0  0  0  0  0  0  0  0  0
   24.1228  -32.9815   -2.9698 O   0  0  0  0  0  0  0  0  0  0  0  0
  2  1  1  6
  2 13  1  0
  2  3  1  0
  3  4  1  0
  4  5  2  0
  4 12  1  0
  5  6  1  0
  6  7  1  0
  7  8  2  0
  8  9  1  0
 10  9  2  0
 11 10  1  0
 12 11  2  0
 12  7  1  0
 13 19  1  0
 14 13  2  0
 16 15  1  6
 16 18  1  0
 17 16  1  0
 18 20  1  0
 18 19  1  6
 20 21  2  0
 20 27  1  0
 23 22  1  0
 23 24  1  0
 24 26  1  0
 24 25  1  1
 26 28  1  0
 26 27  1  6
 28 30  1  0
 29 28  2  0
M  END
$$$$
