WVI.pdb
     RDKit          3D

 30 31  0  0  1  0  0  0  0  0999 V2000
   26.7963  -22.0090  -12.6015 N   0  0  0  0  0  0  0  0  0  0  0  0
   25.9833  -20.9890  -11.9345 C   0  0  1  0  0  0  0  0  0  0  0  0
   26.8676  -19.8217  -11.5423 C   0  0  0  0  0  0  0  0  0  0  0  0
   27.8707  -20.3471  -10.5790 C   0  0  0  0  0  0  0  0  0  0  0  0
   28.9618  -21.1443  -10.8039 C   0  0  0  0  0  0  0  0  0  0  0  0
   29.5424  -21.3672   -9.6237 N   0  0  0  0  0  0  0  0  0  0  0  0
   28.8591  -20.7324   -8.6392 C   0  0  0  0  0  0  0  0  0  0  0  0
   29.0452  -20.6446   -7.2634 C   0  0  0  0  0  0  0  0  0  0  0  0
   28.1696  -19.8998   -6.4671 C   0  0  0  0  0  0  0  0  0  0  0  0
   27.1204  -19.2575   -7.0792 C   0  0  0  0  0  0  0  0  0  0  0  0
   26.9460  -19.3566   -8.4529 C   0  0  0  0  0  0  0  0  0  0  0  0
   27.8069  -20.0866   -9.2161 C   0  0  0  0  0  0  0  0  0  0  0  0
   24.9015  -20.6299  -12.8816 C   0  0  0  0  0  0  0  0  0  0  0  0
   25.1339  -19.8054  -13.7428 O   0  0  0  0  0  0  0  0  0  0  0  0
   24.0524  -21.5770  -15.6673 C   0  0  0  0  0  0  0  0  0  0  0  0
   22.7335  -21.8561  -14.9932 C   0  0  1  0  0  0  0  0  0  0  0  0
   22.8695  -23.2914  -14.4567 C   0  0  0  0  0  0  0  0  0  0  0  0
   22.5315  -21.0075  -13.7405 C   0  0  2  0  0  0  0  0  0  0  0  0
   23.6280  -21.2166  -12.8247 N   0  0  0  0  0  0  0  0  0  0  0  0
   21.3275  -21.5423  -13.0581 C   0  0  0  0  0  0  0  0  0  0  0  0
   21.4356  -22.4708  -12.1774 O   0  0  0  0  0  0  0  0  0  0  0  0
   18.1209  -17.5519  -11.9166 C   0  0  0  0  0  0  0  0  0  0  0  0
   18.8814  -18.8236  -11.8883 C   0  0  0  0  0  0  0  0  0  0  0  0
   18.1707  -20.0712  -12.2449 C   0  0  2  0  0  0  0  0  0  0  0  0
   16.9121  -20.1445  -11.3751 C   0  0  0  0  0  0  0  0  0  0  0  0
   18.9327  -21.3325  -12.2434 C   0  0  2  0  0  0  0  0  0  0  0  0
   19.9988  -21.1124  -13.2842 N   0  0  0  0  0  0  0  0  0  0  0  0
   18.2090  -22.5184  -12.6609 C   0  0  0  0  0  0  0  0  0  0  0  0
   17.7391  -23.3901  -11.8384 O   0  0  0  0  0  0  0  0  0  0  0  0
   17.9430  -22.8295  -13.9990 O   0  0  0  0  0  0  0  0  0  0  0  0
  2  1  1  6
  2 13  1  0
  2  3  1  0
  3  4  1  0
  4  5  2  0
  4 12  1  0
  5  6  1  0
  6  7  1  0
  7  8  2  0
  8  9  1  0
 10  9  2  0
 11 10  1  0
 12 11  2  0
 12  7  1  0
 13 19  1  0
 14 13  2  0
 16 15  1  1
 16 18  1  0
 17 16  1  0
 18 20  1  0
 18 19  1  1
 20 21  2  0
 20 27  1  0
 23 22  1  0
 23 24  1  0
 24 26  1  0
 24 25  1  1
 26 28  1  0
 26 27  1  6
 28 30  1  0
 29 28  2  0
M  END
$$$$
