DAH.pdb
     RDKit          3D

 24 24  0  0  1  0  0  0  0  0999 V2000
   15.7876  -12.6408  -16.4938 N   0  0  0  0  0  0  0  0  0  0  0  0
   17.0903  -12.7244  -15.8726 C   0  0  1  0  0  0  0  0  0  0  0  0
   17.6608  -14.0800  -16.1911 C   0  0  0  0  0  0  0  0  0  0  0  0
   16.9362  -15.0958  -15.4050 C   0  0  0  0  0  0  0  0  0  0  0  0
   15.6882  -15.1299  -15.4513 O   0  0  0  0  0  0  0  0  0  0  0  0
   17.9572  -11.6207  -16.3308 C   0  0  0  0  0  0  0  0  0  0  0  0
   19.1662  -11.6030  -15.9842 O   0  0  0  0  0  0  0  0  0  0  0  0
   17.5883  -16.0227  -14.6098 O   0  0  0  0  0  0  0  0  0  0  0  0
   17.4802   -8.6261  -18.6257 C   0  0  0  0  0  0  0  0  0  0  0  0
   18.2464   -9.4766  -17.6226 C   0  0  2  0  0  0  0  0  0  0  0  0
   17.4749  -10.5811  -17.1471 N   0  0  0  0  0  0  0  0  0  0  0  0
   18.5608   -8.5893  -16.4718 C   0  0  0  0  0  0  0  0  0  0  0  0
   17.7659   -8.4814  -15.4999 O   0  0  0  0  0  0  0  0  0  0  0  0
   19.7511   -7.8271  -16.4023 N   0  0  0  0  0  0  0  0  0  0  0  0
   20.0435   -6.9003  -15.3036 C   0  0  1  0  0  0  0  0  0  0  0  0
   21.5535   -6.8701  -15.2120 C   0  0  0  0  0  0  0  0  0  0  0  0
   22.0792   -8.1920  -14.8517 C   0  0  0  0  0  0  0  0  0  0  0  0
   21.4933   -8.9923  -13.8890 C   0  0  0  0  0  0  0  0  0  0  0  0
   22.2254  -10.1077  -13.8226 N   0  0  0  0  0  0  0  0  0  0  0  0
   23.2354  -10.0215  -14.7060 C   0  0  0  0  0  0  0  0  0  0  0  0
   23.1394   -8.8406  -15.3355 N   0  0  0  0  0  0  0  0  0  0  0  0
   19.5706   -5.5426  -15.6004 C   0  0  0  0  0  0  0  0  0  0  0  0
   19.5656   -4.4914  -14.7310 O   0  0  0  0  0  0  0  0  0  0  0  0
   19.1228   -5.3188  -16.7735 O   0  0  0  0  0  0  0  0  0  0  0  0
  2  1  1  6
  2  3  1  0
  3  4  1  0
  4  8  1  0
  5  4  2  0
  6 11  1  0
  6  2  1  0
  7  6  2  0
 10  9  1  6
 10 12  1  0
 10 11  1  0
 12 14  1  0
 13 12  2  0
 14 15  1  0
 15 22  1  0
 15 16  1  6
 17 16  1  0
 17 18  2  0
 19 18  1  0
 20 19  1  0
 21 20  2  0
 21 17  1  0
 22 23  1  0
 24 22  2  0
M  END
$$$$
