DAH.pdb
     RDKit          3D

 24 24  0  0  1  0  0  0  0  0999 V2000
   18.5466  -12.6918  -16.0054 N   0  0  0  0  0  0  0  0  0  0  0  0
   19.4958  -11.8463  -16.6939 C   0  0  1  0  0  0  0  0  0  0  0  0
   18.7663  -11.1653  -17.8202 C   0  0  0  0  0  0  0  0  0  0  0  0
   18.3296  -12.1878  -18.7889 C   0  0  0  0  0  0  0  0  0  0  0  0
   19.1259  -13.0885  -19.1288 O   0  0  0  0  0  0  0  0  0  0  0  0
   20.1154  -10.8887  -15.7565 C   0  0  0  0  0  0  0  0  0  0  0  0
   19.3797  -10.1177  -15.0882 O   0  0  0  0  0  0  0  0  0  0  0  0
   17.0609  -12.1912  -19.3429 O   0  0  0  0  0  0  0  0  0  0  0  0
   23.6447  -10.2252  -14.5302 C   0  0  0  0  0  0  0  0  0  0  0  0
   22.1876   -9.8531  -14.7651 C   0  0  2  0  0  0  0  0  0  0  0  0
   21.5094  -10.8078  -15.5834 N   0  0  0  0  0  0  0  0  0  0  0  0
   22.1959   -8.5454  -15.4724 C   0  0  0  0  0  0  0  0  0  0  0  0
   22.4031   -8.4807  -16.7138 O   0  0  0  0  0  0  0  0  0  0  0  0
   21.9754   -7.3179  -14.8037 N   0  0  0  0  0  0  0  0  0  0  0  0
   22.1489   -6.0130  -15.4508 C   0  0  1  0  0  0  0  0  0  0  0  0
   21.0776   -5.9628  -16.5181 C   0  0  0  0  0  0  0  0  0  0  0  0
   19.7598   -5.7163  -15.9211 C   0  0  0  0  0  0  0  0  0  0  0  0
   19.4813   -5.9751  -14.5921 C   0  0  0  0  0  0  0  0  0  0  0  0
   18.2037   -5.6370  -14.3972 N   0  0  0  0  0  0  0  0  0  0  0  0
   17.6901   -5.1818  -15.5534 C   0  0  0  0  0  0  0  0  0  0  0  0
   18.6527   -5.2334  -16.4865 N   0  0  0  0  0  0  0  0  0  0  0  0
   21.9187   -4.9083  -14.5118 C   0  0  0  0  0  0  0  0  0  0  0  0
   22.1010   -3.5830  -14.7787 O   0  0  0  0  0  0  0  0  0  0  0  0
   21.5124   -5.2069  -13.3403 O   0  0  0  0  0  0  0  0  0  0  0  0
  2  1  1  1
  2  3  1  0
  3  4  1  0
  4  8  1  0
  5  4  2  0
  6 11  1  0
  6  2  1  0
  7  6  2  0
 10  9  1  6
 10 12  1  0
 10 11  1  0
 12 14  1  0
 13 12  2  0
 14 15  1  0
 15 22  1  0
 15 16  1  6
 17 16  1  0
 17 18  2  0
 19 18  1  0
 20 19  1  0
 21 20  2  0
 21 17  1  0
 22 23  1  0
 24 22  2  0
M  END
$$$$
