DAH.pdb
     RDKit          3D

 24 24  0  0  1  0  0  0  0  0999 V2000
   19.3980  -11.8470  -19.4813 N   0  0  0  0  0  0  0  0  0  0  0  0
   20.4225  -11.4804  -18.5296 C   0  0  1  0  0  0  0  0  0  0  0  0
   21.7171  -11.3425  -19.2841 C   0  0  0  0  0  0  0  0  0  0  0  0
   22.1090  -12.6676  -19.7992 C   0  0  0  0  0  0  0  0  0  0  0  0
   22.0670  -13.6572  -19.0377 O   0  0  0  0  0  0  0  0  0  0  0  0
   20.0484  -10.2457  -17.8118 C   0  0  0  0  0  0  0  0  0  0  0  0
   19.5295   -9.2950  -18.4514 O   0  0  0  0  0  0  0  0  0  0  0  0
   22.5258  -12.8625  -21.1050 O   0  0  0  0  0  0  0  0  0  0  0  0
   19.6661   -9.2709  -14.1953 C   0  0  0  0  0  0  0  0  0  0  0  0
   19.9062   -8.9399  -15.6614 C   0  0  2  0  0  0  0  0  0  0  0  0
   20.2534  -10.0943  -16.4280 N   0  0  0  0  0  0  0  0  0  0  0  0
   21.0478   -7.9881  -15.6966 C   0  0  0  0  0  0  0  0  0  0  0  0
   22.2325   -8.4005  -15.8175 O   0  0  0  0  0  0  0  0  0  0  0  0
   20.8733   -6.5873  -15.5979 N   0  0  0  0  0  0  0  0  0  0  0  0
   21.9852   -5.6350  -15.6896 C   0  0  1  0  0  0  0  0  0  0  0  0
   21.3834   -4.3933  -16.3102 C   0  0  0  0  0  0  0  0  0  0  0  0
   21.0406   -4.6291  -17.7176 C   0  0  0  0  0  0  0  0  0  0  0  0
   21.8903   -5.2759  -18.5954 C   0  0  0  0  0  0  0  0  0  0  0  0
   21.2638   -5.3141  -19.7746 N   0  0  0  0  0  0  0  0  0  0  0  0
   20.0654   -4.7167  -19.6531 C   0  0  0  0  0  0  0  0  0  0  0  0
   19.9347   -4.2978  -18.3852 N   0  0  0  0  0  0  0  0  0  0  0  0
   22.5073   -5.2831  -14.3635 C   0  0  0  0  0  0  0  0  0  0  0  0
   23.5927   -4.4946  -14.1166 O   0  0  0  0  0  0  0  0  0  0  0  0
   21.8967   -5.7531  -13.3470 O   0  0  0  0  0  0  0  0  0  0  0  0
  2  1  1  6
  2  3  1  0
  3  4  1  0
  4  8  1  0
  5  4  2  0
  6 11  1  0
  6  2  1  0
  7  6  2  0
 10  9  1  1
 10 12  1  0
 10 11  1  0
 12 14  1  0
 13 12  2  0
 14 15  1  0
 15 22  1  0
 15 16  1  1
 17 16  1  0
 17 18  2  0
 19 18  1  0
 20 19  1  0
 21 20  2  0
 21 17  1  0
 22 23  1  0
 24 22  2  0
M  END
$$$$
