DAH.pdb
     RDKit          3D

 24 24  0  0  1  0  0  0  0  0999 V2000
   16.0556  -10.5860  -16.8837 N   0  0  0  0  0  0  0  0  0  0  0  0
   16.9910  -10.3365  -15.8100 C   0  0  1  0  0  0  0  0  0  0  0  0
   18.0520  -11.4018  -15.8732 C   0  0  0  0  0  0  0  0  0  0  0  0
   17.4569  -12.6881  -15.4658 C   0  0  0  0  0  0  0  0  0  0  0  0
   17.6855  -13.7109  -16.1459 O   0  0  0  0  0  0  0  0  0  0  0  0
   17.5476   -8.9728  -15.9111 C   0  0  0  0  0  0  0  0  0  0  0  0
   18.3238   -8.6935  -16.8606 O   0  0  0  0  0  0  0  0  0  0  0  0
   16.6471  -12.8107  -14.3496 O   0  0  0  0  0  0  0  0  0  0  0  0
   16.7570   -5.6616  -14.3002 C   0  0  0  0  0  0  0  0  0  0  0  0
   17.6882   -6.6136  -15.0373 C   0  0  2  0  0  0  0  0  0  0  0  0
   17.2382   -7.9681  -14.9759 N   0  0  0  0  0  0  0  0  0  0  0  0
   19.0073   -6.5224  -14.3575 C   0  0  0  0  0  0  0  0  0  0  0  0
   19.2187   -7.1214  -13.2690 O   0  0  0  0  0  0  0  0  0  0  0  0
   20.0839   -5.7704  -14.8844 N   0  0  0  0  0  0  0  0  0  0  0  0
   21.3561   -5.5919  -14.1764 C   0  0  1  0  0  0  0  0  0  0  0  0
   22.4121   -6.0733  -15.1471 C   0  0  0  0  0  0  0  0  0  0  0  0
   22.3009   -7.5209  -15.3610 C   0  0  0  0  0  0  0  0  0  0  0  0
   21.7537   -8.0671  -16.5068 C   0  0  0  0  0  0  0  0  0  0  0  0
   21.8129   -9.3939  -16.3629 N   0  0  0  0  0  0  0  0  0  0  0  0
   22.3742   -9.6807  -15.1752 C   0  0  0  0  0  0  0  0  0  0  0  0
   22.6718   -8.5240  -14.5642 N   0  0  0  0  0  0  0  0  0  0  0  0
   21.6143   -4.1785  -13.8752 C   0  0  0  0  0  0  0  0  0  0  0  0
   22.6472   -3.6982  -13.1246 O   0  0  0  0  0  0  0  0  0  0  0  0
   20.8045   -3.3173  -14.3543 O   0  0  0  0  0  0  0  0  0  0  0  0
  2  1  1  6
  2  3  1  0
  3  4  1  0
  4  8  1  0
  5  4  2  0
  6 11  1  0
  6  2  1  0
  7  6  2  0
 10  9  1  1
 10 12  1  0
 10 11  1  0
 12 14  1  0
 13 12  2  0
 14 15  1  0
 15 22  1  0
 15 16  1  6
 17 16  1  0
 17 18  2  0
 19 18  1  0
 20 19  1  0
 21 20  2  0
 21 17  1  0
 22 23  1  0
 24 22  2  0
M  END
$$$$
