DAH.pdb
     RDKit          3D

 24 24  0  0  1  0  0  0  0  0999 V2000
   16.5708  -14.3228  -17.0393 N   0  0  0  0  0  0  0  0  0  0  0  0
   16.6920  -13.3080  -16.0169 C   0  0  1  0  0  0  0  0  0  0  0  0
   17.0843  -13.9953  -14.7369 C   0  0  0  0  0  0  0  0  0  0  0  0
   15.9687  -14.8547  -14.2992 C   0  0  0  0  0  0  0  0  0  0  0  0
   16.1902  -16.0535  -14.0262 O   0  0  0  0  0  0  0  0  0  0  0  0
   17.6600  -12.2708  -16.4251 C   0  0  0  0  0  0  0  0  0  0  0  0
   18.7822  -12.6186  -16.8743 O   0  0  0  0  0  0  0  0  0  0  0  0
   14.6728  -14.3832  -14.1768 O   0  0  0  0  0  0  0  0  0  0  0  0
   17.6002   -8.4667  -16.5431 C   0  0  0  0  0  0  0  0  0  0  0  0
   18.2150   -9.8387  -16.7806 C   0  0  2  0  0  0  0  0  0  0  0  0
   17.3690  -10.8975  -16.3286 N   0  0  0  0  0  0  0  0  0  0  0  0
   19.4779   -9.8753  -15.9970 C   0  0  0  0  0  0  0  0  0  0  0  0
   19.4830  -10.2440  -14.7919 O   0  0  0  0  0  0  0  0  0  0  0  0
   20.7267   -9.5046  -16.5496 N   0  0  0  0  0  0  0  0  0  0  0  0
   21.9679   -9.4708  -15.7686 C   0  0  1  0  0  0  0  0  0  0  0  0
   23.0457   -9.9178  -16.7318 C   0  0  0  0  0  0  0  0  0  0  0  0
   24.3654   -9.8764  -16.0912 C   0  0  0  0  0  0  0  0  0  0  0  0
   24.5883  -10.3409  -14.8085 C   0  0  0  0  0  0  0  0  0  0  0  0
   25.8856  -10.1499  -14.5536 N   0  0  0  0  0  0  0  0  0  0  0  0
   26.4647   -9.5873  -15.6287 C   0  0  0  0  0  0  0  0  0  0  0  0
   25.5238   -9.4219  -16.5707 N   0  0  0  0  0  0  0  0  0  0  0  0
   22.2862   -8.1109  -15.3166 C   0  0  0  0  0  0  0  0  0  0  0  0
   21.7355   -6.9600  -15.7995 O   0  0  0  0  0  0  0  0  0  0  0  0
   23.1543   -7.9867  -14.3904 O   0  0  0  0  0  0  0  0  0  0  0  0
  2  1  1  6
  2  3  1  0
  3  4  1  0
  4  8  1  0
  5  4  2  0
  6 11  1  0
  6  2  1  0
  7  6  2  0
 10  9  1  1
 10 12  1  0
 10 11  1  0
 12 14  1  0
 13 12  2  0
 14 15  1  0
 15 22  1  0
 15 16  1  6
 17 16  1  0
 17 18  2  0
 19 18  1  0
 20 19  1  0
 21 20  2  0
 21 17  1  0
 22 23  1  0
 24 22  2  0
M  END
$$$$
