DAH.pdb
     RDKit          3D

 24 24  0  0  1  0  0  0  0  0999 V2000
   16.2512  -15.2090  -16.4308 N   0  0  0  0  0  0  0  0  0  0  0  0
   16.4769  -14.2691  -15.3558 C   0  0  1  0  0  0  0  0  0  0  0  0
   17.5913  -14.8118  -14.5025 C   0  0  0  0  0  0  0  0  0  0  0  0
   17.1184  -16.0339  -13.8262 C   0  0  0  0  0  0  0  0  0  0  0  0
   16.0026  -16.0297  -13.2643 O   0  0  0  0  0  0  0  0  0  0  0  0
   16.7739  -12.9262  -15.8924 C   0  0  0  0  0  0  0  0  0  0  0  0
   17.6263  -12.8042  -16.8094 O   0  0  0  0  0  0  0  0  0  0  0  0
   17.8672  -17.1977  -13.7879 O   0  0  0  0  0  0  0  0  0  0  0  0
   15.4392   -9.4274  -15.2143 C   0  0  0  0  0  0  0  0  0  0  0  0
   16.3490  -10.4424  -15.8915 C   0  0  2  0  0  0  0  0  0  0  0  0
   16.1324  -11.7702  -15.4107 N   0  0  0  0  0  0  0  0  0  0  0  0
   17.7430  -10.0425  -15.5640 C   0  0  0  0  0  0  0  0  0  0  0  0
   18.3123  -10.4679  -14.5233 O   0  0  0  0  0  0  0  0  0  0  0  0
   18.4989   -9.1756  -16.3883 N   0  0  0  0  0  0  0  0  0  0  0  0
   19.8767   -8.7784  -16.0791 C   0  0  1  0  0  0  0  0  0  0  0  0
   20.5109   -8.4961  -17.4234 C   0  0  0  0  0  0  0  0  0  0  0  0
   21.9400   -8.1987  -17.2721 C   0  0  0  0  0  0  0  0  0  0  0  0
   22.7186   -8.7590  -16.2767 C   0  0  0  0  0  0  0  0  0  0  0  0
   23.9520   -8.2718  -16.4374 N   0  0  0  0  0  0  0  0  0  0  0  0
   23.9589   -7.4364  -17.4908 C   0  0  0  0  0  0  0  0  0  0  0  0
   22.7180   -7.3962  -17.9995 N   0  0  0  0  0  0  0  0  0  0  0  0
   19.9189   -7.5478  -15.2799 C   0  0  0  0  0  0  0  0  0  0  0  0
   20.8410   -7.2511  -14.3194 O   0  0  0  0  0  0  0  0  0  0  0  0
   19.0158   -6.6737  -15.4973 O   0  0  0  0  0  0  0  0  0  0  0  0
  2  1  1  6
  2  3  1  0
  3  4  1  0
  4  8  1  0
  5  4  2  0
  6 11  1  0
  6  2  1  0
  7  6  2  0
 10  9  1  1
 10 12  1  0
 10 11  1  0
 12 14  1  0
 13 12  2  0
 14 15  1  0
 15 22  1  0
 15 16  1  6
 17 16  1  0
 17 18  2  0
 19 18  1  0
 20 19  1  0
 21 20  2  0
 21 17  1  0
 22 23  1  0
 24 22  2  0
M  END
$$$$
