DAH.pdb
     RDKit          3D

 24 24  0  0  1  0  0  0  0  0999 V2000
   18.8929   -7.2198  -14.5960 N   0  0  0  0  0  0  0  0  0  0  0  0
   19.6056   -8.0738  -15.5193 C   0  0  1  0  0  0  0  0  0  0  0  0
   20.7703   -8.6737  -14.7790 C   0  0  0  0  0  0  0  0  0  0  0  0
   21.7403   -7.6051  -14.4758 C   0  0  0  0  0  0  0  0  0  0  0  0
   21.9480   -7.2867  -13.2857 O   0  0  0  0  0  0  0  0  0  0  0  0
   18.7034   -9.0967  -16.0845 C   0  0  0  0  0  0  0  0  0  0  0  0
   18.0213   -9.8130  -15.3075 O   0  0  0  0  0  0  0  0  0  0  0  0
   22.4374   -6.9331  -15.4653 O   0  0  0  0  0  0  0  0  0  0  0  0
   17.7276  -10.1303  -19.6143 C   0  0  0  0  0  0  0  0  0  0  0  0
   17.6868  -10.2241  -18.0957 C   0  0  2  0  0  0  0  0  0  0  0  0
   18.5792   -9.2996  -17.4713 N   0  0  0  0  0  0  0  0  0  0  0  0
   18.1162  -11.6043  -17.7476 C   0  0  0  0  0  0  0  0  0  0  0  0
   19.3192  -11.8592  -17.4721 O   0  0  0  0  0  0  0  0  0  0  0  0
   17.2139  -12.6936  -17.7060 N   0  0  0  0  0  0  0  0  0  0  0  0
   17.6337  -14.0682  -17.4133 C   0  0  1  0  0  0  0  0  0  0  0  0
   16.7070  -14.5313  -16.3106 C   0  0  0  0  0  0  0  0  0  0  0  0
   16.9401  -15.9455  -15.9950 C   0  0  0  0  0  0  0  0  0  0  0  0
   18.2045  -16.5021  -15.9482 C   0  0  0  0  0  0  0  0  0  0  0  0
   18.0427  -17.7908  -15.6358 N   0  0  0  0  0  0  0  0  0  0  0  0
   16.7304  -18.0444  -15.4899 C   0  0  0  0  0  0  0  0  0  0  0  0
   16.0580  -16.9049  -15.7122 N   0  0  0  0  0  0  0  0  0  0  0  0
   17.4493  -14.9491  -18.5732 C   0  0  0  0  0  0  0  0  0  0  0  0
   18.1519  -16.0902  -18.8284 O   0  0  0  0  0  0  0  0  0  0  0  0
   16.5545  -14.6245  -19.4222 O   0  0  0  0  0  0  0  0  0  0  0  0
  2  1  1  1
  2  3  1  0
  3  4  1  0
  4  8  1  0
  5  4  2  0
  6 11  1  0
  6  2  1  0
  7  6  2  0
 10  9  1  6
 10 12  1  0
 10 11  1  0
 12 14  1  0
 13 12  2  0
 14 15  1  0
 15 22  1  0
 15 16  1  1
 17 16  1  0
 17 18  2  0
 19 18  1  0
 20 19  1  0
 21 20  2  0
 21 17  1  0
 22 23  1  0
 24 22  2  0
M  END
$$$$
