DAH.pdb
     RDKit          3D

 24 24  0  0  1  0  0  0  0  0999 V2000
   23.8519  -17.5469  -17.0097 N   0  0  0  0  0  0  0  0  0  0  0  0
   23.8002  -18.8993  -17.5177 C   0  0  1  0  0  0  0  0  0  0  0  0
   25.1845  -19.2656  -17.9803 C   0  0  0  0  0  0  0  0  0  0  0  0
   25.5397  -18.4161  -19.1322 C   0  0  0  0  0  0  0  0  0  0  0  0
   24.7364  -18.3068  -20.0828 O   0  0  0  0  0  0  0  0  0  0  0  0
   23.2815  -19.8223  -16.4889 C   0  0  0  0  0  0  0  0  0  0  0  0
   23.3978  -21.0631  -16.6600 O   0  0  0  0  0  0  0  0  0  0  0  0
   26.7386  -17.7276  -19.2046 O   0  0  0  0  0  0  0  0  0  0  0  0
   21.9946  -19.4152  -12.9566 C   0  0  0  0  0  0  0  0  0  0  0  0
   22.1678  -20.1854  -14.2579 C   0  0  2  0  0  0  0  0  0  0  0  0
   22.6576  -19.3595  -15.3157 N   0  0  0  0  0  0  0  0  0  0  0  0
   20.8188  -20.6849  -14.6341 C   0  0  0  0  0  0  0  0  0  0  0  0
   19.9959  -19.9418  -15.2332 O   0  0  0  0  0  0  0  0  0  0  0  0
   20.3879  -22.0016  -14.3461 N   0  0  0  0  0  0  0  0  0  0  0  0
   19.0230  -22.4708  -14.6073 C   0  0  1  0  0  0  0  0  0  0  0  0
   19.0446  -23.9430  -14.2588 C   0  0  0  0  0  0  0  0  0  0  0  0
   17.7881  -24.5897  -14.6548 C   0  0  0  0  0  0  0  0  0  0  0  0
   16.7342  -23.8938  -15.2166 C   0  0  0  0  0  0  0  0  0  0  0  0
   15.7677  -24.7864  -15.4480 N   0  0  0  0  0  0  0  0  0  0  0  0
   16.1883  -26.0000  -15.0503 C   0  0  0  0  0  0  0  0  0  0  0  0
   17.4319  -25.8716  -14.5635 N   0  0  0  0  0  0  0  0  0  0  0  0
   18.0457  -21.8039  -13.7382 C   0  0  0  0  0  0  0  0  0  0  0  0
   16.7551  -21.5094  -14.0674 O   0  0  0  0  0  0  0  0  0  0  0  0
   18.4310  -21.4665  -12.5700 O   0  0  0  0  0  0  0  0  0  0  0  0
  2  1  1  1
  2  3  1  0
  3  4  1  0
  4  8  1  0
  5  4  2  0
  6 11  1  0
  6  2  1  0
  7  6  2  0
 10  9  1  1
 10 12  1  0
 10 11  1  0
 12 14  1  0
 13 12  2  0
 14 15  1  0
 15 22  1  0
 15 16  1  1
 17 16  1  0
 17 18  2  0
 19 18  1  0
 20 19  1  0
 21 20  2  0
 21 17  1  0
 22 23  1  0
 24 22  2  0
M  END
$$$$
