DAH.pdb
     RDKit          3D

 24 24  0  0  1  0  0  0  0  0999 V2000
   24.5017  -14.3986  -19.2276 N   0  0  0  0  0  0  0  0  0  0  0  0
   24.9090  -13.0134  -19.3011 C   0  0  1  0  0  0  0  0  0  0  0  0
   23.8943  -12.2839  -20.1394 C   0  0  0  0  0  0  0  0  0  0  0  0
   23.8487  -12.9055  -21.4759 C   0  0  0  0  0  0  0  0  0  0  0  0
   24.9143  -13.0916  -22.1011 O   0  0  0  0  0  0  0  0  0  0  0  0
   25.0474  -12.4391  -17.9481 C   0  0  0  0  0  0  0  0  0  0  0  0
   24.3154  -12.8678  -17.0195 O   0  0  0  0  0  0  0  0  0  0  0  0
   22.6619  -13.2955  -22.0727 O   0  0  0  0  0  0  0  0  0  0  0  0
   27.4333   -9.9847  -16.3110 C   0  0  0  0  0  0  0  0  0  0  0  0
   26.1468  -10.7944  -16.3874 C   0  0  2  0  0  0  0  0  0  0  0  0
   25.9759  -11.4220  -17.6593 N   0  0  0  0  0  0  0  0  0  0  0  0
   25.0316   -9.8331  -16.1809 C   0  0  0  0  0  0  0  0  0  0  0  0
   23.9674  -10.1879  -15.6066 O   0  0  0  0  0  0  0  0  0  0  0  0
   25.0993   -8.4864  -16.6101 N   0  0  0  0  0  0  0  0  0  0  0  0
   23.9943   -7.5369  -16.4400 C   0  0  1  0  0  0  0  0  0  0  0  0
   23.9311   -7.2766  -14.9508 C   0  0  0  0  0  0  0  0  0  0  0  0
   22.8575   -6.3276  -14.6338 C   0  0  0  0  0  0  0  0  0  0  0  0
   21.5449   -6.5287  -15.0179 C   0  0  0  0  0  0  0  0  0  0  0  0
   20.8505   -5.4805  -14.5666 N   0  0  0  0  0  0  0  0  0  0  0  0
   21.6856   -4.6468  -13.9222 C   0  0  0  0  0  0  0  0  0  0  0  0
   22.9185   -5.1741  -13.9674 N   0  0  0  0  0  0  0  0  0  0  0  0
   24.2640   -6.2647  -17.1211 C   0  0  0  0  0  0  0  0  0  0  0  0
   23.3315   -5.4599  -17.7074 O   0  0  0  0  0  0  0  0  0  0  0  0
   25.4760   -5.8708  -17.1736 O   0  0  0  0  0  0  0  0  0  0  0  0
  2  1  1  1
  2  3  1  0
  3  4  1  0
  4  8  1  0
  5  4  2  0
  6 11  1  0
  6  2  1  0
  7  6  2  0
 10  9  1  6
 10 12  1  0
 10 11  1  0
 12 14  1  0
 13 12  2  0
 14 15  1  0
 15 22  1  0
 15 16  1  1
 17 16  1  0
 17 18  2  0
 19 18  1  0
 20 19  1  0
 21 20  2  0
 21 17  1  0
 22 23  1  0
 24 22  2  0
M  END
$$$$
