DAH.pdb
     RDKit          3D

 24 24  0  0  1  0  0  0  0  0999 V2000
   18.1785  -12.4766  -16.2715 N   0  0  0  0  0  0  0  0  0  0  0  0
   19.0006  -11.4510  -16.8732 C   0  0  1  0  0  0  0  0  0  0  0  0
   18.1108  -10.6072  -17.7455 C   0  0  0  0  0  0  0  0  0  0  0  0
   17.6793  -11.4132  -18.9026 C   0  0  0  0  0  0  0  0  0  0  0  0
   16.5058  -11.8394  -18.9482 O   0  0  0  0  0  0  0  0  0  0  0  0
   19.6921  -10.6620  -15.8345 C   0  0  0  0  0  0  0  0  0  0  0  0
   19.0117   -9.9958  -15.0127 O   0  0  0  0  0  0  0  0  0  0  0  0
   18.5293  -11.7203  -19.9513 O   0  0  0  0  0  0  0  0  0  0  0  0
   23.3119  -10.2334  -14.7633 C   0  0  0  0  0  0  0  0  0  0  0  0
   21.8370   -9.8578  -14.7848 C   0  0  2  0  0  0  0  0  0  0  0  0
   21.0949  -10.6292  -15.7310 N   0  0  0  0  0  0  0  0  0  0  0  0
   21.7728   -8.4277  -15.1864 C   0  0  0  0  0  0  0  0  0  0  0  0
   21.8856   -8.0877  -16.3947 O   0  0  0  0  0  0  0  0  0  0  0  0
   21.5843   -7.3830  -14.2509 N   0  0  0  0  0  0  0  0  0  0  0  0
   21.4880   -5.9714  -14.6379 C   0  0  1  0  0  0  0  0  0  0  0  0
   20.1115   -5.5369  -14.1844 C   0  0  0  0  0  0  0  0  0  0  0  0
   19.1140   -5.7954  -15.2294 C   0  0  0  0  0  0  0  0  0  0  0  0
   19.4337   -6.3846  -16.4382 C   0  0  0  0  0  0  0  0  0  0  0  0
   18.2974   -6.4645  -17.1360 N   0  0  0  0  0  0  0  0  0  0  0  0
   17.2960   -5.9478  -16.4025 C   0  0  0  0  0  0  0  0  0  0  0  0
   17.8055   -5.5381  -15.2310 N   0  0  0  0  0  0  0  0  0  0  0  0
   22.4855   -5.1499  -13.9412 C   0  0  0  0  0  0  0  0  0  0  0  0
   23.0530   -4.0060  -14.4211 O   0  0  0  0  0  0  0  0  0  0  0  0
   22.8597   -5.5341  -12.7840 O   0  0  0  0  0  0  0  0  0  0  0  0
  2  1  1  1
  2  3  1  0
  3  4  1  0
  4  8  1  0
  5  4  2  0
  6 11  1  0
  6  2  1  0
  7  6  2  0
 10  9  1  6
 10 12  1  0
 10 11  1  0
 12 14  1  0
 13 12  2  0
 14 15  1  0
 15 22  1  0
 15 16  1  1
 17 16  1  0
 17 18  2  0
 19 18  1  0
 20 19  1  0
 21 20  2  0
 21 17  1  0
 22 23  1  0
 24 22  2  0
M  END
$$$$
