DAH.pdb
     RDKit          3D

 24 24  0  0  1  0  0  0  0  0999 V2000
   17.5160  -11.1124  -17.3222 N   0  0  0  0  0  0  0  0  0  0  0  0
   17.5682  -10.3647  -16.0861 C   0  0  1  0  0  0  0  0  0  0  0  0
   18.1777  -11.2572  -15.0390 C   0  0  0  0  0  0  0  0  0  0  0  0
   17.2818  -12.4071  -14.8164 C   0  0  0  0  0  0  0  0  0  0  0  0
   16.0646  -12.2056  -14.6199 O   0  0  0  0  0  0  0  0  0  0  0  0
   18.3202   -9.1075  -16.2696 C   0  0  0  0  0  0  0  0  0  0  0  0
   19.4841   -9.1501  -16.7448 O   0  0  0  0  0  0  0  0  0  0  0  0
   17.7382  -13.7141  -14.8162 O   0  0  0  0  0  0  0  0  0  0  0  0
   17.4394   -5.4273  -15.9439 C   0  0  0  0  0  0  0  0  0  0  0  0
   18.3927   -6.5904  -16.1788 C   0  0  2  0  0  0  0  0  0  0  0  0
   17.7769   -7.8551  -15.9291 N   0  0  0  0  0  0  0  0  0  0  0  0
   19.5158   -6.4141  -15.2206 C   0  0  0  0  0  0  0  0  0  0  0  0
   19.4179   -6.8073  -14.0273 O   0  0  0  0  0  0  0  0  0  0  0  0
   20.7393   -5.8048  -15.5869 N   0  0  0  0  0  0  0  0  0  0  0  0
   21.8678   -5.6587  -14.6614 C   0  0  1  0  0  0  0  0  0  0  0  0
   23.0951   -5.6324  -15.5459 C   0  0  0  0  0  0  0  0  0  0  0  0
   23.3446   -6.9560  -16.1286 C   0  0  0  0  0  0  0  0  0  0  0  0
   22.6467   -8.0855  -15.7439 C   0  0  0  0  0  0  0  0  0  0  0  0
   23.1282   -9.0975  -16.4709 N   0  0  0  0  0  0  0  0  0  0  0  0
   24.0922   -8.6323  -17.2844 C   0  0  0  0  0  0  0  0  0  0  0  0
   24.2201   -7.3143  -17.0686 N   0  0  0  0  0  0  0  0  0  0  0  0
   21.8020   -4.3913  -13.9234 C   0  0  0  0  0  0  0  0  0  0  0  0
   22.4108   -4.1296  -12.7310 O   0  0  0  0  0  0  0  0  0  0  0  0
   21.1161   -3.4464  -14.4368 O   0  0  0  0  0  0  0  0  0  0  0  0
  2  1  1  6
  2  3  1  0
  3  4  1  0
  4  8  1  0
  5  4  2  0
  6 11  1  0
  6  2  1  0
  7  6  2  0
 10  9  1  1
 10 12  1  0
 10 11  1  0
 12 14  1  0
 13 12  2  0
 14 15  1  0
 15 22  1  0
 15 16  1  6
 17 16  1  0
 17 18  2  0
 19 18  1  0
 20 19  1  0
 21 20  2  0
 21 17  1  0
 22 23  1  0
 24 22  2  0
M  END
$$$$
