HWS.pdb
     RDKit          3D

 31 33  0  0  1  0  0  0  0  0999 V2000
   20.1663  -15.0009  -15.7826 N   0  0  0  0  0  0  0  0  0  0  0  0
   19.7757  -14.0731  -16.8561 C   0  0  1  0  0  0  0  0  0  0  0  0
   18.3193  -13.7718  -16.7641 C   0  0  0  0  0  0  0  0  0  0  0  0
   17.4641  -14.9600  -16.9356 C   0  0  0  0  0  0  0  0  0  0  0  0
   16.6221  -15.1558  -18.0503 C   0  0  0  0  0  0  0  0  0  0  0  0
   15.9869  -16.3248  -17.9000 N   0  0  0  0  0  0  0  0  0  0  0  0
   16.3761  -16.8961  -16.7425 C   0  0  0  0  0  0  0  0  0  0  0  0
   17.2614  -16.0520  -16.1899 N   0  0  0  0  0  0  0  0  0  0  0  0
   20.5685  -12.8182  -16.7003 C   0  0  0  0  0  0  0  0  0  0  0  0
   20.0374  -11.7077  -16.7529 O   0  0  0  0  0  0  0  0  0  0  0  0
   21.9761  -12.8825  -16.4842 N   0  0  0  0  0  0  0  0  0  0  0  0
   22.7860  -11.6532  -16.4827 C   0  0  1  0  0  0  0  0  0  0  0  0
   24.1850  -12.0687  -16.0091 C   0  0  0  0  0  0  0  0  0  0  0  0
   25.0855  -10.9138  -16.0959 C   0  0  0  0  0  0  0  0  0  0  0  0
   24.8599   -9.6007  -15.7429 C   0  0  0  0  0  0  0  0  0  0  0  0
   25.9459   -8.8645  -15.9836 N   0  0  0  0  0  0  0  0  0  0  0  0
   26.9107   -9.6725  -16.4995 C   0  0  0  0  0  0  0  0  0  0  0  0
   28.2035   -9.4081  -16.9124 C   0  0  0  0  0  0  0  0  0  0  0  0
   28.9654  -10.4497  -17.4032 C   0  0  0  0  0  0  0  0  0  0  0  0
   28.4503  -11.7311  -17.4818 C   0  0  0  0  0  0  0  0  0  0  0  0
   27.1672  -11.9771  -17.0686 C   0  0  0  0  0  0  0  0  0  0  0  0
   26.3985  -10.9402  -16.5763 C   0  0  0  0  0  0  0  0  0  0  0  0
   22.9446  -11.1325  -17.8581 C   0  0  0  0  0  0  0  0  0  0  0  0
   23.2100  -11.9092  -18.8100 O   0  0  0  0  0  0  0  0  0  0  0  0
   21.8458   -7.8237  -21.1621 O   0  0  0  0  0  0  0  0  0  0  0  0
   21.7909   -8.2956  -19.8743 C   0  0  0  0  0  0  0  0  0  0  0  0
   22.9037   -9.2658  -19.5433 C   0  0  2  0  0  0  0  0  0  0  0  0
   22.8110   -9.7529  -18.1882 N   0  0  0  0  0  0  0  0  0  0  0  0
   24.2013   -8.5515  -19.6682 C   0  0  0  0  0  0  0  0  0  0  0  0
   24.9341   -8.5400  -20.8455 O   0  0  0  0  0  0  0  0  0  0  0  0
   24.6261   -7.9436  -18.6526 O   0  0  0  0  0  0  0  0  0  0  0  0
  2  1  1  1
  2  3  1  0
  3  4  1  0
  4  5  2  0
  6  5  1  0
  7  6  1  0
  8  7  2  0
  8  4  1  0
  9  2  1  0
 10  9  2  0
 11  9  1  0
 12 11  1  0
 12 13  1  6
 14 13  1  0
 14 22  1  0
 15 16  1  0
 15 14  2  0
 16 17  1  0
 17 18  2  0
 17 22  1  0
 18 19  1  0
 19 20  2  0
 21 20  1  0
 22 21  2  0
 23 12  1  0
 23 28  1  0
 24 23  2  0
 26 25  1  0
 27 28  1  0
 27 26  1  1
 29 27  1  0
 29 30  1  0
 31 29  2  0
M  END
$$$$
