HWS.pdb
     RDKit          3D

 31 33  0  0  1  0  0  0  0  0999 V2000
   19.6679  -12.7671  -16.6355 N   0  0  0  0  0  0  0  0  0  0  0  0
   19.4433  -11.3460  -16.9450 C   0  0  1  0  0  0  0  0  0  0  0  0
   18.0716  -10.9436  -16.5246 C   0  0  0  0  0  0  0  0  0  0  0  0
   17.0047  -11.6552  -17.2511 C   0  0  0  0  0  0  0  0  0  0  0  0
   16.6041  -11.3233  -18.5623 C   0  0  0  0  0  0  0  0  0  0  0  0
   15.6207  -12.1553  -18.9273 N   0  0  0  0  0  0  0  0  0  0  0  0
   15.3644  -13.0102  -17.9166 C   0  0  0  0  0  0  0  0  0  0  0  0
   16.2113  -12.6826  -16.9281 N   0  0  0  0  0  0  0  0  0  0  0  0
   20.4612  -10.5409  -16.2078 C   0  0  0  0  0  0  0  0  0  0  0  0
   20.6834  -10.7213  -15.0095 O   0  0  0  0  0  0  0  0  0  0  0  0
   21.2064   -9.5334  -16.8872 N   0  0  0  0  0  0  0  0  0  0  0  0
   22.3563   -8.8886  -16.2319 C   0  0  1  0  0  0  0  0  0  0  0  0
   23.5232   -8.9969  -17.2222 C   0  0  0  0  0  0  0  0  0  0  0  0
   24.0554  -10.3636  -17.1917 C   0  0  0  0  0  0  0  0  0  0  0  0
   23.6091  -11.4906  -17.8479 C   0  0  0  0  0  0  0  0  0  0  0  0
   24.3791  -12.5369  -17.5452 N   0  0  0  0  0  0  0  0  0  0  0  0
   25.3488  -12.1258  -16.6845 C   0  0  0  0  0  0  0  0  0  0  0  0
   26.3849  -12.8102  -16.0766 C   0  0  0  0  0  0  0  0  0  0  0  0
   27.2295  -12.1157  -15.2337 C   0  0  0  0  0  0  0  0  0  0  0  0
   27.0464  -10.7645  -14.9999 C   0  0  0  0  0  0  0  0  0  0  0  0
   26.0148  -10.1004  -15.6100 C   0  0  0  0  0  0  0  0  0  0  0  0
   25.1654  -10.7884  -16.4548 C   0  0  0  0  0  0  0  0  0  0  0  0
   22.1021   -7.4445  -16.0371 C   0  0  0  0  0  0  0  0  0  0  0  0
   21.5426   -6.7661  -16.9352 O   0  0  0  0  0  0  0  0  0  0  0  0
   22.1246   -3.5527  -13.0639 O   0  0  0  0  0  0  0  0  0  0  0  0
   22.2257   -4.9100  -13.2418 C   0  0  0  0  0  0  0  0  0  0  0  0
   22.2674   -5.3225  -14.6970 C   0  0  2  0  0  0  0  0  0  0  0  0
   22.4644   -6.7437  -14.8506 N   0  0  0  0  0  0  0  0  0  0  0  0
   23.4211   -4.6441  -15.3439 C   0  0  0  0  0  0  0  0  0  0  0  0
   23.3011   -3.4195  -15.9835 O   0  0  0  0  0  0  0  0  0  0  0  0
   24.5351   -5.2253  -15.2939 O   0  0  0  0  0  0  0  0  0  0  0  0
  2  1  1  1
  2  3  1  0
  3  4  1  0
  4  5  2  0
  6  5  1  0
  7  6  1  0
  8  7  2  0
  8  4  1  0
  9  2  1  0
 10  9  2  0
 11  9  1  0
 12 11  1  0
 12 13  1  6
 14 13  1  0
 14 22  1  0
 15 16  1  0
 15 14  2  0
 16 17  1  0
 17 18  2  0
 17 22  1  0
 18 19  1  0
 19 20  2  0
 21 20  1  0
 22 21  2  0
 23 12  1  0
 23 28  1  0
 24 23  2  0
 26 25  1  0
 27 28  1  0
 27 26  1  1
 29 27  1  0
 29 30  1  0
 31 29  2  0
M  END
$$$$
