HWS.pdb
     RDKit          3D

 31 33  0  0  1  0  0  0  0  0999 V2000
   21.1788  -14.2488  -16.9843 N   0  0  0  0  0  0  0  0  0  0  0  0
   20.4079  -12.9958  -16.9476 C   0  0  1  0  0  0  0  0  0  0  0  0
   19.2087  -13.1607  -16.0788 C   0  0  0  0  0  0  0  0  0  0  0  0
   18.2505  -14.1586  -16.5875 C   0  0  0  0  0  0  0  0  0  0  0  0
   17.2476  -13.8597  -17.5333 C   0  0  0  0  0  0  0  0  0  0  0  0
   16.5533  -14.9775  -17.7808 N   0  0  0  0  0  0  0  0  0  0  0  0
   17.0573  -15.9861  -17.0415 C   0  0  0  0  0  0  0  0  0  0  0  0
   18.0729  -15.4609  -16.3383 N   0  0  0  0  0  0  0  0  0  0  0  0
   21.2894  -11.9209  -16.4042 C   0  0  0  0  0  0  0  0  0  0  0  0
   21.7300  -11.9663  -15.2545 O   0  0  0  0  0  0  0  0  0  0  0  0
   21.6433  -10.8053  -17.2180 N   0  0  0  0  0  0  0  0  0  0  0  0
   22.5616   -9.7736  -16.7084 C   0  0  1  0  0  0  0  0  0  0  0  0
   23.6421   -9.6003  -17.7839 C   0  0  0  0  0  0  0  0  0  0  0  0
   24.5600  -10.7434  -17.7329 C   0  0  0  0  0  0  0  0  0  0  0  0
   24.6411  -11.8376  -18.5672 C   0  0  0  0  0  0  0  0  0  0  0  0
   25.6206  -12.6508  -18.1689 N   0  0  0  0  0  0  0  0  0  0  0  0
   26.2071  -12.1135  -17.0655 C   0  0  0  0  0  0  0  0  0  0  0  0
   27.2544  -12.5542  -16.2777 C   0  0  0  0  0  0  0  0  0  0  0  0
   27.6392  -11.7824  -15.1996 C   0  0  0  0  0  0  0  0  0  0  0  0
   26.9937  -10.5935  -14.9105 C   0  0  0  0  0  0  0  0  0  0  0  0
   25.9575  -10.1703  -15.7009 C   0  0  0  0  0  0  0  0  0  0  0  0
   25.5665  -10.9370  -16.7814 C   0  0  0  0  0  0  0  0  0  0  0  0
   21.8694   -8.4714  -16.5935 C   0  0  0  0  0  0  0  0  0  0  0  0
   21.0192   -8.1205  -17.4501 O   0  0  0  0  0  0  0  0  0  0  0  0
   20.7570   -6.6917  -13.0442 O   0  0  0  0  0  0  0  0  0  0  0  0
   21.3799   -5.8483  -13.9300 C   0  0  0  0  0  0  0  0  0  0  0  0
   21.3413   -6.3447  -15.3588 C   0  0  2  0  0  0  0  0  0  0  0  0
   22.1128   -7.5516  -15.5328 N   0  0  0  0  0  0  0  0  0  0  0  0
   21.9446   -5.3048  -16.2330 C   0  0  0  0  0  0  0  0  0  0  0  0
   21.2647   -4.1521  -16.5964 O   0  0  0  0  0  0  0  0  0  0  0  0
   23.1165   -5.5042  -16.6436 O   0  0  0  0  0  0  0  0  0  0  0  0
  2  1  1  1
  2  3  1  0
  3  4  1  0
  4  5  2  0
  6  5  1  0
  7  6  1  0
  8  7  2  0
  8  4  1  0
  9  2  1  0
 10  9  2  0
 11  9  1  0
 12 11  1  0
 12 13  1  6
 14 13  1  0
 14 22  1  0
 15 16  1  0
 15 14  2  0
 16 17  1  0
 17 18  2  0
 17 22  1  0
 18 19  1  0
 19 20  2  0
 21 20  1  0
 22 21  2  0
 23 12  1  0
 23 28  1  0
 24 23  2  0
 26 25  1  0
 27 28  1  0
 27 26  1  1
 29 27  1  0
 29 30  1  0
 31 29  2  0
M  END
$$$$
