HWS.pdb
     RDKit          3D

 31 33  0  0  1  0  0  0  0  0999 V2000
   21.6696  -11.9600  -17.7296 N   0  0  0  0  0  0  0  0  0  0  0  0
   21.3743  -10.7520  -18.5165 C   0  0  1  0  0  0  0  0  0  0  0  0
   20.1715  -10.9788  -19.3662 C   0  0  0  0  0  0  0  0  0  0  0  0
   20.3700  -12.0134  -20.3970 C   0  0  0  0  0  0  0  0  0  0  0  0
   20.9769  -11.7593  -21.6448 C   0  0  0  0  0  0  0  0  0  0  0  0
   21.0039  -12.9018  -22.3423 N   0  0  0  0  0  0  0  0  0  0  0  0
   20.4441  -13.8839  -21.6075 C   0  0  0  0  0  0  0  0  0  0  0  0
   20.0753  -13.3173  -20.4479 N   0  0  0  0  0  0  0  0  0  0  0  0
   21.1262   -9.6261  -17.5686 C   0  0  0  0  0  0  0  0  0  0  0  0
   20.3512   -9.7411  -16.6177 O   0  0  0  0  0  0  0  0  0  0  0  0
   21.7918   -8.3785  -17.7485 N   0  0  0  0  0  0  0  0  0  0  0  0
   21.7138   -7.3366  -16.7113 C   0  0  1  0  0  0  0  0  0  0  0  0
   23.1626   -7.0278  -16.3119 C   0  0  0  0  0  0  0  0  0  0  0  0
   23.7287   -8.1892  -15.6171 C   0  0  0  0  0  0  0  0  0  0  0  0
   23.2174   -8.9101  -14.5595 C   0  0  0  0  0  0  0  0  0  0  0  0
   24.0516   -9.8961  -14.2261 N   0  0  0  0  0  0  0  0  0  0  0  0
   25.1299   -9.8489  -15.0538 C   0  0  0  0  0  0  0  0  0  0  0  0
   26.2640  -10.6363  -15.1275 C   0  0  0  0  0  0  0  0  0  0  0  0
   27.2085  -10.3443  -16.0913 C   0  0  0  0  0  0  0  0  0  0  0  0
   27.0278   -9.2880  -16.9660 C   0  0  0  0  0  0  0  0  0  0  0  0
   25.8984   -8.5169  -16.8803 C   0  0  0  0  0  0  0  0  0  0  0  0
   24.9487   -8.8027  -15.9186 C   0  0  0  0  0  0  0  0  0  0  0  0
   21.1556   -6.0862  -17.2705 C   0  0  0  0  0  0  0  0  0  0  0  0
   21.6616   -5.5606  -18.2940 O   0  0  0  0  0  0  0  0  0  0  0  0
   17.7968   -4.2587  -15.5535 O   0  0  0  0  0  0  0  0  0  0  0  0
   18.0683   -3.9598  -16.8653 C   0  0  0  0  0  0  0  0  0  0  0  0
   19.5173   -4.1778  -17.2424 C   0  0  2  0  0  0  0  0  0  0  0  0
   20.0369   -5.4109  -16.7023 N   0  0  0  0  0  0  0  0  0  0  0  0
   20.3236   -3.0692  -16.6675 C   0  0  0  0  0  0  0  0  0  0  0  0
   21.3035   -3.2810  -15.7093 O   0  0  0  0  0  0  0  0  0  0  0  0
   20.0866   -1.9065  -17.0839 O   0  0  0  0  0  0  0  0  0  0  0  0
  2  1  1  1
  2  3  1  0
  3  4  1  0
  4  5  2  0
  6  5  1  0
  7  6  1  0
  8  7  2  0
  8  4  1  0
  9  2  1  0
 10  9  2  0
 11  9  1  0
 12 11  1  0
 12 13  1  6
 14 13  1  0
 14 22  1  0
 15 16  1  0
 15 14  2  0
 16 17  1  0
 17 18  2  0
 17 22  1  0
 18 19  1  0
 19 20  2  0
 21 20  1  0
 22 21  2  0
 23 12  1  0
 23 28  1  0
 24 23  2  0
 26 25  1  0
 27 28  1  0
 27 26  1  1
 29 27  1  0
 29 30  1  0
 31 29  2  0
M  END
$$$$
