HWS.pdb
     RDKit          3D

 31 33  0  0  1  0  0  0  0  0999 V2000
   22.2950  -13.3574  -20.3133 N   0  0  0  0  0  0  0  0  0  0  0  0
   21.8323  -11.9607  -20.3427 C   0  0  1  0  0  0  0  0  0  0  0  0
   20.5984  -11.8500  -21.1708 C   0  0  0  0  0  0  0  0  0  0  0  0
   20.8262  -12.1285  -22.6001 C   0  0  0  0  0  0  0  0  0  0  0  0
   20.4777  -11.2307  -23.6308 C   0  0  0  0  0  0  0  0  0  0  0  0
   20.8153  -11.7816  -24.8034 N   0  0  0  0  0  0  0  0  0  0  0  0
   21.3657  -12.9925  -24.5830 C   0  0  0  0  0  0  0  0  0  0  0  0
   21.3568  -13.1689  -23.2524 N   0  0  0  0  0  0  0  0  0  0  0  0
   21.5479  -11.5332  -18.9413 C   0  0  0  0  0  0  0  0  0  0  0  0
   20.8987  -12.2406  -18.1691 O   0  0  0  0  0  0  0  0  0  0  0  0
   22.0298  -10.2797  -18.4631 N   0  0  0  0  0  0  0  0  0  0  0  0
   21.7148   -9.8334  -17.0960 C   0  0  1  0  0  0  0  0  0  0  0  0
   22.9542   -9.0760  -16.6019 C   0  0  0  0  0  0  0  0  0  0  0  0
   22.7501   -8.6778  -15.2048 C   0  0  0  0  0  0  0  0  0  0  0  0
   22.5920   -9.4661  -14.0852 C   0  0  0  0  0  0  0  0  0  0  0  0
   22.4313   -8.7038  -13.0024 N   0  0  0  0  0  0  0  0  0  0  0  0
   22.4796   -7.3984  -13.3813 C   0  0  0  0  0  0  0  0  0  0  0  0
   22.3684   -6.2280  -12.6536 C   0  0  0  0  0  0  0  0  0  0  0  0
   22.4593   -5.0238  -13.3228 C   0  0  0  0  0  0  0  0  0  0  0  0
   22.6573   -4.9848  -14.6913 C   0  0  0  0  0  0  0  0  0  0  0  0
   22.7655   -6.1534  -15.3985 C   0  0  0  0  0  0  0  0  0  0  0  0
   22.6756   -7.3624  -14.7361 C   0  0  0  0  0  0  0  0  0  0  0  0
   20.6030   -8.8578  -17.1100 C   0  0  0  0  0  0  0  0  0  0  0  0
   20.5817   -7.9235  -17.9505 O   0  0  0  0  0  0  0  0  0  0  0  0
   17.3538   -9.2212  -14.4724 O   0  0  0  0  0  0  0  0  0  0  0  0
   17.1482   -8.5496  -15.6516 C   0  0  0  0  0  0  0  0  0  0  0  0
   18.4159   -7.9706  -16.2408 C   0  0  2  0  0  0  0  0  0  0  0  0
   19.5106   -8.9096  -16.1967 N   0  0  0  0  0  0  0  0  0  0  0  0
   18.8135   -6.7901  -15.4296 C   0  0  0  0  0  0  0  0  0  0  0  0
   18.0519   -5.6323  -15.3775 O   0  0  0  0  0  0  0  0  0  0  0  0
   19.8851   -6.8725  -14.7766 O   0  0  0  0  0  0  0  0  0  0  0  0
  2  1  1  1
  2  3  1  0
  3  4  1  0
  4  5  2  0
  6  5  1  0
  7  6  1  0
  8  7  2  0
  8  4  1  0
  9  2  1  0
 10  9  2  0
 11  9  1  0
 12 11  1  0
 12 13  1  6
 14 13  1  0
 14 22  1  0
 15 16  1  0
 15 14  2  0
 16 17  1  0
 17 18  2  0
 17 22  1  0
 18 19  1  0
 19 20  2  0
 21 20  1  0
 22 21  2  0
 23 12  1  0
 23 28  1  0
 24 23  2  0
 26 25  1  0
 27 28  1  0
 27 26  1  1
 29 27  1  0
 29 30  1  0
 31 29  2  0
M  END
$$$$
