HWS.pdb
     RDKit          3D

 31 33  0  0  1  0  0  0  0  0999 V2000
   20.9583  -20.2790  -11.7625 N   0  0  0  0  0  0  0  0  0  0  0  0
   21.9205  -21.1573  -12.4471 C   0  0  1  0  0  0  0  0  0  0  0  0
   21.4888  -21.3868  -13.8547 C   0  0  0  0  0  0  0  0  0  0  0  0
   20.4075  -22.3806  -13.9803 C   0  0  0  0  0  0  0  0  0  0  0  0
   19.1795  -22.2823  -13.2931 C   0  0  0  0  0  0  0  0  0  0  0  0
   18.4241  -23.3368  -13.6246 N   0  0  0  0  0  0  0  0  0  0  0  0
   19.1025  -24.1136  -14.4931 C   0  0  0  0  0  0  0  0  0  0  0  0
   20.2868  -23.5116  -14.6844 N   0  0  0  0  0  0  0  0  0  0  0  0
   23.2572  -20.4937  -12.4237 C   0  0  0  0  0  0  0  0  0  0  0  0
   23.3800  -19.2813  -12.6057 O   0  0  0  0  0  0  0  0  0  0  0  0
   24.4341  -21.2621  -12.1864 N   0  0  0  0  0  0  0  0  0  0  0  0
   25.7597  -20.6223  -12.2167 C   0  0  1  0  0  0  0  0  0  0  0  0
   26.6281  -21.4004  -11.2194 C   0  0  0  0  0  0  0  0  0  0  0  0
   26.5485  -20.7539   -9.9049 C   0  0  0  0  0  0  0  0  0  0  0  0
   25.4717  -20.1519   -9.2903 C   0  0  0  0  0  0  0  0  0  0  0  0
   25.8252  -19.6851   -8.0919 N   0  0  0  0  0  0  0  0  0  0  0  0
   27.1401  -19.9675   -7.8883 C   0  0  0  0  0  0  0  0  0  0  0  0
   27.9798  -19.7036   -6.8220 C   0  0  0  0  0  0  0  0  0  0  0  0
   29.2943  -20.1190   -6.8988 C   0  0  0  0  0  0  0  0  0  0  0  0
   29.7646  -20.7850   -8.0164 C   0  0  0  0  0  0  0  0  0  0  0  0
   28.9199  -21.0390   -9.0650 C   0  0  0  0  0  0  0  0  0  0  0  0
   27.6033  -20.6265   -8.9956 C   0  0  0  0  0  0  0  0  0  0  0  0
   26.3892  -20.7916  -13.5445 C   0  0  0  0  0  0  0  0  0  0  0  0
   26.1566  -21.8140  -14.2376 O   0  0  0  0  0  0  0  0  0  0  0  0
   29.2379  -18.8927  -17.0707 O   0  0  0  0  0  0  0  0  0  0  0  0
   28.6168  -18.7486  -15.8552 C   0  0  0  0  0  0  0  0  0  0  0  0
   27.8032  -19.9583  -15.4504 C   0  0  2  0  0  0  0  0  0  0  0  0
   27.2778  -19.8333  -14.1123 N   0  0  0  0  0  0  0  0  0  0  0  0
   28.6933  -21.1488  -15.4662 C   0  0  0  0  0  0  0  0  0  0  0  0
   28.8093  -21.9765  -16.5728 O   0  0  0  0  0  0  0  0  0  0  0  0
   29.3535  -21.3902  -14.4234 O   0  0  0  0  0  0  0  0  0  0  0  0
  2  1  1  6
  2  3  1  0
  3  4  1  0
  4  5  2  0
  6  5  1  0
  7  6  1  0
  8  7  2  0
  8  4  1  0
  9  2  1  0
 10  9  2  0
 11  9  1  0
 12 11  1  0
 12 13  1  1
 14 13  1  0
 14 22  1  0
 15 16  1  0
 15 14  2  0
 16 17  1  0
 17 18  2  0
 17 22  1  0
 18 19  1  0
 19 20  2  0
 21 20  1  0
 22 21  2  0
 23 12  1  0
 23 28  1  0
 24 23  2  0
 26 25  1  0
 27 28  1  0
 27 26  1  1
 29 27  1  0
 29 30  1  0
 31 29  2  0
M  END
$$$$
