HWS.pdb
     RDKit          3D

 31 33  0  0  1  0  0  0  0  0999 V2000
   28.3067  -21.9411  -15.2188 N   0  0  0  0  0  0  0  0  0  0  0  0
   28.0378  -20.7098  -14.4588 C   0  0  1  0  0  0  0  0  0  0  0  0
   27.2771  -19.7460  -15.3029 C   0  0  0  0  0  0  0  0  0  0  0  0
   28.0738  -19.1784  -16.4055 C   0  0  0  0  0  0  0  0  0  0  0  0
   27.8641  -19.5037  -17.7620 C   0  0  0  0  0  0  0  0  0  0  0  0
   28.7479  -18.8222  -18.5016 N   0  0  0  0  0  0  0  0  0  0  0  0
   29.5200  -18.0711  -17.6907 C   0  0  0  0  0  0  0  0  0  0  0  0
   29.0894  -18.3084  -16.4418 N   0  0  0  0  0  0  0  0  0  0  0  0
   27.2403  -21.0717  -13.2502 C   0  0  0  0  0  0  0  0  0  0  0  0
   26.1974  -21.7223  -13.3353 O   0  0  0  0  0  0  0  0  0  0  0  0
   27.6775  -20.6655  -11.9557 N   0  0  0  0  0  0  0  0  0  0  0  0
   26.8353  -20.9129  -10.7738 C   0  0  1  0  0  0  0  0  0  0  0  0
   27.5702  -20.2725   -9.5889 C   0  0  0  0  0  0  0  0  0  0  0  0
   26.8015  -20.5074   -8.3617 C   0  0  0  0  0  0  0  0  0  0  0  0
   25.5447  -21.0520   -8.2079 C   0  0  0  0  0  0  0  0  0  0  0  0
   25.2115  -21.0877   -6.9168 N   0  0  0  0  0  0  0  0  0  0  0  0
   26.2379  -20.5690   -6.1906 C   0  0  0  0  0  0  0  0  0  0  0  0
   26.3948  -20.3812   -4.8298 C   0  0  0  0  0  0  0  0  0  0  0  0
   27.5702  -19.8196   -4.3724 C   0  0  0  0  0  0  0  0  0  0  0  0
   28.5715  -19.4516   -5.2531 C   0  0  0  0  0  0  0  0  0  0  0  0
   28.4009  -19.6442   -6.5989 C   0  0  0  0  0  0  0  0  0  0  0  0
   27.2276  -20.2055   -7.0644 C   0  0  0  0  0  0  0  0  0  0  0  0
   25.5421  -20.2060  -10.8989 C   0  0  0  0  0  0  0  0  0  0  0  0
   25.4926  -18.9505  -10.8626 O   0  0  0  0  0  0  0  0  0  0  0  0
   22.2851  -22.1282  -12.5752 O   0  0  0  0  0  0  0  0  0  0  0  0
   22.3948  -20.7603  -12.6035 C   0  0  0  0  0  0  0  0  0  0  0  0
   23.0730  -20.1877  -11.3781 C   0  0  2  0  0  0  0  0  0  0  0  0
   24.2986  -20.8817  -11.0645 N   0  0  0  0  0  0  0  0  0  0  0  0
   22.1610  -20.3546  -10.2162 C   0  0  0  0  0  0  0  0  0  0  0  0
   22.4650  -21.1801   -9.1442 O   0  0  0  0  0  0  0  0  0  0  0  0
   21.0805  -19.7113  -10.2330 O   0  0  0  0  0  0  0  0  0  0  0  0
  2  1  1  6
  2  3  1  0
  3  4  1  0
  4  5  2  0
  6  5  1  0
  7  6  1  0
  8  7  2  0
  8  4  1  0
  9  2  1  0
 10  9  2  0
 11  9  1  0
 12 11  1  0
 12 13  1  1
 14 13  1  0
 14 22  1  0
 15 16  1  0
 15 14  2  0
 16 17  1  0
 17 18  2  0
 17 22  1  0
 18 19  1  0
 19 20  2  0
 21 20  1  0
 22 21  2  0
 23 12  1  0
 23 28  1  0
 24 23  2  0
 26 25  1  0
 27 28  1  0
 27 26  1  6
 29 27  1  0
 29 30  1  0
 31 29  2  0
M  END
$$$$
