HWS.pdb
     RDKit          3D

 31 33  0  0  1  0  0  0  0  0999 V2000
   27.5595  -21.2383  -14.2449 N   0  0  0  0  0  0  0  0  0  0  0  0
   26.5423  -20.4106  -13.5770 C   0  0  1  0  0  0  0  0  0  0  0  0
   25.2326  -20.5524  -14.2733 C   0  0  0  0  0  0  0  0  0  0  0  0
   25.2145  -19.9430  -15.6153 C   0  0  0  0  0  0  0  0  0  0  0  0
   25.1609  -20.6943  -16.8081 C   0  0  0  0  0  0  0  0  0  0  0  0
   25.1578  -19.8447  -17.8429 N   0  0  0  0  0  0  0  0  0  0  0  0
   25.2068  -18.5797  -17.3790 C   0  0  0  0  0  0  0  0  0  0  0  0
   25.2399  -18.6750  -16.0405 N   0  0  0  0  0  0  0  0  0  0  0  0
   26.4218  -20.8701  -12.1621 C   0  0  0  0  0  0  0  0  0  0  0  0
   26.2702  -22.0597  -11.8797 O   0  0  0  0  0  0  0  0  0  0  0  0
   26.4813  -19.9265  -11.0952 N   0  0  0  0  0  0  0  0  0  0  0  0
   26.3631  -20.3743   -9.6978 C   0  0  1  0  0  0  0  0  0  0  0  0
   26.8067  -19.1866   -8.8338 C   0  0  0  0  0  0  0  0  0  0  0  0
   26.8080  -19.5908   -7.4236 C   0  0  0  0  0  0  0  0  0  0  0  0
   25.7584  -19.6603   -6.5330 C   0  0  0  0  0  0  0  0  0  0  0  0
   26.1900  -20.0776   -5.3418 N   0  0  0  0  0  0  0  0  0  0  0  0
   27.5308  -20.2926   -5.4185 C   0  0  0  0  0  0  0  0  0  0  0  0
   28.4453  -20.7244   -4.4757 C   0  0  0  0  0  0  0  0  0  0  0  0
   29.7684  -20.8512   -4.8495 C   0  0  0  0  0  0  0  0  0  0  0  0
   30.1741  -20.5540   -6.1381 C   0  0  0  0  0  0  0  0  0  0  0  0
   29.2557  -20.1273   -7.0611 C   0  0  0  0  0  0  0  0  0  0  0  0
   27.9300  -19.9977   -6.6948 C   0  0  0  0  0  0  0  0  0  0  0  0
   24.9491  -20.6399   -9.3541 C   0  0  0  0  0  0  0  0  0  0  0  0
   24.0373  -19.8754   -9.7591 O   0  0  0  0  0  0  0  0  0  0  0  0
   23.7033  -23.5252   -6.4968 O   0  0  0  0  0  0  0  0  0  0  0  0
   22.9777  -23.4110   -7.6563 C   0  0  0  0  0  0  0  0  0  0  0  0
   23.1470  -22.0720   -8.3402 C   0  0  2  0  0  0  0  0  0  0  0  0
   24.5360  -21.7502   -8.5623 N   0  0  0  0  0  0  0  0  0  0  0  0
   22.5856  -21.0186   -7.4544 C   0  0  0  0  0  0  0  0  0  0  0  0
   21.2423  -20.9714   -7.1131 O   0  0  0  0  0  0  0  0  0  0  0  0
   23.3815  -20.1508   -7.0127 O   0  0  0  0  0  0  0  0  0  0  0  0
  2  1  1  6
  2  3  1  0
  3  4  1  0
  4  5  2  0
  6  5  1  0
  7  6  1  0
  8  7  2  0
  8  4  1  0
  9  2  1  0
 10  9  2  0
 11  9  1  0
 12 11  1  0
 12 13  1  1
 14 13  1  0
 14 22  1  0
 15 16  1  0
 15 14  2  0
 16 17  1  0
 17 18  2  0
 17 22  1  0
 18 19  1  0
 19 20  2  0
 21 20  1  0
 22 21  2  0
 23 12  1  0
 23 28  1  0
 24 23  2  0
 26 25  1  0
 27 28  1  0
 27 26  1  1
 29 27  1  0
 29 30  1  0
 31 29  2  0
M  END
$$$$
