HWS.pdb
     RDKit          3D

 31 33  0  0  1  0  0  0  0  0999 V2000
   15.7815  -19.0491    5.6033 N   0  0  0  0  0  0  0  0  0  0  0  0
   15.9288  -18.7436    7.0354 C   0  0  1  0  0  0  0  0  0  0  0  0
   15.8747  -20.0012    7.8328 C   0  0  0  0  0  0  0  0  0  0  0  0
   14.5063  -20.5150    8.0227 C   0  0  0  0  0  0  0  0  0  0  0  0
   13.8893  -21.4246    7.1386 C   0  0  0  0  0  0  0  0  0  0  0  0
   12.6582  -21.6880    7.5943 N   0  0  0  0  0  0  0  0  0  0  0  0
   12.4474  -20.9935    8.7305 C   0  0  0  0  0  0  0  0  0  0  0  0
   13.5746  -20.3013    8.9584 N   0  0  0  0  0  0  0  0  0  0  0  0
   17.2440  -18.0670    7.2357 C   0  0  0  0  0  0  0  0  0  0  0  0
   18.2531  -18.4220    6.6243 O   0  0  0  0  0  0  0  0  0  0  0  0
   17.3584  -16.9808    8.1517 N   0  0  0  0  0  0  0  0  0  0  0  0
   18.6396  -16.2733    8.3114 C   0  0  1  0  0  0  0  0  0  0  0  0
   18.2814  -14.8130    8.6168 C   0  0  0  0  0  0  0  0  0  0  0  0
   18.3753  -14.0258    7.3824 C   0  0  0  0  0  0  0  0  0  0  0  0
   17.4478  -13.8643    6.3758 C   0  0  0  0  0  0  0  0  0  0  0  0
   17.9315  -13.0621    5.4261 N   0  0  0  0  0  0  0  0  0  0  0  0
   19.1861  -12.6767    5.7832 C   0  0  0  0  0  0  0  0  0  0  0  0
   20.1071  -11.8586    5.1553 C   0  0  0  0  0  0  0  0  0  0  0  0
   21.3255  -11.6445    5.7686 C   0  0  0  0  0  0  0  0  0  0  0  0
   21.6219  -12.2337    6.9846 C   0  0  0  0  0  0  0  0  0  0  0  0
   20.6985  -13.0419    7.5942 C   0  0  0  0  0  0  0  0  0  0  0  0
   19.4772  -13.2610    6.9869 C   0  0  0  0  0  0  0  0  0  0  0  0
   19.3720  -16.7827    9.4912 C   0  0  0  0  0  0  0  0  0  0  0  0
   18.7848  -16.9374   10.5917 O   0  0  0  0  0  0  0  0  0  0  0  0
   22.8038  -19.0112    9.0755 O   0  0  0  0  0  0  0  0  0  0  0  0
   22.0574  -19.0535   10.2267 C   0  0  0  0  0  0  0  0  0  0  0  0
   21.4323  -17.7231   10.5854 C   0  0  2  0  0  0  0  0  0  0  0  0
   20.7553  -17.1233    9.4611 N   0  0  0  0  0  0  0  0  0  0  0  0
   22.5154  -16.7919   10.9971 C   0  0  0  0  0  0  0  0  0  0  0  0
   23.2494  -16.9718   12.1599 O   0  0  0  0  0  0  0  0  0  0  0  0
   22.7530  -15.8133   10.2439 O   0  0  0  0  0  0  0  0  0  0  0  0
  2  1  1  6
  2  3  1  0
  3  4  1  0
  4  5  2  0
  6  5  1  0
  7  6  1  0
  8  7  2  0
  8  4  1  0
  9  2  1  0
 10  9  2  0
 11  9  1  0
 12 11  1  0
 12 13  1  1
 14 13  1  0
 14 22  1  0
 15 16  1  0
 15 14  2  0
 16 17  1  0
 17 18  2  0
 17 22  1  0
 18 19  1  0
 19 20  2  0
 21 20  1  0
 22 21  2  0
 23 12  1  0
 23 28  1  0
 24 23  2  0
 26 25  1  0
 27 28  1  0
 27 26  1  6
 29 27  1  0
 29 30  1  0
 31 29  2  0
M  END
$$$$
