HWS.pdb
     RDKit          3D

 31 33  0  0  1  0  0  0  0  0999 V2000
   26.6343  -21.1850  -17.6565 N   0  0  0  0  0  0  0  0  0  0  0  0
   26.8120  -22.4620  -16.9470 C   0  0  1  0  0  0  0  0  0  0  0  0
   28.2625  -22.7310  -16.7376 C   0  0  0  0  0  0  0  0  0  0  0  0
   29.0702  -22.5678  -17.9597 C   0  0  0  0  0  0  0  0  0  0  0  0
   29.9159  -21.4623  -18.1891 C   0  0  0  0  0  0  0  0  0  0  0  0
   30.5013  -21.6185  -19.3830 N   0  0  0  0  0  0  0  0  0  0  0  0
   30.0763  -22.7712  -19.9385 C   0  0  0  0  0  0  0  0  0  0  0  0
   29.2199  -23.3146  -19.0593 N   0  0  0  0  0  0  0  0  0  0  0  0
   26.1143  -22.3662  -15.6311 C   0  0  0  0  0  0  0  0  0  0  0  0
   26.1612  -23.2807  -14.8067 O   0  0  0  0  0  0  0  0  0  0  0  0
   25.3698  -21.1968  -15.2987 N   0  0  0  0  0  0  0  0  0  0  0  0
   24.7305  -21.0715  -13.9785 C   0  0  1  0  0  0  0  0  0  0  0  0
   25.2624  -19.7659  -13.3729 C   0  0  0  0  0  0  0  0  0  0  0  0
   26.5990  -20.0026  -12.8165 C   0  0  0  0  0  0  0  0  0  0  0  0
   27.8319  -19.8768  -13.4195 C   0  0  0  0  0  0  0  0  0  0  0  0
   28.8015  -20.1897  -12.5585 N   0  0  0  0  0  0  0  0  0  0  0  0
   28.2323  -20.5282  -11.3705 C   0  0  0  0  0  0  0  0  0  0  0  0
   28.7877  -20.9260  -10.1684 C   0  0  0  0  0  0  0  0  0  0  0  0
   27.9435  -21.2101   -9.1135 C   0  0  0  0  0  0  0  0  0  0  0  0
   26.5715  -21.1003   -9.2521 C   0  0  0  0  0  0  0  0  0  0  0  0
   26.0364  -20.7049  -10.4499 C   0  0  0  0  0  0  0  0  0  0  0  0
   26.8745  -20.4189  -11.5102 C   0  0  0  0  0  0  0  0  0  0  0  0
   23.2679  -20.9037  -14.1221 C   0  0  0  0  0  0  0  0  0  0  0  0
   22.7886  -20.2740  -15.0986 O   0  0  0  0  0  0  0  0  0  0  0  0
   20.5207  -22.5016  -11.3072 O   0  0  0  0  0  0  0  0  0  0  0  0
   20.1774  -22.4661  -12.6357 C   0  0  0  0  0  0  0  0  0  0  0  0
   20.9041  -21.3915  -13.4144 C   0  0  2  0  0  0  0  0  0  0  0  0
   22.3288  -21.4303  -13.1888 N   0  0  0  0  0  0  0  0  0  0  0  0
   20.4190  -20.0658  -12.9489 C   0  0  0  0  0  0  0  0  0  0  0  0
   19.1296  -19.6175  -13.1931 O   0  0  0  0  0  0  0  0  0  0  0  0
   21.2296  -19.3450  -12.3125 O   0  0  0  0  0  0  0  0  0  0  0  0
  2  1  1  1
  2  3  1  0
  3  4  1  0
  4  5  2  0
  6  5  1  0
  7  6  1  0
  8  7  2  0
  8  4  1  0
  9  2  1  0
 10  9  2  0
 11  9  1  0
 12 11  1  0
 12 13  1  6
 14 13  1  0
 14 22  1  0
 15 16  1  0
 15 14  2  0
 16 17  1  0
 17 18  2  0
 17 22  1  0
 18 19  1  0
 19 20  2  0
 21 20  1  0
 22 21  2  0
 23 12  1  0
 23 28  1  0
 24 23  2  0
 26 25  1  0
 27 28  1  0
 27 26  1  1
 29 27  1  0
 29 30  1  0
 31 29  2  0
M  END
$$$$
