HWS.pdb
     RDKit          3D

 31 33  0  0  1  0  0  0  0  0999 V2000
   28.4626  -34.2894   -2.8516 N   0  0  0  0  0  0  0  0  0  0  0  0
   28.0995  -35.1677   -1.7279 C   0  0  1  0  0  0  0  0  0  0  0  0
   29.1131  -36.2496   -1.5788 C   0  0  0  0  0  0  0  0  0  0  0  0
   29.0880  -37.2304   -2.6789 C   0  0  0  0  0  0  0  0  0  0  0  0
   30.1508  -37.4012   -3.5906 C   0  0  0  0  0  0  0  0  0  0  0  0
   29.8129  -38.3634   -4.4581 N   0  0  0  0  0  0  0  0  0  0  0  0
   28.5831  -38.8244   -4.1532 C   0  0  0  0  0  0  0  0  0  0  0  0
   28.1780  -38.1240   -3.0822 N   0  0  0  0  0  0  0  0  0  0  0  0
   28.0477  -34.3406   -0.4866 C   0  0  0  0  0  0  0  0  0  0  0  0
   28.9916  -33.6255   -0.1468 O   0  0  0  0  0  0  0  0  0  0  0  0
   26.8872  -34.3631    0.3410 N   0  0  0  0  0  0  0  0  0  0  0  0
   26.7931  -33.4804    1.5155 C   0  0  1  0  0  0  0  0  0  0  0  0
   25.2979  -33.2008    1.7160 C   0  0  0  0  0  0  0  0  0  0  0  0
   25.1373  -31.9312    2.4332 C   0  0  0  0  0  0  0  0  0  0  0  0
   26.0936  -31.1343    3.0250 C   0  0  0  0  0  0  0  0  0  0  0  0
   25.5246  -30.0600    3.5740 N   0  0  0  0  0  0  0  0  0  0  0  0
   24.1832  -30.1229    3.3578 C   0  0  0  0  0  0  0  0  0  0  0  0
   23.1559  -29.2698    3.7166 C   0  0  0  0  0  0  0  0  0  0  0  0
   21.8660  -29.6002    3.3516 C   0  0  0  0  0  0  0  0  0  0  0  0
   21.6030  -30.7584    2.6423 C   0  0  0  0  0  0  0  0  0  0  0  0
   22.6319  -31.5936    2.2941 C   0  0  0  0  0  0  0  0  0  0  0  0
   23.9254  -31.2700    2.6557 C   0  0  0  0  0  0  0  0  0  0  0  0
   27.2572  -34.1817    2.7323 C   0  0  0  0  0  0  0  0  0  0  0  0
   26.8522  -35.3420    2.9963 O   0  0  0  0  0  0  0  0  0  0  0  0
   29.6284  -32.1772    5.3686 O   0  0  0  0  0  0  0  0  0  0  0  0
   29.6961  -33.5319    5.5788 C   0  0  0  0  0  0  0  0  0  0  0  0
   28.6311  -34.3079    4.8354 C   0  0  2  0  0  0  0  0  0  0  0  0
   28.1698  -33.6053    3.6625 N   0  0  0  0  0  0  0  0  0  0  0  0
   27.4611  -34.4797    5.7362 C   0  0  0  0  0  0  0  0  0  0  0  0
   27.5389  -35.1774    6.9321 O   0  0  0  0  0  0  0  0  0  0  0  0
   26.3732  -33.9627    5.3748 O   0  0  0  0  0  0  0  0  0  0  0  0
  2  1  1  6
  2  3  1  0
  3  4  1  0
  4  5  2  0
  6  5  1  0
  7  6  1  0
  8  7  2  0
  8  4  1  0
  9  2  1  0
 10  9  2  0
 11  9  1  0
 12 11  1  0
 12 13  1  1
 14 13  1  0
 14 22  1  0
 15 16  1  0
 15 14  2  0
 16 17  1  0
 17 18  2  0
 17 22  1  0
 18 19  1  0
 19 20  2  0
 21 20  1  0
 22 21  2  0
 23 12  1  0
 23 28  1  0
 24 23  2  0
 26 25  1  0
 27 28  1  0
 27 26  1  1
 29 27  1  0
 29 30  1  0
 31 29  2  0
M  END
$$$$
