HWS.pdb
     RDKit          3D

 31 33  0  0  1  0  0  0  0  0999 V2000
   24.5144  -18.3827  -18.3692 N   0  0  0  0  0  0  0  0  0  0  0  0
   24.7370  -18.7239  -16.9551 C   0  0  1  0  0  0  0  0  0  0  0  0
   25.8700  -17.9241  -16.4103 C   0  0  0  0  0  0  0  0  0  0  0  0
   27.1548  -18.1994  -17.0782 C   0  0  0  0  0  0  0  0  0  0  0  0
   27.3018  -19.1377  -18.1212 C   0  0  0  0  0  0  0  0  0  0  0  0
   28.5846  -19.1461  -18.5045 N   0  0  0  0  0  0  0  0  0  0  0  0
   29.2761  -18.2592  -17.7608 C   0  0  0  0  0  0  0  0  0  0  0  0
   28.3891  -17.7098  -16.9163 N   0  0  0  0  0  0  0  0  0  0  0  0
   23.4864  -18.4204  -16.1990 C   0  0  0  0  0  0  0  0  0  0  0  0
   23.2474  -17.2893  -15.7730 O   0  0  0  0  0  0  0  0  0  0  0  0
   22.5310  -19.4492  -15.9526 N   0  0  0  0  0  0  0  0  0  0  0  0
   21.2992  -19.1569  -15.2011 C   0  0  1  0  0  0  0  0  0  0  0  0
   20.1396  -19.4181  -16.1712 C   0  0  0  0  0  0  0  0  0  0  0  0
   20.1027  -18.3501  -17.1763 C   0  0  0  0  0  0  0  0  0  0  0  0
   20.4932  -18.3793  -18.4978 C   0  0  0  0  0  0  0  0  0  0  0  0
   20.2927  -17.1889  -19.0652 N   0  0  0  0  0  0  0  0  0  0  0  0
   19.7666  -16.3488  -18.1338 C   0  0  0  0  0  0  0  0  0  0  0  0
   19.3822  -15.0228  -18.2085 C   0  0  0  0  0  0  0  0  0  0  0  0
   18.8707  -14.4194  -17.0768 C   0  0  0  0  0  0  0  0  0  0  0  0
   18.7440  -15.1227  -15.8924 C   0  0  0  0  0  0  0  0  0  0  0  0
   19.1295  -16.4363  -15.8345 C   0  0  0  0  0  0  0  0  0  0  0  0
   19.6422  -17.0471  -16.9625 C   0  0  0  0  0  0  0  0  0  0  0  0
   21.1340  -20.1093  -14.0815 C   0  0  0  0  0  0  0  0  0  0  0  0
   21.4508  -21.3181  -14.2172 O   0  0  0  0  0  0  0  0  0  0  0  0
   19.3835  -18.9988  -10.3696 O   0  0  0  0  0  0  0  0  0  0  0  0
   20.3806  -19.9421  -10.3776 C   0  0  0  0  0  0  0  0  0  0  0  0
   20.5201  -20.6559  -11.7044 C   0  0  2  0  0  0  0  0  0  0  0  0
   20.6188  -19.7314  -12.8079 N   0  0  0  0  0  0  0  0  0  0  0  0
   19.3017  -21.4785  -11.9248 C   0  0  0  0  0  0  0  0  0  0  0  0
   19.0814  -22.6752  -11.2597 O   0  0  0  0  0  0  0  0  0  0  0  0
   18.4563  -21.0488  -12.7508 O   0  0  0  0  0  0  0  0  0  0  0  0
  2  1  1  6
  2  3  1  0
  3  4  1  0
  4  5  2  0
  6  5  1  0
  7  6  1  0
  8  7  2  0
  8  4  1  0
  9  2  1  0
 10  9  2  0
 11  9  1  0
 12 11  1  0
 12 13  1  6
 14 13  1  0
 14 22  1  0
 15 16  1  0
 15 14  2  0
 16 17  1  0
 17 18  2  0
 17 22  1  0
 18 19  1  0
 19 20  2  0
 21 20  1  0
 22 21  2  0
 23 12  1  0
 23 28  1  0
 24 23  2  0
 26 25  1  0
 27 28  1  0
 27 26  1  1
 29 27  1  0
 29 30  1  0
 31 29  2  0
M  END
$$$$
