HWS.pdb
     RDKit          3D

 31 33  0  0  1  0  0  0  0  0999 V2000
   25.5627   -4.7330  -20.9489 N   0  0  0  0  0  0  0  0  0  0  0  0
   24.8994   -6.0268  -21.1765 C   0  0  1  0  0  0  0  0  0  0  0  0
   25.6720   -7.1181  -20.5188 C   0  0  0  0  0  0  0  0  0  0  0  0
   26.9354   -7.4374  -21.2075 C   0  0  0  0  0  0  0  0  0  0  0  0
   28.2027   -7.3156  -20.5999 C   0  0  0  0  0  0  0  0  0  0  0  0
   29.1346   -7.6810  -21.4891 N   0  0  0  0  0  0  0  0  0  0  0  0
   28.5332   -8.0336  -22.6431 C   0  0  0  0  0  0  0  0  0  0  0  0
   27.2158   -7.8758  -22.4398 N   0  0  0  0  0  0  0  0  0  0  0  0
   23.5244   -5.9545  -20.6003 C   0  0  0  0  0  0  0  0  0  0  0  0
   23.3172   -5.4857  -19.4799 O   0  0  0  0  0  0  0  0  0  0  0  0
   22.4088   -6.4334  -21.3473 N   0  0  0  0  0  0  0  0  0  0  0  0
   21.0389   -6.2480  -20.8410 C   0  0  1  0  0  0  0  0  0  0  0  0
   20.1329   -6.2025  -22.0784 C   0  0  0  0  0  0  0  0  0  0  0  0
   18.8020   -5.7280  -21.6836 C   0  0  0  0  0  0  0  0  0  0  0  0
   18.4204   -5.0331  -20.5561 C   0  0  0  0  0  0  0  0  0  0  0  0
   17.1083   -4.7945  -20.5825 N   0  0  0  0  0  0  0  0  0  0  0  0
   16.5950   -5.3249  -21.7249 C   0  0  0  0  0  0  0  0  0  0  0  0
   15.3061   -5.3515  -22.2247 C   0  0  0  0  0  0  0  0  0  0  0  0
   15.0808   -5.9751  -23.4357 C   0  0  0  0  0  0  0  0  0  0  0  0
   16.1191   -6.5617  -24.1367 C   0  0  0  0  0  0  0  0  0  0  0  0
   17.3909   -6.5270  -23.6281 C   0  0  0  0  0  0  0  0  0  0  0  0
   17.6245   -5.9048  -22.4169 C   0  0  0  0  0  0  0  0  0  0  0  0
   20.6126   -7.4231  -20.0502 C   0  0  0  0  0  0  0  0  0  0  0  0
   20.8609   -8.5884  -20.4506 O   0  0  0  0  0  0  0  0  0  0  0  0
   19.2610   -9.4090  -15.8672 O   0  0  0  0  0  0  0  0  0  0  0  0
   19.7733   -8.3725  -16.6070 C   0  0  0  0  0  0  0  0  0  0  0  0
   19.4492   -8.4707  -18.0816 C   0  0  2  0  0  0  0  0  0  0  0  0
   19.9109   -7.3167  -18.8146 N   0  0  0  0  0  0  0  0  0  0  0  0
   17.9717   -8.5289  -18.2342 C   0  0  0  0  0  0  0  0  0  0  0  0
   17.2890   -9.7220  -18.4181 O   0  0  0  0  0  0  0  0  0  0  0  0
   17.3433   -7.4405  -18.1910 O   0  0  0  0  0  0  0  0  0  0  0  0
  2  1  1  1
  2  3  1  0
  3  4  1  0
  4  5  2  0
  6  5  1  0
  7  6  1  0
  8  7  2  0
  8  4  1  0
  9  2  1  0
 10  9  2  0
 11  9  1  0
 12 11  1  0
 12 13  1  6
 14 13  1  0
 14 22  1  0
 15 16  1  0
 15 14  2  0
 16 17  1  0
 17 18  2  0
 17 22  1  0
 18 19  1  0
 19 20  2  0
 21 20  1  0
 22 21  2  0
 23 12  1  0
 23 28  1  0
 24 23  2  0
 26 25  1  0
 27 28  1  0
 27 26  1  1
 29 27  1  0
 29 30  1  0
 31 29  2  0
M  END
$$$$
