HWS.pdb
     RDKit          3D

 31 33  0  0  1  0  0  0  0  0999 V2000
   18.5866  -18.3553  -17.4435 N   0  0  0  0  0  0  0  0  0  0  0  0
   17.7662  -19.5286  -17.1030 C   0  0  1  0  0  0  0  0  0  0  0  0
   18.6245  -20.7439  -17.0207 C   0  0  0  0  0  0  0  0  0  0  0  0
   19.3238  -21.0526  -18.2809 C   0  0  0  0  0  0  0  0  0  0  0  0
   20.7071  -21.3186  -18.3558 C   0  0  0  0  0  0  0  0  0  0  0  0
   21.0227  -21.5593  -19.6344 N   0  0  0  0  0  0  0  0  0  0  0  0
   19.9115  -21.4623  -20.3918 C   0  0  0  0  0  0  0  0  0  0  0  0
   18.9120  -21.1576  -19.5493 N   0  0  0  0  0  0  0  0  0  0  0  0
   17.1116  -19.2745  -15.7859 C   0  0  0  0  0  0  0  0  0  0  0  0
   16.9387  -20.1772  -14.9655 O   0  0  0  0  0  0  0  0  0  0  0  0
   16.6682  -17.9626  -15.4479 N   0  0  0  0  0  0  0  0  0  0  0  0
   16.0364  -17.7032  -14.1437 C   0  0  1  0  0  0  0  0  0  0  0  0
   16.3669  -16.2459  -13.7957 C   0  0  0  0  0  0  0  0  0  0  0  0
   17.8010  -16.1329  -13.5078 C   0  0  0  0  0  0  0  0  0  0  0  0
   18.5909  -16.9058  -12.6842 C   0  0  0  0  0  0  0  0  0  0  0  0
   19.8495  -16.4642  -12.7037 N   0  0  0  0  0  0  0  0  0  0  0  0
   19.9190  -15.3926  -13.5385 C   0  0  0  0  0  0  0  0  0  0  0  0
   20.9783  -14.5826  -13.9040 C   0  0  0  0  0  0  0  0  0  0  0  0
   20.7439  -13.5490  -14.7887 C   0  0  0  0  0  0  0  0  0  0  0  0
   19.4783  -13.3252  -15.3006 C   0  0  0  0  0  0  0  0  0  0  0  0
   18.4388  -14.1367  -14.9286 C   0  0  0  0  0  0  0  0  0  0  0  0
   18.6653  -15.1731  -14.0437 C   0  0  0  0  0  0  0  0  0  0  0  0
   14.5636  -17.7862  -14.2530 C   0  0  0  0  0  0  0  0  0  0  0  0
   13.9636  -17.2663  -15.2274 O   0  0  0  0  0  0  0  0  0  0  0  0
   12.5780  -20.6992  -12.2721 O   0  0  0  0  0  0  0  0  0  0  0  0
   11.7536  -19.6231  -12.4874 C   0  0  0  0  0  0  0  0  0  0  0  0
   12.3251  -18.6149  -13.4601 C   0  0  2  0  0  0  0  0  0  0  0  0
   13.7474  -18.4433  -13.2874 N   0  0  0  0  0  0  0  0  0  0  0  0
   11.6864  -17.2981  -13.2001 C   0  0  0  0  0  0  0  0  0  0  0  0
   10.3155  -17.1064  -13.2840 O   0  0  0  0  0  0  0  0  0  0  0  0
   12.4417  -16.3400  -12.8948 O   0  0  0  0  0  0  0  0  0  0  0  0
  2  1  1  1
  2  3  1  0
  3  4  1  0
  4  5  2  0
  6  5  1  0
  7  6  1  0
  8  7  2  0
  8  4  1  0
  9  2  1  0
 10  9  2  0
 11  9  1  0
 12 11  1  0
 12 13  1  6
 14 13  1  0
 14 22  1  0
 15 16  1  0
 15 14  2  0
 16 17  1  0
 17 18  2  0
 17 22  1  0
 18 19  1  0
 19 20  2  0
 21 20  1  0
 22 21  2  0
 23 12  1  0
 23 28  1  0
 24 23  2  0
 26 25  1  0
 27 28  1  0
 27 26  1  1
 29 27  1  0
 29 30  1  0
 31 29  2  0
M  END
$$$$
