HWS.pdb
     RDKit          3D

 31 33  0  0  1  0  0  0  0  0999 V2000
   22.7182  -17.7472  -18.9961 N   0  0  0  0  0  0  0  0  0  0  0  0
   23.2917  -19.0391  -18.5866 C   0  0  1  0  0  0  0  0  0  0  0  0
   24.3943  -19.4234  -19.5122 C   0  0  0  0  0  0  0  0  0  0  0  0
   23.9296  -19.7481  -20.8727 C   0  0  0  0  0  0  0  0  0  0  0  0
   24.2029  -18.9437  -21.9988 C   0  0  0  0  0  0  0  0  0  0  0  0
   23.6431  -19.5151  -23.0724 N   0  0  0  0  0  0  0  0  0  0  0  0
   23.0204  -20.6505  -22.6971 C   0  0  0  0  0  0  0  0  0  0  0  0
   23.2117  -20.7599  -21.3731 N   0  0  0  0  0  0  0  0  0  0  0  0
   23.8165  -18.8975  -17.1966 C   0  0  0  0  0  0  0  0  0  0  0  0
   24.7582  -18.1473  -16.9348 O   0  0  0  0  0  0  0  0  0  0  0  0
   23.2287  -19.6385  -16.1301 N   0  0  0  0  0  0  0  0  0  0  0  0
   23.7865  -19.5561  -14.7702 C   0  0  1  0  0  0  0  0  0  0  0  0
   22.6933  -20.0834  -13.8316 C   0  0  0  0  0  0  0  0  0  0  0  0
   23.2186  -20.1375  -12.4630 C   0  0  0  0  0  0  0  0  0  0  0  0
   24.4234  -19.6842  -11.9703 C   0  0  0  0  0  0  0  0  0  0  0  0
   24.5094  -19.9299  -10.6620 N   0  0  0  0  0  0  0  0  0  0  0  0
   23.3664  -20.5493  -10.2621 C   0  0  0  0  0  0  0  0  0  0  0  0
   22.9583  -21.0096   -9.0238 C   0  0  0  0  0  0  0  0  0  0  0  0
   21.7192  -21.6094   -8.9184 C   0  0  0  0  0  0  0  0  0  0  0  0
   20.9009  -21.7487  -10.0250 C   0  0  0  0  0  0  0  0  0  0  0  0
   21.3196  -21.2873  -11.2454 C   0  0  0  0  0  0  0  0  0  0  0  0
   22.5582  -20.6860  -11.3590 C   0  0  0  0  0  0  0  0  0  0  0  0
   24.9418  -20.4685  -14.6252 C   0  0  0  0  0  0  0  0  0  0  0  0
   24.8389  -21.6845  -14.9263 O   0  0  0  0  0  0  0  0  0  0  0  0
   28.8016  -19.0182  -14.0551 O   0  0  0  0  0  0  0  0  0  0  0  0
   28.6244  -20.2991  -14.5152 C   0  0  0  0  0  0  0  0  0  0  0  0
   27.3406  -20.9376  -14.0320 C   0  0  2  0  0  0  0  0  0  0  0  0
   26.2148  -20.0424  -14.1475 N   0  0  0  0  0  0  0  0  0  0  0  0
   27.4951  -21.2695  -12.5913 C   0  0  0  0  0  0  0  0  0  0  0  0
   28.4438  -22.1712  -12.1330 O   0  0  0  0  0  0  0  0  0  0  0  0
   26.7233  -20.6963  -11.7805 O   0  0  0  0  0  0  0  0  0  0  0  0
  2  1  1  6
  2  3  1  0
  3  4  1  0
  4  5  2  0
  6  5  1  0
  7  6  1  0
  8  7  2  0
  8  4  1  0
  9  2  1  0
 10  9  2  0
 11  9  1  0
 12 11  1  0
 12 13  1  1
 14 13  1  0
 14 22  1  0
 15 16  1  0
 15 14  2  0
 16 17  1  0
 17 18  2  0
 17 22  1  0
 18 19  1  0
 19 20  2  0
 21 20  1  0
 22 21  2  0
 23 12  1  0
 23 28  1  0
 24 23  2  0
 26 25  1  0
 27 28  1  0
 27 26  1  1
 29 27  1  0
 29 30  1  0
 31 29  2  0
M  END
$$$$
