KAI.pdb
     RDKit          3D

 23 22  0  0  1  0  0  0  0  0999 V2000
    7.5797  -16.2937   18.5354 N   0  0  0  0  0  0  0  0  0  0  0  0
    7.9894  -15.2381   19.4058 C   0  0  1  0  0  0  0  0  0  0  0  0
    7.3994  -13.8941   19.0793 C   0  0  0  0  0  0  0  0  0  0  0  0
    7.9413  -13.2482   17.8620 C   0  0  0  0  0  0  0  0  0  0  0  0
    7.6949  -13.9515   16.5785 C   0  0  0  0  0  0  0  0  0  0  0  0
    8.3341  -13.2975   15.3830 C   0  0  0  0  0  0  0  0  0  0  0  0
    8.0046  -14.1441   14.2262 N   0  0  0  0  0  0  0  0  0  0  0  0
    7.7627  -15.6261   20.8159 C   0  0  0  0  0  0  0  0  0  0  0  0
    6.5909  -15.6403   21.3278 O   0  0  0  0  0  0  0  0  0  0  0  0
    9.0976  -17.8766   23.2672 C   0  0  0  0  0  0  0  0  0  0  0  0
    8.5906  -16.4815   23.0467 C   0  0  2  0  0  0  0  0  0  0  0  0
    8.8129  -16.0066   21.6950 N   0  0  0  0  0  0  0  0  0  0  0  0
    9.0868  -15.5148   24.0561 C   0  0  0  0  0  0  0  0  0  0  0  0
   10.2700  -15.0826   23.9653 O   0  0  0  0  0  0  0  0  0  0  0  0
    5.8806  -11.9585   26.9716 C   0  0  0  0  0  0  0  0  0  0  0  0
    6.5555  -13.2755   26.6592 C   0  0  0  0  0  0  0  0  0  0  0  0
    7.9841  -12.9890   26.2760 C   0  0  2  0  0  0  0  0  0  0  0  0
    8.0678  -12.2342   24.9608 C   0  0  0  0  0  0  0  0  0  0  0  0
    8.8575  -14.1889   26.1939 C   0  0  2  0  0  0  0  0  0  0  0  0
    8.2975  -15.0443   25.1287 N   0  0  0  0  0  0  0  0  0  0  0  0
    8.8991  -14.9028   27.4722 C   0  0  0  0  0  0  0  0  0  0  0  0
    9.5391  -14.3786   28.5659 O   0  0  0  0  0  0  0  0  0  0  0  0
    8.3385  -16.0196   27.5722 O   0  0  0  0  0  0  0  0  0  0  0  0
  2  1  1  6
  2  3  1  0
  3  4  1  0
  5  4  1  0
  6  7  1  0
  6  5  1  0
  8  2  1  0
  9  8  2  0
 11 10  1  6
 11 13  1  0
 11 12  1  0
 12  8  1  0
 13 20  1  0
 14 13  2  0
 16 15  1  0
 17 16  1  0
 17 18  1  6
 19 17  1  0
 19 21  1  0
 19 20  1  6
 21 23  2  0
 21 22  1  0
M  END
$$$$
