KAI.pdb
     RDKit          3D

 23 22  0  0  1  0  0  0  0  0999 V2000
   10.1676  -19.7316   21.0037 N   0  0  0  0  0  0  0  0  0  0  0  0
   10.2823  -18.3236   20.7933 C   0  0  1  0  0  0  0  0  0  0  0  0
   10.1916  -17.8972   19.3541 C   0  0  0  0  0  0  0  0  0  0  0  0
   11.2162  -18.4818   18.4592 C   0  0  0  0  0  0  0  0  0  0  0  0
   10.7121  -19.2833   17.3164 C   0  0  0  0  0  0  0  0  0  0  0  0
   11.7880  -19.7852   16.3912 C   0  0  0  0  0  0  0  0  0  0  0  0
   11.1117  -20.6273   15.3927 N   0  0  0  0  0  0  0  0  0  0  0  0
    9.3218  -17.6014   21.6571 C   0  0  0  0  0  0  0  0  0  0  0  0
    9.1578  -16.3364   21.5666 O   0  0  0  0  0  0  0  0  0  0  0  0
    6.6222  -18.4377   24.1894 C   0  0  0  0  0  0  0  0  0  0  0  0
    7.6311  -17.5391   23.5362 C   0  0  2  0  0  0  0  0  0  0  0  0
    8.5211  -18.2479   22.6376 N   0  0  0  0  0  0  0  0  0  0  0  0
    8.3815  -16.7039   24.5053 C   0  0  0  0  0  0  0  0  0  0  0  0
    9.5796  -16.9989   24.7743 O   0  0  0  0  0  0  0  0  0  0  0  0
    6.0529  -11.9230   26.0028 C   0  0  0  0  0  0  0  0  0  0  0  0
    7.0661  -12.8701   25.3996 C   0  0  0  0  0  0  0  0  0  0  0  0
    7.7088  -13.6433   26.5217 C   0  0  2  0  0  0  0  0  0  0  0  0
    8.4800  -12.7295   27.4580 C   0  0  0  0  0  0  0  0  0  0  0  0
    8.6061  -14.7440   26.0829 C   0  0  2  0  0  0  0  0  0  0  0  0
    7.8216  -15.5805   25.1531 N   0  0  0  0  0  0  0  0  0  0  0  0
    9.0781  -15.5303   27.2251 C   0  0  0  0  0  0  0  0  0  0  0  0
   10.3266  -15.3408   27.7593 O   0  0  0  0  0  0  0  0  0  0  0  0
    8.3260  -16.3982   27.7278 O   0  0  0  0  0  0  0  0  0  0  0  0
  2  1  1  6
  2  3  1  0
  3  4  1  0
  5  4  1  0
  6  7  1  0
  6  5  1  0
  8  2  1  0
  9  8  2  0
 11 10  1  1
 11 13  1  0
 11 12  1  0
 12  8  1  0
 13 20  1  0
 14 13  2  0
 16 15  1  0
 17 16  1  0
 17 18  1  6
 19 17  1  0
 19 21  1  0
 19 20  1  6
 21 23  2  0
 21 22  1  0
M  END
$$$$
