KAI.pdb
     RDKit          3D

 23 22  0  0  1  0  0  0  0  0999 V2000
   10.6016  -13.7202   18.8458 N   0  0  0  0  0  0  0  0  0  0  0  0
    9.3291  -13.2400   19.2818 C   0  0  1  0  0  0  0  0  0  0  0  0
    8.3016  -13.1134   18.1912 C   0  0  0  0  0  0  0  0  0  0  0  0
    8.5484  -13.9498   16.9944 C   0  0  0  0  0  0  0  0  0  0  0  0
    7.3496  -14.5237   16.3339 C   0  0  0  0  0  0  0  0  0  0  0  0
    7.6389  -15.2376   15.0409 C   0  0  0  0  0  0  0  0  0  0  0  0
    6.3492  -15.7569   14.5606 N   0  0  0  0  0  0  0  0  0  0  0  0
    8.8446  -14.0496   20.4220 C   0  0  0  0  0  0  0  0  0  0  0  0
    7.7298  -13.7996   20.9966 O   0  0  0  0  0  0  0  0  0  0  0  0
    9.5624  -17.4126   21.9196 C   0  0  0  0  0  0  0  0  0  0  0  0
    9.0626  -16.0008   22.0153 C   0  0  2  0  0  0  0  0  0  0  0  0
    9.5693  -15.1491   20.9572 N   0  0  0  0  0  0  0  0  0  0  0  0
    9.2738  -15.3973   23.3535 C   0  0  0  0  0  0  0  0  0  0  0  0
   10.4277  -14.9957   23.6727 O   0  0  0  0  0  0  0  0  0  0  0  0
    6.2727  -11.8776   27.1167 C   0  0  0  0  0  0  0  0  0  0  0  0
    7.4787  -12.7881   27.0541 C   0  0  0  0  0  0  0  0  0  0  0  0
    7.3802  -13.6080   25.7940 C   0  0  2  0  0  0  0  0  0  0  0  0
    6.0461  -14.3276   25.7001 C   0  0  0  0  0  0  0  0  0  0  0  0
    8.4715  -14.6008   25.6124 C   0  0  2  0  0  0  0  0  0  0  0  0
    8.2403  -15.2449   24.3042 N   0  0  0  0  0  0  0  0  0  0  0  0
    8.4724  -15.5910   26.6918 C   0  0  0  0  0  0  0  0  0  0  0  0
    9.0276  -15.3176   27.9154 O   0  0  0  0  0  0  0  0  0  0  0  0
    7.9551  -16.7159   26.4955 O   0  0  0  0  0  0  0  0  0  0  0  0
  2  1  1  6
  2  3  1  0
  3  4  1  0
  5  4  1  0
  6  7  1  0
  6  5  1  0
  8  2  1  0
  9  8  2  0
 11 10  1  1
 11 13  1  0
 11 12  1  0
 12  8  1  0
 13 20  1  0
 14 13  2  0
 16 15  1  0
 17 16  1  0
 17 18  1  1
 19 17  1  0
 19 21  1  0
 19 20  1  6
 21 23  2  0
 21 22  1  0
M  END
$$$$
