KAI.pdb
     RDKit          3D

 23 22  0  0  1  0  0  0  0  0999 V2000
    6.5827  -16.7528   19.1316 N   0  0  0  0  0  0  0  0  0  0  0  0
    7.5428  -15.8375   19.6609 C   0  0  1  0  0  0  0  0  0  0  0  0
    7.2378  -14.3891   19.3960 C   0  0  0  0  0  0  0  0  0  0  0  0
    7.0275  -14.0408   17.9723 C   0  0  0  0  0  0  0  0  0  0  0  0
    8.2379  -13.6622   17.2016 C   0  0  0  0  0  0  0  0  0  0  0  0
    7.9545  -13.1751   15.8059 C   0  0  0  0  0  0  0  0  0  0  0  0
    9.2616  -12.8743   15.2021 N   0  0  0  0  0  0  0  0  0  0  0  0
    7.7683  -16.1129   21.0975 C   0  0  0  0  0  0  0  0  0  0  0  0
    6.8242  -16.0189   21.9549 O   0  0  0  0  0  0  0  0  0  0  0  0
   10.3891  -17.8340   23.1802 C   0  0  0  0  0  0  0  0  0  0  0  0
    9.2323  -16.8942   23.0053 C   0  0  2  0  0  0  0  0  0  0  0  0
    9.0309  -16.4966   21.6257 N   0  0  0  0  0  0  0  0  0  0  0  0
    9.2923  -15.7212   23.9108 C   0  0  0  0  0  0  0  0  0  0  0  0
   10.0907  -14.7791   23.6461 O   0  0  0  0  0  0  0  0  0  0  0  0
    7.5698  -11.3237   26.2450 C   0  0  0  0  0  0  0  0  0  0  0  0
    7.3579  -12.5946   27.0370 C   0  0  0  0  0  0  0  0  0  0  0  0
    7.3862  -13.7544   26.0757 C   0  0  2  0  0  0  0  0  0  0  0  0
    6.2702  -14.7437   26.3626 C   0  0  0  0  0  0  0  0  0  0  0  0
    8.6764  -14.4909   26.0293 C   0  0  2  0  0  0  0  0  0  0  0  0
    8.4942  -15.5980   25.0696 N   0  0  0  0  0  0  0  0  0  0  0  0
    9.0445  -14.9992   27.3528 C   0  0  0  0  0  0  0  0  0  0  0  0
    9.6199  -14.1891   28.2976 O   0  0  0  0  0  0  0  0  0  0  0  0
    8.8307  -16.2027   27.6313 O   0  0  0  0  0  0  0  0  0  0  0  0
  2  1  1  1
  2  3  1  0
  3  4  1  0
  5  4  1  0
  6  7  1  0
  6  5  1  0
  8  2  1  0
  9  8  2  0
 11 10  1  6
 11 13  1  0
 11 12  1  0
 12  8  1  0
 13 20  1  0
 14 13  2  0
 16 15  1  0
 17 16  1  0
 17 18  1  1
 19 17  1  0
 19 21  1  0
 19 20  1  6
 21 23  2  0
 21 22  1  0
M  END
$$$$
