KAI.pdb
     RDKit          3D

 23 22  0  0  1  0  0  0  0  0999 V2000
   10.5455  -18.2155   20.6990 N   0  0  0  0  0  0  0  0  0  0  0  0
    9.1856  -17.9225   21.0224 C   0  0  1  0  0  0  0  0  0  0  0  0
    8.4310  -19.0647   21.6445 C   0  0  0  0  0  0  0  0  0  0  0  0
    7.7503  -19.9651   20.6861 C   0  0  0  0  0  0  0  0  0  0  0  0
    8.3563  -21.3069   20.4993 C   0  0  0  0  0  0  0  0  0  0  0  0
    7.6546  -22.1655   19.4815 C   0  0  0  0  0  0  0  0  0  0  0  0
    8.4243  -23.4162   19.3981 N   0  0  0  0  0  0  0  0  0  0  0  0
    9.1119  -16.6883   21.8358 C   0  0  0  0  0  0  0  0  0  0  0  0
    9.8418  -16.5237   22.8729 O   0  0  0  0  0  0  0  0  0  0  0  0
    7.4784  -13.2708   21.6033 C   0  0  0  0  0  0  0  0  0  0  0  0
    8.1606  -14.3969   22.3234 C   0  0  2  0  0  0  0  0  0  0  0  0
    8.2384  -15.6089   21.5317 N   0  0  0  0  0  0  0  0  0  0  0  0
    7.5937  -14.6564   23.6691 C   0  0  0  0  0  0  0  0  0  0  0  0
    6.6152  -15.4465   23.7832 O   0  0  0  0  0  0  0  0  0  0  0  0
   10.0502  -12.9495   28.6224 C   0  0  0  0  0  0  0  0  0  0  0  0
    9.0831  -12.8516   27.4637 C   0  0  0  0  0  0  0  0  0  0  0  0
    8.5672  -14.2358   27.1676 C   0  0  2  0  0  0  0  0  0  0  0  0
    9.6835  -15.1625   26.7182 C   0  0  0  0  0  0  0  0  0  0  0  0
    7.4710  -14.2885   26.1652 C   0  0  2  0  0  0  0  0  0  0  0  0
    8.0954  -14.0597   24.8470 N   0  0  0  0  0  0  0  0  0  0  0  0
    6.4487  -13.2772   26.4439 C   0  0  0  0  0  0  0  0  0  0  0  0
    5.5358  -13.4397   27.4542 O   0  0  0  0  0  0  0  0  0  0  0  0
    6.4038  -12.2381   25.7441 O   0  0  0  0  0  0  0  0  0  0  0  0
  2  1  1  1
  2  3  1  0
  3  4  1  0
  5  4  1  0
  6  7  1  0
  6  5  1  0
  8  2  1  0
  9  8  2  0
 11 10  1  6
 11 13  1  0
 11 12  1  0
 12  8  1  0
 13 20  1  0
 14 13  2  0
 16 15  1  0
 17 16  1  0
 17 18  1  6
 19 17  1  0
 19 21  1  0
 19 20  1  6
 21 23  2  0
 21 22  1  0
M  END
$$$$
