KAI.pdb
     RDKit          3D

 23 22  0  0  1  0  0  0  0  0999 V2000
    8.5005  -16.6976   19.4812 N   0  0  0  0  0  0  0  0  0  0  0  0
    8.1695  -15.4123   20.0089 C   0  0  1  0  0  0  0  0  0  0  0  0
    7.2062  -14.6207   19.1684 C   0  0  0  0  0  0  0  0  0  0  0  0
    7.8313  -13.7510   18.1458 C   0  0  0  0  0  0  0  0  0  0  0  0
    7.6484  -14.1618   16.7315 C   0  0  0  0  0  0  0  0  0  0  0  0
    8.3471  -13.2756   15.7354 C   0  0  0  0  0  0  0  0  0  0  0  0
    7.9737  -13.7790   14.4047 N   0  0  0  0  0  0  0  0  0  0  0  0
    7.7194  -15.5407   21.4129 C   0  0  0  0  0  0  0  0  0  0  0  0
    7.3891  -14.5191   22.1076 O   0  0  0  0  0  0  0  0  0  0  0  0
    6.9135  -18.3561   23.8444 C   0  0  0  0  0  0  0  0  0  0  0  0
    7.1417  -16.9271   23.4470 C   0  0  2  0  0  0  0  0  0  0  0  0
    7.6215  -16.7889   22.0859 N   0  0  0  0  0  0  0  0  0  0  0  0
    7.9940  -16.1842   24.4069 C   0  0  0  0  0  0  0  0  0  0  0  0
    9.2487  -16.2132   24.2667 O   0  0  0  0  0  0  0  0  0  0  0  0
    6.0535  -11.6185   26.2637 C   0  0  0  0  0  0  0  0  0  0  0  0
    6.9118  -12.7132   25.6702 C   0  0  0  0  0  0  0  0  0  0  0  0
    7.5626  -13.4628   26.8036 C   0  0  2  0  0  0  0  0  0  0  0  0
    8.4606  -12.5570   27.6280 C   0  0  0  0  0  0  0  0  0  0  0  0
    8.3420  -14.6590   26.3902 C   0  0  2  0  0  0  0  0  0  0  0  0
    7.4719  -15.4354   25.4847 N   0  0  0  0  0  0  0  0  0  0  0  0
    8.7393  -15.4599   27.5505 C   0  0  0  0  0  0  0  0  0  0  0  0
    8.0730  -16.6090   27.8908 O   0  0  0  0  0  0  0  0  0  0  0  0
    9.7100  -15.0886   28.2515 O   0  0  0  0  0  0  0  0  0  0  0  0
  2  1  1  6
  2  3  1  0
  3  4  1  0
  5  4  1  0
  6  7  1  0
  6  5  1  0
  8  2  1  0
  9  8  2  0
 11 10  1  1
 11 13  1  0
 11 12  1  0
 12  8  1  0
 13 20  1  0
 14 13  2  0
 16 15  1  0
 17 16  1  0
 17 18  1  6
 19 17  1  0
 19 21  1  0
 19 20  1  6
 21 23  2  0
 21 22  1  0
M  END
$$$$
