KAI.pdb
     RDKit          3D

 23 22  0  0  1  0  0  0  0  0999 V2000
    7.8070  -16.1076   19.3533 N   0  0  0  0  0  0  0  0  0  0  0  0
    7.8117  -14.9233   20.1516 C   0  0  1  0  0  0  0  0  0  0  0  0
    7.0101  -13.7843   19.5848 C   0  0  0  0  0  0  0  0  0  0  0  0
    6.9701  -13.7178   18.1061 C   0  0  0  0  0  0  0  0  0  0  0  0
    8.2747  -13.8252   17.4069 C   0  0  0  0  0  0  0  0  0  0  0  0
    8.1758  -13.7890   15.9054 C   0  0  0  0  0  0  0  0  0  0  0  0
    9.5428  -13.9839   15.3987 N   0  0  0  0  0  0  0  0  0  0  0  0
    7.4253  -15.2476   21.5429 C   0  0  0  0  0  0  0  0  0  0  0  0
    7.0999  -14.3359   22.3787 O   0  0  0  0  0  0  0  0  0  0  0  0
    6.9743  -18.3688   23.6808 C   0  0  0  0  0  0  0  0  0  0  0  0
    7.1074  -16.8943   23.4352 C   0  0  2  0  0  0  0  0  0  0  0  0
    7.3869  -16.5754   22.0488 N   0  0  0  0  0  0  0  0  0  0  0  0
    8.0670  -16.2348   24.3538 C   0  0  0  0  0  0  0  0  0  0  0  0
    9.2961  -16.2344   24.0637 O   0  0  0  0  0  0  0  0  0  0  0  0
    6.3435  -11.9082   26.8605 C   0  0  0  0  0  0  0  0  0  0  0  0
    7.1724  -12.8927   26.0661 C   0  0  0  0  0  0  0  0  0  0  0  0
    7.9235  -13.7634   27.0396 C   0  0  2  0  0  0  0  0  0  0  0  0
    8.9059  -12.9541   27.8682 C   0  0  0  0  0  0  0  0  0  0  0  0
    8.6478  -14.9045   26.4211 C   0  0  2  0  0  0  0  0  0  0  0  0
    7.6761  -15.5979   25.5524 N   0  0  0  0  0  0  0  0  0  0  0  0
    9.1793  -15.8109   27.4416 C   0  0  0  0  0  0  0  0  0  0  0  0
   10.4307  -15.6364   27.9743 O   0  0  0  0  0  0  0  0  0  0  0  0
    8.4767  -16.7700   27.8391 O   0  0  0  0  0  0  0  0  0  0  0  0
  2  1  1  6
  2  3  1  0
  3  4  1  0
  5  4  1  0
  6  7  1  0
  6  5  1  0
  8  2  1  0
  9  8  2  0
 11 10  1  6
 11 13  1  0
 11 12  1  0
 12  8  1  0
 13 20  1  0
 14 13  2  0
 16 15  1  0
 17 16  1  0
 17 18  1  6
 19 17  1  0
 19 21  1  0
 19 20  1  6
 21 23  2  0
 21 22  1  0
M  END
$$$$
