KAI.pdb
     RDKit          3D

 23 22  0  0  1  0  0  0  0  0999 V2000
    8.2273  -18.8957   20.2267 N   0  0  0  0  0  0  0  0  0  0  0  0
    7.4115  -17.7261   20.1494 C   0  0  1  0  0  0  0  0  0  0  0  0
    6.2634  -17.8274   19.1835 C   0  0  0  0  0  0  0  0  0  0  0  0
    5.8959  -19.2056   18.7858 C   0  0  0  0  0  0  0  0  0  0  0  0
    4.5432  -19.6674   19.1851 C   0  0  0  0  0  0  0  0  0  0  0  0
    4.1490  -20.9994   18.6056 C   0  0  0  0  0  0  0  0  0  0  0  0
    2.7996  -21.2864   19.1158 N   0  0  0  0  0  0  0  0  0  0  0  0
    6.9746  -17.3214   21.5042 C   0  0  0  0  0  0  0  0  0  0  0  0
    6.2734  -16.2695   21.6969 O   0  0  0  0  0  0  0  0  0  0  0  0
    6.6711  -18.7964   24.9380 C   0  0  0  0  0  0  0  0  0  0  0  0
    6.9164  -17.6414   24.0118 C   0  0  2  0  0  0  0  0  0  0  0  0
    7.2958  -18.0589   22.6762 N   0  0  0  0  0  0  0  0  0  0  0  0
    7.8637  -16.6426   24.5639 C   0  0  0  0  0  0  0  0  0  0  0  0
    9.0704  -16.6673   24.1922 O   0  0  0  0  0  0  0  0  0  0  0  0
    6.0675  -11.7415   26.1201 C   0  0  0  0  0  0  0  0  0  0  0  0
    6.9107  -12.8099   25.4606 C   0  0  0  0  0  0  0  0  0  0  0  0
    7.6830  -13.5265   26.5376 C   0  0  2  0  0  0  0  0  0  0  0  0
    8.6203  -12.5841   27.2723 C   0  0  0  0  0  0  0  0  0  0  0  0
    8.4613  -14.7017   26.0660 C   0  0  2  0  0  0  0  0  0  0  0  0
    7.4850  -15.6512   25.4959 N   0  0  0  0  0  0  0  0  0  0  0  0
    9.2111  -15.3163   27.1641 C   0  0  0  0  0  0  0  0  0  0  0  0
   10.4828  -14.9116   27.4789 O   0  0  0  0  0  0  0  0  0  0  0  0
    8.6810  -16.2345   27.8331 O   0  0  0  0  0  0  0  0  0  0  0  0
  2  1  1  1
  2  3  1  0
  3  4  1  0
  5  4  1  0
  6  7  1  0
  6  5  1  0
  8  2  1  0
  9  8  2  0
 11 10  1  1
 11 13  1  0
 11 12  1  0
 12  8  1  0
 13 20  1  0
 14 13  2  0
 16 15  1  0
 17 16  1  0
 17 18  1  6
 19 17  1  0
 19 21  1  0
 19 20  1  1
 21 23  2  0
 21 22  1  0
M  END
$$$$
