KAI.pdb
     RDKit          3D

 23 22  0  0  1  0  0  0  0  0999 V2000
    4.9521  -18.5452   22.9778 N   0  0  0  0  0  0  0  0  0  0  0  0
    6.2875  -18.8295   23.3970 C   0  0  1  0  0  0  0  0  0  0  0  0
    6.7654  -20.2158   23.0642 C   0  0  0  0  0  0  0  0  0  0  0  0
    5.8789  -21.3122   23.5165 C   0  0  0  0  0  0  0  0  0  0  0  0
    6.3200  -22.6916   23.1921 C   0  0  0  0  0  0  0  0  0  0  0  0
    5.3190  -23.7592   23.5440 C   0  0  0  0  0  0  0  0  0  0  0  0
    5.9177  -25.0370   23.1288 N   0  0  0  0  0  0  0  0  0  0  0  0
    7.2085  -17.7816   22.9029 C   0  0  0  0  0  0  0  0  0  0  0  0
    8.4738  -17.8689   23.0667 O   0  0  0  0  0  0  0  0  0  0  0  0
    7.0163  -14.6427   20.7742 C   0  0  0  0  0  0  0  0  0  0  0  0
    7.6564  -15.5666   21.7687 C   0  0  2  0  0  0  0  0  0  0  0  0
    6.7645  -16.6169   22.2197 N   0  0  0  0  0  0  0  0  0  0  0  0
    8.2832  -14.8529   22.9077 C   0  0  0  0  0  0  0  0  0  0  0  0
    9.3329  -14.1791   22.7096 O   0  0  0  0  0  0  0  0  0  0  0  0
    6.6436  -11.2376   27.1401 C   0  0  0  0  0  0  0  0  0  0  0  0
    7.7899  -12.1748   26.8319 C   0  0  0  0  0  0  0  0  0  0  0  0
    7.3267  -13.1497   25.7808 C   0  0  2  0  0  0  0  0  0  0  0  0
    6.1136  -13.9363   26.2459 C   0  0  0  0  0  0  0  0  0  0  0  0
    8.3669  -14.1059   25.3193 C   0  0  2  0  0  0  0  0  0  0  0  0
    7.7633  -14.8858   24.2205 N   0  0  0  0  0  0  0  0  0  0  0  0
    8.8009  -14.9836   26.4087 C   0  0  0  0  0  0  0  0  0  0  0  0
    9.6329  -14.5358   27.4024 O   0  0  0  0  0  0  0  0  0  0  0  0
    8.4050  -16.1728   26.4359 O   0  0  0  0  0  0  0  0  0  0  0  0
  2  1  1  6
  2  3  1  0
  3  4  1  0
  5  4  1  0
  6  7  1  0
  6  5  1  0
  8  2  1  0
  9  8  2  0
 11 10  1  1
 11 13  1  0
 11 12  1  0
 12  8  1  0
 13 20  1  0
 14 13  2  0
 16 15  1  0
 17 16  1  0
 17 18  1  1
 19 17  1  0
 19 21  1  0
 19 20  1  6
 21 23  2  0
 21 22  1  0
M  END
$$$$
