KAI.pdb
     RDKit          3D

 23 22  0  0  1  0  0  0  0  0999 V2000
    8.4776  -15.6027   18.6967 N   0  0  0  0  0  0  0  0  0  0  0  0
    8.4910  -14.4105   19.4829 C   0  0  1  0  0  0  0  0  0  0  0  0
    7.7391  -13.2560   18.8804 C   0  0  0  0  0  0  0  0  0  0  0  0
    7.4774  -13.3656   17.4271 C   0  0  0  0  0  0  0  0  0  0  0  0
    8.5519  -13.9814   16.6094 C   0  0  0  0  0  0  0  0  0  0  0  0
    8.2503  -14.0402   15.1359 C   0  0  0  0  0  0  0  0  0  0  0  0
    9.4206  -14.6659   14.5014 N   0  0  0  0  0  0  0  0  0  0  0  0
    8.0534  -14.7088   20.8648 C   0  0  0  0  0  0  0  0  0  0  0  0
    7.8477  -13.7795   21.7189 O   0  0  0  0  0  0  0  0  0  0  0  0
    7.1351  -17.7970   22.9035 C   0  0  0  0  0  0  0  0  0  0  0  0
    7.2928  -16.3256   22.6540 C   0  0  2  0  0  0  0  0  0  0  0  0
    7.8319  -16.0297   21.3411 N   0  0  0  0  0  0  0  0  0  0  0  0
    8.0462  -15.6302   23.7256 C   0  0  0  0  0  0  0  0  0  0  0  0
    9.3058  -15.7182   23.7493 O   0  0  0  0  0  0  0  0  0  0  0  0
    5.5749  -11.7345   27.1228 C   0  0  0  0  0  0  0  0  0  0  0  0
    6.0889  -13.0718   26.6380 C   0  0  0  0  0  0  0  0  0  0  0  0
    7.4326  -12.8500   25.9936 C   0  0  2  0  0  0  0  0  0  0  0  0
    7.3078  -12.0620   24.7013 C   0  0  0  0  0  0  0  0  0  0  0  0
    8.2037  -14.0915   25.7227 C   0  0  2  0  0  0  0  0  0  0  0  0
    7.4235  -14.8640   24.7356 N   0  0  0  0  0  0  0  0  0  0  0  0
    8.4107  -14.8652   26.9491 C   0  0  0  0  0  0  0  0  0  0  0  0
    9.2976  -14.4585   27.9126 O   0  0  0  0  0  0  0  0  0  0  0  0
    7.7642  -15.9248   27.1250 O   0  0  0  0  0  0  0  0  0  0  0  0
  2  1  1  6
  2  3  1  0
  3  4  1  0
  5  4  1  0
  6  7  1  0
  6  5  1  0
  8  2  1  0
  9  8  2  0
 11 10  1  1
 11 13  1  0
 11 12  1  0
 12  8  1  0
 13 20  1  0
 14 13  2  0
 16 15  1  0
 17 16  1  0
 17 18  1  6
 19 17  1  0
 19 21  1  0
 19 20  1  6
 21 23  2  0
 21 22  1  0
M  END
$$$$
