KAI.pdb
     RDKit          3D

 23 22  0  0  1  0  0  0  0  0999 V2000
    6.6465  -17.2818   19.4293 N   0  0  0  0  0  0  0  0  0  0  0  0
    7.7647  -16.5900   19.9867 C   0  0  1  0  0  0  0  0  0  0  0  0
    7.8970  -15.1584   19.5463 C   0  0  0  0  0  0  0  0  0  0  0  0
    8.0798  -14.9627   18.0899 C   0  0  0  0  0  0  0  0  0  0  0  0
    8.2194  -13.5596   17.6267 C   0  0  0  0  0  0  0  0  0  0  0  0
    8.3465  -13.4114   16.1343 C   0  0  0  0  0  0  0  0  0  0  0  0
    8.4300  -11.9668   15.8704 N   0  0  0  0  0  0  0  0  0  0  0  0
    7.7646  -16.7291   21.4601 C   0  0  0  0  0  0  0  0  0  0  0  0
    6.6847  -16.6546   22.1410 O   0  0  0  0  0  0  0  0  0  0  0  0
    9.8681  -18.2477   24.0956 C   0  0  0  0  0  0  0  0  0  0  0  0
    8.9469  -17.1477   23.6557 C   0  0  2  0  0  0  0  0  0  0  0  0
    8.9455  -16.9525   22.2191 N   0  0  0  0  0  0  0  0  0  0  0  0
    9.1714  -15.8742   24.3819 C   0  0  0  0  0  0  0  0  0  0  0  0
   10.2138  -15.2033   24.1407 O   0  0  0  0  0  0  0  0  0  0  0  0
    8.0354  -10.9866   25.9025 C   0  0  0  0  0  0  0  0  0  0  0  0
    7.3753  -12.0086   26.8009 C   0  0  0  0  0  0  0  0  0  0  0  0
    7.3037  -13.3132   26.0506 C   0  0  2  0  0  0  0  0  0  0  0  0
    6.1481  -14.1718   26.5342 C   0  0  0  0  0  0  0  0  0  0  0  0
    8.5496  -14.1227   26.0926 C   0  0  2  0  0  0  0  0  0  0  0  0
    8.2704  -15.3632   25.3422 N   0  0  0  0  0  0  0  0  0  0  0  0
    8.9417  -14.4211   27.4720 C   0  0  0  0  0  0  0  0  0  0  0  0
    9.7049  -13.5492   28.2052 O   0  0  0  0  0  0  0  0  0  0  0  0
    8.5733  -15.4980   27.9974 O   0  0  0  0  0  0  0  0  0  0  0  0
  2  1  1  1
  2  3  1  0
  3  4  1  0
  5  4  1  0
  6  7  1  0
  6  5  1  0
  8  2  1  0
  9  8  2  0
 11 10  1  6
 11 13  1  0
 11 12  1  0
 12  8  1  0
 13 20  1  0
 14 13  2  0
 16 15  1  0
 17 16  1  0
 17 18  1  1
 19 17  1  0
 19 21  1  0
 19 20  1  6
 21 23  2  0
 21 22  1  0
M  END
$$$$
