TIY.pdb
     RDKit          3D

 28 28  0  0  1  0  0  0  0  0999 V2000
   16.3787  -10.5377  -16.0817 C   0  0  0  0  0  0  0  0  0  0  0  0
   17.5015   -9.5261  -16.0229 C   0  0  1  0  0  0  0  0  0  0  0  0
   17.9755   -9.3970  -14.7423 O   0  0  0  0  0  0  0  0  0  0  0  0
   18.5671   -9.8685  -17.0454 C   0  0  2  0  0  0  0  0  0  0  0  0
   19.0817  -11.1771  -16.6640 N   0  0  0  0  0  0  0  0  0  0  0  0
   19.6424   -8.8582  -17.1023 C   0  0  0  0  0  0  0  0  0  0  0  0
   20.7156   -8.9615  -16.4179 O   0  0  0  0  0  0  0  0  0  0  0  0
   20.1226   -6.9455  -21.8915 C   0  0  0  0  0  0  0  0  0  0  0  0
   20.8384   -7.1081  -20.5953 C   0  0  0  0  0  0  0  0  0  0  0  0
   20.4887   -6.1528  -19.5165 C   0  0  2  0  0  0  0  0  0  0  0  0
   21.4143   -4.9467  -19.6471 C   0  0  0  0  0  0  0  0  0  0  0  0
   20.4706   -6.6937  -18.1263 C   0  0  2  0  0  0  0  0  0  0  0  0
   19.4768   -7.7342  -17.9475 N   0  0  0  0  0  0  0  0  0  0  0  0
   20.3951   -5.6616  -17.0785 C   0  0  0  0  0  0  0  0  0  0  0  0
   19.3011   -5.1068  -16.8409 O   0  0  0  0  0  0  0  0  0  0  0  0
   19.2238   -9.1675  -11.5941 O   0  0  0  0  0  0  0  0  0  0  0  0
   19.9359   -8.1262  -12.1979 C   0  0  0  0  0  0  0  0  0  0  0  0
   19.4640   -6.8383  -12.1376 C   0  0  0  0  0  0  0  0  0  0  0  0
   20.1599   -5.8044  -12.7304 C   0  0  0  0  0  0  0  0  0  0  0  0
   21.3511   -6.0165  -13.4047 C   0  0  0  0  0  0  0  0  0  0  0  0
   22.0717   -4.8854  -14.0341 C   0  0  0  0  0  0  0  0  0  0  0  0
   21.3473   -4.3148  -15.2394 C   0  0  2  0  0  0  0  0  0  0  0  0
   21.5265   -5.2728  -16.3215 N   0  0  0  0  0  0  0  0  0  0  0  0
   21.9141   -3.0276  -15.6812 C   0  0  0  0  0  0  0  0  0  0  0  0
   22.5878   -2.8326  -16.8779 O   0  0  0  0  0  0  0  0  0  0  0  0
   21.8277   -7.3050  -13.4679 C   0  0  0  0  0  0  0  0  0  0  0  0
   21.1208   -8.3495  -12.8666 C   0  0  0  0  0  0  0  0  0  0  0  0
   21.7909   -2.0222  -14.9377 O   0  0  0  0  0  0  0  0  0  0  0  0
  2  1  1  1
  2  3  1  0
  4  5  1  1
  4  2  1  0
  6  4  1  0
  7  6  2  0
  9  8  1  0
 10  9  1  0
 10 11  1  1
 12 10  1  0
 12 13  1  6
 13  6  1  0
 14 12  1  0
 15 14  2  0
 16 17  1  0
 17 18  2  0
 18 19  1  0
 20 21  1  0
 20 19  2  0
 22 21  1  1
 22 24  1  0
 22 23  1  0
 23 14  1  0
 24 25  1  0
 26 20  1  0
 27 26  2  0
 27 17  1  0
 28 24  2  0
M  END
$$$$
