TIY.pdb
     RDKit          3D

 28 28  0  0  1  0  0  0  0  0999 V2000
   17.6667  -11.8596  -19.7664 C   0  0  0  0  0  0  0  0  0  0  0  0
   18.0702  -10.6977  -18.8862 C   0  0  1  0  0  0  0  0  0  0  0  0
   17.0865   -9.7423  -18.8577 O   0  0  0  0  0  0  0  0  0  0  0  0
   18.4855  -11.1991  -17.5172 C   0  0  2  0  0  0  0  0  0  0  0  0
   17.3061  -11.8409  -16.9516 N   0  0  0  0  0  0  0  0  0  0  0  0
   18.9848  -10.1170  -16.6454 C   0  0  0  0  0  0  0  0  0  0  0  0
   18.2343   -9.5106  -15.8088 O   0  0  0  0  0  0  0  0  0  0  0  0
   23.2126  -10.5383  -13.5427 C   0  0  0  0  0  0  0  0  0  0  0  0
   21.9813  -10.0774  -14.2429 C   0  0  0  0  0  0  0  0  0  0  0  0
   22.1523   -9.0114  -15.2595 C   0  0  2  0  0  0  0  0  0  0  0  0
   22.7996   -7.8134  -14.5709 C   0  0  0  0  0  0  0  0  0  0  0  0
   20.9350   -8.6217  -16.0288 C   0  0  2  0  0  0  0  0  0  0  0  0
   20.3461   -9.7389  -16.7410 N   0  0  0  0  0  0  0  0  0  0  0  0
   21.1186   -7.4422  -16.8913 C   0  0  0  0  0  0  0  0  0  0  0  0
   21.9637   -7.4795  -17.8108 O   0  0  0  0  0  0  0  0  0  0  0  0
   14.6170   -3.8623  -15.5469 O   0  0  0  0  0  0  0  0  0  0  0  0
   15.7764   -4.1460  -16.2758 C   0  0  0  0  0  0  0  0  0  0  0  0
   16.0652   -5.4372  -16.6428 C   0  0  0  0  0  0  0  0  0  0  0  0
   17.2067   -5.7267  -17.3622 C   0  0  0  0  0  0  0  0  0  0  0  0
   18.1017   -4.7401  -17.7419 C   0  0  0  0  0  0  0  0  0  0  0  0
   19.3207   -5.0846  -18.5103 C   0  0  0  0  0  0  0  0  0  0  0  0
   20.5675   -5.1561  -17.6483 C   0  0  2  0  0  0  0  0  0  0  0  0
   20.3641   -6.2571  -16.7170 N   0  0  0  0  0  0  0  0  0  0  0  0
   20.7767   -3.9307  -16.8557 C   0  0  0  0  0  0  0  0  0  0  0  0
   20.5864   -3.8370  -15.4849 O   0  0  0  0  0  0  0  0  0  0  0  0
   17.8167   -3.4453  -17.3765 C   0  0  0  0  0  0  0  0  0  0  0  0
   16.6602   -3.1555  -16.6483 C   0  0  0  0  0  0  0  0  0  0  0  0
   21.1535   -2.8850  -17.4416 O   0  0  0  0  0  0  0  0  0  0  0  0
  2  1  1  6
  2  3  1  0
  4  5  1  1
  4  2  1  0
  6  4  1  0
  7  6  2  0
  9  8  1  0
 10  9  1  0
 10 11  1  1
 12 10  1  0
 12 13  1  6
 13  6  1  0
 14 12  1  0
 15 14  2  0
 16 17  1  0
 17 18  2  0
 18 19  1  0
 20 21  1  0
 20 19  2  0
 22 21  1  6
 22 24  1  0
 22 23  1  0
 23 14  1  0
 24 25  1  0
 26 20  1  0
 27 26  2  0
 27 17  1  0
 28 24  2  0
M  END
$$$$
