TIY.pdb
     RDKit          3D

 28 28  0  0  1  0  0  0  0  0999 V2000
   26.0828   -9.9699  -15.3197 C   0  0  0  0  0  0  0  0  0  0  0  0
   26.1052  -11.0350  -16.3933 C   0  0  1  0  0  0  0  0  0  0  0  0
   27.1782  -11.8730  -16.2273 O   0  0  0  0  0  0  0  0  0  0  0  0
   24.7677  -11.7464  -16.4512 C   0  0  2  0  0  0  0  0  0  0  0  0
   24.9194  -12.8031  -17.4428 N   0  0  0  0  0  0  0  0  0  0  0  0
   23.6567  -10.8362  -16.7941 C   0  0  0  0  0  0  0  0  0  0  0  0
   23.1862  -10.7460  -17.9778 O   0  0  0  0  0  0  0  0  0  0  0  0
   18.1459   -9.6226  -16.1267 C   0  0  0  0  0  0  0  0  0  0  0  0
   19.4694   -8.9390  -16.1215 C   0  0  0  0  0  0  0  0  0  0  0  0
   20.6647   -9.8024  -15.9648 C   0  0  2  0  0  0  0  0  0  0  0  0
   20.4656  -10.6468  -14.7096 C   0  0  0  0  0  0  0  0  0  0  0  0
   21.9891   -9.1156  -15.9705 C   0  0  2  0  0  0  0  0  0  0  0  0
   23.0928  -10.0348  -15.7719 N   0  0  0  0  0  0  0  0  0  0  0  0
   22.0664   -7.9470  -15.0777 C   0  0  0  0  0  0  0  0  0  0  0  0
   22.1485   -8.1218  -13.8433 O   0  0  0  0  0  0  0  0  0  0  0  0
   25.3935   -3.9069  -20.0059 O   0  0  0  0  0  0  0  0  0  0  0  0
   24.9694   -4.1892  -18.7034 C   0  0  0  0  0  0  0  0  0  0  0  0
   25.2601   -5.4014  -18.1278 C   0  0  0  0  0  0  0  0  0  0  0  0
   24.8459   -5.6889  -16.8432 C   0  0  0  0  0  0  0  0  0  0  0  0
   24.1270   -4.7789  -16.0858 C   0  0  0  0  0  0  0  0  0  0  0  0
   23.6931   -5.1200  -14.7109 C   0  0  0  0  0  0  0  0  0  0  0  0
   22.2323   -5.5231  -14.6303 C   0  0  2  0  0  0  0  0  0  0  0  0
   22.0533   -6.6202  -15.5711 N   0  0  0  0  0  0  0  0  0  0  0  0
   21.3234   -4.4342  -15.0323 C   0  0  0  0  0  0  0  0  0  0  0  0
   20.5334   -4.4480  -16.1724 O   0  0  0  0  0  0  0  0  0  0  0  0
   23.8333   -3.5634  -16.6581 C   0  0  0  0  0  0  0  0  0  0  0  0
   24.2542   -3.2754  -17.9589 C   0  0  0  0  0  0  0  0  0  0  0  0
   21.2422   -3.4115  -14.3070 O   0  0  0  0  0  0  0  0  0  0  0  0
  2  1  1  1
  2  3  1  0
  4  5  1  6
  4  2  1  0
  6  4  1  0
  7  6  2  0
  9  8  1  0
 10  9  1  0
 10 11  1  1
 12 10  1  0
 12 13  1  1
 13  6  1  0
 14 12  1  0
 15 14  2  0
 16 17  1  0
 17 18  2  0
 18 19  1  0
 20 21  1  0
 20 19  2  0
 22 21  1  6
 22 24  1  0
 22 23  1  0
 23 14  1  0
 24 25  1  0
 26 20  1  0
 27 26  2  0
 27 17  1  0
 28 24  2  0
M  END
$$$$
