TIY.pdb
     RDKit          3D

 28 28  0  0  1  0  0  0  0  0999 V2000
   22.7236  -14.4591  -16.1792 C   0  0  0  0  0  0  0  0  0  0  0  0
   23.1034  -15.8021  -15.5965 C   0  0  1  0  0  0  0  0  0  0  0  0
   22.4149  -16.0426  -14.4349 O   0  0  0  0  0  0  0  0  0  0  0  0
   22.9492  -16.8879  -16.6432 C   0  0  2  0  0  0  0  0  0  0  0  0
   21.5429  -16.8798  -17.0238 N   0  0  0  0  0  0  0  0  0  0  0  0
   23.3697  -18.2143  -16.1490 C   0  0  0  0  0  0  0  0  0  0  0  0
   22.5645  -19.0129  -15.5619 O   0  0  0  0  0  0  0  0  0  0  0  0
   26.2942  -19.9030  -19.2927 C   0  0  0  0  0  0  0  0  0  0  0  0
   25.8066  -20.7698  -18.1839 C   0  0  0  0  0  0  0  0  0  0  0  0
   26.2781  -20.4338  -16.8187 C   0  0  2  0  0  0  0  0  0  0  0  0
   26.9665  -21.6704  -16.2483 C   0  0  0  0  0  0  0  0  0  0  0  0
   25.2608  -19.8788  -15.8792 C   0  0  2  0  0  0  0  0  0  0  0  0
   24.7153  -18.6147  -16.3339 N   0  0  0  0  0  0  0  0  0  0  0  0
   25.7021  -19.8254  -14.4752 C   0  0  0  0  0  0  0  0  0  0  0  0
   26.5459  -18.9715  -14.1289 O   0  0  0  0  0  0  0  0  0  0  0  0
   27.1523  -19.8108   -5.9608 O   0  0  0  0  0  0  0  0  0  0  0  0
   26.6395  -19.8374   -7.2617 C   0  0  0  0  0  0  0  0  0  0  0  0
   27.0344  -18.8973   -8.1811 C   0  0  0  0  0  0  0  0  0  0  0  0
   26.5339  -18.9156   -9.4671 C   0  0  0  0  0  0  0  0  0  0  0  0
   25.6218  -19.8714   -9.8833 C   0  0  0  0  0  0  0  0  0  0  0  0
   25.1002  -19.8610  -11.2699 C   0  0  0  0  0  0  0  0  0  0  0  0
   25.8693  -20.7787  -12.2023 C   0  0  2  0  0  0  0  0  0  0  0  0
   25.1991  -20.7128  -13.4935 N   0  0  0  0  0  0  0  0  0  0  0  0
   25.8470  -22.1837  -11.7563 C   0  0  0  0  0  0  0  0  0  0  0  0
   24.8120  -23.0730  -12.0053 O   0  0  0  0  0  0  0  0  0  0  0  0
   25.2233  -20.8151   -8.9658 C   0  0  0  0  0  0  0  0  0  0  0  0
   25.7319  -20.7938   -7.6647 C   0  0  0  0  0  0  0  0  0  0  0  0
   26.8232  -22.6293  -11.1026 O   0  0  0  0  0  0  0  0  0  0  0  0
  2  1  1  6
  2  3  1  0
  4  5  1  1
  4  2  1  0
  6  4  1  0
  7  6  2  0
  9  8  1  0
 10  9  1  0
 10 11  1  1
 12 10  1  0
 12 13  1  6
 13  6  1  0
 14 12  1  0
 15 14  2  0
 16 17  1  0
 17 18  2  0
 18 19  1  0
 20 21  1  0
 20 19  2  0
 22 21  1  1
 22 24  1  0
 22 23  1  0
 23 14  1  0
 24 25  1  0
 26 20  1  0
 27 26  2  0
 27 17  1  0
 28 24  2  0
M  END
$$$$
