TIY.pdb
     RDKit          3D

 28 28  0  0  1  0  0  0  0  0999 V2000
   18.4258  -25.0922  -11.1165 C   0  0  0  0  0  0  0  0  0  0  0  0
   19.0604  -23.8011  -11.5832 C   0  0  1  0  0  0  0  0  0  0  0  0
   18.2377  -23.1422  -12.4609 O   0  0  0  0  0  0  0  0  0  0  0  0
   19.4869  -22.9679  -10.3908 C   0  0  2  0  0  0  0  0  0  0  0  0
   18.2569  -22.5837   -9.7108 N   0  0  0  0  0  0  0  0  0  0  0  0
   20.2826  -21.7868  -10.7809 C   0  0  0  0  0  0  0  0  0  0  0  0
   19.7582  -20.6358  -10.9568 O   0  0  0  0  0  0  0  0  0  0  0  0
   25.4717  -21.0729   -8.9666 C   0  0  0  0  0  0  0  0  0  0  0  0
   24.0965  -20.8856   -9.5074 C   0  0  0  0  0  0  0  0  0  0  0  0
   23.9375  -20.9974  -10.9774 C   0  0  2  0  0  0  0  0  0  0  0  0
   24.8601  -19.9678  -11.6233 C   0  0  0  0  0  0  0  0  0  0  0  0
   22.5456  -20.9084  -11.5067 C   0  0  2  0  0  0  0  0  0  0  0  0
   21.6784  -21.9370  -10.9661 N   0  0  0  0  0  0  0  0  0  0  0  0
   22.4628  -20.8210  -12.9745 C   0  0  0  0  0  0  0  0  0  0  0  0
   22.6383  -21.8497  -13.6616 O   0  0  0  0  0  0  0  0  0  0  0  0
   20.5481  -17.8311  -21.0869 O   0  0  0  0  0  0  0  0  0  0  0  0
   20.6558  -18.0307  -19.7069 C   0  0  0  0  0  0  0  0  0  0  0  0
   21.4797  -17.2314  -18.9537 C   0  0  0  0  0  0  0  0  0  0  0  0
   21.5923  -17.4208  -17.5914 C   0  0  0  0  0  0  0  0  0  0  0  0
   20.8879  -18.4135  -16.9304 C   0  0  0  0  0  0  0  0  0  0  0  0
   21.0342  -18.5936  -15.4671 C   0  0  0  0  0  0  0  0  0  0  0  0
   22.1001  -19.6080  -15.0958 C   0  0  2  0  0  0  0  0  0  0  0  0
   22.1869  -19.6035  -13.6421 N   0  0  0  0  0  0  0  0  0  0  0  0
   23.4285  -19.2505  -15.6258 C   0  0  0  0  0  0  0  0  0  0  0  0
   23.9514  -19.7187  -16.8222 O   0  0  0  0  0  0  0  0  0  0  0  0
   20.0613  -19.2167  -17.6807 C   0  0  0  0  0  0  0  0  0  0  0  0
   19.9496  -19.0223  -19.0597 C   0  0  0  0  0  0  0  0  0  0  0  0
   24.1563  -18.4684  -14.9645 O   0  0  0  0  0  0  0  0  0  0  0  0
  2  1  1  1
  2  3  1  0
  4  5  1  6
  4  2  1  0
  6  4  1  0
  7  6  2  0
  9  8  1  0
 10  9  1  0
 10 11  1  6
 12 10  1  0
 12 13  1  6
 13  6  1  0
 14 12  1  0
 15 14  2  0
 16 17  1  0
 17 18  2  0
 18 19  1  0
 20 21  1  0
 20 19  2  0
 22 21  1  1
 22 24  1  0
 22 23  1  0
 23 14  1  0
 24 25  1  0
 26 20  1  0
 27 26  2  0
 27 17  1  0
 28 24  2  0
M  END
$$$$
