TIY.pdb
     RDKit          3D

 28 28  0  0  1  0  0  0  0  0999 V2000
   19.1241  -24.9729   -9.7480 C   0  0  0  0  0  0  0  0  0  0  0  0
   18.5647  -24.5623   -8.4041 C   0  0  1  0  0  0  0  0  0  0  0  0
   18.0616  -25.6474   -7.7327 O   0  0  0  0  0  0  0  0  0  0  0  0
   19.6017  -23.7785   -7.6242 C   0  0  2  0  0  0  0  0  0  0  0  0
   18.9752  -23.4413   -6.3527 N   0  0  0  0  0  0  0  0  0  0  0  0
   20.0563  -22.5708   -8.3420 C   0  0  0  0  0  0  0  0  0  0  0  0
   19.3597  -21.5017   -8.3927 O   0  0  0  0  0  0  0  0  0  0  0  0
   25.1910  -20.9817   -7.8145 C   0  0  0  0  0  0  0  0  0  0  0  0
   23.7308  -21.1096   -8.0795 C   0  0  0  0  0  0  0  0  0  0  0  0
   23.3241  -21.3002   -9.4926 C   0  0  2  0  0  0  0  0  0  0  0  0
   23.8976  -20.1400  -10.3009 C   0  0  0  0  0  0  0  0  0  0  0  0
   21.8665  -21.4906   -9.7476 C   0  0  2  0  0  0  0  0  0  0  0  0
   21.3112  -22.6002   -8.9974 N   0  0  0  0  0  0  0  0  0  0  0  0
   21.5056  -21.5432  -11.1744 C   0  0  0  0  0  0  0  0  0  0  0  0
   21.7356  -22.5830  -11.8279 O   0  0  0  0  0  0  0  0  0  0  0  0
   17.7330  -19.8240  -18.9691 O   0  0  0  0  0  0  0  0  0  0  0  0
   18.0939  -19.8841  -17.6193 C   0  0  0  0  0  0  0  0  0  0  0  0
   18.6996  -18.8098  -17.0159 C   0  0  0  0  0  0  0  0  0  0  0  0
   19.0593  -18.8599  -15.6845 C   0  0  0  0  0  0  0  0  0  0  0  0
   18.8282  -19.9822  -14.9062 C   0  0  0  0  0  0  0  0  0  0  0  0
   19.2304  -20.0056  -13.4805 C   0  0  0  0  0  0  0  0  0  0  0  0
   20.6250  -20.5636  -13.2643 C   0  0  2  0  0  0  0  0  0  0  0  0
   20.8999  -20.4496  -11.8388 N   0  0  0  0  0  0  0  0  0  0  0  0
   21.6578  -19.7957  -13.9833 C   0  0  0  0  0  0  0  0  0  0  0  0
   22.3503  -18.7174  -13.4524 O   0  0  0  0  0  0  0  0  0  0  0  0
   18.2218  -21.0608  -15.5063 C   0  0  0  0  0  0  0  0  0  0  0  0
   17.8589  -21.0069  -16.8544 C   0  0  0  0  0  0  0  0  0  0  0  0
   21.9479  -20.1222  -15.1614 O   0  0  0  0  0  0  0  0  0  0  0  0
  2  1  1  6
  2  3  1  0
  4  5  1  1
  4  2  1  0
  6  4  1  0
  7  6  2  0
  9  8  1  0
 10  9  1  0
 10 11  1  6
 12 10  1  0
 12 13  1  1
 13  6  1  0
 14 12  1  0
 15 14  2  0
 16 17  1  0
 17 18  2  0
 18 19  1  0
 20 21  1  0
 20 19  2  0
 22 21  1  1
 22 24  1  0
 22 23  1  0
 23 14  1  0
 24 25  1  0
 26 20  1  0
 27 26  2  0
 27 17  1  0
 28 24  2  0
M  END
$$$$
