TIY.pdb
     RDKit          3D

 28 28  0  0  1  0  0  0  0  0999 V2000
   26.7948  -26.4028  -17.9856 C   0  0  0  0  0  0  0  0  0  0  0  0
   28.0552  -27.0715  -17.4838 C   0  0  1  0  0  0  0  0  0  0  0  0
   28.3033  -28.2285  -18.1772 O   0  0  0  0  0  0  0  0  0  0  0  0
   29.2075  -26.0865  -17.4913 C   0  0  2  0  0  0  0  0  0  0  0  0
   30.3135  -26.7595  -16.8230 N   0  0  0  0  0  0  0  0  0  0  0  0
   28.8673  -24.8121  -16.8275 C   0  0  0  0  0  0  0  0  0  0  0  0
   28.9423  -24.6582  -15.5620 O   0  0  0  0  0  0  0  0  0  0  0  0
   30.5765  -20.1185  -18.9422 C   0  0  0  0  0  0  0  0  0  0  0  0
   30.0518  -21.2440  -18.1195 C   0  0  0  0  0  0  0  0  0  0  0  0
   28.5832  -21.2966  -17.9216 C   0  0  2  0  0  0  0  0  0  0  0  0
   28.1395  -19.9414  -17.3785 C   0  0  0  0  0  0  0  0  0  0  0  0
   28.0610  -22.4254  -17.0978 C   0  0  2  0  0  0  0  0  0  0  0  0
   28.4430  -23.7212  -17.6244 N   0  0  0  0  0  0  0  0  0  0  0  0
   26.6199  -22.3428  -16.8057 C   0  0  0  0  0  0  0  0  0  0  0  0
   25.7960  -22.4897  -17.7334 O   0  0  0  0  0  0  0  0  0  0  0  0
   18.9441  -21.8429  -12.3978 O   0  0  0  0  0  0  0  0  0  0  0  0
   20.2919  -21.9609  -12.7522 C   0  0  0  0  0  0  0  0  0  0  0  0
   21.1371  -20.8859  -12.6292 C   0  0  0  0  0  0  0  0  0  0  0  0
   22.4684  -20.9930  -12.9764 C   0  0  0  0  0  0  0  0  0  0  0  0
   23.0056  -22.1751  -13.4587 C   0  0  0  0  0  0  0  0  0  0  0  0
   24.4384  -22.2560  -13.8268 C   0  0  0  0  0  0  0  0  0  0  0  0
   24.6894  -22.0036  -15.3020 C   0  0  2  0  0  0  0  0  0  0  0  0
   26.1288  -22.1029  -15.4998 N   0  0  0  0  0  0  0  0  0  0  0  0
   24.2706  -20.6542  -15.7229 C   0  0  0  0  0  0  0  0  0  0  0  0
   23.0554  -20.3577  -16.3226 O   0  0  0  0  0  0  0  0  0  0  0  0
   22.1628  -23.2546  -13.5838 C   0  0  0  0  0  0  0  0  0  0  0  0
   20.8155  -23.1430  -13.2313 C   0  0  0  0  0  0  0  0  0  0  0  0
   25.0530  -19.6891  -15.5358 O   0  0  0  0  0  0  0  0  0  0  0  0
  2  1  1  6
  2  3  1  0
  4  5  1  1
  4  2  1  0
  6  4  1  0
  7  6  2  0
  9  8  1  0
 10  9  1  0
 10 11  1  1
 12 10  1  0
 12 13  1  6
 13  6  1  0
 14 12  1  0
 15 14  2  0
 16 17  1  0
 17 18  2  0
 18 19  1  0
 20 21  1  0
 20 19  2  0
 22 21  1  1
 22 24  1  0
 22 23  1  0
 23 14  1  0
 24 25  1  0
 26 20  1  0
 27 26  2  0
 27 17  1  0
 28 24  2  0
M  END
$$$$
