TIY.pdb
     RDKit          3D

 28 28  0  0  1  0  0  0  0  0999 V2000
   26.9812  -18.1165  -15.1757 C   0  0  0  0  0  0  0  0  0  0  0  0
   27.5655  -19.2903  -15.9296 C   0  0  1  0  0  0  0  0  0  0  0  0
   28.5651  -18.8793  -16.7740 O   0  0  0  0  0  0  0  0  0  0  0  0
   27.9830  -20.3782  -14.9599 C   0  0  2  0  0  0  0  0  0  0  0  0
   28.6103  -21.4153  -15.7683 N   0  0  0  0  0  0  0  0  0  0  0  0
   26.8461  -20.9101  -14.1821 C   0  0  0  0  0  0  0  0  0  0  0  0
   26.0741  -21.8213  -14.6342 O   0  0  0  0  0  0  0  0  0  0  0  0
   27.2310  -20.5988   -8.6228 C   0  0  0  0  0  0  0  0  0  0  0  0
   26.8857  -21.0570   -9.9974 C   0  0  0  0  0  0  0  0  0  0  0  0
   25.6851  -20.4493  -10.6205 C   0  0  2  0  0  0  0  0  0  0  0  0
   24.4776  -20.8299   -9.7688 C   0  0  0  0  0  0  0  0  0  0  0  0
   25.4626  -20.7431  -12.0661 C   0  0  2  0  0  0  0  0  0  0  0  0
   26.6043  -20.3903  -12.8873 N   0  0  0  0  0  0  0  0  0  0  0  0
   24.2001  -20.2077  -12.6030 C   0  0  0  0  0  0  0  0  0  0  0  0
   24.1118  -18.9890  -12.8640 O   0  0  0  0  0  0  0  0  0  0  0  0
   18.4518  -19.0139  -18.8308 O   0  0  0  0  0  0  0  0  0  0  0  0
   19.4379  -19.3794  -17.9088 C   0  0  0  0  0  0  0  0  0  0  0  0
   19.7885  -20.6981  -17.7560 C   0  0  0  0  0  0  0  0  0  0  0  0
   20.7604  -21.0682  -16.8488 C   0  0  0  0  0  0  0  0  0  0  0  0
   21.4180  -20.1377  -16.0611 C   0  0  0  0  0  0  0  0  0  0  0  0
   22.4538  -20.5682  -15.0933 C   0  0  0  0  0  0  0  0  0  0  0  0
   21.9835  -20.5077  -13.6517 C   0  0  2  0  0  0  0  0  0  0  0  0
   23.0728  -21.0309  -12.8389 N   0  0  0  0  0  0  0  0  0  0  0  0
   20.7980  -21.3498  -13.4091 C   0  0  0  0  0  0  0  0  0  0  0  0
   19.4903  -20.8871  -13.4055 O   0  0  0  0  0  0  0  0  0  0  0  0
   21.0700  -18.8156  -16.2106 C   0  0  0  0  0  0  0  0  0  0  0  0
   20.0857  -18.4442  -17.1299 C   0  0  0  0  0  0  0  0  0  0  0  0
   20.9587  -22.5761  -13.1872 O   0  0  0  0  0  0  0  0  0  0  0  0
  2  1  1  1
  2  3  1  0
  4  5  1  6
  4  2  1  0
  6  4  1  0
  7  6  2  0
  9  8  1  0
 10  9  1  0
 10 11  1  1
 12 10  1  0
 12 13  1  6
 13  6  1  0
 14 12  1  0
 15 14  2  0
 16 17  1  0
 17 18  2  0
 18 19  1  0
 20 21  1  0
 20 19  2  0
 22 21  1  6
 22 24  1  0
 22 23  1  0
 23 14  1  0
 24 25  1  0
 26 20  1  0
 27 26  2  0
 27 17  1  0
 28 24  2  0
M  END
$$$$
