TIY.pdb
     RDKit          3D

 28 28  0  0  1  0  0  0  0  0999 V2000
   24.6377   -7.5839  -17.9662 C   0  0  0  0  0  0  0  0  0  0  0  0
   24.3330   -9.0353  -18.2632 C   0  0  1  0  0  0  0  0  0  0  0  0
   25.4492   -9.6834  -18.7271 O   0  0  0  0  0  0  0  0  0  0  0  0
   23.6930   -9.6921  -17.0560 C   0  0  2  0  0  0  0  0  0  0  0  0
   23.5449  -11.1004  -17.3986 N   0  0  0  0  0  0  0  0  0  0  0  0
   22.3967   -9.0812  -16.7000 C   0  0  0  0  0  0  0  0  0  0  0  0
   21.3759   -9.1474  -17.4643 O   0  0  0  0  0  0  0  0  0  0  0  0
   19.3015  -10.3092  -12.7990 C   0  0  0  0  0  0  0  0  0  0  0  0
   20.0033   -9.7137  -13.9701 C   0  0  0  0  0  0  0  0  0  0  0  0
   20.4665   -8.3123  -13.8274 C   0  0  2  0  0  0  0  0  0  0  0  0
   19.2941   -7.4872  -13.3050 C   0  0  0  0  0  0  0  0  0  0  0  0
   21.0933   -7.6910  -15.0302 C   0  0  2  0  0  0  0  0  0  0  0  0
   22.2824   -8.3977  -15.4651 N   0  0  0  0  0  0  0  0  0  0  0  0
   21.3161   -6.2401  -14.9128 C   0  0  0  0  0  0  0  0  0  0  0  0
   22.0178   -5.8004  -13.9771 O   0  0  0  0  0  0  0  0  0  0  0  0
   21.9119    2.3442  -16.9520 O   0  0  0  0  0  0  0  0  0  0  0  0
   21.7851    0.9514  -16.9528 C   0  0  0  0  0  0  0  0  0  0  0  0
   22.8774    0.1564  -16.7079 C   0  0  0  0  0  0  0  0  0  0  0  0
   22.7618   -1.2188  -16.7066 C   0  0  0  0  0  0  0  0  0  0  0  0
   21.5537   -1.8515  -16.9493 C   0  0  0  0  0  0  0  0  0  0  0  0
   21.4640   -3.3303  -16.9451 C   0  0  0  0  0  0  0  0  0  0  0  0
   20.9930   -3.8944  -15.6174 C   0  0  2  0  0  0  0  0  0  0  0  0
   20.7612   -5.3162  -15.8308 N   0  0  0  0  0  0  0  0  0  0  0  0
   19.7231   -3.2952  -15.1683 C   0  0  0  0  0  0  0  0  0  0  0  0
   19.6238   -2.2180  -14.2999 O   0  0  0  0  0  0  0  0  0  0  0  0
   20.4568   -1.0592  -17.1952 C   0  0  0  0  0  0  0  0  0  0  0  0
   20.5771    0.3327  -17.1958 C   0  0  0  0  0  0  0  0  0  0  0  0
   18.6415   -3.7776  -15.5881 O   0  0  0  0  0  0  0  0  0  0  0  0
  2  1  1  1
  2  3  1  0
  4  5  1  6
  4  2  1  0
  6  4  1  0
  7  6  2  0
  9  8  1  0
 10  9  1  0
 10 11  1  6
 12 10  1  0
 12 13  1  1
 13  6  1  0
 14 12  1  0
 15 14  2  0
 16 17  1  0
 17 18  2  0
 18 19  1  0
 20 21  1  0
 20 19  2  0
 22 21  1  6
 22 24  1  0
 22 23  1  0
 23 14  1  0
 24 25  1  0
 26 20  1  0
 27 26  2  0
 27 17  1  0
 28 24  2  0
M  END
$$$$
