TIY.pdb
     RDKit          3D

 28 28  0  0  1  0  0  0  0  0999 V2000
   24.9881   -6.7942  -20.2481 C   0  0  0  0  0  0  0  0  0  0  0  0
   24.0670   -7.6280  -21.1107 C   0  0  1  0  0  0  0  0  0  0  0  0
   24.4942   -7.6372  -22.4140 O   0  0  0  0  0  0  0  0  0  0  0  0
   23.8930   -9.0077  -20.5069 C   0  0  2  0  0  0  0  0  0  0  0  0
   23.0739   -9.7568  -21.4506 N   0  0  0  0  0  0  0  0  0  0  0  0
   23.2748   -8.9652  -19.1666 C   0  0  0  0  0  0  0  0  0  0  0  0
   22.0425   -8.6810  -18.9899 O   0  0  0  0  0  0  0  0  0  0  0  0
   24.0911  -12.8691  -15.5612 C   0  0  0  0  0  0  0  0  0  0  0  0
   23.6337  -11.6914  -16.3503 C   0  0  0  0  0  0  0  0  0  0  0  0
   24.0453  -10.3561  -15.8539 C   0  0  2  0  0  0  0  0  0  0  0  0
   23.5946  -10.2424  -14.4006 C   0  0  0  0  0  0  0  0  0  0  0  0
   23.6138   -9.1807  -16.6650 C   0  0  2  0  0  0  0  0  0  0  0  0
   24.0789   -9.2508  -18.0365 N   0  0  0  0  0  0  0  0  0  0  0  0
   23.9039   -7.8785  -16.0415 C   0  0  0  0  0  0  0  0  0  0  0  0
   25.0916   -7.5336  -15.8642 O   0  0  0  0  0  0  0  0  0  0  0  0
   19.6846   -2.7954  -19.5436 O   0  0  0  0  0  0  0  0  0  0  0  0
   20.6965   -3.3145  -18.7296 C   0  0  0  0  0  0  0  0  0  0  0  0
   20.8991   -2.8092  -17.4692 C   0  0  0  0  0  0  0  0  0  0  0  0
   21.8950   -3.3151  -16.6589 C   0  0  0  0  0  0  0  0  0  0  0  0
   22.7251   -4.3428  -17.0752 C   0  0  0  0  0  0  0  0  0  0  0  0
   23.7881   -4.8608  -16.1826 C   0  0  0  0  0  0  0  0  0  0  0  0
   23.2499   -5.7131  -15.0482 C   0  0  2  0  0  0  0  0  0  0  0  0
   22.8770   -6.9934  -15.6336 N   0  0  0  0  0  0  0  0  0  0  0  0
   22.0433   -5.1337  -14.4303 C   0  0  0  0  0  0  0  0  0  0  0  0
   22.0367   -4.0101  -13.6170 O   0  0  0  0  0  0  0  0  0  0  0  0
   22.5261   -4.8522  -18.3371 C   0  0  0  0  0  0  0  0  0  0  0  0
   21.5169   -4.3378  -19.1550 C   0  0  0  0  0  0  0  0  0  0  0  0
   20.9311   -5.6793  -14.6407 O   0  0  0  0  0  0  0  0  0  0  0  0
  2  1  1  1
  2  3  1  0
  4  5  1  6
  4  2  1  0
  6  4  1  0
  7  6  2  0
  9  8  1  0
 10  9  1  0
 10 11  1  1
 12 10  1  0
 12 13  1  6
 13  6  1  0
 14 12  1  0
 15 14  2  0
 16 17  1  0
 17 18  2  0
 18 19  1  0
 20 21  1  0
 20 19  2  0
 22 21  1  6
 22 24  1  0
 22 23  1  0
 23 14  1  0
 24 25  1  0
 26 20  1  0
 27 26  2  0
 27 17  1  0
 28 24  2  0
M  END
$$$$
