TIY.pdb
     RDKit          3D

 28 28  0  0  1  0  0  0  0  0999 V2000
   19.1181  -12.1571  -17.9309 C   0  0  0  0  0  0  0  0  0  0  0  0
   20.0783  -11.1350  -17.3644 C   0  0  1  0  0  0  0  0  0  0  0  0
   19.3980  -10.0972  -16.7803 O   0  0  0  0  0  0  0  0  0  0  0  0
   21.0803  -11.8108  -16.4492 C   0  0  2  0  0  0  0  0  0  0  0  0
   20.3067  -12.3534  -15.3403 N   0  0  0  0  0  0  0  0  0  0  0  0
   22.1296  -10.8854  -15.9770 C   0  0  0  0  0  0  0  0  0  0  0  0
   22.0227  -10.2277  -14.8876 O   0  0  0  0  0  0  0  0  0  0  0  0
   27.0441  -12.7364  -15.7433 C   0  0  0  0  0  0  0  0  0  0  0  0
   25.7782  -11.9560  -15.6581 C   0  0  0  0  0  0  0  0  0  0  0  0
   25.7213  -10.6920  -16.4312 C   0  0  2  0  0  0  0  0  0  0  0  0
   26.9177   -9.8405  -16.0166 C   0  0  0  0  0  0  0  0  0  0  0  0
   24.4425   -9.9265  -16.3653 C   0  0  2  0  0  0  0  0  0  0  0  0
   23.2972  -10.7223  -16.7616 N   0  0  0  0  0  0  0  0  0  0  0  0
   24.4833   -8.6239  -17.0510 C   0  0  0  0  0  0  0  0  0  0  0  0
   24.3209   -8.5763  -18.2889 O   0  0  0  0  0  0  0  0  0  0  0  0
   18.5623   -5.2347  -15.4147 O   0  0  0  0  0  0  0  0  0  0  0  0
   19.9509   -5.1993  -15.5775 C   0  0  0  0  0  0  0  0  0  0  0  0
   20.4985   -5.0836  -16.8313 C   0  0  0  0  0  0  0  0  0  0  0  0
   21.8675   -5.0478  -17.0017 C   0  0  0  0  0  0  0  0  0  0  0  0
   22.7403   -5.1262  -15.9291 C   0  0  0  0  0  0  0  0  0  0  0  0
   24.2054   -5.0893  -16.1462 C   0  0  0  0  0  0  0  0  0  0  0  0
   24.6928   -6.1629  -17.1018 C   0  0  2  0  0  0  0  0  0  0  0  0
   24.6995   -7.4116  -16.3525 N   0  0  0  0  0  0  0  0  0  0  0  0
   26.0671   -5.9158  -17.5746 C   0  0  0  0  0  0  0  0  0  0  0  0
   27.1821   -6.6316  -17.1641 O   0  0  0  0  0  0  0  0  0  0  0  0
   22.1965   -5.2423  -14.6713 C   0  0  0  0  0  0  0  0  0  0  0  0
   20.8101   -5.2782  -14.5021 C   0  0  0  0  0  0  0  0  0  0  0  0
   26.2671   -4.9970  -18.4080 O   0  0  0  0  0  0  0  0  0  0  0  0
  2  1  1  1
  2  3  1  0
  4  5  1  1
  4  2  1  0
  6  4  1  0
  7  6  2  0
  9  8  1  0
 10  9  1  0
 10 11  1  1
 12 10  1  0
 12 13  1  6
 13  6  1  0
 14 12  1  0
 15 14  2  0
 16 17  1  0
 17 18  2  0
 18 19  1  0
 20 21  1  0
 20 19  2  0
 22 21  1  1
 22 24  1  0
 22 23  1  0
 23 14  1  0
 24 25  1  0
 26 20  1  0
 27 26  2  0
 27 17  1  0
 28 24  2  0
M  END
$$$$
