TIY.pdb
     RDKit          3D

 28 28  0  0  1  0  0  0  0  0999 V2000
   27.3926  -25.9569  -17.3050 C   0  0  0  0  0  0  0  0  0  0  0  0
   28.8615  -26.1422  -16.9957 C   0  0  1  0  0  0  0  0  0  0  0  0
   29.3156  -27.3409  -17.4836 O   0  0  0  0  0  0  0  0  0  0  0  0
   29.6517  -24.9402  -17.4741 C   0  0  2  0  0  0  0  0  0  0  0  0
   31.0190  -25.1531  -17.0182 N   0  0  0  0  0  0  0  0  0  0  0  0
   29.1039  -23.6652  -16.9691 C   0  0  0  0  0  0  0  0  0  0  0  0
   29.3204  -23.2499  -15.7812 O   0  0  0  0  0  0  0  0  0  0  0  0
   30.1157  -19.6770  -17.4562 C   0  0  0  0  0  0  0  0  0  0  0  0
   29.3684  -20.1469  -18.6560 C   0  0  0  0  0  0  0  0  0  0  0  0
   27.9518  -20.5335  -18.4495 C   0  0  2  0  0  0  0  0  0  0  0  0
   27.1675  -19.2655  -18.1251 C   0  0  0  0  0  0  0  0  0  0  0  0
   27.6938  -21.6177  -17.4577 C   0  0  2  0  0  0  0  0  0  0  0  0
   28.3100  -22.8747  -17.8352 N   0  0  0  0  0  0  0  0  0  0  0  0
   26.2759  -21.7767  -17.0930 C   0  0  0  0  0  0  0  0  0  0  0  0
   25.4692  -22.2139  -17.9410 O   0  0  0  0  0  0  0  0  0  0  0  0
   18.7384  -21.8196  -12.4197 O   0  0  0  0  0  0  0  0  0  0  0  0
   20.0765  -21.7280  -12.8161 C   0  0  0  0  0  0  0  0  0  0  0  0
   20.7547  -22.8481  -13.2292 C   0  0  0  0  0  0  0  0  0  0  0  0
   22.0751  -22.7674  -13.6221 C   0  0  0  0  0  0  0  0  0  0  0  0
   22.7675  -21.5677  -13.6176 C   0  0  0  0  0  0  0  0  0  0  0  0
   24.1861  -21.5155  -14.0414 C   0  0  0  0  0  0  0  0  0  0  0  0
   24.3596  -21.5656  -15.5482 C   0  0  2  0  0  0  0  0  0  0  0  0
   25.7887  -21.4515  -15.8042 N   0  0  0  0  0  0  0  0  0  0  0  0
   23.6904  -20.4433  -16.2309 C   0  0  0  0  0  0  0  0  0  0  0  0
   22.5043  -20.5483  -16.9424 O   0  0  0  0  0  0  0  0  0  0  0  0
   22.0923  -20.4431  -13.2045 C   0  0  0  0  0  0  0  0  0  0  0  0
   20.7555  -20.5281  -12.8073 C   0  0  0  0  0  0  0  0  0  0  0  0
   24.2129  -19.3017  -16.1787 O   0  0  0  0  0  0  0  0  0  0  0  0
  2  1  1  6
  2  3  1  0
  4  5  1  1
  4  2  1  0
  6  4  1  0
  7  6  2  0
  9  8  1  0
 10  9  1  0
 10 11  1  1
 12 10  1  0
 12 13  1  6
 13  6  1  0
 14 12  1  0
 15 14  2  0
 16 17  1  0
 17 18  2  0
 18 19  1  0
 20 21  1  0
 20 19  2  0
 22 21  1  1
 22 24  1  0
 22 23  1  0
 23 14  1  0
 24 25  1  0
 26 20  1  0
 27 26  2  0
 27 17  1  0
 28 24  2  0
M  END
$$$$
