TIY.pdb
     RDKit          3D

 28 28  0  0  1  0  0  0  0  0999 V2000
   28.8392  -24.7281  -18.3532 C   0  0  0  0  0  0  0  0  0  0  0  0
   28.3373  -23.7532  -17.3115 C   0  0  1  0  0  0  0  0  0  0  0  0
   29.3132  -23.4816  -16.3868 O   0  0  0  0  0  0  0  0  0  0  0  0
   27.7613  -22.5221  -17.9829 C   0  0  2  0  0  0  0  0  0  0  0  0
   28.8407  -21.9624  -18.7857 N   0  0  0  0  0  0  0  0  0  0  0  0
   27.2414  -21.5387  -17.0119 C   0  0  0  0  0  0  0  0  0  0  0  0
   27.8793  -20.4755  -16.7061 O   0  0  0  0  0  0  0  0  0  0  0  0
   22.7666  -20.4739  -18.0532 C   0  0  0  0  0  0  0  0  0  0  0  0
   23.6473  -19.8444  -17.0301 C   0  0  0  0  0  0  0  0  0  0  0  0
   23.9133  -20.6336  -15.8033 C   0  0  2  0  0  0  0  0  0  0  0  0
   23.1621  -19.9699  -14.6529 C   0  0  0  0  0  0  0  0  0  0  0  0
   25.3455  -20.8795  -15.4657 C   0  0  2  0  0  0  0  0  0  0  0  0
   25.9891  -21.7843  -16.3982 N   0  0  0  0  0  0  0  0  0  0  0  0
   25.5772  -21.2635  -14.0629 C   0  0  0  0  0  0  0  0  0  0  0  0
   25.2355  -22.4004  -13.6732 O   0  0  0  0  0  0  0  0  0  0  0  0
   28.0480  -20.8608   -5.5404 O   0  0  0  0  0  0  0  0  0  0  0  0
   27.8499  -20.6055   -6.9011 C   0  0  0  0  0  0  0  0  0  0  0  0
   28.6768  -21.1718   -7.8396 C   0  0  0  0  0  0  0  0  0  0  0  0
   28.4889  -20.9257   -9.1845 C   0  0  0  0  0  0  0  0  0  0  0  0
   27.4703  -20.1064   -9.6427 C   0  0  0  0  0  0  0  0  0  0  0  0
   27.2982  -19.8589  -11.0933 C   0  0  0  0  0  0  0  0  0  0  0  0
   26.3307  -20.8252  -11.7514 C   0  0  2  0  0  0  0  0  0  0  0  0
   26.1805  -20.3847  -13.1314 N   0  0  0  0  0  0  0  0  0  0  0  0
   24.9963  -20.8020  -11.1252 C   0  0  0  0  0  0  0  0  0  0  0  0
   24.0133  -19.8625  -11.3998 O   0  0  0  0  0  0  0  0  0  0  0  0
   26.6396  -19.5369   -8.7064 C   0  0  0  0  0  0  0  0  0  0  0  0
   26.8324  -19.7881   -7.3456 C   0  0  0  0  0  0  0  0  0  0  0  0
   24.7062  -21.6852  -10.2798 O   0  0  0  0  0  0  0  0  0  0  0  0
  2  1  1  6
  2  3  1  0
  4  5  1  1
  4  2  1  0
  6  4  1  0
  7  6  2  0
  9  8  1  0
 10  9  1  0
 10 11  1  1
 12 10  1  0
 12 13  1  6
 13  6  1  0
 14 12  1  0
 15 14  2  0
 16 17  1  0
 17 18  2  0
 18 19  1  0
 20 21  1  0
 20 19  2  0
 22 21  1  1
 22 24  1  0
 22 23  1  0
 23 14  1  0
 24 25  1  0
 26 20  1  0
 27 26  2  0
 27 17  1  0
 28 24  2  0
M  END
$$$$
