TIY.pdb
     RDKit          3D

 28 28  0  0  1  0  0  0  0  0999 V2000
   19.8326  -17.8917  -13.0767 C   0  0  0  0  0  0  0  0  0  0  0  0
   20.8643  -18.8089  -12.4588 C   0  0  1  0  0  0  0  0  0  0  0  0
   20.5244  -19.1270  -11.1687 O   0  0  0  0  0  0  0  0  0  0  0  0
   21.0955  -20.0117  -13.3522 C   0  0  2  0  0  0  0  0  0  0  0  0
   19.8595  -20.7821  -13.3137 N   0  0  0  0  0  0  0  0  0  0  0  0
   22.2530  -20.8217  -12.9226 C   0  0  0  0  0  0  0  0  0  0  0  0
   22.1279  -21.8595  -12.1891 O   0  0  0  0  0  0  0  0  0  0  0  0
   25.8936  -22.5658  -16.3875 C   0  0  0  0  0  0  0  0  0  0  0  0
   25.0565  -22.3127  -15.1818 C   0  0  0  0  0  0  0  0  0  0  0  0
   25.6355  -21.4278  -14.1422 C   0  0  2  0  0  0  0  0  0  0  0  0
   26.9768  -22.0218  -13.7222 C   0  0  0  0  0  0  0  0  0  0  0  0
   24.7684  -21.1226  -12.9673 C   0  0  2  0  0  0  0  0  0  0  0  0
   23.5489  -20.4328  -13.3405 N   0  0  0  0  0  0  0  0  0  0  0  0
   25.4701  -20.4576  -11.8564 C   0  0  0  0  0  0  0  0  0  0  0  0
   25.7800  -19.2516  -11.9602 O   0  0  0  0  0  0  0  0  0  0  0  0
   29.4478  -18.5215   -4.2472 O   0  0  0  0  0  0  0  0  0  0  0  0
   28.6707  -19.1056   -5.2526 C   0  0  0  0  0  0  0  0  0  0  0  0
   29.0502  -20.2988   -5.8161 C   0  0  0  0  0  0  0  0  0  0  0  0
   28.2897  -20.8826   -6.8088 C   0  0  0  0  0  0  0  0  0  0  0  0
   27.1237  -20.2987   -7.2758 C   0  0  0  0  0  0  0  0  0  0  0  0
   26.3321  -20.9492   -8.3459 C   0  0  0  0  0  0  0  0  0  0  0  0
   26.7430  -20.5120   -9.7398 C   0  0  2  0  0  0  0  0  0  0  0  0
   25.8077  -21.1399  -10.6628 N   0  0  0  0  0  0  0  0  0  0  0  0
   28.0992  -20.9664  -10.0969 C   0  0  0  0  0  0  0  0  0  0  0  0
   29.2367  -20.1747  -10.0369 O   0  0  0  0  0  0  0  0  0  0  0  0
   26.7397  -19.1034   -6.7144 C   0  0  0  0  0  0  0  0  0  0  0  0
   27.5117  -18.5149   -5.7096 C   0  0  0  0  0  0  0  0  0  0  0  0
   28.2608  -22.1501  -10.4862 O   0  0  0  0  0  0  0  0  0  0  0  0
  2  1  1  6
  2  3  1  0
  4  5  1  1
  4  2  1  0
  6  4  1  0
  7  6  2  0
  9  8  1  0
 10  9  1  0
 10 11  1  1
 12 10  1  0
 12 13  1  6
 13  6  1  0
 14 12  1  0
 15 14  2  0
 16 17  1  0
 17 18  2  0
 18 19  1  0
 20 21  1  0
 20 19  2  0
 22 21  1  1
 22 24  1  0
 22 23  1  0
 23 14  1  0
 24 25  1  0
 26 20  1  0
 27 26  2  0
 27 17  1  0
 28 24  2  0
M  END
$$$$
