ATN.pdb
     RDKit          3D

 21 20  0  0  1  0  0  0  0  0999 V2000
    9.1306  -15.4083   17.1785 C   0  0  0  0  0  0  0  0  0  0  0  0
    8.2458  -14.3850   17.8982 C   0  0  2  0  0  0  0  0  0  0  0  0
    8.2780  -13.1186   17.2012 N   0  0  0  0  0  0  0  0  0  0  0  0
    8.7860  -14.2546   19.2723 C   0  0  0  0  0  0  0  0  0  0  0  0
    9.7749  -13.5014   19.4460 O   0  0  0  0  0  0  0  0  0  0  0  0
    6.5367  -13.8046   22.4775 C   0  0  0  0  0  0  0  0  0  0  0  0
    7.5648  -14.8920   22.6734 C   0  0  1  0  0  0  0  0  0  0  0  0
    6.9632  -16.1318   22.4834 O   0  0  0  0  0  0  0  0  0  0  0  0
    8.7477  -14.7459   21.7525 C   0  0  2  0  0  0  0  0  0  0  0  0
    8.2486  -14.9288   20.3838 N   0  0  0  0  0  0  0  0  0  0  0  0
    9.8393  -15.6852   22.0203 C   0  0  0  0  0  0  0  0  0  0  0  0
    9.9675  -16.7017   21.2820 O   0  0  0  0  0  0  0  0  0  0  0  0
   15.2693  -16.5131   24.2406 N   0  0  0  0  0  0  0  0  0  0  0  0
   14.2781  -16.8775   23.2949 C   0  0  0  0  0  0  0  0  0  0  0  0
   14.3203  -17.9859   22.7104 O   0  0  0  0  0  0  0  0  0  0  0  0
   13.1794  -15.9489   22.9874 C   0  0  0  0  0  0  0  0  0  0  0  0
   11.8228  -16.5290   23.3237 C   0  0  2  0  0  0  0  0  0  0  0  0
   10.7848  -15.5445   23.0626 N   0  0  0  0  0  0  0  0  0  0  0  0
   11.7422  -17.0647   24.6934 C   0  0  0  0  0  0  0  0  0  0  0  0
   10.8207  -16.6077   25.6224 O   0  0  0  0  0  0  0  0  0  0  0  0
   12.5254  -17.9749   25.0722 O   0  0  0  0  0  0  0  0  0  0  0  0
  2  1  1  6
  2  4  1  0
  3  2  1  0
  4  5  2  0
  7  6  1  6
  7  9  1  0
  8  7  1  0
  9 11  1  0
 10  4  1  0
  9 10  1  6
 11 12  2  0
 13 14  1  0
 14 16  1  0
 14 15  2  0
 17 16  1  1
 17 19  1  0
 18 17  1  0
 18 11  1  0
 19 21  2  0
 19 20  1  0
M  END
$$$$
