ATN.pdb
     RDKit          3D

 21 20  0  0  1  0  0  0  0  0999 V2000
    8.4819  -12.2346   19.3432 C   0  0  0  0  0  0  0  0  0  0  0  0
    8.7007  -13.7423   19.1788 C   0  0  2  0  0  0  0  0  0  0  0  0
    8.1674  -14.1895   17.9115 N   0  0  0  0  0  0  0  0  0  0  0  0
    8.0047  -14.3945   20.3135 C   0  0  0  0  0  0  0  0  0  0  0  0
    6.8277  -14.7907   20.1316 O   0  0  0  0  0  0  0  0  0  0  0  0
    8.0239  -17.8841   23.2811 C   0  0  0  0  0  0  0  0  0  0  0  0
    8.3323  -16.8831   22.1945 C   0  0  1  0  0  0  0  0  0  0  0  0
    7.6189  -17.2165   21.0477 O   0  0  0  0  0  0  0  0  0  0  0  0
    8.0201  -15.4674   22.6031 C   0  0  2  0  0  0  0  0  0  0  0  0
    8.5943  -14.5898   21.5757 N   0  0  0  0  0  0  0  0  0  0  0  0
    8.5296  -15.0957   23.9252 C   0  0  0  0  0  0  0  0  0  0  0  0
    9.7753  -14.9658   24.0870 O   0  0  0  0  0  0  0  0  0  0  0  0
    5.3303  -12.4250   26.2896 N   0  0  0  0  0  0  0  0  0  0  0  0
    6.7117  -12.5727   26.5720 C   0  0  0  0  0  0  0  0  0  0  0  0
    7.5268  -11.6594   26.3015 O   0  0  0  0  0  0  0  0  0  0  0  0
    7.2065  -13.8118   27.1914 C   0  0  0  0  0  0  0  0  0  0  0  0
    8.2716  -14.4887   26.3563 C   0  0  2  0  0  0  0  0  0  0  0  0
    7.7224  -14.8645   25.0632 N   0  0  0  0  0  0  0  0  0  0  0  0
    8.9077  -15.6293   27.0373 C   0  0  0  0  0  0  0  0  0  0  0  0
    9.8225  -15.4705   28.0664 O   0  0  0  0  0  0  0  0  0  0  0  0
    8.6346  -16.8109   26.6987 O   0  0  0  0  0  0  0  0  0  0  0  0
  2  1  1  1
  2  4  1  0
  3  2  1  0
  4  5  2  0
  7  6  1  1
  7  9  1  0
  8  7  1  0
  9 11  1  0
 10  4  1  0
  9 10  1  6
 11 12  2  0
 13 14  1  0
 14 16  1  0
 14 15  2  0
 17 16  1  1
 17 19  1  0
 18 17  1  0
 18 11  1  0
 19 21  2  0
 19 20  1  0
M  END
$$$$
