ATN.pdb
     RDKit          3D

 21 20  0  0  1  0  0  0  0  0999 V2000
    8.9223  -18.1948   17.0689 C   0  0  0  0  0  0  0  0  0  0  0  0
    8.3982  -16.7731   16.8412 C   0  0  2  0  0  0  0  0  0  0  0  0
    8.8084  -16.2914   15.5411 N   0  0  0  0  0  0  0  0  0  0  0  0
    8.9651  -15.9371   17.9260 C   0  0  0  0  0  0  0  0  0  0  0  0
   10.1093  -15.4499   17.7557 O   0  0  0  0  0  0  0  0  0  0  0  0
    7.2800  -12.9790   19.8092 C   0  0  0  0  0  0  0  0  0  0  0  0
    7.7690  -14.0216   20.7847 C   0  0  1  0  0  0  0  0  0  0  0  0
    6.7006  -14.8232   21.1734 O   0  0  0  0  0  0  0  0  0  0  0  0
    8.8744  -14.8739   20.2185 C   0  0  2  0  0  0  0  0  0  0  0  0
    8.2885  -15.6646   19.1289 N   0  0  0  0  0  0  0  0  0  0  0  0
    9.5137  -15.7584   21.1954 C   0  0  0  0  0  0  0  0  0  0  0  0
    9.2027  -16.9823   21.2090 O   0  0  0  0  0  0  0  0  0  0  0  0
   14.0875  -14.8256   21.6283 N   0  0  0  0  0  0  0  0  0  0  0  0
   13.2987  -15.9390   22.0127 C   0  0  0  0  0  0  0  0  0  0  0  0
   13.2263  -16.9595   21.2880 O   0  0  0  0  0  0  0  0  0  0  0  0
   12.5500  -15.9070   23.2786 C   0  0  0  0  0  0  0  0  0  0  0  0
   11.0904  -16.2613   23.0945 C   0  0  2  0  0  0  0  0  0  0  0  0
   10.4741  -15.3453   22.1479 N   0  0  0  0  0  0  0  0  0  0  0  0
   10.3435  -16.3287   24.3622 C   0  0  0  0  0  0  0  0  0  0  0  0
    9.2342  -15.5385   24.6198 O   0  0  0  0  0  0  0  0  0  0  0  0
   10.6968  -17.1239   25.2723 O   0  0  0  0  0  0  0  0  0  0  0  0
  2  1  1  1
  2  4  1  0
  3  2  1  0
  4  5  2  0
  7  6  1  6
  7  9  1  0
  8  7  1  0
  9 11  1  0
 10  4  1  0
  9 10  1  6
 11 12  2  0
 13 14  1  0
 14 16  1  0
 14 15  2  0
 17 16  1  1
 17 19  1  0
 18 17  1  0
 18 11  1  0
 19 21  2  0
 19 20  1  0
M  END
$$$$
