ATN.pdb
     RDKit          3D

 21 20  0  0  1  0  0  0  0  0999 V2000
    8.4045  -18.3276   17.0416 C   0  0  0  0  0  0  0  0  0  0  0  0
    8.0282  -16.8523   16.8682 C   0  0  2  0  0  0  0  0  0  0  0  0
    8.4392  -16.3817   15.5642 N   0  0  0  0  0  0  0  0  0  0  0  0
    8.7218  -16.1115   17.9486 C   0  0  0  0  0  0  0  0  0  0  0  0
    9.9370  -15.8408   17.7892 O   0  0  0  0  0  0  0  0  0  0  0  0
    7.0709  -13.0637   19.9810 C   0  0  0  0  0  0  0  0  0  0  0  0
    7.6982  -14.1066   20.8735 C   0  0  1  0  0  0  0  0  0  0  0  0
    6.7062  -14.9537   21.3567 O   0  0  0  0  0  0  0  0  0  0  0  0
    8.7636  -14.9072   20.1716 C   0  0  2  0  0  0  0  0  0  0  0  0
    8.0894  -15.6998   19.1358 N   0  0  0  0  0  0  0  0  0  0  0  0
    9.5371  -15.7844   21.0535 C   0  0  0  0  0  0  0  0  0  0  0  0
    9.2562  -17.0151   21.0928 O   0  0  0  0  0  0  0  0  0  0  0  0
   14.2225  -16.2136   24.8243 N   0  0  0  0  0  0  0  0  0  0  0  0
   13.5798  -16.7469   23.6788 C   0  0  0  0  0  0  0  0  0  0  0  0
   13.6736  -17.9643   23.3944 O   0  0  0  0  0  0  0  0  0  0  0  0
   12.7888  -15.8676   22.8041 C   0  0  0  0  0  0  0  0  0  0  0  0
   11.3283  -16.2613   22.7592 C   0  0  2  0  0  0  0  0  0  0  0  0
   10.5984  -15.3571   21.8849 N   0  0  0  0  0  0  0  0  0  0  0  0
   10.7102  -16.3573   24.0926 C   0  0  0  0  0  0  0  0  0  0  0  0
   10.9412  -17.4220   24.9494 O   0  0  0  0  0  0  0  0  0  0  0  0
    9.9350  -15.4551   24.5057 O   0  0  0  0  0  0  0  0  0  0  0  0
  2  1  1  6
  2  4  1  0
  3  2  1  0
  4  5  2  0
  7  6  1  6
  7  9  1  0
  8  7  1  0
  9 11  1  0
 10  4  1  0
  9 10  1  6
 11 12  2  0
 13 14  1  0
 14 16  1  0
 14 15  2  0
 17 16  1  1
 17 19  1  0
 18 17  1  0
 18 11  1  0
 19 21  2  0
 19 20  1  0
M  END
$$$$
