ATN.pdb
     RDKit          3D

 21 20  0  0  1  0  0  0  0  0999 V2000
    0.7420  -21.3114   19.3693 C   0  0  0  0  0  0  0  0  0  0  0  0
    1.2441  -20.4335   18.2181 C   0  0  2  0  0  0  0  0  0  0  0  0
    0.3382  -20.5168   17.0942 N   0  0  0  0  0  0  0  0  0  0  0  0
    2.5906  -20.9392   17.8599 C   0  0  0  0  0  0  0  0  0  0  0  0
    2.8175  -22.1645   18.0107 O   0  0  0  0  0  0  0  0  0  0  0  0
    4.3791  -20.5262   14.5131 C   0  0  0  0  0  0  0  0  0  0  0  0
    5.2584  -20.0118   15.6266 C   0  0  1  0  0  0  0  0  0  0  0  0
    5.1365  -18.6283   15.7055 O   0  0  0  0  0  0  0  0  0  0  0  0
    4.9335  -20.6353   16.9587 C   0  0  2  0  0  0  0  0  0  0  0  0
    3.6198  -20.1192   17.3628 N   0  0  0  0  0  0  0  0  0  0  0  0
    5.9229  -20.3695   18.0055 C   0  0  0  0  0  0  0  0  0  0  0  0
    5.8620  -19.2814   18.6437 O   0  0  0  0  0  0  0  0  0  0  0  0
    9.7464  -20.4695   21.4287 N   0  0  0  0  0  0  0  0  0  0  0  0
    9.2625  -21.7935   21.2786 C   0  0  0  0  0  0  0  0  0  0  0  0
    9.6301  -22.7067   22.0549 O   0  0  0  0  0  0  0  0  0  0  0  0
    8.3149  -22.1113   20.1993 C   0  0  0  0  0  0  0  0  0  0  0  0
    7.9874  -20.9055   19.3456 C   0  0  2  0  0  0  0  0  0  0  0  0
    6.9662  -21.2520   18.3700 N   0  0  0  0  0  0  0  0  0  0  0  0
    9.1723  -20.3016   18.7123 C   0  0  0  0  0  0  0  0  0  0  0  0
    9.8531  -19.2299   19.2681 O   0  0  0  0  0  0  0  0  0  0  0  0
    9.6140  -20.7499   17.6218 O   0  0  0  0  0  0  0  0  0  0  0  0
  2  1  1  1
  2  4  1  0
  3  2  1  0
  4  5  2  0
  7  6  1  6
  7  9  1  0
  8  7  1  0
  9 11  1  0
 10  4  1  0
  9 10  1  1
 11 12  2  0
 13 14  1  0
 14 16  1  0
 14 15  2  0
 17 16  1  6
 17 19  1  0
 18 17  1  0
 18 11  1  0
 19 21  2  0
 19 20  1  0
M  END
$$$$
