ATN.pdb
     RDKit          3D

 21 20  0  0  1  0  0  0  0  0999 V2000
    8.1575  -12.1536   19.0614 C   0  0  0  0  0  0  0  0  0  0  0  0
    8.0644  -13.4077   18.1858 C   0  0  2  0  0  0  0  0  0  0  0  0
    6.7717  -13.4725   17.5415 N   0  0  0  0  0  0  0  0  0  0  0  0
    8.2732  -14.5661   19.0867 C   0  0  0  0  0  0  0  0  0  0  0  0
    7.3270  -14.9034   19.8393 O   0  0  0  0  0  0  0  0  0  0  0  0
    8.4096  -17.7676   18.0770 C   0  0  0  0  0  0  0  0  0  0  0  0
    9.6659  -17.6717   18.9077 C   0  0  1  0  0  0  0  0  0  0  0  0
   10.7620  -17.5157   18.0656 O   0  0  0  0  0  0  0  0  0  0  0  0
    9.6176  -16.5448   19.9060 C   0  0  2  0  0  0  0  0  0  0  0  0
    9.4714  -15.3011   19.1395 N   0  0  0  0  0  0  0  0  0  0  0  0
   10.7906  -16.4632   20.7795 C   0  0  0  0  0  0  0  0  0  0  0  0
   11.8071  -15.8280   20.3820 O   0  0  0  0  0  0  0  0  0  0  0  0
   13.0373  -18.2358   26.1840 N   0  0  0  0  0  0  0  0  0  0  0  0
   12.9094  -17.2168   25.2068 C   0  0  0  0  0  0  0  0  0  0  0  0
   13.7963  -16.3417   25.0671 O   0  0  0  0  0  0  0  0  0  0  0  0
   11.7226  -17.1764   24.3386 C   0  0  0  0  0  0  0  0  0  0  0  0
   12.0802  -16.9746   22.8821 C   0  0  2  0  0  0  0  0  0  0  0  0
   10.8812  -17.0510   22.0627 N   0  0  0  0  0  0  0  0  0  0  0  0
   13.1308  -17.8918   22.4082 C   0  0  0  0  0  0  0  0  0  0  0  0
   12.8587  -19.1779   21.9689 O   0  0  0  0  0  0  0  0  0  0  0  0
   14.3362  -17.5285   22.3868 O   0  0  0  0  0  0  0  0  0  0  0  0
  2  1  1  1
  2  4  1  0
  3  2  1  0
  4  5  2  0
  7  6  1  6
  7  9  1  0
  8  7  1  0
  9 11  1  0
 10  4  1  0
  9 10  1  6
 11 12  2  0
 13 14  1  0
 14 16  1  0
 14 15  2  0
 17 16  1  1
 17 19  1  0
 18 17  1  0
 18 11  1  0
 19 21  2  0
 19 20  1  0
M  END
$$$$
