ATN.pdb
     RDKit          3D

 21 20  0  0  1  0  0  0  0  0999 V2000
    8.3496  -18.2145   17.2421 C   0  0  0  0  0  0  0  0  0  0  0  0
    8.0305  -16.7174   17.1732 C   0  0  2  0  0  0  0  0  0  0  0  0
    8.4903  -16.1656   15.9183 N   0  0  0  0  0  0  0  0  0  0  0  0
    8.7229  -16.0865   18.3220 C   0  0  0  0  0  0  0  0  0  0  0  0
    9.9617  -15.9045   18.2338 O   0  0  0  0  0  0  0  0  0  0  0  0
    7.5483  -12.8208   19.9697 C   0  0  0  0  0  0  0  0  0  0  0  0
    7.7788  -13.8712   21.0286 C   0  0  1  0  0  0  0  0  0  0  0  0
    6.5588  -14.4334   21.3903 O   0  0  0  0  0  0  0  0  0  0  0  0
    8.7308  -14.9489   20.5803 C   0  0  2  0  0  0  0  0  0  0  0  0
    8.0645  -15.6845   19.4983 N   0  0  0  0  0  0  0  0  0  0  0  0
    9.1377  -15.8729   21.6415 C   0  0  0  0  0  0  0  0  0  0  0  0
    8.4819  -16.9389   21.8100 O   0  0  0  0  0  0  0  0  0  0  0  0
   12.9658  -18.5466   22.3940 N   0  0  0  0  0  0  0  0  0  0  0  0
   12.7440  -17.1557   22.5546 C   0  0  0  0  0  0  0  0  0  0  0  0
   13.1169  -16.3377   21.6806 O   0  0  0  0  0  0  0  0  0  0  0  0
   12.0674  -16.6541   23.7606 C   0  0  0  0  0  0  0  0  0  0  0  0
   10.5652  -16.5831   23.5917 C   0  0  2  0  0  0  0  0  0  0  0  0
   10.2308  -15.6651   22.5145 N   0  0  0  0  0  0  0  0  0  0  0  0
    9.8544  -16.2520   24.8385 C   0  0  0  0  0  0  0  0  0  0  0  0
    9.0791  -15.1115   24.9773 O   0  0  0  0  0  0  0  0  0  0  0  0
    9.9302  -17.0113   25.8400 O   0  0  0  0  0  0  0  0  0  0  0  0
  2  1  1  6
  2  4  1  0
  3  2  1  0
  4  5  2  0
  7  6  1  6
  7  9  1  0
  8  7  1  0
  9 11  1  0
 10  4  1  0
  9 10  1  6
 11 12  2  0
 13 14  1  0
 14 16  1  0
 14 15  2  0
 17 16  1  1
 17 19  1  0
 18 17  1  0
 18 11  1  0
 19 21  2  0
 19 20  1  0
M  END
$$$$
