ATN.pdb
     RDKit          3D

 21 20  0  0  1  0  0  0  0  0999 V2000
    8.1475  -18.7377   17.6292 C   0  0  0  0  0  0  0  0  0  0  0  0
    7.9536  -17.2491   17.3215 C   0  0  2  0  0  0  0  0  0  0  0  0
    8.5073  -16.9306   16.0243 N   0  0  0  0  0  0  0  0  0  0  0  0
    8.6473  -16.5032   18.3983 C   0  0  0  0  0  0  0  0  0  0  0  0
    9.9017  -16.5388   18.4238 O   0  0  0  0  0  0  0  0  0  0  0  0
    7.3828  -12.9474   19.7570 C   0  0  0  0  0  0  0  0  0  0  0  0
    7.7275  -13.9058   20.8707 C   0  0  1  0  0  0  0  0  0  0  0  0
    6.5569  -14.4621   21.3761 O   0  0  0  0  0  0  0  0  0  0  0  0
    8.6680  -14.9962   20.4287 C   0  0  2  0  0  0  0  0  0  0  0  0
    7.9737  -15.7626   19.3865 N   0  0  0  0  0  0  0  0  0  0  0  0
    9.1034  -15.8892   21.5050 C   0  0  0  0  0  0  0  0  0  0  0  0
    8.4617  -16.9570   21.7120 O   0  0  0  0  0  0  0  0  0  0  0  0
   11.5939  -18.3728   21.6422 N   0  0  0  0  0  0  0  0  0  0  0  0
   12.5342  -17.7283   22.4849 C   0  0  0  0  0  0  0  0  0  0  0  0
   13.7570  -17.9945   22.4096 O   0  0  0  0  0  0  0  0  0  0  0  0
   12.0790  -16.7308   23.4657 C   0  0  0  0  0  0  0  0  0  0  0  0
   10.5780  -16.5405   23.4406 C   0  0  2  0  0  0  0  0  0  0  0  0
   10.2100  -15.6489   22.3523 N   0  0  0  0  0  0  0  0  0  0  0  0
   10.0265  -16.0922   24.7307 C   0  0  0  0  0  0  0  0  0  0  0  0
    9.3771  -14.8774   24.8850 O   0  0  0  0  0  0  0  0  0  0  0  0
   10.1298  -16.8143   25.7570 O   0  0  0  0  0  0  0  0  0  0  0  0
  2  1  1  1
  2  4  1  0
  3  2  1  0
  4  5  2  0
  7  6  1  6
  7  9  1  0
  8  7  1  0
  9 11  1  0
 10  4  1  0
  9 10  1  6
 11 12  2  0
 13 14  1  0
 14 16  1  0
 14 15  2  0
 17 16  1  1
 17 19  1  0
 18 17  1  0
 18 11  1  0
 19 21  2  0
 19 20  1  0
M  END
$$$$
