ATN.pdb
     RDKit          3D

 21 20  0  0  1  0  0  0  0  0999 V2000
    6.2617  -17.4079   22.7316 C   0  0  0  0  0  0  0  0  0  0  0  0
    6.4352  -15.9457   22.3075 C   0  0  2  0  0  0  0  0  0  0  0  0
    6.9205  -15.8741   20.9473 N   0  0  0  0  0  0  0  0  0  0  0  0
    7.4042  -15.3451   23.2548 C   0  0  0  0  0  0  0  0  0  0  0  0
    8.6209  -15.6110   23.0984 O   0  0  0  0  0  0  0  0  0  0  0  0
    6.0514  -12.7763   26.3682 C   0  0  0  0  0  0  0  0  0  0  0  0
    7.3606  -12.5467   25.6533 C   0  0  1  0  0  0  0  0  0  0  0  0
    8.2284  -11.8587   26.4951 O   0  0  0  0  0  0  0  0  0  0  0  0
    8.0009  -13.8281   25.1878 C   0  0  2  0  0  0  0  0  0  0  0  0
    7.0300  -14.4977   24.3134 N   0  0  0  0  0  0  0  0  0  0  0  0
    8.4071  -14.7267   26.2709 C   0  0  0  0  0  0  0  0  0  0  0  0
    7.5348  -15.4551   26.8218 O   0  0  0  0  0  0  0  0  0  0  0  0
   12.1222  -16.6885   25.2577 N   0  0  0  0  0  0  0  0  0  0  0  0
   11.4025  -17.1586   26.3850 C   0  0  0  0  0  0  0  0  0  0  0  0
   10.7610  -18.2348   26.3381 O   0  0  0  0  0  0  0  0  0  0  0  0
   11.4017  -16.3800   27.6331 C   0  0  0  0  0  0  0  0  0  0  0  0
   10.0732  -15.7019   27.8889 C   0  0  2  0  0  0  0  0  0  0  0  0
    9.7274  -14.8494   26.7627 N   0  0  0  0  0  0  0  0  0  0  0  0
   10.0294  -14.9712   29.1671 C   0  0  0  0  0  0  0  0  0  0  0  0
    9.8061  -13.6052   29.2406 O   0  0  0  0  0  0  0  0  0  0  0  0
   10.1971  -15.5777   30.2577 O   0  0  0  0  0  0  0  0  0  0  0  0
  2  1  1  1
  2  4  1  0
  3  2  1  0
  4  5  2  0
  7  6  1  1
  7  9  1  0
  8  7  1  0
  9 11  1  0
 10  4  1  0
  9 10  1  6
 11 12  2  0
 13 14  1  0
 14 16  1  0
 14 15  2  0
 17 16  1  6
 17 19  1  0
 18 17  1  0
 18 11  1  0
 19 21  2  0
 19 20  1  0
M  END
$$$$
