ATN.pdb
     RDKit          3D

 21 20  0  0  1  0  0  0  0  0999 V2000
    7.4193  -12.4066   19.1964 C   0  0  0  0  0  0  0  0  0  0  0  0
    8.5050  -13.4877   19.2175 C   0  0  2  0  0  0  0  0  0  0  0  0
    8.6584  -14.0677   17.9019 N   0  0  0  0  0  0  0  0  0  0  0  0
    8.0674  -14.5040   20.2038 C   0  0  0  0  0  0  0  0  0  0  0  0
    7.1013  -14.2186   20.9525 O   0  0  0  0  0  0  0  0  0  0  0  0
    6.4917  -17.4799   19.4494 C   0  0  0  0  0  0  0  0  0  0  0  0
    7.6462  -17.9198   20.3161 C   0  0  1  0  0  0  0  0  0  0  0  0
    8.6773  -18.3841   19.5059 O   0  0  0  0  0  0  0  0  0  0  0  0
    8.1505  -16.8206   21.2139 C   0  0  2  0  0  0  0  0  0  0  0  0
    8.6774  -15.7641   20.3411 N   0  0  0  0  0  0  0  0  0  0  0  0
    9.1781  -17.2454   22.1674 C   0  0  0  0  0  0  0  0  0  0  0  0
   10.3764  -17.3318   21.7782 O   0  0  0  0  0  0  0  0  0  0  0  0
   10.6459  -15.4892   23.8784 N   0  0  0  0  0  0  0  0  0  0  0  0
   10.5187  -15.8492   25.2437 C   0  0  0  0  0  0  0  0  0  0  0  0
   10.7376  -15.0153   26.1539 O   0  0  0  0  0  0  0  0  0  0  0  0
   10.1244  -17.2186   25.6087 C   0  0  0  0  0  0  0  0  0  0  0  0
    9.9600  -18.1131   24.3992 C   0  0  2  0  0  0  0  0  0  0  0  0
    8.9336  -17.5747   23.5209 N   0  0  0  0  0  0  0  0  0  0  0  0
    9.7041  -19.5213   24.7473 C   0  0  0  0  0  0  0  0  0  0  0  0
   10.6496  -20.3219   25.3688 O   0  0  0  0  0  0  0  0  0  0  0  0
    8.5938  -20.0542   24.4855 O   0  0  0  0  0  0  0  0  0  0  0  0
  2  1  1  6
  2  4  1  0
  3  2  1  0
  4  5  2  0
  7  6  1  6
  7  9  1  0
  8  7  1  0
  9 11  1  0
 10  4  1  0
  9 10  1  6
 11 12  2  0
 13 14  1  0
 14 16  1  0
 14 15  2  0
 17 16  1  1
 17 19  1  0
 18 17  1  0
 18 11  1  0
 19 21  2  0
 19 20  1  0
M  END
$$$$
