ATN.pdb
     RDKit          3D

 21 20  0  0  1  0  0  0  0  0999 V2000
    8.3542  -12.2432   19.1488 C   0  0  0  0  0  0  0  0  0  0  0  0
    8.6775  -13.6419   18.6131 C   0  0  2  0  0  0  0  0  0  0  0  0
    8.0906  -13.8238   17.3042 N   0  0  0  0  0  0  0  0  0  0  0  0
    8.1183  -14.6062   19.5901 C   0  0  0  0  0  0  0  0  0  0  0  0
    6.8965  -14.8822   19.5100 O   0  0  0  0  0  0  0  0  0  0  0  0
    8.2000  -17.9168   19.7895 C   0  0  0  0  0  0  0  0  0  0  0  0
    8.7326  -17.5425   21.1511 C   0  0  1  0  0  0  0  0  0  0  0  0
   10.1199  -17.6443   21.1450 O   0  0  0  0  0  0  0  0  0  0  0  0
    8.3187  -16.1581   21.5764 C   0  0  2  0  0  0  0  0  0  0  0  0
    8.8843  -15.2231   20.5959 N   0  0  0  0  0  0  0  0  0  0  0  0
    8.7462  -15.7902   22.9282 C   0  0  0  0  0  0  0  0  0  0  0  0
    9.8945  -15.2911   23.0927 O   0  0  0  0  0  0  0  0  0  0  0  0
    5.6395  -13.2213   25.9853 N   0  0  0  0  0  0  0  0  0  0  0  0
    6.9810  -13.6728   25.9063 C   0  0  0  0  0  0  0  0  0  0  0  0
    7.9002  -12.9035   25.5385 O   0  0  0  0  0  0  0  0  0  0  0  0
    7.3104  -15.0624   26.2588 C   0  0  0  0  0  0  0  0  0  0  0  0
    8.4437  -15.6164   25.4229 C   0  0  2  0  0  0  0  0  0  0  0  0
    7.9602  -15.9512   24.0929 N   0  0  0  0  0  0  0  0  0  0  0  0
    9.1360  -16.7501   26.0592 C   0  0  0  0  0  0  0  0  0  0  0  0
    9.9199  -16.6068   27.1933 O   0  0  0  0  0  0  0  0  0  0  0  0
    9.0355  -17.9111   25.5824 O   0  0  0  0  0  0  0  0  0  0  0  0
  2  1  1  1
  2  4  1  0
  3  2  1  0
  4  5  2  0
  7  6  1  6
  7  9  1  0
  8  7  1  0
  9 11  1  0
 10  4  1  0
  9 10  1  6
 11 12  2  0
 13 14  1  0
 14 16  1  0
 14 15  2  0
 17 16  1  1
 17 19  1  0
 18 17  1  0
 18 11  1  0
 19 21  2  0
 19 20  1  0
M  END
$$$$
