QWC.pdb
     RDKit          3D

 30 31  0  0  1  0  0  0  0  0999 V2000
   19.9776  -15.5263  -15.2493 N   0  0  0  0  0  0  0  0  0  0  0  0
   19.9823  -15.8434  -16.6577 C   0  0  0  0  0  0  0  0  0  0  0  0
   19.4126  -16.9052  -16.9868 O   0  0  0  0  0  0  0  0  0  0  0  0
   20.6273  -14.9569  -17.6267 C   0  0  0  0  0  0  0  0  0  0  0  0
   21.2599  -13.7401  -17.0810 C   0  0  0  0  0  0  0  0  0  0  0  0
   20.8230  -12.4217  -17.5883 C   0  0  2  0  0  0  0  0  0  0  0  0
   20.6180  -12.4431  -19.0476 N   0  0  0  0  0  0  0  0  0  0  0  0
   21.5096  -11.2194  -17.1113 C   0  0  0  0  0  0  0  0  0  0  0  0
   21.7243  -11.0685  -15.8518 O   0  0  0  0  0  0  0  0  0  0  0  0
   21.9661  -10.1813  -17.9494 N   0  0  0  0  0  0  0  0  0  0  0  0
   22.5779   -8.9660  -17.3697 C   0  0  1  0  0  0  0  0  0  0  0  0
   23.8142   -8.6304  -18.1275 C   0  0  0  0  0  0  0  0  0  0  0  0
   24.9124   -9.5986  -18.0679 C   0  0  0  0  0  0  0  0  0  0  0  0
   25.4996  -10.3344  -19.0877 C   0  0  0  0  0  0  0  0  0  0  0  0
   26.4577  -11.1300  -18.5798 N   0  0  0  0  0  0  0  0  0  0  0  0
   26.5383  -10.9570  -17.2514 C   0  0  0  0  0  0  0  0  0  0  0  0
   27.3497  -11.5330  -16.2977 C   0  0  0  0  0  0  0  0  0  0  0  0
   27.1699  -11.1214  -14.9865 C   0  0  0  0  0  0  0  0  0  0  0  0
   26.2321  -10.1819  -14.6219 C   0  0  0  0  0  0  0  0  0  0  0  0
   25.4533   -9.6411  -15.6020 C   0  0  0  0  0  0  0  0  0  0  0  0
   25.5907  -10.0141  -16.9168 C   0  0  0  0  0  0  0  0  0  0  0  0
   21.5648   -7.9029  -17.3034 C   0  0  0  0  0  0  0  0  0  0  0  0
   20.9968   -7.4682  -18.3610 O   0  0  0  0  0  0  0  0  0  0  0  0
   21.1443   -7.3027  -16.1135 N   0  0  0  0  0  0  0  0  0  0  0  0
   20.0736   -6.3225  -16.0733 C   0  0  1  0  0  0  0  0  0  0  0  0
   18.7177   -6.9864  -15.8948 C   0  0  0  0  0  0  0  0  0  0  0  0
   18.8506   -7.9804  -14.3729 S   0  0  0  0  0  0  0  0  0  0  0  0
   20.2588   -5.4179  -14.9461 C   0  0  0  0  0  0  0  0  0  0  0  0
   21.2158   -5.6427  -14.1297 O   0  0  0  0  0  0  0  0  0  0  0  0
   19.4315   -4.3403  -14.7519 O   0  0  0  0  0  0  0  0  0  0  0  0
  2  1  1  0
  3  2  2  0
  4  2  1  0
  5  4  1  0
  6  5  1  0
  6  7  1  6
  8  9  2  0
  8  6  1  0
 10  8  1  0
 11 10  1  0
 11 12  1  6
 13 12  1  0
 14 13  2  0
 15 16  1  0
 15 14  1  0
 16 21  2  0
 17 16  1  0
 17 18  2  0
 18 19  1  0
 19 20  2  0
 21 13  1  0
 21 20  1  0
 22 11  1  0
 23 22  2  0
 24 22  1  0
 25 28  1  0
 25 24  1  0
 25 26  1  1
 27 26  1  0
 28 30  1  0
 29 28  2  0
M  END
$$$$
