QWC.pdb
     RDKit          3D

 30 31  0  0  1  0  0  0  0  0999 V2000
   27.2718  -17.4764  -16.1507 N   0  0  0  0  0  0  0  0  0  0  0  0
   27.8734  -18.3364  -17.1419 C   0  0  0  0  0  0  0  0  0  0  0  0
   28.9526  -17.9431  -17.6327 O   0  0  0  0  0  0  0  0  0  0  0  0
   27.2348  -19.5925  -17.5359 C   0  0  0  0  0  0  0  0  0  0  0  0
   26.3957  -20.2490  -16.5142 C   0  0  0  0  0  0  0  0  0  0  0  0
   27.0537  -20.8750  -15.3474 C   0  0  2  0  0  0  0  0  0  0  0  0
   28.0803  -21.8481  -15.7613 N   0  0  0  0  0  0  0  0  0  0  0  0
   26.2233  -21.3384  -14.2338 C   0  0  0  0  0  0  0  0  0  0  0  0
   25.7543  -22.5363  -14.2472 O   0  0  0  0  0  0  0  0  0  0  0  0
   25.8853  -20.5500  -13.1146 N   0  0  0  0  0  0  0  0  0  0  0  0
   25.0062  -21.0918  -12.0557 C   0  0  1  0  0  0  0  0  0  0  0  0
   25.3797  -20.4832  -10.7497 C   0  0  0  0  0  0  0  0  0  0  0  0
   26.7276  -20.7637  -10.2482 C   0  0  0  0  0  0  0  0  0  0  0  0
   27.8064  -21.3534  -10.8923 C   0  0  0  0  0  0  0  0  0  0  0  0
   28.8462  -21.4459  -10.0442 N   0  0  0  0  0  0  0  0  0  0  0  0
   28.5071  -20.9389   -8.8488 C   0  0  0  0  0  0  0  0  0  0  0  0
   29.2139  -20.8075   -7.6728 C   0  0  0  0  0  0  0  0  0  0  0  0
   28.5522  -20.2270   -6.6023 C   0  0  0  0  0  0  0  0  0  0  0  0
   27.2485  -19.7914   -6.6790 C   0  0  0  0  0  0  0  0  0  0  0  0
   26.5916  -19.9434   -7.8642 C   0  0  0  0  0  0  0  0  0  0  0  0
   27.2010  -20.5123   -8.9558 C   0  0  0  0  0  0  0  0  0  0  0  0
   23.6037  -20.9179  -12.4600 C   0  0  0  0  0  0  0  0  0  0  0  0
   23.2021  -19.8286  -12.9914 O   0  0  0  0  0  0  0  0  0  0  0  0
   22.6235  -21.9024  -12.3098 N   0  0  0  0  0  0  0  0  0  0  0  0
   21.2488  -21.7018  -12.7329 C   0  0  1  0  0  0  0  0  0  0  0  0
   20.4644  -23.0038  -12.7118 C   0  0  0  0  0  0  0  0  0  0  0  0
   18.7833  -22.5772  -13.2719 S   0  0  0  0  0  0  0  0  0  0  0  0
   20.5718  -20.7797  -11.8303 C   0  0  0  0  0  0  0  0  0  0  0  0
   20.7863  -20.8816  -10.5748 O   0  0  0  0  0  0  0  0  0  0  0  0
   19.7189  -19.8143  -12.3035 O   0  0  0  0  0  0  0  0  0  0  0  0
  2  1  1  0
  3  2  2  0
  4  2  1  0
  5  4  1  0
  6  5  1  0
  6  7  1  6
  8  9  2  0
  8  6  1  0
 10  8  1  0
 11 10  1  0
 11 12  1  1
 13 12  1  0
 14 13  2  0
 15 16  1  0
 15 14  1  0
 16 21  2  0
 17 16  1  0
 17 18  2  0
 18 19  1  0
 19 20  2  0
 21 13  1  0
 21 20  1  0
 22 11  1  0
 23 22  2  0
 24 22  1  0
 25 28  1  0
 25 24  1  0
 25 26  1  1
 27 26  1  0
 28 30  1  0
 29 28  2  0
M  END
$$$$
