QWC.pdb
     RDKit          3D

 30 31  0  0  1  0  0  0  0  0999 V2000
   27.9517  -23.1628  -17.1894 N   0  0  0  0  0  0  0  0  0  0  0  0
   29.0212  -22.1994  -17.0785 C   0  0  0  0  0  0  0  0  0  0  0  0
   29.6876  -21.9920  -18.1144 O   0  0  0  0  0  0  0  0  0  0  0  0
   29.2928  -21.5188  -15.8120 C   0  0  0  0  0  0  0  0  0  0  0  0
   28.4164  -21.8718  -14.6780 C   0  0  0  0  0  0  0  0  0  0  0  0
   27.1421  -21.1412  -14.5086 C   0  0  2  0  0  0  0  0  0  0  0  0
   27.2987  -19.7041  -14.7954 N   0  0  0  0  0  0  0  0  0  0  0  0
   26.3230  -21.4162  -13.3262 C   0  0  0  0  0  0  0  0  0  0  0  0
   25.8932  -22.6103  -13.1155 O   0  0  0  0  0  0  0  0  0  0  0  0
   25.9556  -20.4449  -12.3723 N   0  0  0  0  0  0  0  0  0  0  0  0
   25.0599  -20.7996  -11.2500 C   0  0  1  0  0  0  0  0  0  0  0  0
   25.5682  -20.1716  -10.0000 C   0  0  0  0  0  0  0  0  0  0  0  0
   26.8890  -20.5997   -9.5319 C   0  0  0  0  0  0  0  0  0  0  0  0
   27.8319  -21.4033  -10.1576 C   0  0  0  0  0  0  0  0  0  0  0  0
   28.8959  -21.5668   -9.3513 N   0  0  0  0  0  0  0  0  0  0  0  0
   28.7044  -20.9011   -8.2017 C   0  0  0  0  0  0  0  0  0  0  0  0
   29.4909  -20.7629   -7.0784 C   0  0  0  0  0  0  0  0  0  0  0  0
   28.9840  -19.9891   -6.0464 C   0  0  0  0  0  0  0  0  0  0  0  0
   27.7542  -19.3737   -6.1107 C   0  0  0  0  0  0  0  0  0  0  0  0
   27.0134  -19.5405   -7.2433 C   0  0  0  0  0  0  0  0  0  0  0  0
   27.4692  -20.2972   -8.2951 C   0  0  0  0  0  0  0  0  0  0  0  0
   23.6765  -20.4615  -11.6141 C   0  0  0  0  0  0  0  0  0  0  0  0
   23.3028  -19.2454  -11.7224 O   0  0  0  0  0  0  0  0  0  0  0  0
   22.6861  -21.4127  -11.8730 N   0  0  0  0  0  0  0  0  0  0  0  0
   21.3883  -21.0552  -12.4181 C   0  0  1  0  0  0  0  0  0  0  0  0
   21.0861  -21.8309  -13.6900 C   0  0  0  0  0  0  0  0  0  0  0  0
   21.7156  -23.5169  -13.4022 S   0  0  0  0  0  0  0  0  0  0  0  0
   20.3345  -21.3723  -11.4629 C   0  0  0  0  0  0  0  0  0  0  0  0
   19.1398  -21.0002  -11.7215 O   0  0  0  0  0  0  0  0  0  0  0  0
   20.6031  -22.0580  -10.3049 O   0  0  0  0  0  0  0  0  0  0  0  0
  2  1  1  0
  3  2  2  0
  4  2  1  0
  5  4  1  0
  6  5  1  0
  6  7  1  1
  8  9  2  0
  8  6  1  0
 10  8  1  0
 11 10  1  0
 11 12  1  1
 13 12  1  0
 14 13  2  0
 15 16  1  0
 15 14  1  0
 16 21  2  0
 17 16  1  0
 17 18  2  0
 18 19  1  0
 19 20  2  0
 21 13  1  0
 21 20  1  0
 22 11  1  0
 23 22  2  0
 24 22  1  0
 25 28  1  0
 25 24  1  0
 25 26  1  6
 27 26  1  0
 28 30  1  0
 29 28  2  0
M  END
$$$$
