QWC.pdb
     RDKit          3D

 30 31  0  0  1  0  0  0  0  0999 V2000
   27.7165  -23.0357  -17.8208 N   0  0  0  0  0  0  0  0  0  0  0  0
   28.3912  -21.7734  -18.0085 C   0  0  0  0  0  0  0  0  0  0  0  0
   29.0141  -21.6341  -19.0822 O   0  0  0  0  0  0  0  0  0  0  0  0
   28.3369  -20.7311  -16.9830 C   0  0  0  0  0  0  0  0  0  0  0  0
   27.5545  -21.0449  -15.7714 C   0  0  0  0  0  0  0  0  0  0  0  0
   28.2594  -21.1496  -14.4759 C   0  0  2  0  0  0  0  0  0  0  0  0
   29.3806  -22.1038  -14.5442 N   0  0  0  0  0  0  0  0  0  0  0  0
   27.4678  -21.2637  -13.2492 C   0  0  0  0  0  0  0  0  0  0  0  0
   26.3001  -21.8019  -13.2949 O   0  0  0  0  0  0  0  0  0  0  0  0
   27.8970  -20.8145  -11.9833 N   0  0  0  0  0  0  0  0  0  0  0  0
   27.0663  -21.0537  -10.7832 C   0  0  1  0  0  0  0  0  0  0  0  0
   27.8550  -20.7181   -9.5664 C   0  0  0  0  0  0  0  0  0  0  0  0
   27.1351  -20.7110   -8.2901 C   0  0  0  0  0  0  0  0  0  0  0  0
   25.8229  -21.0677   -8.0124 C   0  0  0  0  0  0  0  0  0  0  0  0
   25.5670  -20.8757   -6.7060 N   0  0  0  0  0  0  0  0  0  0  0  0
   26.6617  -20.4015   -6.0911 C   0  0  0  0  0  0  0  0  0  0  0  0
   26.8996  -20.0524   -4.7792 C   0  0  0  0  0  0  0  0  0  0  0  0
   28.1684  -19.5873   -4.4718 C   0  0  0  0  0  0  0  0  0  0  0  0
   29.1669  -19.4682   -5.4121 C   0  0  0  0  0  0  0  0  0  0  0  0
   28.8824  -19.8262   -6.6967 C   0  0  0  0  0  0  0  0  0  0  0  0
   27.6412  -20.2931   -7.0545 C   0  0  0  0  0  0  0  0  0  0  0  0
   25.7909  -20.3380  -10.9313 C   0  0  0  0  0  0  0  0  0  0  0  0
   25.7630  -19.0773  -11.1314 O   0  0  0  0  0  0  0  0  0  0  0  0
   24.5401  -20.9587  -10.8762 N   0  0  0  0  0  0  0  0  0  0  0  0
   23.3254  -20.3009  -11.3243 C   0  0  1  0  0  0  0  0  0  0  0  0
   22.8828  -20.8161  -12.6843 C   0  0  0  0  0  0  0  0  0  0  0  0
   21.2127  -20.1368  -12.9506 S   0  0  0  0  0  0  0  0  0  0  0  0
   22.2360  -20.5624  -10.3925 C   0  0  0  0  0  0  0  0  0  0  0  0
   21.1368  -19.9279  -10.5399 O   0  0  0  0  0  0  0  0  0  0  0  0
   22.3714  -21.4705   -9.3725 O   0  0  0  0  0  0  0  0  0  0  0  0
  2  1  1  0
  3  2  2  0
  4  2  1  0
  5  4  1  0
  6  5  1  0
  6  7  1  6
  8  9  2  0
  8  6  1  0
 10  8  1  0
 11 10  1  0
 11 12  1  1
 13 12  1  0
 14 13  2  0
 15 16  1  0
 15 14  1  0
 16 21  2  0
 17 16  1  0
 17 18  2  0
 18 19  1  0
 19 20  2  0
 21 13  1  0
 21 20  1  0
 22 11  1  0
 23 22  2  0
 24 22  1  0
 25 28  1  0
 25 24  1  0
 25 26  1  6
 27 26  1  0
 28 30  1  0
 29 28  2  0
M  END
$$$$
