QWC.pdb
     RDKit          3D

 30 31  0  0  1  0  0  0  0  0999 V2000
   28.3943  -21.6936  -19.8938 N   0  0  0  0  0  0  0  0  0  0  0  0
   28.7897  -22.9321  -19.2663 C   0  0  0  0  0  0  0  0  0  0  0  0
   29.7434  -23.5402  -19.7963 O   0  0  0  0  0  0  0  0  0  0  0  0
   28.0953  -23.4291  -18.0781 C   0  0  0  0  0  0  0  0  0  0  0  0
   27.0006  -22.5860  -17.5590 C   0  0  0  0  0  0  0  0  0  0  0  0
   27.1824  -21.9030  -16.2603 C   0  0  2  0  0  0  0  0  0  0  0  0
   28.5126  -22.1741  -15.6866 N   0  0  0  0  0  0  0  0  0  0  0  0
   26.0988  -21.9574  -15.2768 C   0  0  0  0  0  0  0  0  0  0  0  0
   25.9397  -23.0174  -14.5654 O   0  0  0  0  0  0  0  0  0  0  0  0
   25.1868  -20.9077  -15.0424 N   0  0  0  0  0  0  0  0  0  0  0  0
   24.4346  -20.8400  -13.7707 C   0  0  1  0  0  0  0  0  0  0  0  0
   24.9698  -19.7244  -12.9435 C   0  0  0  0  0  0  0  0  0  0  0  0
   26.1182  -20.0266  -12.0850 C   0  0  0  0  0  0  0  0  0  0  0  0
   27.4624  -20.1378  -12.4121 C   0  0  0  0  0  0  0  0  0  0  0  0
   28.1711  -20.4617  -11.3159 N   0  0  0  0  0  0  0  0  0  0  0  0
   27.3517  -20.5734  -10.2588 C   0  0  0  0  0  0  0  0  0  0  0  0
   27.5939  -20.8821   -8.9376 C   0  0  0  0  0  0  0  0  0  0  0  0
   26.4994  -20.9137   -8.0878 C   0  0  0  0  0  0  0  0  0  0  0  0
   25.2167  -20.6531   -8.5142 C   0  0  0  0  0  0  0  0  0  0  0  0
   25.0285  -20.3526   -9.8309 C   0  0  0  0  0  0  0  0  0  0  0  0
   26.0787  -20.3079  -10.7150 C   0  0  0  0  0  0  0  0  0  0  0  0
   22.9959  -20.7787  -14.0661 C   0  0  0  0  0  0  0  0  0  0  0  0
   22.5195  -19.8765  -14.8338 O   0  0  0  0  0  0  0  0  0  0  0  0
   22.0581  -21.6797  -13.5548 N   0  0  0  0  0  0  0  0  0  0  0  0
   20.6576  -21.6447  -13.9372 C   0  0  1  0  0  0  0  0  0  0  0  0
   20.1353  -23.0343  -14.2651 C   0  0  0  0  0  0  0  0  0  0  0  0
   20.3664  -24.0196  -12.7494 S   0  0  0  0  0  0  0  0  0  0  0  0
   19.8472  -21.1309  -12.8406 C   0  0  0  0  0  0  0  0  0  0  0  0
   20.4189  -20.8567  -11.7312 O   0  0  0  0  0  0  0  0  0  0  0  0
   18.4958  -20.9378  -12.9809 O   0  0  0  0  0  0  0  0  0  0  0  0
  2  1  1  0
  3  2  2  0
  4  2  1  0
  5  4  1  0
  6  5  1  0
  6  7  1  1
  8  9  2  0
  8  6  1  0
 10  8  1  0
 11 10  1  0
 11 12  1  6
 13 12  1  0
 14 13  2  0
 15 16  1  0
 15 14  1  0
 16 21  2  0
 17 16  1  0
 17 18  2  0
 18 19  1  0
 19 20  2  0
 21 13  1  0
 21 20  1  0
 22 11  1  0
 23 22  2  0
 24 22  1  0
 25 28  1  0
 25 24  1  0
 25 26  1  1
 27 26  1  0
 28 30  1  0
 29 28  2  0
M  END
$$$$
