QWC.pdb
     RDKit          3D

 30 31  0  0  1  0  0  0  0  0999 V2000
   25.7792  -19.0555  -17.4536 N   0  0  0  0  0  0  0  0  0  0  0  0
   26.9986  -19.6395  -17.9596 C   0  0  0  0  0  0  0  0  0  0  0  0
   27.1181  -19.6788  -19.2023 O   0  0  0  0  0  0  0  0  0  0  0  0
   28.0219  -20.1528  -17.0485 C   0  0  0  0  0  0  0  0  0  0  0  0
   27.7774  -19.9485  -15.6073 C   0  0  0  0  0  0  0  0  0  0  0  0
   28.2987  -20.9459  -14.6482 C   0  0  2  0  0  0  0  0  0  0  0  0
   28.7677  -22.1635  -15.3333 N   0  0  0  0  0  0  0  0  0  0  0  0
   27.5352  -21.2179  -13.4285 C   0  0  0  0  0  0  0  0  0  0  0  0
   26.3741  -21.7649  -13.5151 O   0  0  0  0  0  0  0  0  0  0  0  0
   27.9858  -20.9163  -12.1267 N   0  0  0  0  0  0  0  0  0  0  0  0
   27.0997  -21.1253  -10.9611 C   0  0  1  0  0  0  0  0  0  0  0  0
   27.8298  -20.7556   -9.7179 C   0  0  0  0  0  0  0  0  0  0  0  0
   27.0236  -20.5446   -8.5127 C   0  0  0  0  0  0  0  0  0  0  0  0
   25.6482  -20.6227   -8.3433 C   0  0  0  0  0  0  0  0  0  0  0  0
   25.3295  -20.3202   -7.0721 N   0  0  0  0  0  0  0  0  0  0  0  0
   26.4425  -20.0404   -6.3764 C   0  0  0  0  0  0  0  0  0  0  0  0
   26.6368  -19.6807   -5.0602 C   0  0  0  0  0  0  0  0  0  0  0  0
   27.9434  -19.4591   -4.6545 C   0  0  0  0  0  0  0  0  0  0  0  0
   29.0193  -19.5846   -5.5041 C   0  0  0  0  0  0  0  0  0  0  0  0
   28.7755  -19.9426   -6.7971 C   0  0  0  0  0  0  0  0  0  0  0  0
   27.4997  -20.1739   -7.2504 C   0  0  0  0  0  0  0  0  0  0  0  0
   25.8319  -20.4167  -11.1882 C   0  0  0  0  0  0  0  0  0  0  0  0
   25.8109  -19.1588  -11.4063 O   0  0  0  0  0  0  0  0  0  0  0  0
   24.5820  -21.0416  -11.1931 N   0  0  0  0  0  0  0  0  0  0  0  0
   23.3630  -20.3390  -11.5528 C   0  0  1  0  0  0  0  0  0  0  0  0
   22.8812  -20.7346  -12.9393 C   0  0  0  0  0  0  0  0  0  0  0  0
   21.2676  -19.9151  -13.1544 S   0  0  0  0  0  0  0  0  0  0  0  0
   22.2949  -20.6694  -10.6183 C   0  0  0  0  0  0  0  0  0  0  0  0
   22.4198  -21.7095   -9.8865 O   0  0  0  0  0  0  0  0  0  0  0  0
   21.1715  -19.8883  -10.5128 O   0  0  0  0  0  0  0  0  0  0  0  0
  2  1  1  0
  3  2  2  0
  4  2  1  0
  5  4  1  0
  6  5  1  0
  6  7  1  6
  8  9  2  0
  8  6  1  0
 10  8  1  0
 11 10  1  0
 11 12  1  1
 13 12  1  0
 14 13  2  0
 15 16  1  0
 15 14  1  0
 16 21  2  0
 17 16  1  0
 17 18  2  0
 18 19  1  0
 19 20  2  0
 21 13  1  0
 21 20  1  0
 22 11  1  0
 23 22  2  0
 24 22  1  0
 25 28  1  0
 25 24  1  0
 25 26  1  6
 27 26  1  0
 28 30  1  0
 29 28  2  0
M  END
$$$$
