QWC.pdb
     RDKit          3D

 30 31  0  0  1  0  0  0  0  0999 V2000
   28.6755  -18.1267  -16.0252 N   0  0  0  0  0  0  0  0  0  0  0  0
   28.6373  -18.7403  -17.3314 C   0  0  0  0  0  0  0  0  0  0  0  0
   29.4165  -18.2689  -18.1863 O   0  0  0  0  0  0  0  0  0  0  0  0
   27.7263  -19.8495  -17.6156 C   0  0  0  0  0  0  0  0  0  0  0  0
   26.9749  -20.3906  -16.4661 C   0  0  0  0  0  0  0  0  0  0  0  0
   27.6900  -21.2263  -15.4778 C   0  0  2  0  0  0  0  0  0  0  0  0
   28.2490  -22.4408  -16.0979 N   0  0  0  0  0  0  0  0  0  0  0  0
   27.0658  -21.4684  -14.1754 C   0  0  0  0  0  0  0  0  0  0  0  0
   26.2732  -22.4709  -14.0279 O   0  0  0  0  0  0  0  0  0  0  0  0
   27.2700  -20.6632  -13.0359 N   0  0  0  0  0  0  0  0  0  0  0  0
   26.5171  -20.9251  -11.7900 C   0  0  1  0  0  0  0  0  0  0  0  0
   27.2667  -20.3581  -10.6360 C   0  0  0  0  0  0  0  0  0  0  0  0
   26.6264  -20.4461   -9.3210 C   0  0  0  0  0  0  0  0  0  0  0  0
   25.2927  -20.6551   -8.9984 C   0  0  0  0  0  0  0  0  0  0  0  0
   25.1397  -20.6313   -7.6624 N   0  0  0  0  0  0  0  0  0  0  0  0
   26.3245  -20.4135   -7.0708 C   0  0  0  0  0  0  0  0  0  0  0  0
   26.6826  -20.3055   -5.7442 C   0  0  0  0  0  0  0  0  0  0  0  0
   28.0214  -20.0738   -5.4706 C   0  0  0  0  0  0  0  0  0  0  0  0
   28.9739  -19.9523   -6.4571 C   0  0  0  0  0  0  0  0  0  0  0  0
   28.5699  -20.0668   -7.7545 C   0  0  0  0  0  0  0  0  0  0  0  0
   27.2554  -20.2964   -8.0802 C   0  0  0  0  0  0  0  0  0  0  0  0
   25.1381  -20.4420  -11.9514 C   0  0  0  0  0  0  0  0  0  0  0  0
   24.8967  -19.2158  -12.2127 O   0  0  0  0  0  0  0  0  0  0  0  0
   24.0103  -21.2600  -11.8444 N   0  0  0  0  0  0  0  0  0  0  0  0
   22.6744  -20.7877  -12.1626 C   0  0  1  0  0  0  0  0  0  0  0  0
   21.8482  -21.8695  -12.8396 C   0  0  0  0  0  0  0  0  0  0  0  0
   22.6792  -22.2057  -14.4264 S   0  0  0  0  0  0  0  0  0  0  0  0
   21.9688  -20.4096  -10.9451 C   0  0  0  0  0  0  0  0  0  0  0  0
   22.5364  -20.6134   -9.8185 O   0  0  0  0  0  0  0  0  0  0  0  0
   20.7196  -19.8431  -10.9903 O   0  0  0  0  0  0  0  0  0  0  0  0
  2  1  1  0
  3  2  2  0
  4  2  1  0
  5  4  1  0
  6  5  1  0
  6  7  1  6
  8  9  2  0
  8  6  1  0
 10  8  1  0
 11 10  1  0
 11 12  1  1
 13 12  1  0
 14 13  2  0
 15 16  1  0
 15 14  1  0
 16 21  2  0
 17 16  1  0
 17 18  2  0
 18 19  1  0
 19 20  2  0
 21 13  1  0
 21 20  1  0
 22 11  1  0
 23 22  2  0
 24 22  1  0
 25 28  1  0
 25 24  1  0
 25 26  1  1
 27 26  1  0
 28 30  1  0
 29 28  2  0
M  END
$$$$
