QWC.pdb
     RDKit          3D

 30 31  0  0  1  0  0  0  0  0999 V2000
-30070124.000014498923.0000-18489978.0000 N   0  0  0  0  0  0  0  0  0  0  0  0
-30070128.000014498921.0000-18489978.0000 C   0  0  0  0  0  0  0  0  0  0  0  0
-30070126.000014498917.0000-18489978.0000 O   0  0  0  0  0  0  0  0  0  0  0  0
-30070126.000014498921.0000-18489980.0000 C   0  0  0  0  0  0  0  0  0  0  0  0
-30070124.000014498921.0000-18489982.0000 C   0  0  0  0  0  0  0  0  0  0  0  0
-30070124.000014498921.0000-18489978.0000 C   0  0  0  0  0  0  0  0  0  0  0  0
-30070124.000014498921.0000-18489978.0000 N   0  0  0  0  0  0  0  0  0  0  0  0
-30070122.000014498920.0000-18489978.0000 C   0  0  0  0  0  0  0  0  0  0  0  0
-30070122.000014498920.0000-18489978.0000 O   0  0  0  0  0  0  0  0  0  0  0  0
-30070124.000014498921.0000-18489976.0000 N   0  0  0  0  0  0  0  0  0  0  0  0
-30070122.000014498920.0000-18489976.0000 C   0  0  1  0  0  0  0  0  0  0  0  0
-30070120.000014498918.0000-18489978.0000 C   0  0  0  0  0  0  0  0  0  0  0  0
-30070118.000014498920.0000-18489978.0000 C   0  0  0  0  0  0  0  0  0  0  0  0
-30070118.000014498920.0000-18489976.0000 C   0  0  0  0  0  0  0  0  0  0  0  0
-30070118.000014498920.0000-18489978.0000 N   0  0  0  0  0  0  0  0  0  0  0  0
-30070116.000014498922.0000-18489974.0000 C   0  0  0  0  0  0  0  0  0  0  0  0
-30070116.000014498922.0000-18489974.0000 C   0  0  0  0  0  0  0  0  0  0  0  0
-30070116.000014498918.0000-18489978.0000 C   0  0  0  0  0  0  0  0  0  0  0  0
-30070116.000014498918.0000-18489978.0000 C   0  0  0  0  0  0  0  0  0  0  0  0
-30070118.000014498916.0000-18489978.0000 C   0  0  0  0  0  0  0  0  0  0  0  0
-30070118.000014498918.0000-18489978.0000 C   0  0  0  0  0  0  0  0  0  0  0  0
-30070122.000014498922.0000-18489974.0000 C   0  0  0  0  0  0  0  0  0  0  0  0
-30070120.000014498924.0000-18489974.0000 O   0  0  0  0  0  0  0  0  0  0  0  0
-30070120.000014498922.0000-18489978.0000 N   0  0  0  0  0  0  0  0  0  0  0  0
-30070122.000014498920.0000-18489978.0000 C   0  0  0  0  0  0  0  0  0  0  0  0
-30070120.000014498922.0000-18489978.0000 C   0  0  0  0  0  0  0  0  0  0  0  0
-30070116.000014498923.0000-18489982.0000 S   0  0  0  0  0  0  0  0  0  0  0  0
-30070120.000014498918.0000-18489980.0000 C   0  0  0  0  0  0  0  0  0  0  0  0
-30070120.000014498918.0000-18489980.0000 O   0  0  0  0  0  0  0  0  0  0  0  0
-30070122.000014498919.0000-18489982.0000 O   0  0  0  0  0  0  0  0  0  0  0  0
  2  1  1  0
  3  2  2  0
  4  2  1  0
  5  4  1  0
  6  5  1  0
  6  7  1  1
  8  9  2  0
  8  6  1  0
 10  8  1  0
 11 10  1  0
 11 12  1  6
 13 12  1  0
 14 13  2  0
 15 16  1  0
 15 14  1  0
 16 21  2  0
 17 16  1  0
 17 18  2  0
 18 19  1  0
 19 20  2  0
 21 13  1  0
 21 20  1  0
 22 11  1  0
 23 22  2  0
 24 22  1  0
 25 28  1  0
 25 24  1  0
 25 26  1  1
 27 26  1  0
 28 30  1  0
 29 28  2  0
M  END
$$$$
