QWC.pdb
     RDKit          3D

 30 31  0  0  1  0  0  0  0  0999 V2000
   26.5800  -16.8586  -14.5164 N   0  0  0  0  0  0  0  0  0  0  0  0
   27.0261  -18.1595  -14.9554 C   0  0  0  0  0  0  0  0  0  0  0  0
   26.2361  -18.7984  -15.6819 O   0  0  0  0  0  0  0  0  0  0  0  0
   28.3336  -18.6811  -14.5562 C   0  0  0  0  0  0  0  0  0  0  0  0
   28.6354  -18.6553  -13.1115 C   0  0  0  0  0  0  0  0  0  0  0  0
   28.8038  -19.9385  -12.3963 C   0  0  2  0  0  0  0  0  0  0  0  0
   29.6687  -20.8674  -13.1454 N   0  0  0  0  0  0  0  0  0  0  0  0
   27.6245  -20.5799  -11.8111 C   0  0  0  0  0  0  0  0  0  0  0  0
   27.3406  -21.7946  -12.1260 O   0  0  0  0  0  0  0  0  0  0  0  0
   26.7478  -19.9510  -10.9032 N   0  0  0  0  0  0  0  0  0  0  0  0
   25.5987  -20.6910  -10.3381 C   0  0  1  0  0  0  0  0  0  0  0  0
   25.1686  -20.0362   -9.0725 C   0  0  0  0  0  0  0  0  0  0  0  0
   26.2267  -19.6127   -8.1517 C   0  0  0  0  0  0  0  0  0  0  0  0
   26.9383  -18.4218   -8.1091 C   0  0  0  0  0  0  0  0  0  0  0  0
   27.8435  -18.4691   -7.1154 N   0  0  0  0  0  0  0  0  0  0  0  0
   27.7681  -19.6514   -6.4848 C   0  0  0  0  0  0  0  0  0  0  0  0
   28.4728  -20.1713   -5.4205 C   0  0  0  0  0  0  0  0  0  0  0  0
   28.1372  -21.4513   -5.0085 C   0  0  0  0  0  0  0  0  0  0  0  0
   27.1497  -22.1948   -5.6145 C   0  0  0  0  0  0  0  0  0  0  0  0
   26.4808  -21.6365   -6.6635 C   0  0  0  0  0  0  0  0  0  0  0  0
   26.7742  -20.3716   -7.1115 C   0  0  0  0  0  0  0  0  0  0  0  0
   24.5596  -20.8253  -11.3692 C   0  0  0  0  0  0  0  0  0  0  0  0
   24.1789  -19.8178  -12.0550 O   0  0  0  0  0  0  0  0  0  0  0  0
   23.9264  -22.0309  -11.6825 N   0  0  0  0  0  0  0  0  0  0  0  0
   22.9699  -22.1472  -12.7691 C   0  0  1  0  0  0  0  0  0  0  0  0
   23.1821  -23.4264  -13.5626 C   0  0  0  0  0  0  0  0  0  0  0  0
   24.4889  -24.3429  -12.6829 S   0  0  0  0  0  0  0  0  0  0  0  0
   21.6114  -22.1900  -12.2438 C   0  0  0  0  0  0  0  0  0  0  0  0
   21.4426  -22.1812  -10.9773 O   0  0  0  0  0  0  0  0  0  0  0  0
   20.5239  -22.2371  -13.0796 O   0  0  0  0  0  0  0  0  0  0  0  0
  2  1  1  0
  3  2  2  0
  4  2  1  0
  5  4  1  0
  6  5  1  0
  6  7  1  6
  8  9  2  0
  8  6  1  0
 10  8  1  0
 11 10  1  0
 11 12  1  1
 13 12  1  0
 14 13  2  0
 15 16  1  0
 15 14  1  0
 16 21  2  0
 17 16  1  0
 17 18  2  0
 18 19  1  0
 19 20  2  0
 21 13  1  0
 21 20  1  0
 22 11  1  0
 23 22  2  0
 24 22  1  0
 25 28  1  0
 25 24  1  0
 25 26  1  1
 27 26  1  0
 28 30  1  0
 29 28  2  0
M  END
$$$$
