QWC.pdb
     RDKit          3D

 30 31  0  0  1  0  0  0  0  0999 V2000
   24.3920  -22.5646  -18.5061 N   0  0  0  0  0  0  0  0  0  0  0  0
   25.5648  -21.7436  -18.6923 C   0  0  0  0  0  0  0  0  0  0  0  0
   25.9542  -21.5955  -19.8698 O   0  0  0  0  0  0  0  0  0  0  0  0
   26.2444  -21.1319  -17.5500 C   0  0  0  0  0  0  0  0  0  0  0  0
   25.6259  -21.3485  -16.2274 C   0  0  0  0  0  0  0  0  0  0  0  0
   26.4121  -22.0300  -15.1767 C   0  0  2  0  0  0  0  0  0  0  0  0
   26.9815  -23.2994  -15.6629 N   0  0  0  0  0  0  0  0  0  0  0  0
   25.8561  -22.1177  -13.8248 C   0  0  0  0  0  0  0  0  0  0  0  0
   25.3902  -23.2397  -13.4016 O   0  0  0  0  0  0  0  0  0  0  0  0
   25.7872  -21.0354  -12.9235 N   0  0  0  0  0  0  0  0  0  0  0  0
   25.0373  -21.1643  -11.6553 C   0  0  1  0  0  0  0  0  0  0  0  0
   25.6732  -20.3042  -10.6203 C   0  0  0  0  0  0  0  0  0  0  0  0
   27.0140  -20.6880  -10.1709 C   0  0  0  0  0  0  0  0  0  0  0  0
   27.9759  -21.4561  -10.8119 C   0  0  0  0  0  0  0  0  0  0  0  0
   29.0553  -21.5856  -10.0199 N   0  0  0  0  0  0  0  0  0  0  0  0
   28.8557  -20.9312   -8.8653 C   0  0  0  0  0  0  0  0  0  0  0  0
   29.6515  -20.7699   -7.7516 C   0  0  0  0  0  0  0  0  0  0  0  0
   29.1315  -20.0178   -6.7100 C   0  0  0  0  0  0  0  0  0  0  0  0
   27.8804  -19.4451   -6.7560 C   0  0  0  0  0  0  0  0  0  0  0  0
   27.1312  -19.6334   -7.8798 C   0  0  0  0  0  0  0  0  0  0  0  0
   27.5993  -20.3701   -8.9404 C   0  0  0  0  0  0  0  0  0  0  0  0
   23.6132  -20.9042  -11.9105 C   0  0  0  0  0  0  0  0  0  0  0  0
   23.2467  -20.0043  -12.7389 O   0  0  0  0  0  0  0  0  0  0  0  0
   22.5724  -21.6037  -11.2941 N   0  0  0  0  0  0  0  0  0  0  0  0
   21.1759  -21.3496  -11.6013 C   0  0  1  0  0  0  0  0  0  0  0  0
   20.2566  -22.2684  -10.8128 C   0  0  0  0  0  0  0  0  0  0  0  0
   18.5659  -21.8650  -11.3611 S   0  0  0  0  0  0  0  0  0  0  0  0
   20.8212  -19.9817  -11.2460 C   0  0  0  0  0  0  0  0  0  0  0  0
   21.2402  -19.5078  -10.1358 O   0  0  0  0  0  0  0  0  0  0  0  0
   20.0545  -19.2041  -12.0771 O   0  0  0  0  0  0  0  0  0  0  0  0
  2  1  1  0
  3  2  2  0
  4  2  1  0
  5  4  1  0
  6  5  1  0
  6  7  1  6
  8  9  2  0
  8  6  1  0
 10  8  1  0
 11 10  1  0
 11 12  1  1
 13 12  1  0
 14 13  2  0
 15 16  1  0
 15 14  1  0
 16 21  2  0
 17 16  1  0
 17 18  2  0
 18 19  1  0
 19 20  2  0
 21 13  1  0
 21 20  1  0
 22 11  1  0
 23 22  2  0
 24 22  1  0
 25 28  1  0
 25 24  1  0
 25 26  1  1
 27 26  1  0
 28 30  1  0
 29 28  2  0
M  END
$$$$
