QWC.pdb
     RDKit          3D

 30 31  0  0  1  0  0  0  0  0999 V2000
   32.0758  -26.0173  -15.2090 N   0  0  0  0  0  0  0  0  0  0  0  0
   32.0707  -26.0378  -16.6525 C   0  0  0  0  0  0  0  0  0  0  0  0
   32.5875  -27.0385  -17.1927 O   0  0  0  0  0  0  0  0  0  0  0  0
   31.4897  -24.9351  -17.4189 C   0  0  0  0  0  0  0  0  0  0  0  0
   30.9542  -23.8043  -16.6358 C   0  0  0  0  0  0  0  0  0  0  0  0
   29.5082  -23.5054  -16.7141 C   0  0  2  0  0  0  0  0  0  0  0  0
   29.0261  -23.5202  -18.1066 N   0  0  0  0  0  0  0  0  0  0  0  0
   28.9732  -22.3965  -15.9212 C   0  0  0  0  0  0  0  0  0  0  0  0
   29.4109  -22.2005  -14.7274 O   0  0  0  0  0  0  0  0  0  0  0  0
   27.9842  -21.5004  -16.3766 N   0  0  0  0  0  0  0  0  0  0  0  0
   27.5899  -20.3385  -15.5508 C   0  0  1  0  0  0  0  0  0  0  0  0
   27.0719  -19.2606  -16.4369 C   0  0  0  0  0  0  0  0  0  0  0  0
   26.5056  -18.0783  -15.7823 C   0  0  0  0  0  0  0  0  0  0  0  0
   27.0619  -17.2490  -14.8184 C   0  0  0  0  0  0  0  0  0  0  0  0
   26.1766  -16.2974  -14.4725 N   0  0  0  0  0  0  0  0  0  0  0  0
   25.0407  -16.4552  -15.1697 C   0  0  0  0  0  0  0  0  0  0  0  0
   23.8587  -15.7463  -15.1726 C   0  0  0  0  0  0  0  0  0  0  0  0
   22.8638  -16.1850  -16.0319 C   0  0  0  0  0  0  0  0  0  0  0  0
   23.0190  -17.2758  -16.8573 C   0  0  0  0  0  0  0  0  0  0  0  0
   24.2069  -17.9443  -16.8180 C   0  0  0  0  0  0  0  0  0  0  0  0
   25.2255  -17.5511  -15.9846 C   0  0  0  0  0  0  0  0  0  0  0  0
   26.6721  -20.7889  -14.4946 C   0  0  0  0  0  0  0  0  0  0  0  0
   25.7692  -21.6593  -14.7344 O   0  0  0  0  0  0  0  0  0  0  0  0
   26.7141  -20.3238  -13.1776 N   0  0  0  0  0  0  0  0  0  0  0  0
   25.7773  -20.7746  -12.1636 C   0  0  1  0  0  0  0  0  0  0  0  0
   26.1379  -20.2295  -10.7910 C   0  0  0  0  0  0  0  0  0  0  0  0
   24.9089  -20.9305   -9.6422 S   0  0  0  0  0  0  0  0  0  0  0  0
   24.4336  -20.3029  -12.4718 C   0  0  0  0  0  0  0  0  0  0  0  0
   23.4399  -21.0568  -12.1943 O   0  0  0  0  0  0  0  0  0  0  0  0
   24.2223  -19.0750  -13.0470 O   0  0  0  0  0  0  0  0  0  0  0  0
  2  1  1  0
  3  2  2  0
  4  2  1  0
  5  4  1  0
  6  5  1  0
  6  7  1  6
  8  9  2  0
  8  6  1  0
 10  8  1  0
 11 10  1  0
 11 12  1  6
 13 12  1  0
 14 13  2  0
 15 16  1  0
 15 14  1  0
 16 21  2  0
 17 16  1  0
 17 18  2  0
 18 19  1  0
 19 20  2  0
 21 13  1  0
 21 20  1  0
 22 11  1  0
 23 22  2  0
 24 22  1  0
 25 28  1  0
 25 24  1  0
 25 26  1  1
 27 26  1  0
 28 30  1  0
 29 28  2  0
M  END
$$$$
