QWC.pdb
     RDKit          3D

 30 31  0  0  1  0  0  0  0  0999 V2000
   26.5611  -26.6151  -16.0950 N   0  0  0  0  0  0  0  0  0  0  0  0
   27.5658  -25.8167  -16.7561 C   0  0  0  0  0  0  0  0  0  0  0  0
   28.2460  -26.3964  -17.6288 O   0  0  0  0  0  0  0  0  0  0  0  0
   27.7606  -24.4098  -16.4046 C   0  0  0  0  0  0  0  0  0  0  0  0
   26.8402  -23.8542  -15.3932 C   0  0  0  0  0  0  0  0  0  0  0  0
   25.5144  -23.3655  -15.8291 C   0  0  2  0  0  0  0  0  0  0  0  0
   25.6340  -22.3277  -16.8686 N   0  0  0  0  0  0  0  0  0  0  0  0
   24.5053  -23.0619  -14.8122 C   0  0  0  0  0  0  0  0  0  0  0  0
   24.2838  -23.9049  -13.8661 O   0  0  0  0  0  0  0  0  0  0  0  0
   23.7323  -21.8828  -14.7891 N   0  0  0  0  0  0  0  0  0  0  0  0
   22.7047  -21.6822  -13.7444 C   0  0  1  0  0  0  0  0  0  0  0  0
   22.6367  -20.2370  -13.3948 C   0  0  0  0  0  0  0  0  0  0  0  0
   21.6809  -19.8505  -12.3536 C   0  0  0  0  0  0  0  0  0  0  0  0
   21.5787  -20.2870  -11.0401 C   0  0  0  0  0  0  0  0  0  0  0  0
   20.5303  -19.6916  -10.4441 N   0  0  0  0  0  0  0  0  0  0  0  0
   19.9202  -18.8673  -11.3100 C   0  0  0  0  0  0  0  0  0  0  0  0
   18.8199  -18.0478  -11.1783 C   0  0  0  0  0  0  0  0  0  0  0  0
   18.4457  -17.3128  -12.2921 C   0  0  0  0  0  0  0  0  0  0  0  0
   19.1222  -17.3768  -13.4894 C   0  0  0  0  0  0  0  0  0  0  0  0
   20.2046  -18.2023  -13.5697 C   0  0  0  0  0  0  0  0  0  0  0  0
   20.6175  -18.9524  -12.4957 C   0  0  0  0  0  0  0  0  0  0  0  0
   21.4418  -22.2884  -14.1900 C   0  0  0  0  0  0  0  0  0  0  0  0
   21.0515  -22.1812  -15.4009 O   0  0  0  0  0  0  0  0  0  0  0  0
   20.5921  -23.0179  -13.3542 N   0  0  0  0  0  0  0  0  0  0  0  0
   19.3320  -23.5709  -13.8182 C   0  0  1  0  0  0  0  0  0  0  0  0
   18.9573  -24.8260  -13.0466 C   0  0  0  0  0  0  0  0  0  0  0  0
   20.2466  -26.0523  -13.4413 S   0  0  0  0  0  0  0  0  0  0  0  0
   18.2550  -22.6096  -13.6203 C   0  0  0  0  0  0  0  0  0  0  0  0
   18.2803  -21.8648  -12.5823 O   0  0  0  0  0  0  0  0  0  0  0  0
   17.2275  -22.4928  -14.5225 O   0  0  0  0  0  0  0  0  0  0  0  0
  2  1  1  0
  3  2  2  0
  4  2  1  0
  5  4  1  0
  6  5  1  0
  6  7  1  1
  8  9  2  0
  8  6  1  0
 10  8  1  0
 11 10  1  0
 11 12  1  6
 13 12  1  0
 14 13  2  0
 15 16  1  0
 15 14  1  0
 16 21  2  0
 17 16  1  0
 17 18  2  0
 18 19  1  0
 19 20  2  0
 21 13  1  0
 21 20  1  0
 22 11  1  0
 23 22  2  0
 24 22  1  0
 25 28  1  0
 25 24  1  0
 25 26  1  1
 27 26  1  0
 28 30  1  0
 29 28  2  0
M  END
$$$$
