QWC.pdb
     RDKit          3D

 30 31  0  0  1  0  0  0  0  0999 V2000
   25.2971  -17.1321  -13.9714 N   0  0  0  0  0  0  0  0  0  0  0  0
   25.6542  -16.8838  -15.3480 C   0  0  0  0  0  0  0  0  0  0  0  0
   24.7243  -16.5352  -16.1057 O   0  0  0  0  0  0  0  0  0  0  0  0
   27.0343  -17.0410  -15.8077 C   0  0  0  0  0  0  0  0  0  0  0  0
   28.0162  -17.4758  -14.7949 C   0  0  0  0  0  0  0  0  0  0  0  0
   28.5347  -18.8593  -14.8539 C   0  0  2  0  0  0  0  0  0  0  0  0
   29.1165  -19.1646  -16.1730 N   0  0  0  0  0  0  0  0  0  0  0  0
   27.7141  -19.9440  -14.3109 C   0  0  0  0  0  0  0  0  0  0  0  0
   27.0515  -20.7011  -15.1127 O   0  0  0  0  0  0  0  0  0  0  0  0
   27.5877  -20.2313  -12.9362 N   0  0  0  0  0  0  0  0  0  0  0  0
   26.7331  -21.3493  -12.4810 C   0  0  1  0  0  0  0  0  0  0  0  0
   27.1990  -21.8096  -11.1444 C   0  0  0  0  0  0  0  0  0  0  0  0
   26.6551  -21.1126   -9.9759 C   0  0  0  0  0  0  0  0  0  0  0  0
   25.4667  -20.4086   -9.8393 C   0  0  0  0  0  0  0  0  0  0  0  0
   25.3805  -19.9001   -8.5972 N   0  0  0  0  0  0  0  0  0  0  0  0
   26.4700  -20.2364   -7.8893 C   0  0  0  0  0  0  0  0  0  0  0  0
   26.8436  -19.9602   -6.5917 C   0  0  0  0  0  0  0  0  0  0  0  0
   28.0595  -20.4701   -6.1647 C   0  0  0  0  0  0  0  0  0  0  0  0
   28.8790  -21.2219   -6.9761 C   0  0  0  0  0  0  0  0  0  0  0  0
   28.4653  -21.4680   -8.2520 C   0  0  0  0  0  0  0  0  0  0  0  0
   27.2692  -20.9860   -8.7251 C   0  0  0  0  0  0  0  0  0  0  0  0
   25.3238  -20.9382  -12.5559 C   0  0  0  0  0  0  0  0  0  0  0  0
   24.9878  -19.7132  -12.4268 O   0  0  0  0  0  0  0  0  0  0  0  0
   24.2661  -21.8243  -12.7767 N   0  0  0  0  0  0  0  0  0  0  0  0
   22.9732  -21.3841  -13.2702 C   0  0  1  0  0  0  0  0  0  0  0  0
   22.2513  -22.4984  -14.0106 C   0  0  0  0  0  0  0  0  0  0  0  0
   20.5937  -21.8446  -14.3935 S   0  0  0  0  0  0  0  0  0  0  0  0
   22.1181  -20.9842  -12.1601 C   0  0  0  0  0  0  0  0  0  0  0  0
   22.0084  -21.7679  -11.1568 O   0  0  0  0  0  0  0  0  0  0  0  0
   21.4388  -19.7919  -12.1756 O   0  0  0  0  0  0  0  0  0  0  0  0
  2  1  1  0
  3  2  2  0
  4  2  1  0
  5  4  1  0
  6  5  1  0
  6  7  1  6
  8  9  2  0
  8  6  1  0
 10  8  1  0
 11 10  1  0
 11 12  1  1
 13 12  1  0
 14 13  2  0
 15 16  1  0
 15 14  1  0
 16 21  2  0
 17 16  1  0
 17 18  2  0
 18 19  1  0
 19 20  2  0
 21 13  1  0
 21 20  1  0
 22 11  1  0
 23 22  2  0
 24 22  1  0
 25 28  1  0
 25 24  1  0
 25 26  1  1
 27 26  1  0
 28 30  1  0
 29 28  2  0
M  END
$$$$
