QWC.pdb
     RDKit          3D

 30 31  0  0  1  0  0  0  0  0999 V2000
   29.5038  -18.3187  -15.5383 N   0  0  0  0  0  0  0  0  0  0  0  0
   29.5087  -19.2105  -16.6736 C   0  0  0  0  0  0  0  0  0  0  0  0
   30.1020  -18.8023  -17.6942 O   0  0  0  0  0  0  0  0  0  0  0  0
   28.8462  -20.5136  -16.6100 C   0  0  0  0  0  0  0  0  0  0  0  0
   28.2231  -20.8690  -15.3200 C   0  0  0  0  0  0  0  0  0  0  0  0
   26.7566  -20.7430  -15.1790 C   0  0  2  0  0  0  0  0  0  0  0  0
   26.2797  -19.4237  -15.6309 N   0  0  0  0  0  0  0  0  0  0  0  0
   26.1252  -21.2004  -13.9394 C   0  0  0  0  0  0  0  0  0  0  0  0
   26.3301  -22.4022  -13.5286 O   0  0  0  0  0  0  0  0  0  0  0  0
   25.2829  -20.4033  -13.1371 N   0  0  0  0  0  0  0  0  0  0  0  0
   24.6685  -20.9611  -11.9128 C   0  0  1  0  0  0  0  0  0  0  0  0
   25.2202  -20.2572  -10.7231 C   0  0  0  0  0  0  0  0  0  0  0  0
   26.5778  -20.6200  -10.3079 C   0  0  0  0  0  0  0  0  0  0  0  0
   27.5601  -21.3123  -11.0021 C   0  0  0  0  0  0  0  0  0  0  0  0
   28.6507  -21.4519  -10.2274 N   0  0  0  0  0  0  0  0  0  0  0  0
   28.4390  -20.8774   -9.0331 C   0  0  0  0  0  0  0  0  0  0  0  0
   29.2389  -20.7569   -7.9172 C   0  0  0  0  0  0  0  0  0  0  0  0
   28.7025  -20.0894   -6.8273 C   0  0  0  0  0  0  0  0  0  0  0  0
   27.4317  -19.5600   -6.8289 C   0  0  0  0  0  0  0  0  0  0  0  0
   26.6792  -19.7052   -7.9567 C   0  0  0  0  0  0  0  0  0  0  0  0
   27.1630  -20.3579   -9.0643 C   0  0  0  0  0  0  0  0  0  0  0  0
   23.2054  -20.9257  -12.0504 C   0  0  0  0  0  0  0  0  0  0  0  0
   22.5471  -19.8591  -11.8071 O   0  0  0  0  0  0  0  0  0  0  0  0
   22.4358  -22.0197  -12.4550 N   0  0  0  0  0  0  0  0  0  0  0  0
   21.0572  -22.1982  -12.0349 C   0  0  1  0  0  0  0  0  0  0  0  0
   20.9193  -22.1051  -10.5239 C   0  0  0  0  0  0  0  0  0  0  0  0
   19.1818  -22.5176  -10.1596 S   0  0  0  0  0  0  0  0  0  0  0  0
   20.2157  -21.1548  -12.6064 C   0  0  0  0  0  0  0  0  0  0  0  0
   20.7065  -19.9847  -12.7573 O   0  0  0  0  0  0  0  0  0  0  0  0
   18.9202  -21.4080  -12.9819 O   0  0  0  0  0  0  0  0  0  0  0  0
  2  1  1  0
  3  2  2  0
  4  2  1  0
  5  4  1  0
  6  5  1  0
  6  7  1  1
  8  9  2  0
  8  6  1  0
 10  8  1  0
 11 10  1  0
 11 12  1  1
 13 12  1  0
 14 13  2  0
 15 16  1  0
 15 14  1  0
 16 21  2  0
 17 16  1  0
 17 18  2  0
 18 19  1  0
 19 20  2  0
 21 13  1  0
 21 20  1  0
 22 11  1  0
 23 22  2  0
 24 22  1  0
 25 28  1  0
 25 24  1  0
 25 26  1  1
 27 26  1  0
 28 30  1  0
 29 28  2  0
M  END
$$$$
