ERQ.pdb
     RDKit          3D

 30 29  0  0  1  0  0  0  0  0999 V2000
   22.3725  -27.4185  -15.0975 N   0  0  0  0  0  0  0  0  0  0  0  0
   21.2219  -26.5511  -15.2302 C   0  0  1  0  0  0  0  0  0  0  0  0
   19.9688  -27.3185  -15.4762 C   0  0  0  0  0  0  0  0  0  0  0  0
   19.5686  -28.2168  -14.3342 C   0  0  0  0  0  0  0  0  0  0  0  0
   18.3854  -27.7856  -13.5900 C   0  0  0  0  0  0  0  0  0  0  0  0
   18.3609  -27.5033  -12.3511 O   0  0  0  0  0  0  0  0  0  0  0  0
   21.0844  -25.6600  -14.0129 C   0  0  0  0  0  0  0  0  0  0  0  0
   21.6315  -26.0012  -12.9523 O   0  0  0  0  0  0  0  0  0  0  0  0
   17.1638  -27.6662  -14.2786 O   0  0  0  0  0  0  0  0  0  0  0  0
   20.1487  -17.1477  -14.6655 N   0  0  0  0  0  0  0  0  0  0  0  0
   21.0164  -18.2274  -14.9388 C   0  0  0  0  0  0  0  0  0  0  0  0
   21.9012  -18.1863  -15.8504 N   0  0  0  0  0  0  0  0  0  0  0  0
   20.9152  -19.4279  -14.1751 N   0  0  0  0  0  0  0  0  0  0  0  0
   20.0339  -19.5868  -13.0660 C   0  0  0  0  0  0  0  0  0  0  0  0
   20.0650  -20.9942  -12.5016 C   0  0  0  0  0  0  0  0  0  0  0  0
   20.1726  -22.0365  -13.5449 C   0  0  0  0  0  0  0  0  0  0  0  0
   20.1731  -23.4668  -13.0670 C   0  0  2  0  0  0  0  0  0  0  0  0
   20.3432  -24.4590  -14.0892 N   0  0  0  0  0  0  0  0  0  0  0  0
   18.9328  -23.7130  -12.3164 C   0  0  0  0  0  0  0  0  0  0  0  0
   17.8160  -23.9511  -12.8731 O   0  0  0  0  0  0  0  0  0  0  0  0
   22.5396  -18.9712  -16.1022 N   0  0  0  0  0  0  0  0  0  0  0  0
   18.7372  -25.0664   -6.1823 C   0  0  0  0  0  0  0  0  0  0  0  0
   17.3521  -24.9490   -6.4374 O   0  0  0  0  0  0  0  0  0  0  0  0
   16.5324  -25.1590   -5.5404 C   0  0  0  0  0  0  0  0  0  0  0  0
   16.9568  -24.5616   -7.8338 C   0  0  0  0  0  0  0  0  0  0  0  0
   18.1708  -24.3299   -8.6868 C   0  0  1  0  0  0  0  0  0  0  0  0
   17.7745  -23.9840  -10.0775 N   0  0  0  0  0  0  0  0  0  0  0  0
   18.9384  -23.6933  -10.9095 C   0  0  0  0  0  0  0  0  0  0  0  0
   16.9203  -22.7836  -10.0880 O   0  0  0  0  0  0  0  0  0  0  0  0
   17.3454  -21.5933  -10.0914 O   0  0  0  0  0  0  0  0  0  0  0  0
  2  1  1  1
  3  2  1  0
  3  4  1  0
  5  4  1  0
  5  9  1  0
  6  5  2  0
  7  2  1  0
  7  8  2  0
 10 11  1  0
 11 12  2  0
 13 11  1  0
 13 14  1  0
 14 15  1  0
 16 15  1  0
 17 16  1  6
 17 18  1  0
 18  7  1  0
 19 20  2  0
 19 17  1  0
 22 21  1  0
 22 23  2  0
 24 22  1  0
 25 24  1  0
 26 25  1  6
 26 27  1  0
 27 19  1  0
 28 26  1  0
 29 28  2  0
 30 28  1  0
M  END
$$$$
