ERQ.pdb
     RDKit          3D

 30 29  0  0  1  0  0  0  0  0999 V2000
   22.5834  -15.6135  -19.6952 N   0  0  0  0  0  0  0  0  0  0  0  0
   22.2771  -15.6496  -18.2814 C   0  0  1  0  0  0  0  0  0  0  0  0
   21.1186  -14.7780  -17.9380 C   0  0  0  0  0  0  0  0  0  0  0  0
   21.4945  -13.3468  -17.6524 C   0  0  0  0  0  0  0  0  0  0  0  0
   21.5920  -13.0013  -16.2343 C   0  0  0  0  0  0  0  0  0  0  0  0
   20.9676  -13.5839  -15.2930 O   0  0  0  0  0  0  0  0  0  0  0  0
   22.0408  -17.0744  -17.8246 C   0  0  0  0  0  0  0  0  0  0  0  0
   21.3157  -17.8136  -18.5092 O   0  0  0  0  0  0  0  0  0  0  0  0
   22.4383  -11.9423  -15.8563 O   0  0  0  0  0  0  0  0  0  0  0  0
   24.6983  -23.6735  -15.7882 N   0  0  0  0  0  0  0  0  0  0  0  0
   24.6975  -23.7433  -14.3781 C   0  0  0  0  0  0  0  0  0  0  0  0
   24.6183  -24.8413  -13.7428 N   0  0  0  0  0  0  0  0  0  0  0  0
   24.7862  -22.5446  -13.6098 N   0  0  0  0  0  0  0  0  0  0  0  0
   24.9180  -21.2464  -14.1836 C   0  0  0  0  0  0  0  0  0  0  0  0
   23.6183  -20.7470  -14.7849 C   0  0  0  0  0  0  0  0  0  0  0  0
   23.7287  -19.3906  -15.3634 C   0  0  0  0  0  0  0  0  0  0  0  0
   22.4952  -18.8468  -16.0393 C   0  0  2  0  0  0  0  0  0  0  0  0
   22.6393  -17.5500  -16.6359 N   0  0  0  0  0  0  0  0  0  0  0  0
   21.3895  -18.8442  -15.0700 C   0  0  0  0  0  0  0  0  0  0  0  0
   21.4197  -18.1942  -13.9789 O   0  0  0  0  0  0  0  0  0  0  0  0
   24.4928  -24.9297  -12.7115 N   0  0  0  0  0  0  0  0  0  0  0  0
   15.5672  -18.2749  -16.2710 C   0  0  0  0  0  0  0  0  0  0  0  0
   15.4009  -18.7408  -14.9471 O   0  0  0  0  0  0  0  0  0  0  0  0
   14.2821  -18.7623  -14.4290 C   0  0  0  0  0  0  0  0  0  0  0  0
   16.6423  -19.1959  -14.2343 C   0  0  0  0  0  0  0  0  0  0  0  0
   17.8380  -19.1112  -15.1389 C   0  0  1  0  0  0  0  0  0  0  0  0
   19.0547  -19.6106  -14.4455 N   0  0  0  0  0  0  0  0  0  0  0  0
   20.2205  -19.5849  -15.3241 C   0  0  0  0  0  0  0  0  0  0  0  0
   18.8664  -21.0059  -14.0118 O   0  0  0  0  0  0  0  0  0  0  0  0
   19.1243  -22.0235  -14.7159 O   0  0  0  0  0  0  0  0  0  0  0  0
  2  1  1  6
  3  2  1  0
  3  4  1  0
  5  4  1  0
  5  9  1  0
  6  5  2  0
  7  2  1  0
  7  8  2  0
 10 11  1  0
 11 12  2  0
 13 11  1  0
 13 14  1  0
 14 15  1  0
 16 15  1  0
 17 16  1  1
 17 18  1  0
 18  7  1  0
 19 20  2  0
 19 17  1  0
 22 21  1  0
 22 23  2  0
 24 22  1  0
 25 24  1  0
 26 25  1  1
 26 27  1  0
 27 19  1  0
 28 26  1  0
 29 28  2  0
 30 28  1  0
M  END
$$$$
