ERQ.pdb
     RDKit          3D

 30 29  0  0  1  0  0  0  0  0999 V2000
   23.1516  -20.7719  -15.6233 N   0  0  0  0  0  0  0  0  0  0  0  0
   22.6473  -19.4194  -15.5223 C   0  0  1  0  0  0  0  0  0  0  0  0
   21.6234  -19.2833  -14.4486 C   0  0  0  0  0  0  0  0  0  0  0  0
   20.6659  -20.4443  -14.3669 C   0  0  0  0  0  0  0  0  0  0  0  0
   19.6285  -20.3229  -13.3428 C   0  0  0  0  0  0  0  0  0  0  0  0
   19.6143  -20.9472  -12.2358 O   0  0  0  0  0  0  0  0  0  0  0  0
   23.7855  -18.4412  -15.3163 C   0  0  0  0  0  0  0  0  0  0  0  0
   23.5301  -17.2295  -15.2323 O   0  0  0  0  0  0  0  0  0  0  0  0
   18.5488  -19.4516  -13.5786 O   0  0  0  0  0  0  0  0  0  0  0  0
   25.5880  -20.7503  -10.2574 N   0  0  0  0  0  0  0  0  0  0  0  0
   25.1063  -21.2595  -11.4829 C   0  0  0  0  0  0  0  0  0  0  0  0
   23.9421  -21.7527  -11.6139 N   0  0  0  0  0  0  0  0  0  0  0  0
   25.9424  -21.2332  -12.6384 N   0  0  0  0  0  0  0  0  0  0  0  0
   27.2180  -20.5978  -12.6761 C   0  0  0  0  0  0  0  0  0  0  0  0
   27.1123  -19.1072  -12.9353 C   0  0  0  0  0  0  0  0  0  0  0  0
   27.4338  -18.7355  -14.3300 C   0  0  0  0  0  0  0  0  0  0  0  0
   26.3157  -18.1237  -15.1362 C   0  0  2  0  0  0  0  0  0  0  0  0
   25.1166  -18.9068  -15.2218 N   0  0  0  0  0  0  0  0  0  0  0  0
   26.8209  -17.8126  -16.4816 C   0  0  0  0  0  0  0  0  0  0  0  0
   27.5411  -18.6109  -17.1583 O   0  0  0  0  0  0  0  0  0  0  0  0
   23.5981  -22.2624  -12.4559 N   0  0  0  0  0  0  0  0  0  0  0  0
   25.7505  -19.5225  -20.6219 C   0  0  0  0  0  0  0  0  0  0  0  0
   25.5741  -18.3591  -21.4046 O   0  0  0  0  0  0  0  0  0  0  0  0
   25.5368  -18.4343  -22.6349 C   0  0  0  0  0  0  0  0  0  0  0  0
   25.4382  -17.0621  -20.6590 C   0  0  0  0  0  0  0  0  0  0  0  0
   25.4815  -17.2928  -19.1758 C   0  0  2  0  0  0  0  0  0  0  0  0
   26.4489  -16.3662  -18.5305 N   0  0  0  0  0  0  0  0  0  0  0  0
   26.5147  -16.5803  -17.0878 C   0  0  0  0  0  0  0  0  0  0  0  0
   26.0452  -14.9657  -18.7454 O   0  0  0  0  0  0  0  0  0  0  0  0
   25.6988  -14.1643  -17.8314 O   0  0  0  0  0  0  0  0  0  0  0  0
  2  1  1  1
  3  2  1  0
  3  4  1  0
  5  4  1  0
  5  9  1  0
  6  5  2  0
  7  2  1  0
  7  8  2  0
 10 11  1  0
 11 12  2  0
 13 11  1  0
 13 14  1  0
 14 15  1  0
 16 15  1  0
 17 16  1  1
 17 18  1  0
 18  7  1  0
 19 20  2  0
 19 17  1  0
 22 21  1  0
 22 23  2  0
 24 22  1  0
 25 24  1  0
 26 25  1  6
 26 27  1  0
 27 19  1  0
 28 26  1  0
 29 28  2  0
 30 28  1  0
M  END
$$$$
