ERQ.pdb
     RDKit          3D

 30 29  0  0  1  0  0  0  0  0999 V2000
   25.8066  -24.9606  -15.4182 N   0  0  0  0  0  0  0  0  0  0  0  0
   25.3389  -23.6387  -15.7756 C   0  0  1  0  0  0  0  0  0  0  0  0
   24.8801  -23.5719  -17.1915 C   0  0  0  0  0  0  0  0  0  0  0  0
   23.7569  -24.5232  -17.5151 C   0  0  0  0  0  0  0  0  0  0  0  0
   23.3619  -24.5618  -18.9230 C   0  0  0  0  0  0  0  0  0  0  0  0
   22.6613  -25.4742  -19.4633 O   0  0  0  0  0  0  0  0  0  0  0  0
   24.2472  -23.1864  -14.8277 C   0  0  0  0  0  0  0  0  0  0  0  0
   24.0329  -23.8457  -13.7981 O   0  0  0  0  0  0  0  0  0  0  0  0
   23.7789  -23.5164  -19.7679 O   0  0  0  0  0  0  0  0  0  0  0  0
   18.7780  -17.0050  -15.5413 N   0  0  0  0  0  0  0  0  0  0  0  0
   18.8318  -16.7854  -14.1477 C   0  0  0  0  0  0  0  0  0  0  0  0
   17.8987  -16.2099  -13.5045 N   0  0  0  0  0  0  0  0  0  0  0  0
   19.9719  -17.2163  -13.4064 N   0  0  0  0  0  0  0  0  0  0  0  0
   21.1403  -17.7712  -14.0057 C   0  0  0  0  0  0  0  0  0  0  0  0
   21.3274  -19.2353  -13.6567 C   0  0  0  0  0  0  0  0  0  0  0  0
   22.3116  -19.9183  -14.5236 C   0  0  0  0  0  0  0  0  0  0  0  0
   22.5079  -21.3940  -14.2829 C   0  0  2  0  0  0  0  0  0  0  0  0
   23.4871  -22.0303  -15.1161 N   0  0  0  0  0  0  0  0  0  0  0  0
   21.2083  -22.0694  -14.4133 C   0  0  0  0  0  0  0  0  0  0  0  0
   20.5555  -22.1219  -15.5019 O   0  0  0  0  0  0  0  0  0  0  0  0
   17.9289  -15.9702  -12.4902 N   0  0  0  0  0  0  0  0  0  0  0  0
   19.7982  -22.8905   -9.8932 C   0  0  0  0  0  0  0  0  0  0  0  0
   18.7241  -23.7967  -10.0420 O   0  0  0  0  0  0  0  0  0  0  0  0
   18.5074  -24.6542   -9.1826 C   0  0  0  0  0  0  0  0  0  0  0  0
   17.8874  -23.6493  -11.2808 C   0  0  0  0  0  0  0  0  0  0  0  0
   18.4583  -22.5971  -12.1876 C   0  0  2  0  0  0  0  0  0  0  0  0
   19.2578  -23.2214  -13.2747 N   0  0  0  0  0  0  0  0  0  0  0  0
   20.6222  -22.7025  -13.3019 C   0  0  0  0  0  0  0  0  0  0  0  0
   18.6561  -22.9348  -14.5886 O   0  0  0  0  0  0  0  0  0  0  0  0
   18.5232  -21.7809  -15.0872 O   0  0  0  0  0  0  0  0  0  0  0  0
  2  1  1  1
  3  2  1  0
  3  4  1  0
  5  4  1  0
  5  9  1  0
  6  5  2  0
  7  2  1  0
  7  8  2  0
 10 11  1  0
 11 12  2  0
 13 11  1  0
 13 14  1  0
 14 15  1  0
 16 15  1  0
 17 16  1  6
 17 18  1  0
 18  7  1  0
 19 20  2  0
 19 17  1  0
 22 21  1  0
 22 23  2  0
 24 22  1  0
 25 24  1  0
 26 25  1  1
 26 27  1  0
 27 19  1  0
 28 26  1  0
 29 28  2  0
 30 28  1  0
M  END
$$$$
