ERQ.pdb
     RDKit          3D

 30 29  0  0  1  0  0  0  0  0999 V2000
   37.8023  -36.1494    1.6225 N   0  0  0  0  0  0  0  0  0  0  0  0
   36.6290  -36.7913    1.0702 C   0  0  1  0  0  0  0  0  0  0  0  0
   35.7165  -37.2982    2.1333 C   0  0  0  0  0  0  0  0  0  0  0  0
   35.5081  -38.7905    2.0988 C   0  0  0  0  0  0  0  0  0  0  0  0
   34.6362  -39.3202    3.1471 C   0  0  0  0  0  0  0  0  0  0  0  0
   33.4453  -38.9380    3.3729 O   0  0  0  0  0  0  0  0  0  0  0  0
   35.9013  -35.8518    0.1307 C   0  0  0  0  0  0  0  0  0  0  0  0
   35.9715  -34.6285    0.3291 O   0  0  0  0  0  0  0  0  0  0  0  0
   35.1328  -40.3349    3.9864 O   0  0  0  0  0  0  0  0  0  0  0  0
   30.6019  -35.5679   -6.8213 N   0  0  0  0  0  0  0  0  0  0  0  0
   31.3791  -34.4197   -6.5554 C   0  0  0  0  0  0  0  0  0  0  0  0
   30.9513  -33.2385   -6.7486 N   0  0  0  0  0  0  0  0  0  0  0  0
   32.7052  -34.5636   -6.0497 N   0  0  0  0  0  0  0  0  0  0  0  0
   33.0226  -35.2760   -4.8564 C   0  0  0  0  0  0  0  0  0  0  0  0
   34.5041  -35.2309   -4.5346 C   0  0  0  0  0  0  0  0  0  0  0  0
   34.8831  -36.1201   -3.4156 C   0  0  0  0  0  0  0  0  0  0  0  0
   34.5500  -35.6321   -2.0281 C   0  0  2  0  0  0  0  0  0  0  0  0
   35.1551  -36.3657   -0.9540 N   0  0  0  0  0  0  0  0  0  0  0  0
   33.0877  -35.6123   -1.8743 C   0  0  0  0  0  0  0  0  0  0  0  0
   32.3136  -34.9668   -2.6475 O   0  0  0  0  0  0  0  0  0  0  0  0
   31.4965  -32.3671   -6.5733 N   0  0  0  0  0  0  0  0  0  0  0  0
   28.8968  -33.3616   -2.4346 C   0  0  0  0  0  0  0  0  0  0  0  0
   28.1274  -34.2173   -1.6142 O   0  0  0  0  0  0  0  0  0  0  0  0
   26.9343  -33.9805   -1.4111 C   0  0  0  0  0  0  0  0  0  0  0  0
   28.8393  -35.4010   -1.0239 C   0  0  0  0  0  0  0  0  0  0  0  0
   30.2996  -35.3732   -1.3728 C   0  0  2  0  0  0  0  0  0  0  0  0
   31.0293  -36.4518   -0.6551 N   0  0  0  0  0  0  0  0  0  0  0  0
   32.4735  -36.3309   -0.8322 C   0  0  0  0  0  0  0  0  0  0  0  0
   30.6359  -37.7742   -1.1719 O   0  0  0  0  0  0  0  0  0  0  0  0
   30.0399  -38.6648   -0.5016 O   0  0  0  0  0  0  0  0  0  0  0  0
  2  1  1  1
  3  2  1  0
  3  4  1  0
  5  4  1  0
  5  9  1  0
  6  5  2  0
  7  2  1  0
  7  8  2  0
 10 11  1  0
 11 12  2  0
 13 11  1  0
 13 14  1  0
 14 15  1  0
 16 15  1  0
 17 16  1  6
 17 18  1  0
 18  7  1  0
 19 20  2  0
 19 17  1  0
 22 21  1  0
 22 23  2  0
 24 22  1  0
 25 24  1  0
 26 25  1  1
 26 27  1  0
 27 19  1  0
 28 26  1  0
 29 28  2  0
 30 28  1  0
M  END
$$$$
