ERQ.pdb
     RDKit          3D

 30 29  0  0  1  0  0  0  0  0999 V2000
   27.7752  -22.3913  -17.5887 N   0  0  0  0  0  0  0  0  0  0  0  0
   27.7656  -21.4581  -16.4829 C   0  0  1  0  0  0  0  0  0  0  0  0
   27.7831  -20.0422  -16.9460 C   0  0  0  0  0  0  0  0  0  0  0  0
   27.3999  -19.8682  -18.3932 C   0  0  0  0  0  0  0  0  0  0  0  0
   28.0628  -18.7612  -19.0824 C   0  0  0  0  0  0  0  0  0  0  0  0
   28.9828  -18.0362  -18.5893 O   0  0  0  0  0  0  0  0  0  0  0  0
   26.5803  -21.7197  -15.5765 C   0  0  0  0  0  0  0  0  0  0  0  0
   25.5875  -22.3048  -16.0377 O   0  0  0  0  0  0  0  0  0  0  0  0
   27.6677  -18.4544  -20.3978 O   0  0  0  0  0  0  0  0  0  0  0  0
   22.2754  -20.4167   -9.5615 N   0  0  0  0  0  0  0  0  0  0  0  0
   23.0064  -21.0120   -8.5106 C   0  0  0  0  0  0  0  0  0  0  0  0
   22.4492  -21.5854   -7.5225 N   0  0  0  0  0  0  0  0  0  0  0  0
   24.4324  -20.9805   -8.5333 N   0  0  0  0  0  0  0  0  0  0  0  0
   25.1920  -20.3257   -9.5463 C   0  0  0  0  0  0  0  0  0  0  0  0
   24.7454  -20.7130  -10.9431 C   0  0  0  0  0  0  0  0  0  0  0  0
   25.8705  -20.8762  -11.8887 C   0  0  0  0  0  0  0  0  0  0  0  0
   25.5060  -21.2001  -13.3158 C   0  0  2  0  0  0  0  0  0  0  0  0
   26.6097  -21.3018  -14.2267 N   0  0  0  0  0  0  0  0  0  0  0  0
   24.5388  -20.2007  -13.7932 C   0  0  0  0  0  0  0  0  0  0  0  0
   24.8263  -18.9742  -13.9567 O   0  0  0  0  0  0  0  0  0  0  0  0
   22.9478  -21.9568   -6.6855 N   0  0  0  0  0  0  0  0  0  0  0  0
   22.0796  -20.8579  -18.5223 C   0  0  0  0  0  0  0  0  0  0  0  0
   21.0710  -21.4271  -17.7123 O   0  0  0  0  0  0  0  0  0  0  0  0
   20.3578  -22.3336  -18.1485 C   0  0  0  0  0  0  0  0  0  0  0  0
   20.9305  -20.8705  -16.3241 C   0  0  0  0  0  0  0  0  0  0  0  0
   21.9812  -19.8312  -16.0575 C   0  0  1  0  0  0  0  0  0  0  0  0
   22.1939  -19.6657  -14.5953 N   0  0  0  0  0  0  0  0  0  0  0  0
   23.2179  -20.5790  -14.0963 C   0  0  0  0  0  0  0  0  0  0  0  0
   20.9529  -19.9565  -13.8564 O   0  0  0  0  0  0  0  0  0  0  0  0
   19.9200  -19.2280  -13.8621 O   0  0  0  0  0  0  0  0  0  0  0  0
  2  1  1  6
  3  2  1  0
  3  4  1  0
  5  4  1  0
  5  9  1  0
  6  5  2  0
  7  2  1  0
  7  8  2  0
 10 11  1  0
 11 12  2  0
 13 11  1  0
 13 14  1  0
 14 15  1  0
 16 15  1  0
 17 16  1  1
 17 18  1  0
 18  7  1  0
 19 20  2  0
 19 17  1  0
 22 21  1  0
 22 23  2  0
 24 22  1  0
 25 24  1  0
 26 25  1  6
 26 27  1  0
 27 19  1  0
 28 26  1  0
 29 28  2  0
 30 28  1  0
M  END
$$$$
