ERQ.pdb
     RDKit          3D

 30 29  0  0  1  0  0  0  0  0999 V2000
   27.8013  -20.2813  -17.4242 N   0  0  0  0  0  0  0  0  0  0  0  0
   27.9757  -19.4753  -16.2353 C   0  0  1  0  0  0  0  0  0  0  0  0
   27.1500  -18.2357  -16.2742 C   0  0  0  0  0  0  0  0  0  0  0  0
   25.7314  -18.4609  -16.7307 C   0  0  0  0  0  0  0  0  0  0  0  0
   25.2517  -17.5281  -17.7503 C   0  0  0  0  0  0  0  0  0  0  0  0
   24.1128  -17.5780  -18.3122 O   0  0  0  0  0  0  0  0  0  0  0  0
   27.6778  -20.2889  -14.9927 C   0  0  0  0  0  0  0  0  0  0  0  0
   26.7586  -21.1224  -15.0249 O   0  0  0  0  0  0  0  0  0  0  0  0
   26.1008  -16.4828  -18.1591 O   0  0  0  0  0  0  0  0  0  0  0  0
   32.0445  -24.0891  -12.7165 N   0  0  0  0  0  0  0  0  0  0  0  0
   33.1200  -23.4036  -12.1109 C   0  0  0  0  0  0  0  0  0  0  0  0
   34.2352  -23.9584  -11.8576 N   0  0  0  0  0  0  0  0  0  0  0  0
   32.9741  -22.0297  -11.7561 N   0  0  0  0  0  0  0  0  0  0  0  0
   31.7890  -21.4835  -11.1822 C   0  0  0  0  0  0  0  0  0  0  0  0
   30.6504  -21.3998  -12.1806 C   0  0  0  0  0  0  0  0  0  0  0  0
   29.4447  -20.7413  -11.6334 C   0  0  0  0  0  0  0  0  0  0  0  0
   28.2344  -20.7035  -12.5323 C   0  0  2  0  0  0  0  0  0  0  0  0
   28.4384  -20.0979  -13.8168 N   0  0  0  0  0  0  0  0  0  0  0  0
   27.1383  -20.0319  -11.8182 C   0  0  0  0  0  0  0  0  0  0  0  0
   26.8309  -18.8128  -12.0000 O   0  0  0  0  0  0  0  0  0  0  0  0
   35.0629  -23.4789  -11.4428 N   0  0  0  0  0  0  0  0  0  0  0  0
   22.7942  -21.9800  -14.0625 C   0  0  0  0  0  0  0  0  0  0  0  0
   22.3210  -20.7685  -13.5097 O   0  0  0  0  0  0  0  0  0  0  0  0
   21.3093  -20.2286  -13.9632 C   0  0  0  0  0  0  0  0  0  0  0  0
   23.1097  -20.1992  -12.3650 C   0  0  0  0  0  0  0  0  0  0  0  0
   24.2234  -21.1265  -11.9715 C   0  0  2  0  0  0  0  0  0  0  0  0
   24.9151  -20.6261  -10.7541 N   0  0  0  0  0  0  0  0  0  0  0  0
   26.3655  -20.7380  -10.8780 C   0  0  0  0  0  0  0  0  0  0  0  0
   24.5165  -21.4120   -9.5734 O   0  0  0  0  0  0  0  0  0  0  0  0
   25.2404  -22.2759   -9.0013 O   0  0  0  0  0  0  0  0  0  0  0  0
  2  1  1  6
  3  2  1  0
  3  4  1  0
  5  4  1  0
  5  9  1  0
  6  5  2  0
  7  2  1  0
  7  8  2  0
 10 11  1  0
 11 12  2  0
 13 11  1  0
 13 14  1  0
 14 15  1  0
 16 15  1  0
 17 16  1  1
 17 18  1  0
 18  7  1  0
 19 20  2  0
 19 17  1  0
 22 21  1  0
 22 23  2  0
 24 22  1  0
 25 24  1  0
 26 25  1  6
 26 27  1  0
 27 19  1  0
 28 26  1  0
 29 28  2  0
 30 28  1  0
M  END
$$$$
