ERQ.pdb
     RDKit          3D

 30 29  0  0  1  0  0  0  0  0999 V2000
   24.4140  -25.4109  -12.5318 N   0  0  0  0  0  0  0  0  0  0  0  0
   24.4031  -25.0981  -13.9446 C   0  0  1  0  0  0  0  0  0  0  0  0
   23.0191  -25.0373  -14.4930 C   0  0  0  0  0  0  0  0  0  0  0  0
   22.1998  -26.2728  -14.2217 C   0  0  0  0  0  0  0  0  0  0  0  0
   20.8209  -26.2226  -14.7074 C   0  0  0  0  0  0  0  0  0  0  0  0
   19.9864  -27.1792  -14.6456 O   0  0  0  0  0  0  0  0  0  0  0  0
   25.1507  -23.8075  -14.2094 C   0  0  0  0  0  0  0  0  0  0  0  0
   24.9977  -22.8527  -13.4311 O   0  0  0  0  0  0  0  0  0  0  0  0
   20.3572  -25.0306  -15.2947 O   0  0  0  0  0  0  0  0  0  0  0  0
   31.3720  -25.8277  -15.6871 N   0  0  0  0  0  0  0  0  0  0  0  0
   30.7232  -25.7618  -16.9393 C   0  0  0  0  0  0  0  0  0  0  0  0
   30.4979  -26.7891  -17.6532 N   0  0  0  0  0  0  0  0  0  0  0  0
   30.2940  -24.5005  -17.4490 N   0  0  0  0  0  0  0  0  0  0  0  0
   30.4039  -23.2773  -16.7254 C   0  0  0  0  0  0  0  0  0  0  0  0
   29.2021  -23.0237  -15.8356 C   0  0  0  0  0  0  0  0  0  0  0  0
   27.9532  -22.8007  -16.5952 C   0  0  0  0  0  0  0  0  0  0  0  0
   26.7118  -22.5327  -15.7819 C   0  0  2  0  0  0  0  0  0  0  0  0
   26.0085  -23.6975  -15.3272 N   0  0  0  0  0  0  0  0  0  0  0  0
   25.8160  -21.6658  -16.5617 C   0  0  0  0  0  0  0  0  0  0  0  0
   24.9310  -22.1120  -17.3565 O   0  0  0  0  0  0  0  0  0  0  0  0
   30.0259  -26.7814  -18.5829 N   0  0  0  0  0  0  0  0  0  0  0  0
   21.0385  -18.9514  -16.0387 C   0  0  0  0  0  0  0  0  0  0  0  0
   21.9311  -18.3063  -15.1530 O   0  0  0  0  0  0  0  0  0  0  0  0
   21.5012  -17.5953  -14.2417 C   0  0  0  0  0  0  0  0  0  0  0  0
   23.3964  -18.5386  -15.3886 C   0  0  0  0  0  0  0  0  0  0  0  0
   23.6091  -19.4690  -16.5479 C   0  0  1  0  0  0  0  0  0  0  0  0
   24.9879  -19.3275  -17.0859 N   0  0  0  0  0  0  0  0  0  0  0  0
   25.9092  -20.2661  -16.4521 C   0  0  0  0  0  0  0  0  0  0  0  0
   25.5047  -17.9712  -16.8328 O   0  0  0  0  0  0  0  0  0  0  0  0
   25.0528  -16.9148  -17.3596 O   0  0  0  0  0  0  0  0  0  0  0  0
  2  1  1  1
  3  2  1  0
  3  4  1  0
  5  4  1  0
  5  9  1  0
  6  5  2  0
  7  2  1  0
  7  8  2  0
 10 11  1  0
 11 12  2  0
 13 11  1  0
 13 14  1  0
 14 15  1  0
 16 15  1  0
 17 16  1  6
 17 18  1  0
 18  7  1  0
 19 20  2  0
 19 17  1  0
 22 21  1  0
 22 23  2  0
 24 22  1  0
 25 24  1  0
 26 25  1  6
 26 27  1  0
 27 19  1  0
 28 26  1  0
 29 28  2  0
 30 28  1  0
M  END
$$$$
