ERQ.pdb
     RDKit          3D

 30 29  0  0  1  0  0  0  0  0999 V2000
   22.6227  -17.7099  -18.4013 N   0  0  0  0  0  0  0  0  0  0  0  0
   21.7533  -17.3686  -17.2961 C   0  0  1  0  0  0  0  0  0  0  0  0
   20.6640  -16.4393  -17.7082 C   0  0  0  0  0  0  0  0  0  0  0  0
   19.7751  -15.9990  -16.5736 C   0  0  0  0  0  0  0  0  0  0  0  0
   19.9871  -14.6261  -16.1154 C   0  0  0  0  0  0  0  0  0  0  0  0
   20.8260  -13.8093  -16.6097 O   0  0  0  0  0  0  0  0  0  0  0  0
   21.1881  -18.6207  -16.6577 C   0  0  0  0  0  0  0  0  0  0  0  0
   20.4868  -19.3818  -17.3429 O   0  0  0  0  0  0  0  0  0  0  0  0
   19.2124  -14.1476  -15.0422 O   0  0  0  0  0  0  0  0  0  0  0  0
   24.2991  -24.4268  -14.6437 N   0  0  0  0  0  0  0  0  0  0  0  0
   25.3610  -23.5106  -14.8056 C   0  0  0  0  0  0  0  0  0  0  0  0
   26.2501  -23.6387  -15.7049 N   0  0  0  0  0  0  0  0  0  0  0  0
   25.4648  -22.3858  -13.9346 N   0  0  0  0  0  0  0  0  0  0  0  0
   24.3488  -21.7893  -13.2781 C   0  0  0  0  0  0  0  0  0  0  0  0
   23.2189  -21.4691  -14.2378 C   0  0  0  0  0  0  0  0  0  0  0  0
   22.1679  -20.6207  -13.6358 C   0  0  0  0  0  0  0  0  0  0  0  0
   21.1082  -20.0986  -14.5733 C   0  0  2  0  0  0  0  0  0  0  0  0
   21.4585  -18.9132  -15.3016 N   0  0  0  0  0  0  0  0  0  0  0  0
   19.8695  -19.8835  -13.8108 C   0  0  0  0  0  0  0  0  0  0  0  0
   19.7412  -18.9777  -12.9294 O   0  0  0  0  0  0  0  0  0  0  0  0
   27.0369  -22.9745  -15.8691 N   0  0  0  0  0  0  0  0  0  0  0  0
   14.3189  -21.4000  -15.9242 C   0  0  0  0  0  0  0  0  0  0  0  0
   14.9763  -20.1743  -16.1751 O   0  0  0  0  0  0  0  0  0  0  0  0
   14.5827  -19.4276  -17.0741 C   0  0  0  0  0  0  0  0  0  0  0  0
   16.1522  -19.8510  -15.2981 C   0  0  0  0  0  0  0  0  0  0  0  0
   16.3248  -20.8941  -14.2317 C   0  0  2  0  0  0  0  0  0  0  0  0
   17.4684  -20.5515  -13.3453 N   0  0  0  0  0  0  0  0  0  0  0  0
   18.7454  -20.6989  -14.0375 C   0  0  0  0  0  0  0  0  0  0  0  0
   17.5011  -21.4459  -12.1750 O   0  0  0  0  0  0  0  0  0  0  0  0
   18.0922  -22.5624  -12.1340 O   0  0  0  0  0  0  0  0  0  0  0  0
  2  1  1  6
  3  2  1  0
  3  4  1  0
  5  4  1  0
  5  9  1  0
  6  5  2  0
  7  2  1  0
  7  8  2  0
 10 11  1  0
 11 12  2  0
 13 11  1  0
 13 14  1  0
 14 15  1  0
 16 15  1  0
 17 16  1  1
 17 18  1  0
 18  7  1  0
 19 20  2  0
 19 17  1  0
 22 21  1  0
 22 23  2  0
 24 22  1  0
 25 24  1  0
 26 25  1  6
 26 27  1  0
 27 19  1  0
 28 26  1  0
 29 28  2  0
 30 28  1  0
M  END
$$$$
