ERQ.pdb
     RDKit          3D

 30 29  0  0  1  0  0  0  0  0999 V2000
   27.9181  -21.1693  -17.5941 N   0  0  0  0  0  0  0  0  0  0  0  0
   27.1918  -20.1451  -16.8747 C   0  0  1  0  0  0  0  0  0  0  0  0
   26.7449  -19.0424  -17.7714 C   0  0  0  0  0  0  0  0  0  0  0  0
   27.8747  -18.3090  -18.4473 C   0  0  0  0  0  0  0  0  0  0  0  0
   27.4641  -17.2503  -19.3695 C   0  0  0  0  0  0  0  0  0  0  0  0
   26.9545  -16.1372  -19.0281 O   0  0  0  0  0  0  0  0  0  0  0  0
   26.0199  -20.7488  -16.1285 C   0  0  0  0  0  0  0  0  0  0  0  0
   25.2761  -21.5470  -16.7205 O   0  0  0  0  0  0  0  0  0  0  0  0
   27.6367  -17.4569  -20.7509 O   0  0  0  0  0  0  0  0  0  0  0  0
   24.0075  -20.5095   -8.9904 N   0  0  0  0  0  0  0  0  0  0  0  0
   25.3848  -20.7592   -8.8063 C   0  0  0  0  0  0  0  0  0  0  0  0
   26.0201  -20.3858   -7.7706 N   0  0  0  0  0  0  0  0  0  0  0  0
   26.1187  -21.4565   -9.8114 N   0  0  0  0  0  0  0  0  0  0  0  0
   26.9439  -20.8109  -10.7780 C   0  0  0  0  0  0  0  0  0  0  0  0
   26.5819  -21.2012  -12.1981 C   0  0  0  0  0  0  0  0  0  0  0  0
   25.1335  -21.0987  -12.4779 C   0  0  0  0  0  0  0  0  0  0  0  0
   24.7414  -20.8936  -13.9195 C   0  0  2  0  0  0  0  0  0  0  0  0
   25.7815  -20.4051  -14.7785 N   0  0  0  0  0  0  0  0  0  0  0  0
   23.5755  -19.9988  -13.9677 C   0  0  0  0  0  0  0  0  0  0  0  0
   23.6169  -18.7793  -13.6142 O   0  0  0  0  0  0  0  0  0  0  0  0
   27.0516  -20.4631   -7.6396 N   0  0  0  0  0  0  0  0  0  0  0  0
   20.6252  -19.2727  -19.2645 C   0  0  0  0  0  0  0  0  0  0  0  0
   20.9853  -20.1262  -18.1972 O   0  0  0  0  0  0  0  0  0  0  0  0
   20.9520  -21.3508  -18.3388 C   0  0  0  0  0  0  0  0  0  0  0  0
   21.4004  -19.4611  -16.9159 C   0  0  0  0  0  0  0  0  0  0  0  0
   20.4459  -19.7981  -15.8066 C   0  0  2  0  0  0  0  0  0  0  0  0
   21.1150  -19.6724  -14.4848 N   0  0  0  0  0  0  0  0  0  0  0  0
   22.3323  -20.4760  -14.4220 C   0  0  0  0  0  0  0  0  0  0  0  0
   20.2257  -20.1434  -13.4086 O   0  0  0  0  0  0  0  0  0  0  0  0
   20.4410  -21.1561  -12.6835 O   0  0  0  0  0  0  0  0  0  0  0  0
  2  1  1  6
  3  2  1  0
  3  4  1  0
  5  4  1  0
  5  9  1  0
  6  5  2  0
  7  2  1  0
  7  8  2  0
 10 11  1  0
 11 12  2  0
 13 11  1  0
 13 14  1  0
 14 15  1  0
 16 15  1  0
 17 16  1  1
 17 18  1  0
 18  7  1  0
 19 20  2  0
 19 17  1  0
 22 21  1  0
 22 23  2  0
 24 22  1  0
 25 24  1  0
 26 25  1  6
 26 27  1  0
 27 19  1  0
 28 26  1  0
 29 28  2  0
 30 28  1  0
M  END
$$$$
