CFT.pdb
     RDKit          3D

 25 25  0  0  1  0  0  0  0  0999 V2000
    8.6224  -15.4650   19.4972 N   0  0  0  0  0  0  0  0  0  0  0  0
    7.6914  -15.5760   20.5768 C   0  0  1  0  0  0  0  0  0  0  0  0
    7.0737  -16.9500   20.6747 C   0  0  0  0  0  0  0  0  0  0  0  0
    8.3691  -18.1910   20.9425 S   0  0  0  0  0  0  0  0  0  0  0  0
    8.4080  -15.3200   21.8781 C   0  0  0  0  0  0  0  0  0  0  0  0
    9.6555  -15.1994   21.8836 O   0  0  0  0  0  0  0  0  0  0  0  0
    7.7136  -15.2110   23.0992 N   0  0  0  0  0  0  0  0  0  0  0  0
    8.3846  -15.0338   24.3521 C   0  0  1  0  0  0  0  0  0  0  0  0
    7.5972  -14.3322   25.4072 C   0  0  0  0  0  0  0  0  0  0  0  0
    8.3919  -14.0973   26.6394 C   0  0  0  0  0  0  0  0  0  0  0  0
    9.0148  -12.8766   26.7850 C   0  0  0  0  0  0  0  0  0  0  0  0
    9.7470  -12.6811   27.9370 C   0  0  0  0  0  0  0  0  0  0  0  0
    9.8576  -13.6576   28.9072 C   0  0  0  0  0  0  0  0  0  0  0  0
    9.2369  -14.8623   28.7528 C   0  0  0  0  0  0  0  0  0  0  0  0
    8.5002  -15.0730   27.6047 C   0  0  0  0  0  0  0  0  0  0  0  0
    8.9399  -16.3457   24.8503 C   0  0  0  0  0  0  0  0  0  0  0  0
    8.1588  -17.3034   25.0523 O   0  0  0  0  0  0  0  0  0  0  0  0
   11.2421  -18.3662   23.1783 C   0  0  0  0  0  0  0  0  0  0  0  0
   11.8500  -18.3232   24.5616 C   0  0  1  0  0  0  0  0  0  0  0  0
   12.9491  -17.4661   24.5443 O   0  0  0  0  0  0  0  0  0  0  0  0
   10.7876  -17.8117   25.5109 C   0  0  2  0  0  0  0  0  0  0  0  0
   10.3143  -16.5263   25.0957 N   0  0  0  0  0  0  0  0  0  0  0  0
   11.3578  -17.7121   26.8645 C   0  0  0  0  0  0  0  0  0  0  0  0
   11.7570  -18.8511   27.5450 O   0  0  0  0  0  0  0  0  0  0  0  0
   11.4809  -16.5899   27.3999 O   0  0  0  0  0  0  0  0  0  0  0  0
  2  5  1  0
  2  1  1  6
  3  2  1  0
  4  3  1  0
  5  6  2  0
  7  8  1  0
  7  5  1  0
  8  9  1  1
  9 10  1  0
 10 15  2  0
 11 10  1  0
 11 12  2  0
 12 13  1  0
 13 14  2  0
 15 14  1  0
 16 17  2  0
 16  8  1  0
 19 18  1  6
 19 21  1  0
 20 19  1  0
 21 23  1  0
 21 22  1  6
 22 16  1  0
 23 24  1  0
 25 23  2  0
M  END
$$$$
