CFT.pdb
     RDKit          3D

 25 25  0  0  1  0  0  0  0  0999 V2000
   10.3919  -16.7322   19.5673 N   0  0  0  0  0  0  0  0  0  0  0  0
    9.7356  -17.3779   20.6613 C   0  0  1  0  0  0  0  0  0  0  0  0
   10.4424  -18.6361   21.1042 C   0  0  0  0  0  0  0  0  0  0  0  0
    9.9185  -20.0335   20.0731 S   0  0  0  0  0  0  0  0  0  0  0  0
    9.7106  -16.4451   21.8452 C   0  0  0  0  0  0  0  0  0  0  0  0
   10.7502  -15.8210   22.1626 O   0  0  0  0  0  0  0  0  0  0  0  0
    8.5454  -16.2509   22.6130 N   0  0  0  0  0  0  0  0  0  0  0  0
    8.5068  -15.3716   23.7430 C   0  0  1  0  0  0  0  0  0  0  0  0
    7.2581  -14.5685   23.8879 C   0  0  0  0  0  0  0  0  0  0  0  0
    7.2853  -13.6982   25.0908 C   0  0  0  0  0  0  0  0  0  0  0  0
    6.5241  -14.0718   26.1773 C   0  0  0  0  0  0  0  0  0  0  0  0
    6.5650  -13.2486   27.2827 C   0  0  0  0  0  0  0  0  0  0  0  0
    7.3306  -12.0995   27.3103 C   0  0  0  0  0  0  0  0  0  0  0  0
    8.0801  -11.7392   26.2293 C   0  0  0  0  0  0  0  0  0  0  0  0
    8.0495  -12.5534   25.1150 C   0  0  0  0  0  0  0  0  0  0  0  0
    8.8402  -16.1181   25.0117 C   0  0  0  0  0  0  0  0  0  0  0  0
    8.0797  -17.0338   25.4005 O   0  0  0  0  0  0  0  0  0  0  0  0
   11.5814  -18.1939   25.4629 C   0  0  0  0  0  0  0  0  0  0  0  0
   11.6857  -17.2900   26.6700 C   0  0  1  0  0  0  0  0  0  0  0  0
   12.6529  -16.3173   26.4224 O   0  0  0  0  0  0  0  0  0  0  0  0
   10.3286  -16.6535   26.8818 C   0  0  2  0  0  0  0  0  0  0  0  0
    9.9844  -15.8153   25.7739 N   0  0  0  0  0  0  0  0  0  0  0  0
   10.3598  -15.8503   28.1151 C   0  0  0  0  0  0  0  0  0  0  0  0
   10.5821  -16.4542   29.3422 O   0  0  0  0  0  0  0  0  0  0  0  0
   10.1839  -14.6150   28.0501 O   0  0  0  0  0  0  0  0  0  0  0  0
  2  5  1  0
  2  1  1  6
  3  2  1  0
  4  3  1  0
  5  6  2  0
  7  8  1  0
  7  5  1  0
  8  9  1  1
  9 10  1  0
 10 15  2  0
 11 10  1  0
 11 12  2  0
 12 13  1  0
 13 14  2  0
 15 14  1  0
 16 17  2  0
 16  8  1  0
 19 18  1  6
 19 21  1  0
 20 19  1  0
 21 23  1  0
 21 22  1  6
 22 16  1  0
 23 24  1  0
 25 23  2  0
M  END
$$$$
