CFT.pdb
     RDKit          3D

 25 25  0  0  1  0  0  0  0  0999 V2000
    7.8450  -14.1230   20.1028 N   0  0  0  0  0  0  0  0  0  0  0  0
    7.0424  -14.6926   21.1403 C   0  0  1  0  0  0  0  0  0  0  0  0
    6.5370  -16.0724   20.7950 C   0  0  0  0  0  0  0  0  0  0  0  0
    7.9378  -17.1925   20.5241 S   0  0  0  0  0  0  0  0  0  0  0  0
    7.8716  -14.8260   22.3921 C   0  0  0  0  0  0  0  0  0  0  0  0
    9.0839  -14.5090   22.3674 O   0  0  0  0  0  0  0  0  0  0  0  0
    7.3220  -15.3000   23.5997 N   0  0  0  0  0  0  0  0  0  0  0  0
    8.0912  -15.4124   24.8028 C   0  0  1  0  0  0  0  0  0  0  0  0
    7.3471  -15.1409   26.0668 C   0  0  0  0  0  0  0  0  0  0  0  0
    7.1566  -13.6877   26.3065 C   0  0  0  0  0  0  0  0  0  0  0  0
    5.8900  -13.2441   26.6201 C   0  0  0  0  0  0  0  0  0  0  0  0
    5.7371  -11.8912   26.8384 C   0  0  0  0  0  0  0  0  0  0  0  0
    6.7984  -11.0120   26.7493 C   0  0  0  0  0  0  0  0  0  0  0  0
    8.0478  -11.4620   26.4383 C   0  0  0  0  0  0  0  0  0  0  0  0
    8.2167  -12.8139   26.2169 C   0  0  0  0  0  0  0  0  0  0  0  0
    8.8121  -16.7373   24.8535 C   0  0  0  0  0  0  0  0  0  0  0  0
    8.1504  -17.7880   25.0155 O   0  0  0  0  0  0  0  0  0  0  0  0
   11.2752  -17.8634   22.2657 C   0  0  0  0  0  0  0  0  0  0  0  0
   11.9198  -18.1333   23.6061 C   0  0  1  0  0  0  0  0  0  0  0  0
   12.8584  -17.1355   23.8639 O   0  0  0  0  0  0  0  0  0  0  0  0
   10.8239  -18.1196   24.6503 C   0  0  2  0  0  0  0  0  0  0  0  0
   10.2108  -16.8283   24.7236 N   0  0  0  0  0  0  0  0  0  0  0  0
   11.4010  -18.4650   25.9598 C   0  0  0  0  0  0  0  0  0  0  0  0
   12.0323  -19.6836   26.1508 O   0  0  0  0  0  0  0  0  0  0  0  0
   11.3186  -17.6501   26.9034 O   0  0  0  0  0  0  0  0  0  0  0  0
  2  5  1  0
  2  1  1  6
  3  2  1  0
  4  3  1  0
  5  6  2  0
  7  8  1  0
  7  5  1  0
  8  9  1  1
  9 10  1  0
 10 15  2  0
 11 10  1  0
 11 12  2  0
 12 13  1  0
 13 14  2  0
 15 14  1  0
 16 17  2  0
 16  8  1  0
 19 18  1  6
 19 21  1  0
 20 19  1  0
 21 23  1  0
 21 22  1  1
 22 16  1  0
 23 24  1  0
 25 23  2  0
M  END
$$$$
