CFT.pdb
     RDKit          3D

 25 25  0  0  1  0  0  0  0  0999 V2000
   10.5313  -16.8174   19.5270 N   0  0  0  0  0  0  0  0  0  0  0  0
    9.3434  -17.1076   20.2682 C   0  0  1  0  0  0  0  0  0  0  0  0
    9.2311  -18.5659   20.6415 C   0  0  0  0  0  0  0  0  0  0  0  0
   10.6194  -19.0381   21.7091 S   0  0  0  0  0  0  0  0  0  0  0  0
    9.3571  -16.3220   21.5547 C   0  0  0  0  0  0  0  0  0  0  0  0
   10.4250  -15.7956   21.9464 O   0  0  0  0  0  0  0  0  0  0  0  0
    8.1971  -16.1592   22.3377 N   0  0  0  0  0  0  0  0  0  0  0  0
    8.1841  -15.3812   23.5402 C   0  0  1  0  0  0  0  0  0  0  0  0
    6.9725  -14.5349   23.7429 C   0  0  0  0  0  0  0  0  0  0  0  0
    7.0558  -13.7206   24.9819 C   0  0  0  0  0  0  0  0  0  0  0  0
    7.9228  -12.6493   24.9952 C   0  0  0  0  0  0  0  0  0  0  0  0
    7.9834  -11.9078   26.1561 C   0  0  0  0  0  0  0  0  0  0  0  0
    7.2145  -12.2160   27.2612 C   0  0  0  0  0  0  0  0  0  0  0  0
    6.3597  -13.2785   27.2370 C   0  0  0  0  0  0  0  0  0  0  0  0
    6.2880  -14.0305   26.0817 C   0  0  0  0  0  0  0  0  0  0  0  0
    8.4644  -16.2507   24.7415 C   0  0  0  0  0  0  0  0  0  0  0  0
    7.6364  -17.1327   25.0649 O   0  0  0  0  0  0  0  0  0  0  0  0
   11.0158  -18.6091   25.0166 C   0  0  0  0  0  0  0  0  0  0  0  0
   11.2197  -17.7723   26.2588 C   0  0  1  0  0  0  0  0  0  0  0  0
   12.2469  -16.8598   26.0238 O   0  0  0  0  0  0  0  0  0  0  0  0
    9.9188  -17.0520   26.5421 C   0  0  2  0  0  0  0  0  0  0  0  0
    9.6326  -16.1000   25.5124 N   0  0  0  0  0  0  0  0  0  0  0  0
   10.0230  -16.3594   27.8370 C   0  0  0  0  0  0  0  0  0  0  0  0
   10.2738  -17.0729   28.9980 O   0  0  0  0  0  0  0  0  0  0  0  0
    9.8836  -15.1187   27.8847 O   0  0  0  0  0  0  0  0  0  0  0  0
  2  5  1  0
  2  1  1  1
  3  2  1  0
  4  3  1  0
  5  6  2  0
  7  8  1  0
  7  5  1  0
  8  9  1  1
  9 10  1  0
 10 15  2  0
 11 10  1  0
 11 12  2  0
 12 13  1  0
 13 14  2  0
 15 14  1  0
 16 17  2  0
 16  8  1  0
 19 18  1  6
 19 21  1  0
 20 19  1  0
 21 23  1  0
 21 22  1  6
 22 16  1  0
 23 24  1  0
 25 23  2  0
M  END
$$$$
