CFT.pdb
     RDKit          3D

 25 25  0  0  1  0  0  0  0  0999 V2000
    6.8244  -16.9256   20.4726 N   0  0  0  0  0  0  0  0  0  0  0  0
    6.4398  -17.2744   21.8050 C   0  0  1  0  0  0  0  0  0  0  0  0
    6.4082  -18.7666   22.0306 C   0  0  0  0  0  0  0  0  0  0  0  0
    5.0763  -19.1875   23.1878 S   0  0  0  0  0  0  0  0  0  0  0  0
    7.4405  -16.7017   22.7761 C   0  0  0  0  0  0  0  0  0  0  0  0
    8.5863  -16.3927   22.3729 O   0  0  0  0  0  0  0  0  0  0  0  0
    7.1257  -16.5010   24.1347 N   0  0  0  0  0  0  0  0  0  0  0  0
    8.0862  -16.0240   25.0841 C   0  0  1  0  0  0  0  0  0  0  0  0
    7.5177  -15.3497   26.2872 C   0  0  0  0  0  0  0  0  0  0  0  0
    8.5730  -14.7961   27.1732 C   0  0  0  0  0  0  0  0  0  0  0  0
    9.0459  -15.5936   28.1929 C   0  0  0  0  0  0  0  0  0  0  0  0
   10.0254  -15.0587   29.0027 C   0  0  0  0  0  0  0  0  0  0  0  0
   10.5174  -13.7828   28.8093 C   0  0  0  0  0  0  0  0  0  0  0  0
   10.0422  -13.0021   27.7968 C   0  0  0  0  0  0  0  0  0  0  0  0
    9.0613  -13.5238   26.9777 C   0  0  0  0  0  0  0  0  0  0  0  0
    9.0517  -17.1202   25.4632 C   0  0  0  0  0  0  0  0  0  0  0  0
    8.6136  -18.1618   26.0028 O   0  0  0  0  0  0  0  0  0  0  0  0
   11.3360  -18.7922   23.1281 C   0  0  0  0  0  0  0  0  0  0  0  0
   12.1994  -18.3853   24.3003 C   0  0  1  0  0  0  0  0  0  0  0  0
   12.8982  -17.2268   23.9645 O   0  0  0  0  0  0  0  0  0  0  0  0
   11.2814  -18.1340   25.4774 C   0  0  2  0  0  0  0  0  0  0  0  0
   10.4350  -17.0071   25.2277 N   0  0  0  0  0  0  0  0  0  0  0  0
   12.0948  -17.8815   26.6782 C   0  0  0  0  0  0  0  0  0  0  0  0
   12.9099  -18.8747   27.1970 O   0  0  0  0  0  0  0  0  0  0  0  0
   12.0467  -16.7618   27.2303 O   0  0  0  0  0  0  0  0  0  0  0  0
  2  5  1  0
  2  1  1  6
  3  2  1  0
  4  3  1  0
  5  6  2  0
  7  8  1  0
  7  5  1  0
  8  9  1  1
  9 10  1  0
 10 15  2  0
 11 10  1  0
 11 12  2  0
 12 13  1  0
 13 14  2  0
 15 14  1  0
 16 17  2  0
 16  8  1  0
 19 18  1  6
 19 21  1  0
 20 19  1  0
 21 23  1  0
 21 22  1  6
 22 16  1  0
 23 24  1  0
 25 23  2  0
M  END
$$$$
