CFT.pdb
     RDKit          3D

 25 25  0  0  1  0  0  0  0  0999 V2000
    4.8269  -19.7881   21.9501 N   0  0  0  0  0  0  0  0  0  0  0  0
    5.5046  -19.8113   23.2091 C   0  0  1  0  0  0  0  0  0  0  0  0
    6.5926  -20.8561   23.2661 C   0  0  0  0  0  0  0  0  0  0  0  0
    5.9179  -22.4155   23.9009 S   0  0  0  0  0  0  0  0  0  0  0  0
    6.1622  -18.4752   23.4431 C   0  0  0  0  0  0  0  0  0  0  0  0
    6.7411  -17.8963   22.4940 O   0  0  0  0  0  0  0  0  0  0  0  0
    6.1467  -17.8510   24.7061 N   0  0  0  0  0  0  0  0  0  0  0  0
    6.7967  -16.5988   24.9530 C   0  0  1  0  0  0  0  0  0  0  0  0
    6.2571  -15.8118   26.0996 C   0  0  0  0  0  0  0  0  0  0  0  0
    6.8907  -14.4734   26.2110 C   0  0  0  0  0  0  0  0  0  0  0  0
    7.8839  -14.3037   27.1514 C   0  0  0  0  0  0  0  0  0  0  0  0
    8.4577  -13.0528   27.2368 C   0  0  0  0  0  0  0  0  0  0  0  0
    8.0625  -12.0103   26.4218 C   0  0  0  0  0  0  0  0  0  0  0  0
    7.0785  -12.1893   25.4944 C   0  0  0  0  0  0  0  0  0  0  0  0
    6.4944  -13.4362   25.3970 C   0  0  0  0  0  0  0  0  0  0  0  0
    8.2907  -16.7846   25.0580 C   0  0  0  0  0  0  0  0  0  0  0  0
    8.7479  -17.6159   25.8753 O   0  0  0  0  0  0  0  0  0  0  0  0
   10.3050  -17.3958   21.9459 C   0  0  0  0  0  0  0  0  0  0  0  0
   11.0655  -16.3769   22.7637 C   0  0  1  0  0  0  0  0  0  0  0  0
   10.8325  -15.1090   22.2335 O   0  0  0  0  0  0  0  0  0  0  0  0
   10.5574  -16.4633   24.1870 C   0  0  2  0  0  0  0  0  0  0  0  0
    9.1893  -16.0493   24.2620 N   0  0  0  0  0  0  0  0  0  0  0  0
   11.3810  -15.5974   25.0466 C   0  0  0  0  0  0  0  0  0  0  0  0
   12.7343  -15.8481   25.2067 O   0  0  0  0  0  0  0  0  0  0  0  0
   10.8516  -14.6303   25.6343 O   0  0  0  0  0  0  0  0  0  0  0  0
  2  5  1  0
  2  1  1  6
  3  2  1  0
  4  3  1  0
  5  6  2  0
  7  8  1  0
  7  5  1  0
  8  9  1  1
  9 10  1  0
 10 15  2  0
 11 10  1  0
 11 12  2  0
 12 13  1  0
 13 14  2  0
 15 14  1  0
 16 17  2  0
 16  8  1  0
 19 18  1  6
 19 21  1  0
 20 19  1  0
 21 23  1  0
 21 22  1  6
 22 16  1  0
 23 24  1  0
 25 23  2  0
M  END
$$$$
