CFT.pdb
     RDKit          3D

 25 25  0  0  1  0  0  0  0  0999 V2000
    9.8196  -16.2232   19.0385 N   0  0  0  0  0  0  0  0  0  0  0  0
    8.9762  -16.8476   20.0099 C   0  0  1  0  0  0  0  0  0  0  0  0
    9.3871  -18.2685   20.3111 C   0  0  0  0  0  0  0  0  0  0  0  0
    8.1948  -19.0277   21.4478 S   0  0  0  0  0  0  0  0  0  0  0  0
    9.0583  -16.0799   21.3047 C   0  0  0  0  0  0  0  0  0  0  0  0
   10.1673  -15.6485   21.6984 O   0  0  0  0  0  0  0  0  0  0  0  0
    7.9178  -15.8300   22.0933 N   0  0  0  0  0  0  0  0  0  0  0  0
    7.9837  -15.1269   23.3394 C   0  0  1  0  0  0  0  0  0  0  0  0
    6.7929  -14.2901   23.6668 C   0  0  0  0  0  0  0  0  0  0  0  0
    6.9394  -13.5874   24.9668 C   0  0  0  0  0  0  0  0  0  0  0  0
    7.6994  -12.4382   24.9992 C   0  0  0  0  0  0  0  0  0  0  0  0
    7.8213  -11.8028   26.2169 C   0  0  0  0  0  0  0  0  0  0  0  0
    7.2135  -12.2876   27.3583 C   0  0  0  0  0  0  0  0  0  0  0  0
    6.4635  -13.4260   27.3148 C   0  0  0  0  0  0  0  0  0  0  0  0
    6.3322  -14.0734   26.1028 C   0  0  0  0  0  0  0  0  0  0  0  0
    8.3301  -16.0692   24.4662 C   0  0  0  0  0  0  0  0  0  0  0  0
    7.5225  -16.9745   24.7768 O   0  0  0  0  0  0  0  0  0  0  0  0
   11.0017  -18.2986   24.4007 C   0  0  0  0  0  0  0  0  0  0  0  0
   11.1964  -17.6356   25.7452 C   0  0  1  0  0  0  0  0  0  0  0  0
   12.2095  -16.6845   25.6361 O   0  0  0  0  0  0  0  0  0  0  0  0
    9.8857  -16.9800   26.1245 C   0  0  2  0  0  0  0  0  0  0  0  0
    9.5379  -15.9612   25.1813 N   0  0  0  0  0  0  0  0  0  0  0  0
   10.0138  -16.3859   27.4653 C   0  0  0  0  0  0  0  0  0  0  0  0
   10.3043  -17.1813   28.5620 O   0  0  0  0  0  0  0  0  0  0  0  0
    9.8587  -15.1548   27.6107 O   0  0  0  0  0  0  0  0  0  0  0  0
  2  5  1  0
  2  1  1  6
  3  2  1  0
  4  3  1  0
  5  6  2  0
  7  8  1  0
  7  5  1  0
  8  9  1  1
  9 10  1  0
 10 15  2  0
 11 10  1  0
 11 12  2  0
 12 13  1  0
 13 14  2  0
 15 14  1  0
 16 17  2  0
 16  8  1  0
 19 18  1  6
 19 21  1  0
 20 19  1  0
 21 23  1  0
 21 22  1  6
 22 16  1  0
 23 24  1  0
 25 23  2  0
M  END
$$$$
