CFT.pdb
     RDKit          3D

 25 25  0  0  1  0  0  0  0  0999 V2000
    4.5983  -19.7110   22.1952 N   0  0  0  0  0  0  0  0  0  0  0  0
    5.4108  -19.7983   23.3686 C   0  0  1  0  0  0  0  0  0  0  0  0
    6.4753  -20.8633   23.2623 C   0  0  0  0  0  0  0  0  0  0  0  0
    7.3780  -20.9919   24.8303 S   0  0  0  0  0  0  0  0  0  0  0  0
    6.1194  -18.4847   23.5802 C   0  0  0  0  0  0  0  0  0  0  0  0
    6.5579  -17.8524   22.5908 O   0  0  0  0  0  0  0  0  0  0  0  0
    6.3060  -17.9405   24.8662 N   0  0  0  0  0  0  0  0  0  0  0  0
    6.9578  -16.6834   25.0820 C   0  0  1  0  0  0  0  0  0  0  0  0
    6.5654  -15.9637   26.3284 C   0  0  0  0  0  0  0  0  0  0  0  0
    7.0370  -14.5556   26.3371 C   0  0  0  0  0  0  0  0  0  0  0  0
    8.2324  -14.2773   26.9639 C   0  0  0  0  0  0  0  0  0  0  0  0
    8.6503  -12.9633   26.9594 C   0  0  0  0  0  0  0  0  0  0  0  0
    7.9119  -11.9636   26.3570 C   0  0  0  0  0  0  0  0  0  0  0  0
    6.7301  -12.2504   25.7394 C   0  0  0  0  0  0  0  0  0  0  0  0
    6.2986  -13.5615   25.7356 C   0  0  0  0  0  0  0  0  0  0  0  0
    8.4556  -16.8331   24.9724 C   0  0  0  0  0  0  0  0  0  0  0  0
    9.0515  -17.6103   25.7527 O   0  0  0  0  0  0  0  0  0  0  0  0
   10.2639  -16.8662   21.4564 C   0  0  0  0  0  0  0  0  0  0  0  0
   11.0544  -16.0471   22.4509 C   0  0  1  0  0  0  0  0  0  0  0  0
   10.8116  -14.6949   22.2150 O   0  0  0  0  0  0  0  0  0  0  0  0
   10.5901  -16.4401   23.8371 C   0  0  2  0  0  0  0  0  0  0  0  0
    9.2058  -16.1231   24.0160 N   0  0  0  0  0  0  0  0  0  0  0  0
   11.3932  -15.7182   24.8376 C   0  0  0  0  0  0  0  0  0  0  0  0
   12.7703  -15.8667   24.8740 O   0  0  0  0  0  0  0  0  0  0  0  0
   10.8246  -14.9669   25.6581 O   0  0  0  0  0  0  0  0  0  0  0  0
  2  5  1  0
  2  1  1  6
  3  2  1  0
  4  3  1  0
  5  6  2  0
  7  8  1  0
  7  5  1  0
  8  9  1  1
  9 10  1  0
 10 15  2  0
 11 10  1  0
 11 12  2  0
 12 13  1  0
 13 14  2  0
 15 14  1  0
 16 17  2  0
 16  8  1  0
 19 18  1  6
 19 21  1  0
 20 19  1  0
 21 23  1  0
 21 22  1  6
 22 16  1  0
 23 24  1  0
 25 23  2  0
M  END
$$$$
