CFT.pdb
     RDKit          3D

 25 25  0  0  1  0  0  0  0  0999 V2000
    9.4943  -17.5206   17.3963 N   0  0  0  0  0  0  0  0  0  0  0  0
    8.9097  -18.0962   18.5675 C   0  0  1  0  0  0  0  0  0  0  0  0
    9.2159  -19.5675   18.7088 C   0  0  0  0  0  0  0  0  0  0  0  0
    9.3688  -20.0002   20.4636 S   0  0  0  0  0  0  0  0  0  0  0  0
    9.4668  -17.4097   19.7885 C   0  0  0  0  0  0  0  0  0  0  0  0
   10.6490  -16.9934   19.7783 O   0  0  0  0  0  0  0  0  0  0  0  0
    8.6939  -17.2195   20.9510 N   0  0  0  0  0  0  0  0  0  0  0  0
    9.1713  -16.4767   22.0788 C   0  0  1  0  0  0  0  0  0  0  0  0
    8.2014  -15.5061   22.6640 C   0  0  0  0  0  0  0  0  0  0  0  0
    7.8126  -14.4475   21.6979 C   0  0  0  0  0  0  0  0  0  0  0  0
    6.6561  -14.6283   20.9705 C   0  0  0  0  0  0  0  0  0  0  0  0
    6.3150  -13.6325   20.0797 C   0  0  0  0  0  0  0  0  0  0  0  0
    7.0902  -12.5013   19.9162 C   0  0  0  0  0  0  0  0  0  0  0  0
    8.2329  -12.3326   20.6414 C   0  0  0  0  0  0  0  0  0  0  0  0
    8.5876  -13.3210   21.5373 C   0  0  0  0  0  0  0  0  0  0  0  0
    9.7349  -17.4035   23.1282 C   0  0  0  0  0  0  0  0  0  0  0  0
    8.9512  -18.0916   23.8213 O   0  0  0  0  0  0  0  0  0  0  0  0
   12.7491  -19.7757   22.6391 C   0  0  0  0  0  0  0  0  0  0  0  0
   12.9424  -19.0085   23.9272 C   0  0  1  0  0  0  0  0  0  0  0  0
   13.8573  -17.9802   23.7063 O   0  0  0  0  0  0  0  0  0  0  0  0
   11.5953  -18.4483   24.3310 C   0  0  2  0  0  0  0  0  0  0  0  0
   11.1199  -17.5183   23.3524 N   0  0  0  0  0  0  0  0  0  0  0  0
   11.7248  -17.7707   25.6314 C   0  0  0  0  0  0  0  0  0  0  0  0
   11.4670  -16.4141   25.7463 O   0  0  0  0  0  0  0  0  0  0  0  0
   12.0702  -18.4276   26.6365 O   0  0  0  0  0  0  0  0  0  0  0  0
  2  5  1  0
  2  1  1  6
  3  2  1  0
  4  3  1  0
  5  6  2  0
  7  8  1  0
  7  5  1  0
  8  9  1  1
  9 10  1  0
 10 15  2  0
 11 10  1  0
 11 12  2  0
 12 13  1  0
 13 14  2  0
 15 14  1  0
 16 17  2  0
 16  8  1  0
 19 18  1  6
 19 21  1  0
 20 19  1  0
 21 23  1  0
 21 22  1  6
 22 16  1  0
 23 24  1  0
 25 23  2  0
M  END
$$$$
