CFT.pdb
     RDKit          3D

 25 25  0  0  1  0  0  0  0  0999 V2000
   10.0676  -16.1941   18.9454 N   0  0  0  0  0  0  0  0  0  0  0  0
    9.1241  -16.7824   19.8445 C   0  0  1  0  0  0  0  0  0  0  0  0
    9.4119  -18.2383   20.1207 C   0  0  0  0  0  0  0  0  0  0  0  0
    8.0304  -18.9777   21.0343 S   0  0  0  0  0  0  0  0  0  0  0  0
    9.1833  -16.0616   21.1671 C   0  0  0  0  0  0  0  0  0  0  0  0
   10.2941  -15.7160   21.6337 O   0  0  0  0  0  0  0  0  0  0  0  0
    8.0192  -15.7613   21.9019 N   0  0  0  0  0  0  0  0  0  0  0  0
    8.0603  -15.0943   23.1687 C   0  0  1  0  0  0  0  0  0  0  0  0
    6.9180  -14.1761   23.4468 C   0  0  0  0  0  0  0  0  0  0  0  0
    7.0366  -13.5158   24.7717 C   0  0  0  0  0  0  0  0  0  0  0  0
    7.8860  -12.4363   24.8831 C   0  0  0  0  0  0  0  0  0  0  0  0
    7.9801  -11.8392   26.1225 C   0  0  0  0  0  0  0  0  0  0  0  0
    7.2601  -12.2945   27.2095 C   0  0  0  0  0  0  0  0  0  0  0  0
    6.4222  -13.3639   27.0880 C   0  0  0  0  0  0  0  0  0  0  0  0
    6.3175  -13.9722   25.8533 C   0  0  0  0  0  0  0  0  0  0  0  0
    8.2637  -16.0863   24.2878 C   0  0  0  0  0  0  0  0  0  0  0  0
    7.3464  -16.8923   24.5652 O   0  0  0  0  0  0  0  0  0  0  0  0
   10.6972  -18.6082   24.2555 C   0  0  0  0  0  0  0  0  0  0  0  0
   10.9122  -17.9820   25.6145 C   0  0  1  0  0  0  0  0  0  0  0  0
   12.0179  -17.1355   25.5508 O   0  0  0  0  0  0  0  0  0  0  0  0
    9.6613  -17.2031   25.9609 C   0  0  2  0  0  0  0  0  0  0  0  0
    9.4578  -16.1333   25.0320 N   0  0  0  0  0  0  0  0  0  0  0  0
    9.7954  -16.6549   27.3205 C   0  0  0  0  0  0  0  0  0  0  0  0
    9.8176  -15.2850   27.5275 O   0  0  0  0  0  0  0  0  0  0  0  0
    9.8896  -17.4345   28.2923 O   0  0  0  0  0  0  0  0  0  0  0  0
  2  5  1  0
  2  1  1  6
  3  2  1  0
  4  3  1  0
  5  6  2  0
  7  8  1  0
  7  5  1  0
  8  9  1  1
  9 10  1  0
 10 15  2  0
 11 10  1  0
 11 12  2  0
 12 13  1  0
 13 14  2  0
 15 14  1  0
 16 17  2  0
 16  8  1  0
 19 18  1  6
 19 21  1  0
 20 19  1  0
 21 23  1  0
 21 22  1  6
 22 16  1  0
 23 24  1  0
 25 23  2  0
M  END
$$$$
