CFT.pdb
     RDKit          3D

 25 25  0  0  1  0  0  0  0  0999 V2000
   10.2637  -16.5145   19.2563 N   0  0  0  0  0  0  0  0  0  0  0  0
    8.9651  -16.4633   19.8527 C   0  0  1  0  0  0  0  0  0  0  0  0
    8.3207  -17.8239   19.9635 C   0  0  0  0  0  0  0  0  0  0  0  0
    9.4811  -18.9966   20.7172 S   0  0  0  0  0  0  0  0  0  0  0  0
    9.0832  -15.9151   21.2520 C   0  0  0  0  0  0  0  0  0  0  0  0
   10.2172  -15.7742   21.7671 O   0  0  0  0  0  0  0  0  0  0  0  0
    7.9494  -15.5529   22.0057 N   0  0  0  0  0  0  0  0  0  0  0  0
    8.0477  -14.9495   23.3010 C   0  0  1  0  0  0  0  0  0  0  0  0
    6.8985  -14.0831   23.6933 C   0  0  0  0  0  0  0  0  0  0  0  0
    7.1030  -13.4430   25.0176 C   0  0  0  0  0  0  0  0  0  0  0  0
    6.3021  -13.8490   26.0632 C   0  0  0  0  0  0  0  0  0  0  0  0
    6.5099  -13.2410   27.2832 C   0  0  0  0  0  0  0  0  0  0  0  0
    7.4741  -12.2682   27.4602 C   0  0  0  0  0  0  0  0  0  0  0  0
    8.2612  -11.8740   26.4184 C   0  0  0  0  0  0  0  0  0  0  0  0
    8.0650  -12.4736   25.1907 C   0  0  0  0  0  0  0  0  0  0  0  0
    8.3465  -15.9898   24.3529 C   0  0  0  0  0  0  0  0  0  0  0  0
    7.4759  -16.8455   24.6318 O   0  0  0  0  0  0  0  0  0  0  0  0
   10.8024  -18.5299   24.2598 C   0  0  0  0  0  0  0  0  0  0  0  0
   11.0757  -17.8520   25.5830 C   0  0  1  0  0  0  0  0  0  0  0  0
   12.1607  -16.9899   25.4320 O   0  0  0  0  0  0  0  0  0  0  0  0
    9.8301  -17.0821   25.9669 C   0  0  2  0  0  0  0  0  0  0  0  0
    9.5788  -16.0275   25.0325 N   0  0  0  0  0  0  0  0  0  0  0  0
   10.0101  -16.5139   27.3130 C   0  0  0  0  0  0  0  0  0  0  0  0
   10.1695  -17.3438   28.4111 O   0  0  0  0  0  0  0  0  0  0  0  0
   10.0184  -15.2734   27.4618 O   0  0  0  0  0  0  0  0  0  0  0  0
  2  5  1  0
  2  1  1  1
  3  2  1  0
  4  3  1  0
  5  6  2  0
  7  8  1  0
  7  5  1  0
  8  9  1  1
  9 10  1  0
 10 15  2  0
 11 10  1  0
 11 12  2  0
 12 13  1  0
 13 14  2  0
 15 14  1  0
 16 17  2  0
 16  8  1  0
 19 18  1  6
 19 21  1  0
 20 19  1  0
 21 23  1  0
 21 22  1  6
 22 16  1  0
 23 24  1  0
 25 23  2  0
M  END
$$$$
