CFT.pdb
     RDKit          3D

 25 25  0  0  1  0  0  0  0  0999 V2000
    9.5637  -16.0736   19.6996 N   0  0  0  0  0  0  0  0  0  0  0  0
    8.7174  -16.5510   20.7487 C   0  0  1  0  0  0  0  0  0  0  0  0
    8.6106  -18.0565   20.7717 C   0  0  0  0  0  0  0  0  0  0  0  0
    7.9459  -18.6521   19.1926 S   0  0  0  0  0  0  0  0  0  0  0  0
    9.2887  -16.1281   22.0781 C   0  0  0  0  0  0  0  0  0  0  0  0
   10.5237  -15.9463   22.1906 O   0  0  0  0  0  0  0  0  0  0  0  0
    8.4711  -15.9290   23.2080 N   0  0  0  0  0  0  0  0  0  0  0  0
    9.0080  -15.6448   24.5051 C   0  0  1  0  0  0  0  0  0  0  0  0
    8.0667  -14.9895   25.4589 C   0  0  0  0  0  0  0  0  0  0  0  0
    8.7203  -14.6445   26.7469 C   0  0  0  0  0  0  0  0  0  0  0  0
    8.7379  -15.5999   27.7401 C   0  0  0  0  0  0  0  0  0  0  0  0
    9.3502  -15.2573   28.9271 C   0  0  0  0  0  0  0  0  0  0  0  0
    9.9228  -14.0158   29.1224 C   0  0  0  0  0  0  0  0  0  0  0  0
    9.8996  -13.0777   28.1326 C   0  0  0  0  0  0  0  0  0  0  0  0
    9.2902  -13.4060   26.9384 C   0  0  0  0  0  0  0  0  0  0  0  0
    9.6394  -16.8782   25.1033 C   0  0  0  0  0  0  0  0  0  0  0  0
    8.9207  -17.8720   25.3563 O   0  0  0  0  0  0  0  0  0  0  0  0
   12.3862  -18.7590   23.6345 C   0  0  0  0  0  0  0  0  0  0  0  0
   12.8106  -18.5440   25.0694 C   0  0  1  0  0  0  0  0  0  0  0  0
   13.7476  -17.5129   25.1124 O   0  0  0  0  0  0  0  0  0  0  0  0
   11.5736  -18.1761   25.8606 C   0  0  2  0  0  0  0  0  0  0  0  0
   11.0167  -16.9459   25.3864 N   0  0  0  0  0  0  0  0  0  0  0  0
   11.9333  -18.0377   27.2814 C   0  0  0  0  0  0  0  0  0  0  0  0
   11.7946  -16.8193   27.9265 O   0  0  0  0  0  0  0  0  0  0  0  0
   12.3667  -19.0290   27.9064 O   0  0  0  0  0  0  0  0  0  0  0  0
  2  5  1  0
  2  1  1  6
  3  2  1  0
  4  3  1  0
  5  6  2  0
  7  8  1  0
  7  5  1  0
  8  9  1  1
  9 10  1  0
 10 15  2  0
 11 10  1  0
 11 12  2  0
 12 13  1  0
 13 14  2  0
 15 14  1  0
 16 17  2  0
 16  8  1  0
 19 18  1  6
 19 21  1  0
 20 19  1  0
 21 23  1  0
 21 22  1  6
 22 16  1  0
 23 24  1  0
 25 23  2  0
M  END
$$$$
