GDC.pdb
     RDKit          3D

 19 18  0  0  1  0  0  0  0  0999 V2000
   20.9635  -12.2604  -18.6208 N   0  0  0  0  0  0  0  0  0  0  0  0
   22.1526  -11.6889  -18.0792 C   0  0  0  0  0  0  0  0  0  0  0  0
   22.0035  -10.2445  -17.7623 C   0  0  0  0  0  0  0  0  0  0  0  0
   22.0607   -9.3497  -18.6496 O   0  0  0  0  0  0  0  0  0  0  0  0
   21.7836   -9.7848  -16.4200 N   0  0  0  0  0  0  0  0  0  0  0  0
   21.6798   -8.3896  -16.0684 C   0  0  1  0  0  0  0  0  0  0  0  0
   21.0110   -8.1824  -14.7240 C   0  0  0  0  0  0  0  0  0  0  0  0
   19.5372   -8.0835  -14.8770 C   0  0  0  0  0  0  0  0  0  0  0  0
   18.8847   -8.7793  -15.6817 O   0  0  0  0  0  0  0  0  0  0  0  0
   23.0202   -7.7817  -16.1453 C   0  0  0  0  0  0  0  0  0  0  0  0
   24.0131   -8.1784  -15.4616 O   0  0  0  0  0  0  0  0  0  0  0  0
   18.8659   -7.1668  -14.0822 O   0  0  0  0  0  0  0  0  0  0  0  0
   23.2821   -6.6649  -17.0317 N   0  0  0  0  0  0  0  0  0  0  0  0
   24.5763   -6.0496  -17.1439 C   0  0  1  0  0  0  0  0  0  0  0  0
   24.9208   -5.9815  -18.6136 C   0  0  0  0  0  0  0  0  0  0  0  0
   25.1214   -7.6882  -19.2054 S   0  0  0  0  0  0  0  0  0  0  0  0
   24.6022   -4.6670  -16.5879 C   0  0  0  0  0  0  0  0  0  0  0  0
   25.7367   -3.9528  -16.2962 O   0  0  0  0  0  0  0  0  0  0  0  0
   23.4610   -4.1396  -16.3803 O   0  0  0  0  0  0  0  0  0  0  0  0
  2  1  1  0
  3  5  1  0
  3  2  1  0
  4  3  2  0
  6  7  1  1
  6  5  1  0
  7  8  1  0
  8  9  2  0
  8 12  1  0
 10  6  1  0
 10 11  2  0
 13 10  1  0
 14 13  1  0
 14 15  1  6
 16 15  1  0
 17 14  1  0
 17 18  1  0
 19 17  2  0
M  END
$$$$
