GDC.pdb
     RDKit          3D

 19 18  0  0  1  0  0  0  0  0999 V2000
   21.3554  -29.2850  -10.5152 N   0  0  0  0  0  0  0  0  0  0  0  0
   21.0349  -28.5627  -11.7024 C   0  0  0  0  0  0  0  0  0  0  0  0
   20.5401  -27.1892  -11.4238 C   0  0  0  0  0  0  0  0  0  0  0  0
   20.8784  -26.5464  -10.3925 O   0  0  0  0  0  0  0  0  0  0  0  0
   19.6444  -26.5133  -12.3196 N   0  0  0  0  0  0  0  0  0  0  0  0
   19.1935  -25.1583  -12.1146 C   0  0  1  0  0  0  0  0  0  0  0  0
   18.8724  -24.4546  -13.4182 C   0  0  0  0  0  0  0  0  0  0  0  0
   18.5589  -23.0224  -13.1818 C   0  0  0  0  0  0  0  0  0  0  0  0
   18.2227  -22.2366  -14.0913 O   0  0  0  0  0  0  0  0  0  0  0  0
   18.0592  -25.1748  -11.1738 C   0  0  0  0  0  0  0  0  0  0  0  0
   16.9574  -25.7589  -11.4098 O   0  0  0  0  0  0  0  0  0  0  0  0
   18.6508  -22.5474  -11.8824 O   0  0  0  0  0  0  0  0  0  0  0  0
   18.1450  -24.5039   -9.8915 N   0  0  0  0  0  0  0  0  0  0  0  0
   17.0594  -24.4878   -8.9496 C   0  0  1  0  0  0  0  0  0  0  0  0
   17.6419  -24.1744   -7.5909 C   0  0  0  0  0  0  0  0  0  0  0  0
   19.1536  -25.1661   -7.4047 S   0  0  0  0  0  0  0  0  0  0  0  0
   16.0356  -23.4544   -9.2745 C   0  0  0  0  0  0  0  0  0  0  0  0
   14.8221  -23.3192   -8.6491 O   0  0  0  0  0  0  0  0  0  0  0  0
   16.3481  -22.6513  -10.2130 O   0  0  0  0  0  0  0  0  0  0  0  0
  2  1  1  0
  3  5  1  0
  3  2  1  0
  4  3  2  0
  6  7  1  6
  6  5  1  0
  7  8  1  0
  8  9  2  0
  8 12  1  0
 10  6  1  0
 10 11  2  0
 13 10  1  0
 14 13  1  0
 14 15  1  1
 16 15  1  0
 17 14  1  0
 17 18  1  0
 19 17  2  0
M  END
$$$$
