GDC.pdb
     RDKit          3D

 19 18  0  0  1  0  0  0  0  0999 V2000
   15.1421   -9.4059  -15.2681 N   0  0  0  0  0  0  0  0  0  0  0  0
   14.9673   -8.2280  -16.0529 C   0  0  0  0  0  0  0  0  0  0  0  0
   16.2336   -7.4756  -16.2504 C   0  0  0  0  0  0  0  0  0  0  0  0
   17.2180   -7.9627  -16.8708 O   0  0  0  0  0  0  0  0  0  0  0  0
   16.4072   -6.1435  -15.7436 N   0  0  0  0  0  0  0  0  0  0  0  0
   17.5857   -5.3496  -15.9923 C   0  0  1  0  0  0  0  0  0  0  0  0
   17.2660   -3.8757  -16.1447 C   0  0  0  0  0  0  0  0  0  0  0  0
   18.4905   -3.1003  -16.4681 C   0  0  0  0  0  0  0  0  0  0  0  0
   18.7367   -1.9769  -15.9834 O   0  0  0  0  0  0  0  0  0  0  0  0
   18.5703   -5.6189  -14.9292 C   0  0  0  0  0  0  0  0  0  0  0  0
   18.3225   -5.4895  -13.6912 O   0  0  0  0  0  0  0  0  0  0  0  0
   19.3950   -3.6628  -17.3558 O   0  0  0  0  0  0  0  0  0  0  0  0
   19.9137   -6.0582  -15.2518 N   0  0  0  0  0  0  0  0  0  0  0  0
   20.8606   -6.4614  -14.2484 C   0  0  1  0  0  0  0  0  0  0  0  0
   21.6754   -7.5968  -14.8231 C   0  0  0  0  0  0  0  0  0  0  0  0
   22.7214   -8.2473  -13.4866 S   0  0  0  0  0  0  0  0  0  0  0  0
   21.7893   -5.3609  -13.8636 C   0  0  0  0  0  0  0  0  0  0  0  0
   22.3346   -5.1857  -12.6169 O   0  0  0  0  0  0  0  0  0  0  0  0
   22.0760   -4.5373  -14.7925 O   0  0  0  0  0  0  0  0  0  0  0  0
  2  1  1  0
  3  5  1  0
  3  2  1  0
  4  3  2  0
  6  7  1  1
  6  5  1  0
  7  8  1  0
  8  9  2  0
  8 12  1  0
 10  6  1  0
 10 11  2  0
 13 10  1  0
 14 13  1  0
 14 15  1  6
 16 15  1  0
 17 14  1  0
 17 18  1  0
 19 17  2  0
M  END
$$$$
