GDC.pdb
     RDKit          3D

 19 18  0  0  1  0  0  0  0  0999 V2000
   17.4799  -14.7726  -15.5464 N   0  0  0  0  0  0  0  0  0  0  0  0
   16.8690  -13.6449  -16.1701 C   0  0  0  0  0  0  0  0  0  0  0  0
   17.8608  -12.6926  -16.7342 C   0  0  0  0  0  0  0  0  0  0  0  0
   18.8702  -13.0769  -17.3858 O   0  0  0  0  0  0  0  0  0  0  0  0
   17.7233  -11.2730  -16.5685 N   0  0  0  0  0  0  0  0  0  0  0  0
   18.6442  -10.3174  -17.1341 C   0  0  1  0  0  0  0  0  0  0  0  0
   18.0160   -9.4997  -18.2450 C   0  0  0  0  0  0  0  0  0  0  0  0
   19.0108   -8.5775  -18.8494 C   0  0  0  0  0  0  0  0  0  0  0  0
   18.9105   -7.3346  -18.7990 O   0  0  0  0  0  0  0  0  0  0  0  0
   19.1917   -9.4875  -16.0462 C   0  0  0  0  0  0  0  0  0  0  0  0
   18.4822   -8.9727  -15.1284 O   0  0  0  0  0  0  0  0  0  0  0  0
   20.0985   -9.1387  -19.5012 O   0  0  0  0  0  0  0  0  0  0  0  0
   20.6117   -9.2068  -15.9656 N   0  0  0  0  0  0  0  0  0  0  0  0
   21.1863   -8.4042  -14.9208 C   0  0  1  0  0  0  0  0  0  0  0  0
   22.6726   -8.6768  -14.9042 C   0  0  0  0  0  0  0  0  0  0  0  0
   22.9106  -10.3579  -14.2556 S   0  0  0  0  0  0  0  0  0  0  0  0
   20.9761   -6.9449  -15.1394 C   0  0  0  0  0  0  0  0  0  0  0  0
   20.9421   -5.9939  -14.1512 O   0  0  0  0  0  0  0  0  0  0  0  0
   20.8189   -6.5908  -16.3532 O   0  0  0  0  0  0  0  0  0  0  0  0
  2  1  1  0
  3  5  1  0
  3  2  1  0
  4  3  2  0
  6  7  1  6
  6  5  1  0
  7  8  1  0
  8  9  2  0
  8 12  1  0
 10  6  1  0
 10 11  2  0
 13 10  1  0
 14 13  1  0
 14 15  1  6
 16 15  1  0
 17 14  1  0
 17 18  1  0
 19 17  2  0
M  END
$$$$
