GDC.pdb
     RDKit          3D

 19 18  0  0  1  0  0  0  0  0999 V2000
   20.0091  -11.9156  -20.4851 N   0  0  0  0  0  0  0  0  0  0  0  0
   19.9031  -10.5290  -20.1690 C   0  0  0  0  0  0  0  0  0  0  0  0
   21.0979  -10.0093  -19.4542 C   0  0  0  0  0  0  0  0  0  0  0  0
   21.4860  -10.4868  -18.3530 O   0  0  0  0  0  0  0  0  0  0  0  0
   21.8824   -8.9285  -19.9814 N   0  0  0  0  0  0  0  0  0  0  0  0
   23.0415   -8.3916  -19.3112 C   0  0  1  0  0  0  0  0  0  0  0  0
   24.1066   -7.9276  -20.2847 C   0  0  0  0  0  0  0  0  0  0  0  0
   25.3367   -7.5127  -19.5635 C   0  0  0  0  0  0  0  0  0  0  0  0
   25.7348   -8.0637  -18.5169 O   0  0  0  0  0  0  0  0  0  0  0  0
   22.6038   -7.3304  -18.3867 C   0  0  0  0  0  0  0  0  0  0  0  0
   21.7143   -6.4712  -18.6721 O   0  0  0  0  0  0  0  0  0  0  0  0
   26.0679   -6.4580  -20.0885 O   0  0  0  0  0  0  0  0  0  0  0  0
   23.1843   -7.2085  -17.0640 N   0  0  0  0  0  0  0  0  0  0  0  0
   22.8312   -6.1521  -16.1555 C   0  0  1  0  0  0  0  0  0  0  0  0
   22.4165   -6.7941  -14.8519 C   0  0  0  0  0  0  0  0  0  0  0  0
   21.9926   -5.4563  -13.6969 S   0  0  0  0  0  0  0  0  0  0  0  0
   23.9676   -5.2262  -15.8857 C   0  0  0  0  0  0  0  0  0  0  0  0
   25.2952   -5.5393  -16.0332 O   0  0  0  0  0  0  0  0  0  0  0  0
   23.6408   -4.0607  -15.4880 O   0  0  0  0  0  0  0  0  0  0  0  0
  2  1  1  0
  3  5  1  0
  3  2  1  0
  4  3  2  0
  6  7  1  6
  6  5  1  0
  7  8  1  0
  8  9  2  0
  8 12  1  0
 10  6  1  0
 10 11  2  0
 13 10  1  0
 14 13  1  0
 14 15  1  1
 16 15  1  0
 17 14  1  0
 17 18  1  0
 19 17  2  0
M  END
$$$$
