GDC.pdb
     RDKit          3D

 19 18  0  0  1  0  0  0  0  0999 V2000
   14.7818  -13.2979  -13.0917 N   0  0  0  0  0  0  0  0  0  0  0  0
   14.3505  -11.9418  -13.1855 C   0  0  0  0  0  0  0  0  0  0  0  0
   15.2893  -10.9934  -12.5315 C   0  0  0  0  0  0  0  0  0  0  0  0
   15.7425  -11.1856  -11.3701 O   0  0  0  0  0  0  0  0  0  0  0  0
   15.7363   -9.7985  -13.1903 N   0  0  0  0  0  0  0  0  0  0  0  0
   16.6256   -8.8422  -12.5772 C   0  0  1  0  0  0  0  0  0  0  0  0
   17.5247   -8.1603  -13.5892 C   0  0  0  0  0  0  0  0  0  0  0  0
   18.5278   -7.3013  -12.9101 C   0  0  0  0  0  0  0  0  0  0  0  0
   18.8848   -7.4713  -11.7264 O   0  0  0  0  0  0  0  0  0  0  0  0
   15.8245   -7.8919  -11.7851 C   0  0  0  0  0  0  0  0  0  0  0  0
   14.8345   -7.2478  -12.2497 O   0  0  0  0  0  0  0  0  0  0  0  0
   19.0853   -6.2610  -13.6380 O   0  0  0  0  0  0  0  0  0  0  0  0
   16.1352   -7.6351  -10.3926 N   0  0  0  0  0  0  0  0  0  0  0  0
   15.3579   -6.7443   -9.5752 C   0  0  1  0  0  0  0  0  0  0  0  0
   15.5269   -7.1822   -8.1388 C   0  0  0  0  0  0  0  0  0  0  0  0
   14.5784   -8.7175   -7.9226 S   0  0  0  0  0  0  0  0  0  0  0  0
   15.8023   -5.3264   -9.6922 C   0  0  0  0  0  0  0  0  0  0  0  0
   15.1119   -4.2394   -9.2191 O   0  0  0  0  0  0  0  0  0  0  0  0
   16.9163   -5.1497  -10.2850 O   0  0  0  0  0  0  0  0  0  0  0  0
  2  1  1  0
  3  5  1  0
  3  2  1  0
  4  3  2  0
  6  7  1  6
  6  5  1  0
  7  8  1  0
  8  9  2  0
  8 12  1  0
 10  6  1  0
 10 11  2  0
 13 10  1  0
 14 13  1  0
 14 15  1  1
 16 15  1  0
 17 14  1  0
 17 18  1  0
 19 17  2  0
M  END
$$$$
