GDC.pdb
     RDKit          3D

 19 18  0  0  1  0  0  0  0  0999 V2000
   19.2997  -13.6586  -15.6652 N   0  0  0  0  0  0  0  0  0  0  0  0
   18.4470  -13.0122  -14.7223 C   0  0  0  0  0  0  0  0  0  0  0  0
   18.1779  -11.5924  -15.0694 C   0  0  0  0  0  0  0  0  0  0  0  0
   18.6694  -11.0433  -16.0932 O   0  0  0  0  0  0  0  0  0  0  0  0
   17.3369  -10.7622  -14.2539 N   0  0  0  0  0  0  0  0  0  0  0  0
   16.9615   -9.4174  -14.6169 C   0  0  1  0  0  0  0  0  0  0  0  0
   15.5658   -9.0616  -14.1449 C   0  0  0  0  0  0  0  0  0  0  0  0
   14.5575   -9.9734  -14.7428 C   0  0  0  0  0  0  0  0  0  0  0  0
   14.2621   -9.9657  -15.9552 O   0  0  0  0  0  0  0  0  0  0  0  0
   17.9924   -8.4884  -14.1203 C   0  0  0  0  0  0  0  0  0  0  0  0
   18.2742   -8.3415  -12.8916 O   0  0  0  0  0  0  0  0  0  0  0  0
   13.9186  -10.8704  -13.9003 O   0  0  0  0  0  0  0  0  0  0  0  0
   18.7606   -7.6690  -15.0367 N   0  0  0  0  0  0  0  0  0  0  0  0
   19.7764   -6.7533  -14.5945 C   0  0  1  0  0  0  0  0  0  0  0  0
   21.0737   -7.1614  -15.2534 C   0  0  0  0  0  0  0  0  0  0  0  0
   21.6195   -8.7077  -14.4696 S   0  0  0  0  0  0  0  0  0  0  0  0
   19.4781   -5.3425  -14.9719 C   0  0  0  0  0  0  0  0  0  0  0  0
   19.9907   -4.2321  -14.3502 O   0  0  0  0  0  0  0  0  0  0  0  0
   18.6798   -5.1963  -15.9541 O   0  0  0  0  0  0  0  0  0  0  0  0
  2  1  1  0
  3  5  1  0
  3  2  1  0
  4  3  2  0
  6  7  1  1
  6  5  1  0
  7  8  1  0
  8  9  2  0
  8 12  1  0
 10  6  1  0
 10 11  2  0
 13 10  1  0
 14 13  1  0
 14 15  1  6
 16 15  1  0
 17 14  1  0
 17 18  1  0
 19 17  2  0
M  END
$$$$
