GDC.pdb
     RDKit          3D

 19 18  0  0  1  0  0  0  0  0999 V2000
   15.7686   -9.6717  -15.7726 N   0  0  0  0  0  0  0  0  0  0  0  0
   15.3810   -8.4855  -15.0823 C   0  0  0  0  0  0  0  0  0  0  0  0
   16.2440   -7.3210  -15.4110 C   0  0  0  0  0  0  0  0  0  0  0  0
   17.2002   -7.3997  -16.2300 O   0  0  0  0  0  0  0  0  0  0  0  0
   16.0350   -6.0333  -14.8114 N   0  0  0  0  0  0  0  0  0  0  0  0
   16.8346   -4.8745  -15.1263 C   0  0  1  0  0  0  0  0  0  0  0  0
   16.0419   -3.5857  -15.0362 C   0  0  0  0  0  0  0  0  0  0  0  0
   16.8640   -2.4284  -15.4721 C   0  0  0  0  0  0  0  0  0  0  0  0
   17.6250   -2.4635  -16.4606 O   0  0  0  0  0  0  0  0  0  0  0  0
   18.0305   -4.8771  -14.2650 C   0  0  0  0  0  0  0  0  0  0  0  0
   17.9879   -4.9935  -13.0019 O   0  0  0  0  0  0  0  0  0  0  0  0
   16.7741   -1.2582  -14.7337 O   0  0  0  0  0  0  0  0  0  0  0  0
   19.3577   -4.7422  -14.8326 N   0  0  0  0  0  0  0  0  0  0  0  0
   20.5475   -4.7141  -14.0266 C   0  0  1  0  0  0  0  0  0  0  0  0
   21.4874   -5.7664  -14.5678 C   0  0  0  0  0  0  0  0  0  0  0  0
   22.9799   -5.7486  -13.5307 S   0  0  0  0  0  0  0  0  0  0  0  0
   21.2387   -3.3944  -14.0731 C   0  0  0  0  0  0  0  0  0  0  0  0
   21.0417   -2.4316  -15.0304 O   0  0  0  0  0  0  0  0  0  0  0  0
   22.0713   -3.1797  -13.1328 O   0  0  0  0  0  0  0  0  0  0  0  0
  2  1  1  0
  3  5  1  0
  3  2  1  0
  4  3  2  0
  6  7  1  1
  6  5  1  0
  7  8  1  0
  8  9  2  0
  8 12  1  0
 10  6  1  0
 10 11  2  0
 13 10  1  0
 14 13  1  0
 14 15  1  6
 16 15  1  0
 17 14  1  0
 17 18  1  0
 19 17  2  0
M  END
$$$$
