GDC.pdb
     RDKit          3D

 19 18  0  0  1  0  0  0  0  0999 V2000
   21.9073  -11.4741  -17.9104 N   0  0  0  0  0  0  0  0  0  0  0  0
   21.9174  -10.0791  -18.2067 C   0  0  0  0  0  0  0  0  0  0  0  0
   21.4666   -9.2450  -17.0623 C   0  0  0  0  0  0  0  0  0  0  0  0
   20.5060   -9.5832  -16.3180 O   0  0  0  0  0  0  0  0  0  0  0  0
   22.1046   -8.0004  -16.7378 N   0  0  0  0  0  0  0  0  0  0  0  0
   21.6146   -7.1013  -15.7215 C   0  0  1  0  0  0  0  0  0  0  0  0
   22.7162   -6.2436  -15.1313 C   0  0  0  0  0  0  0  0  0  0  0  0
   22.1948   -5.4025  -14.0240 C   0  0  0  0  0  0  0  0  0  0  0  0
   21.5090   -5.8559  -13.0851 O   0  0  0  0  0  0  0  0  0  0  0  0
   20.5068   -6.3094  -16.2851 C   0  0  0  0  0  0  0  0  0  0  0  0
   20.5873   -5.6615  -17.3735 O   0  0  0  0  0  0  0  0  0  0  0  0
   22.4897   -4.0479  -14.0485 O   0  0  0  0  0  0  0  0  0  0  0  0
   19.2292   -6.2261  -15.6051 N   0  0  0  0  0  0  0  0  0  0  0  0
   18.1320   -5.4451  -16.1071 C   0  0  1  0  0  0  0  0  0  0  0  0
   16.8568   -6.1779  -15.7601 C   0  0  0  0  0  0  0  0  0  0  0  0
   16.8459   -7.7297  -16.7062 S   0  0  0  0  0  0  0  0  0  0  0  0
   18.0745   -4.0842  -15.5018 C   0  0  0  0  0  0  0  0  0  0  0  0
   17.7355   -2.9350  -16.1699 O   0  0  0  0  0  0  0  0  0  0  0  0
   18.3706   -4.0234  -14.2640 O   0  0  0  0  0  0  0  0  0  0  0  0
  2  1  1  0
  3  5  1  0
  3  2  1  0
  4  3  2  0
  6  7  1  6
  6  5  1  0
  7  8  1  0
  8  9  2  0
  8 12  1  0
 10  6  1  0
 10 11  2  0
 13 10  1  0
 14 13  1  0
 14 15  1  1
 16 15  1  0
 17 14  1  0
 17 18  1  0
 19 17  2  0
M  END
$$$$
