GDC.pdb
     RDKit          3D

 19 18  0  0  1  0  0  0  0  0999 V2000
   15.2538   -8.5273   -8.8481 N   0  0  0  0  0  0  0  0  0  0  0  0
   15.1498   -7.6913   -9.9987 C   0  0  0  0  0  0  0  0  0  0  0  0
   16.2170   -7.9545  -10.9990 C   0  0  0  0  0  0  0  0  0  0  0  0
   17.2931   -8.5403  -10.6991 O   0  0  0  0  0  0  0  0  0  0  0  0
   16.0807   -7.5549  -12.3713 N   0  0  0  0  0  0  0  0  0  0  0  0
   17.1304   -7.7101  -13.3487 C   0  0  1  0  0  0  0  0  0  0  0  0
   16.5920   -7.8028  -14.7626 C   0  0  0  0  0  0  0  0  0  0  0  0
   15.9137   -9.1050  -14.9851 C   0  0  0  0  0  0  0  0  0  0  0  0
   16.3393  -10.1851  -14.5271 O   0  0  0  0  0  0  0  0  0  0  0  0
   18.1048   -6.6183  -13.1733 C   0  0  0  0  0  0  0  0  0  0  0  0
   17.7787   -5.4168  -12.9265 O   0  0  0  0  0  0  0  0  0  0  0  0
   14.7526   -9.1068  -15.7431 O   0  0  0  0  0  0  0  0  0  0  0  0
   19.5292   -6.8671  -13.2774 N   0  0  0  0  0  0  0  0  0  0  0  0
   20.5131   -5.8363  -13.0896 C   0  0  1  0  0  0  0  0  0  0  0  0
   21.6399   -6.4273  -12.2744 C   0  0  0  0  0  0  0  0  0  0  0  0
   22.8715   -5.1157  -12.0166 S   0  0  0  0  0  0  0  0  0  0  0  0
   21.0729   -5.3384  -14.3782 C   0  0  0  0  0  0  0  0  0  0  0  0
   21.5476   -4.0700  -14.5968 O   0  0  0  0  0  0  0  0  0  0  0  0
   21.0955   -6.1867  -15.3286 O   0  0  0  0  0  0  0  0  0  0  0  0
  2  1  1  0
  3  5  1  0
  3  2  1  0
  4  3  2  0
  6  7  1  6
  6  5  1  0
  7  8  1  0
  8  9  2  0
  8 12  1  0
 10  6  1  0
 10 11  2  0
 13 10  1  0
 14 13  1  0
 14 15  1  1
 16 15  1  0
 17 14  1  0
 17 18  1  0
 19 17  2  0
M  END
$$$$
