GDC.pdb
     RDKit          3D

 19 18  0  0  1  0  0  0  0  0999 V2000
   13.2041  -11.5460   -9.0568 N   0  0  0  0  0  0  0  0  0  0  0  0
   12.8932  -10.9552  -10.3170 C   0  0  0  0  0  0  0  0  0  0  0  0
   13.7128   -9.7492  -10.6043 C   0  0  0  0  0  0  0  0  0  0  0  0
   13.6583   -9.1441  -11.7098 O   0  0  0  0  0  0  0  0  0  0  0  0
   14.6171   -9.2018   -9.6327 N   0  0  0  0  0  0  0  0  0  0  0  0
   15.3654   -7.9868   -9.8442 C   0  0  1  0  0  0  0  0  0  0  0  0
   15.7016   -7.2834   -8.5443 C   0  0  0  0  0  0  0  0  0  0  0  0
   16.3336   -5.9651   -8.8052 C   0  0  0  0  0  0  0  0  0  0  0  0
   17.4300   -5.6234   -8.3167 O   0  0  0  0  0  0  0  0  0  0  0  0
   16.5558   -8.2997  -10.6549 C   0  0  0  0  0  0  0  0  0  0  0  0
   17.4951   -9.0577  -10.2625 O   0  0  0  0  0  0  0  0  0  0  0  0
   15.6601   -5.0788   -9.6320 O   0  0  0  0  0  0  0  0  0  0  0  0
   16.7213   -7.7409  -11.9823 N   0  0  0  0  0  0  0  0  0  0  0  0
   17.8787   -7.9987  -12.7945 C   0  0  1  0  0  0  0  0  0  0  0  0
   17.4421   -8.8829  -13.9396 C   0  0  0  0  0  0  0  0  0  0  0  0
   17.1487  -10.5443  -13.2633 S   0  0  0  0  0  0  0  0  0  0  0  0
   18.4704   -6.7526  -13.3589 C   0  0  0  0  0  0  0  0  0  0  0  0
   19.7211   -6.6516  -13.9138 O   0  0  0  0  0  0  0  0  0  0  0  0
   17.7260   -5.7200  -13.3035 O   0  0  0  0  0  0  0  0  0  0  0  0
  2  1  1  0
  3  5  1  0
  3  2  1  0
  4  3  2  0
  6  7  1  1
  6  5  1  0
  7  8  1  0
  8  9  2  0
  8 12  1  0
 10  6  1  0
 10 11  2  0
 13 10  1  0
 14 13  1  0
 14 15  1  6
 16 15  1  0
 17 14  1  0
 17 18  1  0
 19 17  2  0
M  END
$$$$
