GDC.pdb
     RDKit          3D

 19 18  0  0  1  0  0  0  0  0999 V2000
   18.7380  -12.3757  -15.8428 N   0  0  0  0  0  0  0  0  0  0  0  0
   17.9931  -11.4570  -15.0460 C   0  0  0  0  0  0  0  0  0  0  0  0
   18.1728  -10.0458  -15.4761 C   0  0  0  0  0  0  0  0  0  0  0  0
   19.1350   -9.6800  -16.2051 O   0  0  0  0  0  0  0  0  0  0  0  0
   17.2544   -9.0142  -15.0840 N   0  0  0  0  0  0  0  0  0  0  0  0
   17.4189   -7.6279  -15.4478 C   0  0  1  0  0  0  0  0  0  0  0  0
   16.1010   -6.8799  -15.4784 C   0  0  0  0  0  0  0  0  0  0  0  0
   15.1713   -7.4879  -16.4640 C   0  0  0  0  0  0  0  0  0  0  0  0
   15.4019   -7.5237  -17.6900 O   0  0  0  0  0  0  0  0  0  0  0  0
   18.4083   -7.0159  -14.5429 C   0  0  0  0  0  0  0  0  0  0  0  0
   18.4259   -7.2048  -13.2880 O   0  0  0  0  0  0  0  0  0  0  0  0
   13.9914   -8.0366  -15.9850 O   0  0  0  0  0  0  0  0  0  0  0  0
   19.4437   -6.1394  -15.0543 N   0  0  0  0  0  0  0  0  0  0  0  0
   20.4269   -5.5222  -14.2067 C   0  0  1  0  0  0  0  0  0  0  0  0
   21.7017   -6.3239  -14.3318 C   0  0  0  0  0  0  0  0  0  0  0  0
   22.9549   -5.5199  -13.2895 S   0  0  0  0  0  0  0  0  0  0  0  0
   20.7148   -4.1129  -14.5972 C   0  0  0  0  0  0  0  0  0  0  0  0
   21.0191   -3.0973  -13.7265 O   0  0  0  0  0  0  0  0  0  0  0  0
   20.6646   -3.8706  -15.8471 O   0  0  0  0  0  0  0  0  0  0  0  0
  2  1  1  0
  3  5  1  0
  3  2  1  0
  4  3  2  0
  6  7  1  1
  6  5  1  0
  7  8  1  0
  8  9  2  0
  8 12  1  0
 10  6  1  0
 10 11  2  0
 13 10  1  0
 14 13  1  0
 14 15  1  6
 16 15  1  0
 17 14  1  0
 17 18  1  0
 19 17  2  0
M  END
$$$$
