GDC.pdb
     RDKit          3D

 19 18  0  0  1  0  0  0  0  0999 V2000
   16.8948  -11.4356  -16.8918 N   0  0  0  0  0  0  0  0  0  0  0  0
   16.2919  -10.1432  -16.8906 C   0  0  0  0  0  0  0  0  0  0  0  0
   17.2906   -9.0428  -16.8710 C   0  0  0  0  0  0  0  0  0  0  0  0
   18.5167   -9.2405  -17.0923 O   0  0  0  0  0  0  0  0  0  0  0  0
   16.9125   -7.6848  -16.5986 N   0  0  0  0  0  0  0  0  0  0  0  0
   17.8365   -6.5786  -16.6597 C   0  0  1  0  0  0  0  0  0  0  0  0
   17.1433   -5.2648  -16.9613 C   0  0  0  0  0  0  0  0  0  0  0  0
   18.1320   -4.1653  -17.0988 C   0  0  0  0  0  0  0  0  0  0  0  0
   19.1141   -4.2205  -17.8669 O   0  0  0  0  0  0  0  0  0  0  0  0
   18.6171   -6.5450  -15.4101 C   0  0  0  0  0  0  0  0  0  0  0  0
   18.0979   -6.6121  -14.2539 O   0  0  0  0  0  0  0  0  0  0  0  0
   17.9441   -3.0282  -16.3278 O   0  0  0  0  0  0  0  0  0  0  0  0
   20.0619   -6.4293  -15.4370 N   0  0  0  0  0  0  0  0  0  0  0  0
   20.8626   -6.4219  -14.2434 C   0  0  1  0  0  0  0  0  0  0  0  0
   21.6515   -7.7105  -14.2178 C   0  0  0  0  0  0  0  0  0  0  0  0
   22.5424   -7.7722  -12.6348 S   0  0  0  0  0  0  0  0  0  0  0  0
   21.8205   -5.2807  -14.2044 C   0  0  0  0  0  0  0  0  0  0  0  0
   22.3323   -4.7161  -13.0636 O   0  0  0  0  0  0  0  0  0  0  0  0
   22.1682   -4.8196  -15.3402 O   0  0  0  0  0  0  0  0  0  0  0  0
  2  1  1  0
  3  5  1  0
  3  2  1  0
  4  3  2  0
  6  7  1  1
  6  5  1  0
  7  8  1  0
  8  9  2  0
  8 12  1  0
 10  6  1  0
 10 11  2  0
 13 10  1  0
 14 13  1  0
 14 15  1  6
 16 15  1  0
 17 14  1  0
 17 18  1  0
 19 17  2  0
M  END
$$$$
