GDC.pdb
     RDKit          3D

 19 18  0  0  1  0  0  0  0  0999 V2000
   13.7006  -10.1352   -9.6075 N   0  0  0  0  0  0  0  0  0  0  0  0
   14.4933   -9.2195   -8.8546 C   0  0  0  0  0  0  0  0  0  0  0  0
   15.1452   -8.1895   -9.7048 C   0  0  0  0  0  0  0  0  0  0  0  0
   15.0116   -8.1667  -10.9590 O   0  0  0  0  0  0  0  0  0  0  0  0
   15.9674   -7.1558   -9.1419 N   0  0  0  0  0  0  0  0  0  0  0  0
   16.5790   -6.1138   -9.9302 C   0  0  1  0  0  0  0  0  0  0  0  0
   16.2897   -4.7309   -9.3810 C   0  0  0  0  0  0  0  0  0  0  0  0
   14.8602   -4.3759   -9.5704 C   0  0  0  0  0  0  0  0  0  0  0  0
   14.2782   -4.4453  -10.6722 O   0  0  0  0  0  0  0  0  0  0  0  0
   18.0205   -6.3963  -10.0505 C   0  0  0  0  0  0  0  0  0  0  0  0
   18.7991   -6.5190   -9.0558 O   0  0  0  0  0  0  0  0  0  0  0  0
   14.1497   -3.9449   -8.4604 O   0  0  0  0  0  0  0  0  0  0  0  0
   18.6430   -6.5528  -11.3504 N   0  0  0  0  0  0  0  0  0  0  0  0
   20.0570   -6.7515  -11.5151 C   0  0  1  0  0  0  0  0  0  0  0  0
   20.2533   -8.1029  -12.1622 C   0  0  0  0  0  0  0  0  0  0  0  0
   22.0400   -8.3404  -12.3958 S   0  0  0  0  0  0  0  0  0  0  0  0
   20.6826   -5.7156  -12.3853 C   0  0  0  0  0  0  0  0  0  0  0  0
   21.9655   -5.2464  -12.2593 O   0  0  0  0  0  0  0  0  0  0  0  0
   19.9355   -5.2527  -13.3079 O   0  0  0  0  0  0  0  0  0  0  0  0
  2  1  1  0
  3  5  1  0
  3  2  1  0
  4  3  2  0
  6  7  1  1
  6  5  1  0
  7  8  1  0
  8  9  2  0
  8 12  1  0
 10  6  1  0
 10 11  2  0
 13 10  1  0
 14 13  1  0
 14 15  1  6
 16 15  1  0
 17 14  1  0
 17 18  1  0
 19 17  2  0
M  END
$$$$
