QCM.pdb
     RDKit          3D

 24 23  0  0  1  0  0  0  0  0999 V2000
    7.5800  -13.1642   14.4010 N   0  0  0  0  0  0  0  0  0  0  0  0
    8.3208  -14.3351   14.8181 C   0  0  0  0  0  0  0  0  0  0  0  0
    9.2990  -14.6378   14.0933 O   0  0  0  0  0  0  0  0  0  0  0  0
    7.9217  -15.0778   16.0089 C   0  0  0  0  0  0  0  0  0  0  0  0
    7.9735  -14.3639   17.2984 C   0  0  0  0  0  0  0  0  0  0  0  0
    9.0352  -14.7556   18.2635 C   0  0  2  0  0  0  0  0  0  0  0  0
    9.8714  -15.7965   17.7357 N   0  0  0  0  0  0  0  0  0  0  0  0
    8.4924  -15.2099   19.5709 C   0  0  0  0  0  0  0  0  0  0  0  0
    7.6240  -14.5325   20.1767 O   0  0  0  0  0  0  0  0  0  0  0  0
    8.9079  -16.4164   20.2143 N   0  0  0  0  0  0  0  0  0  0  0  0
    8.3923  -16.8171   21.5084 C   0  0  1  0  0  0  0  0  0  0  0  0
    8.8309  -18.2766   21.6907 C   0  0  0  0  0  0  0  0  0  0  0  0
   10.5998  -18.4143   21.9070 S   0  0  0  0  0  0  0  0  0  0  0  0
    8.9298  -15.9722   22.5998 C   0  0  0  0  0  0  0  0  0  0  0  0
   10.1097  -15.5312   22.5732 O   0  0  0  0  0  0  0  0  0  0  0  0
    6.6005  -10.8030   28.1113 C   0  0  0  0  0  0  0  0  0  0  0  0
    6.2205  -11.9323   26.7757 S   0  0  0  0  0  0  0  0  0  0  0  0
    7.6055  -12.9506   26.2851 C   0  0  0  0  0  0  0  0  0  0  0  0
    7.3412  -13.8644   25.1277 C   0  0  0  0  0  0  0  0  0  0  0  0
    8.5316  -14.7386   24.7675 C   0  0  2  0  0  0  0  0  0  0  0  0
    8.0993  -15.6548   23.6944 N   0  0  0  0  0  0  0  0  0  0  0  0
    8.9897  -15.5524   25.8963 C   0  0  0  0  0  0  0  0  0  0  0  0
    8.6368  -16.7457   26.0022 O   0  0  0  0  0  0  0  0  0  0  0  0
    9.8199  -15.0042   26.8556 O   0  0  0  0  0  0  0  0  0  0  0  0
  1  2  1  0
  2  4  1  0
  3  2  2  0
  5  4  1  0
  6  5  1  0
  6  7  1  6
  8 10  1  0
  8  6  1  0
  9  8  2  0
 11 10  1  0
 11 14  1  0
 11 12  1  1
 13 12  1  0
 14 15  2  0
 14 21  1  0
 16 17  1  0
 18 17  1  0
 19 18  1  0
 20 19  1  1
 20 22  1  0
 21 20  1  0
 22 24  1  0
 23 22  2  0
M  END
$$$$
