QCM.pdb
     RDKit          3D

 24 23  0  0  1  0  0  0  0  0999 V2000
    9.0704  -12.5286   18.1754 N   0  0  0  0  0  0  0  0  0  0  0  0
    8.0317  -13.2463   17.4684 C   0  0  0  0  0  0  0  0  0  0  0  0
    8.1084  -13.2066   16.2169 O   0  0  0  0  0  0  0  0  0  0  0  0
    6.9902  -13.9555   18.2040 C   0  0  0  0  0  0  0  0  0  0  0  0
    7.1172  -14.0070   19.6725 C   0  0  0  0  0  0  0  0  0  0  0  0
    8.1250  -14.9377   20.2472 C   0  0  2  0  0  0  0  0  0  0  0  0
    8.2616  -16.1253   19.4523 N   0  0  0  0  0  0  0  0  0  0  0  0
    7.8116  -15.3428   21.6430 C   0  0  0  0  0  0  0  0  0  0  0  0
    7.5270  -14.4822   22.5137 O   0  0  0  0  0  0  0  0  0  0  0  0
    7.8115  -16.7029   22.0819 N   0  0  0  0  0  0  0  0  0  0  0  0
    7.5689  -17.0670   23.4638 C   0  0  1  0  0  0  0  0  0  0  0  0
    7.0320  -18.5042   23.4211 C   0  0  0  0  0  0  0  0  0  0  0  0
    6.8025  -19.1743   25.0621 S   0  0  0  0  0  0  0  0  0  0  0  0
    8.8057  -16.9977   24.2758 C   0  0  0  0  0  0  0  0  0  0  0  0
    9.9093  -17.4161   23.8347 O   0  0  0  0  0  0  0  0  0  0  0  0
    9.3730  -12.1763   28.5733 C   0  0  0  0  0  0  0  0  0  0  0  0
   10.8241  -13.1409   28.9831 S   0  0  0  0  0  0  0  0  0  0  0  0
   10.8758  -14.7334   28.1725 C   0  0  0  0  0  0  0  0  0  0  0  0
    9.8159  -14.9514   27.1363 C   0  0  0  0  0  0  0  0  0  0  0  0
    9.9479  -16.2811   26.4115 C   0  0  2  0  0  0  0  0  0  0  0  0
    8.7447  -16.4498   25.5738 N   0  0  0  0  0  0  0  0  0  0  0  0
   10.0161  -17.4167   27.3345 C   0  0  0  0  0  0  0  0  0  0  0  0
    8.9773  -18.0207   27.6748 O   0  0  0  0  0  0  0  0  0  0  0  0
   11.2353  -17.8309   27.8366 O   0  0  0  0  0  0  0  0  0  0  0  0
  1  2  1  0
  2  4  1  0
  3  2  2  0
  5  4  1  0
  6  5  1  0
  6  7  1  6
  8 10  1  0
  8  6  1  0
  9  8  2  0
 11 10  1  0
 11 14  1  0
 11 12  1  6
 13 12  1  0
 14 15  2  0
 14 21  1  0
 16 17  1  0
 18 17  1  0
 19 18  1  0
 20 19  1  1
 20 22  1  0
 21 20  1  0
 22 24  1  0
 23 22  2  0
M  END
$$$$
