QCM.pdb
     RDKit          3D

 24 23  0  0  1  0  0  0  0  0999 V2000
    7.6836  -12.4569   17.4759 N   0  0  0  0  0  0  0  0  0  0  0  0
    7.3559  -13.8663   17.4717 C   0  0  0  0  0  0  0  0  0  0  0  0
    6.4187  -14.1971   16.7061 O   0  0  0  0  0  0  0  0  0  0  0  0
    8.0952  -14.8004   18.3140 C   0  0  0  0  0  0  0  0  0  0  0  0
    9.1680  -14.2433   19.1590 C   0  0  0  0  0  0  0  0  0  0  0  0
    9.8184  -15.1529   20.1398 C   0  0  2  0  0  0  0  0  0  0  0  0
    9.9624  -16.4811   19.6142 N   0  0  0  0  0  0  0  0  0  0  0  0
    9.0832  -15.2375   21.4292 C   0  0  0  0  0  0  0  0  0  0  0  0
    8.8059  -14.1988   22.0805 O   0  0  0  0  0  0  0  0  0  0  0  0
    8.6509  -16.4724   22.0042 N   0  0  0  0  0  0  0  0  0  0  0  0
    7.9782  -16.5320   23.2867 C   0  0  1  0  0  0  0  0  0  0  0  0
    7.3679  -17.9381   23.3649 C   0  0  0  0  0  0  0  0  0  0  0  0
    6.5172  -18.2055   24.9139 S   0  0  0  0  0  0  0  0  0  0  0  0
    8.9167  -16.3090   24.4107 C   0  0  0  0  0  0  0  0  0  0  0  0
   10.0807  -16.7914   24.4044 O   0  0  0  0  0  0  0  0  0  0  0  0
    6.0202  -12.0240   26.1714 C   0  0  0  0  0  0  0  0  0  0  0  0
    7.5155  -11.7194   27.1067 S   0  0  0  0  0  0  0  0  0  0  0  0
    8.8354  -12.8672   26.7376 C   0  0  0  0  0  0  0  0  0  0  0  0
    8.7724  -14.1657   27.4822 C   0  0  0  0  0  0  0  0  0  0  0  0
    9.3486  -15.3355   26.7009 C   0  0  2  0  0  0  0  0  0  0  0  0
    8.4957  -15.5378   25.5137 N   0  0  0  0  0  0  0  0  0  0  0  0
    9.3458  -16.5799   27.4741 C   0  0  0  0  0  0  0  0  0  0  0  0
    8.4403  -17.4248   27.3126 O   0  0  0  0  0  0  0  0  0  0  0  0
   10.3494  -16.8300   28.3907 O   0  0  0  0  0  0  0  0  0  0  0  0
  1  2  1  0
  2  4  1  0
  3  2  2  0
  5  4  1  0
  6  5  1  0
  6  7  1  6
  8 10  1  0
  8  6  1  0
  9  8  2  0
 11 10  1  0
 11 14  1  0
 11 12  1  1
 13 12  1  0
 14 15  2  0
 14 21  1  0
 16 17  1  0
 18 17  1  0
 19 18  1  0
 20 19  1  1
 20 22  1  0
 21 20  1  0
 22 24  1  0
 23 22  2  0
M  END
$$$$
