QCM.pdb
     RDKit          3D

 24 23  0  0  1  0  0  0  0  0999 V2000
   14.4592  -19.1086   20.9631 N   0  0  0  0  0  0  0  0  0  0  0  0
   14.5942  -19.0397   19.5241 C   0  0  0  0  0  0  0  0  0  0  0  0
   15.2949  -19.9427   19.0069 O   0  0  0  0  0  0  0  0  0  0  0  0
   13.9388  -17.9769   18.7694 C   0  0  0  0  0  0  0  0  0  0  0  0
   12.8160  -17.2788   19.4232 C   0  0  0  0  0  0  0  0  0  0  0  0
   11.4865  -17.9453   19.4112 C   0  0  2  0  0  0  0  0  0  0  0  0
   10.7435  -17.6217   18.2261 N   0  0  0  0  0  0  0  0  0  0  0  0
   10.6537  -17.6008   20.5937 C   0  0  0  0  0  0  0  0  0  0  0  0
    9.9375  -16.5679   20.5967 O   0  0  0  0  0  0  0  0  0  0  0  0
   10.6094  -18.3982   21.7789 N   0  0  0  0  0  0  0  0  0  0  0  0
    9.7763  -18.0489   22.9124 C   0  0  1  0  0  0  0  0  0  0  0  0
    8.9719  -19.3154   23.2360 C   0  0  0  0  0  0  0  0  0  0  0  0
   10.0254  -20.6402   23.8101 S   0  0  0  0  0  0  0  0  0  0  0  0
   10.5850  -17.6333   24.0816 C   0  0  0  0  0  0  0  0  0  0  0  0
   11.8070  -17.9254   24.1765 O   0  0  0  0  0  0  0  0  0  0  0  0
    8.8291  -12.5724   28.4286 C   0  0  0  0  0  0  0  0  0  0  0  0
    9.3717  -13.9945   29.3705 S   0  0  0  0  0  0  0  0  0  0  0  0
   10.3795  -15.1324   28.4296 C   0  0  0  0  0  0  0  0  0  0  0  0
    9.8129  -15.5309   27.1012 C   0  0  0  0  0  0  0  0  0  0  0  0
   10.6934  -16.5094   26.3409 C   0  0  2  0  0  0  0  0  0  0  0  0
    9.9707  -16.8929   25.1127 N   0  0  0  0  0  0  0  0  0  0  0  0
   10.9616  -17.7304   27.1048 C   0  0  0  0  0  0  0  0  0  0  0  0
   10.1573  -18.6855   27.0769 O   0  0  0  0  0  0  0  0  0  0  0  0
   12.1116  -17.8358   27.8640 O   0  0  0  0  0  0  0  0  0  0  0  0
  1  2  1  0
  2  4  1  0
  3  2  2  0
  5  4  1  0
  6  5  1  0
  6  7  1  6
  8 10  1  0
  8  6  1  0
  9  8  2  0
 11 10  1  0
 11 14  1  0
 11 12  1  1
 13 12  1  0
 14 15  2  0
 14 21  1  0
 16 17  1  0
 18 17  1  0
 19 18  1  0
 20 19  1  1
 20 22  1  0
 21 20  1  0
 22 24  1  0
 23 22  2  0
M  END
$$$$
