QCM.pdb
     RDKit          3D

 24 23  0  0  1  0  0  0  0  0999 V2000
   12.9713  -16.9226   22.3622 N   0  0  0  0  0  0  0  0  0  0  0  0
   13.0271  -17.0835   20.9252 C   0  0  0  0  0  0  0  0  0  0  0  0
   13.9136  -16.4125   20.3440 O   0  0  0  0  0  0  0  0  0  0  0  0
   12.0980  -17.9789   20.2442 C   0  0  0  0  0  0  0  0  0  0  0  0
   11.1360  -18.7181   21.0830 C   0  0  0  0  0  0  0  0  0  0  0  0
    9.7032  -18.6838   20.6857 C   0  0  2  0  0  0  0  0  0  0  0  0
    9.5299  -18.1103   19.3810 N   0  0  0  0  0  0  0  0  0  0  0  0
    8.8528  -17.9299   21.6444 C   0  0  0  0  0  0  0  0  0  0  0  0
    7.6948  -17.5609   21.3240 O   0  0  0  0  0  0  0  0  0  0  0  0
    9.2800  -17.5810   22.9628 N   0  0  0  0  0  0  0  0  0  0  0  0
    8.3837  -16.9785   23.9295 C   0  0  1  0  0  0  0  0  0  0  0  0
    7.2807  -18.0184   24.1699 C   0  0  0  0  0  0  0  0  0  0  0  0
    7.9391  -19.5391   24.8398 S   0  0  0  0  0  0  0  0  0  0  0  0
    9.0788  -16.6551   25.1967 C   0  0  0  0  0  0  0  0  0  0  0  0
   10.1591  -17.2176   25.5192 O   0  0  0  0  0  0  0  0  0  0  0  0
    5.6267  -11.7095   27.0138 C   0  0  0  0  0  0  0  0  0  0  0  0
    7.0318  -12.2227   26.0309 S   0  0  0  0  0  0  0  0  0  0  0  0
    8.4796  -12.6141   27.0038 C   0  0  0  0  0  0  0  0  0  0  0  0
    8.4286  -13.9329   27.7128 C   0  0  0  0  0  0  0  0  0  0  0  0
    9.3194  -14.9903   27.0808 C   0  0  2  0  0  0  0  0  0  0  0  0
    8.5165  -15.6940   26.0620 N   0  0  0  0  0  0  0  0  0  0  0  0
    9.7840  -15.9835   28.0523 C   0  0  0  0  0  0  0  0  0  0  0  0
   10.6986  -15.7052   28.8559 O   0  0  0  0  0  0  0  0  0  0  0  0
    9.2107  -17.2406   28.0881 O   0  0  0  0  0  0  0  0  0  0  0  0
  1  2  1  0
  2  4  1  0
  3  2  2  0
  5  4  1  0
  6  5  1  0
  6  7  1  6
  8 10  1  0
  8  6  1  0
  9  8  2  0
 11 10  1  0
 11 14  1  0
 11 12  1  1
 13 12  1  0
 14 15  2  0
 14 21  1  0
 16 17  1  0
 18 17  1  0
 19 18  1  0
 20 19  1  1
 20 22  1  0
 21 20  1  0
 22 24  1  0
 23 22  2  0
M  END
$$$$
