QCM.pdb
     RDKit          3D

 24 23  0  0  1  0  0  0  0  0999 V2000
   11.1617  -17.3365   19.2841 N   0  0  0  0  0  0  0  0  0  0  0  0
   10.6679  -17.5758   17.9452 C   0  0  0  0  0  0  0  0  0  0  0  0
   11.5247  -17.9757   17.1207 O   0  0  0  0  0  0  0  0  0  0  0  0
    9.2614  -17.3566   17.6250 C   0  0  0  0  0  0  0  0  0  0  0  0
    8.3494  -17.0749   18.7494 C   0  0  0  0  0  0  0  0  0  0  0  0
    7.7049  -18.2332   19.4237 C   0  0  2  0  0  0  0  0  0  0  0  0
    6.7182  -18.8518   18.5841 N   0  0  0  0  0  0  0  0  0  0  0  0
    7.0600  -17.8692   20.7129 C   0  0  0  0  0  0  0  0  0  0  0  0
    5.8086  -17.7996   20.8086 O   0  0  0  0  0  0  0  0  0  0  0  0
    7.7970  -17.5807   21.9028 N   0  0  0  0  0  0  0  0  0  0  0  0
    7.1447  -17.3451   23.1757 C   0  0  1  0  0  0  0  0  0  0  0  0
    6.3392  -18.6190   23.4657 C   0  0  0  0  0  0  0  0  0  0  0  0
    7.3600  -19.8989   24.1831 S   0  0  0  0  0  0  0  0  0  0  0  0
    8.1247  -17.0918   24.2570 C   0  0  0  0  0  0  0  0  0  0  0  0
    9.2997  -17.5433   24.2020 O   0  0  0  0  0  0  0  0  0  0  0  0
    6.7917  -10.5669   25.5951 C   0  0  0  0  0  0  0  0  0  0  0  0
    6.8219  -12.0193   26.6407 S   0  0  0  0  0  0  0  0  0  0  0  0
    7.8727  -13.3252   26.0193 C   0  0  0  0  0  0  0  0  0  0  0  0
    8.0250  -14.5038   26.9316 C   0  0  0  0  0  0  0  0  0  0  0  0
    8.7127  -15.6890   26.2734 C   0  0  2  0  0  0  0  0  0  0  0  0
    7.7313  -16.3267   25.3743 N   0  0  0  0  0  0  0  0  0  0  0  0
    9.1499  -16.6930   27.2465 C   0  0  0  0  0  0  0  0  0  0  0  0
    8.4845  -17.7346   27.4256 O   0  0  0  0  0  0  0  0  0  0  0  0
   10.3072  -16.4953   27.9756 O   0  0  0  0  0  0  0  0  0  0  0  0
  1  2  1  0
  2  4  1  0
  3  2  2  0
  5  4  1  0
  6  5  1  0
  6  7  1  6
  8 10  1  0
  8  6  1  0
  9  8  2  0
 11 10  1  0
 11 14  1  0
 11 12  1  1
 13 12  1  0
 14 15  2  0
 14 21  1  0
 16 17  1  0
 18 17  1  0
 19 18  1  0
 20 19  1  1
 20 22  1  0
 21 20  1  0
 22 24  1  0
 23 22  2  0
M  END
$$$$
