QCM.pdb
     RDKit          3D

 24 23  0  0  1  0  0  0  0  0999 V2000
    7.8635  -12.5881   18.0995 N   0  0  0  0  0  0  0  0  0  0  0  0
    8.0505  -13.8014   17.3334 C   0  0  0  0  0  0  0  0  0  0  0  0
    7.4887  -13.8200   16.2119 O   0  0  0  0  0  0  0  0  0  0  0  0
    8.8490  -14.8989   17.8688 C   0  0  0  0  0  0  0  0  0  0  0  0
    8.2081  -15.7754   18.8668 C   0  0  0  0  0  0  0  0  0  0  0  0
    9.0292  -16.2221   20.0237 C   0  0  2  0  0  0  0  0  0  0  0  0
    9.3631  -17.6151   19.9285 N   0  0  0  0  0  0  0  0  0  0  0  0
    8.3635  -15.9893   21.3325 C   0  0  0  0  0  0  0  0  0  0  0  0
    8.0907  -14.8240   21.7167 O   0  0  0  0  0  0  0  0  0  0  0  0
    7.9961  -17.0453   22.2226 N   0  0  0  0  0  0  0  0  0  0  0  0
    7.3928  -16.7891   23.5154 C   0  0  1  0  0  0  0  0  0  0  0  0
    6.7867  -18.1280   23.9578 C   0  0  0  0  0  0  0  0  0  0  0  0
    8.0477  -19.2957   24.4486 S   0  0  0  0  0  0  0  0  0  0  0  0
    8.3901  -16.3177   24.5038 C   0  0  0  0  0  0  0  0  0  0  0  0
    9.6243  -16.5114   24.3400 O   0  0  0  0  0  0  0  0  0  0  0  0
    5.6705  -10.6625   26.0112 C   0  0  0  0  0  0  0  0  0  0  0  0
    6.4001  -11.8139   27.1711 S   0  0  0  0  0  0  0  0  0  0  0  0
    7.5482  -12.9575   26.4163 C   0  0  0  0  0  0  0  0  0  0  0  0
    8.1768  -13.9384   27.3582 C   0  0  0  0  0  0  0  0  0  0  0  0
    8.8845  -15.0828   26.6509 C   0  0  2  0  0  0  0  0  0  0  0  0
    7.9458  -15.6357   25.6554 N   0  0  0  0  0  0  0  0  0  0  0  0
    9.2552  -16.1633   27.5681 C   0  0  0  0  0  0  0  0  0  0  0  0
    8.5978  -17.2248   27.5963 O   0  0  0  0  0  0  0  0  0  0  0  0
   10.3401  -16.0163   28.4116 O   0  0  0  0  0  0  0  0  0  0  0  0
  1  2  1  0
  2  4  1  0
  3  2  2  0
  5  4  1  0
  6  5  1  0
  6  7  1  6
  8 10  1  0
  8  6  1  0
  9  8  2  0
 11 10  1  0
 11 14  1  0
 11 12  1  1
 13 12  1  0
 14 15  2  0
 14 21  1  0
 16 17  1  0
 18 17  1  0
 19 18  1  0
 20 19  1  1
 20 22  1  0
 21 20  1  0
 22 24  1  0
 23 22  2  0
M  END
$$$$
