QCM.pdb
     RDKit          3D

 24 23  0  0  1  0  0  0  0  0999 V2000
   11.2180  -15.3677   16.9040 N   0  0  0  0  0  0  0  0  0  0  0  0
   11.2368  -16.7717   16.5543 C   0  0  0  0  0  0  0  0  0  0  0  0
   12.0551  -17.0908   15.6586 O   0  0  0  0  0  0  0  0  0  0  0  0
   10.3492  -17.7139   17.2275 C   0  0  0  0  0  0  0  0  0  0  0  0
    9.5773  -17.2092   18.3785 C   0  0  0  0  0  0  0  0  0  0  0  0
   10.0519  -17.5701   19.7411 C   0  0  2  0  0  0  0  0  0  0  0  0
   10.3958  -18.9611   19.8299 N   0  0  0  0  0  0  0  0  0  0  0  0
    9.0560  -17.2660   20.8022 C   0  0  0  0  0  0  0  0  0  0  0  0
    8.3955  -16.1969   20.7767 O   0  0  0  0  0  0  0  0  0  0  0  0
    8.7859  -18.1441   21.8970 N   0  0  0  0  0  0  0  0  0  0  0  0
    7.9145  -17.7659   22.9918 C   0  0  1  0  0  0  0  0  0  0  0  0
    7.4785  -19.0852   23.6436 C   0  0  0  0  0  0  0  0  0  0  0  0
    6.4244  -18.8074   25.0601 S   0  0  0  0  0  0  0  0  0  0  0  0
    8.6101  -16.9046   23.9757 C   0  0  0  0  0  0  0  0  0  0  0  0
    9.8057  -17.1181   24.3111 O   0  0  0  0  0  0  0  0  0  0  0  0
    6.1811  -10.8808   25.9207 C   0  0  0  0  0  0  0  0  0  0  0  0
    6.8754  -11.6133   27.3989 S   0  0  0  0  0  0  0  0  0  0  0  0
    7.9472  -13.0059   27.0706 C   0  0  0  0  0  0  0  0  0  0  0  0
    7.4915  -13.9092   25.9656 C   0  0  0  0  0  0  0  0  0  0  0  0
    8.5262  -14.9528   25.5766 C   0  0  2  0  0  0  0  0  0  0  0  0
    7.9159  -15.8198   24.5501 N   0  0  0  0  0  0  0  0  0  0  0  0
    8.9179  -15.7999   26.7058 C   0  0  0  0  0  0  0  0  0  0  0  0
    8.1967  -16.7552   27.0621 O   0  0  0  0  0  0  0  0  0  0  0  0
   10.0936  -15.5483   27.3873 O   0  0  0  0  0  0  0  0  0  0  0  0
  1  2  1  0
  2  4  1  0
  3  2  2  0
  5  4  1  0
  6  5  1  0
  6  7  1  6
  8 10  1  0
  8  6  1  0
  9  8  2  0
 11 10  1  0
 11 14  1  0
 11 12  1  1
 13 12  1  0
 14 15  2  0
 14 21  1  0
 16 17  1  0
 18 17  1  0
 19 18  1  0
 20 19  1  1
 20 22  1  0
 21 20  1  0
 22 24  1  0
 23 22  2  0
M  END
$$$$
