QCM.pdb
     RDKit          3D

 24 23  0  0  1  0  0  0  0  0999 V2000
   12.9520  -19.1093   20.0869 N   0  0  0  0  0  0  0  0  0  0  0  0
   12.1071  -17.9765   19.7757 C   0  0  0  0  0  0  0  0  0  0  0  0
   12.7142  -16.9154   19.4942 O   0  0  0  0  0  0  0  0  0  0  0  0
   10.6543  -18.1089   19.7972 C   0  0  0  0  0  0  0  0  0  0  0  0
   10.1029  -19.4581   20.0229 C   0  0  0  0  0  0  0  0  0  0  0  0
    8.6292  -19.6292   19.9182 C   0  0  2  0  0  0  0  0  0  0  0  0
    8.1365  -19.1981   18.6405 N   0  0  0  0  0  0  0  0  0  0  0  0
    7.8834  -18.8997   20.9774 C   0  0  0  0  0  0  0  0  0  0  0  0
    7.3532  -17.7853   20.7388 O   0  0  0  0  0  0  0  0  0  0  0  0
    7.7203  -19.4003   22.3060 N   0  0  0  0  0  0  0  0  0  0  0  0
    7.0024  -18.6613   23.3256 C   0  0  1  0  0  0  0  0  0  0  0  0
    6.7232  -19.6730   24.4454 C   0  0  0  0  0  0  0  0  0  0  0  0
    8.0877  -19.7819   25.5948 S   0  0  0  0  0  0  0  0  0  0  0  0
    7.7964  -17.5217   23.8402 C   0  0  0  0  0  0  0  0  0  0  0  0
    9.0487  -17.4766   23.7083 O   0  0  0  0  0  0  0  0  0  0  0  0
    6.9638  -10.5935   27.7676 C   0  0  0  0  0  0  0  0  0  0  0  0
    6.2172  -11.9625   26.8890 S   0  0  0  0  0  0  0  0  0  0  0  0
    7.4029  -13.1588   26.2898 C   0  0  0  0  0  0  0  0  0  0  0  0
    6.8180  -14.2896   25.5002 C   0  0  0  0  0  0  0  0  0  0  0  0
    7.8575  -15.2908   25.0228 C   0  0  2  0  0  0  0  0  0  0  0  0
    7.1331  -16.4624   24.4933 N   0  0  0  0  0  0  0  0  0  0  0  0
    8.7284  -15.7524   26.1066 C   0  0  0  0  0  0  0  0  0  0  0  0
    8.4110  -16.7440   26.7964 O   0  0  0  0  0  0  0  0  0  0  0  0
    9.9129  -15.0927   26.3742 O   0  0  0  0  0  0  0  0  0  0  0  0
  1  2  1  0
  2  4  1  0
  3  2  2  0
  5  4  1  0
  6  5  1  0
  6  7  1  6
  8 10  1  0
  8  6  1  0
  9  8  2  0
 11 10  1  0
 11 14  1  0
 11 12  1  1
 13 12  1  0
 14 15  2  0
 14 21  1  0
 16 17  1  0
 18 17  1  0
 19 18  1  0
 20 19  1  1
 20 22  1  0
 21 20  1  0
 22 24  1  0
 23 22  2  0
M  END
$$$$
