QCM.pdb
     RDKit          3D

 24 23  0  0  1  0  0  0  0  0999 V2000
    7.5007  -15.6715   16.0855 N   0  0  0  0  0  0  0  0  0  0  0  0
    7.6810  -14.2463   15.9117 C   0  0  0  0  0  0  0  0  0  0  0  0
    7.7593  -13.8563   14.7219 O   0  0  0  0  0  0  0  0  0  0  0  0
    7.7571  -13.3633   17.0707 C   0  0  0  0  0  0  0  0  0  0  0  0
    7.6191  -13.9835   18.4017 C   0  0  0  0  0  0  0  0  0  0  0  0
    8.7826  -13.9056   19.3248 C   0  0  2  0  0  0  0  0  0  0  0  0
    9.9868  -14.3727   18.6981 N   0  0  0  0  0  0  0  0  0  0  0  0
    8.5801  -14.6755   20.5805 C   0  0  0  0  0  0  0  0  0  0  0  0
    7.6279  -14.4037   21.3547 O   0  0  0  0  0  0  0  0  0  0  0  0
    9.4304  -15.7504   20.9853 N   0  0  0  0  0  0  0  0  0  0  0  0
    9.1758  -16.5255   22.1834 C   0  0  1  0  0  0  0  0  0  0  0  0
   10.1006  -17.7466   22.0862 C   0  0  0  0  0  0  0  0  0  0  0  0
   10.1355  -18.6741   23.6136 S   0  0  0  0  0  0  0  0  0  0  0  0
    9.4655  -15.7502   23.4117 C   0  0  0  0  0  0  0  0  0  0  0  0
   10.5783  -15.1866   23.5895 O   0  0  0  0  0  0  0  0  0  0  0  0
    5.7450  -11.1979   26.2173 C   0  0  0  0  0  0  0  0  0  0  0  0
    7.1087  -11.6830   27.2702 S   0  0  0  0  0  0  0  0  0  0  0  0
    7.4097  -13.4451   27.2832 C   0  0  0  0  0  0  0  0  0  0  0  0
    7.4168  -14.0964   25.9340 C   0  0  0  0  0  0  0  0  0  0  0  0
    8.6870  -14.8826   25.6524 C   0  0  2  0  0  0  0  0  0  0  0  0
    8.4706  -15.6412   24.4051 N   0  0  0  0  0  0  0  0  0  0  0  0
    8.9976  -15.8426   26.7145 C   0  0  0  0  0  0  0  0  0  0  0  0
    9.5678  -15.4684   27.7608 O   0  0  0  0  0  0  0  0  0  0  0  0
    8.6596  -17.1746   26.5670 O   0  0  0  0  0  0  0  0  0  0  0  0
  1  2  1  0
  2  4  1  0
  3  2  2  0
  5  4  1  0
  6  5  1  0
  6  7  1  6
  8 10  1  0
  8  6  1  0
  9  8  2  0
 11 10  1  0
 11 14  1  0
 11 12  1  6
 13 12  1  0
 14 15  2  0
 14 21  1  0
 16 17  1  0
 18 17  1  0
 19 18  1  0
 20 19  1  1
 20 22  1  0
 21 20  1  0
 22 24  1  0
 23 22  2  0
M  END
$$$$
