SWP.pdb
     RDKit          3D

 28 30  0  0  1  0  0  0  0  0999 V2000
   27.1623  -18.3077  -15.5674 O   0  0  0  0  0  0  0  0  0  0  0  0
   28.4233  -18.4119  -15.0060 C   0  0  0  0  0  0  0  0  0  0  0  0
   28.8447  -19.8437  -14.7817 C   0  0  2  0  0  0  0  0  0  0  0  0
   28.6803  -20.6940  -15.9222 N   0  0  0  0  0  0  0  0  0  0  0  0
   28.0888  -20.3787  -13.6239 C   0  0  0  0  0  0  0  0  0  0  0  0
   27.0596  -21.1061  -13.8384 O   0  0  0  0  0  0  0  0  0  0  0  0
   28.4080  -20.1532  -12.2710 N   0  0  0  0  0  0  0  0  0  0  0  0
   27.5754  -20.5898  -11.1500 C   0  0  1  0  0  0  0  0  0  0  0  0
   28.2534  -20.4117   -9.8369 C   0  0  0  0  0  0  0  0  0  0  0  0
   27.4116  -20.6105   -8.6412 C   0  0  0  0  0  0  0  0  0  0  0  0
   26.1377  -21.1922   -8.6463 C   0  0  0  0  0  0  0  0  0  0  0  0
   25.6423  -21.2000   -7.4012 N   0  0  0  0  0  0  0  0  0  0  0  0
   26.5354  -20.6464   -6.5591 C   0  0  0  0  0  0  0  0  0  0  0  0
   26.5226  -20.4253   -5.2032 C   0  0  0  0  0  0  0  0  0  0  0  0
   27.6287  -19.8332   -4.6325 C   0  0  0  0  0  0  0  0  0  0  0  0
   28.7312  -19.4595   -5.3574 C   0  0  0  0  0  0  0  0  0  0  0  0
   28.7214  -19.6903   -6.7131 C   0  0  0  0  0  0  0  0  0  0  0  0
   27.6404  -20.2772   -7.3252 C   0  0  0  0  0  0  0  0  0  0  0  0
   26.2249  -20.0649  -11.2775 C   0  0  0  0  0  0  0  0  0  0  0  0
   26.0756  -18.7980  -11.1738 O   0  0  0  0  0  0  0  0  0  0  0  0
   25.0614  -20.8293  -11.5095 N   0  0  0  0  0  0  0  0  0  0  0  0
   24.9179  -22.2666  -11.6304 C   0  0  0  0  0  0  0  0  0  0  0  0
   23.6838  -22.5156  -12.4873 C   0  0  0  0  0  0  0  0  0  0  0  0
   23.0929  -21.1588  -12.7733 C   0  0  0  0  0  0  0  0  0  0  0  0
   23.7279  -20.2981  -11.6933 C   0  0  1  0  0  0  0  0  0  0  0  0
   22.8761  -20.3547  -10.4951 C   0  0  0  0  0  0  0  0  0  0  0  0
   23.1658  -21.1021   -9.3937 O   0  0  0  0  0  0  0  0  0  0  0  0
   21.8243  -19.6662  -10.5085 O   0  0  0  0  0  0  0  0  0  0  0  0
  2  1  1  0
  3  4  1  6
  3  2  1  0
  5  3  1  0
  6  5  2  0
  7  5  1  0
  8  7  1  0
  9 10  1  0
  8  9  1  1
 10 18  1  0
 11 12  1  0
 11 10  2  0
 12 13  1  0
 13 18  2  0
 13 14  1  0
 14 15  2  0
 15 16  1  0
 17 16  2  0
 18 17  1  0
 19 21  1  0
 19  8  1  0
 20 19  2  0
 21 25  1  0
 22 23  1  0
 22 21  1  0
 23 24  1  0
 24 25  1  0
 25 26  1  1
 26 27  1  0
 28 26  2  0
M  END
$$$$
