SWP.pdb
     RDKit          3D

 28 30  0  0  1  0  0  0  0  0999 V2000
   38.2248  -28.0145    5.8470 O   0  0  0  0  0  0  0  0  0  0  0  0
   37.4161  -27.4520    4.8745 C   0  0  0  0  0  0  0  0  0  0  0  0
   37.7935  -26.0257    4.5563 C   0  0  2  0  0  0  0  0  0  0  0  0
   39.2028  -25.7984    4.4427 N   0  0  0  0  0  0  0  0  0  0  0  0
   37.2088  -25.1436    5.5946 C   0  0  0  0  0  0  0  0  0  0  0  0
   37.9347  -24.7861    6.5844 O   0  0  0  0  0  0  0  0  0  0  0  0
   35.8904  -24.6490    5.5919 N   0  0  0  0  0  0  0  0  0  0  0  0
   35.3252  -23.8197    6.6567 C   0  0  1  0  0  0  0  0  0  0  0  0
   34.1414  -23.0410    6.2011 C   0  0  0  0  0  0  0  0  0  0  0  0
   34.3399  -22.2026    5.0028 C   0  0  0  0  0  0  0  0  0  0  0  0
   35.5618  -22.0271    4.3417 C   0  0  0  0  0  0  0  0  0  0  0  0
   35.3976  -21.1891    3.3089 N   0  0  0  0  0  0  0  0  0  0  0  0
   34.1112  -20.7953    3.2503 C   0  0  0  0  0  0  0  0  0  0  0  0
   33.4307  -19.9643    2.3936 C   0  0  0  0  0  0  0  0  0  0  0  0
   32.0822  -19.7762    2.6078 C   0  0  0  0  0  0  0  0  0  0  0  0
   31.3991  -20.3798    3.6323 C   0  0  0  0  0  0  0  0  0  0  0  0
   32.1010  -21.2071    4.4774 C   0  0  0  0  0  0  0  0  0  0  0  0
   33.4464  -21.4236    4.3027 C   0  0  0  0  0  0  0  0  0  0  0  0
   35.1846  -24.5857    7.8851 C   0  0  0  0  0  0  0  0  0  0  0  0
   35.0178  -25.8497    7.7726 O   0  0  0  0  0  0  0  0  0  0  0  0
   35.2189  -24.0590    9.1940 N   0  0  0  0  0  0  0  0  0  0  0  0
   35.4484  -22.6950    9.6275 C   0  0  0  0  0  0  0  0  0  0  0  0
   36.0193  -22.7709   11.0373 C   0  0  0  0  0  0  0  0  0  0  0  0
   36.0231  -24.2317   11.4086 C   0  0  0  0  0  0  0  0  0  0  0  0
   35.0365  -24.8186   10.4122 C   0  0  1  0  0  0  0  0  0  0  0  0
   33.6867  -24.7323   10.9908 C   0  0  0  0  0  0  0  0  0  0  0  0
   33.2333  -25.5487   11.9825 O   0  0  0  0  0  0  0  0  0  0  0  0
   32.9225  -23.8472   10.5291 O   0  0  0  0  0  0  0  0  0  0  0  0
  2  1  1  0
  3  4  1  1
  3  2  1  0
  5  3  1  0
  6  5  2  0
  7  5  1  0
  8  7  1  0
  9 10  1  0
  8  9  1  6
 10 18  1  0
 11 12  1  0
 11 10  2  0
 12 13  1  0
 13 18  2  0
 13 14  1  0
 14 15  2  0
 15 16  1  0
 17 16  2  0
 18 17  1  0
 19 21  1  0
 19  8  1  0
 20 19  2  0
 21 25  1  0
 22 23  1  0
 22 21  1  0
 23 24  1  0
 24 25  1  0
 25 26  1  1
 26 27  1  0
 28 26  2  0
M  END
$$$$
