SWP.pdb
     RDKit          3D

 28 30  0  0  1  0  0  0  0  0999 V2000
   22.2419  -18.7568  -19.4673 O   0  0  0  0  0  0  0  0  0  0  0  0
   22.1255  -17.5699  -18.7645 C   0  0  0  0  0  0  0  0  0  0  0  0
   23.4326  -16.8221  -18.6633 C   0  0  2  0  0  0  0  0  0  0  0  0
   23.9903  -16.4331  -19.9236 N   0  0  0  0  0  0  0  0  0  0  0  0
   24.3946  -17.6601  -17.9080 C   0  0  0  0  0  0  0  0  0  0  0  0
   25.2350  -18.3743  -18.5545 O   0  0  0  0  0  0  0  0  0  0  0  0
   24.4706  -17.7452  -16.5045 N   0  0  0  0  0  0  0  0  0  0  0  0
   25.4367  -18.5765  -15.7861 C   0  0  1  0  0  0  0  0  0  0  0  0
   25.8535  -17.9715  -14.4916 C   0  0  0  0  0  0  0  0  0  0  0  0
   26.6212  -18.8471  -13.5850 C   0  0  0  0  0  0  0  0  0  0  0  0
   27.9927  -19.1082  -13.6948 C   0  0  0  0  0  0  0  0  0  0  0  0
   28.3669  -19.9588  -12.7292 N   0  0  0  0  0  0  0  0  0  0  0  0
   27.2989  -20.2785  -11.9738 C   0  0  0  0  0  0  0  0  0  0  0  0
   27.1459  -21.0881  -10.8744 C   0  0  0  0  0  0  0  0  0  0  0  0
   25.8899  -21.1928  -10.3164 C   0  0  0  0  0  0  0  0  0  0  0  0
   24.7973  -20.5273  -10.8102 C   0  0  0  0  0  0  0  0  0  0  0  0
   24.9743  -19.7230  -11.9115 C   0  0  0  0  0  0  0  0  0  0  0  0
   26.2079  -19.5889  -12.5013 C   0  0  0  0  0  0  0  0  0  0  0  0
   25.0031  -19.9647  -15.7623 C   0  0  0  0  0  0  0  0  0  0  0  0
   23.7425  -20.1857  -15.7638 O   0  0  0  0  0  0  0  0  0  0  0  0
   25.8505  -21.0932  -15.7408 N   0  0  0  0  0  0  0  0  0  0  0  0
   27.2937  -21.1536  -15.6196 C   0  0  0  0  0  0  0  0  0  0  0  0
   27.7376  -22.4501  -16.2839 C   0  0  0  0  0  0  0  0  0  0  0  0
   26.4753  -23.1550  -16.7100 C   0  0  0  0  0  0  0  0  0  0  0  0
   25.4213  -22.4705  -15.8550 C   0  0  1  0  0  0  0  0  0  0  0  0
   25.3243  -23.1892  -14.5750 C   0  0  0  0  0  0  0  0  0  0  0  0
   24.7186  -24.4007  -14.4298 O   0  0  0  0  0  0  0  0  0  0  0  0
   25.8364  -22.6362  -13.5688 O   0  0  0  0  0  0  0  0  0  0  0  0
  2  1  1  0
  3  4  1  6
  3  2  1  0
  5  3  1  0
  6  5  2  0
  7  5  1  0
  8  7  1  0
  9 10  1  0
  8  9  1  1
 10 18  1  0
 11 12  1  0
 11 10  2  0
 12 13  1  0
 13 18  2  0
 13 14  1  0
 14 15  2  0
 15 16  1  0
 17 16  2  0
 18 17  1  0
 19 21  1  0
 19  8  1  0
 20 19  2  0
 21 25  1  0
 22 23  1  0
 22 21  1  0
 23 24  1  0
 24 25  1  0
 25 26  1  1
 26 27  1  0
 28 26  2  0
M  END
$$$$
