SWP.pdb
     RDKit          3D

 28 30  0  0  1  0  0  0  0  0999 V2000
   26.9318   -5.9970  -19.5749 O   0  0  0  0  0  0  0  0  0  0  0  0
   25.9766   -5.7794  -18.5970 C   0  0  0  0  0  0  0  0  0  0  0  0
   24.8822   -4.8436  -19.0494 C   0  0  2  0  0  0  0  0  0  0  0  0
   25.1526   -3.4580  -18.8095 N   0  0  0  0  0  0  0  0  0  0  0  0
   23.6180   -5.2465  -18.3880 C   0  0  0  0  0  0  0  0  0  0  0  0
   23.4238   -4.9156  -17.1685 O   0  0  0  0  0  0  0  0  0  0  0  0
   22.5816   -5.9812  -18.9955 N   0  0  0  0  0  0  0  0  0  0  0  0
   21.3397   -6.3569  -18.3193 C   0  0  1  0  0  0  0  0  0  0  0  0
   20.1972   -6.4891  -19.2642 C   0  0  0  0  0  0  0  0  0  0  0  0
   18.9187   -6.9337  -18.6761 C   0  0  0  0  0  0  0  0  0  0  0  0
   18.5164   -8.2692  -18.5506 C   0  0  0  0  0  0  0  0  0  0  0  0
   17.2973   -8.3211  -17.9966 N   0  0  0  0  0  0  0  0  0  0  0  0
   16.8653   -7.0709  -17.7441 C   0  0  0  0  0  0  0  0  0  0  0  0
   15.7099   -6.5809  -17.1851 C   0  0  0  0  0  0  0  0  0  0  0  0
   15.5814   -5.2148  -17.0550 C   0  0  0  0  0  0  0  0  0  0  0  0
   16.5518   -4.3334  -17.4574 C   0  0  0  0  0  0  0  0  0  0  0  0
   17.6996   -4.8467  -18.0145 C   0  0  0  0  0  0  0  0  0  0  0  0
   17.8711   -6.2015  -18.1647 C   0  0  0  0  0  0  0  0  0  0  0  0
   21.5696   -7.4569  -17.3959 C   0  0  0  0  0  0  0  0  0  0  0  0
   22.4300   -8.3404  -17.7382 O   0  0  0  0  0  0  0  0  0  0  0  0
   20.9293   -7.6362  -16.1509 N   0  0  0  0  0  0  0  0  0  0  0  0
   19.8866   -6.8408  -15.5335 C   0  0  0  0  0  0  0  0  0  0  0  0
   20.0167   -7.0356  -14.0287 C   0  0  0  0  0  0  0  0  0  0  0  0
   21.1239   -8.0391  -13.8313 C   0  0  0  0  0  0  0  0  0  0  0  0
   21.2145   -8.6906  -15.2017 C   0  0  1  0  0  0  0  0  0  0  0  0
   20.2731   -9.8204  -15.2410 C   0  0  0  0  0  0  0  0  0  0  0  0
   19.0967   -9.8035  -15.9276 O   0  0  0  0  0  0  0  0  0  0  0  0
   20.5912  -10.8521  -14.5967 O   0  0  0  0  0  0  0  0  0  0  0  0
  2  1  1  0
  3  4  1  1
  3  2  1  0
  5  3  1  0
  6  5  2  0
  7  5  1  0
  8  7  1  0
  9 10  1  0
  8  9  1  6
 10 18  1  0
 11 12  1  0
 11 10  2  0
 12 13  1  0
 13 18  2  0
 13 14  1  0
 14 15  2  0
 15 16  1  0
 17 16  2  0
 18 17  1  0
 19 21  1  0
 19  8  1  0
 20 19  2  0
 21 25  1  0
 22 23  1  0
 22 21  1  0
 23 24  1  0
 24 25  1  0
 25 26  1  1
 26 27  1  0
 28 26  2  0
M  END
$$$$
