SWP.pdb
     RDKit          3D

 28 30  0  0  1  0  0  0  0  0999 V2000
   26.6645  -23.1028  -17.7057 O   0  0  0  0  0  0  0  0  0  0  0  0
   27.5733  -22.1904  -18.2136 C   0  0  0  0  0  0  0  0  0  0  0  0
   28.8053  -22.0541  -17.3524 C   0  0  2  0  0  0  0  0  0  0  0  0
   29.6280  -23.2253  -17.3078 N   0  0  0  0  0  0  0  0  0  0  0  0
   28.3809  -21.6672  -15.9855 C   0  0  0  0  0  0  0  0  0  0  0  0
   28.5482  -22.4963  -15.0267 O   0  0  0  0  0  0  0  0  0  0  0  0
   27.7937  -20.4363  -15.6350 N   0  0  0  0  0  0  0  0  0  0  0  0
   27.5603  -20.0037  -14.2570 C   0  0  1  0  0  0  0  0  0  0  0  0
   27.7168  -18.5329  -14.0900 C   0  0  0  0  0  0  0  0  0  0  0  0
   26.9206  -17.6893  -15.0023 C   0  0  0  0  0  0  0  0  0  0  0  0
   25.6522  -17.1716  -14.7119 C   0  0  0  0  0  0  0  0  0  0  0  0
   25.2023  -16.4699  -15.7612 N   0  0  0  0  0  0  0  0  0  0  0  0
   26.1208  -16.4955  -16.7456 C   0  0  0  0  0  0  0  0  0  0  0  0
   26.1554  -15.9374  -18.0005 C   0  0  0  0  0  0  0  0  0  0  0  0
   27.2766  -16.1494  -18.7736 C   0  0  0  0  0  0  0  0  0  0  0  0
   28.3490  -16.8884  -18.3440 C   0  0  0  0  0  0  0  0  0  0  0  0
   28.2919  -17.4377  -17.0845 C   0  0  0  0  0  0  0  0  0  0  0  0
   27.1943  -17.2533  -16.2791 C   0  0  0  0  0  0  0  0  0  0  0  0
   26.3481  -20.6077  -13.7268 C   0  0  0  0  0  0  0  0  0  0  0  0
   25.6173  -21.2701  -14.5424 O   0  0  0  0  0  0  0  0  0  0  0  0
   25.9057  -20.5315  -12.3886 N   0  0  0  0  0  0  0  0  0  0  0  0
   26.4607  -19.7787  -11.2812 C   0  0  0  0  0  0  0  0  0  0  0  0
   26.0631  -20.5119  -10.0070 C   0  0  0  0  0  0  0  0  0  0  0  0
   25.1914  -21.6622  -10.4413 C   0  0  0  0  0  0  0  0  0  0  0  0
   24.7674  -21.2344  -11.8370 C   0  0  1  0  0  0  0  0  0  0  0  0
   23.5449  -20.4241  -11.7220 C   0  0  0  0  0  0  0  0  0  0  0  0
   22.3096  -20.9455  -11.4813 O   0  0  0  0  0  0  0  0  0  0  0  0
   23.6688  -19.1804  -11.8570 O   0  0  0  0  0  0  0  0  0  0  0  0
  2  1  1  0
  3  4  1  1
  3  2  1  0
  5  3  1  0
  6  5  2  0
  7  5  1  0
  8  7  1  0
  9 10  1  0
  8  9  1  6
 10 18  1  0
 11 12  1  0
 11 10  2  0
 12 13  1  0
 13 18  2  0
 13 14  1  0
 14 15  2  0
 15 16  1  0
 17 16  2  0
 18 17  1  0
 19 21  1  0
 19  8  1  0
 20 19  2  0
 21 25  1  0
 22 23  1  0
 22 21  1  0
 23 24  1  0
 24 25  1  0
 25 26  1  1
 26 27  1  0
 28 26  2  0
M  END
$$$$
