SWP.pdb
     RDKit          3D

 28 30  0  0  1  0  0  0  0  0999 V2000
   27.6487  -18.6461  -16.3648 O   0  0  0  0  0  0  0  0  0  0  0  0
   28.0572  -18.4655  -15.0546 C   0  0  0  0  0  0  0  0  0  0  0  0
   28.6826  -19.7054  -14.4632 C   0  0  2  0  0  0  0  0  0  0  0  0
   29.2901  -20.5768  -15.4236 N   0  0  0  0  0  0  0  0  0  0  0  0
   27.6457  -20.4298  -13.6898 C   0  0  0  0  0  0  0  0  0  0  0  0
   27.0753  -21.4450  -14.2174 O   0  0  0  0  0  0  0  0  0  0  0  0
   27.2182  -20.0938  -12.3909 N   0  0  0  0  0  0  0  0  0  0  0  0
   26.0978  -20.7385  -11.7056 C   0  0  1  0  0  0  0  0  0  0  0  0
   26.1012  -20.4744  -10.2407 C   0  0  0  0  0  0  0  0  0  0  0  0
   27.3326  -20.8477   -9.5182 C   0  0  0  0  0  0  0  0  0  0  0  0
   28.2903  -21.7569   -9.9845 C   0  0  0  0  0  0  0  0  0  0  0  0
   29.2686  -21.8837   -9.0776 N   0  0  0  0  0  0  0  0  0  0  0  0
   29.0053  -21.0933   -8.0196 C   0  0  0  0  0  0  0  0  0  0  0  0
   29.6807  -20.8517   -6.8478 C   0  0  0  0  0  0  0  0  0  0  0  0
   29.1323  -19.9545   -5.9568 C   0  0  0  0  0  0  0  0  0  0  0  0
   27.9504  -19.2995   -6.1910 C   0  0  0  0  0  0  0  0  0  0  0  0
   27.2919  -19.5574   -7.3704 C   0  0  0  0  0  0  0  0  0  0  0  0
   27.8006  -20.4446   -8.2879 C   0  0  0  0  0  0  0  0  0  0  0  0
   24.8534  -20.5031  -12.4208 C   0  0  0  0  0  0  0  0  0  0  0  0
   24.6364  -19.3154  -12.8455 O   0  0  0  0  0  0  0  0  0  0  0  0
   23.8623  -21.4706  -12.6922 N   0  0  0  0  0  0  0  0  0  0  0  0
   23.7861  -22.8515  -12.2581 C   0  0  0  0  0  0  0  0  0  0  0  0
   22.9531  -23.5937  -13.2947 C   0  0  0  0  0  0  0  0  0  0  0  0
   22.4955  -22.5542  -14.2855 C   0  0  0  0  0  0  0  0  0  0  0  0
   22.6836  -21.2630  -13.5057 C   0  0  1  0  0  0  0  0  0  0  0  0
   21.4532  -20.9981  -12.7439 C   0  0  0  0  0  0  0  0  0  0  0  0
   21.3568  -21.1263  -11.3912 O   0  0  0  0  0  0  0  0  0  0  0  0
   20.4434  -20.6336  -13.3980 O   0  0  0  0  0  0  0  0  0  0  0  0
  2  1  1  0
  3  4  1  6
  3  2  1  0
  5  3  1  0
  6  5  2  0
  7  5  1  0
  8  7  1  0
  9 10  1  0
  8  9  1  1
 10 18  1  0
 11 12  1  0
 11 10  2  0
 12 13  1  0
 13 18  2  0
 13 14  1  0
 14 15  2  0
 15 16  1  0
 17 16  2  0
 18 17  1  0
 19 21  1  0
 19  8  1  0
 20 19  2  0
 21 25  1  0
 22 23  1  0
 22 21  1  0
 23 24  1  0
 24 25  1  0
 25 26  1  1
 26 27  1  0
 28 26  2  0
M  END
$$$$
