SWP.pdb
     RDKit          3D

 28 30  0  0  1  0  0  0  0  0999 V2000
   28.4529  -17.5080  -19.4658 O   0  0  0  0  0  0  0  0  0  0  0  0
   27.6631  -18.5231  -18.9541 C   0  0  0  0  0  0  0  0  0  0  0  0
   28.4741  -19.6616  -18.3847 C   0  0  2  0  0  0  0  0  0  0  0  0
   28.8038  -20.6841  -19.3314 N   0  0  0  0  0  0  0  0  0  0  0  0
   27.7319  -20.2378  -17.2378 C   0  0  0  0  0  0  0  0  0  0  0  0
   26.8808  -21.1669  -17.4542 O   0  0  0  0  0  0  0  0  0  0  0  0
   27.8813  -19.8453  -15.8937 N   0  0  0  0  0  0  0  0  0  0  0  0
   27.0944  -20.3933  -14.7887 C   0  0  1  0  0  0  0  0  0  0  0  0
   27.8058  -20.2997  -13.4846 C   0  0  0  0  0  0  0  0  0  0  0  0
   27.0988  -20.8653  -12.3192 C   0  0  0  0  0  0  0  0  0  0  0  0
   26.6838  -22.1978  -12.2036 C   0  0  0  0  0  0  0  0  0  0  0  0
   26.0543  -22.3724  -11.0335 N   0  0  0  0  0  0  0  0  0  0  0  0
   26.0313  -21.2078  -10.3578 C   0  0  0  0  0  0  0  0  0  0  0  0
   25.5258  -20.8543   -9.1302 C   0  0  0  0  0  0  0  0  0  0  0  0
   25.6825  -19.5490   -8.7162 C   0  0  0  0  0  0  0  0  0  0  0  0
   26.3169  -18.5980   -9.4736 C   0  0  0  0  0  0  0  0  0  0  0  0
   26.8146  -18.9748  -10.6991 C   0  0  0  0  0  0  0  0  0  0  0  0
   26.6810  -20.2646  -11.1531 C   0  0  0  0  0  0  0  0  0  0  0  0
   25.7270  -19.8999  -14.8371 C   0  0  0  0  0  0  0  0  0  0  0  0
   25.5613  -18.6520  -15.0676 O   0  0  0  0  0  0  0  0  0  0  0  0
   24.5629  -20.6770  -14.6553 N   0  0  0  0  0  0  0  0  0  0  0  0
   24.4415  -22.0886  -14.3495 C   0  0  0  0  0  0  0  0  0  0  0  0
   23.0920  -22.5421  -14.8903 C   0  0  0  0  0  0  0  0  0  0  0  0
   22.4252  -21.3068  -15.4391 C   0  0  0  0  0  0  0  0  0  0  0  0
   23.2030  -20.1927  -14.7577 C   0  0  1  0  0  0  0  0  0  0  0  0
   22.5590  -19.8995  -13.4679 C   0  0  0  0  0  0  0  0  0  0  0  0
   21.4081  -19.1820  -13.3409 O   0  0  0  0  0  0  0  0  0  0  0  0
   23.1194  -20.3459  -12.4348 O   0  0  0  0  0  0  0  0  0  0  0  0
  2  1  1  0
  3  4  1  6
  3  2  1  0
  5  3  1  0
  6  5  2  0
  7  5  1  0
  8  7  1  0
  9 10  1  0
  8  9  1  1
 10 18  1  0
 11 12  1  0
 11 10  2  0
 12 13  1  0
 13 18  2  0
 13 14  1  0
 14 15  2  0
 15 16  1  0
 17 16  2  0
 18 17  1  0
 19 21  1  0
 19  8  1  0
 20 19  2  0
 21 25  1  0
 22 23  1  0
 22 21  1  0
 23 24  1  0
 24 25  1  0
 25 26  1  1
 26 27  1  0
 28 26  2  0
M  END
$$$$
