SWP.pdb
     RDKit          3D

 28 30  0  0  1  0  0  0  0  0999 V2000
   23.0596  -15.8931  -19.5691 O   0  0  0  0  0  0  0  0  0  0  0  0
   23.6414  -16.6559  -18.5711 C   0  0  0  0  0  0  0  0  0  0  0  0
   25.0156  -16.1634  -18.1877 C   0  0  2  0  0  0  0  0  0  0  0  0
   25.8304  -15.7629  -19.2952 N   0  0  0  0  0  0  0  0  0  0  0  0
   25.6921  -17.2249  -17.4044 C   0  0  0  0  0  0  0  0  0  0  0  0
   26.3715  -18.1139  -18.0229 O   0  0  0  0  0  0  0  0  0  0  0  0
   25.6545  -17.3488  -16.0022 N   0  0  0  0  0  0  0  0  0  0  0  0
   26.3168  -18.4197  -15.2571 C   0  0  1  0  0  0  0  0  0  0  0  0
   26.6216  -18.0295  -13.8534 C   0  0  0  0  0  0  0  0  0  0  0  0
   27.0917  -19.1124  -12.9678 C   0  0  0  0  0  0  0  0  0  0  0  0
   28.3402  -19.7395  -13.0628 C   0  0  0  0  0  0  0  0  0  0  0  0
   28.4375  -20.6912  -12.1244 N   0  0  0  0  0  0  0  0  0  0  0  0
   27.3019  -20.7268  -11.4015 C   0  0  0  0  0  0  0  0  0  0  0  0
   26.9002  -21.4974  -10.3374 C   0  0  0  0  0  0  0  0  0  0  0  0
   25.6490  -21.2681   -9.8068 C   0  0  0  0  0  0  0  0  0  0  0  0
   24.7970  -20.3103  -10.2941 C   0  0  0  0  0  0  0  0  0  0  0  0
   25.2204  -19.5513  -11.3599 C   0  0  0  0  0  0  0  0  0  0  0  0
   26.4591  -19.7452  -11.9215 C   0  0  0  0  0  0  0  0  0  0  0  0
   25.6330  -19.6871  -15.4613 C   0  0  0  0  0  0  0  0  0  0  0  0
   24.3608  -19.6523  -15.5963 O   0  0  0  0  0  0  0  0  0  0  0  0
   26.2489  -20.9553  -15.5275 N   0  0  0  0  0  0  0  0  0  0  0  0
   27.6485  -21.3033  -15.3826 C   0  0  0  0  0  0  0  0  0  0  0  0
   27.8628  -22.5979  -16.1555 C   0  0  0  0  0  0  0  0  0  0  0  0
   26.5068  -23.0062  -16.6713 C   0  0  0  0  0  0  0  0  0  0  0  0
   25.5703  -22.2086  -15.7783 C   0  0  1  0  0  0  0  0  0  0  0  0
   25.2897  -23.0043  -14.5730 C   0  0  0  0  0  0  0  0  0  0  0  0
   24.6302  -24.1961  -14.5880 O   0  0  0  0  0  0  0  0  0  0  0  0
   25.6899  -22.5397  -13.4755 O   0  0  0  0  0  0  0  0  0  0  0  0
  2  1  1  0
  3  4  1  6
  3  2  1  0
  5  3  1  0
  6  5  2  0
  7  5  1  0
  8  7  1  0
  9 10  1  0
  8  9  1  1
 10 18  1  0
 11 12  1  0
 11 10  2  0
 12 13  1  0
 13 18  2  0
 13 14  1  0
 14 15  2  0
 15 16  1  0
 17 16  2  0
 18 17  1  0
 19 21  1  0
 19  8  1  0
 20 19  2  0
 21 25  1  0
 22 23  1  0
 22 21  1  0
 23 24  1  0
 24 25  1  0
 25 26  1  1
 26 27  1  0
 28 26  2  0
M  END
$$$$
