SWP.pdb
     RDKit          3D

 28 30  0  0  1  0  0  0  0  0999 V2000
   25.2612  -17.3421  -15.8550 O   0  0  0  0  0  0  0  0  0  0  0  0
   26.0191  -16.4327  -15.1375 C   0  0  0  0  0  0  0  0  0  0  0  0
   27.3814  -16.9700  -14.7716 C   0  0  2  0  0  0  0  0  0  0  0  0
   28.1670  -17.3998  -15.8890 N   0  0  0  0  0  0  0  0  0  0  0  0
   27.2031  -18.0809  -13.8061 C   0  0  0  0  0  0  0  0  0  0  0  0
   27.1812  -19.2827  -14.2415 O   0  0  0  0  0  0  0  0  0  0  0  0
   27.0508  -17.9310  -12.4143 N   0  0  0  0  0  0  0  0  0  0  0  0
   26.9798  -19.0494  -11.4736 C   0  0  1  0  0  0  0  0  0  0  0  0
   27.8205  -18.8285  -10.2653 C   0  0  0  0  0  0  0  0  0  0  0  0
   27.7831  -19.8955   -9.2465 C   0  0  0  0  0  0  0  0  0  0  0  0
   27.9574  -21.2600   -9.5092 C   0  0  0  0  0  0  0  0  0  0  0  0
   27.8423  -21.9553   -8.3693 N   0  0  0  0  0  0  0  0  0  0  0  0
   27.5982  -21.1096   -7.3502 C   0  0  0  0  0  0  0  0  0  0  0  0
   27.4113  -21.3053   -6.0033 C   0  0  0  0  0  0  0  0  0  0  0  0
   27.1886  -20.1987   -5.2123 C   0  0  0  0  0  0  0  0  0  0  0  0
   27.1467  -18.9221   -5.7115 C   0  0  0  0  0  0  0  0  0  0  0  0
   27.3361  -18.7505   -7.0627 C   0  0  0  0  0  0  0  0  0  0  0  0
   27.5605  -19.8244   -7.8898 C   0  0  0  0  0  0  0  0  0  0  0  0
   25.5992  -19.4532  -11.2583 C   0  0  0  0  0  0  0  0  0  0  0  0
   24.7428  -18.5259  -11.0467 O   0  0  0  0  0  0  0  0  0  0  0  0
   25.1172  -20.7797  -11.2651 N   0  0  0  0  0  0  0  0  0  0  0  0
   25.8580  -22.0239  -11.3304 C   0  0  0  0  0  0  0  0  0  0  0  0
   24.9278  -23.0585  -11.9496 C   0  0  0  0  0  0  0  0  0  0  0  0
   23.6058  -22.3635  -12.1529 C   0  0  0  0  0  0  0  0  0  0  0  0
   23.7242  -21.1694  -11.2197 C   0  0  1  0  0  0  0  0  0  0  0  0
   23.2445  -21.5722   -9.8885 C   0  0  0  0  0  0  0  0  0  0  0  0
   21.9293  -21.7378   -9.5747 O   0  0  0  0  0  0  0  0  0  0  0  0
   24.1149  -21.7699   -9.0031 O   0  0  0  0  0  0  0  0  0  0  0  0
  2  1  1  0
  3  4  1  6
  3  2  1  0
  5  3  1  0
  6  5  2  0
  7  5  1  0
  8  7  1  0
  9 10  1  0
  8  9  1  1
 10 18  1  0
 11 12  1  0
 11 10  2  0
 12 13  1  0
 13 18  2  0
 13 14  1  0
 14 15  2  0
 15 16  1  0
 17 16  2  0
 18 17  1  0
 19 21  1  0
 19  8  1  0
 20 19  2  0
 21 25  1  0
 22 23  1  0
 22 21  1  0
 23 24  1  0
 24 25  1  0
 25 26  1  1
 26 27  1  0
 28 26  2  0
M  END
$$$$
