SWP.pdb
     RDKit          3D

 28 30  0  0  1  0  0  0  0  0999 V2000
   27.2377  -18.3598  -15.0801 O   0  0  0  0  0  0  0  0  0  0  0  0
   28.0477  -19.4088  -15.4796 C   0  0  0  0  0  0  0  0  0  0  0  0
   28.8099  -20.0261  -14.3323 C   0  0  2  0  0  0  0  0  0  0  0  0
   29.6867  -21.0930  -14.7111 N   0  0  0  0  0  0  0  0  0  0  0  0
   27.8338  -20.4931  -13.3188 C   0  0  0  0  0  0  0  0  0  0  0  0
   27.2084  -21.5899  -13.5200 O   0  0  0  0  0  0  0  0  0  0  0  0
   27.5223  -19.8216  -12.1209 N   0  0  0  0  0  0  0  0  0  0  0  0
   26.4892  -20.2595  -11.1821 C   0  0  1  0  0  0  0  0  0  0  0  0
   26.6625  -19.6630   -9.8294 C   0  0  0  0  0  0  0  0  0  0  0  0
   27.6568  -20.3164   -8.9561 C   0  0  0  0  0  0  0  0  0  0  0  0
   28.4909  -21.3727   -9.3429 C   0  0  0  0  0  0  0  0  0  0  0  0
   29.2553  -21.7441   -8.3067 N   0  0  0  0  0  0  0  0  0  0  0  0
   28.9671  -20.9767   -7.2383 C   0  0  0  0  0  0  0  0  0  0  0  0
   29.4625  -20.9416   -5.9574 C   0  0  0  0  0  0  0  0  0  0  0  0
   28.9480  -20.0030   -5.0890 C   0  0  0  0  0  0  0  0  0  0  0  0
   27.9704  -19.1113   -5.4492 C   0  0  0  0  0  0  0  0  0  0  0  0
   27.4895  -19.1653   -6.7365 C   0  0  0  0  0  0  0  0  0  0  0  0
   27.9721  -20.0846   -7.6363 C   0  0  0  0  0  0  0  0  0  0  0  0
   25.1701  -20.1628  -11.7873 C   0  0  0  0  0  0  0  0  0  0  0  0
   24.8260  -19.0268  -12.2659 O   0  0  0  0  0  0  0  0  0  0  0  0
   24.2341  -21.2134  -11.8973 N   0  0  0  0  0  0  0  0  0  0  0  0
   24.3343  -22.5827  -11.4326 C   0  0  0  0  0  0  0  0  0  0  0  0
   23.4280  -23.4187  -12.3265 C   0  0  0  0  0  0  0  0  0  0  0  0
   22.7509  -22.4481  -13.2599 C   0  0  0  0  0  0  0  0  0  0  0  0
   22.9395  -21.1238  -12.5378 C   0  0  1  0  0  0  0  0  0  0  0  0
   21.8111  -20.9354  -11.6129 C   0  0  0  0  0  0  0  0  0  0  0  0
   21.9223  -21.0056  -10.2570 O   0  0  0  0  0  0  0  0  0  0  0  0
   20.6873  -20.6969  -12.1235 O   0  0  0  0  0  0  0  0  0  0  0  0
  2  1  1  0
  3  4  1  6
  3  2  1  0
  5  3  1  0
  6  5  2  0
  7  5  1  0
  8  7  1  0
  9 10  1  0
  8  9  1  1
 10 18  1  0
 11 12  1  0
 11 10  2  0
 12 13  1  0
 13 18  2  0
 13 14  1  0
 14 15  2  0
 15 16  1  0
 17 16  2  0
 18 17  1  0
 19 21  1  0
 19  8  1  0
 20 19  2  0
 21 25  1  0
 22 23  1  0
 22 21  1  0
 23 24  1  0
 24 25  1  0
 25 26  1  1
 26 27  1  0
 28 26  2  0
M  END
$$$$
