LIA.pdb
     RDKit          3D

 22 21  0  0  1  0  0  0  0  0999 V2000
    6.2445  -19.9624   28.1856 C   0  0  0  0  0  0  0  0  0  0  0  0
    6.9454  -20.6568   27.0146 C   0  0  2  0  0  0  0  0  0  0  0  0
    8.0420  -21.5051   27.5764 C   0  0  0  0  0  0  0  0  0  0  0  0
    7.4100  -19.6005   26.0636 C   0  0  0  0  0  0  0  0  0  0  0  0
    6.3482  -18.6931   25.5504 C   0  0  2  0  0  0  0  0  0  0  0  0
    5.4953  -19.4452   24.6252 N   0  0  0  0  0  0  0  0  0  0  0  0
    6.8174  -17.4310   24.9568 C   0  0  0  0  0  0  0  0  0  0  0  0
    7.1532  -17.3663   23.7616 O   0  0  0  0  0  0  0  0  0  0  0  0
    5.9822  -12.3265   27.1626 C   0  0  0  0  0  0  0  0  0  0  0  0
    6.1113  -13.2334   25.9288 C   0  0  0  0  0  0  0  0  0  0  0  0
    7.4953  -13.7776   25.9273 C   0  0  2  0  0  0  0  0  0  0  0  0
    8.5391  -12.7417   25.5695 C   0  0  0  0  0  0  0  0  0  0  0  0
    7.6905  -15.0912   25.2842 C   0  0  2  0  0  0  0  0  0  0  0  0
    6.9350  -16.2017   25.6471 N   0  0  0  0  0  0  0  0  0  0  0  0
    9.1505  -15.4352   25.4086 C   0  0  0  0  0  0  0  0  0  0  0  0
    9.6760  -15.6097   26.5395 O   0  0  0  0  0  0  0  0  0  0  0  0
   11.6344  -17.4118   24.4051 C   0  0  0  0  0  0  0  0  0  0  0  0
   11.4066  -15.9274   24.3965 C   0  0  2  0  0  0  0  0  0  0  0  0
    9.9955  -15.5783   24.2828 N   0  0  0  0  0  0  0  0  0  0  0  0
   12.0982  -15.3885   23.1788 C   0  0  0  0  0  0  0  0  0  0  0  0
   11.4644  -14.9920   22.1674 O   0  0  0  0  0  0  0  0  0  0  0  0
   13.4819  -15.3129   23.1378 O   0  0  0  0  0  0  0  0  0  0  0  0
  2  1  1  1
  2  3  1  0
  4  2  1  0
  5  4  1  0
  5  7  1  0
  5  6  1  6
  7 14  1  0
  7  8  2  0
  9 10  1  0
 10 11  1  0
 11 12  1  6
 13 11  1  0
 13 14  1  1
 15 13  1  0
 15 16  2  0
 18 17  1  6
 18 19  1  0
 19 15  1  0
 20 18  1  0
 21 20  2  0
 22 20  1  0
M  END
$$$$
