LIA.pdb
     RDKit          3D

 22 21  0  0  1  0  0  0  0  0999 V2000
    5.9952  -19.9870   27.0163 C   0  0  0  0  0  0  0  0  0  0  0  0
    7.2822  -20.4044   26.2994 C   0  0  2  0  0  0  0  0  0  0  0  0
    8.1085  -21.1927   27.2657 C   0  0  0  0  0  0  0  0  0  0  0  0
    7.9471  -19.1667   25.7876 C   0  0  0  0  0  0  0  0  0  0  0  0
    7.1330  -18.3472   24.8495 C   0  0  2  0  0  0  0  0  0  0  0  0
    7.0365  -19.0560   23.5700 N   0  0  0  0  0  0  0  0  0  0  0  0
    7.5727  -16.9544   24.6703 C   0  0  0  0  0  0  0  0  0  0  0  0
    8.4232  -16.6518   23.8155 O   0  0  0  0  0  0  0  0  0  0  0  0
    6.1264  -11.1066   26.2906 C   0  0  0  0  0  0  0  0  0  0  0  0
    7.0239  -12.0328   25.4553 C   0  0  0  0  0  0  0  0  0  0  0  0
    6.5386  -13.4224   25.6674 C   0  0  2  0  0  0  0  0  0  0  0  0
    5.8723  -13.6187   27.0121 C   0  0  0  0  0  0  0  0  0  0  0  0
    7.4522  -14.5115   25.2719 C   0  0  2  0  0  0  0  0  0  0  0  0
    7.0993  -15.8496   25.4164 N   0  0  0  0  0  0  0  0  0  0  0  0
    8.7596  -14.2747   25.9789 C   0  0  0  0  0  0  0  0  0  0  0  0
    9.4464  -13.2481   25.7341 O   0  0  0  0  0  0  0  0  0  0  0  0
   10.4171  -13.7612   28.6011 C   0  0  0  0  0  0  0  0  0  0  0  0
   10.5196  -14.9283   27.6616 C   0  0  2  0  0  0  0  0  0  0  0  0
    9.2778  -15.1758   26.9388 N   0  0  0  0  0  0  0  0  0  0  0  0
   10.7947  -16.1404   28.5024 C   0  0  0  0  0  0  0  0  0  0  0  0
   11.7569  -16.1922   29.3105 O   0  0  0  0  0  0  0  0  0  0  0  0
    9.9776  -17.2563   28.4070 O   0  0  0  0  0  0  0  0  0  0  0  0
  2  1  1  1
  2  3  1  0
  4  2  1  0
  5  4  1  0
  5  7  1  0
  5  6  1  6
  7 14  1  0
  7  8  2  0
  9 10  1  0
 10 11  1  0
 11 12  1  1
 13 11  1  0
 13 14  1  1
 15 13  1  0
 15 16  2  0
 18 17  1  1
 18 19  1  0
 19 15  1  0
 20 18  1  0
 21 20  2  0
 22 20  1  0
M  END
$$$$
