LIA.pdb
     RDKit          3D

 22 21  0  0  1  0  0  0  0  0999 V2000
   10.5680  -18.7202   14.0344 C   0  0  0  0  0  0  0  0  0  0  0  0
    9.4396  -17.7733   14.4526 C   0  0  2  0  0  0  0  0  0  0  0  0
    8.8321  -17.2086   13.2077 C   0  0  0  0  0  0  0  0  0  0  0  0
   10.0165  -16.7482   15.3757 C   0  0  0  0  0  0  0  0  0  0  0  0
   10.2284  -17.2001   16.7776 C   0  0  2  0  0  0  0  0  0  0  0  0
    9.1105  -18.0655   17.1656 N   0  0  0  0  0  0  0  0  0  0  0  0
   10.4617  -16.1340   17.7648 C   0  0  0  0  0  0  0  0  0  0  0  0
   11.5296  -15.4978   17.7864 O   0  0  0  0  0  0  0  0  0  0  0  0
    6.8223  -12.2101   19.2948 C   0  0  0  0  0  0  0  0  0  0  0  0
    8.1518  -12.8530   18.8704 C   0  0  0  0  0  0  0  0  0  0  0  0
    8.5690  -13.7642   19.9691 C   0  0  2  0  0  0  0  0  0  0  0  0
    8.6702  -13.0686   21.3096 C   0  0  0  0  0  0  0  0  0  0  0  0
    9.6777  -14.6925   19.6757 C   0  0  2  0  0  0  0  0  0  0  0  0
    9.5391  -15.7290   18.7578 N   0  0  0  0  0  0  0  0  0  0  0  0
   10.1382  -15.2653   20.9892 C   0  0  0  0  0  0  0  0  0  0  0  0
   10.4404  -14.5093   21.9499 O   0  0  0  0  0  0  0  0  0  0  0  0
    9.8880  -18.4602   22.8483 C   0  0  0  0  0  0  0  0  0  0  0  0
   10.6570  -17.2195   22.4952 C   0  0  2  0  0  0  0  0  0  0  0  0
   10.2544  -16.6577   21.2115 N   0  0  0  0  0  0  0  0  0  0  0  0
   12.0977  -17.6210   22.3734 C   0  0  0  0  0  0  0  0  0  0  0  0
   12.7195  -17.5666   21.2815 O   0  0  0  0  0  0  0  0  0  0  0  0
   12.7934  -18.0712   23.4849 O   0  0  0  0  0  0  0  0  0  0  0  0
  2  1  1  6
  2  3  1  0
  4  2  1  0
  5  4  1  0
  5  7  1  0
  5  6  1  1
  7 14  1  0
  7  8  2  0
  9 10  1  0
 10 11  1  0
 11 12  1  1
 13 11  1  0
 13 14  1  6
 15 13  1  0
 15 16  2  0
 18 17  1  6
 18 19  1  0
 19 15  1  0
 20 18  1  0
 21 20  2  0
 22 20  1  0
M  END
$$$$
