LIA.pdb
     RDKit          3D

 22 21  0  0  1  0  0  0  0  0999 V2000
    6.5205  -19.8096   22.7874 C   0  0  0  0  0  0  0  0  0  0  0  0
    7.9838  -19.7034   22.3491 C   0  0  2  0  0  0  0  0  0  0  0  0
    8.6643  -20.9847   22.7136 C   0  0  0  0  0  0  0  0  0  0  0  0
    8.5713  -18.4892   22.9945 C   0  0  0  0  0  0  0  0  0  0  0  0
    7.8425  -17.2168   22.7410 C   0  0  2  0  0  0  0  0  0  0  0  0
    7.7902  -16.9863   21.2943 N   0  0  0  0  0  0  0  0  0  0  0  0
    8.3444  -16.0374   23.4639 C   0  0  0  0  0  0  0  0  0  0  0  0
    9.2745  -15.3497   23.0085 O   0  0  0  0  0  0  0  0  0  0  0  0
    5.3524  -12.1535   25.7496 C   0  0  0  0  0  0  0  0  0  0  0  0
    6.4809  -12.8363   24.9614 C   0  0  0  0  0  0  0  0  0  0  0  0
    7.4015  -13.4495   25.9554 C   0  0  2  0  0  0  0  0  0  0  0  0
    8.0534  -12.4316   26.8662 C   0  0  0  0  0  0  0  0  0  0  0  0
    8.3127  -14.4976   25.4570 C   0  0  2  0  0  0  0  0  0  0  0  0
    7.8484  -15.5718   24.7043 N   0  0  0  0  0  0  0  0  0  0  0  0
    9.0725  -15.0278   26.6431 C   0  0  0  0  0  0  0  0  0  0  0  0
    8.4925  -15.7181   27.5221 O   0  0  0  0  0  0  0  0  0  0  0  0
   10.5702  -14.0582   29.1810 C   0  0  0  0  0  0  0  0  0  0  0  0
   11.1174  -14.9652   28.1164 C   0  0  2  0  0  0  0  0  0  0  0  0
   10.4535  -14.7840   26.8311 N   0  0  0  0  0  0  0  0  0  0  0  0
   10.8472  -16.3720   28.5629 C   0  0  0  0  0  0  0  0  0  0  0  0
   10.4602  -16.6436   29.7283 O   0  0  0  0  0  0  0  0  0  0  0  0
   11.0212  -17.4293   27.6831 O   0  0  0  0  0  0  0  0  0  0  0  0
  2  1  1  1
  2  3  1  0
  4  2  1  0
  5  4  1  0
  5  7  1  0
  5  6  1  6
  7 14  1  0
  7  8  2  0
  9 10  1  0
 10 11  1  0
 11 12  1  6
 13 11  1  0
 13 14  1  1
 15 13  1  0
 15 16  2  0
 18 17  1  1
 18 19  1  0
 19 15  1  0
 20 18  1  0
 21 20  2  0
 22 20  1  0
M  END
$$$$
