LIA.pdb
     RDKit          3D

 22 21  0  0  1  0  0  0  0  0999 V2000
    6.2390  -16.9841   19.5171 C   0  0  0  0  0  0  0  0  0  0  0  0
    7.6252  -17.6268   19.6173 C   0  0  2  0  0  0  0  0  0  0  0  0
    7.4454  -19.1111   19.5682 C   0  0  0  0  0  0  0  0  0  0  0  0
    8.2760  -17.1267   20.8672 C   0  0  0  0  0  0  0  0  0  0  0  0
    8.3469  -15.6463   21.0006 C   0  0  2  0  0  0  0  0  0  0  0  0
    9.1722  -15.1162   19.9111 N   0  0  0  0  0  0  0  0  0  0  0  0
    8.7847  -15.1425   22.3120 C   0  0  0  0  0  0  0  0  0  0  0  0
    9.9898  -15.0907   22.6132 O   0  0  0  0  0  0  0  0  0  0  0  0
    6.9510  -11.7700   27.1936 C   0  0  0  0  0  0  0  0  0  0  0  0
    7.9693  -12.7799   26.6418 C   0  0  0  0  0  0  0  0  0  0  0  0
    7.4153  -13.3098   25.3675 C   0  0  2  0  0  0  0  0  0  0  0  0
    5.9701  -13.7440   25.4847 C   0  0  0  0  0  0  0  0  0  0  0  0
    8.2736  -14.2378   24.6065 C   0  0  2  0  0  0  0  0  0  0  0  0
    7.9234  -14.6801   23.3346 N   0  0  0  0  0  0  0  0  0  0  0  0
    8.5245  -15.4341   25.4848 C   0  0  0  0  0  0  0  0  0  0  0  0
    7.5956  -16.2405   25.7538 O   0  0  0  0  0  0  0  0  0  0  0  0
   11.4050  -17.5404   26.3949 C   0  0  0  0  0  0  0  0  0  0  0  0
   10.0808  -16.9418   26.7736 C   0  0  2  0  0  0  0  0  0  0  0  0
    9.7936  -15.7119   26.0452 N   0  0  0  0  0  0  0  0  0  0  0  0
   10.1640  -16.5880   28.2295 C   0  0  0  0  0  0  0  0  0  0  0  0
   10.0417  -15.4059   28.6409 O   0  0  0  0  0  0  0  0  0  0  0  0
   10.3825  -17.5765   29.1768 O   0  0  0  0  0  0  0  0  0  0  0  0
  2  1  1  1
  2  3  1  0
  4  2  1  0
  5  4  1  0
  5  7  1  0
  5  6  1  6
  7 14  1  0
  7  8  2  0
  9 10  1  0
 10 11  1  0
 11 12  1  1
 13 11  1  0
 13 14  1  6
 15 13  1  0
 15 16  2  0
 18 17  1  6
 18 19  1  0
 19 15  1  0
 20 18  1  0
 21 20  2  0
 22 20  1  0
M  END
$$$$
