LIA.pdb
     RDKit          3D

 22 21  0  0  1  0  0  0  0  0999 V2000
    9.3120  -17.6761   29.6798 C   0  0  0  0  0  0  0  0  0  0  0  0
    9.4212  -19.0092   28.9343 C   0  0  2  0  0  0  0  0  0  0  0  0
   10.8434  -19.4651   29.0193 C   0  0  0  0  0  0  0  0  0  0  0  0
    8.9244  -18.7995   27.5396 C   0  0  0  0  0  0  0  0  0  0  0  0
    7.5978  -18.1343   27.4288 C   0  0  2  0  0  0  0  0  0  0  0  0
    6.5507  -19.1532   27.5487 N   0  0  0  0  0  0  0  0  0  0  0  0
    7.4036  -17.2892   26.2399 C   0  0  0  0  0  0  0  0  0  0  0  0
    7.1140  -17.7846   25.1371 O   0  0  0  0  0  0  0  0  0  0  0  0
    6.3425  -11.8976   26.6360 C   0  0  0  0  0  0  0  0  0  0  0  0
    6.0528  -13.2007   25.8750 C   0  0  0  0  0  0  0  0  0  0  0  0
    7.3137  -13.6021   25.1964 C   0  0  2  0  0  0  0  0  0  0  0  0
    7.5718  -12.8300   23.9205 C   0  0  0  0  0  0  0  0  0  0  0  0
    7.5840  -15.0495   25.1016 C   0  0  2  0  0  0  0  0  0  0  0  0
    7.5189  -15.8794   26.2166 N   0  0  0  0  0  0  0  0  0  0  0  0
    8.9340  -15.2090   24.4555 C   0  0  0  0  0  0  0  0  0  0  0  0
    9.9670  -14.7370   24.9993 O   0  0  0  0  0  0  0  0  0  0  0  0
   10.9215  -17.4381   22.6119 C   0  0  0  0  0  0  0  0  0  0  0  0
   10.4142  -16.0248   22.5848 C   0  0  2  0  0  0  0  0  0  0  0  0
    9.1120  -15.8851   23.2255 N   0  0  0  0  0  0  0  0  0  0  0  0
   10.2427  -15.6521   21.1414 C   0  0  0  0  0  0  0  0  0  0  0  0
    9.1093  -15.5133   20.6144 O   0  0  0  0  0  0  0  0  0  0  0  0
   11.3528  -15.4474   20.3366 O   0  0  0  0  0  0  0  0  0  0  0  0
  2  1  1  1
  2  3  1  0
  4  2  1  0
  5  4  1  0
  5  7  1  0
  5  6  1  6
  7 14  1  0
  7  8  2  0
  9 10  1  0
 10 11  1  0
 11 12  1  6
 13 11  1  0
 13 14  1  1
 15 13  1  0
 15 16  2  0
 18 17  1  6
 18 19  1  0
 19 15  1  0
 20 18  1  0
 21 20  2  0
 22 20  1  0
M  END
$$$$
