LIA.pdb
     RDKit          3D

 22 21  0  0  1  0  0  0  0  0999 V2000
    8.1633  -12.9906   18.0722 C   0  0  0  0  0  0  0  0  0  0  0  0
    7.6619  -13.5533   19.4051 C   0  0  2  0  0  0  0  0  0  0  0  0
    7.2088  -12.4019   20.2458 C   0  0  0  0  0  0  0  0  0  0  0  0
    8.7664  -14.3598   20.0096 C   0  0  0  0  0  0  0  0  0  0  0  0
    8.3479  -15.3286   21.0588 C   0  0  2  0  0  0  0  0  0  0  0  0
    6.8945  -15.5041   20.9822 N   0  0  0  0  0  0  0  0  0  0  0  0
    8.7890  -15.0187   22.4280 C   0  0  0  0  0  0  0  0  0  0  0  0
    9.9936  -14.8770   22.7007 O   0  0  0  0  0  0  0  0  0  0  0  0
    7.3198  -12.0451   27.5286 C   0  0  0  0  0  0  0  0  0  0  0  0
    8.1677  -13.1940   26.9608 C   0  0  0  0  0  0  0  0  0  0  0  0
    7.5398  -13.6105   25.6787 C   0  0  2  0  0  0  0  0  0  0  0  0
    6.0622  -13.9101   25.8123 C   0  0  0  0  0  0  0  0  0  0  0  0
    8.2895  -14.5804   24.8575 C   0  0  2  0  0  0  0  0  0  0  0  0
    7.9315  -14.8538   23.5411 N   0  0  0  0  0  0  0  0  0  0  0  0
    8.3357  -15.8733   25.6268 C   0  0  0  0  0  0  0  0  0  0  0  0
    7.2942  -16.5616   25.7910 O   0  0  0  0  0  0  0  0  0  0  0  0
   10.2833  -18.7150   26.0496 C   0  0  0  0  0  0  0  0  0  0  0  0
    9.5969  -17.6645   26.8747 C   0  0  2  0  0  0  0  0  0  0  0  0
    9.5295  -16.3756   26.1964 N   0  0  0  0  0  0  0  0  0  0  0  0
   10.4245  -17.4740   28.1118 C   0  0  0  0  0  0  0  0  0  0  0  0
   11.0096  -16.3905   28.3675 O   0  0  0  0  0  0  0  0  0  0  0  0
   10.5675  -18.5095   29.0224 O   0  0  0  0  0  0  0  0  0  0  0  0
  2  1  1  6
  2  3  1  0
  4  2  1  0
  5  4  1  0
  5  7  1  0
  5  6  1  1
  7 14  1  0
  7  8  2  0
  9 10  1  0
 10 11  1  0
 11 12  1  1
 13 11  1  0
 13 14  1  6
 15 13  1  0
 15 16  2  0
 18 17  1  6
 18 19  1  0
 19 15  1  0
 20 18  1  0
 21 20  2  0
 22 20  1  0
M  END
$$$$
