LIA.pdb
     RDKit          3D

 22 21  0  0  1  0  0  0  0  0999 V2000
    8.5495  -14.7886   18.0662 C   0  0  0  0  0  0  0  0  0  0  0  0
    7.6030  -13.8337   18.7989 C   0  0  2  0  0  0  0  0  0  0  0  0
    7.4262  -12.6195   17.9432 C   0  0  0  0  0  0  0  0  0  0  0  0
    8.1825  -13.5562   20.1491 C   0  0  0  0  0  0  0  0  0  0  0  0
    8.2907  -14.7349   21.0509 C   0  0  2  0  0  0  0  0  0  0  0  0
    7.0116  -15.4510   21.0424 N   0  0  0  0  0  0  0  0  0  0  0  0
    8.7491  -14.4524   22.4204 C   0  0  0  0  0  0  0  0  0  0  0  0
    9.8922  -14.0158   22.6404 O   0  0  0  0  0  0  0  0  0  0  0  0
    7.1313  -11.9988   27.6558 C   0  0  0  0  0  0  0  0  0  0  0  0
    8.0811  -13.0457   27.0534 C   0  0  0  0  0  0  0  0  0  0  0  0
    7.4945  -13.4754   25.7562 C   0  0  2  0  0  0  0  0  0  0  0  0
    6.0535  -13.9226   25.8765 C   0  0  0  0  0  0  0  0  0  0  0  0
    8.3338  -14.3375   24.9021 C   0  0  2  0  0  0  0  0  0  0  0  0
    7.9765  -14.6367   23.5911 N   0  0  0  0  0  0  0  0  0  0  0  0
    8.5567  -15.6241   25.6505 C   0  0  0  0  0  0  0  0  0  0  0  0
    7.5841  -16.3508   25.9843 O   0  0  0  0  0  0  0  0  0  0  0  0
   11.3329  -18.0413   25.9948 C   0  0  0  0  0  0  0  0  0  0  0  0
   10.0900  -17.4102   26.5535 C   0  0  2  0  0  0  0  0  0  0  0  0
    9.8469  -16.0782   26.0128 N   0  0  0  0  0  0  0  0  0  0  0  0
   10.3057  -17.2586   28.0307 C   0  0  0  0  0  0  0  0  0  0  0  0
   10.4851  -18.2468   28.7876 O   0  0  0  0  0  0  0  0  0  0  0  0
   10.3127  -15.9989   28.6096 O   0  0  0  0  0  0  0  0  0  0  0  0
  2  1  1  6
  2  3  1  0
  4  2  1  0
  5  4  1  0
  5  7  1  0
  5  6  1  1
  7 14  1  0
  7  8  2  0
  9 10  1  0
 10 11  1  0
 11 12  1  1
 13 11  1  0
 13 14  1  6
 15 13  1  0
 15 16  2  0
 18 17  1  6
 18 19  1  0
 19 15  1  0
 20 18  1  0
 21 20  2  0
 22 20  1  0
M  END
$$$$
