LIA.pdb
     RDKit          3D

 22 21  0  0  1  0  0  0  0  0999 V2000
    6.8275  -20.3808   21.9416 C   0  0  0  0  0  0  0  0  0  0  0  0
    7.1086  -19.0875   21.1715 C   0  0  2  0  0  0  0  0  0  0  0  0
    7.8028  -19.4554   19.8985 C   0  0  0  0  0  0  0  0  0  0  0  0
    7.8969  -18.1822   22.0631 C   0  0  0  0  0  0  0  0  0  0  0  0
    7.7312  -16.7268   21.8009 C   0  0  2  0  0  0  0  0  0  0  0  0
    8.2223  -16.4344   20.4510 N   0  0  0  0  0  0  0  0  0  0  0  0
    8.3207  -15.8252   22.8035 C   0  0  0  0  0  0  0  0  0  0  0  0
    9.5247  -15.5178   22.7654 O   0  0  0  0  0  0  0  0  0  0  0  0
    6.9326  -11.4420   26.9646 C   0  0  0  0  0  0  0  0  0  0  0  0
    7.9960  -12.3978   26.4017 C   0  0  0  0  0  0  0  0  0  0  0  0
    7.2984  -13.3406   25.4874 C   0  0  2  0  0  0  0  0  0  0  0  0
    5.9698  -13.8198   26.0312 C   0  0  0  0  0  0  0  0  0  0  0  0
    8.1230  -14.3959   24.8680 C   0  0  2  0  0  0  0  0  0  0  0  0
    7.6167  -15.2315   23.8773 N   0  0  0  0  0  0  0  0  0  0  0  0
    8.6734  -15.2432   25.9836 C   0  0  0  0  0  0  0  0  0  0  0  0
    7.9613  -16.1241   26.5335 O   0  0  0  0  0  0  0  0  0  0  0  0
   12.0622  -16.2247   27.1888 C   0  0  0  0  0  0  0  0  0  0  0  0
   10.5919  -16.0252   27.4203 C   0  0  2  0  0  0  0  0  0  0  0  0
    9.9956  -15.0983   26.4658 N   0  0  0  0  0  0  0  0  0  0  0  0
   10.4452  -15.4161   28.7837 C   0  0  0  0  0  0  0  0  0  0  0  0
   10.0492  -14.2343   28.9516 O   0  0  0  0  0  0  0  0  0  0  0  0
   10.7490  -16.1567   29.9157 O   0  0  0  0  0  0  0  0  0  0  0  0
  2  1  1  1
  2  3  1  0
  4  2  1  0
  5  4  1  0
  5  7  1  0
  5  6  1  6
  7 14  1  0
  7  8  2  0
  9 10  1  0
 10 11  1  0
 11 12  1  1
 13 11  1  0
 13 14  1  6
 15 13  1  0
 15 16  2  0
 18 17  1  6
 18 19  1  0
 19 15  1  0
 20 18  1  0
 21 20  2  0
 22 20  1  0
M  END
$$$$
