LIA.pdb
     RDKit          3D

 22 21  0  0  1  0  0  0  0  0999 V2000
    8.5816  -14.7497   18.5288 C   0  0  0  0  0  0  0  0  0  0  0  0
    7.7041  -13.7088   19.2297 C   0  0  2  0  0  0  0  0  0  0  0  0
    7.6991  -12.4731   18.3866 C   0  0  0  0  0  0  0  0  0  0  0  0
    8.2401  -13.5091   20.6113 C   0  0  0  0  0  0  0  0  0  0  0  0
    8.2604  -14.7249   21.4690 C   0  0  2  0  0  0  0  0  0  0  0  0
    6.9085  -15.2901   21.5137 N   0  0  0  0  0  0  0  0  0  0  0  0
    8.8226  -14.5471   22.8172 C   0  0  0  0  0  0  0  0  0  0  0  0
    9.9982  -14.1776   22.9819 O   0  0  0  0  0  0  0  0  0  0  0  0
    6.0513  -12.1687   26.8070 C   0  0  0  0  0  0  0  0  0  0  0  0
    7.1615  -12.5345   25.8095 C   0  0  0  0  0  0  0  0  0  0  0  0
    7.8041  -13.7804   26.3058 C   0  0  2  0  0  0  0  0  0  0  0  0
    8.4844  -13.6031   27.6461 C   0  0  0  0  0  0  0  0  0  0  0  0
    8.5796  -14.5628   25.3242 C   0  0  2  0  0  0  0  0  0  0  0  0
    8.1215  -14.7662   24.0263 N   0  0  0  0  0  0  0  0  0  0  0  0
    8.8718  -15.8995   25.9513 C   0  0  0  0  0  0  0  0  0  0  0  0
    7.9414  -16.6082   26.4178 O   0  0  0  0  0  0  0  0  0  0  0  0
   11.7820  -18.2945   26.0397 C   0  0  0  0  0  0  0  0  0  0  0  0
   10.4590  -17.7732   26.5227 C   0  0  2  0  0  0  0  0  0  0  0  0
   10.1829  -16.4222   26.0488 N   0  0  0  0  0  0  0  0  0  0  0  0
   10.5360  -17.7128   28.0200 C   0  0  0  0  0  0  0  0  0  0  0  0
   10.6087  -18.7481   28.7305 O   0  0  0  0  0  0  0  0  0  0  0  0
   10.5286  -16.4887   28.6707 O   0  0  0  0  0  0  0  0  0  0  0  0
  2  1  1  6
  2  3  1  0
  4  2  1  0
  5  4  1  0
  5  7  1  0
  5  6  1  1
  7 14  1  0
  7  8  2  0
  9 10  1  0
 10 11  1  0
 11 12  1  1
 13 11  1  0
 13 14  1  6
 15 13  1  0
 15 16  2  0
 18 17  1  6
 18 19  1  0
 19 15  1  0
 20 18  1  0
 21 20  2  0
 22 20  1  0
M  END
$$$$
