LIA.pdb
     RDKit          3D

 22 21  0  0  1  0  0  0  0  0999 V2000
    5.9298  -15.8837   19.7533 C   0  0  0  0  0  0  0  0  0  0  0  0
    7.4524  -15.8517   19.5948 C   0  0  2  0  0  0  0  0  0  0  0  0
    7.9246  -17.2618   19.4323 C   0  0  0  0  0  0  0  0  0  0  0  0
    8.0246  -15.1438   20.7811 C   0  0  0  0  0  0  0  0  0  0  0  0
    8.1319  -15.9606   22.0203 C   0  0  2  0  0  0  0  0  0  0  0  0
    6.8690  -16.6776   22.2203 N   0  0  0  0  0  0  0  0  0  0  0  0
    8.5449  -15.2340   23.2314 C   0  0  0  0  0  0  0  0  0  0  0  0
    9.6605  -14.6908   23.3084 O   0  0  0  0  0  0  0  0  0  0  0  0
    5.5579  -11.7136   26.2358 C   0  0  0  0  0  0  0  0  0  0  0  0
    6.6205  -12.4352   25.3923 C   0  0  0  0  0  0  0  0  0  0  0  0
    7.2251  -13.4859   26.2538 C   0  0  2  0  0  0  0  0  0  0  0  0
    7.7552  -12.9452   27.5643 C   0  0  0  0  0  0  0  0  0  0  0  0
    8.1132  -14.4586   25.5887 C   0  0  2  0  0  0  0  0  0  0  0  0
    7.7554  -15.0771   24.3948 N   0  0  0  0  0  0  0  0  0  0  0  0
    8.4513  -15.5184   26.6025 C   0  0  0  0  0  0  0  0  0  0  0  0
    8.9088  -15.2045   27.7329 O   0  0  0  0  0  0  0  0  0  0  0  0
    7.6012  -19.1243   27.1532 C   0  0  0  0  0  0  0  0  0  0  0  0
    8.4748  -17.9213   27.3654 C   0  0  2  0  0  0  0  0  0  0  0  0
    8.2766  -16.8987   26.3452 N   0  0  0  0  0  0  0  0  0  0  0  0
    9.8956  -18.3909   27.2551 C   0  0  0  0  0  0  0  0  0  0  0  0
   10.4084  -19.1797   28.0898 O   0  0  0  0  0  0  0  0  0  0  0  0
   10.6949  -17.9577   26.2084 O   0  0  0  0  0  0  0  0  0  0  0  0
  2  1  1  1
  2  3  1  0
  4  2  1  0
  5  4  1  0
  5  7  1  0
  5  6  1  1
  7 14  1  0
  7  8  2  0
  9 10  1  0
 10 11  1  0
 11 12  1  1
 13 11  1  0
 13 14  1  6
 15 13  1  0
 15 16  2  0
 18 17  1  6
 18 19  1  0
 19 15  1  0
 20 18  1  0
 21 20  2  0
 22 20  1  0
M  END
$$$$
