LIA.pdb
     RDKit          3D

 22 21  0  0  1  0  0  0  0  0999 V2000
    8.4353  -14.6398   18.3861 C   0  0  0  0  0  0  0  0  0  0  0  0
    7.6039  -13.6082   19.1537 C   0  0  2  0  0  0  0  0  0  0  0  0
    7.6304  -12.3303   18.3766 C   0  0  0  0  0  0  0  0  0  0  0  0
    8.1650  -13.5001   20.5355 C   0  0  0  0  0  0  0  0  0  0  0  0
    8.1108  -14.7476   21.3450 C   0  0  2  0  0  0  0  0  0  0  0  0
    6.7253  -15.2257   21.3777 N   0  0  0  0  0  0  0  0  0  0  0  0
    8.6900  -14.6598   22.6948 C   0  0  0  0  0  0  0  0  0  0  0  0
    9.8940  -14.4003   22.8640 O   0  0  0  0  0  0  0  0  0  0  0  0
    5.9067  -12.1639   26.6623 C   0  0  0  0  0  0  0  0  0  0  0  0
    6.9180  -12.6232   25.6005 C   0  0  0  0  0  0  0  0  0  0  0  0
    7.6224  -13.8118   26.1506 C   0  0  2  0  0  0  0  0  0  0  0  0
    8.3147  -13.5336   27.4674 C   0  0  0  0  0  0  0  0  0  0  0  0
    8.4165  -14.6116   25.1982 C   0  0  2  0  0  0  0  0  0  0  0  0
    7.9756  -14.8519   23.9006 N   0  0  0  0  0  0  0  0  0  0  0  0
    8.7131  -15.9293   25.8624 C   0  0  0  0  0  0  0  0  0  0  0  0
    7.7787  -16.6722   26.2631 O   0  0  0  0  0  0  0  0  0  0  0  0
   11.6377  -18.2606   26.1635 C   0  0  0  0  0  0  0  0  0  0  0  0
   10.3253  -17.7057   26.6380 C   0  0  2  0  0  0  0  0  0  0  0  0
   10.0328  -16.3957   26.0685 N   0  0  0  0  0  0  0  0  0  0  0  0
   10.4393  -17.5300   28.1238 C   0  0  0  0  0  0  0  0  0  0  0  0
   10.4787  -16.3951   28.6643 O   0  0  0  0  0  0  0  0  0  0  0  0
   10.5054  -18.6378   28.9548 O   0  0  0  0  0  0  0  0  0  0  0  0
  2  1  1  6
  2  3  1  0
  4  2  1  0
  5  4  1  0
  5  7  1  0
  5  6  1  1
  7 14  1  0
  7  8  2  0
  9 10  1  0
 10 11  1  0
 11 12  1  1
 13 11  1  0
 13 14  1  6
 15 13  1  0
 15 16  2  0
 18 17  1  6
 18 19  1  0
 19 15  1  0
 20 18  1  0
 21 20  2  0
 22 20  1  0
M  END
$$$$
