LIA.pdb
     RDKit          3D

 22 21  0  0  1  0  0  0  0  0999 V2000
    4.2758  -19.5567   21.6518 C   0  0  0  0  0  0  0  0  0  0  0  0
    3.4772  -18.4507   22.3472 C   0  0  2  0  0  0  0  0  0  0  0  0
    2.3261  -18.0923   21.4616 C   0  0  0  0  0  0  0  0  0  0  0  0
    4.4106  -17.3178   22.6322 C   0  0  0  0  0  0  0  0  0  0  0  0
    5.6359  -17.6781   23.3960 C   0  0  2  0  0  0  0  0  0  0  0  0
    5.2341  -18.3022   24.6601 N   0  0  0  0  0  0  0  0  0  0  0  0
    6.6010  -16.5877   23.6080 C   0  0  0  0  0  0  0  0  0  0  0  0
    7.2029  -16.0650   22.6540 O   0  0  0  0  0  0  0  0  0  0  0  0
    5.9042  -12.4647   27.0856 C   0  0  0  0  0  0  0  0  0  0  0  0
    6.3532  -13.1095   25.7651 C   0  0  0  0  0  0  0  0  0  0  0  0
    7.5604  -13.9251   26.0633 C   0  0  2  0  0  0  0  0  0  0  0  0
    8.7587  -13.0884   26.4565 C   0  0  0  0  0  0  0  0  0  0  0  0
    7.8629  -15.0276   25.1304 C   0  0  2  0  0  0  0  0  0  0  0  0
    6.9395  -16.0340   24.8650 N   0  0  0  0  0  0  0  0  0  0  0  0
    9.1504  -15.6581   25.5888 C   0  0  0  0  0  0  0  0  0  0  0  0
   10.1494  -14.9464   25.8733 O   0  0  0  0  0  0  0  0  0  0  0  0
   10.3812  -19.0855   26.6132 C   0  0  0  0  0  0  0  0  0  0  0  0
   10.5622  -17.6769   26.1251 C   0  0  2  0  0  0  0  0  0  0  0  0
    9.3049  -17.0581   25.7223 N   0  0  0  0  0  0  0  0  0  0  0  0
   11.4342  -17.7479   24.9060 C   0  0  0  0  0  0  0  0  0  0  0  0
   12.6348  -18.1185   24.9605 O   0  0  0  0  0  0  0  0  0  0  0  0
   10.9272  -17.3993   23.6637 O   0  0  0  0  0  0  0  0  0  0  0  0
  2  1  1  6
  2  3  1  0
  4  2  1  0
  5  4  1  0
  5  7  1  0
  5  6  1  1
  7 14  1  0
  7  8  2  0
  9 10  1  0
 10 11  1  0
 11 12  1  6
 13 11  1  0
 13 14  1  1
 15 13  1  0
 15 16  2  0
 18 17  1  6
 18 19  1  0
 19 15  1  0
 20 18  1  0
 21 20  2  0
 22 20  1  0
M  END
$$$$
