EIA.pdb
     RDKit          3D

 23 22  0  0  1  0  0  0  0  0999 V2000
   11.5123  -16.0079   15.8522 N   0  0  0  0  0  0  0  0  0  0  0  0
   10.8226  -16.8161   16.8894 C   0  0  1  0  0  0  0  0  0  0  0  0
   11.7189  -18.0060   17.0890 C   0  0  0  0  0  0  0  0  0  0  0  0
   11.5045  -19.0235   16.0328 C   0  0  0  0  0  0  0  0  0  0  0  0
   12.0812  -20.3211   16.4453 C   0  0  0  0  0  0  0  0  0  0  0  0
   13.2488  -20.5269   16.8304 O   0  0  0  0  0  0  0  0  0  0  0  0
   10.8363  -16.0074   18.1597 C   0  0  0  0  0  0  0  0  0  0  0  0
   11.8505  -15.4017   18.5826 O   0  0  0  0  0  0  0  0  0  0  0  0
   11.2222  -21.4350   16.3972 O   0  0  0  0  0  0  0  0  0  0  0  0
    7.1057  -12.4616   19.3338 C   0  0  0  0  0  0  0  0  0  0  0  0
    8.3910  -13.2188   19.3100 C   0  0  0  0  0  0  0  0  0  0  0  0
    8.4358  -14.3361   20.3137 C   0  0  2  0  0  0  0  0  0  0  0  0
    8.2490  -13.8320   21.7037 C   0  0  0  0  0  0  0  0  0  0  0  0
    9.7053  -15.1455   20.2378 C   0  0  2  0  0  0  0  0  0  0  0  0
    9.6666  -15.8745   18.9849 N   0  0  0  0  0  0  0  0  0  0  0  0
    9.8589  -16.0987   21.3312 C   0  0  0  0  0  0  0  0  0  0  0  0
    9.0640  -17.0547   21.5436 O   0  0  0  0  0  0  0  0  0  0  0  0
   12.5654  -16.6363   23.9410 C   0  0  0  0  0  0  0  0  0  0  0  0
   11.2015  -16.8655   23.3230 C   0  0  2  0  0  0  0  0  0  0  0  0
   10.9534  -15.9693   22.2219 N   0  0  0  0  0  0  0  0  0  0  0  0
   10.1823  -16.6755   24.3902 C   0  0  0  0  0  0  0  0  0  0  0  0
    9.2621  -15.6545   24.3278 O   0  0  0  0  0  0  0  0  0  0  0  0
   10.1393  -17.4541   25.3851 O   0  0  0  0  0  0  0  0  0  0  0  0
  2  1  1  6
  2  7  1  0
  2  3  1  0
  3  4  1  0
  4  5  1  0
  5  9  1  0
  5  6  2  0
  7  8  2  0
 11 12  1  0
 11 10  1  0
 12 13  1  1
 14 12  1  0
 15  7  1  0
 14 15  1  6
 16 14  1  0
 17 16  2  0
 19 18  1  1
 19 20  1  0
 20 16  1  0
 21 22  1  0
 21 19  1  0
 23 21  2  0
M  END
$$$$
