EIA.pdb
     RDKit          3D

 23 22  0  0  1  0  0  0  0  0999 V2000
    8.5439  -15.8619   20.2121 N   0  0  0  0  0  0  0  0  0  0  0  0
    7.7576  -16.2650   21.4054 C   0  0  1  0  0  0  0  0  0  0  0  0
    7.9068  -17.7595   21.4602 C   0  0  0  0  0  0  0  0  0  0  0  0
    6.9793  -18.4272   20.5164 C   0  0  0  0  0  0  0  0  0  0  0  0
    7.0654  -19.8959   20.6644 C   0  0  0  0  0  0  0  0  0  0  0  0
    7.7968  -20.6671   20.0130 O   0  0  0  0  0  0  0  0  0  0  0  0
    8.4539  -15.6853   22.6083 C   0  0  0  0  0  0  0  0  0  0  0  0
    9.7019  -15.6235   22.7216 O   0  0  0  0  0  0  0  0  0  0  0  0
    6.2365  -20.4794   21.6407 O   0  0  0  0  0  0  0  0  0  0  0  0
    7.2635  -11.6820   27.1141 C   0  0  0  0  0  0  0  0  0  0  0  0
    8.1337  -12.7689   26.5781 C   0  0  0  0  0  0  0  0  0  0  0  0
    7.5302  -13.4805   25.4003 C   0  0  2  0  0  0  0  0  0  0  0  0
    6.1740  -14.0115   25.7167 C   0  0  0  0  0  0  0  0  0  0  0  0
    8.3988  -14.5965   24.8781 C   0  0  2  0  0  0  0  0  0  0  0  0
    7.7199  -15.1553   23.7252 N   0  0  0  0  0  0  0  0  0  0  0  0
    8.6314  -15.6610   25.8479 C   0  0  0  0  0  0  0  0  0  0  0  0
    7.7084  -16.2622   26.4625 O   0  0  0  0  0  0  0  0  0  0  0  0
   11.6130  -17.8052   26.6188 C   0  0  0  0  0  0  0  0  0  0  0  0
   10.2905  -17.1714   26.9983 C   0  0  2  0  0  0  0  0  0  0  0  0
    9.9586  -16.0646   26.1370 N   0  0  0  0  0  0  0  0  0  0  0  0
   10.3933  -16.7197   28.4122 C   0  0  0  0  0  0  0  0  0  0  0  0
   10.5307  -17.6202   29.4435 O   0  0  0  0  0  0  0  0  0  0  0  0
   10.3564  -15.4891   28.6991 O   0  0  0  0  0  0  0  0  0  0  0  0
  2  1  1  6
  2  7  1  0
  2  3  1  0
  3  4  1  0
  4  5  1  0
  5  9  1  0
  5  6  2  0
  7  8  2  0
 11 12  1  0
 11 10  1  0
 12 13  1  1
 14 12  1  0
 15  7  1  0
 14 15  1  6
 16 14  1  0
 17 16  2  0
 19 18  1  6
 19 20  1  0
 20 16  1  0
 21 22  1  0
 21 19  1  0
 23 21  2  0
M  END
$$$$
