EIA.pdb
     RDKit          3D

 23 22  0  0  1  0  0  0  0  0999 V2000
    8.3717  -14.7679   20.3218 N   0  0  0  0  0  0  0  0  0  0  0  0
    7.7498  -15.5292   21.4346 C   0  0  1  0  0  0  0  0  0  0  0  0
    8.1026  -16.9615   21.1466 C   0  0  0  0  0  0  0  0  0  0  0  0
    7.3660  -17.4693   19.9650 C   0  0  0  0  0  0  0  0  0  0  0  0
    7.6096  -18.9175   19.7914 C   0  0  0  0  0  0  0  0  0  0  0  0
    7.2615  -19.8282   20.5682 O   0  0  0  0  0  0  0  0  0  0  0  0
    8.4603  -15.1220   22.6984 C   0  0  0  0  0  0  0  0  0  0  0  0
    9.6966  -14.9177   22.7611 O   0  0  0  0  0  0  0  0  0  0  0  0
    8.3050  -19.3037   18.6304 O   0  0  0  0  0  0  0  0  0  0  0  0
    6.0883  -11.7154   25.9357 C   0  0  0  0  0  0  0  0  0  0  0  0
    7.1589  -12.4882   25.2411 C   0  0  0  0  0  0  0  0  0  0  0  0
    7.5584  -13.7354   25.9778 C   0  0  2  0  0  0  0  0  0  0  0  0
    8.2118  -13.4176   27.2791 C   0  0  0  0  0  0  0  0  0  0  0  0
    8.4579  -14.6348   25.1688 C   0  0  2  0  0  0  0  0  0  0  0  0
    7.7547  -14.9375   23.9374 N   0  0  0  0  0  0  0  0  0  0  0  0
    8.7914  -15.8866   25.8392 C   0  0  0  0  0  0  0  0  0  0  0  0
    7.9302  -16.6931   26.2852 O   0  0  0  0  0  0  0  0  0  0  0  0
   11.9745  -17.8684   26.2076 C   0  0  0  0  0  0  0  0  0  0  0  0
   10.5844  -17.4621   26.6519 C   0  0  2  0  0  0  0  0  0  0  0  0
   10.1513  -16.2444   26.0142 N   0  0  0  0  0  0  0  0  0  0  0  0
   10.6112  -17.2959   28.1302 C   0  0  0  0  0  0  0  0  0  0  0  0
   10.6426  -18.3834   28.9726 O   0  0  0  0  0  0  0  0  0  0  0  0
   10.6058  -16.1429   28.6485 O   0  0  0  0  0  0  0  0  0  0  0  0
  2  1  1  6
  2  7  1  0
  2  3  1  0
  3  4  1  0
  4  5  1  0
  5  9  1  0
  5  6  2  0
  7  8  2  0
 11 12  1  0
 11 10  1  0
 12 13  1  1
 14 12  1  0
 15  7  1  0
 14 15  1  6
 16 14  1  0
 17 16  2  0
 19 18  1  6
 19 20  1  0
 20 16  1  0
 21 22  1  0
 21 19  1  0
 23 21  2  0
M  END
$$$$
