EIA.pdb
     RDKit          3D

 23 22  0  0  1  0  0  0  0  0999 V2000
    9.2154  -15.5291   20.3850 N   0  0  0  0  0  0  0  0  0  0  0  0
    8.3083  -15.9242   21.4921 C   0  0  1  0  0  0  0  0  0  0  0  0
    8.4381  -17.4199   21.5619 C   0  0  0  0  0  0  0  0  0  0  0  0
    7.8355  -18.0678   20.3728 C   0  0  0  0  0  0  0  0  0  0  0  0
    7.4204  -19.4497   20.6961 C   0  0  0  0  0  0  0  0  0  0  0  0
    8.1663  -20.3915   21.0287 O   0  0  0  0  0  0  0  0  0  0  0  0
    8.8834  -15.3494   22.7596 C   0  0  0  0  0  0  0  0  0  0  0  0
   10.1147  -15.2206   22.9637 O   0  0  0  0  0  0  0  0  0  0  0  0
    6.0426  -19.7267   20.6198 O   0  0  0  0  0  0  0  0  0  0  0  0
    7.0467  -11.7588   27.4249 C   0  0  0  0  0  0  0  0  0  0  0  0
    8.0975  -12.6092   26.7935 C   0  0  0  0  0  0  0  0  0  0  0  0
    7.6127  -13.3344   25.5701 C   0  0  2  0  0  0  0  0  0  0  0  0
    6.3035  -14.0041   25.8126 C   0  0  0  0  0  0  0  0  0  0  0  0
    8.6058  -14.3429   25.0509 C   0  0  2  0  0  0  0  0  0  0  0  0
    8.0433  -14.9027   23.8374 N   0  0  0  0  0  0  0  0  0  0  0  0
    8.8814  -15.4286   25.9853 C   0  0  0  0  0  0  0  0  0  0  0  0
    7.9918  -16.1857   26.4610 O   0  0  0  0  0  0  0  0  0  0  0  0
   12.0065  -17.2374   26.9781 C   0  0  0  0  0  0  0  0  0  0  0  0
   10.5994  -16.7566   27.2669 C   0  0  2  0  0  0  0  0  0  0  0  0
   10.2143  -15.6711   26.4006 N   0  0  0  0  0  0  0  0  0  0  0  0
   10.5493  -16.3301   28.6914 C   0  0  0  0  0  0  0  0  0  0  0  0
   10.6670  -17.2409   29.7161 O   0  0  0  0  0  0  0  0  0  0  0  0
   10.3962  -15.1123   28.9937 O   0  0  0  0  0  0  0  0  0  0  0  0
  2  1  1  6
  2  7  1  0
  2  3  1  0
  3  4  1  0
  4  5  1  0
  5  9  1  0
  5  6  2  0
  7  8  2  0
 11 12  1  0
 11 10  1  0
 12 13  1  1
 14 12  1  0
 15  7  1  0
 14 15  1  6
 16 14  1  0
 17 16  2  0
 19 18  1  6
 19 20  1  0
 20 16  1  0
 21 22  1  0
 21 19  1  0
 23 21  2  0
M  END
$$$$
