EIA.pdb
     RDKit          3D

 23 22  0  0  1  0  0  0  0  0999 V2000
    7.5350  -18.5491   18.4650 N   0  0  0  0  0  0  0  0  0  0  0  0
    8.9602  -18.2845   18.1433 C   0  0  1  0  0  0  0  0  0  0  0  0
    8.9254  -17.6995   16.7593 C   0  0  0  0  0  0  0  0  0  0  0  0
   10.2939  -17.4857   16.2317 C   0  0  0  0  0  0  0  0  0  0  0  0
   10.7147  -18.6423   15.4121 C   0  0  0  0  0  0  0  0  0  0  0  0
   10.2744  -18.9572   14.2891 O   0  0  0  0  0  0  0  0  0  0  0  0
    9.4335  -17.2117   19.0882 C   0  0  0  0  0  0  0  0  0  0  0  0
   10.6283  -16.8366   19.1656 O   0  0  0  0  0  0  0  0  0  0  0  0
   11.7140  -19.4696   15.9578 O   0  0  0  0  0  0  0  0  0  0  0  0
    7.1220  -12.5189   19.8484 C   0  0  0  0  0  0  0  0  0  0  0  0
    8.1327  -13.6163   19.8451 C   0  0  0  0  0  0  0  0  0  0  0  0
    8.0723  -14.4773   21.0752 C   0  0  2  0  0  0  0  0  0  0  0  0
    8.3329  -13.6862   22.3112 C   0  0  0  0  0  0  0  0  0  0  0  0
    9.0169  -15.6508   21.0197 C   0  0  2  0  0  0  0  0  0  0  0  0
    8.5300  -16.5354   19.9789 N   0  0  0  0  0  0  0  0  0  0  0  0
    9.0984  -16.3972   22.2703 C   0  0  0  0  0  0  0  0  0  0  0  0
    8.0923  -16.8448   22.8855 O   0  0  0  0  0  0  0  0  0  0  0  0
   11.4337  -18.6032   23.8723 C   0  0  0  0  0  0  0  0  0  0  0  0
   10.5541  -17.3868   24.0756 C   0  0  2  0  0  0  0  0  0  0  0  0
   10.3658  -16.6496   22.8516 N   0  0  0  0  0  0  0  0  0  0  0  0
   11.1974  -16.5293   25.1074 C   0  0  0  0  0  0  0  0  0  0  0  0
   11.3394  -16.9576   26.4073 O   0  0  0  0  0  0  0  0  0  0  0  0
   11.6307  -15.3797   24.8100 O   0  0  0  0  0  0  0  0  0  0  0  0
  2  1  1  1
  2  7  1  0
  2  3  1  0
  3  4  1  0
  4  5  1  0
  5  9  1  0
  5  6  2  0
  7  8  2  0
 11 12  1  0
 11 10  1  0
 12 13  1  1
 14 12  1  0
 15  7  1  0
 14 15  1  6
 16 14  1  0
 17 16  2  0
 19 18  1  6
 19 20  1  0
 20 16  1  0
 21 22  1  0
 21 19  1  0
 23 21  2  0
M  END
$$$$
