EIA.pdb
     RDKit          3D

 23 22  0  0  1  0  0  0  0  0999 V2000
    9.6744  -15.9732   20.2121 N   0  0  0  0  0  0  0  0  0  0  0  0
    9.5560  -16.6444   21.5312 C   0  0  1  0  0  0  0  0  0  0  0  0
   10.8184  -17.4511   21.6514 C   0  0  0  0  0  0  0  0  0  0  0  0
   10.8238  -18.5862   20.6984 C   0  0  0  0  0  0  0  0  0  0  0  0
   12.0818  -19.3536   20.8209 C   0  0  0  0  0  0  0  0  0  0  0  0
   12.2261  -20.4611   21.3747 O   0  0  0  0  0  0  0  0  0  0  0  0
    9.5942  -15.5647   22.5802 C   0  0  0  0  0  0  0  0  0  0  0  0
   10.3132  -14.5402   22.4918 O   0  0  0  0  0  0  0  0  0  0  0  0
   13.2311  -18.7721   20.2537 O   0  0  0  0  0  0  0  0  0  0  0  0
    6.0399  -12.3517   26.0588 C   0  0  0  0  0  0  0  0  0  0  0  0
    7.4201  -12.8948   25.8977 C   0  0  0  0  0  0  0  0  0  0  0  0
    7.4711  -14.1330   25.0479 C   0  0  2  0  0  0  0  0  0  0  0  0
    6.6572  -15.2348   25.6353 C   0  0  0  0  0  0  0  0  0  0  0  0
    8.8760  -14.6208   24.8014 C   0  0  2  0  0  0  0  0  0  0  0  0
    8.7945  -15.6394   23.7726 N   0  0  0  0  0  0  0  0  0  0  0  0
    9.5126  -15.1950   25.9816 C   0  0  0  0  0  0  0  0  0  0  0  0
    9.6799  -16.4332   26.1543 O   0  0  0  0  0  0  0  0  0  0  0  0
   10.7796  -13.7646   29.2520 C   0  0  0  0  0  0  0  0  0  0  0  0
   10.7582  -14.7885   28.1359 C   0  0  2  0  0  0  0  0  0  0  0  0
    9.9799  -14.3386   27.0093 N   0  0  0  0  0  0  0  0  0  0  0  0
   10.1953  -16.0500   28.6884 C   0  0  0  0  0  0  0  0  0  0  0  0
    8.9237  -16.4673   28.3685 O   0  0  0  0  0  0  0  0  0  0  0  0
   10.8783  -16.7716   29.4699 O   0  0  0  0  0  0  0  0  0  0  0  0
  2  1  1  6
  2  7  1  0
  2  3  1  0
  3  4  1  0
  4  5  1  0
  5  9  1  0
  5  6  2  0
  7  8  2  0
 11 12  1  0
 11 10  1  0
 12 13  1  1
 14 12  1  0
 15  7  1  0
 14 15  1  6
 16 14  1  0
 17 16  2  0
 19 18  1  1
 19 20  1  0
 20 16  1  0
 21 22  1  0
 21 19  1  0
 23 21  2  0
M  END
$$$$
