EIA.pdb
     RDKit          3D

 23 22  0  0  1  0  0  0  0  0999 V2000
    8.2912  -14.9788   19.9660 N   0  0  0  0  0  0  0  0  0  0  0  0
    7.4559  -15.3816   21.1257 C   0  0  1  0  0  0  0  0  0  0  0  0
    7.3976  -16.8808   21.0378 C   0  0  0  0  0  0  0  0  0  0  0  0
    7.1666  -17.3289   19.6440 C   0  0  0  0  0  0  0  0  0  0  0  0
    7.0239  -18.7999   19.5945 C   0  0  0  0  0  0  0  0  0  0  0  0
    7.8119  -19.6057   19.0620 O   0  0  0  0  0  0  0  0  0  0  0  0
    8.2243  -15.0197   22.3692 C   0  0  0  0  0  0  0  0  0  0  0  0
    9.4775  -15.0133   22.4299 O   0  0  0  0  0  0  0  0  0  0  0  0
    5.8815  -19.3422   20.2124 O   0  0  0  0  0  0  0  0  0  0  0  0
    7.5401  -11.5297   27.3326 C   0  0  0  0  0  0  0  0  0  0  0  0
    8.2873  -12.6258   26.6499 C   0  0  0  0  0  0  0  0  0  0  0  0
    7.5752  -13.1600   25.4395 C   0  0  2  0  0  0  0  0  0  0  0  0
    6.1834  -13.5828   25.7645 C   0  0  0  0  0  0  0  0  0  0  0  0
    8.3076  -14.3013   24.7811 C   0  0  2  0  0  0  0  0  0  0  0  0
    7.5593  -14.6513   23.5894 N   0  0  0  0  0  0  0  0  0  0  0  0
    8.4277  -15.4851   25.6249 C   0  0  0  0  0  0  0  0  0  0  0  0
    7.4444  -16.1809   25.9991 O   0  0  0  0  0  0  0  0  0  0  0  0
   11.0865  -17.9244   26.1627 C   0  0  0  0  0  0  0  0  0  0  0  0
    9.9509  -17.1317   26.7765 C   0  0  2  0  0  0  0  0  0  0  0  0
    9.7085  -15.9020   26.0651 N   0  0  0  0  0  0  0  0  0  0  0  0
   10.3067  -16.8530   28.1940 C   0  0  0  0  0  0  0  0  0  0  0  0
   10.4766  -17.8717   29.1032 O   0  0  0  0  0  0  0  0  0  0  0  0
   10.4618  -15.6650   28.5971 O   0  0  0  0  0  0  0  0  0  0  0  0
  2  1  1  6
  2  7  1  0
  2  3  1  0
  3  4  1  0
  4  5  1  0
  5  9  1  0
  5  6  2  0
  7  8  2  0
 11 12  1  0
 11 10  1  0
 12 13  1  1
 14 12  1  0
 15  7  1  0
 14 15  1  6
 16 14  1  0
 17 16  2  0
 19 18  1  6
 19 20  1  0
 20 16  1  0
 21 22  1  0
 21 19  1  0
 23 21  2  0
M  END
$$$$
