EIA.pdb
     RDKit          3D

 23 22  0  0  1  0  0  0  0  0999 V2000
    8.7490  -18.0307   15.4560 N   0  0  0  0  0  0  0  0  0  0  0  0
    7.9710  -18.0400   16.7206 C   0  0  1  0  0  0  0  0  0  0  0  0
    8.0799  -19.4560   17.2125 C   0  0  0  0  0  0  0  0  0  0  0  0
    7.0158  -20.3097   16.6331 C   0  0  0  0  0  0  0  0  0  0  0  0
    7.0908  -21.6756   17.1943 C   0  0  0  0  0  0  0  0  0  0  0  0
    7.9220  -22.0939   18.0239 O   0  0  0  0  0  0  0  0  0  0  0  0
    8.7017  -17.1536   17.6942 C   0  0  0  0  0  0  0  0  0  0  0  0
    9.9464  -16.9954   17.6851 O   0  0  0  0  0  0  0  0  0  0  0  0
    6.1242  -22.5944   16.7445 O   0  0  0  0  0  0  0  0  0  0  0  0
    7.5514  -12.1151   20.9557 C   0  0  0  0  0  0  0  0  0  0  0  0
    8.4523  -13.2753   20.6946 C   0  0  0  0  0  0  0  0  0  0  0  0
    7.8003  -14.3566   19.8802 C   0  0  2  0  0  0  0  0  0  0  0  0
    6.5428  -14.8401   20.5177 C   0  0  0  0  0  0  0  0  0  0  0  0
    8.7134  -15.5268   19.6161 C   0  0  2  0  0  0  0  0  0  0  0  0
    8.0076  -16.4178   18.7158 N   0  0  0  0  0  0  0  0  0  0  0  0
    9.0798  -16.2672   20.8183 C   0  0  0  0  0  0  0  0  0  0  0  0
    8.2839  -17.0143   21.4503 O   0  0  0  0  0  0  0  0  0  0  0  0
   12.3048  -17.4107   22.2234 C   0  0  0  0  0  0  0  0  0  0  0  0
   10.8872  -16.9264   22.4481 C   0  0  2  0  0  0  0  0  0  0  0  0
   10.3973  -16.1615   21.3292 N   0  0  0  0  0  0  0  0  0  0  0  0
   10.8806  -16.1019   23.6866 C   0  0  0  0  0  0  0  0  0  0  0  0
   11.1343  -16.6589   24.9189 O   0  0  0  0  0  0  0  0  0  0  0  0
   10.6398  -14.8621   23.6332 O   0  0  0  0  0  0  0  0  0  0  0  0
  2  1  1  6
  2  7  1  0
  2  3  1  0
  3  4  1  0
  4  5  1  0
  5  9  1  0
  5  6  2  0
  7  8  2  0
 11 12  1  0
 11 10  1  0
 12 13  1  1
 14 12  1  0
 15  7  1  0
 14 15  1  6
 16 14  1  0
 17 16  2  0
 19 18  1  6
 19 20  1  0
 20 16  1  0
 21 22  1  0
 21 19  1  0
 23 21  2  0
M  END
$$$$
