EIA.pdb
     RDKit          3D

 23 22  0  0  1  0  0  0  0  0999 V2000
    9.6496  -15.5022   20.3818 N   0  0  0  0  0  0  0  0  0  0  0  0
    8.8248  -16.1002   21.4619 C   0  0  1  0  0  0  0  0  0  0  0  0
    9.2640  -17.5367   21.5116 C   0  0  0  0  0  0  0  0  0  0  0  0
    8.7713  -18.2905   20.3344 C   0  0  0  0  0  0  0  0  0  0  0  0
    9.0804  -19.7292   20.4798 C   0  0  0  0  0  0  0  0  0  0  0  0
    8.2573  -20.6620   20.5598 O   0  0  0  0  0  0  0  0  0  0  0  0
    9.2425  -15.4430   22.7508 C   0  0  0  0  0  0  0  0  0  0  0  0
   10.4156  -15.0644   22.9851 O   0  0  0  0  0  0  0  0  0  0  0  0
   10.4430  -20.0776   20.5327 O   0  0  0  0  0  0  0  0  0  0  0  0
    6.9265  -11.8459   27.0693 C   0  0  0  0  0  0  0  0  0  0  0  0
    8.0038  -12.7950   26.6638 C   0  0  0  0  0  0  0  0  0  0  0  0
    7.6620  -13.5832   25.4310 C   0  0  2  0  0  0  0  0  0  0  0  0
    6.3481  -14.2732   25.5683 C   0  0  0  0  0  0  0  0  0  0  0  0
    8.7228  -14.5886   25.0617 C   0  0  2  0  0  0  0  0  0  0  0  0
    8.3069  -15.2023   23.8155 N   0  0  0  0  0  0  0  0  0  0  0  0
    8.9116  -15.6349   26.0604 C   0  0  0  0  0  0  0  0  0  0  0  0
    7.9960  -16.4160   26.4380 O   0  0  0  0  0  0  0  0  0  0  0  0
   11.8700  -17.4706   27.2864 C   0  0  0  0  0  0  0  0  0  0  0  0
   10.5042  -16.8791   27.5682 C   0  0  2  0  0  0  0  0  0  0  0  0
   10.1847  -15.8081   26.6582 N   0  0  0  0  0  0  0  0  0  0  0  0
   10.5036  -16.3881   28.9727 C   0  0  0  0  0  0  0  0  0  0  0  0
   10.6541  -17.2518   30.0332 O   0  0  0  0  0  0  0  0  0  0  0  0
   10.3636  -15.1573   29.2242 O   0  0  0  0  0  0  0  0  0  0  0  0
  2  1  1  6
  2  7  1  0
  2  3  1  0
  3  4  1  0
  4  5  1  0
  5  9  1  0
  5  6  2  0
  7  8  2  0
 11 12  1  0
 11 10  1  0
 12 13  1  1
 14 12  1  0
 15  7  1  0
 14 15  1  6
 16 14  1  0
 17 16  2  0
 19 18  1  6
 19 20  1  0
 20 16  1  0
 21 22  1  0
 21 19  1  0
 23 21  2  0
M  END
$$$$
