EIA.pdb
     RDKit          3D

 23 22  0  0  1  0  0  0  0  0999 V2000
    8.9560  -18.4945   19.2085 N   0  0  0  0  0  0  0  0  0  0  0  0
   10.3478  -18.0902   19.5311 C   0  0  1  0  0  0  0  0  0  0  0  0
   10.9510  -17.7425   18.1991 C   0  0  0  0  0  0  0  0  0  0  0  0
   10.6479  -18.7796   17.1846 C   0  0  0  0  0  0  0  0  0  0  0  0
   11.2568  -18.4208   15.8857 C   0  0  0  0  0  0  0  0  0  0  0  0
   10.6649  -17.9644   14.8881 O   0  0  0  0  0  0  0  0  0  0  0  0
   10.2621  -16.8263   20.3453 C   0  0  0  0  0  0  0  0  0  0  0  0
   11.2593  -16.1227   20.6364 O   0  0  0  0  0  0  0  0  0  0  0  0
   12.6456  -18.6153   15.7669 O   0  0  0  0  0  0  0  0  0  0  0  0
    7.1033  -12.7843   19.3459 C   0  0  0  0  0  0  0  0  0  0  0  0
    8.2128  -13.6104   19.9048 C   0  0  0  0  0  0  0  0  0  0  0  0
    7.8501  -14.2893   21.1953 C   0  0  2  0  0  0  0  0  0  0  0  0
    7.4615  -13.3032   22.2430 C   0  0  0  0  0  0  0  0  0  0  0  0
    8.9479  -15.1779   21.7222 C   0  0  2  0  0  0  0  0  0  0  0  0
    9.0090  -16.3351   20.8506 N   0  0  0  0  0  0  0  0  0  0  0  0
    8.7283  -15.6319   23.0910 C   0  0  0  0  0  0  0  0  0  0  0  0
    7.7760  -16.3842   23.4349 O   0  0  0  0  0  0  0  0  0  0  0  0
    8.0412  -15.3178   25.9856 C   0  0  0  0  0  0  0  0  0  0  0  0
    9.4559  -15.5658   25.5042 C   0  0  2  0  0  0  0  0  0  0  0  0
    9.6184  -15.2213   24.1143 N   0  0  0  0  0  0  0  0  0  0  0  0
    9.7643  -17.0046   25.7247 C   0  0  0  0  0  0  0  0  0  0  0  0
   10.0604  -17.8425   24.6742 O   0  0  0  0  0  0  0  0  0  0  0  0
    9.7611  -17.4923   26.8909 O   0  0  0  0  0  0  0  0  0  0  0  0
  2  1  1  6
  2  7  1  0
  2  3  1  0
  3  4  1  0
  4  5  1  0
  5  9  1  0
  5  6  2  0
  7  8  2  0
 11 12  1  0
 11 10  1  0
 12 13  1  1
 14 12  1  0
 15  7  1  0
 14 15  1  6
 16 14  1  0
 17 16  2  0
 19 18  1  6
 19 20  1  0
 20 16  1  0
 21 22  1  0
 21 19  1  0
 23 21  2  0
M  END
$$$$
