EIA.pdb
     RDKit          3D

 23 22  0  0  1  0  0  0  0  0999 V2000
   10.1526  -16.0570   20.4271 N   0  0  0  0  0  0  0  0  0  0  0  0
    9.7374  -16.7482   21.6739 C   0  0  1  0  0  0  0  0  0  0  0  0
   10.8205  -17.7621   21.9141 C   0  0  0  0  0  0  0  0  0  0  0  0
   10.3131  -19.1432   21.7356 C   0  0  0  0  0  0  0  0  0  0  0  0
   11.3747  -20.1245   22.0462 C   0  0  0  0  0  0  0  0  0  0  0  0
   11.2657  -21.3662   22.0352 O   0  0  0  0  0  0  0  0  0  0  0  0
    9.7999  -15.7316   22.7831 C   0  0  0  0  0  0  0  0  0  0  0  0
   10.7365  -14.9070   22.9130 O   0  0  0  0  0  0  0  0  0  0  0  0
   12.6352  -19.6002   22.3885 O   0  0  0  0  0  0  0  0  0  0  0  0
    6.0343  -12.5471   26.3646 C   0  0  0  0  0  0  0  0  0  0  0  0
    7.4138  -13.0651   26.1312 C   0  0  0  0  0  0  0  0  0  0  0  0
    7.4605  -14.1917   25.1380 C   0  0  2  0  0  0  0  0  0  0  0  0
    6.6035  -15.3341   25.5645 C   0  0  0  0  0  0  0  0  0  0  0  0
    8.8601  -14.6841   24.8711 C   0  0  2  0  0  0  0  0  0  0  0  0
    8.7712  -15.6386   23.7832 N   0  0  0  0  0  0  0  0  0  0  0  0
    9.4807  -15.3364   26.0188 C   0  0  0  0  0  0  0  0  0  0  0  0
    9.6264  -16.5852   26.1201 O   0  0  0  0  0  0  0  0  0  0  0  0
   10.9081  -14.0618   29.3001 C   0  0  0  0  0  0  0  0  0  0  0  0
   10.7509  -15.0699   28.1805 C   0  0  2  0  0  0  0  0  0  0  0  0
    9.9567  -14.5491   27.0965 N   0  0  0  0  0  0  0  0  0  0  0  0
   10.1172  -16.2883   28.7530 C   0  0  0  0  0  0  0  0  0  0  0  0
    8.8413  -16.6643   28.4011 O   0  0  0  0  0  0  0  0  0  0  0  0
   10.7421  -17.0101   29.5814 O   0  0  0  0  0  0  0  0  0  0  0  0
  2  1  1  6
  2  7  1  0
  2  3  1  0
  3  4  1  0
  4  5  1  0
  5  9  1  0
  5  6  2  0
  7  8  2  0
 11 12  1  0
 11 10  1  0
 12 13  1  1
 14 12  1  0
 15  7  1  0
 14 15  1  6
 16 14  1  0
 17 16  2  0
 19 18  1  1
 19 20  1  0
 20 16  1  0
 21 22  1  0
 21 19  1  0
 23 21  2  0
M  END
$$$$
