EIA.pdb
     RDKit          3D

 23 22  0  0  1  0  0  0  0  0999 V2000
   10.4951  -17.7914   16.5999 N   0  0  0  0  0  0  0  0  0  0  0  0
    9.3211  -17.7312   17.5068 C   0  0  1  0  0  0  0  0  0  0  0  0
    9.1311  -19.1509   17.9621 C   0  0  0  0  0  0  0  0  0  0  0  0
    8.6809  -20.0173   16.8470 C   0  0  0  0  0  0  0  0  0  0  0  0
    8.4073  -21.3851   17.3376 C   0  0  0  0  0  0  0  0  0  0  0  0
    9.0661  -22.4121   17.0824 O   0  0  0  0  0  0  0  0  0  0  0  0
    9.7293  -16.9118   18.7025 C   0  0  0  0  0  0  0  0  0  0  0  0
   10.9232  -16.7416   19.0488 O   0  0  0  0  0  0  0  0  0  0  0  0
    7.2889  -21.5400   18.1779 O   0  0  0  0  0  0  0  0  0  0  0  0
    6.8741  -12.4795   19.7216 C   0  0  0  0  0  0  0  0  0  0  0  0
    8.0039  -13.4487   19.6220 C   0  0  0  0  0  0  0  0  0  0  0  0
    8.1041  -14.3618   20.8111 C   0  0  2  0  0  0  0  0  0  0  0  0
    8.3468  -13.5995   22.0686 C   0  0  0  0  0  0  0  0  0  0  0  0
    9.1641  -15.4219   20.6521 C   0  0  2  0  0  0  0  0  0  0  0  0
    8.7596  -16.2594   19.5397 N   0  0  0  0  0  0  0  0  0  0  0  0
    9.3361  -16.2605   21.8332 C   0  0  0  0  0  0  0  0  0  0  0  0
    8.4049  -16.9298   22.3584 O   0  0  0  0  0  0  0  0  0  0  0  0
   12.3873  -17.4389   23.7325 C   0  0  0  0  0  0  0  0  0  0  0  0
   10.8999  -17.1999   23.5738 C   0  0  2  0  0  0  0  0  0  0  0  0
   10.6099  -16.3484   22.4477 N   0  0  0  0  0  0  0  0  0  0  0  0
   10.4022  -16.5855   24.8342 C   0  0  0  0  0  0  0  0  0  0  0  0
    9.8404  -15.3295   24.8454 O   0  0  0  0  0  0  0  0  0  0  0  0
   10.4854  -17.2089   25.9307 O   0  0  0  0  0  0  0  0  0  0  0  0
  2  1  1  6
  2  7  1  0
  2  3  1  0
  3  4  1  0
  4  5  1  0
  5  9  1  0
  5  6  2  0
  7  8  2  0
 11 12  1  0
 11 10  1  0
 12 13  1  1
 14 12  1  0
 15  7  1  0
 14 15  1  6
 16 14  1  0
 17 16  2  0
 19 18  1  1
 19 20  1  0
 20 16  1  0
 21 22  1  0
 21 19  1  0
 23 21  2  0
M  END
$$$$
