MHK.pdb
     RDKit          3D

 28 28  0  0  1  0  0  0  0  0999 V2000
   27.0366  -18.4498   -6.2465 C   0  0  0  0  0  0  0  0  0  0  0  0
   28.1851  -19.8272   -6.1465 S   0  0  0  0  0  0  0  0  0  0  0  0
   28.0330  -20.9064   -7.6226 C   0  0  0  0  0  0  0  0  0  0  0  0
   26.9478  -20.3570   -8.4879 C   0  0  0  0  0  0  0  0  0  0  0  0
   26.6948  -21.1641   -9.7104 C   0  0  2  0  0  0  0  0  0  0  0  0
   27.9039  -21.9435   -9.9892 N   0  0  0  0  0  0  0  0  0  0  0  0
   26.2294  -20.4359  -10.8875 C   0  0  0  0  0  0  0  0  0  0  0  0
   25.1569  -19.7826  -10.9162 O   0  0  0  0  0  0  0  0  0  0  0  0
   26.9890  -20.4268  -12.1038 N   0  0  0  0  0  0  0  0  0  0  0  0
   26.5721  -19.7619  -13.3155 C   0  0  1  0  0  0  0  0  0  0  0  0
   27.6255  -19.6709  -14.3749 C   0  0  0  0  0  0  0  0  0  0  0  0
   27.2936  -18.9153  -15.5675 C   0  0  0  0  0  0  0  0  0  0  0  0
   26.1289  -18.2835  -15.9083 C   0  0  0  0  0  0  0  0  0  0  0  0
   26.3553  -17.7396  -17.1325 N   0  0  0  0  0  0  0  0  0  0  0  0
   27.6073  -18.0229  -17.5325 C   0  0  0  0  0  0  0  0  0  0  0  0
   28.1846  -18.7395  -16.5827 N   0  0  0  0  0  0  0  0  0  0  0  0
   25.4408  -20.5206  -13.9287 C   0  0  0  0  0  0  0  0  0  0  0  0
   25.4918  -21.7579  -14.0039 O   0  0  0  0  0  0  0  0  0  0  0  0
   24.3204  -19.8317  -14.4192 N   0  0  0  0  0  0  0  0  0  0  0  0
   23.1050  -20.5867  -14.9267 C   0  0  1  0  0  0  0  0  0  0  0  0
   21.9696  -19.7269  -14.5323 C   0  0  0  0  0  0  0  0  0  0  0  0
   20.5758  -20.0637  -14.7868 C   0  0  0  0  0  0  0  0  0  0  0  0
   19.4609  -19.1784  -14.4169 C   0  0  0  0  0  0  0  0  0  0  0  0
   18.0989  -19.7757  -14.6829 C   0  0  0  0  0  0  0  0  0  0  0  0
   17.1154  -18.8416  -14.1634 N   0  0  0  0  0  0  0  0  0  0  0  0
   23.3509  -20.5970  -16.3892 C   0  0  0  0  0  0  0  0  0  0  0  0
   23.9579  -19.7230  -17.0384 O   0  0  0  0  0  0  0  0  0  0  0  0
   22.8858  -21.6668  -17.2065 O   0  0  0  0  0  0  0  0  0  0  0  0
  1  2  1  0
  3  4  1  0
  3  2  1  0
  4  5  1  0
  5  6  1  6
  7  9  1  0
  7  5  1  0
  8  7  2  0
 10  9  1  0
 11 12  1  0
 10 11  1  6
 12 16  1  0
 12 13  2  0
 13 14  1  0
 14 15  1  0
 16 15  2  0
 17 19  1  0
 17 10  1  0
 18 17  2  0
 20 19  1  0
 20 26  1  0
 20 21  1  6
 22 23  1  0
 22 21  1  0
 23 24  1  0
 24 25  1  0
 26 28  1  0
 27 26  2  0
M  END
$$$$
