MHK.pdb
     RDKit          3D

 28 28  0  0  1  0  0  0  0  0999 V2000
   34.1572  -15.8437  -19.2007 C   0  0  0  0  0  0  0  0  0  0  0  0
   35.0114  -14.3671  -19.7631 S   0  0  0  0  0  0  0  0  0  0  0  0
   35.1371  -13.1355  -18.4087 C   0  0  0  0  0  0  0  0  0  0  0  0
   33.7530  -12.7642  -17.9907 C   0  0  0  0  0  0  0  0  0  0  0  0
   33.0150  -11.9732  -19.0104 C   0  0  2  0  0  0  0  0  0  0  0  0
   33.7166  -10.6980  -19.1801 N   0  0  0  0  0  0  0  0  0  0  0  0
   31.5854  -11.7851  -18.7799 C   0  0  0  0  0  0  0  0  0  0  0  0
   30.7629  -12.7333  -18.7313 O   0  0  0  0  0  0  0  0  0  0  0  0
   31.0290  -10.4768  -18.5923 N   0  0  0  0  0  0  0  0  0  0  0  0
   29.6251  -10.2152  -18.3804 C   0  0  1  0  0  0  0  0  0  0  0  0
   29.3086   -8.8257  -17.9226 C   0  0  0  0  0  0  0  0  0  0  0  0
   27.9167   -8.5271  -17.6452 C   0  0  0  0  0  0  0  0  0  0  0  0
   26.8223   -9.3477  -17.6731 C   0  0  0  0  0  0  0  0  0  0  0  0
   25.7676   -8.5583  -17.3414 N   0  0  0  0  0  0  0  0  0  0  0  0
   26.1914   -7.3020  -17.1177 C   0  0  0  0  0  0  0  0  0  0  0  0
   27.5007   -7.2764  -17.3014 N   0  0  0  0  0  0  0  0  0  0  0  0
   28.8907  -10.3981  -19.6682 C   0  0  0  0  0  0  0  0  0  0  0  0
   29.2735   -9.8081  -20.6903 O   0  0  0  0  0  0  0  0  0  0  0  0
   27.7674  -11.2384  -19.7202 N   0  0  0  0  0  0  0  0  0  0  0  0
   27.0360  -11.4776  -21.0289 C   0  0  1  0  0  0  0  0  0  0  0  0
   26.6911  -12.9137  -20.9791 C   0  0  0  0  0  0  0  0  0  0  0  0
   25.9899  -13.6127  -22.0470 C   0  0  0  0  0  0  0  0  0  0  0  0
   25.6984  -15.0538  -22.0002 C   0  0  0  0  0  0  0  0  0  0  0  0
   25.0642  -15.5851  -23.2643 C   0  0  0  0  0  0  0  0  0  0  0  0
   24.8963  -17.0169  -23.0873 N   0  0  0  0  0  0  0  0  0  0  0  0
   25.8592  -10.5876  -20.8786 C   0  0  0  0  0  0  0  0  0  0  0  0
   25.1618  -10.4584  -19.8535 O   0  0  0  0  0  0  0  0  0  0  0  0
   25.4137   -9.7680  -21.9549 O   0  0  0  0  0  0  0  0  0  0  0  0
  1  2  1  0
  3  4  1  0
  3  2  1  0
  4  5  1  0
  5  6  1  1
  7  9  1  0
  7  5  1  0
  8  7  2  0
 10  9  1  0
 11 12  1  0
 10 11  1  6
 12 16  1  0
 12 13  2  0
 13 14  1  0
 14 15  1  0
 16 15  2  0
 17 19  1  0
 17 10  1  0
 18 17  2  0
 20 19  1  0
 20 26  1  0
 20 21  1  1
 22 23  1  0
 22 21  1  0
 23 24  1  0
 24 25  1  0
 26 28  1  0
 27 26  2  0
M  END
$$$$
