MHK.pdb
     RDKit          3D

 28 28  0  0  1  0  0  0  0  0999 V2000
   20.1620  -14.7615  -17.1076 C   0  0  0  0  0  0  0  0  0  0  0  0
   21.5224  -13.7154  -17.6382 S   0  0  0  0  0  0  0  0  0  0  0  0
   22.9886  -14.7296  -18.0726 C   0  0  0  0  0  0  0  0  0  0  0  0
   22.7273  -16.1325  -17.6345 C   0  0  0  0  0  0  0  0  0  0  0  0
   23.9128  -17.0224  -17.7482 C   0  0  2  0  0  0  0  0  0  0  0  0
   24.3029  -17.0685  -19.1598 N   0  0  0  0  0  0  0  0  0  0  0  0
   23.7828  -18.3579  -17.1722 C   0  0  0  0  0  0  0  0  0  0  0  0
   23.7531  -19.4076  -17.8616 O   0  0  0  0  0  0  0  0  0  0  0  0
   23.6791  -18.5488  -15.7547 N   0  0  0  0  0  0  0  0  0  0  0  0
   23.5426  -19.8370  -15.1176 C   0  0  1  0  0  0  0  0  0  0  0  0
   24.4489  -20.0565  -13.9468 C   0  0  0  0  0  0  0  0  0  0  0  0
   24.5377  -21.4086  -13.4297 C   0  0  0  0  0  0  0  0  0  0  0  0
   23.8889  -22.5443  -13.8312 C   0  0  0  0  0  0  0  0  0  0  0  0
   24.3312  -23.5271  -13.0041 N   0  0  0  0  0  0  0  0  0  0  0  0
   25.2163  -23.0210  -12.1276 C   0  0  0  0  0  0  0  0  0  0  0  0
   25.3465  -21.7298  -12.3819 N   0  0  0  0  0  0  0  0  0  0  0  0
   22.1523  -19.9802  -14.5902 C   0  0  0  0  0  0  0  0  0  0  0  0
   21.6446  -19.0662  -13.9225 O   0  0  0  0  0  0  0  0  0  0  0  0
   21.4216  -21.1500  -14.8514 N   0  0  0  0  0  0  0  0  0  0  0  0
   20.0209  -21.3316  -14.2946 C   0  0  1  0  0  0  0  0  0  0  0  0
   20.2522  -21.8181  -12.9185 C   0  0  0  0  0  0  0  0  0  0  0  0
   19.6124  -23.0026  -12.3632 C   0  0  0  0  0  0  0  0  0  0  0  0
   19.7806  -23.4173  -10.9619 C   0  0  0  0  0  0  0  0  0  0  0  0
   18.9586  -24.6277  -10.5853 C   0  0  0  0  0  0  0  0  0  0  0  0
   19.1047  -24.8125   -9.1521 N   0  0  0  0  0  0  0  0  0  0  0  0
   19.4989  -19.9444  -14.3450 C   0  0  0  0  0  0  0  0  0  0  0  0
   18.6776  -19.4979  -15.1696 O   0  0  0  0  0  0  0  0  0  0  0  0
   19.9207  -18.9643  -13.4015 O   0  0  0  0  0  0  0  0  0  0  0  0
  1  2  1  0
  3  4  1  0
  3  2  1  0
  4  5  1  0
  5  6  1  6
  7  9  1  0
  7  5  1  0
  8  7  2  0
 10  9  1  0
 11 12  1  0
 10 11  1  1
 12 16  1  0
 12 13  2  0
 13 14  1  0
 14 15  1  0
 16 15  2  0
 17 19  1  0
 17 10  1  0
 18 17  2  0
 20 19  1  0
 20 26  1  0
 20 21  1  1
 22 23  1  0
 22 21  1  0
 23 24  1  0
 24 25  1  0
 26 28  1  0
 27 26  2  0
M  END
$$$$
