MHK.pdb
     RDKit          3D

 28 28  0  0  1  0  0  0  0  0999 V2000
   15.0793  -13.0794  -14.6179 C   0  0  0  0  0  0  0  0  0  0  0  0
   13.6215  -12.4242  -15.4377 S   0  0  0  0  0  0  0  0  0  0  0  0
   13.7833  -10.6154  -15.6999 C   0  0  0  0  0  0  0  0  0  0  0  0
   14.4234  -10.0271  -14.4864 C   0  0  0  0  0  0  0  0  0  0  0  0
   14.6205   -8.5560  -14.5710 C   0  0  2  0  0  0  0  0  0  0  0  0
   15.3381   -8.2724  -15.8166 N   0  0  0  0  0  0  0  0  0  0  0  0
   15.2489   -7.9154  -13.4191 C   0  0  0  0  0  0  0  0  0  0  0  0
   15.0359   -8.2665  -12.2320 O   0  0  0  0  0  0  0  0  0  0  0  0
   16.1649   -6.8244  -13.5839 N   0  0  0  0  0  0  0  0  0  0  0  0
   16.8462   -6.1657  -12.4947 C   0  0  1  0  0  0  0  0  0  0  0  0
   18.1839   -5.5937  -12.8465 C   0  0  0  0  0  0  0  0  0  0  0  0
   19.2340   -6.5369  -13.1797 C   0  0  0  0  0  0  0  0  0  0  0  0
   19.2495   -7.9014  -13.0812 C   0  0  0  0  0  0  0  0  0  0  0  0
   20.4786   -8.2833  -13.5163 N   0  0  0  0  0  0  0  0  0  0  0  0
   21.1936   -7.2006  -13.8690 C   0  0  0  0  0  0  0  0  0  0  0  0
   20.4404   -6.1328  -13.6661 N   0  0  0  0  0  0  0  0  0  0  0  0
   16.0206   -5.0135  -12.0231 C   0  0  0  0  0  0  0  0  0  0  0  0
   15.3496   -4.3574  -12.8345 O   0  0  0  0  0  0  0  0  0  0  0  0
   16.0052   -4.6746  -10.6609 N   0  0  0  0  0  0  0  0  0  0  0  0
   15.1655   -3.5139  -10.1586 C   0  0  1  0  0  0  0  0  0  0  0  0
   14.5834   -4.0228   -8.8992 C   0  0  0  0  0  0  0  0  0  0  0  0
   13.7326   -3.2281   -8.0244 C   0  0  0  0  0  0  0  0  0  0  0  0
   13.2020   -3.7370   -6.7503 C   0  0  0  0  0  0  0  0  0  0  0  0
   12.3180   -2.7497   -6.0246 C   0  0  0  0  0  0  0  0  0  0  0  0
   11.8465   -3.4070   -4.8182 N   0  0  0  0  0  0  0  0  0  0  0  0
   16.1976   -2.4702   -9.9466 C   0  0  0  0  0  0  0  0  0  0  0  0
   17.3998   -2.6686   -9.6832 O   0  0  0  0  0  0  0  0  0  0  0  0
   15.8738   -1.0859  -10.0333 O   0  0  0  0  0  0  0  0  0  0  0  0
  1  2  1  0
  3  4  1  0
  3  2  1  0
  4  5  1  0
  5  6  1  6
  7  9  1  0
  7  5  1  0
  8  7  2  0
 10  9  1  0
 11 12  1  0
 10 11  1  6
 12 16  1  0
 12 13  2  0
 13 14  1  0
 14 15  1  0
 16 15  2  0
 17 19  1  0
 17 10  1  0
 18 17  2  0
 20 19  1  0
 20 26  1  0
 20 21  1  1
 22 23  1  0
 22 21  1  0
 23 24  1  0
 24 25  1  0
 26 28  1  0
 27 26  2  0
M  END
$$$$
