MHK.pdb
     RDKit          3D

 28 28  0  0  1  0  0  0  0  0999 V2000
   26.4051  -12.8932  -14.5961 C   0  0  0  0  0  0  0  0  0  0  0  0
   27.6510  -12.6856  -15.8733 S   0  0  0  0  0  0  0  0  0  0  0  0
   26.9029  -12.0043  -17.4039 C   0  0  0  0  0  0  0  0  0  0  0  0
   25.4183  -12.0735  -17.2641 C   0  0  0  0  0  0  0  0  0  0  0  0
   24.6841  -11.4143  -18.3761 C   0  0  2  0  0  0  0  0  0  0  0  0
   25.6767  -10.8394  -19.2878 N   0  0  0  0  0  0  0  0  0  0  0  0
   23.6619  -10.4430  -17.9966 C   0  0  0  0  0  0  0  0  0  0  0  0
   22.8611   -9.9272  -18.8155 O   0  0  0  0  0  0  0  0  0  0  0  0
   23.5130  -10.0144  -16.6362 N   0  0  0  0  0  0  0  0  0  0  0  0
   22.3909   -9.2505  -16.1447 C   0  0  1  0  0  0  0  0  0  0  0  0
   21.7283   -9.8209  -14.9297 C   0  0  0  0  0  0  0  0  0  0  0  0
   20.7987  -10.9139  -15.1411 C   0  0  0  0  0  0  0  0  0  0  0  0
   20.4022  -11.5140  -16.3050 C   0  0  0  0  0  0  0  0  0  0  0  0
   19.5137  -12.4729  -15.9352 N   0  0  0  0  0  0  0  0  0  0  0  0
   19.3665  -12.4664  -14.5987 C   0  0  0  0  0  0  0  0  0  0  0  0
   20.1472  -11.5182  -14.1088 N   0  0  0  0  0  0  0  0  0  0  0  0
   22.8579   -7.8868  -15.7527 C   0  0  0  0  0  0  0  0  0  0  0  0
   23.9715   -7.7397  -15.2260 O   0  0  0  0  0  0  0  0  0  0  0  0
   22.0353   -6.7726  -15.9815 N   0  0  0  0  0  0  0  0  0  0  0  0
   22.5273   -5.3685  -15.6793 C   0  0  1  0  0  0  0  0  0  0  0  0
   21.5513   -4.4999  -16.3697 C   0  0  0  0  0  0  0  0  0  0  0  0
   21.5239   -3.0502  -16.2344 C   0  0  0  0  0  0  0  0  0  0  0  0
   20.4717   -2.2131  -16.8310 C   0  0  0  0  0  0  0  0  0  0  0  0
   20.6942   -0.7312  -16.6382 C   0  0  0  0  0  0  0  0  0  0  0  0
   19.5612   -0.0488  -17.2382 N   0  0  0  0  0  0  0  0  0  0  0  0
   22.4082   -5.3235  -14.2017 C   0  0  0  0  0  0  0  0  0  0  0  0
   21.6683   -6.0425  -13.5020 O   0  0  0  0  0  0  0  0  0  0  0  0
   23.1737   -4.4040  -13.4289 O   0  0  0  0  0  0  0  0  0  0  0  0
  1  2  1  0
  3  4  1  0
  3  2  1  0
  4  5  1  0
  5  6  1  6
  7  9  1  0
  7  5  1  0
  8  7  2  0
 10  9  1  0
 11 12  1  0
 10 11  1  1
 12 16  1  0
 12 13  2  0
 13 14  1  0
 14 15  1  0
 16 15  2  0
 17 19  1  0
 17 10  1  0
 18 17  2  0
 20 19  1  0
 20 26  1  0
 20 21  1  6
 22 23  1  0
 22 21  1  0
 23 24  1  0
 24 25  1  0
 26 28  1  0
 27 26  2  0
M  END
$$$$
