MHK.pdb
     RDKit          3D

 28 28  0  0  1  0  0  0  0  0999 V2000
   18.2482  -11.1928  -20.6635 C   0  0  0  0  0  0  0  0  0  0  0  0
   19.7844  -10.2631  -20.6166 S   0  0  0  0  0  0  0  0  0  0  0  0
   20.9987  -11.0732  -19.5049 C   0  0  0  0  0  0  0  0  0  0  0  0
   20.6190  -12.5109  -19.3738 C   0  0  0  0  0  0  0  0  0  0  0  0
   21.4082  -13.2442  -18.3493 C   0  0  2  0  0  0  0  0  0  0  0  0
   22.8263  -13.0946  -18.6865 N   0  0  0  0  0  0  0  0  0  0  0  0
   21.0438  -14.6398  -18.1218 C   0  0  0  0  0  0  0  0  0  0  0  0
   20.5381  -15.3747  -19.0062 O   0  0  0  0  0  0  0  0  0  0  0  0
   21.2479  -15.2625  -16.8462 N   0  0  0  0  0  0  0  0  0  0  0  0
   20.9221  -16.6381  -16.5536 C   0  0  1  0  0  0  0  0  0  0  0  0
   22.0394  -17.4329  -15.9534 C   0  0  0  0  0  0  0  0  0  0  0  0
   23.1434  -17.7780  -16.8283 C   0  0  0  0  0  0  0  0  0  0  0  0
   23.3109  -17.5360  -18.1644 C   0  0  0  0  0  0  0  0  0  0  0  0
   24.5148  -18.0784  -18.4839 N   0  0  0  0  0  0  0  0  0  0  0  0
   25.0690  -18.6329  -17.3915 C   0  0  0  0  0  0  0  0  0  0  0  0
   24.2378  -18.4531  -16.3788 N   0  0  0  0  0  0  0  0  0  0  0  0
   19.8104  -16.6791  -15.5568 C   0  0  0  0  0  0  0  0  0  0  0  0
   19.7648  -15.8412  -14.6431 O   0  0  0  0  0  0  0  0  0  0  0  0
   18.8177  -17.6667  -15.6557 N   0  0  0  0  0  0  0  0  0  0  0  0
   17.6621  -17.7080  -14.6718 C   0  0  1  0  0  0  0  0  0  0  0  0
   16.5358  -18.2245  -15.4771 C   0  0  0  0  0  0  0  0  0  0  0  0
   15.1690  -18.3219  -14.9838 C   0  0  0  0  0  0  0  0  0  0  0  0
   14.0470  -18.7657  -15.8251 C   0  0  0  0  0  0  0  0  0  0  0  0
   12.7220  -18.7990  -15.1000 C   0  0  0  0  0  0  0  0  0  0  0  0
   11.7247  -19.2481  -16.0556 N   0  0  0  0  0  0  0  0  0  0  0  0
   18.1598  -18.6814  -13.6696 C   0  0  0  0  0  0  0  0  0  0  0  0
   17.7775  -18.7788  -12.4872 O   0  0  0  0  0  0  0  0  0  0  0  0
   19.1680  -19.6307  -14.0027 O   0  0  0  0  0  0  0  0  0  0  0  0
  1  2  1  0
  3  4  1  0
  3  2  1  0
  4  5  1  0
  5  6  1  6
  7  9  1  0
  7  5  1  0
  8  7  2  0
 10  9  1  0
 11 12  1  0
 10 11  1  1
 12 16  1  0
 12 13  2  0
 13 14  1  0
 14 15  1  0
 16 15  2  0
 17 19  1  0
 17 10  1  0
 18 17  2  0
 20 19  1  0
 20 26  1  0
 20 21  1  6
 22 23  1  0
 22 21  1  0
 23 24  1  0
 24 25  1  0
 26 28  1  0
 27 26  2  0
M  END
$$$$
