MHK.pdb
     RDKit          3D

 28 28  0  0  1  0  0  0  0  0999 V2000
   31.8489   -9.4718  -17.2165 C   0  0  0  0  0  0  0  0  0  0  0  0
   30.0605   -9.5443  -17.3683 S   0  0  0  0  0  0  0  0  0  0  0  0
   29.5089   -8.7414  -18.9233 C   0  0  0  0  0  0  0  0  0  0  0  0
   28.0164   -8.7167  -18.9274 C   0  0  0  0  0  0  0  0  0  0  0  0
   27.3982  -10.0569  -18.7491 C   0  0  2  0  0  0  0  0  0  0  0  0
   27.7850  -10.8833  -19.8956 N   0  0  0  0  0  0  0  0  0  0  0  0
   25.9569  -10.0840  -18.5162 C   0  0  0  0  0  0  0  0  0  0  0  0
   25.1068  -10.0300  -19.4395 O   0  0  0  0  0  0  0  0  0  0  0  0
   25.4203  -10.1755  -17.1895 N   0  0  0  0  0  0  0  0  0  0  0  0
   24.0094  -10.2062  -16.8855 C   0  0  1  0  0  0  0  0  0  0  0  0
   23.6112  -11.2200  -15.8589 C   0  0  0  0  0  0  0  0  0  0  0  0
   22.2006  -11.3047  -15.5325 C   0  0  0  0  0  0  0  0  0  0  0  0
   21.1567  -10.5249  -15.9495 C   0  0  0  0  0  0  0  0  0  0  0  0
   20.0558  -11.0334  -15.3369 N   0  0  0  0  0  0  0  0  0  0  0  0
   20.4039  -12.0836  -14.5729 C   0  0  0  0  0  0  0  0  0  0  0  0
   21.7102  -12.2542  -14.6878 N   0  0  0  0  0  0  0  0  0  0  0  0
   23.5963   -8.8814  -16.3326 C   0  0  0  0  0  0  0  0  0  0  0  0
   24.2676   -8.3459  -15.4372 O   0  0  0  0  0  0  0  0  0  0  0  0
   22.4480   -8.2435  -16.8278 N   0  0  0  0  0  0  0  0  0  0  0  0
   22.0493   -6.8656  -16.3305 C   0  0  1  0  0  0  0  0  0  0  0  0
   21.2840   -6.2948  -17.4586 C   0  0  0  0  0  0  0  0  0  0  0  0
   20.6497   -4.9844  -17.4224 C   0  0  0  0  0  0  0  0  0  0  0  0
   19.9314   -4.4139  -18.5723 C   0  0  0  0  0  0  0  0  0  0  0  0
   19.3521   -3.0441  -18.3060 C   0  0  0  0  0  0  0  0  0  0  0  0
   18.5584   -2.6842  -19.4679 N   0  0  0  0  0  0  0  0  0  0  0  0
   21.2025   -7.2052  -15.1613 C   0  0  0  0  0  0  0  0  0  0  0  0
   20.3829   -8.1421  -15.0950 O   0  0  0  0  0  0  0  0  0  0  0  0
   21.2668   -6.4435  -13.9595 O   0  0  0  0  0  0  0  0  0  0  0  0
  1  2  1  0
  3  4  1  0
  3  2  1  0
  4  5  1  0
  5  6  1  6
  7  9  1  0
  7  5  1  0
  8  7  2  0
 10  9  1  0
 11 12  1  0
 10 11  1  1
 12 16  1  0
 12 13  2  0
 13 14  1  0
 14 15  1  0
 16 15  2  0
 17 19  1  0
 17 10  1  0
 18 17  2  0
 20 19  1  0
 20 26  1  0
 20 21  1  6
 22 23  1  0
 22 21  1  0
 23 24  1  0
 24 25  1  0
 26 28  1  0
 27 26  2  0
M  END
$$$$
