MHK.pdb
     RDKit          3D

 28 28  0  0  1  0  0  0  0  0999 V2000
   25.9962  -25.6934  -15.5808 C   0  0  0  0  0  0  0  0  0  0  0  0
   25.0633  -25.7857  -17.1131 S   0  0  0  0  0  0  0  0  0  0  0  0
   23.9567  -24.3323  -17.2867 C   0  0  0  0  0  0  0  0  0  0  0  0
   23.6509  -23.8174  -15.9194 C   0  0  0  0  0  0  0  0  0  0  0  0
   22.7311  -22.6494  -15.9150 C   0  0  2  0  0  0  0  0  0  0  0  0
   23.4207  -21.5354  -16.5711 N   0  0  0  0  0  0  0  0  0  0  0  0
   22.1746  -22.2631  -14.6214 C   0  0  0  0  0  0  0  0  0  0  0  0
   22.8145  -21.6075  -13.7621 O   0  0  0  0  0  0  0  0  0  0  0  0
   20.8354  -22.6198  -14.2525 N   0  0  0  0  0  0  0  0  0  0  0  0
   20.1683  -22.1458  -13.0632 C   0  0  1  0  0  0  0  0  0  0  0  0
   19.2905  -20.9513  -13.2707 C   0  0  0  0  0  0  0  0  0  0  0  0
   19.9437  -19.7164  -13.6601 C   0  0  0  0  0  0  0  0  0  0  0  0
   20.5815  -18.7822  -12.8903 C   0  0  0  0  0  0  0  0  0  0  0  0
   21.0017  -17.8234  -13.7561 N   0  0  0  0  0  0  0  0  0  0  0  0
   20.6391  -18.1502  -15.0089 C   0  0  0  0  0  0  0  0  0  0  0  0
   19.9938  -19.3033  -14.9571 N   0  0  0  0  0  0  0  0  0  0  0  0
   19.2756  -23.2221  -12.5378 C   0  0  0  0  0  0  0  0  0  0  0  0
   18.6802  -23.9739  -13.3249 O   0  0  0  0  0  0  0  0  0  0  0  0
   19.1118  -23.3817  -11.1528 N   0  0  0  0  0  0  0  0  0  0  0  0
   18.3183  -24.5490  -10.5937 C   0  0  1  0  0  0  0  0  0  0  0  0
   18.5714  -24.4791   -9.1394 C   0  0  0  0  0  0  0  0  0  0  0  0
   17.8687  -25.2939   -8.1579 C   0  0  0  0  0  0  0  0  0  0  0  0
   18.1277  -25.2022   -6.7128 C   0  0  0  0  0  0  0  0  0  0  0  0
   17.3507  -26.2057   -5.8931 C   0  0  0  0  0  0  0  0  0  0  0  0
   17.6532  -25.9410   -4.4974 N   0  0  0  0  0  0  0  0  0  0  0  0
   16.9330  -24.1719  -10.9654 C   0  0  0  0  0  0  0  0  0  0  0  0
   16.0547  -24.9405  -11.4032 O   0  0  0  0  0  0  0  0  0  0  0  0
   16.4776  -22.8280  -10.8425 O   0  0  0  0  0  0  0  0  0  0  0  0
  1  2  1  0
  3  4  1  0
  3  2  1  0
  4  5  1  0
  5  6  1  1
  7  9  1  0
  7  5  1  0
  8  7  2  0
 10  9  1  0
 11 12  1  0
 10 11  1  6
 12 16  1  0
 12 13  2  0
 13 14  1  0
 14 15  1  0
 16 15  2  0
 17 19  1  0
 17 10  1  0
 18 17  2  0
 20 19  1  0
 20 26  1  0
 20 21  1  1
 22 23  1  0
 22 21  1  0
 23 24  1  0
 24 25  1  0
 26 28  1  0
 27 26  2  0
M  END
$$$$
