MHK.pdb
     RDKit          3D

 28 28  0  0  1  0  0  0  0  0999 V2000
   17.1725  -24.6998  -15.2590 C   0  0  0  0  0  0  0  0  0  0  0  0
   16.0650  -23.5450  -14.4426 S   0  0  0  0  0  0  0  0  0  0  0  0
   16.9460  -22.6264  -13.1208 C   0  0  0  0  0  0  0  0  0  0  0  0
   18.4058  -22.9072  -13.2559 C   0  0  0  0  0  0  0  0  0  0  0  0
   19.2652  -21.7164  -13.0248 C   0  0  2  0  0  0  0  0  0  0  0  0
   18.4086  -20.5291  -13.0850 N   0  0  0  0  0  0  0  0  0  0  0  0
   20.4421  -21.5863  -13.8793 C   0  0  0  0  0  0  0  0  0  0  0  0
   21.3170  -22.4807  -13.9910 O   0  0  0  0  0  0  0  0  0  0  0  0
   20.6691  -20.4022  -14.6558 N   0  0  0  0  0  0  0  0  0  0  0  0
   21.6711  -20.2895  -15.6890 C   0  0  1  0  0  0  0  0  0  0  0  0
   21.2399  -19.5216  -16.8993 C   0  0  0  0  0  0  0  0  0  0  0  0
   20.2765  -20.1619  -17.7741 C   0  0  0  0  0  0  0  0  0  0  0  0
   20.4790  -20.9147  -18.8985 C   0  0  0  0  0  0  0  0  0  0  0  0
   19.2389  -21.2589  -19.3337 N   0  0  0  0  0  0  0  0  0  0  0  0
   18.3081  -20.7408  -18.5133 C   0  0  0  0  0  0  0  0  0  0  0  0
   18.9343  -20.0709  -17.5604 N   0  0  0  0  0  0  0  0  0  0  0  0
   22.8581  -19.5631  -15.1461 C   0  0  0  0  0  0  0  0  0  0  0  0
   22.6993  -18.5653  -14.4261 O   0  0  0  0  0  0  0  0  0  0  0  0
   24.1529  -20.0111  -15.4516 N   0  0  0  0  0  0  0  0  0  0  0  0
   25.3723  -19.3141  -14.8754 C   0  0  1  0  0  0  0  0  0  0  0  0
   25.9804  -20.3389  -14.0014 C   0  0  0  0  0  0  0  0  0  0  0  0
   27.2602  -20.1686  -13.3276 C   0  0  0  0  0  0  0  0  0  0  0  0
   27.8736  -21.2208  -12.5029 C   0  0  0  0  0  0  0  0  0  0  0  0
   29.1564  -20.7922  -11.8295 C   0  0  0  0  0  0  0  0  0  0  0  0
   29.6085  -21.9120  -11.0225 N   0  0  0  0  0  0  0  0  0  0  0  0
   26.1654  -19.0430  -16.0989 C   0  0  0  0  0  0  0  0  0  0  0  0
   26.1050  -19.6786  -17.1695 O   0  0  0  0  0  0  0  0  0  0  0  0
   27.1079  -17.9760  -16.1441 O   0  0  0  0  0  0  0  0  0  0  0  0
  1  2  1  0
  3  4  1  0
  3  2  1  0
  4  5  1  0
  5  6  1  6
  7  9  1  0
  7  5  1  0
  8  7  2  0
 10  9  1  0
 11 12  1  0
 10 11  1  6
 12 16  1  0
 12 13  2  0
 13 14  1  0
 14 15  1  0
 16 15  2  0
 17 19  1  0
 17 10  1  0
 18 17  2  0
 20 19  1  0
 20 26  1  0
 20 21  1  1
 22 23  1  0
 22 21  1  0
 23 24  1  0
 24 25  1  0
 26 28  1  0
 27 26  2  0
M  END
$$$$
