MHK.pdb
     RDKit          3D

 28 28  0  0  1  0  0  0  0  0999 V2000
   19.6233  -16.9527  -14.8904 C   0  0  0  0  0  0  0  0  0  0  0  0
   20.5697  -17.4269  -16.3416 S   0  0  0  0  0  0  0  0  0  0  0  0
   20.8134  -15.9888  -17.4549 C   0  0  0  0  0  0  0  0  0  0  0  0
   21.0705  -14.7865  -16.6085 C   0  0  0  0  0  0  0  0  0  0  0  0
   21.2250  -13.5307  -17.3891 C   0  0  2  0  0  0  0  0  0  0  0  0
   22.1004  -13.8180  -18.5284 N   0  0  0  0  0  0  0  0  0  0  0  0
   21.6617  -12.3515  -16.6468 C   0  0  0  0  0  0  0  0  0  0  0  0
   21.1389  -11.9830  -15.5656 O   0  0  0  0  0  0  0  0  0  0  0  0
   22.7364  -11.5299  -17.1228 N   0  0  0  0  0  0  0  0  0  0  0  0
   23.2471  -10.3760  -16.4216 C   0  0  1  0  0  0  0  0  0  0  0  0
   24.6944  -10.0832  -16.6669 C   0  0  0  0  0  0  0  0  0  0  0  0
   25.6483  -11.0923  -16.2484 C   0  0  0  0  0  0  0  0  0  0  0  0
   25.4504  -12.2421  -15.5338 C   0  0  0  0  0  0  0  0  0  0  0  0
   26.6780  -12.8115  -15.4140 N   0  0  0  0  0  0  0  0  0  0  0  0
   27.5970  -12.0463  -16.0285 C   0  0  0  0  0  0  0  0  0  0  0  0
   26.9756  -10.9966  -16.5392 N   0  0  0  0  0  0  0  0  0  0  0  0
   22.5032   -9.1599  -16.8680 C   0  0  0  0  0  0  0  0  0  0  0  0
   22.2556   -8.9909  -18.0719 O   0  0  0  0  0  0  0  0  0  0  0  0
   22.0848   -8.2094  -15.9236 N   0  0  0  0  0  0  0  0  0  0  0  0
   21.2328   -7.0237  -16.3398 C   0  0  1  0  0  0  0  0  0  0  0  0
   19.9444   -7.6369  -16.7243 C   0  0  0  0  0  0  0  0  0  0  0  0
   18.9511   -6.9727  -17.5568 C   0  0  0  0  0  0  0  0  0  0  0  0
   17.7132   -7.6315  -18.0009 C   0  0  0  0  0  0  0  0  0  0  0  0
   16.7985   -6.7297  -18.7964 C   0  0  0  0  0  0  0  0  0  0  0  0
   15.6124   -7.5035  -19.1186 N   0  0  0  0  0  0  0  0  0  0  0  0
   21.1594   -6.2521  -15.0754 C   0  0  0  0  0  0  0  0  0  0  0  0
   21.2915   -6.7129  -13.9247 O   0  0  0  0  0  0  0  0  0  0  0  0
   20.9194   -4.8482  -15.0823 O   0  0  0  0  0  0  0  0  0  0  0  0
  1  2  1  0
  3  4  1  0
  3  2  1  0
  4  5  1  0
  5  6  1  6
  7  9  1  0
  7  5  1  0
  8  7  2  0
 10  9  1  0
 11 12  1  0
 10 11  1  6
 12 16  1  0
 12 13  2  0
 13 14  1  0
 14 15  1  0
 16 15  2  0
 17 19  1  0
 17 10  1  0
 18 17  2  0
 20 19  1  0
 20 26  1  0
 20 21  1  1
 22 23  1  0
 22 21  1  0
 23 24  1  0
 24 25  1  0
 26 28  1  0
 27 26  2  0
M  END
$$$$
