MHK.pdb
     RDKit          3D

 28 28  0  0  1  0  0  0  0  0999 V2000
   22.9913  -26.4963  -19.6321 C   0  0  0  0  0  0  0  0  0  0  0  0
   22.8244  -25.7264  -21.2464 S   0  0  0  0  0  0  0  0  0  0  0  0
   23.7001  -24.1145  -21.2895 C   0  0  0  0  0  0  0  0  0  0  0  0
   23.9488  -23.6851  -19.8816 C   0  0  0  0  0  0  0  0  0  0  0  0
   23.2187  -22.4480  -19.4986 C   0  0  2  0  0  0  0  0  0  0  0  0
   23.6991  -21.3620  -20.3570 N   0  0  0  0  0  0  0  0  0  0  0  0
   23.2508  -22.0835  -18.0850 C   0  0  0  0  0  0  0  0  0  0  0  0
   22.9945  -22.8909  -17.1574 O   0  0  0  0  0  0  0  0  0  0  0  0
   23.5842  -20.7524  -17.6684 N   0  0  0  0  0  0  0  0  0  0  0  0
   23.6945  -20.3375  -16.2900 C   0  0  1  0  0  0  0  0  0  0  0  0
   24.3758  -19.0207  -16.0844 C   0  0  0  0  0  0  0  0  0  0  0  0
   25.7396  -18.9053  -16.5642 C   0  0  0  0  0  0  0  0  0  0  0  0
   26.5631  -19.8571  -17.1005 C   0  0  0  0  0  0  0  0  0  0  0  0
   27.7307  -19.2173  -17.3704 N   0  0  0  0  0  0  0  0  0  0  0  0
   27.6340  -17.9239  -17.0160 C   0  0  0  0  0  0  0  0  0  0  0  0
   26.4225  -17.7273  -16.5237 N   0  0  0  0  0  0  0  0  0  0  0  0
   22.3259  -20.1838  -15.7115 C   0  0  0  0  0  0  0  0  0  0  0  0
   21.4067  -19.7233  -16.4058 O   0  0  0  0  0  0  0  0  0  0  0  0
   22.0817  -20.5614  -14.3817 N   0  0  0  0  0  0  0  0  0  0  0  0
   20.7038  -20.3933  -13.7669 C   0  0  1  0  0  0  0  0  0  0  0  0
   20.2153  -21.7803  -13.6195 C   0  0  0  0  0  0  0  0  0  0  0  0
   18.9356  -22.1252  -13.0160 C   0  0  0  0  0  0  0  0  0  0  0  0
   18.5144  -23.5144  -12.7783 C   0  0  0  0  0  0  0  0  0  0  0  0
   17.1446  -23.6336  -12.1520 C   0  0  0  0  0  0  0  0  0  0  0  0
   16.8688  -25.0512  -11.9976 N   0  0  0  0  0  0  0  0  0  0  0  0
   21.0325  -19.7480  -12.4727 C   0  0  0  0  0  0  0  0  0  0  0  0
   22.1322  -19.7932  -11.8875 O   0  0  0  0  0  0  0  0  0  0  0  0
   20.0615  -18.9853  -11.7626 O   0  0  0  0  0  0  0  0  0  0  0  0
  1  2  1  0
  3  4  1  0
  3  2  1  0
  4  5  1  0
  5  6  1  6
  7  9  1  0
  7  5  1  0
  8  7  2  0
 10  9  1  0
 11 12  1  0
 10 11  1  6
 12 16  1  0
 12 13  2  0
 13 14  1  0
 14 15  1  0
 16 15  2  0
 17 19  1  0
 17 10  1  0
 18 17  2  0
 20 19  1  0
 20 26  1  0
 20 21  1  1
 22 23  1  0
 22 21  1  0
 23 24  1  0
 24 25  1  0
 26 28  1  0
 27 26  2  0
M  END
$$$$
