MHK.pdb
     RDKit          3D

 28 28  0  0  1  0  0  0  0  0999 V2000
   31.1228  -13.0347  -17.4599 C   0  0  0  0  0  0  0  0  0  0  0  0
   29.4324  -12.4392  -17.5809 S   0  0  0  0  0  0  0  0  0  0  0  0
   28.2422  -13.7925  -17.2361 C   0  0  0  0  0  0  0  0  0  0  0  0
   26.8636  -13.2636  -17.4555 C   0  0  0  0  0  0  0  0  0  0  0  0
   26.5356  -12.0867  -16.6086 C   0  0  2  0  0  0  0  0  0  0  0  0
   26.8161  -12.4463  -15.2162 N   0  0  0  0  0  0  0  0  0  0  0  0
   25.1992  -11.5205  -16.7692 C   0  0  0  0  0  0  0  0  0  0  0  0
   24.7645  -11.0742  -17.8601 O   0  0  0  0  0  0  0  0  0  0  0  0
   24.2884  -11.4408  -15.6644 N   0  0  0  0  0  0  0  0  0  0  0  0
   22.9604  -10.8807  -15.7467 C   0  0  1  0  0  0  0  0  0  0  0  0
   21.9790  -11.4482  -14.7693 C   0  0  0  0  0  0  0  0  0  0  0  0
   20.6253  -10.9306  -14.8228 C   0  0  0  0  0  0  0  0  0  0  0  0
   20.0160   -9.9888  -14.0394 C   0  0  0  0  0  0  0  0  0  0  0  0
   18.7466   -9.8883  -14.5129 N   0  0  0  0  0  0  0  0  0  0  0  0
   18.5773  -10.7324  -15.5456 C   0  0  0  0  0  0  0  0  0  0  0  0
   19.7191  -11.3708  -15.7395 N   0  0  0  0  0  0  0  0  0  0  0  0
   23.0250   -9.4167  -15.4570 C   0  0  0  0  0  0  0  0  0  0  0  0
   23.7828   -8.9921  -14.5713 O   0  0  0  0  0  0  0  0  0  0  0  0
   22.2275   -8.5225  -16.1886 N   0  0  0  0  0  0  0  0  0  0  0  0
   22.3263   -7.0253  -15.9571 C   0  0  1  0  0  0  0  0  0  0  0  0
   22.1420   -6.4502  -17.3058 C   0  0  0  0  0  0  0  0  0  0  0  0
   22.0225   -5.0221  -17.5647 C   0  0  0  0  0  0  0  0  0  0  0  0
   21.8866   -4.4656  -18.9195 C   0  0  0  0  0  0  0  0  0  0  0  0
   21.8175   -2.9566  -18.9507 C   0  0  0  0  0  0  0  0  0  0  0  0
   21.7200   -2.5635  -20.3455 N   0  0  0  0  0  0  0  0  0  0  0  0
   21.1722   -6.7871  -15.0566 C   0  0  0  0  0  0  0  0  0  0  0  0
   20.1022   -7.4264  -15.0488 O   0  0  0  0  0  0  0  0  0  0  0  0
   21.2028   -5.7522  -14.0785 O   0  0  0  0  0  0  0  0  0  0  0  0
  1  2  1  0
  3  4  1  0
  3  2  1  0
  4  5  1  0
  5  6  1  1
  7  9  1  0
  7  5  1  0
  8  7  2  0
 10  9  1  0
 11 12  1  0
 10 11  1  1
 12 16  1  0
 12 13  2  0
 13 14  1  0
 14 15  1  0
 16 15  2  0
 17 19  1  0
 17 10  1  0
 18 17  2  0
 20 19  1  0
 20 26  1  0
 20 21  1  6
 22 23  1  0
 22 21  1  0
 23 24  1  0
 24 25  1  0
 26 28  1  0
 27 26  2  0
M  END
$$$$
