MHK.pdb
     RDKit          3D

 28 28  0  0  1  0  0  0  0  0999 V2000
   30.1068  -20.5275  -11.2897 C   0  0  0  0  0  0  0  0  0  0  0  0
   29.0411  -21.1345   -9.9773 S   0  0  0  0  0  0  0  0  0  0  0  0
   27.5082  -21.8647  -10.6728 C   0  0  0  0  0  0  0  0  0  0  0  0
   26.8607  -20.8396  -11.5435 C   0  0  0  0  0  0  0  0  0  0  0  0
   25.5897  -21.3004  -12.1617 C   0  0  2  0  0  0  0  0  0  0  0  0
   25.8682  -22.5472  -12.8791 N   0  0  0  0  0  0  0  0  0  0  0  0
   24.8836  -20.3336  -12.9979 C   0  0  0  0  0  0  0  0  0  0  0  0
   24.3971  -19.2631  -12.5558 O   0  0  0  0  0  0  0  0  0  0  0  0
   24.7025  -20.5587  -14.4025 N   0  0  0  0  0  0  0  0  0  0  0  0
   24.0473  -19.6319  -15.2947 C   0  0  1  0  0  0  0  0  0  0  0  0
   24.8814  -19.1808  -16.4528 C   0  0  0  0  0  0  0  0  0  0  0  0
   26.0749  -18.4169  -16.1441 C   0  0  0  0  0  0  0  0  0  0  0  0
   27.3908  -18.7873  -16.1996 C   0  0  0  0  0  0  0  0  0  0  0  0
   28.0929  -17.6956  -15.7984 N   0  0  0  0  0  0  0  0  0  0  0  0
   27.2471  -16.6919  -15.5067 C   0  0  0  0  0  0  0  0  0  0  0  0
   26.0153  -17.1253  -15.7154 N   0  0  0  0  0  0  0  0  0  0  0  0
   22.8442  -20.2881  -15.8891 C   0  0  0  0  0  0  0  0  0  0  0  0
   22.9037  -21.4685  -16.2662 O   0  0  0  0  0  0  0  0  0  0  0  0
   21.6467  -19.5674  -16.0198 N   0  0  0  0  0  0  0  0  0  0  0  0
   20.3100  -20.2201  -15.7161 C   0  0  1  0  0  0  0  0  0  0  0  0
   20.4422  -20.6487  -14.3080 C   0  0  0  0  0  0  0  0  0  0  0  0
   19.9309  -21.9133  -13.7980 C   0  0  0  0  0  0  0  0  0  0  0  0
   18.9448  -21.9942  -12.7095 C   0  0  0  0  0  0  0  0  0  0  0  0
   18.4911  -23.4031  -12.4064 C   0  0  0  0  0  0  0  0  0  0  0  0
   17.4224  -23.3050  -11.4277 N   0  0  0  0  0  0  0  0  0  0  0  0
   19.3760  -19.0824  -15.8964 C   0  0  0  0  0  0  0  0  0  0  0  0
   18.2337  -19.1409  -16.3919 O   0  0  0  0  0  0  0  0  0  0  0  0
   19.7349  -17.7641  -15.4936 O   0  0  0  0  0  0  0  0  0  0  0  0
  1  2  1  0
  3  4  1  0
  3  2  1  0
  4  5  1  0
  5  6  1  6
  7  9  1  0
  7  5  1  0
  8  7  2  0
 10  9  1  0
 11 12  1  0
 10 11  1  6
 12 16  1  0
 12 13  2  0
 13 14  1  0
 14 15  1  0
 16 15  2  0
 17 19  1  0
 17 10  1  0
 18 17  2  0
 20 19  1  0
 20 26  1  0
 20 21  1  1
 22 23  1  0
 22 21  1  0
 23 24  1  0
 24 25  1  0
 26 28  1  0
 27 26  2  0
M  END
$$$$
