MHK.pdb
     RDKit          3D

 28 28  0  0  1  0  0  0  0  0999 V2000
   22.4796  -19.0634  -14.7203 C   0  0  0  0  0  0  0  0  0  0  0  0
   20.7039  -18.8017  -14.7908 S   0  0  0  0  0  0  0  0  0  0  0  0
   20.3012  -17.3787  -15.8771 C   0  0  0  0  0  0  0  0  0  0  0  0
   21.0555  -16.1898  -15.3814 C   0  0  0  0  0  0  0  0  0  0  0  0
   20.8392  -14.9653  -16.1961 C   0  0  2  0  0  0  0  0  0  0  0  0
   21.2159  -15.2757  -17.5777 N   0  0  0  0  0  0  0  0  0  0  0  0
   21.4769  -13.7423  -15.7164 C   0  0  0  0  0  0  0  0  0  0  0  0
   21.3734  -13.3267  -14.5355 O   0  0  0  0  0  0  0  0  0  0  0  0
   22.2746  -12.9294  -16.5878 N   0  0  0  0  0  0  0  0  0  0  0  0
   22.9636  -11.7304  -16.1734 C   0  0  1  0  0  0  0  0  0  0  0  0
   24.3442  -11.5764  -16.7307 C   0  0  0  0  0  0  0  0  0  0  0  0
   25.3094  -12.6028  -16.3865 C   0  0  0  0  0  0  0  0  0  0  0  0
   25.8012  -12.9678  -15.1631 C   0  0  0  0  0  0  0  0  0  0  0  0
   26.6807  -13.9733  -15.4102 N   0  0  0  0  0  0  0  0  0  0  0  0
   26.7311  -14.2201  -16.7309 C   0  0  0  0  0  0  0  0  0  0  0  0
   25.8974  -13.3878  -17.3317 N   0  0  0  0  0  0  0  0  0  0  0  0
   22.1985  -10.5362  -16.6423 C   0  0  0  0  0  0  0  0  0  0  0  0
   21.9304  -10.4044  -17.8464 O   0  0  0  0  0  0  0  0  0  0  0  0
   21.7831   -9.5641  -15.7187 N   0  0  0  0  0  0  0  0  0  0  0  0
   21.0031   -8.3435  -16.1734 C   0  0  1  0  0  0  0  0  0  0  0  0
   19.5916   -8.7551  -16.0239 C   0  0  0  0  0  0  0  0  0  0  0  0
   18.4672   -7.8362  -16.1339 C   0  0  0  0  0  0  0  0  0  0  0  0
   17.0761   -8.2445  -15.8849 C   0  0  0  0  0  0  0  0  0  0  0  0
   16.0735   -7.1314  -16.0816 C   0  0  0  0  0  0  0  0  0  0  0  0
   14.7549   -7.7050  -15.8768 N   0  0  0  0  0  0  0  0  0  0  0  0
   21.4265   -7.3316  -15.1753 C   0  0  0  0  0  0  0  0  0  0  0  0
   21.2678   -6.0985  -15.2663 O   0  0  0  0  0  0  0  0  0  0  0  0
   22.0824   -7.7151  -13.9705 O   0  0  0  0  0  0  0  0  0  0  0  0
  1  2  1  0
  3  4  1  0
  3  2  1  0
  4  5  1  0
  5  6  1  6
  7  9  1  0
  7  5  1  0
  8  7  2  0
 10  9  1  0
 11 12  1  0
 10 11  1  6
 12 16  1  0
 12 13  2  0
 13 14  1  0
 14 15  1  0
 16 15  2  0
 17 19  1  0
 17 10  1  0
 18 17  2  0
 20 19  1  0
 20 26  1  0
 20 21  1  1
 22 23  1  0
 22 21  1  0
 23 24  1  0
 24 25  1  0
 26 28  1  0
 27 26  2  0
M  END
$$$$
