MHK.pdb
     RDKit          3D

 28 28  0  0  1  0  0  0  0  0999 V2000
   22.1052  -10.5582    5.1144 C   0  0  0  0  0  0  0  0  0  0  0  0
   20.9926  -11.0412    6.4393 S   0  0  0  0  0  0  0  0  0  0  0  0
   19.3312  -11.4472    5.7748 C   0  0  0  0  0  0  0  0  0  0  0  0
   18.8030  -12.6193    6.5333 C   0  0  0  0  0  0  0  0  0  0  0  0
   17.9952  -13.5510    5.7029 C   0  0  2  0  0  0  0  0  0  0  0  0
   16.7503  -12.8658    5.3454 N   0  0  0  0  0  0  0  0  0  0  0  0
   17.7489  -14.8768    6.2632 C   0  0  0  0  0  0  0  0  0  0  0  0
   16.9480  -15.0899    7.2071 O   0  0  0  0  0  0  0  0  0  0  0  0
   18.4241  -16.0353    5.7548 N   0  0  0  0  0  0  0  0  0  0  0  0
   18.3902  -17.3348    6.3829 C   0  0  1  0  0  0  0  0  0  0  0  0
   18.1908  -18.4811    5.4413 C   0  0  0  0  0  0  0  0  0  0  0  0
   16.8549  -18.6683    4.9087 C   0  0  0  0  0  0  0  0  0  0  0  0
   15.6461  -18.2803    5.4188 C   0  0  0  0  0  0  0  0  0  0  0  0
   14.7186  -18.7150    4.5263 N   0  0  0  0  0  0  0  0  0  0  0  0
   15.3277  -19.3455    3.5069 C   0  0  0  0  0  0  0  0  0  0  0  0
   16.6302  -19.3205    3.7341 N   0  0  0  0  0  0  0  0  0  0  0  0
   19.6964  -17.5870    7.0624 C   0  0  0  0  0  0  0  0  0  0  0  0
   20.7597  -17.4160    6.4465 O   0  0  0  0  0  0  0  0  0  0  0  0
   19.7187  -18.0173    8.3984 N   0  0  0  0  0  0  0  0  0  0  0  0
   21.0351  -18.2710    9.1110 C   0  0  1  0  0  0  0  0  0  0  0  0
   21.1566  -17.1269   10.0385 C   0  0  0  0  0  0  0  0  0  0  0  0
   22.2260  -16.9921   11.0178 C   0  0  0  0  0  0  0  0  0  0  0  0
   22.3528  -15.8256   11.9049 C   0  0  0  0  0  0  0  0  0  0  0  0
   23.6078  -15.8377   12.7461 C   0  0  0  0  0  0  0  0  0  0  0  0
   23.6047  -14.6169   13.5331 N   0  0  0  0  0  0  0  0  0  0  0  0
   20.7578  -19.5552    9.7990 C   0  0  0  0  0  0  0  0  0  0  0  0
   21.6096  -20.3523   10.2381 O   0  0  0  0  0  0  0  0  0  0  0  0
   19.4225  -19.9978   10.0219 O   0  0  0  0  0  0  0  0  0  0  0  0
  1  2  1  0
  3  4  1  0
  3  2  1  0
  4  5  1  0
  5  6  1  1
  7  9  1  0
  7  5  1  0
  8  7  2  0
 10  9  1  0
 11 12  1  0
 10 11  1  6
 12 16  1  0
 12 13  2  0
 13 14  1  0
 14 15  1  0
 16 15  2  0
 17 19  1  0
 17 10  1  0
 18 17  2  0
 20 19  1  0
 20 26  1  0
 20 21  1  1
 22 23  1  0
 22 21  1  0
 23 24  1  0
 24 25  1  0
 26 28  1  0
 27 26  2  0
M  END
$$$$
