HHL.pdb
     RDKit          3D

 29 30  0  0  1  0  0  0  0  0999 V2000
   14.8292  -13.0918  -16.5936 N   0  0  0  0  0  0  0  0  0  0  0  0
   14.8834  -11.7909  -15.9577 C   0  0  1  0  0  0  0  0  0  0  0  0
   14.8596  -11.9959  -14.4600 C   0  0  0  0  0  0  0  0  0  0  0  0
   13.5076  -12.4545  -14.0793 C   0  0  0  0  0  0  0  0  0  0  0  0
   12.4517  -11.6880  -13.6367 C   0  0  0  0  0  0  0  0  0  0  0  0
   11.4011  -12.5009  -13.3999 N   0  0  0  0  0  0  0  0  0  0  0  0
   11.8236  -13.7344  -13.6968 C   0  0  0  0  0  0  0  0  0  0  0  0
   13.1038  -13.7341  -14.1133 N   0  0  0  0  0  0  0  0  0  0  0  0
   16.1311  -11.0872  -16.3877 C   0  0  0  0  0  0  0  0  0  0  0  0
   17.1978  -11.7396  -16.5277 O   0  0  0  0  0  0  0  0  0  0  0  0
   16.1086   -9.6682  -16.6399 N   0  0  0  0  0  0  0  0  0  0  0  0
   17.3369   -9.0757  -17.0845 C   0  0  1  0  0  0  0  0  0  0  0  0
   17.1631   -7.8348  -17.9017 C   0  0  0  0  0  0  0  0  0  0  0  0
   18.3787   -7.3462  -18.5472 C   0  0  0  0  0  0  0  0  0  0  0  0
   19.5676   -7.9134  -18.8901 C   0  0  0  0  0  0  0  0  0  0  0  0
   20.3570   -6.9978  -19.5008 N   0  0  0  0  0  0  0  0  0  0  0  0
   19.6707   -5.8657  -19.5420 C   0  0  0  0  0  0  0  0  0  0  0  0
   18.4795   -6.0501  -18.9755 N   0  0  0  0  0  0  0  0  0  0  0  0
   18.2725   -8.8180  -15.9573 C   0  0  0  0  0  0  0  0  0  0  0  0
   17.9360   -8.5330  -14.7907 O   0  0  0  0  0  0  0  0  0  0  0  0
   23.9043  -10.5490  -14.6539 C   0  0  0  0  0  0  0  0  0  0  0  0
   22.8449   -9.4935  -14.3097 C   0  0  2  0  0  0  0  0  0  0  0  0
   22.4662   -9.6872  -12.8761 C   0  0  0  0  0  0  0  0  0  0  0  0
   21.7052   -9.6614  -15.2615 C   0  0  0  0  0  0  0  0  0  0  0  0
   20.6477   -8.5873  -15.1644 C   0  0  2  0  0  0  0  0  0  0  0  0
   19.6671   -8.9009  -16.2207 N   0  0  0  0  0  0  0  0  0  0  0  0
   21.1540   -7.2259  -15.2918 C   0  0  0  0  0  0  0  0  0  0  0  0
   21.5364   -6.7100  -16.5120 O   0  0  0  0  0  0  0  0  0  0  0  0
   21.2504   -6.4960  -14.2791 O   0  0  0  0  0  0  0  0  0  0  0  0
  2  3  1  0
  2  1  1  6
  3  4  1  0
  4  8  1  0
  5  4  2  0
  5  6  1  0
  6  7  1  0
  8  7  2  0
  9 10  2  0
  9  2  1  0
 11  9  1  0
 12 11  1  0
 13 14  1  0
 12 13  1  1
 14 18  1  0
 15 14  2  0
 15 16  1  0
 16 17  1  0
 18 17  2  0
 19 12  1  0
 19 26  1  0
 20 19  2  0
 22 21  1  6
 22 23  1  0
 24 22  1  0
 25 26  1  0
 25 24  1  6
 27 28  1  0
 27 25  1  0
 29 27  2  0
M  END
$$$$
