HHL.pdb
     RDKit          3D

 29 30  0  0  1  0  0  0  0  0999 V2000
   26.4207  -15.9976  -18.2090 N   0  0  0  0  0  0  0  0  0  0  0  0
   26.5272  -17.2864  -17.5553 C   0  0  1  0  0  0  0  0  0  0  0  0
   27.8218  -17.3149  -16.7752 C   0  0  0  0  0  0  0  0  0  0  0  0
   28.9411  -17.3078  -17.7398 C   0  0  0  0  0  0  0  0  0  0  0  0
   29.3512  -18.3349  -18.5616 C   0  0  0  0  0  0  0  0  0  0  0  0
   30.4093  -17.9103  -19.2833 N   0  0  0  0  0  0  0  0  0  0  0  0
   30.6274  -16.6485  -18.8981 C   0  0  0  0  0  0  0  0  0  0  0  0
   29.7466  -16.2567  -17.9583 N   0  0  0  0  0  0  0  0  0  0  0  0
   25.3484  -17.4775  -16.6547 C   0  0  0  0  0  0  0  0  0  0  0  0
   25.2678  -16.8192  -15.5856 O   0  0  0  0  0  0  0  0  0  0  0  0
   24.3112  -18.4124  -17.0125 N   0  0  0  0  0  0  0  0  0  0  0  0
   23.2399  -18.5732  -16.0725 C   0  0  1  0  0  0  0  0  0  0  0  0
   21.8832  -18.6746  -16.6946 C   0  0  0  0  0  0  0  0  0  0  0  0
   20.7718  -18.7118  -15.7476 C   0  0  0  0  0  0  0  0  0  0  0  0
   20.6765  -18.6684  -14.3905 C   0  0  0  0  0  0  0  0  0  0  0  0
   19.3753  -18.7151  -14.0174 N   0  0  0  0  0  0  0  0  0  0  0  0
   18.6593  -18.7866  -15.1294 C   0  0  0  0  0  0  0  0  0  0  0  0
   19.4758  -18.7860  -16.1816 N   0  0  0  0  0  0  0  0  0  0  0  0
   23.4688  -19.7225  -15.1565 C   0  0  0  0  0  0  0  0  0  0  0  0
   23.8719  -20.8513  -15.5013 O   0  0  0  0  0  0  0  0  0  0  0  0
   25.5349  -20.3186   -9.6459 C   0  0  0  0  0  0  0  0  0  0  0  0
   24.8533  -21.0955  -10.7802 C   0  0  2  0  0  0  0  0  0  0  0  0
   25.8170  -22.1354  -11.2555 C   0  0  0  0  0  0  0  0  0  0  0  0
   24.4587  -20.1134  -11.8351 C   0  0  0  0  0  0  0  0  0  0  0  0
   23.4255  -20.6264  -12.8102 C   0  0  2  0  0  0  0  0  0  0  0  0
   23.2099  -19.5290  -13.7720 N   0  0  0  0  0  0  0  0  0  0  0  0
   22.1737  -21.0537  -12.1969 C   0  0  0  0  0  0  0  0  0  0  0  0
   21.8117  -22.3832  -12.1479 O   0  0  0  0  0  0  0  0  0  0  0  0
   21.3983  -20.2058  -11.6993 O   0  0  0  0  0  0  0  0  0  0  0  0
  2  3  1  0
  2  1  1  1
  3  4  1  0
  4  8  1  0
  5  4  2  0
  5  6  1  0
  6  7  1  0
  8  7  2  0
  9 10  2  0
  9  2  1  0
 11  9  1  0
 12 11  1  0
 13 14  1  0
 12 13  1  6
 14 18  1  0
 15 14  2  0
 15 16  1  0
 16 17  1  0
 18 17  2  0
 19 12  1  0
 19 26  1  0
 20 19  2  0
 22 21  1  1
 22 23  1  0
 24 22  1  0
 25 26  1  0
 25 24  1  1
 27 28  1  0
 27 25  1  0
 29 27  2  0
M  END
$$$$
