HHL.pdb
     RDKit          3D

 29 30  0  0  1  0  0  0  0  0999 V2000
   26.4018  -19.3409  -18.5338 N   0  0  0  0  0  0  0  0  0  0  0  0
   26.5751  -18.6084  -17.2957 C   0  0  1  0  0  0  0  0  0  0  0  0
   27.0938  -17.2287  -17.6317 C   0  0  0  0  0  0  0  0  0  0  0  0
   28.3622  -17.3817  -18.3740 C   0  0  0  0  0  0  0  0  0  0  0  0
   29.3894  -18.2624  -18.1139 C   0  0  0  0  0  0  0  0  0  0  0  0
   30.3601  -18.0722  -19.0316 N   0  0  0  0  0  0  0  0  0  0  0  0
   29.9189  -17.0925  -19.8276 C   0  0  0  0  0  0  0  0  0  0  0  0
   28.7038  -16.6539  -19.4487 N   0  0  0  0  0  0  0  0  0  0  0  0
   25.2623  -18.5342  -16.5829 C   0  0  0  0  0  0  0  0  0  0  0  0
   24.8621  -17.4318  -16.1272 O   0  0  0  0  0  0  0  0  0  0  0  0
   24.4616  -19.7217  -16.4200 N   0  0  0  0  0  0  0  0  0  0  0  0
   23.2278  -19.5707  -15.7043 C   0  0  1  0  0  0  0  0  0  0  0  0
   22.0094  -19.5513  -16.5721 C   0  0  0  0  0  0  0  0  0  0  0  0
   21.8638  -18.3598  -17.4041 C   0  0  0  0  0  0  0  0  0  0  0  0
   21.4207  -17.0922  -17.1813 C   0  0  0  0  0  0  0  0  0  0  0  0
   21.5200  -16.3619  -18.3176 N   0  0  0  0  0  0  0  0  0  0  0  0
   22.0213  -17.1626  -19.2461 C   0  0  0  0  0  0  0  0  0  0  0  0
   22.2362  -18.3677  -18.7212 N   0  0  0  0  0  0  0  0  0  0  0  0
   23.0755  -20.5912  -14.6330 C   0  0  0  0  0  0  0  0  0  0  0  0
   23.1355  -21.8259  -14.7984 O   0  0  0  0  0  0  0  0  0  0  0  0
   25.3905  -21.9375  -11.6726 C   0  0  0  0  0  0  0  0  0  0  0  0
   24.9015  -20.5231  -11.3333 C   0  0  2  0  0  0  0  0  0  0  0  0
   25.7107  -20.0332  -10.1752 C   0  0  0  0  0  0  0  0  0  0  0  0
   23.4356  -20.6003  -11.0538 C   0  0  0  0  0  0  0  0  0  0  0  0
   22.6040  -21.0929  -12.2144 C   0  0  2  0  0  0  0  0  0  0  0  0
   22.8422  -20.1320  -13.3079 N   0  0  0  0  0  0  0  0  0  0  0  0
   21.1818  -21.2314  -11.9245 C   0  0  0  0  0  0  0  0  0  0  0  0
   20.6816  -22.3456  -11.2846 O   0  0  0  0  0  0  0  0  0  0  0  0
   20.3833  -20.3266  -12.2583 O   0  0  0  0  0  0  0  0  0  0  0  0
  2  3  1  0
  2  1  1  6
  3  4  1  0
  4  8  1  0
  5  4  2  0
  5  6  1  0
  6  7  1  0
  8  7  2  0
  9 10  2  0
  9  2  1  0
 11  9  1  0
 12 11  1  0
 13 14  1  0
 12 13  1  6
 14 18  1  0
 15 14  2  0
 15 16  1  0
 16 17  1  0
 18 17  2  0
 19 12  1  0
 19 26  1  0
 20 19  2  0
 22 21  1  1
 22 23  1  0
 24 22  1  0
 25 26  1  0
 25 24  1  1
 27 28  1  0
 27 25  1  0
 29 27  2  0
M  END
$$$$
