HHL.pdb
     RDKit          3D

 29 30  0  0  1  0  0  0  0  0999 V2000
   31.9580  -10.3142  -17.8282 N   0  0  0  0  0  0  0  0  0  0  0  0
   32.3413   -8.9585  -18.1666 C   0  0  1  0  0  0  0  0  0  0  0  0
   31.0999   -8.2096  -18.5952 C   0  0  0  0  0  0  0  0  0  0  0  0
   30.7716   -8.6152  -19.9776 C   0  0  0  0  0  0  0  0  0  0  0  0
   31.3188   -8.1370  -21.1482 C   0  0  0  0  0  0  0  0  0  0  0  0
   30.7375   -8.7749  -22.1854 N   0  0  0  0  0  0  0  0  0  0  0  0
   29.8564   -9.6214  -21.6419 C   0  0  0  0  0  0  0  0  0  0  0  0
   29.8572   -9.5440  -20.2979 N   0  0  0  0  0  0  0  0  0  0  0  0
   32.9756   -8.3167  -16.9738 C   0  0  0  0  0  0  0  0  0  0  0  0
   32.3109   -8.1758  -15.9148 O   0  0  0  0  0  0  0  0  0  0  0  0
   34.3420   -7.8627  -17.0401 N   0  0  0  0  0  0  0  0  0  0  0  0
   34.8767   -7.2610  -15.8529 C   0  0  1  0  0  0  0  0  0  0  0  0
   36.2420   -7.7439  -15.4776 C   0  0  0  0  0  0  0  0  0  0  0  0
   36.2811   -9.0716  -14.8703 C   0  0  0  0  0  0  0  0  0  0  0  0
   35.3334   -9.9593  -14.4622 C   0  0  0  0  0  0  0  0  0  0  0  0
   35.9257  -11.0770  -13.9781 N   0  0  0  0  0  0  0  0  0  0  0  0
   37.2335  -10.8940  -14.0813 C   0  0  0  0  0  0  0  0  0  0  0  0
   37.4714   -9.6969  -14.6144 N   0  0  0  0  0  0  0  0  0  0  0  0
   34.8625   -5.7754  -15.9250 C   0  0  0  0  0  0  0  0  0  0  0  0
   35.2651   -5.0957  -16.8901 O   0  0  0  0  0  0  0  0  0  0  0  0
   31.5754   -1.4977  -13.1430 C   0  0  0  0  0  0  0  0  0  0  0  0
   32.7957   -1.7296  -14.0439 C   0  0  2  0  0  0  0  0  0  0  0  0
   32.4954   -1.1169  -15.3745 C   0  0  0  0  0  0  0  0  0  0  0  0
   33.0489   -3.2012  -14.1020 C   0  0  0  0  0  0  0  0  0  0  0  0
   34.3274   -3.5871  -14.8076 C   0  0  2  0  0  0  0  0  0  0  0  0
   34.3497   -5.0620  -14.8073 N   0  0  0  0  0  0  0  0  0  0  0  0
   35.5380   -3.0338  -14.2127 C   0  0  0  0  0  0  0  0  0  0  0  0
   36.1662   -1.9304  -14.7503 O   0  0  0  0  0  0  0  0  0  0  0  0
   36.0313   -3.5616  -13.1901 O   0  0  0  0  0  0  0  0  0  0  0  0
  2  3  1  0
  2  1  1  1
  3  4  1  0
  4  8  1  0
  5  4  2  0
  5  6  1  0
  6  7  1  0
  8  7  2  0
  9 10  2  0
  9  2  1  0
 11  9  1  0
 12 11  1  0
 13 14  1  0
 12 13  1  6
 14 18  1  0
 15 14  2  0
 15 16  1  0
 16 17  1  0
 18 17  2  0
 19 12  1  0
 19 26  1  0
 20 19  2  0
 22 21  1  1
 22 23  1  0
 24 22  1  0
 25 26  1  0
 25 24  1  1
 27 28  1  0
 27 25  1  0
 29 27  2  0
M  END
$$$$
