HHL.pdb
     RDKit          3D

 29 30  0  0  1  0  0  0  0  0999 V2000
   18.5940    2.7519  -10.9289 N   0  0  0  0  0  0  0  0  0  0  0  0
   19.9685    3.0983  -11.2292 C   0  0  1  0  0  0  0  0  0  0  0  0
   19.9926    4.5101  -11.7694 C   0  0  0  0  0  0  0  0  0  0  0  0
   19.4053    4.4947  -13.1252 C   0  0  0  0  0  0  0  0  0  0  0  0
   20.0231    4.1481  -14.3069 C   0  0  0  0  0  0  0  0  0  0  0  0
   19.1297    4.2718  -15.3104 N   0  0  0  0  0  0  0  0  0  0  0  0
   17.9953    4.6861  -14.7362 C   0  0  0  0  0  0  0  0  0  0  0  0
   18.1361    4.8299  -13.4051 N   0  0  0  0  0  0  0  0  0  0  0  0
   20.7865    2.9820   -9.9825 C   0  0  0  0  0  0  0  0  0  0  0  0
   20.2807    3.2953   -8.8738 O   0  0  0  0  0  0  0  0  0  0  0  0
   22.1476    2.5129  -10.0538 N   0  0  0  0  0  0  0  0  0  0  0  0
   22.8710    2.4517   -8.8168 C   0  0  1  0  0  0  0  0  0  0  0  0
   24.1000    1.5999   -8.8621 C   0  0  0  0  0  0  0  0  0  0  0  0
   24.7997    1.4586   -7.5880 C   0  0  0  0  0  0  0  0  0  0  0  0
   24.5941    1.9394   -6.3313 C   0  0  0  0  0  0  0  0  0  0  0  0
   25.5519    1.4718   -5.4955 N   0  0  0  0  0  0  0  0  0  0  0  0
   26.3519    0.7038   -6.2198 C   0  0  0  0  0  0  0  0  0  0  0  0
   25.9204    0.6803   -7.4797 N   0  0  0  0  0  0  0  0  0  0  0  0
   23.2066    3.8050   -8.2988 C   0  0  0  0  0  0  0  0  0  0  0  0
   23.5690    4.7747   -8.9943 O   0  0  0  0  0  0  0  0  0  0  0  0
   23.2589    7.0318   -3.8129 C   0  0  0  0  0  0  0  0  0  0  0  0
   22.4446    7.2493   -5.0952 C   0  0  2  0  0  0  0  0  0  0  0  0
   21.1654    7.9197   -4.7075 C   0  0  0  0  0  0  0  0  0  0  0  0
   22.2534    5.9186   -5.7475 C   0  0  0  0  0  0  0  0  0  0  0  0
   23.5171    5.3116   -6.3095 C   0  0  2  0  0  0  0  0  0  0  0  0
   23.1092    4.0217   -6.8971 N   0  0  0  0  0  0  0  0  0  0  0  0
   24.5909    5.1411   -5.3380 C   0  0  0  0  0  0  0  0  0  0  0  0
   24.5960    4.0897   -4.4461 O   0  0  0  0  0  0  0  0  0  0  0  0
   25.5370    5.9602   -5.2997 O   0  0  0  0  0  0  0  0  0  0  0  0
  2  3  1  0
  2  1  1  1
  3  4  1  0
  4  8  1  0
  5  4  2  0
  5  6  1  0
  6  7  1  0
  8  7  2  0
  9 10  2  0
  9  2  1  0
 11  9  1  0
 12 11  1  0
 13 14  1  0
 12 13  1  6
 14 18  1  0
 15 14  2  0
 15 16  1  0
 16 17  1  0
 18 17  2  0
 19 12  1  0
 19 26  1  0
 20 19  2  0
 22 21  1  1
 22 23  1  0
 24 22  1  0
 25 26  1  0
 25 24  1  1
 27 28  1  0
 27 25  1  0
 29 27  2  0
M  END
$$$$
