HHL.pdb
     RDKit          3D

 29 30  0  0  1  0  0  0  0  0999 V2000
   30.5177  -30.8369  -18.2217 N   0  0  0  0  0  0  0  0  0  0  0  0
   30.5966  -31.6972  -17.0585 C   0  0  1  0  0  0  0  0  0  0  0  0
   29.7434  -32.9185  -17.3154 C   0  0  0  0  0  0  0  0  0  0  0  0
   28.4025  -32.6717  -16.7459 C   0  0  0  0  0  0  0  0  0  0  0  0
   27.6391  -31.5296  -16.8528 C   0  0  0  0  0  0  0  0  0  0  0  0
   26.4820  -31.7232  -16.1863 N   0  0  0  0  0  0  0  0  0  0  0  0
   26.5536  -32.9625  -15.6890 C   0  0  0  0  0  0  0  0  0  0  0  0
   27.7137  -33.5624  -16.0154 N   0  0  0  0  0  0  0  0  0  0  0  0
   32.0248  -32.0744  -16.8244 C   0  0  0  0  0  0  0  0  0  0  0  0
   32.8850  -31.8396  -17.7121 O   0  0  0  0  0  0  0  0  0  0  0  0
   32.4111  -32.7041  -15.5866 N   0  0  0  0  0  0  0  0  0  0  0  0
   33.8183  -32.8653  -15.3604 C   0  0  1  0  0  0  0  0  0  0  0  0
   34.2008  -32.9946  -13.9199 C   0  0  0  0  0  0  0  0  0  0  0  0
   35.6382  -33.0430  -13.6655 C   0  0  0  0  0  0  0  0  0  0  0  0
   36.7467  -32.9545  -14.4504 C   0  0  0  0  0  0  0  0  0  0  0  0
   37.8616  -33.0409  -13.6863 N   0  0  0  0  0  0  0  0  0  0  0  0
   37.4579  -33.1817  -12.4326 C   0  0  0  0  0  0  0  0  0  0  0  0
   36.1266  -33.1857  -12.3949 N   0  0  0  0  0  0  0  0  0  0  0  0
   34.3833  -33.9973  -16.1423 C   0  0  0  0  0  0  0  0  0  0  0  0
   33.8351  -35.1053  -16.3075 O   0  0  0  0  0  0  0  0  0  0  0  0
   36.0002  -35.0619  -21.3891 C   0  0  0  0  0  0  0  0  0  0  0  0
   36.3412  -35.5862  -19.9879 C   0  0  2  0  0  0  0  0  0  0  0  0
   35.5992  -36.8700  -19.7951 C   0  0  0  0  0  0  0  0  0  0  0  0
   35.9759  -34.5256  -19.0007 C   0  0  0  0  0  0  0  0  0  0  0  0
   36.2582  -34.8882  -17.5619 C   0  0  2  0  0  0  0  0  0  0  0  0
   35.6521  -33.8114  -16.7563 N   0  0  0  0  0  0  0  0  0  0  0  0
   37.6713  -35.0610  -17.2472 C   0  0  0  0  0  0  0  0  0  0  0  0
   38.5315  -33.9856  -17.1789 O   0  0  0  0  0  0  0  0  0  0  0  0
   38.1297  -36.2060  -17.0319 O   0  0  0  0  0  0  0  0  0  0  0  0
  2  3  1  0
  2  1  1  6
  3  4  1  0
  4  8  1  0
  5  4  2  0
  5  6  1  0
  6  7  1  0
  8  7  2  0
  9 10  2  0
  9  2  1  0
 11  9  1  0
 12 11  1  0
 13 14  1  0
 12 13  1  1
 14 18  1  0
 15 14  2  0
 15 16  1  0
 16 17  1  0
 18 17  2  0
 19 12  1  0
 19 26  1  0
 20 19  2  0
 22 21  1  6
 22 23  1  0
 24 22  1  0
 25 26  1  0
 25 24  1  6
 27 28  1  0
 27 25  1  0
 29 27  2  0
M  END
$$$$
