HHL.pdb
     RDKit          3D

 29 30  0  0  1  0  0  0  0  0999 V2000
   16.8057  -14.1923  -17.1079 N   0  0  0  0  0  0  0  0  0  0  0  0
   17.2588  -13.4738  -15.9340 C   0  0  1  0  0  0  0  0  0  0  0  0
   18.3371  -14.2951  -15.2645 C   0  0  0  0  0  0  0  0  0  0  0  0
   17.7100  -15.5107  -14.7055 C   0  0  0  0  0  0  0  0  0  0  0  0
   16.6674  -15.5839  -13.8077 C   0  0  0  0  0  0  0  0  0  0  0  0
   16.4045  -16.8841  -13.5607 N   0  0  0  0  0  0  0  0  0  0  0  0
   17.2773  -17.5767  -14.3002 C   0  0  0  0  0  0  0  0  0  0  0  0
   18.0843  -16.7638  -15.0074 N   0  0  0  0  0  0  0  0  0  0  0  0
   17.7786  -12.1345  -16.3499 C   0  0  0  0  0  0  0  0  0  0  0  0
   18.5932  -12.0513  -17.3051 O   0  0  0  0  0  0  0  0  0  0  0  0
   17.3465  -10.9462  -15.6577 N   0  0  0  0  0  0  0  0  0  0  0  0
   17.9225   -9.7060  -16.0906 C   0  0  1  0  0  0  0  0  0  0  0  0
   16.9244   -8.6299  -16.3803 C   0  0  0  0  0  0  0  0  0  0  0  0
   16.0376   -8.8991  -17.5092 C   0  0  0  0  0  0  0  0  0  0  0  0
   16.2296   -9.3064  -18.7937 C   0  0  0  0  0  0  0  0  0  0  0  0
   15.0366   -9.4229  -19.4243 N   0  0  0  0  0  0  0  0  0  0  0  0
   14.1033   -9.0925  -18.5445 C   0  0  0  0  0  0  0  0  0  0  0  0
   14.6801   -8.7742  -17.3869 N   0  0  0  0  0  0  0  0  0  0  0  0
   18.9507   -9.2060  -15.1394 C   0  0  0  0  0  0  0  0  0  0  0  0
   18.8392   -9.1923  -13.8972 O   0  0  0  0  0  0  0  0  0  0  0  0
   22.6132  -10.7483  -13.8684 C   0  0  0  0  0  0  0  0  0  0  0  0
   22.6221  -10.3330  -15.3456 C   0  0  2  0  0  0  0  0  0  0  0  0
   23.8734  -10.8763  -15.9580 C   0  0  0  0  0  0  0  0  0  0  0  0
   22.5213   -8.8432  -15.4030 C   0  0  0  0  0  0  0  0  0  0  0  0
   21.2619   -8.2788  -14.7892 C   0  0  2  0  0  0  0  0  0  0  0  0
   20.1644   -8.7000  -15.6801 N   0  0  0  0  0  0  0  0  0  0  0  0
   21.2746   -6.8328  -14.6031 C   0  0  0  0  0  0  0  0  0  0  0  0
   21.8515   -6.2538  -13.4926 O   0  0  0  0  0  0  0  0  0  0  0  0
   20.7533   -6.0859  -15.4622 O   0  0  0  0  0  0  0  0  0  0  0  0
  2  3  1  0
  2  1  1  6
  3  4  1  0
  4  8  1  0
  5  4  2  0
  5  6  1  0
  6  7  1  0
  8  7  2  0
  9 10  2  0
  9  2  1  0
 11  9  1  0
 12 11  1  0
 13 14  1  0
 12 13  1  1
 14 18  1  0
 15 14  2  0
 15 16  1  0
 16 17  1  0
 18 17  2  0
 19 12  1  0
 19 26  1  0
 20 19  2  0
 22 21  1  1
 22 23  1  0
 24 22  1  0
 25 26  1  0
 25 24  1  6
 27 28  1  0
 27 25  1  0
 29 27  2  0
M  END
$$$$
