HHL.pdb
     RDKit          3D

 29 30  0  0  1  0  0  0  0  0999 V2000
   18.2787  -10.5769  -17.6119 N   0  0  0  0  0  0  0  0  0  0  0  0
   18.0832  -10.4712  -16.1801 C   0  0  1  0  0  0  0  0  0  0  0  0
   18.5631  -11.7549  -15.5418 C   0  0  0  0  0  0  0  0  0  0  0  0
   17.6485  -12.8417  -15.9489 C   0  0  0  0  0  0  0  0  0  0  0  0
   17.7787  -13.6938  -17.0237 C   0  0  0  0  0  0  0  0  0  0  0  0
   16.7252  -14.5369  -17.0327 N   0  0  0  0  0  0  0  0  0  0  0  0
   15.9774  -14.1931  -15.9788 C   0  0  0  0  0  0  0  0  0  0  0  0
   16.5175  -13.1628  -15.3014 N   0  0  0  0  0  0  0  0  0  0  0  0
   18.8482   -9.2928  -15.6670 C   0  0  0  0  0  0  0  0  0  0  0  0
   18.7917   -8.9970  -14.4454 O   0  0  0  0  0  0  0  0  0  0  0  0
   19.6457   -8.5016  -16.5703 N   0  0  0  0  0  0  0  0  0  0  0  0
   20.2467   -7.3180  -16.0271 C   0  0  1  0  0  0  0  0  0  0  0  0
   21.7325   -7.3964  -15.8709 C   0  0  0  0  0  0  0  0  0  0  0  0
   22.2122   -8.5424  -15.1031 C   0  0  0  0  0  0  0  0  0  0  0  0
   21.6070   -9.5873  -14.4749 C   0  0  0  0  0  0  0  0  0  0  0  0
   22.5409  -10.3963  -13.9202 N   0  0  0  0  0  0  0  0  0  0  0  0
   23.7223   -9.8653  -14.1974 C   0  0  0  0  0  0  0  0  0  0  0  0
   23.5506   -8.7514  -14.9071 N   0  0  0  0  0  0  0  0  0  0  0  0
   19.8778   -6.1006  -16.7978 C   0  0  0  0  0  0  0  0  0  0  0  0
   19.8197   -6.0234  -18.0412 O   0  0  0  0  0  0  0  0  0  0  0  0
   16.5826   -1.9959  -17.3254 C   0  0  0  0  0  0  0  0  0  0  0  0
   17.3116   -2.9210  -18.3091 C   0  0  2  0  0  0  0  0  0  0  0  0
   16.3170   -3.3582  -19.3366 C   0  0  0  0  0  0  0  0  0  0  0  0
   17.9027   -4.0478  -17.5256 C   0  0  0  0  0  0  0  0  0  0  0  0
   19.1609   -3.6904  -16.7704 C   0  0  2  0  0  0  0  0  0  0  0  0
   19.5635   -4.9225  -16.0665 N   0  0  0  0  0  0  0  0  0  0  0  0
   19.0159   -2.5706  -15.8479 C   0  0  0  0  0  0  0  0  0  0  0  0
   19.4449   -1.3029  -16.1797 O   0  0  0  0  0  0  0  0  0  0  0  0
   18.4922   -2.7480  -14.7246 O   0  0  0  0  0  0  0  0  0  0  0  0
  2  3  1  0
  2  1  1  6
  3  4  1  0
  4  8  1  0
  5  4  2  0
  5  6  1  0
  6  7  1  0
  8  7  2  0
  9 10  2  0
  9  2  1  0
 11  9  1  0
 12 11  1  0
 13 14  1  0
 12 13  1  6
 14 18  1  0
 15 14  2  0
 15 16  1  0
 16 17  1  0
 18 17  2  0
 19 12  1  0
 19 26  1  0
 20 19  2  0
 22 21  1  1
 22 23  1  0
 24 22  1  0
 25 26  1  0
 25 24  1  1
 27 28  1  0
 27 25  1  0
 29 27  2  0
M  END
$$$$
