HHL.pdb
     RDKit          3D

 29 30  0  0  1  0  0  0  0  0999 V2000
   22.1459  -14.5555  -18.2062 N   0  0  0  0  0  0  0  0  0  0  0  0
   22.1322  -13.2006  -18.7197 C   0  0  1  0  0  0  0  0  0  0  0  0
   20.9518  -13.0615  -19.6540 C   0  0  0  0  0  0  0  0  0  0  0  0
   21.2105  -13.8902  -20.8497 C   0  0  0  0  0  0  0  0  0  0  0  0
   22.0497  -13.6071  -21.9052 C   0  0  0  0  0  0  0  0  0  0  0  0
   21.9922  -14.6287  -22.7848 N   0  0  0  0  0  0  0  0  0  0  0  0
   21.1314  -15.5085  -22.2620 C   0  0  0  0  0  0  0  0  0  0  0  0
   20.6406  -15.0827  -21.0830 N   0  0  0  0  0  0  0  0  0  0  0  0
   22.0315  -12.2439  -17.5745 C   0  0  0  0  0  0  0  0  0  0  0  0
   21.2399  -12.4869  -16.6272 O   0  0  0  0  0  0  0  0  0  0  0  0
   22.8387  -11.0498  -17.5589 N   0  0  0  0  0  0  0  0  0  0  0  0
   22.6746  -10.1788  -16.4311 C   0  0  1  0  0  0  0  0  0  0  0  0
   23.8991  -10.0276  -15.5850 C   0  0  0  0  0  0  0  0  0  0  0  0
   25.0289  -10.8644  -15.9802 C   0  0  0  0  0  0  0  0  0  0  0  0
   25.2199  -11.8166  -16.9340 C   0  0  0  0  0  0  0  0  0  0  0  0
   26.4942  -12.2725  -16.8827 N   0  0  0  0  0  0  0  0  0  0  0  0
   27.0990  -11.6129  -15.9062 C   0  0  0  0  0  0  0  0  0  0  0  0
   26.2393  -10.7615  -15.3495 N   0  0  0  0  0  0  0  0  0  0  0  0
   22.1606   -8.8411  -16.8291 C   0  0  0  0  0  0  0  0  0  0  0  0
   22.5382   -8.1890  -17.8230 O   0  0  0  0  0  0  0  0  0  0  0  0
   16.9819   -5.9528  -16.6031 C   0  0  0  0  0  0  0  0  0  0  0  0
   18.4864   -5.7254  -16.8020 C   0  0  2  0  0  0  0  0  0  0  0  0
   18.6853   -5.2264  -18.1975 C   0  0  0  0  0  0  0  0  0  0  0  0
   19.1859   -7.0151  -16.5183 C   0  0  0  0  0  0  0  0  0  0  0  0
   20.6745   -6.8828  -16.2996 C   0  0  2  0  0  0  0  0  0  0  0  0
   21.1558   -8.2481  -16.0167 N   0  0  0  0  0  0  0  0  0  0  0  0
   21.0507   -5.9531  -15.2413 C   0  0  0  0  0  0  0  0  0  0  0  0
   21.3688   -4.6396  -15.5148 O   0  0  0  0  0  0  0  0  0  0  0  0
   21.0910   -6.3411  -14.0516 O   0  0  0  0  0  0  0  0  0  0  0  0
  2  3  1  0
  2  1  1  1
  3  4  1  0
  4  8  1  0
  5  4  2  0
  5  6  1  0
  6  7  1  0
  8  7  2  0
  9 10  2  0
  9  2  1  0
 11  9  1  0
 12 11  1  0
 13 14  1  0
 12 13  1  6
 14 18  1  0
 15 14  2  0
 15 16  1  0
 16 17  1  0
 18 17  2  0
 19 12  1  0
 19 26  1  0
 20 19  2  0
 22 21  1  6
 22 23  1  0
 24 22  1  0
 25 26  1  0
 25 24  1  1
 27 28  1  0
 27 25  1  0
 29 27  2  0
M  END
$$$$
