HHL.pdb
     RDKit          3D

 29 30  0  0  1  0  0  0  0  0999 V2000
   15.4892  -15.5311    3.8428 N   0  0  0  0  0  0  0  0  0  0  0  0
   15.6479  -16.4188    4.9769 C   0  0  1  0  0  0  0  0  0  0  0  0
   15.3687  -17.8308    4.5143 C   0  0  0  0  0  0  0  0  0  0  0  0
   13.9237  -17.9443    4.2274 C   0  0  0  0  0  0  0  0  0  0  0  0
   12.8728  -17.6864    5.0804 C   0  0  0  0  0  0  0  0  0  0  0  0
   11.7185  -17.9152    4.4203 N   0  0  0  0  0  0  0  0  0  0  0  0
   12.0751  -18.3039    3.1915 C   0  0  0  0  0  0  0  0  0  0  0  0
   13.4134  -18.3302    3.0476 N   0  0  0  0  0  0  0  0  0  0  0  0
   17.0395  -16.2890    5.5093 C   0  0  0  0  0  0  0  0  0  0  0  0
   18.0171  -16.3484    4.7194 O   0  0  0  0  0  0  0  0  0  0  0  0
   17.2568  -16.0969    6.9213 N   0  0  0  0  0  0  0  0  0  0  0  0
   18.6214  -16.0203    7.3562 C   0  0  1  0  0  0  0  0  0  0  0  0
   18.9146  -14.8722    8.2693 C   0  0  0  0  0  0  0  0  0  0  0  0
   19.4656  -13.6886    7.6145 C   0  0  0  0  0  0  0  0  0  0  0  0
   19.8101  -13.3838    6.3334 C   0  0  0  0  0  0  0  0  0  0  0  0
   20.2617  -12.1086    6.2677 N   0  0  0  0  0  0  0  0  0  0  0  0
   20.2010  -11.6160    7.4957 C   0  0  0  0  0  0  0  0  0  0  0  0
   19.7259  -12.5463    8.3221 N   0  0  0  0  0  0  0  0  0  0  0  0
   19.0834  -17.2931    7.9717 C   0  0  0  0  0  0  0  0  0  0  0  0
   18.4263  -17.9881    8.7721 O   0  0  0  0  0  0  0  0  0  0  0  0
   19.2601  -21.2187    7.2365 C   0  0  0  0  0  0  0  0  0  0  0  0
   20.1439  -20.4453    6.2488 C   0  0  2  0  0  0  0  0  0  0  0  0
   20.5524  -21.3971    5.1702 C   0  0  0  0  0  0  0  0  0  0  0  0
   21.2929  -19.8730    7.0137 C   0  0  0  0  0  0  0  0  0  0  0  0
   20.8937  -19.0239    8.1973 C   0  0  2  0  0  0  0  0  0  0  0  0
   20.3790  -17.7653    7.6257 N   0  0  0  0  0  0  0  0  0  0  0  0
   21.9655  -18.7776    9.1547 C   0  0  0  0  0  0  0  0  0  0  0  0
   22.3145  -19.7155   10.1032 O   0  0  0  0  0  0  0  0  0  0  0  0
   22.5925  -17.6942    9.1282 O   0  0  0  0  0  0  0  0  0  0  0  0
  2  3  1  0
  2  1  1  6
  3  4  1  0
  4  8  1  0
  5  4  2  0
  5  6  1  0
  6  7  1  0
  8  7  2  0
  9 10  2  0
  9  2  1  0
 11  9  1  0
 12 11  1  0
 13 14  1  0
 12 13  1  1
 14 18  1  0
 15 14  2  0
 15 16  1  0
 16 17  1  0
 18 17  2  0
 19 12  1  0
 19 26  1  0
 20 19  2  0
 22 21  1  1
 22 23  1  0
 24 22  1  0
 25 26  1  0
 25 24  1  6
 27 28  1  0
 27 25  1  0
 29 27  2  0
M  END
$$$$
