HHL.pdb
     RDKit          3D

 29 30  0  0  1  0  0  0  0  0999 V2000
   31.1343  -25.1628  -19.1340 N   0  0  0  0  0  0  0  0  0  0  0  0
   30.2199  -26.1699  -19.6331 C   0  0  1  0  0  0  0  0  0  0  0  0
   31.0256  -27.2172  -20.3676 C   0  0  0  0  0  0  0  0  0  0  0  0
   31.2653  -26.7332  -21.7429 C   0  0  0  0  0  0  0  0  0  0  0  0
   30.3376  -26.2486  -22.6390 C   0  0  0  0  0  0  0  0  0  0  0  0
   30.9764  -25.9157  -23.7799 N   0  0  0  0  0  0  0  0  0  0  0  0
   32.2663  -26.1974  -23.5680 C   0  0  0  0  0  0  0  0  0  0  0  0
   32.4695  -26.6969  -22.3344 N   0  0  0  0  0  0  0  0  0  0  0  0
   29.4753  -26.7686  -18.4824 C   0  0  0  0  0  0  0  0  0  0  0  0
   30.0267  -26.8421  -17.3538 O   0  0  0  0  0  0  0  0  0  0  0  0
   28.1325  -27.2585  -18.6684 N   0  0  0  0  0  0  0  0  0  0  0  0
   27.4579  -27.7420  -17.4987 C   0  0  1  0  0  0  0  0  0  0  0  0
   26.2427  -26.9567  -17.1183 C   0  0  0  0  0  0  0  0  0  0  0  0
   26.4910  -25.5542  -16.7952 C   0  0  0  0  0  0  0  0  0  0  0  0
   27.1734  -24.9117  -15.8082 C   0  0  0  0  0  0  0  0  0  0  0  0
   27.1034  -23.5721  -15.9950 N   0  0  0  0  0  0  0  0  0  0  0  0
   26.3842  -23.3741  -17.0895 C   0  0  0  0  0  0  0  0  0  0  0  0
   26.0052  -24.5497  -17.5879 N   0  0  0  0  0  0  0  0  0  0  0  0
   27.1194  -29.1863  -17.6064 C   0  0  0  0  0  0  0  0  0  0  0  0
   26.9160  -29.8026  -18.6715 O   0  0  0  0  0  0  0  0  0  0  0  0
   26.5352  -33.6072  -13.3530 C   0  0  0  0  0  0  0  0  0  0  0  0
   26.7033  -33.3433  -14.8553 C   0  0  2  0  0  0  0  0  0  0  0  0
   27.8196  -34.2109  -15.3422 C   0  0  0  0  0  0  0  0  0  0  0  0
   26.9531  -31.8814  -15.0382 C   0  0  0  0  0  0  0  0  0  0  0  0
   26.7151  -31.3785  -16.4424 C   0  0  2  0  0  0  0  0  0  0  0  0
   27.0171  -29.9352  -16.4022 N   0  0  0  0  0  0  0  0  0  0  0  0
   25.3742  -31.6303  -16.9565 C   0  0  0  0  0  0  0  0  0  0  0  0
   25.1082  -32.7011  -17.7833 O   0  0  0  0  0  0  0  0  0  0  0  0
   24.4317  -30.8652  -16.6497 O   0  0  0  0  0  0  0  0  0  0  0  0
  2  3  1  0
  2  1  1  1
  3  4  1  0
  4  8  1  0
  5  4  2  0
  5  6  1  0
  6  7  1  0
  8  7  2  0
  9 10  2  0
  9  2  1  0
 11  9  1  0
 12 11  1  0
 13 14  1  0
 12 13  1  6
 14 18  1  0
 15 14  2  0
 15 16  1  0
 16 17  1  0
 18 17  2  0
 19 12  1  0
 19 26  1  0
 20 19  2  0
 22 21  1  1
 22 23  1  0
 24 22  1  0
 25 26  1  0
 25 24  1  1
 27 28  1  0
 27 25  1  0
 29 27  2  0
M  END
$$$$
