HHL.pdb
     RDKit          3D

 29 30  0  0  1  0  0  0  0  0999 V2000
   16.7818  -24.5292   -6.9234 N   0  0  0  0  0  0  0  0  0  0  0  0
   16.9819  -25.6496   -6.0267 C   0  0  1  0  0  0  0  0  0  0  0  0
   18.3601  -26.2170   -6.2798 C   0  0  0  0  0  0  0  0  0  0  0  0
   18.4037  -26.7186   -7.6690 C   0  0  0  0  0  0  0  0  0  0  0  0
   17.9244  -27.9188   -8.1466 C   0  0  0  0  0  0  0  0  0  0  0  0
   18.1666  -27.9803   -9.4725 N   0  0  0  0  0  0  0  0  0  0  0  0
   18.7814  -26.8338   -9.7818 C   0  0  0  0  0  0  0  0  0  0  0  0
   18.9382  -26.0469   -8.7008 N   0  0  0  0  0  0  0  0  0  0  0  0
   16.8421  -25.1774   -4.6144 C   0  0  0  0  0  0  0  0  0  0  0  0
   17.4037  -24.1103   -4.2556 O   0  0  0  0  0  0  0  0  0  0  0  0
   16.0671  -25.9436   -3.6709 N   0  0  0  0  0  0  0  0  0  0  0  0
   15.8750  -25.3605   -2.3746 C   0  0  1  0  0  0  0  0  0  0  0  0
   14.4451  -25.0976   -2.0220 C   0  0  0  0  0  0  0  0  0  0  0  0
   14.2418  -24.3733   -0.7701 C   0  0  0  0  0  0  0  0  0  0  0  0
   14.1708  -23.0563   -0.4337 C   0  0  0  0  0  0  0  0  0  0  0  0
   13.9405  -22.9310    0.8951 N   0  0  0  0  0  0  0  0  0  0  0  0
   13.8669  -24.1576    1.3894 C   0  0  0  0  0  0  0  0  0  0  0  0
   14.0446  -25.0408    0.4085 N   0  0  0  0  0  0  0  0  0  0  0  0
   16.5272  -26.1578   -1.3017 C   0  0  0  0  0  0  0  0  0  0  0  0
   16.5822  -27.4031   -1.2598 O   0  0  0  0  0  0  0  0  0  0  0  0
   19.7970  -24.4966    3.6214 C   0  0  0  0  0  0  0  0  0  0  0  0
   19.5335  -25.6604    2.6566 C   0  0  2  0  0  0  0  0  0  0  0  0
   20.8608  -26.2129    2.2454 C   0  0  0  0  0  0  0  0  0  0  0  0
   18.7206  -25.1359    1.5177 C   0  0  0  0  0  0  0  0  0  0  0  0
   17.8846  -26.1794    0.8151 C   0  0  2  0  0  0  0  0  0  0  0  0
   17.1416  -25.4522   -0.2313 N   0  0  0  0  0  0  0  0  0  0  0  0
   16.9864  -26.9246    1.6889 C   0  0  0  0  0  0  0  0  0  0  0  0
   17.2702  -28.2150    2.0832 O   0  0  0  0  0  0  0  0  0  0  0  0
   15.9287  -26.3947    2.0990 O   0  0  0  0  0  0  0  0  0  0  0  0
  2  3  1  0
  2  1  1  6
  3  4  1  0
  4  8  1  0
  5  4  2  0
  5  6  1  0
  6  7  1  0
  8  7  2  0
  9 10  2  0
  9  2  1  0
 11  9  1  0
 12 11  1  0
 13 14  1  0
 12 13  1  1
 14 18  1  0
 15 14  2  0
 15 16  1  0
 16 17  1  0
 18 17  2  0
 19 12  1  0
 19 26  1  0
 20 19  2  0
 22 21  1  1
 22 23  1  0
 24 22  1  0
 25 26  1  0
 25 24  1  1
 27 28  1  0
 27 25  1  0
 29 27  2  0
M  END
$$$$
