HHL.pdb
     RDKit          3D

 29 30  0  0  1  0  0  0  0  0999 V2000
   27.8414  -21.1417  -17.6627 N   0  0  0  0  0  0  0  0  0  0  0  0
   26.7775  -21.8349  -16.9648 C   0  0  1  0  0  0  0  0  0  0  0  0
   27.4051  -22.8379  -16.0237 C   0  0  0  0  0  0  0  0  0  0  0  0
   27.7392  -24.0506  -16.7989 C   0  0  0  0  0  0  0  0  0  0  0  0
   27.5387  -24.2723  -18.1439 C   0  0  0  0  0  0  0  0  0  0  0  0
   27.9856  -25.5090  -18.4461 N   0  0  0  0  0  0  0  0  0  0  0  0
   28.4461  -26.0180  -17.2984 C   0  0  0  0  0  0  0  0  0  0  0  0
   28.3077  -25.1496  -16.2790 N   0  0  0  0  0  0  0  0  0  0  0  0
   25.9498  -20.8372  -16.2189 C   0  0  0  0  0  0  0  0  0  0  0  0
   26.5135  -19.8974  -15.6008 O   0  0  0  0  0  0  0  0  0  0  0  0
   24.5131  -20.9544  -16.2098 N   0  0  0  0  0  0  0  0  0  0  0  0
   23.7971  -20.0086  -15.4035 C   0  0  1  0  0  0  0  0  0  0  0  0
   22.7322  -19.2549  -16.1356 C   0  0  0  0  0  0  0  0  0  0  0  0
   23.2224  -18.2320  -17.0556 C   0  0  0  0  0  0  0  0  0  0  0  0
   24.4519  -17.7275  -17.3498 C   0  0  0  0  0  0  0  0  0  0  0  0
   24.3454  -16.7872  -18.3188 N   0  0  0  0  0  0  0  0  0  0  0  0
   23.0611  -16.7017  -18.6313 C   0  0  0  0  0  0  0  0  0  0  0  0
   22.3668  -17.5598  -17.8860 N   0  0  0  0  0  0  0  0  0  0  0  0
   23.2297  -20.6350  -14.1796 C   0  0  0  0  0  0  0  0  0  0  0  0
   22.5063  -21.6508  -14.1576 O   0  0  0  0  0  0  0  0  0  0  0  0
   25.5880  -20.1049   -8.9592 C   0  0  0  0  0  0  0  0  0  0  0  0
   24.7920  -20.8774  -10.0197 C   0  0  2  0  0  0  0  0  0  0  0  0
   25.7631  -21.3548  -11.0516 C   0  0  0  0  0  0  0  0  0  0  0  0
   23.7410  -19.9626  -10.5596 C   0  0  0  0  0  0  0  0  0  0  0  0
   22.9220  -20.5485  -11.6853 C   0  0  2  0  0  0  0  0  0  0  0  0
   23.5307  -20.0345  -12.9266 N   0  0  0  0  0  0  0  0  0  0  0  0
   21.4980  -20.2420  -11.6212 C   0  0  0  0  0  0  0  0  0  0  0  0
   20.5871  -21.1483  -11.1212 O   0  0  0  0  0  0  0  0  0  0  0  0
   21.0766  -19.1347  -12.0260 O   0  0  0  0  0  0  0  0  0  0  0  0
  2  3  1  0
  2  1  1  1
  3  4  1  0
  4  8  1  0
  5  4  2  0
  5  6  1  0
  6  7  1  0
  8  7  2  0
  9 10  2  0
  9  2  1  0
 11  9  1  0
 12 11  1  0
 13 14  1  0
 12 13  1  6
 14 18  1  0
 15 14  2  0
 15 16  1  0
 16 17  1  0
 18 17  2  0
 19 12  1  0
 19 26  1  0
 20 19  2  0
 22 21  1  1
 22 23  1  0
 24 22  1  0
 25 26  1  0
 25 24  1  1
 27 28  1  0
 27 25  1  0
 29 27  2  0
M  END
$$$$
