HHL.pdb
     RDKit          3D

 29 30  0  0  1  0  0  0  0  0999 V2000
   26.1463  -19.3641  -15.5312 N   0  0  0  0  0  0  0  0  0  0  0  0
   26.9617  -18.8751  -14.4378 C   0  0  1  0  0  0  0  0  0  0  0  0
   27.4062  -17.4693  -14.7720 C   0  0  0  0  0  0  0  0  0  0  0  0
   28.2153  -17.5235  -16.0073 C   0  0  0  0  0  0  0  0  0  0  0  0
   27.8542  -17.1056  -17.2696 C   0  0  0  0  0  0  0  0  0  0  0  0
   28.8859  -17.3345  -18.1086 N   0  0  0  0  0  0  0  0  0  0  0  0
   29.8484  -17.8808  -17.3582 C   0  0  0  0  0  0  0  0  0  0  0  0
   29.4655  -18.0071  -16.0737 N   0  0  0  0  0  0  0  0  0  0  0  0
   26.1577  -18.9030  -13.1769 C   0  0  0  0  0  0  0  0  0  0  0  0
   25.5355  -17.8722  -12.8116 O   0  0  0  0  0  0  0  0  0  0  0  0
   26.0979  -20.1065  -12.3858 N   0  0  0  0  0  0  0  0  0  0  0  0
   25.3796  -20.0253  -11.1470 C   0  0  1  0  0  0  0  0  0  0  0  0
   23.9588  -20.4869  -11.2262 C   0  0  0  0  0  0  0  0  0  0  0  0
   23.4502  -20.6876  -12.5805 C   0  0  0  0  0  0  0  0  0  0  0  0
   23.9959  -20.5999  -13.8244 C   0  0  0  0  0  0  0  0  0  0  0  0
   23.0686  -20.9178  -14.7590 N   0  0  0  0  0  0  0  0  0  0  0  0
   21.9504  -21.2032  -14.1088 C   0  0  0  0  0  0  0  0  0  0  0  0
   22.1549  -21.0721  -12.7993 N   0  0  0  0  0  0  0  0  0  0  0  0
   26.0854  -20.7321  -10.0451 C   0  0  0  0  0  0  0  0  0  0  0  0
   26.7748  -21.7635  -10.1739 O   0  0  0  0  0  0  0  0  0  0  0  0
   28.9454  -20.6535   -6.7055 C   0  0  0  0  0  0  0  0  0  0  0  0
   27.8959  -19.5353   -6.6506 C   0  0  2  0  0  0  0  0  0  0  0  0
   28.3008  -18.5913   -5.5640 C   0  0  0  0  0  0  0  0  0  0  0  0
   26.5614  -20.1704   -6.4301 C   0  0  0  0  0  0  0  0  0  0  0  0
   26.1057  -21.0715   -7.5534 C   0  0  2  0  0  0  0  0  0  0  0  0
   25.9717  -20.1962   -8.7331 N   0  0  0  0  0  0  0  0  0  0  0  0
   24.8709  -21.7983   -7.2836 C   0  0  0  0  0  0  0  0  0  0  0  0
   24.8612  -22.9428   -6.5148 O   0  0  0  0  0  0  0  0  0  0  0  0
   23.7861  -21.3867   -7.7541 O   0  0  0  0  0  0  0  0  0  0  0  0
  2  3  1  0
  2  1  1  6
  3  4  1  0
  4  8  1  0
  5  4  2  0
  5  6  1  0
  6  7  1  0
  8  7  2  0
  9 10  2  0
  9  2  1  0
 11  9  1  0
 12 11  1  0
 13 14  1  0
 12 13  1  6
 14 18  1  0
 15 14  2  0
 15 16  1  0
 16 17  1  0
 18 17  2  0
 19 12  1  0
 19 26  1  0
 20 19  2  0
 22 21  1  1
 22 23  1  0
 24 22  1  0
 25 26  1  0
 25 24  1  1
 27 28  1  0
 27 25  1  0
 29 27  2  0
M  END
$$$$
