YLP.pdb
     RDKit          3D

 28 29  0  0  1  0  0  0  0  0999 V2000
   17.2851  -25.8964  -14.7604 O   0  0  0  0  0  0  0  0  0  0  0  0
   18.2326  -24.8756  -14.7904 C   0  0  0  0  0  0  0  0  0  0  0  0
   18.4579  -24.0628  -13.6982 C   0  0  0  0  0  0  0  0  0  0  0  0
   19.3972  -23.0496  -13.7255 C   0  0  0  0  0  0  0  0  0  0  0  0
   20.1341  -22.8366  -14.8690 C   0  0  0  0  0  0  0  0  0  0  0  0
   21.1409  -21.7493  -14.8950 C   0  0  0  0  0  0  0  0  0  0  0  0
   21.2082  -21.1224  -13.5000 C   0  0  2  0  0  0  0  0  0  0  0  0
   20.2310  -20.0821  -13.3873 N   0  0  0  0  0  0  0  0  0  0  0  0
   22.5649  -20.5500  -13.3610 C   0  0  0  0  0  0  0  0  0  0  0  0
   22.7065  -19.3300  -13.6636 O   0  0  0  0  0  0  0  0  0  0  0  0
   19.9212  -23.6411  -15.9711 C   0  0  0  0  0  0  0  0  0  0  0  0
   18.9726  -24.6579  -15.9311 C   0  0  0  0  0  0  0  0  0  0  0  0
   25.1654  -19.5378   -9.8112 C   0  0  0  0  0  0  0  0  0  0  0  0
   25.3867  -20.9151  -10.3341 C   0  0  2  0  0  0  0  0  0  0  0  0
   26.5263  -21.5773   -9.5068 C   0  0  0  0  0  0  0  0  0  0  0  0
   25.7438  -21.1138  -11.7326 C   0  0  0  0  0  0  0  0  0  0  0  0
   24.9797  -20.5975  -12.8771 C   0  0  2  0  0  0  0  0  0  0  0  0
   23.6666  -21.2987  -12.9160 N   0  0  0  0  0  0  0  0  0  0  0  0
   25.5961  -20.7415  -14.1892 C   0  0  0  0  0  0  0  0  0  0  0  0
   25.0562  -21.5907  -15.0297 O   0  0  0  0  0  0  0  0  0  0  0  0
   26.7201  -20.0974  -14.7268 N   0  0  0  0  0  0  0  0  0  0  0  0
   27.7185  -19.1744  -14.2682 C   0  0  0  0  0  0  0  0  0  0  0  0
   27.5816  -18.0872  -15.3597 C   0  0  0  0  0  0  0  0  0  0  0  0
   27.6123  -18.9444  -16.6107 C   0  0  0  0  0  0  0  0  0  0  0  0
   27.1509  -20.3035  -16.1513 C   0  0  1  0  0  0  0  0  0  0  0  0
   28.2148  -21.3192  -16.1146 C   0  0  0  0  0  0  0  0  0  0  0  0
   28.7015  -21.8027  -15.0578 O   0  0  0  0  0  0  0  0  0  0  0  0
   28.7649  -21.8226  -17.3038 O   0  0  0  0  0  0  0  0  0  0  0  0
  2  1  1  0
  3  2  2  0
  4  3  1  0
  5  4  2  0
  5 11  1  0
  6  5  1  0
  7  6  1  0
  7  8  1  6
  9 18  1  0
  9  7  1  0
 10  9  2  0
 11 12  2  0
 12  2  1  0
 14 13  1  1
 14 15  1  0
 17 16  1  1
 16 14  1  0
 17 18  1  0
 19 17  1  0
 20 19  2  0
 21 19  1  0
 21 22  1  0
 23 22  1  0
 24 25  1  0
 24 23  1  0
 25 21  1  0
 25 26  1  1
 27 26  2  0
 28 26  1  0
M  END
$$$$
