YLP.pdb
     RDKit          3D

 28 29  0  0  1  0  0  0  0  0999 V2000
   21.5572  -19.0108  -15.7904 O   0  0  0  0  0  0  0  0  0  0  0  0
   22.1263  -19.4647  -14.6026 C   0  0  0  0  0  0  0  0  0  0  0  0
   22.3722  -18.6136  -13.5445 C   0  0  0  0  0  0  0  0  0  0  0  0
   22.9366  -19.0613  -12.3653 C   0  0  0  0  0  0  0  0  0  0  0  0
   23.2665  -20.3915  -12.2319 C   0  0  0  0  0  0  0  0  0  0  0  0
   23.8715  -20.8687  -10.9659 C   0  0  0  0  0  0  0  0  0  0  0  0
   25.3422  -20.4440  -10.9454 C   0  0  2  0  0  0  0  0  0  0  0  0
   26.0757  -21.1862  -11.9256 N   0  0  0  0  0  0  0  0  0  0  0  0
   25.8529  -20.7612   -9.5940 C   0  0  0  0  0  0  0  0  0  0  0  0
   26.0542  -21.9814   -9.3287 O   0  0  0  0  0  0  0  0  0  0  0  0
   23.0270  -21.2569  -13.2812 C   0  0  0  0  0  0  0  0  0  0  0  0
   22.4583  -20.7938  -14.4634 C   0  0  0  0  0  0  0  0  0  0  0  0
   29.1727  -17.8865   -5.7040 C   0  0  0  0  0  0  0  0  0  0  0  0
   28.4645  -19.1660   -5.9886 C   0  0  2  0  0  0  0  0  0  0  0  0
   29.3233  -19.9902   -6.9911 C   0  0  0  0  0  0  0  0  0  0  0  0
   27.1175  -19.1441   -6.5434 C   0  0  0  0  0  0  0  0  0  0  0  0
   26.4883  -20.2573   -7.2681 C   0  0  2  0  0  0  0  0  0  0  0  0
   26.1131  -19.7769   -8.6267 N   0  0  0  0  0  0  0  0  0  0  0  0
   25.2985  -20.8390   -6.6612 C   0  0  0  0  0  0  0  0  0  0  0  0
   24.1310  -20.4872   -7.1429 O   0  0  0  0  0  0  0  0  0  0  0  0
   25.1878  -21.7505   -5.6010 N   0  0  0  0  0  0  0  0  0  0  0  0
   26.0815  -22.4628   -4.7334 C   0  0  0  0  0  0  0  0  0  0  0  0
   25.5605  -23.9020   -4.9562 C   0  0  0  0  0  0  0  0  0  0  0  0
   24.0692  -23.6874   -4.7815 C   0  0  0  0  0  0  0  0  0  0  0  0
   23.8554  -22.2297   -5.0984 C   0  0  1  0  0  0  0  0  0  0  0  0
   23.5372  -21.3997   -3.9259 C   0  0  0  0  0  0  0  0  0  0  0  0
   22.3923  -21.3079   -3.4080 O   0  0  0  0  0  0  0  0  0  0  0  0
   24.5337  -20.6359   -3.2983 O   0  0  0  0  0  0  0  0  0  0  0  0
  2  1  1  0
  3  2  2  0
  4  3  1  0
  5  4  2  0
  5 11  1  0
  6  5  1  0
  7  6  1  0
  7  8  1  6
  9 18  1  0
  9  7  1  0
 10  9  2  0
 11 12  2  0
 12  2  1  0
 14 13  1  6
 14 15  1  0
 17 16  1  1
 16 14  1  0
 17 18  1  0
 19 17  1  0
 20 19  2  0
 21 19  1  0
 21 22  1  0
 23 22  1  0
 24 25  1  0
 24 23  1  0
 25 21  1  0
 25 26  1  1
 27 26  2  0
 28 26  1  0
M  END
$$$$
