YLP.pdb
     RDKit          3D

 28 29  0  0  1  0  0  0  0  0999 V2000
   14.8978  -15.7139  -14.8161 O   0  0  0  0  0  0  0  0  0  0  0  0
   15.7908  -14.6595  -14.9938 C   0  0  0  0  0  0  0  0  0  0  0  0
   15.3622  -13.3999  -15.3599 C   0  0  0  0  0  0  0  0  0  0  0  0
   16.2460  -12.3524  -15.5368 C   0  0  0  0  0  0  0  0  0  0  0  0
   17.5936  -12.5605  -15.3450 C   0  0  0  0  0  0  0  0  0  0  0  0
   18.5389  -11.4349  -15.5353 C   0  0  0  0  0  0  0  0  0  0  0  0
   18.6906  -11.1829  -17.0377 C   0  0  2  0  0  0  0  0  0  0  0  0
   19.4465  -12.2426  -17.6341 N   0  0  0  0  0  0  0  0  0  0  0  0
   19.4242   -9.9062  -17.1781 C   0  0  0  0  0  0  0  0  0  0  0  0
   20.6783   -9.9446  -17.0171 O   0  0  0  0  0  0  0  0  0  0  0  0
   18.0394  -13.8150  -14.9784 C   0  0  0  0  0  0  0  0  0  0  0  0
   17.1395  -14.8615  -14.8035 C   0  0  0  0  0  0  0  0  0  0  0  0
   21.1195   -6.9790  -20.5046 C   0  0  0  0  0  0  0  0  0  0  0  0
   19.6760   -7.0366  -20.1409 C   0  0  2  0  0  0  0  0  0  0  0  0
   18.8991   -6.0462  -21.0560 C   0  0  0  0  0  0  0  0  0  0  0  0
   19.2561   -6.7324  -18.7793 C   0  0  0  0  0  0  0  0  0  0  0  0
   19.6610   -7.4885  -17.5857 C   0  0  2  0  0  0  0  0  0  0  0  0
   18.7883   -8.6901  -17.4762 N   0  0  0  0  0  0  0  0  0  0  0  0
   19.5984   -6.7800  -16.3144 C   0  0  0  0  0  0  0  0  0  0  0  0
   18.4932   -6.8730  -15.6152 O   0  0  0  0  0  0  0  0  0  0  0  0
   20.5634   -5.9789  -15.6865 N   0  0  0  0  0  0  0  0  0  0  0  0
   21.9066   -5.5513  -15.9550 C   0  0  0  0  0  0  0  0  0  0  0  0
   22.5818   -5.9861  -14.6332 C   0  0  0  0  0  0  0  0  0  0  0  0
   21.6078   -5.4120  -13.6220 C   0  0  0  0  0  0  0  0  0  0  0  0
   20.3039   -5.3036  -14.3696 C   0  0  1  0  0  0  0  0  0  0  0  0
   19.9061   -3.9234  -14.6884 C   0  0  0  0  0  0  0  0  0  0  0  0
   19.3468   -3.1382  -13.8772 O   0  0  0  0  0  0  0  0  0  0  0  0
   20.1388   -3.3885  -15.9651 O   0  0  0  0  0  0  0  0  0  0  0  0
  2  1  1  0
  3  2  2  0
  4  3  1  0
  5  4  2  0
  5 11  1  0
  6  5  1  0
  7  6  1  0
  7  8  1  1
  9 18  1  0
  9  7  1  0
 10  9  2  0
 11 12  2  0
 12  2  1  0
 14 13  1  1
 14 15  1  0
 17 16  1  6
 16 14  1  0
 17 18  1  0
 19 17  1  0
 20 19  2  0
 21 19  1  0
 21 22  1  0
 23 22  1  0
 24 25  1  0
 24 23  1  0
 25 21  1  0
 25 26  1  6
 27 26  2  0
 28 26  1  0
M  END
$$$$
