YLP.pdb
     RDKit          3D

 28 29  0  0  1  0  0  0  0  0999 V2000
   19.5759  -21.8213  -13.8430 O   0  0  0  0  0  0  0  0  0  0  0  0
   20.8144  -21.6367  -13.2323 C   0  0  0  0  0  0  0  0  0  0  0  0
   21.9111  -21.1859  -13.9383 C   0  0  0  0  0  0  0  0  0  0  0  0
   23.1406  -21.0019  -13.3349 C   0  0  0  0  0  0  0  0  0  0  0  0
   23.2863  -21.2729  -11.9927 C   0  0  0  0  0  0  0  0  0  0  0  0
   24.6062  -21.0744  -11.3484 C   0  0  0  0  0  0  0  0  0  0  0  0
   24.4169  -20.1590  -10.1359 C   0  0  2  0  0  0  0  0  0  0  0  0
   23.8261  -18.9220  -10.5488 N   0  0  0  0  0  0  0  0  0  0  0  0
   25.7659  -19.9081   -9.5835 C   0  0  0  0  0  0  0  0  0  0  0  0
   26.5410  -19.1820  -10.2705 O   0  0  0  0  0  0  0  0  0  0  0  0
   22.1987  -21.7247  -11.2714 C   0  0  0  0  0  0  0  0  0  0  0  0
   20.9661  -21.9059  -11.8905 C   0  0  0  0  0  0  0  0  0  0  0  0
   28.0793  -17.9869   -5.7630 C   0  0  0  0  0  0  0  0  0  0  0  0
   27.4566  -19.3350   -5.6441 C   0  0  2  0  0  0  0  0  0  0  0  0
   27.7793  -19.9021   -4.2313 C   0  0  0  0  0  0  0  0  0  0  0  0
   27.8144  -20.3874   -6.5861 C   0  0  0  0  0  0  0  0  0  0  0  0
   27.6475  -20.3035   -8.0439 C   0  0  2  0  0  0  0  0  0  0  0  0
   26.1976  -20.4363   -8.3560 N   0  0  0  0  0  0  0  0  0  0  0  0
   28.3627  -21.2929   -8.8387 C   0  0  0  0  0  0  0  0  0  0  0  0
   27.6809  -22.3087   -9.3103 O   0  0  0  0  0  0  0  0  0  0  0  0
   29.7175  -21.3443   -9.1982 N   0  0  0  0  0  0  0  0  0  0  0  0
   30.8935  -20.5549   -8.9685 C   0  0  0  0  0  0  0  0  0  0  0  0
   31.3498  -20.3452  -10.4314 C   0  0  0  0  0  0  0  0  0  0  0  0
   31.2718  -21.7674  -10.9530 C   0  0  0  0  0  0  0  0  0  0  0  0
   30.2737  -22.4482  -10.0523 C   0  0  1  0  0  0  0  0  0  0  0  0
   30.8679  -23.4238   -9.1249 C   0  0  0  0  0  0  0  0  0  0  0  0
   30.9958  -23.2411   -7.8849 O   0  0  0  0  0  0  0  0  0  0  0  0
   31.3422  -24.6591   -9.5932 O   0  0  0  0  0  0  0  0  0  0  0  0
  2  1  1  0
  3  2  2  0
  4  3  1  0
  5  4  2  0
  5 11  1  0
  6  5  1  0
  7  6  1  0
  7  8  1  6
  9 18  1  0
  9  7  1  0
 10  9  2  0
 11 12  2  0
 12  2  1  0
 14 13  1  6
 14 15  1  0
 17 16  1  1
 16 14  1  0
 17 18  1  0
 19 17  1  0
 20 19  2  0
 21 19  1  0
 21 22  1  0
 23 22  1  0
 24 25  1  0
 24 23  1  0
 25 21  1  0
 25 26  1  1
 27 26  2  0
 28 26  1  0
M  END
$$$$
