YLP.pdb
     RDKit          3D

 28 29  0  0  1  0  0  0  0  0999 V2000
   20.8225  -18.4306  -15.2514 O   0  0  0  0  0  0  0  0  0  0  0  0
   21.6334  -18.9004  -14.2205 C   0  0  0  0  0  0  0  0  0  0  0  0
   21.2672  -19.9814  -13.4449 C   0  0  0  0  0  0  0  0  0  0  0  0
   22.0697  -20.4492  -12.4218 C   0  0  0  0  0  0  0  0  0  0  0  0
   23.2699  -19.8268  -12.1608 C   0  0  0  0  0  0  0  0  0  0  0  0
   24.1285  -20.3311  -11.0629 C   0  0  0  0  0  0  0  0  0  0  0  0
   25.4338  -20.8493  -11.6723 C   0  0  2  0  0  0  0  0  0  0  0  0
   25.1650  -21.9834  -12.5038 N   0  0  0  0  0  0  0  0  0  0  0  0
   26.2953  -21.2535  -10.5400 C   0  0  0  0  0  0  0  0  0  0  0  0
   26.0965  -22.4024  -10.0495 O   0  0  0  0  0  0  0  0  0  0  0  0
   23.6516  -18.7436  -12.9276 C   0  0  0  0  0  0  0  0  0  0  0  0
   22.8347  -18.2821  -13.9548 C   0  0  0  0  0  0  0  0  0  0  0  0
   31.0510  -21.0770   -7.4618 C   0  0  0  0  0  0  0  0  0  0  0  0
   30.6130  -21.7630   -8.7096 C   0  0  2  0  0  0  0  0  0  0  0  0
   31.8144  -21.7987   -9.6981 C   0  0  0  0  0  0  0  0  0  0  0  0
   29.4871  -21.2387   -9.4713 C   0  0  0  0  0  0  0  0  0  0  0  0
   28.1416  -21.0030   -8.9287 C   0  0  2  0  0  0  0  0  0  0  0  0
   27.2972  -20.4242  -10.0101 N   0  0  0  0  0  0  0  0  0  0  0  0
   28.0508  -20.1172   -7.7757 C   0  0  0  0  0  0  0  0  0  0  0  0
   27.7589  -18.8576   -7.9926 O   0  0  0  0  0  0  0  0  0  0  0  0
   28.2330  -20.3978   -6.4137 N   0  0  0  0  0  0  0  0  0  0  0  0
   28.6173  -21.5289   -5.6187 C   0  0  0  0  0  0  0  0  0  0  0  0
   27.4244  -21.5667   -4.6350 C   0  0  0  0  0  0  0  0  0  0  0  0
   27.3660  -20.1108   -4.2136 C   0  0  0  0  0  0  0  0  0  0  0  0
   28.0111  -19.3601   -5.3499 C   0  0  1  0  0  0  0  0  0  0  0  0
   29.3381  -18.8102   -5.0311 C   0  0  0  0  0  0  0  0  0  0  0  0
   29.5350  -17.8080   -4.2933 O   0  0  0  0  0  0  0  0  0  0  0  0
   30.5006  -19.3979   -5.5539 O   0  0  0  0  0  0  0  0  0  0  0  0
  2  1  1  0
  3  2  2  0
  4  3  1  0
  5  4  2  0
  5 11  1  0
  6  5  1  0
  7  6  1  0
  7  8  1  6
  9 18  1  0
  9  7  1  0
 10  9  2  0
 11 12  2  0
 12  2  1  0
 14 13  1  1
 14 15  1  0
 17 16  1  6
 16 14  1  0
 17 18  1  0
 19 17  1  0
 20 19  2  0
 21 19  1  0
 21 22  1  0
 23 22  1  0
 24 25  1  0
 24 23  1  0
 25 21  1  0
 25 26  1  1
 27 26  2  0
 28 26  1  0
M  END
$$$$
