YLP.pdb
     RDKit          3D

 28 29  0  0  1  0  0  0  0  0999 V2000
   24.9067  -11.7620  -16.9465 O   0  0  0  0  0  0  0  0  0  0  0  0
   25.0469  -13.1285  -16.7144 C   0  0  0  0  0  0  0  0  0  0  0  0
   24.7314  -14.0640  -17.6786 C   0  0  0  0  0  0  0  0  0  0  0  0
   24.8695  -15.4200  -17.4509 C   0  0  0  0  0  0  0  0  0  0  0  0
   25.3341  -15.8605  -16.2318 C   0  0  0  0  0  0  0  0  0  0  0  0
   25.4813  -17.3154  -15.9907 C   0  0  0  0  0  0  0  0  0  0  0  0
   26.9611  -17.6798  -16.1361 C   0  0  2  0  0  0  0  0  0  0  0  0
   27.2458  -18.0210  -17.4972 N   0  0  0  0  0  0  0  0  0  0  0  0
   27.1923  -18.8550  -15.2681 C   0  0  0  0  0  0  0  0  0  0  0  0
   26.7781  -19.9721  -15.6929 O   0  0  0  0  0  0  0  0  0  0  0  0
   25.6545  -14.9375  -15.2558 C   0  0  0  0  0  0  0  0  0  0  0  0
   25.5109  -13.5750  -15.4973 C   0  0  0  0  0  0  0  0  0  0  0  0
   30.3527  -20.4888  -10.2188 C   0  0  0  0  0  0  0  0  0  0  0  0
   29.4006  -20.8921  -11.2913 C   0  0  2  0  0  0  0  0  0  0  0  0
   29.9353  -22.1919  -11.9594 C   0  0  0  0  0  0  0  0  0  0  0  0
   29.1056  -19.9756  -12.3847 C   0  0  0  0  0  0  0  0  0  0  0  0
   27.8900  -20.0146  -13.2100 C   0  0  2  0  0  0  0  0  0  0  0  0
   27.8388  -18.7690  -14.0244 N   0  0  0  0  0  0  0  0  0  0  0  0
   26.6240  -20.1295  -12.4987 C   0  0  0  0  0  0  0  0  0  0  0  0
   26.0833  -19.0311  -12.0293 O   0  0  0  0  0  0  0  0  0  0  0  0
   25.8539  -21.2676  -12.2180 N   0  0  0  0  0  0  0  0  0  0  0  0
   25.9486  -22.6806  -12.4497 C   0  0  0  0  0  0  0  0  0  0  0  0
   24.5814  -22.9195  -13.1324 C   0  0  0  0  0  0  0  0  0  0  0  0
   23.6601  -22.1948  -12.1697 C   0  0  0  0  0  0  0  0  0  0  0  0
   24.5438  -21.1827  -11.4872 C   0  0  1  0  0  0  0  0  0  0  0  0
   24.8390  -21.4939  -10.0798 C   0  0  0  0  0  0  0  0  0  0  0  0
   25.9057  -22.0306   -9.6778 O   0  0  0  0  0  0  0  0  0  0  0  0
   23.9093  -21.1966   -9.0710 O   0  0  0  0  0  0  0  0  0  0  0  0
  2  1  1  0
  3  2  2  0
  4  3  1  0
  5  4  2  0
  5 11  1  0
  6  5  1  0
  7  6  1  0
  7  8  1  6
  9 18  1  0
  9  7  1  0
 10  9  2  0
 11 12  2  0
 12  2  1  0
 14 13  1  1
 14 15  1  0
 17 16  1  1
 16 14  1  0
 17 18  1  0
 19 17  1  0
 20 19  2  0
 21 19  1  0
 21 22  1  0
 23 22  1  0
 24 25  1  0
 24 23  1  0
 25 21  1  0
 25 26  1  1
 27 26  2  0
 28 26  1  0
M  END
$$$$
