YLP.pdb
     RDKit          3D

 28 29  0  0  1  0  0  0  0  0999 V2000
   17.9039  -17.5749  -19.7910 O   0  0  0  0  0  0  0  0  0  0  0  0
   18.4324  -18.4296  -18.8261 C   0  0  0  0  0  0  0  0  0  0  0  0
   19.0235  -19.6295  -19.1655 C   0  0  0  0  0  0  0  0  0  0  0  0
   19.5484  -20.4790  -18.2103 C   0  0  0  0  0  0  0  0  0  0  0  0
   19.4852  -20.1280  -16.8803 C   0  0  0  0  0  0  0  0  0  0  0  0
   20.0493  -21.0411  -15.8582 C   0  0  0  0  0  0  0  0  0  0  0  0
   21.5752  -21.0136  -15.9781 C   0  0  2  0  0  0  0  0  0  0  0  0
   22.1507  -21.9624  -15.0735 N   0  0  0  0  0  0  0  0  0  0  0  0
   22.0018  -19.6470  -15.6061 C   0  0  0  0  0  0  0  0  0  0  0  0
   21.8389  -19.3038  -14.3996 O   0  0  0  0  0  0  0  0  0  0  0  0
   18.8971  -18.9305  -16.5234 C   0  0  0  0  0  0  0  0  0  0  0  0
   18.3722  -18.0840  -17.4946 C   0  0  0  0  0  0  0  0  0  0  0  0
   25.1328  -14.9619  -15.7614 C   0  0  0  0  0  0  0  0  0  0  0  0
   25.3141  -16.3890  -15.3741 C   0  0  2  0  0  0  0  0  0  0  0  0
   26.7882  -16.7936  -15.6659 C   0  0  0  0  0  0  0  0  0  0  0  0
   24.4895  -17.4204  -15.9898 C   0  0  0  0  0  0  0  0  0  0  0  0
   23.0199  -17.4362  -15.9850 C   0  0  2  0  0  0  0  0  0  0  0  0
   22.5656  -18.7474  -16.5253 N   0  0  0  0  0  0  0  0  0  0  0  0
   22.3553  -16.3894  -16.7496 C   0  0  0  0  0  0  0  0  0  0  0  0
   22.2089  -16.5722  -18.0396 O   0  0  0  0  0  0  0  0  0  0  0  0
   21.8243  -15.1648  -16.3187 N   0  0  0  0  0  0  0  0  0  0  0  0
   21.7544  -14.4269  -15.0900 C   0  0  0  0  0  0  0  0  0  0  0  0
   20.2279  -14.1871  -15.0228 C   0  0  0  0  0  0  0  0  0  0  0  0
   19.9644  -13.6804  -16.4281 C   0  0  0  0  0  0  0  0  0  0  0  0
   21.0952  -14.2401  -17.2520 C   0  0  1  0  0  0  0  0  0  0  0  0
   22.0792  -13.2353  -17.6844 C   0  0  0  0  0  0  0  0  0  0  0  0
   23.2236  -13.0948  -17.1765 O   0  0  0  0  0  0  0  0  0  0  0  0
   21.7812  -12.3448  -18.7277 O   0  0  0  0  0  0  0  0  0  0  0  0
  2  1  1  0
  3  2  2  0
  4  3  1  0
  5  4  2  0
  5 11  1  0
  6  5  1  0
  7  6  1  0
  7  8  1  1
  9 18  1  0
  9  7  1  0
 10  9  2  0
 11 12  2  0
 12  2  1  0
 14 13  1  6
 14 15  1  0
 17 16  1  6
 16 14  1  0
 17 18  1  0
 19 17  1  0
 20 19  2  0
 21 19  1  0
 21 22  1  0
 23 22  1  0
 24 25  1  0
 24 23  1  0
 25 21  1  0
 25 26  1  1
 27 26  2  0
 28 26  1  0
M  END
$$$$
