YLP.pdb
     RDKit          3D

 28 29  0  0  1  0  0  0  0  0999 V2000
   23.3732  -14.4267  -21.1460 O   0  0  0  0  0  0  0  0  0  0  0  0
   23.4406  -15.5796  -20.3668 C   0  0  0  0  0  0  0  0  0  0  0  0
   23.2038  -15.5512  -19.0076 C   0  0  0  0  0  0  0  0  0  0  0  0
   23.2701  -16.6933  -18.2325 C   0  0  0  0  0  0  0  0  0  0  0  0
   23.5800  -17.8981  -18.8228 C   0  0  0  0  0  0  0  0  0  0  0  0
   23.6501  -19.1213  -17.9888 C   0  0  0  0  0  0  0  0  0  0  0  0
   24.9863  -19.1184  -17.2418 C   0  0  2  0  0  0  0  0  0  0  0  0
   26.0344  -19.5437  -18.1196 N   0  0  0  0  0  0  0  0  0  0  0  0
   24.8474  -20.0809  -16.1273 C   0  0  0  0  0  0  0  0  0  0  0  0
   24.8041  -21.3080  -16.4312 O   0  0  0  0  0  0  0  0  0  0  0  0
   23.8197  -17.9442  -20.1820 C   0  0  0  0  0  0  0  0  0  0  0  0
   23.7500  -16.7872  -20.9514 C   0  0  0  0  0  0  0  0  0  0  0  0
   25.1039  -20.3062   -9.9586 C   0  0  0  0  0  0  0  0  0  0  0  0
   24.9160  -21.0445  -11.2387 C   0  0  2  0  0  0  0  0  0  0  0  0
   25.8887  -22.2593  -11.2524 C   0  0  0  0  0  0  0  0  0  0  0  0
   25.1165  -20.3604  -12.5094 C   0  0  0  0  0  0  0  0  0  0  0  0
   24.5010  -20.7564  -13.7840 C   0  0  2  0  0  0  0  0  0  0  0  0
   24.7650  -19.6839  -14.7827 N   0  0  0  0  0  0  0  0  0  0  0  0
   23.0646  -20.9986  -13.7654 C   0  0  0  0  0  0  0  0  0  0  0  0
   22.2689  -19.9798  -13.9842 O   0  0  0  0  0  0  0  0  0  0  0  0
   22.3596  -22.1902  -13.5412 N   0  0  0  0  0  0  0  0  0  0  0  0
   22.6796  -23.5595  -13.2555 C   0  0  0  0  0  0  0  0  0  0  0  0
   21.8794  -24.2495  -14.3850 C   0  0  0  0  0  0  0  0  0  0  0  0
   20.5376  -23.5578  -14.2370 C   0  0  0  0  0  0  0  0  0  0  0  0
   20.8584  -22.2451  -13.5701 C   0  0  1  0  0  0  0  0  0  0  0  0
   20.4183  -22.1589  -12.1688 C   0  0  0  0  0  0  0  0  0  0  0  0
   21.1731  -22.3257  -11.1738 O   0  0  0  0  0  0  0  0  0  0  0  0
   19.0799  -21.8747  -11.8554 O   0  0  0  0  0  0  0  0  0  0  0  0
  2  1  1  0
  3  2  2  0
  4  3  1  0
  5  4  2  0
  5 11  1  0
  6  5  1  0
  7  6  1  0
  7  8  1  6
  9 18  1  0
  9  7  1  0
 10  9  2  0
 11 12  2  0
 12  2  1  0
 14 13  1  1
 14 15  1  0
 17 16  1  1
 16 14  1  0
 17 18  1  0
 19 17  1  0
 20 19  2  0
 21 19  1  0
 21 22  1  0
 23 22  1  0
 24 25  1  0
 24 23  1  0
 25 21  1  0
 25 26  1  1
 27 26  2  0
 28 26  1  0
M  END
$$$$
