YLP.pdb
     RDKit          3D

 28 29  0  0  1  0  0  0  0  0999 V2000
   21.0466  -19.3494  -15.4867 O   0  0  0  0  0  0  0  0  0  0  0  0
   21.7600  -19.7369  -14.3545 C   0  0  0  0  0  0  0  0  0  0  0  0
   21.8280  -21.0565  -13.9565 C   0  0  0  0  0  0  0  0  0  0  0  0
   22.5350  -21.4433  -12.8340 C   0  0  0  0  0  0  0  0  0  0  0  0
   23.1933  -20.4939  -12.0848 C   0  0  0  0  0  0  0  0  0  0  0  0
   23.9508  -20.9121  -10.8815 C   0  0  0  0  0  0  0  0  0  0  0  0
   25.4293  -20.5846  -11.1059 C   0  0  2  0  0  0  0  0  0  0  0  0
   25.9583  -21.4146  -12.1456 N   0  0  0  0  0  0  0  0  0  0  0  0
   26.1229  -20.8767   -9.8325 C   0  0  0  0  0  0  0  0  0  0  0  0
   26.3379  -22.0936   -9.5625 O   0  0  0  0  0  0  0  0  0  0  0  0
   23.1355  -19.1688  -12.4692 C   0  0  0  0  0  0  0  0  0  0  0  0
   22.4204  -18.7920  -13.6014 C   0  0  0  0  0  0  0  0  0  0  0  0
   28.8193  -17.9325   -5.1140 C   0  0  0  0  0  0  0  0  0  0  0  0
   28.4995  -19.2399   -5.7526 C   0  0  2  0  0  0  0  0  0  0  0  0
   29.7976  -20.0972   -5.7932 C   0  0  0  0  0  0  0  0  0  0  0  0
   27.9570  -19.2760   -7.1043 C   0  0  0  0  0  0  0  0  0  0  0  0
   27.0683  -20.3240   -7.6261 C   0  0  2  0  0  0  0  0  0  0  0  0
   26.5372  -19.8728   -8.9421 N   0  0  0  0  0  0  0  0  0  0  0  0
   25.9306  -20.6872   -6.7919 C   0  0  0  0  0  0  0  0  0  0  0  0
   24.7604  -20.1815   -7.0980 O   0  0  0  0  0  0  0  0  0  0  0  0
   25.8752  -21.5221   -5.6662 N   0  0  0  0  0  0  0  0  0  0  0  0
   26.8000  -22.2963   -4.8888 C   0  0  0  0  0  0  0  0  0  0  0  0
   26.0863  -23.6677   -4.9344 C   0  0  0  0  0  0  0  0  0  0  0  0
   24.6740  -23.2580   -4.5626 C   0  0  0  0  0  0  0  0  0  0  0  0
   24.5871  -21.8031   -4.9455 C   0  0  1  0  0  0  0  0  0  0  0  0
   24.5492  -20.8808   -3.7998 C   0  0  0  0  0  0  0  0  0  0  0  0
   25.5498  -20.2595   -3.3524 O   0  0  0  0  0  0  0  0  0  0  0  0
   23.3469  -20.6354   -3.1182 O   0  0  0  0  0  0  0  0  0  0  0  0
  2  1  1  0
  3  2  2  0
  4  3  1  0
  5  4  2  0
  5 11  1  0
  6  5  1  0
  7  6  1  0
  7  8  1  6
  9 18  1  0
  9  7  1  0
 10  9  2  0
 11 12  2  0
 12  2  1  0
 14 13  1  6
 14 15  1  0
 17 16  1  1
 16 14  1  0
 17 18  1  0
 19 17  1  0
 20 19  2  0
 21 19  1  0
 21 22  1  0
 23 22  1  0
 24 25  1  0
 24 23  1  0
 25 21  1  0
 25 26  1  1
 27 26  2  0
 28 26  1  0
M  END
$$$$
