YLP.pdb
     RDKit          3D

 28 29  0  0  1  0  0  0  0  0999 V2000
   16.3930  -15.9500  -16.5929 O   0  0  0  0  0  0  0  0  0  0  0  0
   17.4180  -16.8920  -16.6447 C   0  0  0  0  0  0  0  0  0  0  0  0
   18.2802  -17.0849  -15.5846 C   0  0  0  0  0  0  0  0  0  0  0  0
   19.2976  -18.0186  -15.6335 C   0  0  0  0  0  0  0  0  0  0  0  0
   19.4646  -18.7830  -16.7666 C   0  0  0  0  0  0  0  0  0  0  0  0
   20.5567  -19.7838  -16.8159 C   0  0  0  0  0  0  0  0  0  0  0  0
   21.6986  -19.2087  -17.6578 C   0  0  2  0  0  0  0  0  0  0  0  0
   21.6587  -19.7662  -18.9760 N   0  0  0  0  0  0  0  0  0  0  0  0
   22.9562  -19.6035  -16.9867 C   0  0  0  0  0  0  0  0  0  0  0  0
   23.3759  -20.7776  -17.1997 O   0  0  0  0  0  0  0  0  0  0  0  0
   18.6104  -18.6028  -17.8367 C   0  0  0  0  0  0  0  0  0  0  0  0
   17.5899  -17.6594  -17.7751 C   0  0  0  0  0  0  0  0  0  0  0  0
   28.0159  -17.0893  -14.5733 C   0  0  0  0  0  0  0  0  0  0  0  0
   27.2409  -18.3220  -14.8883 C   0  0  2  0  0  0  0  0  0  0  0  0
   28.0945  -19.2089  -15.8404 C   0  0  0  0  0  0  0  0  0  0  0  0
   25.9289  -18.2166  -15.5132 C   0  0  0  0  0  0  0  0  0  0  0  0
   24.9185  -19.2839  -15.5325 C   0  0  2  0  0  0  0  0  0  0  0  0
   23.6759  -18.7390  -16.1460 N   0  0  0  0  0  0  0  0  0  0  0  0
   24.5584  -19.8624  -14.2450 C   0  0  0  0  0  0  0  0  0  0  0  0
   23.4581  -19.4404  -13.6702 O   0  0  0  0  0  0  0  0  0  0  0  0
   25.2209  -20.8361  -13.4833 N   0  0  0  0  0  0  0  0  0  0  0  0
   26.4165  -21.6212  -13.5968 C   0  0  0  0  0  0  0  0  0  0  0  0
   25.8163  -23.0316  -13.3899 C   0  0  0  0  0  0  0  0  0  0  0  0
   24.9732  -22.7954  -12.1514 C   0  0  0  0  0  0  0  0  0  0  0  0
   24.6850  -21.3163  -12.1643 C   0  0  1  0  0  0  0  0  0  0  0  0
   25.4018  -20.5548  -11.1293 C   0  0  0  0  0  0  0  0  0  0  0  0
   26.4754  -19.9248  -11.3240 O   0  0  0  0  0  0  0  0  0  0  0  0
   24.9061  -20.4883   -9.8178 O   0  0  0  0  0  0  0  0  0  0  0  0
  2  1  1  0
  3  2  2  0
  4  3  1  0
  5  4  2  0
  5 11  1  0
  6  5  1  0
  7  6  1  0
  7  8  1  6
  9 18  1  0
  9  7  1  0
 10  9  2  0
 11 12  2  0
 12  2  1  0
 14 13  1  6
 14 15  1  0
 17 16  1  1
 16 14  1  0
 17 18  1  0
 19 17  1  0
 20 19  2  0
 21 19  1  0
 21 22  1  0
 23 22  1  0
 24 25  1  0
 24 23  1  0
 25 21  1  0
 25 26  1  1
 27 26  2  0
 28 26  1  0
M  END
$$$$
