YLP.pdb
     RDKit          3D

 28 29  0  0  1  0  0  0  0  0999 V2000
   24.1207  -13.4601  -20.2684 O   0  0  0  0  0  0  0  0  0  0  0  0
   24.1704  -14.6203  -19.4989 C   0  0  0  0  0  0  0  0  0  0  0  0
   24.3149  -14.5752  -18.1272 C   0  0  0  0  0  0  0  0  0  0  0  0
   24.3645  -15.7246  -17.3617 C   0  0  0  0  0  0  0  0  0  0  0  0
   24.2679  -16.9539  -17.9744 C   0  0  0  0  0  0  0  0  0  0  0  0
   24.3212  -18.1848  -17.1505 C   0  0  0  0  0  0  0  0  0  0  0  0
   25.7732  -18.4157  -16.7240 C   0  0  2  0  0  0  0  0  0  0  0  0
   26.5442  -18.8598  -17.8457 N   0  0  0  0  0  0  0  0  0  0  0  0
   25.7447  -19.4715  -15.6885 C   0  0  0  0  0  0  0  0  0  0  0  0
   25.7295  -20.6703  -16.0919 O   0  0  0  0  0  0  0  0  0  0  0  0
   24.1228  -17.0170  -19.3463 C   0  0  0  0  0  0  0  0  0  0  0  0
   24.0742  -15.8525  -20.1060 C   0  0  0  0  0  0  0  0  0  0  0  0
   25.9466  -20.0169   -9.5395 C   0  0  0  0  0  0  0  0  0  0  0  0
   25.8443  -20.7228  -10.8474 C   0  0  2  0  0  0  0  0  0  0  0  0
   26.8390  -21.9196  -10.8387 C   0  0  0  0  0  0  0  0  0  0  0  0
   26.1023  -20.0005  -12.0861 C   0  0  0  0  0  0  0  0  0  0  0  0
   25.5306  -20.3454  -13.3954 C   0  0  2  0  0  0  0  0  0  0  0  0
   25.7346  -19.1902  -14.3126 N   0  0  0  0  0  0  0  0  0  0  0  0
   24.1136  -20.6826  -13.4183 C   0  0  0  0  0  0  0  0  0  0  0  0
   23.2581  -19.7174  -13.6543 O   0  0  0  0  0  0  0  0  0  0  0  0
   23.4835  -21.9199  -13.2199 N   0  0  0  0  0  0  0  0  0  0  0  0
   23.8881  -23.2775  -12.9916 C   0  0  0  0  0  0  0  0  0  0  0  0
   23.0987  -23.9732  -14.1252 C   0  0  0  0  0  0  0  0  0  0  0  0
   21.7242  -23.3655  -13.9196 C   0  0  0  0  0  0  0  0  0  0  0  0
   21.9876  -22.0602  -13.2140 C   0  0  1  0  0  0  0  0  0  0  0  0
   21.5807  -22.0479  -11.8001 C   0  0  0  0  0  0  0  0  0  0  0  0
   22.3658  -22.2293  -10.8316 O   0  0  0  0  0  0  0  0  0  0  0  0
   20.2418  -21.8243  -11.4429 O   0  0  0  0  0  0  0  0  0  0  0  0
  2  1  1  0
  3  2  2  0
  4  3  1  0
  5  4  2  0
  5 11  1  0
  6  5  1  0
  7  6  1  0
  7  8  1  6
  9 18  1  0
  9  7  1  0
 10  9  2  0
 11 12  2  0
 12  2  1  0
 14 13  1  1
 14 15  1  0
 17 16  1  1
 16 14  1  0
 17 18  1  0
 19 17  1  0
 20 19  2  0
 21 19  1  0
 21 22  1  0
 23 22  1  0
 24 25  1  0
 24 23  1  0
 25 21  1  0
 25 26  1  1
 27 26  2  0
 28 26  1  0
M  END
$$$$
