YLP.pdb
     RDKit          3D

 28 29  0  0  1  0  0  0  0  0999 V2000
   23.5140  -12.5153  -16.1916 O   0  0  0  0  0  0  0  0  0  0  0  0
   24.0165  -13.7974  -16.4027 C   0  0  0  0  0  0  0  0  0  0  0  0
   23.4910  -14.8979  -15.7568 C   0  0  0  0  0  0  0  0  0  0  0  0
   23.9877  -16.1706  -15.9645 C   0  0  0  0  0  0  0  0  0  0  0  0
   25.0357  -16.3569  -16.8380 C   0  0  0  0  0  0  0  0  0  0  0  0
   25.5660  -17.7232  -17.0588 C   0  0  0  0  0  0  0  0  0  0  0  0
   26.8214  -17.8966  -16.2000 C   0  0  2  0  0  0  0  0  0  0  0  0
   27.9474  -18.1802  -17.0375 N   0  0  0  0  0  0  0  0  0  0  0  0
   26.5633  -19.0453  -15.3046 C   0  0  0  0  0  0  0  0  0  0  0  0
   26.6137  -20.1984  -15.8220 O   0  0  0  0  0  0  0  0  0  0  0  0
   25.5733  -15.2663  -17.4928 C   0  0  0  0  0  0  0  0  0  0  0  0
   25.0644  -13.9900  -17.2750 C   0  0  0  0  0  0  0  0  0  0  0  0
   24.6715  -21.5142  -10.6249 C   0  0  0  0  0  0  0  0  0  0  0  0
   26.0098  -20.8635  -10.6954 C   0  0  2  0  0  0  0  0  0  0  0  0
   26.2387  -20.0671   -9.3782 C   0  0  0  0  0  0  0  0  0  0  0  0
   26.3118  -19.9364  -11.7781 C   0  0  0  0  0  0  0  0  0  0  0  0
   25.9441  -20.1396  -13.1865 C   0  0  2  0  0  0  0  0  0  0  0  0
   26.2730  -18.8972  -13.9386 N   0  0  0  0  0  0  0  0  0  0  0  0
   24.5490  -20.4620  -13.4548 C   0  0  0  0  0  0  0  0  0  0  0  0
   23.7257  -19.4694  -13.6917 O   0  0  0  0  0  0  0  0  0  0  0  0
   23.9108  -21.7100  -13.5025 N   0  0  0  0  0  0  0  0  0  0  0  0
   24.2577  -23.0757  -13.2316 C   0  0  0  0  0  0  0  0  0  0  0  0
   23.8369  -23.7172  -14.5746 C   0  0  0  0  0  0  0  0  0  0  0  0
   22.4502  -23.1258  -14.7421 C   0  0  0  0  0  0  0  0  0  0  0  0
   22.4780  -21.8562  -13.9307 C   0  0  1  0  0  0  0  0  0  0  0  0
   21.6847  -21.9159  -12.6930 C   0  0  0  0  0  0  0  0  0  0  0  0
   22.1684  -22.1091  -11.5458 O   0  0  0  0  0  0  0  0  0  0  0  0
   20.2908  -21.7539  -12.7281 O   0  0  0  0  0  0  0  0  0  0  0  0
  2  1  1  0
  3  2  2  0
  4  3  1  0
  5  4  2  0
  5 11  1  0
  6  5  1  0
  7  6  1  0
  7  8  1  6
  9 18  1  0
  9  7  1  0
 10  9  2  0
 11 12  2  0
 12  2  1  0
 14 13  1  6
 14 15  1  0
 17 16  1  1
 16 14  1  0
 17 18  1  0
 19 17  1  0
 20 19  2  0
 21 19  1  0
 21 22  1  0
 23 22  1  0
 24 25  1  0
 24 23  1  0
 25 21  1  0
 25 26  1  1
 27 26  2  0
 28 26  1  0
M  END
$$$$
