EPY.pdb
     RDKit          3D

 29 30  0  0  1  0  0  0  0  0999 V2000
   21.1629   -6.2732  -14.2378 N   0  0  0  0  0  0  0  0  0  0  0  0
   20.2196   -6.9459  -15.1749 C   0  0  1  0  0  0  0  0  0  0  0  0
   20.9449   -8.2182  -15.5645 C   0  0  0  0  0  0  0  0  0  0  0  0
   22.2034   -8.0042  -16.3430 C   0  0  0  0  0  0  0  0  0  0  0  0
   22.9345   -9.2831  -16.5627 C   0  0  0  0  0  0  0  0  0  0  0  0
   23.2455   -9.9709  -15.5661 O   0  0  0  0  0  0  0  0  0  0  0  0
   18.9386   -7.1752  -14.4875 C   0  0  0  0  0  0  0  0  0  0  0  0
   18.9760   -7.0780  -13.2106 O   0  0  0  0  0  0  0  0  0  0  0  0
   23.2780   -9.7312  -17.8196 O   0  0  0  0  0  0  0  0  0  0  0  0
   17.7015   -7.4812  -15.0908 N   0  0  0  0  0  0  0  0  0  0  0  0
   17.4187   -7.5430  -16.5086 C   0  0  0  0  0  0  0  0  0  0  0  0
   15.9302   -7.3019  -16.6409 C   0  0  0  0  0  0  0  0  0  0  0  0
   15.4673   -7.0832  -15.2312 C   0  0  0  0  0  0  0  0  0  0  0  0
   16.4670   -7.7773  -14.3722 C   0  0  1  0  0  0  0  0  0  0  0  0
   16.2496   -9.2364  -14.2314 C   0  0  0  0  0  0  0  0  0  0  0  0
   16.6475  -10.0514  -15.1061 O   0  0  0  0  0  0  0  0  0  0  0  0
   13.9748  -16.7333   -9.9431 O   0  0  0  0  0  0  0  0  0  0  0  0
   14.3238  -15.4222  -10.3143 C   0  0  0  0  0  0  0  0  0  0  0  0
   15.5889  -15.1173  -10.7546 C   0  0  0  0  0  0  0  0  0  0  0  0
   15.9612  -13.8336  -11.1278 C   0  0  0  0  0  0  0  0  0  0  0  0
   15.0241  -12.8299  -11.0522 C   0  0  0  0  0  0  0  0  0  0  0  0
   15.3594  -11.4584  -11.4292 C   0  0  0  0  0  0  0  0  0  0  0  0
   15.3931  -11.2051  -12.9189 C   0  0  2  0  0  0  0  0  0  0  0  0
   15.5901   -9.7629  -13.1133 N   0  0  0  0  0  0  0  0  0  0  0  0
   14.2072  -11.6893  -13.6260 C   0  0  0  0  0  0  0  0  0  0  0  0
   14.1792  -12.9200  -14.2579 O   0  0  0  0  0  0  0  0  0  0  0  0
   13.7520  -13.1209  -10.6126 C   0  0  0  0  0  0  0  0  0  0  0  0
   13.3845  -14.4108  -10.2398 C   0  0  0  0  0  0  0  0  0  0  0  0
   13.1605  -10.9923  -13.6833 O   0  0  0  0  0  0  0  0  0  0  0  0
  2  1  1  1
  3  2  1  0
  3  4  1  0
  4  5  1  0
  5  9  1  0
  5  6  2  0
  7  2  1  0
  7  8  2  0
 10  7  1  0
 11 10  1  0
 12 13  1  0
 12 11  1  0
 13 14  1  0
 14 10  1  0
 15 16  2  0
 14 15  1  6
 18 17  1  0
 19 18  2  0
 20 19  1  0
 21 27  1  0
 21 20  2  0
 23 22  1  1
 22 21  1  0
 23 24  1  0
 24 15  1  0
 25 23  1  0
 26 25  1  0
 27 28  2  0
 28 18  1  0
 29 25  2  0
M  END
$$$$
