EPY.pdb
     RDKit          3D

 29 30  0  0  1  0  0  0  0  0999 V2000
   24.6331  -14.8598  -17.9861 N   0  0  0  0  0  0  0  0  0  0  0  0
   25.3318  -13.5514  -18.1292 C   0  0  1  0  0  0  0  0  0  0  0  0
   24.9477  -13.0881  -19.5201 C   0  0  0  0  0  0  0  0  0  0  0  0
   23.4848  -12.8484  -19.7148 C   0  0  0  0  0  0  0  0  0  0  0  0
   23.1951  -12.3093  -21.0728 C   0  0  0  0  0  0  0  0  0  0  0  0
   24.1562  -12.0540  -21.8304 O   0  0  0  0  0  0  0  0  0  0  0  0
   24.8886  -12.6481  -17.0551 C   0  0  0  0  0  0  0  0  0  0  0  0
   23.8119  -12.9966  -16.4545 O   0  0  0  0  0  0  0  0  0  0  0  0
   21.9114  -12.0836  -21.5197 O   0  0  0  0  0  0  0  0  0  0  0  0
   25.5270  -11.4640  -16.6329 N   0  0  0  0  0  0  0  0  0  0  0  0
   26.7256  -10.8770  -17.1922 C   0  0  0  0  0  0  0  0  0  0  0  0
   27.3234  -10.0332  -16.0868 C   0  0  0  0  0  0  0  0  0  0  0  0
   26.3953  -10.2377  -14.9265 C   0  0  0  0  0  0  0  0  0  0  0  0
   25.0869  -10.6211  -15.5266 C   0  0  1  0  0  0  0  0  0  0  0  0
   24.2680   -9.4793  -15.9976 C   0  0  0  0  0  0  0  0  0  0  0  0
   24.4816   -8.9271  -17.1098 O   0  0  0  0  0  0  0  0  0  0  0  0
   18.1523  -12.8932  -15.1281 O   0  0  0  0  0  0  0  0  0  0  0  0
   18.9836  -11.8426  -15.5568 C   0  0  0  0  0  0  0  0  0  0  0  0
   20.1488  -12.0878  -16.2419 C   0  0  0  0  0  0  0  0  0  0  0  0
   20.9878  -11.0717  -16.6774 C   0  0  0  0  0  0  0  0  0  0  0  0
   20.6355   -9.7695  -16.4102 C   0  0  0  0  0  0  0  0  0  0  0  0
   21.4811   -8.6584  -16.8415 C   0  0  0  0  0  0  0  0  0  0  0  0
   22.2577   -7.9897  -15.7305 C   0  0  2  0  0  0  0  0  0  0  0  0
   23.2212   -8.9720  -15.2173 N   0  0  0  0  0  0  0  0  0  0  0  0
   21.4139   -7.4510  -14.6633 C   0  0  0  0  0  0  0  0  0  0  0  0
   20.5452   -6.3950  -14.8751 O   0  0  0  0  0  0  0  0  0  0  0  0
   19.4703   -9.5087  -15.7243 C   0  0  0  0  0  0  0  0  0  0  0  0
   18.6327  -10.5324  -15.2902 C   0  0  0  0  0  0  0  0  0  0  0  0
   21.4522   -7.9371  -13.5027 O   0  0  0  0  0  0  0  0  0  0  0  0
  2  1  1  1
  3  2  1  0
  3  4  1  0
  4  5  1  0
  5  9  1  0
  5  6  2  0
  7  2  1  0
  7  8  2  0
 10  7  1  0
 11 10  1  0
 12 13  1  0
 12 11  1  0
 13 14  1  0
 14 10  1  0
 15 16  2  0
 14 15  1  6
 18 17  1  0
 19 18  2  0
 20 19  1  0
 21 27  1  0
 21 20  2  0
 23 22  1  6
 22 21  1  0
 23 24  1  0
 24 15  1  0
 25 23  1  0
 26 25  1  0
 27 28  2  0
 28 18  1  0
 29 25  2  0
M  END
$$$$
