EPY.pdb
     RDKit          3D

 29 30  0  0  1  0  0  0  0  0999 V2000
   25.3759  -21.5332  -17.7161 N   0  0  0  0  0  0  0  0  0  0  0  0
   25.5966  -20.3553  -16.8302 C   0  0  1  0  0  0  0  0  0  0  0  0
   24.3343  -19.5345  -17.0011 C   0  0  0  0  0  0  0  0  0  0  0  0
   24.3204  -18.2475  -16.2401 C   0  0  0  0  0  0  0  0  0  0  0  0
   23.0208  -17.5360  -16.3929 C   0  0  0  0  0  0  0  0  0  0  0  0
   22.6771  -17.1609  -17.5348 O   0  0  0  0  0  0  0  0  0  0  0  0
   25.8231  -20.8233  -15.4533 C   0  0  0  0  0  0  0  0  0  0  0  0
   25.0401  -21.7558  -15.0550 O   0  0  0  0  0  0  0  0  0  0  0  0
   22.1895  -17.2786  -15.3246 O   0  0  0  0  0  0  0  0  0  0  0  0
   26.8023  -20.3537  -14.5541 N   0  0  0  0  0  0  0  0  0  0  0  0
   27.7205  -19.2556  -14.7661 C   0  0  0  0  0  0  0  0  0  0  0  0
   28.8985  -19.5240  -13.8542 C   0  0  0  0  0  0  0  0  0  0  0  0
   28.5580  -20.8239  -13.1880 C   0  0  0  0  0  0  0  0  0  0  0  0
   27.0721  -20.9182  -13.2362 C   0  0  1  0  0  0  0  0  0  0  0  0
   26.3732  -20.1705  -12.1645 C   0  0  0  0  0  0  0  0  0  0  0  0
   26.2411  -18.9183  -12.2104 O   0  0  0  0  0  0  0  0  0  0  0  0
   19.9353  -22.7800  -12.7098 O   0  0  0  0  0  0  0  0  0  0  0  0
   20.9379  -21.9401  -12.1925 C   0  0  0  0  0  0  0  0  0  0  0  0
   22.0430  -21.6048  -12.9366 C   0  0  0  0  0  0  0  0  0  0  0  0
   23.0472  -20.7782  -12.4526 C   0  0  0  0  0  0  0  0  0  0  0  0
   22.9279  -20.2772  -11.1775 C   0  0  0  0  0  0  0  0  0  0  0  0
   23.9551  -19.4042  -10.6136 C   0  0  0  0  0  0  0  0  0  0  0  0
   25.1212  -20.1298   -9.9823 C   0  0  2  0  0  0  0  0  0  0  0  0
   25.8315  -20.8350  -11.0568 N   0  0  0  0  0  0  0  0  0  0  0  0
   24.7349  -21.0381   -8.9021 C   0  0  0  0  0  0  0  0  0  0  0  0
   24.9667  -22.4007   -8.9689 O   0  0  0  0  0  0  0  0  0  0  0  0
   21.8255  -20.6048  -10.4201 C   0  0  0  0  0  0  0  0  0  0  0  0
   20.8213  -21.4345  -10.9113 C   0  0  0  0  0  0  0  0  0  0  0  0
   24.1715  -20.6033   -7.8637 O   0  0  0  0  0  0  0  0  0  0  0  0
  2  1  1  6
  3  2  1  0
  3  4  1  0
  4  5  1  0
  5  9  1  0
  5  6  2  0
  7  2  1  0
  7  8  2  0
 10  7  1  0
 11 10  1  0
 12 13  1  0
 12 11  1  0
 13 14  1  0
 14 10  1  0
 15 16  2  0
 14 15  1  1
 18 17  1  0
 19 18  2  0
 20 19  1  0
 21 27  1  0
 21 20  2  0
 23 22  1  6
 22 21  1  0
 23 24  1  0
 24 15  1  0
 25 23  1  0
 26 25  1  0
 27 28  2  0
 28 18  1  0
 29 25  2  0
M  END
$$$$
