EPY.pdb
     RDKit          3D

 29 30  0  0  1  0  0  0  0  0999 V2000
   27.7031  -24.5456  -17.5590 N   0  0  0  0  0  0  0  0  0  0  0  0
   27.0787  -23.1930  -17.5184 C   0  0  1  0  0  0  0  0  0  0  0  0
   25.6078  -23.4680  -17.7577 C   0  0  0  0  0  0  0  0  0  0  0  0
   25.2867  -23.9986  -19.1182 C   0  0  0  0  0  0  0  0  0  0  0  0
   25.0855  -22.8976  -20.1009 C   0  0  0  0  0  0  0  0  0  0  0  0
   24.9335  -21.7340  -19.6698 O   0  0  0  0  0  0  0  0  0  0  0  0
   27.3657  -22.5684  -16.2170 C   0  0  0  0  0  0  0  0  0  0  0  0
   27.8261  -23.3578  -15.3191 O   0  0  0  0  0  0  0  0  0  0  0  0
   25.0612  -23.1166  -21.4611 O   0  0  0  0  0  0  0  0  0  0  0  0
   27.1884  -21.2118  -15.8761 N   0  0  0  0  0  0  0  0  0  0  0  0
   26.6721  -20.1627  -16.7286 C   0  0  0  0  0  0  0  0  0  0  0  0
   27.2243  -18.8696  -16.1679 C   0  0  0  0  0  0  0  0  0  0  0  0
   28.0712  -19.3044  -15.0089 C   0  0  0  0  0  0  0  0  0  0  0  0
   27.5180  -20.6205  -14.5839 C   0  0  1  0  0  0  0  0  0  0  0  0
   26.3311  -20.5328  -13.7009 C   0  0  0  0  0  0  0  0  0  0  0  0
   25.1702  -20.3835  -14.1671 O   0  0  0  0  0  0  0  0  0  0  0  0
   21.8663  -21.2023   -6.0244 O   0  0  0  0  0  0  0  0  0  0  0  0
   22.8615  -21.1455   -7.0167 C   0  0  0  0  0  0  0  0  0  0  0  0
   23.3202  -19.9442   -7.5004 C   0  0  0  0  0  0  0  0  0  0  0  0
   24.3010  -19.8578   -8.4783 C   0  0  0  0  0  0  0  0  0  0  0  0
   24.8319  -21.0227   -8.9808 C   0  0  0  0  0  0  0  0  0  0  0  0
   25.8652  -20.9937  -10.0137 C   0  0  0  0  0  0  0  0  0  0  0  0
   25.3390  -20.9718  -11.4305 C   0  0  2  0  0  0  0  0  0  0  0  0
   26.4604  -20.6139  -12.3085 N   0  0  0  0  0  0  0  0  0  0  0  0
   24.1963  -20.0780  -11.6209 C   0  0  0  0  0  0  0  0  0  0  0  0
   22.8901  -20.5299  -11.5536 O   0  0  0  0  0  0  0  0  0  0  0  0
   24.3817  -22.2341   -8.5054 C   0  0  0  0  0  0  0  0  0  0  0  0
   23.3976  -22.3143   -7.5240 C   0  0  0  0  0  0  0  0  0  0  0  0
   24.3670  -18.8530  -11.8556 O   0  0  0  0  0  0  0  0  0  0  0  0
  2  1  1  1
  3  2  1  0
  3  4  1  0
  4  5  1  0
  5  9  1  0
  5  6  2  0
  7  2  1  0
  7  8  2  0
 10  7  1  0
 11 10  1  0
 12 13  1  0
 12 11  1  0
 13 14  1  0
 14 10  1  0
 15 16  2  0
 14 15  1  1
 18 17  1  0
 19 18  2  0
 20 19  1  0
 21 27  1  0
 21 20  2  0
 23 22  1  1
 22 21  1  0
 23 24  1  0
 24 15  1  0
 25 23  1  0
 26 25  1  0
 27 28  2  0
 28 18  1  0
 29 25  2  0
M  END
$$$$
