EPY.pdb
     RDKit          3D

 29 30  0  0  1  0  0  0  0  0999 V2000
   20.4777  -13.3382  -17.1620 N   0  0  0  0  0  0  0  0  0  0  0  0
   21.5547  -12.3662  -16.8214 C   0  0  1  0  0  0  0  0  0  0  0  0
   22.2406  -12.1092  -18.1480 C   0  0  0  0  0  0  0  0  0  0  0  0
   22.9785  -13.2839  -18.7056 C   0  0  0  0  0  0  0  0  0  0  0  0
   23.7826  -12.9071  -19.9014 C   0  0  0  0  0  0  0  0  0  0  0  0
   24.3919  -13.8078  -20.5182 O   0  0  0  0  0  0  0  0  0  0  0  0
   20.9494  -11.1672  -16.2196 C   0  0  0  0  0  0  0  0  0  0  0  0
   19.7261  -10.9533  -16.5343 O   0  0  0  0  0  0  0  0  0  0  0  0
   23.8772  -11.6072  -20.3485 O   0  0  0  0  0  0  0  0  0  0  0  0
   21.5760  -10.2553  -15.3457 N   0  0  0  0  0  0  0  0  0  0  0  0
   22.9195  -10.3439  -14.8156 C   0  0  0  0  0  0  0  0  0  0  0  0
   22.9087   -9.5393  -13.5335 C   0  0  0  0  0  0  0  0  0  0  0  0
   21.4927   -9.0596  -13.4136 C   0  0  0  0  0  0  0  0  0  0  0  0
   20.9566   -9.0509  -14.8033 C   0  0  1  0  0  0  0  0  0  0  0  0
   21.3116   -7.8476  -15.5921 C   0  0  0  0  0  0  0  0  0  0  0  0
   22.4776   -7.6674  -16.0343 O   0  0  0  0  0  0  0  0  0  0  0  0
   19.1902  -10.1650  -21.0703 O   0  0  0  0  0  0  0  0  0  0  0  0
   19.2942   -9.0263  -20.2512 C   0  0  0  0  0  0  0  0  0  0  0  0
   20.2466   -8.0638  -20.4835 C   0  0  0  0  0  0  0  0  0  0  0  0
   20.3721   -6.9304  -19.6927 C   0  0  0  0  0  0  0  0  0  0  0  0
   19.5076   -6.7680  -18.6356 C   0  0  0  0  0  0  0  0  0  0  0  0
   19.5940   -5.5962  -17.7669 C   0  0  0  0  0  0  0  0  0  0  0  0
   20.6572   -5.6832  -16.6960 C   0  0  2  0  0  0  0  0  0  0  0  0
   20.3563   -6.8630  -15.8751 N   0  0  0  0  0  0  0  0  0  0  0  0
   20.7738   -4.4730  -15.8818 C   0  0  0  0  0  0  0  0  0  0  0  0
   20.5998   -4.4907  -14.5091 O   0  0  0  0  0  0  0  0  0  0  0  0
   18.5479   -7.7247  -18.3908 C   0  0  0  0  0  0  0  0  0  0  0  0
   18.4268   -8.8596  -19.1879 C   0  0  0  0  0  0  0  0  0  0  0  0
   21.0391   -3.3621  -16.4111 O   0  0  0  0  0  0  0  0  0  0  0  0
  2  1  1  6
  3  2  1  0
  3  4  1  0
  4  5  1  0
  5  9  1  0
  5  6  2  0
  7  2  1  0
  7  8  2  0
 10  7  1  0
 11 10  1  0
 12 13  1  0
 12 11  1  0
 13 14  1  0
 14 10  1  0
 15 16  2  0
 14 15  1  6
 18 17  1  0
 19 18  2  0
 20 19  1  0
 21 27  1  0
 21 20  2  0
 23 22  1  6
 22 21  1  0
 23 24  1  0
 24 15  1  0
 25 23  1  0
 26 25  1  0
 27 28  2  0
 28 18  1  0
 29 25  2  0
M  END
$$$$
