EPY.pdb
     RDKit          3D

 29 30  0  0  1  0  0  0  0  0999 V2000
   28.0437  -22.8814  -16.4793 N   0  0  0  0  0  0  0  0  0  0  0  0
   27.8926  -21.7288  -15.5469 C   0  0  1  0  0  0  0  0  0  0  0  0
   27.6141  -20.5563  -16.4657 C   0  0  0  0  0  0  0  0  0  0  0  0
   26.2288  -20.5202  -17.0270 C   0  0  0  0  0  0  0  0  0  0  0  0
   25.6150  -19.1709  -16.8819 C   0  0  0  0  0  0  0  0  0  0  0  0
   26.3427  -18.1655  -17.0321 O   0  0  0  0  0  0  0  0  0  0  0  0
   26.8048  -22.0157  -14.5979 C   0  0  0  0  0  0  0  0  0  0  0  0
   26.0413  -22.9934  -14.9179 O   0  0  0  0  0  0  0  0  0  0  0  0
   24.2802  -18.9940  -16.5892 O   0  0  0  0  0  0  0  0  0  0  0  0
   26.5339  -21.3320  -13.3949 N   0  0  0  0  0  0  0  0  0  0  0  0
   27.2502  -20.1925  -12.8636 C   0  0  0  0  0  0  0  0  0  0  0  0
   27.0071  -20.2153  -11.3697 C   0  0  0  0  0  0  0  0  0  0  0  0
   26.1599  -21.4341  -11.1546 C   0  0  0  0  0  0  0  0  0  0  0  0
   25.4732  -21.6756  -12.4542 C   0  0  1  0  0  0  0  0  0  0  0  0
   24.2593  -20.8536  -12.6706 C   0  0  0  0  0  0  0  0  0  0  0  0
   24.3219  -19.7049  -13.1846 O   0  0  0  0  0  0  0  0  0  0  0  0
   22.2287  -26.7388  -15.7045 O   0  0  0  0  0  0  0  0  0  0  0  0
   22.1544  -25.3685  -15.3964 C   0  0  0  0  0  0  0  0  0  0  0  0
   20.9498  -24.7566  -15.1473 C   0  0  0  0  0  0  0  0  0  0  0  0
   20.8463  -23.4071  -14.8405 C   0  0  0  0  0  0  0  0  0  0  0  0
   21.9970  -22.6562  -14.7849 C   0  0  0  0  0  0  0  0  0  0  0  0
   21.9495  -21.2301  -14.4695 C   0  0  0  0  0  0  0  0  0  0  0  0
   21.7658  -20.9153  -13.0025 C   0  0  2  0  0  0  0  0  0  0  0  0
   22.9923  -21.3291  -12.3090 N   0  0  0  0  0  0  0  0  0  0  0  0
   20.5767  -21.5306  -12.4123 C   0  0  0  0  0  0  0  0  0  0  0  0
   20.6620  -22.5123  -11.4409 O   0  0  0  0  0  0  0  0  0  0  0  0
   23.2116  -23.2561  -15.0324 C   0  0  0  0  0  0  0  0  0  0  0  0
   23.3089  -24.6104  -15.3395 C   0  0  0  0  0  0  0  0  0  0  0  0
   19.4225  -21.1822  -12.7745 O   0  0  0  0  0  0  0  0  0  0  0  0
  2  1  1  6
  3  2  1  0
  3  4  1  0
  4  5  1  0
  5  9  1  0
  5  6  2  0
  7  2  1  0
  7  8  2  0
 10  7  1  0
 11 10  1  0
 12 13  1  0
 12 11  1  0
 13 14  1  0
 14 10  1  0
 15 16  2  0
 14 15  1  6
 18 17  1  0
 19 18  2  0
 20 19  1  0
 21 27  1  0
 21 20  2  0
 23 22  1  6
 22 21  1  0
 23 24  1  0
 24 15  1  0
 25 23  1  0
 26 25  1  0
 27 28  2  0
 28 18  1  0
 29 25  2  0
M  END
$$$$
