EPY.pdb
     RDKit          3D

 29 30  0  0  1  0  0  0  0  0999 V2000
   24.1271  -21.9110  -17.5408 N   0  0  0  0  0  0  0  0  0  0  0  0
   24.6829  -20.6832  -16.9050 C   0  0  1  0  0  0  0  0  0  0  0  0
   23.4810  -19.7694  -16.7749 C   0  0  0  0  0  0  0  0  0  0  0  0
   23.5326  -18.5464  -17.6334 C   0  0  0  0  0  0  0  0  0  0  0  0
   23.0822  -17.3370  -16.8897 C   0  0  0  0  0  0  0  0  0  0  0  0
   23.6306  -16.2425  -17.1433 O   0  0  0  0  0  0  0  0  0  0  0  0
   25.3012  -21.0438  -15.6190 C   0  0  0  0  0  0  0  0  0  0  0  0
   24.7166  -21.9836  -14.9736 O   0  0  0  0  0  0  0  0  0  0  0  0
   22.0877  -17.3831  -15.9371 O   0  0  0  0  0  0  0  0  0  0  0  0
   26.4532  -20.4666  -15.0467 N   0  0  0  0  0  0  0  0  0  0  0  0
   27.2976  -19.4488  -15.6341 C   0  0  0  0  0  0  0  0  0  0  0  0
   28.6491  -19.6038  -14.9703 C   0  0  0  0  0  0  0  0  0  0  0  0
   28.4693  -20.7656  -14.0390 C   0  0  0  0  0  0  0  0  0  0  0  0
   27.0100  -20.8172  -13.7447 C   0  0  1  0  0  0  0  0  0  0  0  0
   26.5625  -19.8819  -12.6858 C   0  0  0  0  0  0  0  0  0  0  0  0
   26.3394  -18.6660  -12.9291 O   0  0  0  0  0  0  0  0  0  0  0  0
   18.8509  -19.4918   -9.3820 O   0  0  0  0  0  0  0  0  0  0  0  0
   20.1288  -19.7655   -9.9018 C   0  0  0  0  0  0  0  0  0  0  0  0
   20.6213  -19.0793  -10.9853 C   0  0  0  0  0  0  0  0  0  0  0  0
   21.8781  -19.3276  -11.5189 C   0  0  0  0  0  0  0  0  0  0  0  0
   22.6580  -20.2997  -10.9378 C   0  0  0  0  0  0  0  0  0  0  0  0
   23.9885  -20.6068  -11.4581 C   0  0  0  0  0  0  0  0  0  0  0  0
   25.1299  -20.0691  -10.6257 C   0  0  2  0  0  0  0  0  0  0  0  0
   26.3708  -20.3210  -11.3695 N   0  0  0  0  0  0  0  0  0  0  0  0
   25.1869  -20.6264   -9.2740 C   0  0  0  0  0  0  0  0  0  0  0  0
   24.8733  -19.8750   -8.1551 O   0  0  0  0  0  0  0  0  0  0  0  0
   22.1773  -20.9957   -9.8511 C   0  0  0  0  0  0  0  0  0  0  0  0
   20.9157  -20.7419   -9.3201 C   0  0  0  0  0  0  0  0  0  0  0  0
   25.5279  -21.8230   -9.0830 O   0  0  0  0  0  0  0  0  0  0  0  0
  2  1  1  1
  3  2  1  0
  3  4  1  0
  4  5  1  0
  5  9  1  0
  5  6  2  0
  7  2  1  0
  7  8  2  0
 10  7  1  0
 11 10  1  0
 12 13  1  0
 12 11  1  0
 13 14  1  0
 14 10  1  0
 15 16  2  0
 14 15  1  1
 18 17  1  0
 19 18  2  0
 20 19  1  0
 21 27  1  0
 21 20  2  0
 23 22  1  6
 22 21  1  0
 23 24  1  0
 24 15  1  0
 25 23  1  0
 26 25  1  0
 27 28  2  0
 28 18  1  0
 29 25  2  0
M  END
$$$$
