EPY.pdb
     RDKit          3D

 29 30  0  0  1  0  0  0  0  0999 V2000
   31.4079  -12.3668  -21.4437 N   0  0  0  0  0  0  0  0  0  0  0  0
   30.8685  -11.0214  -21.0979 C   0  0  1  0  0  0  0  0  0  0  0  0
   29.7368  -11.3234  -20.1362 C   0  0  0  0  0  0  0  0  0  0  0  0
   28.4896  -11.8347  -20.7831 C   0  0  0  0  0  0  0  0  0  0  0  0
   27.3852  -11.9888  -19.7955 C   0  0  0  0  0  0  0  0  0  0  0  0
   26.6915  -10.9871  -19.5157 O   0  0  0  0  0  0  0  0  0  0  0  0
   31.9457  -10.2052  -20.5153 C   0  0  0  0  0  0  0  0  0  0  0  0
   32.9210  -10.8642  -20.0095 O   0  0  0  0  0  0  0  0  0  0  0  0
   27.1039  -13.1907  -19.1833 O   0  0  0  0  0  0  0  0  0  0  0  0
   32.0041   -8.7973  -20.4671 N   0  0  0  0  0  0  0  0  0  0  0  0
   31.0611   -7.8687  -21.0523 C   0  0  0  0  0  0  0  0  0  0  0  0
   31.8291   -6.5812  -21.2613 C   0  0  0  0  0  0  0  0  0  0  0  0
   33.2155   -6.8999  -20.7860 C   0  0  0  0  0  0  0  0  0  0  0  0
   33.0564   -8.0220  -19.8193 C   0  0  1  0  0  0  0  0  0  0  0  0
   32.6688   -7.6050  -18.4511 C   0  0  0  0  0  0  0  0  0  0  0  0
   31.5332   -7.8726  -17.9754 O   0  0  0  0  0  0  0  0  0  0  0  0
   38.0781  -10.9253  -15.1566 O   0  0  0  0  0  0  0  0  0  0  0  0
   36.8644  -10.2230  -15.2665 C   0  0  0  0  0  0  0  0  0  0  0  0
   35.9827  -10.4763  -16.2892 C   0  0  0  0  0  0  0  0  0  0  0  0
   34.7784   -9.7998  -16.4224 C   0  0  0  0  0  0  0  0  0  0  0  0
   34.4588   -8.8384  -15.4924 C   0  0  0  0  0  0  0  0  0  0  0  0
   33.2059   -8.0917  -15.5832 C   0  0  0  0  0  0  0  0  0  0  0  0
   33.3359   -6.7152  -16.1940 C   0  0  2  0  0  0  0  0  0  0  0  0
   33.5580   -6.8947  -17.6345 N   0  0  0  0  0  0  0  0  0  0  0  0
   34.3832   -5.8960  -15.5831 C   0  0  0  0  0  0  0  0  0  0  0  0
   34.2038   -5.2599  -14.3674 O   0  0  0  0  0  0  0  0  0  0  0  0
   35.3331   -8.5738  -14.4620 C   0  0  0  0  0  0  0  0  0  0  0  0
   36.5397   -9.2561  -14.3335 C   0  0  0  0  0  0  0  0  0  0  0  0
   35.4956   -5.7412  -16.1517 O   0  0  0  0  0  0  0  0  0  0  0  0
  2  1  1  1
  3  2  1  0
  3  4  1  0
  4  5  1  0
  5  9  1  0
  5  6  2  0
  7  2  1  0
  7  8  2  0
 10  7  1  0
 11 10  1  0
 12 13  1  0
 12 11  1  0
 13 14  1  0
 14 10  1  0
 15 16  2  0
 14 15  1  1
 18 17  1  0
 19 18  2  0
 20 19  1  0
 21 27  1  0
 21 20  2  0
 23 22  1  1
 22 21  1  0
 23 24  1  0
 24 15  1  0
 25 23  1  0
 26 25  1  0
 27 28  2  0
 28 18  1  0
 29 25  2  0
M  END
$$$$
