EPY.pdb
     RDKit          3D

 29 30  0  0  1  0  0  0  0  0999 V2000
   27.3124  -21.5732  -15.6196 N   0  0  0  0  0  0  0  0  0  0  0  0
   26.9615  -20.7234  -14.4468 C   0  0  1  0  0  0  0  0  0  0  0  0
   26.8437  -19.3310  -15.0334 C   0  0  0  0  0  0  0  0  0  0  0  0
   28.1049  -18.8002  -15.6359 C   0  0  0  0  0  0  0  0  0  0  0  0
   28.3173  -19.3276  -17.0125 C   0  0  0  0  0  0  0  0  0  0  0  0
   27.5113  -18.9964  -17.9089 O   0  0  0  0  0  0  0  0  0  0  0  0
   25.7164  -21.2247  -13.8433 C   0  0  0  0  0  0  0  0  0  0  0  0
   25.0659  -22.0717  -14.5511 O   0  0  0  0  0  0  0  0  0  0  0  0
   29.3659  -20.1634  -17.3299 O   0  0  0  0  0  0  0  0  0  0  0  0
   25.1873  -20.8702  -12.5854 N   0  0  0  0  0  0  0  0  0  0  0  0
   25.7486  -19.9275  -11.6419 C   0  0  0  0  0  0  0  0  0  0  0  0
   25.2071  -20.3312  -10.2872 C   0  0  0  0  0  0  0  0  0  0  0  0
   24.3678  -21.5409  -10.5734 C   0  0  0  0  0  0  0  0  0  0  0  0
   23.9671  -21.4178  -12.0028 C   0  0  1  0  0  0  0  0  0  0  0  0
   22.8005  -20.5356  -12.2409 C   0  0  0  0  0  0  0  0  0  0  0  0
   22.8062  -19.3243  -11.8944 O   0  0  0  0  0  0  0  0  0  0  0  0
   24.6826  -17.4426  -17.1555 O   0  0  0  0  0  0  0  0  0  0  0  0
   23.6011  -18.0862  -16.5273 C   0  0  0  0  0  0  0  0  0  0  0  0
   22.5369  -17.3737  -16.0300 C   0  0  0  0  0  0  0  0  0  0  0  0
   21.4566  -17.9816  -15.4063 C   0  0  0  0  0  0  0  0  0  0  0  0
   21.4550  -19.3513  -15.2827 C   0  0  0  0  0  0  0  0  0  0  0  0
   20.3459  -20.0462  -14.6327 C   0  0  0  0  0  0  0  0  0  0  0  0
   20.4753  -20.1737  -13.1321 C   0  0  2  0  0  0  0  0  0  0  0  0
   21.6439  -21.0216  -12.8640 N   0  0  0  0  0  0  0  0  0  0  0  0
   19.2718  -20.6887  -12.4786 C   0  0  0  0  0  0  0  0  0  0  0  0
   19.2682  -21.8833  -11.7801 O   0  0  0  0  0  0  0  0  0  0  0  0
   22.5151  -20.0784  -15.7764 C   0  0  0  0  0  0  0  0  0  0  0  0
   23.5960  -19.4628  -16.4014 C   0  0  0  0  0  0  0  0  0  0  0  0
   18.1863  -20.0534  -12.5319 O   0  0  0  0  0  0  0  0  0  0  0  0
  2  1  1  6
  3  2  1  0
  3  4  1  0
  4  5  1  0
  5  9  1  0
  5  6  2  0
  7  2  1  0
  7  8  2  0
 10  7  1  0
 11 10  1  0
 12 13  1  0
 12 11  1  0
 13 14  1  0
 14 10  1  0
 15 16  2  0
 14 15  1  1
 18 17  1  0
 19 18  2  0
 20 19  1  0
 21 27  1  0
 21 20  2  0
 23 22  1  6
 22 21  1  0
 23 24  1  0
 24 15  1  0
 25 23  1  0
 26 25  1  0
 27 28  2  0
 28 18  1  0
 29 25  2  0
M  END
$$$$
