EPY.pdb
     RDKit          3D

 29 30  0  0  1  0  0  0  0  0999 V2000
   23.9861  -19.0679  -19.9251 N   0  0  0  0  0  0  0  0  0  0  0  0
   24.6546  -18.3595  -18.7972 C   0  0  1  0  0  0  0  0  0  0  0  0
   23.5089  -17.9810  -17.8802 C   0  0  0  0  0  0  0  0  0  0  0  0
   22.6953  -19.1359  -17.3908 C   0  0  0  0  0  0  0  0  0  0  0  0
   22.4709  -19.0624  -15.9201 C   0  0  0  0  0  0  0  0  0  0  0  0
   22.2500  -20.1235  -15.2970 O   0  0  0  0  0  0  0  0  0  0  0  0
   25.6417  -19.2596  -18.1797 C   0  0  0  0  0  0  0  0  0  0  0  0
   25.5744  -20.4843  -18.5499 O   0  0  0  0  0  0  0  0  0  0  0  0
   22.4982  -17.8718  -15.2271 O   0  0  0  0  0  0  0  0  0  0  0  0
   26.6343  -18.9061  -17.2429 N   0  0  0  0  0  0  0  0  0  0  0  0
   26.7839  -17.6307  -16.5760 C   0  0  0  0  0  0  0  0  0  0  0  0
   28.2432  -17.5414  -16.1840 C   0  0  0  0  0  0  0  0  0  0  0  0
   28.8418  -18.8136  -16.7063 C   0  0  0  0  0  0  0  0  0  0  0  0
   27.7113  -19.7799  -16.7903 C   0  0  1  0  0  0  0  0  0  0  0  0
   27.3762  -20.4474  -15.5104 C   0  0  0  0  0  0  0  0  0  0  0  0
   28.2393  -20.6189  -14.6086 O   0  0  0  0  0  0  0  0  0  0  0  0
   23.3897  -21.0590   -7.9341 O   0  0  0  0  0  0  0  0  0  0  0  0
   24.0089  -20.8631   -9.1817 C   0  0  0  0  0  0  0  0  0  0  0  0
   25.3711  -20.9661   -9.3271 C   0  0  0  0  0  0  0  0  0  0  0  0
   26.0091  -20.7787  -10.5452 C   0  0  0  0  0  0  0  0  0  0  0  0
   25.2441  -20.4779  -11.6477 C   0  0  0  0  0  0  0  0  0  0  0  0
   25.8607  -20.2671  -12.9557 C   0  0  0  0  0  0  0  0  0  0  0  0
   25.6578  -21.3984  -13.9374 C   0  0  2  0  0  0  0  0  0  0  0  0
   26.0795  -20.9132  -15.2577 N   0  0  0  0  0  0  0  0  0  0  0  0
   24.2902  -21.9179  -13.9633 C   0  0  0  0  0  0  0  0  0  0  0  0
   23.8475  -22.8686  -13.0607 O   0  0  0  0  0  0  0  0  0  0  0  0
   23.8774  -20.3715  -11.5169 C   0  0  0  0  0  0  0  0  0  0  0  0
   23.2432  -20.5609  -10.2922 C   0  0  0  0  0  0  0  0  0  0  0  0
   23.4616  -21.5115  -14.8195 O   0  0  0  0  0  0  0  0  0  0  0  0
  2  1  1  6
  3  2  1  0
  3  4  1  0
  4  5  1  0
  5  9  1  0
  5  6  2  0
  7  2  1  0
  7  8  2  0
 10  7  1  0
 11 10  1  0
 12 13  1  0
 12 11  1  0
 13 14  1  0
 14 10  1  0
 15 16  2  0
 14 15  1  1
 18 17  1  0
 19 18  2  0
 20 19  1  0
 21 27  1  0
 21 20  2  0
 23 22  1  1
 22 21  1  0
 23 24  1  0
 24 15  1  0
 25 23  1  0
 26 25  1  0
 27 28  2  0
 28 18  1  0
 29 25  2  0
M  END
$$$$
