EPY.pdb
     RDKit          3D

 29 30  0  0  1  0  0  0  0  0999 V2000
   25.6279  -20.2741  -17.9750 N   0  0  0  0  0  0  0  0  0  0  0  0
   26.3614  -19.5773  -16.8808 C   0  0  1  0  0  0  0  0  0  0  0  0
   25.6140  -18.2685  -16.7227 C   0  0  0  0  0  0  0  0  0  0  0  0
   24.1411  -18.3595  -16.9626 C   0  0  0  0  0  0  0  0  0  0  0  0
   23.4883  -17.0239  -16.8685 C   0  0  0  0  0  0  0  0  0  0  0  0
   23.4407  -16.3100  -17.8937 O   0  0  0  0  0  0  0  0  0  0  0  0
   26.3471  -20.4227  -15.6762 C   0  0  0  0  0  0  0  0  0  0  0  0
   25.5330  -21.4115  -15.7094 O   0  0  0  0  0  0  0  0  0  0  0  0
   22.9384  -16.5512  -15.6968 O   0  0  0  0  0  0  0  0  0  0  0  0
   27.1312  -20.2512  -14.5170 N   0  0  0  0  0  0  0  0  0  0  0  0
   28.0697  -19.1816  -14.2541 C   0  0  0  0  0  0  0  0  0  0  0  0
   29.0488  -19.7347  -13.2408 C   0  0  0  0  0  0  0  0  0  0  0  0
   28.5892  -21.1450  -13.0188 C   0  0  0  0  0  0  0  0  0  0  0  0
   27.1415  -21.1514  -13.3691 C   0  0  1  0  0  0  0  0  0  0  0  0
   26.2451  -20.6752  -12.2893 C   0  0  0  0  0  0  0  0  0  0  0  0
   25.9182  -19.4626  -12.1884 O   0  0  0  0  0  0  0  0  0  0  0  0
   28.7585  -19.8430   -5.5938 O   0  0  0  0  0  0  0  0  0  0  0  0
   27.8298  -19.8433   -6.6501 C   0  0  0  0  0  0  0  0  0  0  0  0
   27.4867  -21.0045   -7.2992 C   0  0  0  0  0  0  0  0  0  0  0  0
   26.5736  -21.0351   -8.3438 C   0  0  0  0  0  0  0  0  0  0  0  0
   25.9916  -19.8545   -8.7420 C   0  0  0  0  0  0  0  0  0  0  0  0
   25.0253  -19.8248   -9.8378 C   0  0  0  0  0  0  0  0  0  0  0  0
   24.6656  -21.1821  -10.3973 C   0  0  2  0  0  0  0  0  0  0  0  0
   25.7270  -21.5632  -11.3379 N   0  0  0  0  0  0  0  0  0  0  0  0
   23.3444  -21.2297  -11.0243 C   0  0  0  0  0  0  0  0  0  0  0  0
   22.1799  -21.0427  -10.3007 O   0  0  0  0  0  0  0  0  0  0  0  0
   26.3259  -18.6828   -8.1004 C   0  0  0  0  0  0  0  0  0  0  0  0
   27.2426  -18.6586   -7.0530 C   0  0  0  0  0  0  0  0  0  0  0  0
   23.2232  -21.4457  -12.2586 O   0  0  0  0  0  0  0  0  0  0  0  0
  2  1  1  6
  3  2  1  0
  3  4  1  0
  4  5  1  0
  5  9  1  0
  5  6  2  0
  7  2  1  0
  7  8  2  0
 10  7  1  0
 11 10  1  0
 12 13  1  0
 12 11  1  0
 13 14  1  0
 14 10  1  0
 15 16  2  0
 14 15  1  1
 18 17  1  0
 19 18  2  0
 20 19  1  0
 21 27  1  0
 21 20  2  0
 23 22  1  6
 22 21  1  0
 23 24  1  0
 24 15  1  0
 25 23  1  0
 26 25  1  0
 27 28  2  0
 28 18  1  0
 29 25  2  0
M  END
$$$$
