NVP.pdb
     RDKit          3D

 23 23  0  0  1  0  0  0  0  0999 V2000
   24.4336  -11.6966  -18.2271 N   0  0  0  0  0  0  0  0  0  0  0  0
   24.2342  -10.4275  -18.7715 C   0  0  0  0  0  0  0  0  0  0  0  0
   25.0572  -10.0147  -19.6365 O   0  0  0  0  0  0  0  0  0  0  0  0
   23.1357   -9.5040  -18.4288 C   0  0  0  0  0  0  0  0  0  0  0  0
   22.2881   -9.9752  -17.2830 C   0  0  2  0  0  0  0  0  0  0  0  0
   21.5347  -11.1767  -17.6182 N   0  0  0  0  0  0  0  0  0  0  0  0
   21.3811   -8.9520  -16.7559 C   0  0  0  0  0  0  0  0  0  0  0  0
   20.3434   -8.6341  -17.3836 O   0  0  0  0  0  0  0  0  0  0  0  0
   19.4043   -6.7680  -12.8915 C   0  0  0  0  0  0  0  0  0  0  0  0
   20.2545   -7.7984  -13.5984 C   0  0  1  0  0  0  0  0  0  0  0  0
   19.4133   -9.0694  -13.8154 C   0  0  0  0  0  0  0  0  0  0  0  0
   20.7425   -7.2838  -14.9548 C   0  0  2  0  0  0  0  0  0  0  0  0
   21.6353   -8.2872  -15.5303 N   0  0  0  0  0  0  0  0  0  0  0  0
   21.5506   -6.0743  -14.6694 C   0  0  0  0  0  0  0  0  0  0  0  0
   22.6630   -6.2605  -14.0551 O   0  0  0  0  0  0  0  0  0  0  0  0
   21.1332   -4.7958  -15.0461 N   0  0  0  0  0  0  0  0  0  0  0  0
   19.8199   -4.5081  -15.6469 C   0  0  0  0  0  0  0  0  0  0  0  0
   20.0076   -3.1782  -16.3286 C   0  0  0  0  0  0  0  0  0  0  0  0
   21.5019   -2.9029  -16.2551 C   0  0  0  0  0  0  0  0  0  0  0  0
   21.8250   -3.5451  -14.9082 C   0  0  1  0  0  0  0  0  0  0  0  0
   21.1897   -2.7691  -13.8040 C   0  0  0  0  0  0  0  0  0  0  0  0
   20.0529   -3.1145  -13.4122 O   0  0  0  0  0  0  0  0  0  0  0  0
   21.8116   -1.6855  -13.2012 O   0  0  0  0  0  0  0  0  0  0  0  0
  1  2  1  0
  2  3  2  0
  4  2  1  0
  4  5  1  0
  5  6  1  6
  7  5  1  0
  7  8  2  0
 10  9  1  6
 10 11  1  0
 10 12  1  0
 12 13  1  1
 13  7  1  0
 14 12  1  0
 15 14  2  0
 16 14  1  0
 16 17  1  0
 18 17  1  0
 19 18  1  0
 19 20  1  0
 20 16  1  0
 20 21  1  1
 21 23  1  0
 22 21  2  0
M  END
$$$$
