NVP.pdb
     RDKit          3D

 23 23  0  0  1  0  0  0  0  0999 V2000
   27.5586  -12.5020  -15.5923 N   0  0  0  0  0  0  0  0  0  0  0  0
   27.5054  -11.4213  -16.4730 C   0  0  0  0  0  0  0  0  0  0  0  0
   28.5859  -11.0222  -16.9918 O   0  0  0  0  0  0  0  0  0  0  0  0
   26.2877  -10.6858  -16.8645 C   0  0  0  0  0  0  0  0  0  0  0  0
   25.0602  -11.1089  -16.1111 C   0  0  2  0  0  0  0  0  0  0  0  0
   24.7318  -12.5095  -16.3433 N   0  0  0  0  0  0  0  0  0  0  0  0
   23.8852  -10.2738  -16.3743 C   0  0  0  0  0  0  0  0  0  0  0  0
   23.0212  -10.6322  -17.2092 O   0  0  0  0  0  0  0  0  0  0  0  0
   21.0274  -10.2883  -15.6464 C   0  0  0  0  0  0  0  0  0  0  0  0
   21.3415   -8.9267  -15.0704 C   0  0  1  0  0  0  0  0  0  0  0  0
   21.7748   -9.0981  -13.6032 C   0  0  0  0  0  0  0  0  0  0  0  0
   22.4664   -8.2381  -15.8472 C   0  0  2  0  0  0  0  0  0  0  0  0
   23.6785   -9.0417  -15.7051 N   0  0  0  0  0  0  0  0  0  0  0  0
   22.7036   -6.9430  -15.1663 C   0  0  0  0  0  0  0  0  0  0  0  0
   23.5747   -6.9431  -14.2226 O   0  0  0  0  0  0  0  0  0  0  0  0
   22.0216   -5.7784  -15.5260 N   0  0  0  0  0  0  0  0  0  0  0  0
   20.8522   -5.7588  -16.4209 C   0  0  0  0  0  0  0  0  0  0  0  0
   20.7851   -4.3364  -16.9117 C   0  0  0  0  0  0  0  0  0  0  0  0
   22.0739   -3.6892  -16.4278 C   0  0  0  0  0  0  0  0  0  0  0  0
   22.2617   -4.4270  -15.1043 C   0  0  1  0  0  0  0  0  0  0  0  0
   21.1937   -4.0322  -14.1406 C   0  0  0  0  0  0  0  0  0  0  0  0
   21.3113   -2.9431  -13.5364 O   0  0  0  0  0  0  0  0  0  0  0  0
   20.0830   -4.8255  -13.8934 O   0  0  0  0  0  0  0  0  0  0  0  0
  1  2  1  0
  2  3  2  0
  4  2  1  0
  4  5  1  0
  5  6  1  6
  7  5  1  0
  7  8  2  0
 10  9  1  6
 10 11  1  0
 10 12  1  0
 12 13  1  1
 13  7  1  0
 14 12  1  0
 15 14  2  0
 16 14  1  0
 16 17  1  0
 18 17  1  0
 19 18  1  0
 19 20  1  0
 20 16  1  0
 20 21  1  1
 21 23  1  0
 22 21  2  0
M  END
$$$$
