NVP.pdb
     RDKit          3D

 23 23  0  0  1  0  0  0  0  0999 V2000
   23.0980  -21.6425  -11.8115 N   0  0  0  0  0  0  0  0  0  0  0  0
   23.4211  -20.9811  -10.6263 C   0  0  0  0  0  0  0  0  0  0  0  0
   22.5627  -20.2000  -10.1273 O   0  0  0  0  0  0  0  0  0  0  0  0
   24.6909  -21.1075   -9.8856 C   0  0  0  0  0  0  0  0  0  0  0  0
   25.6089  -19.9325  -10.0591 C   0  0  2  0  0  0  0  0  0  0  0  0
   26.0518  -19.7839  -11.4394 N   0  0  0  0  0  0  0  0  0  0  0  0
   26.7697  -19.9494   -9.1649 C   0  0  0  0  0  0  0  0  0  0  0  0
   27.8166  -20.5583   -9.4892 O   0  0  0  0  0  0  0  0  0  0  0  0
   28.8108  -17.9595   -5.0408 C   0  0  0  0  0  0  0  0  0  0  0  0
   27.7550  -17.9910   -6.1219 C   0  0  1  0  0  0  0  0  0  0  0  0
   27.8837  -16.7170   -6.9765 C   0  0  0  0  0  0  0  0  0  0  0  0
   27.9164  -19.2171   -7.0240 C   0  0  2  0  0  0  0  0  0  0  0  0
   26.7581  -19.2870   -7.9120 N   0  0  0  0  0  0  0  0  0  0  0  0
   27.8672  -20.3966   -6.1276 C   0  0  0  0  0  0  0  0  0  0  0  0
   26.7044  -20.8879   -5.8907 O   0  0  0  0  0  0  0  0  0  0  0  0
   29.0193  -20.9524   -5.5668 N   0  0  0  0  0  0  0  0  0  0  0  0
   30.3733  -20.4131   -5.7772 C   0  0  0  0  0  0  0  0  0  0  0  0
   31.2864  -21.5633   -5.4427 C   0  0  0  0  0  0  0  0  0  0  0  0
   30.3669  -22.7637   -5.2771 C   0  0  0  0  0  0  0  0  0  0  0  0
   29.1384  -22.0783   -4.6836 C   0  0  1  0  0  0  0  0  0  0  0  0
   29.4430  -21.5770   -3.3120 C   0  0  0  0  0  0  0  0  0  0  0  0
   29.5497  -22.4099   -2.3847 O   0  0  0  0  0  0  0  0  0  0  0  0
   29.6107  -20.2288   -3.0317 O   0  0  0  0  0  0  0  0  0  0  0  0
  1  2  1  0
  2  3  2  0
  4  2  1  0
  4  5  1  0
  5  6  1  6
  7  5  1  0
  7  8  2  0
 10  9  1  1
 10 11  1  0
 10 12  1  0
 12 13  1  6
 13  7  1  0
 14 12  1  0
 15 14  2  0
 16 14  1  0
 16 17  1  0
 18 17  1  0
 19 18  1  0
 19 20  1  0
 20 16  1  0
 20 21  1  1
 21 23  1  0
 22 21  2  0
M  END
$$$$
