NVP.pdb
     RDKit          3D

 23 23  0  0  1  0  0  0  0  0999 V2000
   20.0196  -23.4369  -14.0468 N   0  0  0  0  0  0  0  0  0  0  0  0
   19.7187  -22.1050  -14.3331 C   0  0  0  0  0  0  0  0  0  0  0  0
   18.8091  -21.8683  -15.1772 O   0  0  0  0  0  0  0  0  0  0  0  0
   20.3714  -20.9247  -13.7349 C   0  0  0  0  0  0  0  0  0  0  0  0
   21.3764  -21.2656  -12.6732 C   0  0  2  0  0  0  0  0  0  0  0  0
   20.7824  -21.2799  -11.3426 N   0  0  0  0  0  0  0  0  0  0  0  0
   22.5608  -20.4027  -12.6784 C   0  0  0  0  0  0  0  0  0  0  0  0
   22.5023  -19.2354  -12.2244 O   0  0  0  0  0  0  0  0  0  0  0  0
   25.8624  -20.8723  -10.9793 C   0  0  0  0  0  0  0  0  0  0  0  0
   26.1199  -20.8046  -12.4671 C   0  0  1  0  0  0  0  0  0  0  0  0
   26.1736  -22.2382  -13.0256 C   0  0  0  0  0  0  0  0  0  0  0  0
   25.0169  -20.0272  -13.1895 C   0  0  2  0  0  0  0  0  0  0  0  0
   23.8061  -20.8452  -13.1901 N   0  0  0  0  0  0  0  0  0  0  0  0
   25.4653  -19.8875  -14.5955 C   0  0  0  0  0  0  0  0  0  0  0  0
   25.0201  -20.7583  -15.4279 O   0  0  0  0  0  0  0  0  0  0  0  0
   26.3254  -18.8653  -15.0031 N   0  0  0  0  0  0  0  0  0  0  0  0
   27.1708  -18.0907  -14.0791 C   0  0  0  0  0  0  0  0  0  0  0  0
   27.5014  -16.8355  -14.8432 C   0  0  0  0  0  0  0  0  0  0  0  0
   26.6236  -16.8849  -16.0847 C   0  0  0  0  0  0  0  0  0  0  0  0
   26.5957  -18.3914  -16.3313 C   0  0  1  0  0  0  0  0  0  0  0  0
   27.9480  -18.8694  -16.7411 C   0  0  0  0  0  0  0  0  0  0  0  0
   28.5881  -19.5941  -15.9473 O   0  0  0  0  0  0  0  0  0  0  0  0
   28.5159  -18.5403  -17.9632 O   0  0  0  0  0  0  0  0  0  0  0  0
  1  2  1  0
  2  3  2  0
  4  2  1  0
  4  5  1  0
  5  6  1  1
  7  5  1  0
  7  8  2  0
 10  9  1  1
 10 11  1  0
 10 12  1  0
 12 13  1  6
 13  7  1  0
 14 12  1  0
 15 14  2  0
 16 14  1  0
 16 17  1  0
 18 17  1  0
 19 18  1  0
 19 20  1  0
 20 16  1  0
 20 21  1  1
 21 23  1  0
 22 21  2  0
M  END
$$$$
