NVP.pdb
     RDKit          3D

 23 23  0  0  1  0  0  0  0  0999 V2000
   25.9383  -19.0179  -14.1352 N   0  0  0  0  0  0  0  0  0  0  0  0
   26.8476  -18.0092  -14.4549 C   0  0  0  0  0  0  0  0  0  0  0  0
   28.0623  -18.1861  -14.1564 O   0  0  0  0  0  0  0  0  0  0  0  0
   26.5225  -16.7328  -15.1198 C   0  0  0  0  0  0  0  0  0  0  0  0
   25.0915  -16.6313  -15.5619 C   0  0  2  0  0  0  0  0  0  0  0  0
   24.7064  -17.7396  -16.4261 N   0  0  0  0  0  0  0  0  0  0  0  0
   24.7592  -15.3592  -16.2088 C   0  0  0  0  0  0  0  0  0  0  0  0
   25.2968  -15.0353  -17.2943 O   0  0  0  0  0  0  0  0  0  0  0  0
   21.4232  -12.0190  -17.2386 C   0  0  0  0  0  0  0  0  0  0  0  0
   21.9324  -13.3005  -16.6198 C   0  0  1  0  0  0  0  0  0  0  0  0
   21.7146  -14.4524  -17.6175 C   0  0  0  0  0  0  0  0  0  0  0  0
   23.4228  -13.2044  -16.2841 C   0  0  2  0  0  0  0  0  0  0  0  0
   23.8283  -14.4530  -15.6424 N   0  0  0  0  0  0  0  0  0  0  0  0
   23.5493  -12.1214  -15.2799 C   0  0  0  0  0  0  0  0  0  0  0  0
   23.0558  -12.3573  -14.1179 O   0  0  0  0  0  0  0  0  0  0  0  0
   24.1720  -10.9059  -15.5723 N   0  0  0  0  0  0  0  0  0  0  0  0
   24.6396  -10.5292  -16.9169 C   0  0  0  0  0  0  0  0  0  0  0  0
   25.6504   -9.4410  -16.6664 C   0  0  0  0  0  0  0  0  0  0  0  0
   25.8535   -9.4287  -15.1588 C   0  0  0  0  0  0  0  0  0  0  0  0
   24.4464   -9.8008  -14.6975 C   0  0  1  0  0  0  0  0  0  0  0  0
   23.4942   -8.6966  -15.0125 C   0  0  0  0  0  0  0  0  0  0  0  0
   22.8477   -8.7561  -16.0819 O   0  0  0  0  0  0  0  0  0  0  0  0
   23.3026   -7.6141  -14.1666 O   0  0  0  0  0  0  0  0  0  0  0  0
  1  2  1  0
  2  3  2  0
  4  2  1  0
  4  5  1  0
  5  6  1  6
  7  5  1  0
  7  8  2  0
 10  9  1  6
 10 11  1  0
 10 12  1  0
 12 13  1  1
 13  7  1  0
 14 12  1  0
 15 14  2  0
 16 14  1  0
 16 17  1  0
 18 17  1  0
 19 18  1  0
 19 20  1  0
 20 16  1  0
 20 21  1  6
 21 23  1  0
 22 21  2  0
M  END
$$$$
