NVP.pdb
     RDKit          3D

 23 23  0  0  1  0  0  0  0  0999 V2000
   18.4759  -20.8716  -14.8566 N   0  0  0  0  0  0  0  0  0  0  0  0
   18.8175  -19.5703  -14.4871 C   0  0  0  0  0  0  0  0  0  0  0  0
   17.9052  -18.6965  -14.4732 O   0  0  0  0  0  0  0  0  0  0  0  0
   20.1650  -19.1072  -14.1041 C   0  0  0  0  0  0  0  0  0  0  0  0
   21.1785  -20.2110  -14.0148 C   0  0  2  0  0  0  0  0  0  0  0  0
   20.8999  -21.1209  -12.9112 N   0  0  0  0  0  0  0  0  0  0  0  0
   22.5634  -19.7395  -13.9314 C   0  0  0  0  0  0  0  0  0  0  0  0
   22.9436  -19.0437  -12.9602 O   0  0  0  0  0  0  0  0  0  0  0  0
   27.2525  -20.6017  -14.9469 C   0  0  0  0  0  0  0  0  0  0  0  0
   25.7772  -20.9283  -14.9106 C   0  0  1  0  0  0  0  0  0  0  0  0
   25.4904  -21.7840  -13.6634 C   0  0  0  0  0  0  0  0  0  0  0  0
   24.9256  -19.6578  -14.8523 C   0  0  2  0  0  0  0  0  0  0  0  0
   23.5192  -20.0460  -14.9320 N   0  0  0  0  0  0  0  0  0  0  0  0
   25.2495  -18.8889  -16.0775 C   0  0  0  0  0  0  0  0  0  0  0  0
   24.7177  -19.3028  -17.1709 O   0  0  0  0  0  0  0  0  0  0  0  0
   26.0866  -17.7711  -16.0539 N   0  0  0  0  0  0  0  0  0  0  0  0
   26.9091  -17.3898  -14.8934 C   0  0  0  0  0  0  0  0  0  0  0  0
   27.2129  -15.9317  -15.1176 C   0  0  0  0  0  0  0  0  0  0  0  0
   26.3422  -15.5224  -16.2959 C   0  0  0  0  0  0  0  0  0  0  0  0
   26.3515  -16.8216  -17.0979 C   0  0  1  0  0  0  0  0  0  0  0  0
   27.7167  -17.0797  -17.6409 C   0  0  0  0  0  0  0  0  0  0  0  0
   28.3732  -18.0346  -17.1694 O   0  0  0  0  0  0  0  0  0  0  0  0
   28.2789  -16.3029  -18.6432 O   0  0  0  0  0  0  0  0  0  0  0  0
  1  2  1  0
  2  3  2  0
  4  2  1  0
  4  5  1  0
  5  6  1  1
  7  5  1  0
  7  8  2  0
 10  9  1  1
 10 11  1  0
 10 12  1  0
 12 13  1  6
 13  7  1  0
 14 12  1  0
 15 14  2  0
 16 14  1  0
 16 17  1  0
 18 17  1  0
 19 18  1  0
 19 20  1  0
 20 16  1  0
 20 21  1  1
 21 23  1  0
 22 21  2  0
M  END
$$$$
