NVP.pdb
     RDKit          3D

 23 23  0  0  1  0  0  0  0  0999 V2000
   20.9799  -16.2252  -19.5049 N   0  0  0  0  0  0  0  0  0  0  0  0
   20.6389  -16.2477  -18.1522 C   0  0  0  0  0  0  0  0  0  0  0  0
   19.8288  -17.1329  -17.7571 O   0  0  0  0  0  0  0  0  0  0  0  0
   21.1417  -15.3215  -17.1196 C   0  0  0  0  0  0  0  0  0  0  0  0
   22.6054  -15.4821  -16.8277 C   0  0  2  0  0  0  0  0  0  0  0  0
   22.9084  -16.7867  -16.2535 N   0  0  0  0  0  0  0  0  0  0  0  0
   23.1603  -14.4252  -15.9778 C   0  0  0  0  0  0  0  0  0  0  0  0
   22.8228  -14.3308  -14.7739 O   0  0  0  0  0  0  0  0  0  0  0  0
   26.7902  -11.1813  -15.1885 C   0  0  0  0  0  0  0  0  0  0  0  0
   26.1622  -12.4012  -15.8224 C   0  0  1  0  0  0  0  0  0  0  0  0
   26.7244  -13.6598  -15.1369 C   0  0  0  0  0  0  0  0  0  0  0  0
   24.6391  -12.3871  -15.6711 C   0  0  2  0  0  0  0  0  0  0  0  0
   24.0898  -13.4774  -16.4741 N   0  0  0  0  0  0  0  0  0  0  0  0
   24.1780  -11.1118  -16.2698 C   0  0  0  0  0  0  0  0  0  0  0  0
   24.2949  -11.0020  -17.5441 O   0  0  0  0  0  0  0  0  0  0  0  0
   23.6421  -10.0791  -15.4972 N   0  0  0  0  0  0  0  0  0  0  0  0
   23.6304  -10.0807  -14.0247 C   0  0  0  0  0  0  0  0  0  0  0  0
   22.5540   -9.0918  -13.6615 C   0  0  0  0  0  0  0  0  0  0  0  0
   21.8647   -8.7564  -14.9755 C   0  0  0  0  0  0  0  0  0  0  0  0
   23.0537   -8.8426  -15.9295 C   0  0  1  0  0  0  0  0  0  0  0  0
   24.0149   -7.7359  -15.6529 C   0  0  0  0  0  0  0  0  0  0  0  0
   25.0830   -8.0099  -15.0620 O   0  0  0  0  0  0  0  0  0  0  0  0
   23.7668   -6.4230  -16.0257 O   0  0  0  0  0  0  0  0  0  0  0  0
  1  2  1  0
  2  3  2  0
  4  2  1  0
  4  5  1  0
  5  6  1  1
  7  5  1  0
  7  8  2  0
 10  9  1  1
 10 11  1  0
 10 12  1  0
 12 13  1  6
 13  7  1  0
 14 12  1  0
 15 14  2  0
 16 14  1  0
 16 17  1  0
 18 17  1  0
 19 18  1  0
 19 20  1  0
 20 16  1  0
 20 21  1  1
 21 23  1  0
 22 21  2  0
M  END
$$$$
