NVP.pdb
     RDKit          3D

 23 23  0  0  1  0  0  0  0  0999 V2000
   24.1722  -12.1475  -18.8126 N   0  0  0  0  0  0  0  0  0  0  0  0
   23.2744  -11.3080  -19.4727 C   0  0  0  0  0  0  0  0  0  0  0  0
   23.5708  -10.9170  -20.6369 O   0  0  0  0  0  0  0  0  0  0  0  0
   21.9892  -10.8237  -18.9336 C   0  0  0  0  0  0  0  0  0  0  0  0
   21.7568  -11.2019  -17.4995 C   0  0  2  0  0  0  0  0  0  0  0  0
   21.1720  -12.5306  -17.3725 N   0  0  0  0  0  0  0  0  0  0  0  0
   20.9510  -10.2319  -16.7532 C   0  0  0  0  0  0  0  0  0  0  0  0
   19.7021  -10.2208  -16.8625 O   0  0  0  0  0  0  0  0  0  0  0  0
   19.9510  -10.0976  -13.5652 C   0  0  0  0  0  0  0  0  0  0  0  0
   20.6983   -8.7879  -13.6680 C   0  0  1  0  0  0  0  0  0  0  0  0
   22.1261   -8.9892  -13.1288 C   0  0  0  0  0  0  0  0  0  0  0  0
   20.7747   -8.3012  -15.1173 C   0  0  2  0  0  0  0  0  0  0  0  0
   21.5417   -9.2777  -15.8876 N   0  0  0  0  0  0  0  0  0  0  0  0
   21.5539   -7.0405  -15.0873 C   0  0  0  0  0  0  0  0  0  0  0  0
   22.8272   -7.1510  -15.2130 O   0  0  0  0  0  0  0  0  0  0  0  0
   20.9441   -5.7935  -14.9325 N   0  0  0  0  0  0  0  0  0  0  0  0
   19.5167   -5.6146  -14.6180 C   0  0  0  0  0  0  0  0  0  0  0  0
   19.2177   -4.2012  -15.0440 C   0  0  0  0  0  0  0  0  0  0  0  0
   20.4616   -3.7405  -15.7887 C   0  0  0  0  0  0  0  0  0  0  0  0
   21.5354   -4.4868  -15.0006 C   0  0  1  0  0  0  0  0  0  0  0  0
   21.6330   -3.9360  -13.6177 C   0  0  0  0  0  0  0  0  0  0  0  0
   21.0775   -4.5621  -12.6879 O   0  0  0  0  0  0  0  0  0  0  0  0
   22.3136   -2.7621  -13.3297 O   0  0  0  0  0  0  0  0  0  0  0  0
  1  2  1  0
  2  3  2  0
  4  2  1  0
  4  5  1  0
  5  6  1  6
  7  5  1  0
  7  8  2  0
 10  9  1  6
 10 11  1  0
 10 12  1  0
 12 13  1  6
 13  7  1  0
 14 12  1  0
 15 14  2  0
 16 14  1  0
 16 17  1  0
 18 17  1  0
 19 18  1  0
 19 20  1  0
 20 16  1  0
 20 21  1  1
 21 23  1  0
 22 21  2  0
M  END
$$$$
