NVP.pdb
     RDKit          3D

 23 23  0  0  1  0  0  0  0  0999 V2000
   16.3864  -13.3405  -15.7221 N   0  0  0  0  0  0  0  0  0  0  0  0
   17.5755  -12.9956  -15.0790 C   0  0  0  0  0  0  0  0  0  0  0  0
   17.9509  -13.7032  -14.1021 O   0  0  0  0  0  0  0  0  0  0  0  0
   18.4531  -11.8644  -15.4354 C   0  0  0  0  0  0  0  0  0  0  0  0
   17.9649  -11.0710  -16.6127 C   0  0  2  0  0  0  0  0  0  0  0  0
   17.9768  -11.8534  -17.8420 N   0  0  0  0  0  0  0  0  0  0  0  0
   18.6852   -9.8117  -16.8192 C   0  0  0  0  0  0  0  0  0  0  0  0
   19.7507   -9.7866  -17.4795 O   0  0  0  0  0  0  0  0  0  0  0  0
   18.3772   -4.8469  -16.7171 C   0  0  0  0  0  0  0  0  0  0  0  0
   17.7967   -6.2419  -16.7505 C   0  0  1  0  0  0  0  0  0  0  0  0
   17.1574   -6.4788  -18.1308 C   0  0  0  0  0  0  0  0  0  0  0  0
   18.8753   -7.3011  -16.5103 C   0  0  2  0  0  0  0  0  0  0  0  0
   18.2139   -8.5851  -16.2884 N   0  0  0  0  0  0  0  0  0  0  0  0
   19.5520   -6.9202  -15.2477 C   0  0  0  0  0  0  0  0  0  0  0  0
   18.8477   -6.9920  -14.1761 O   0  0  0  0  0  0  0  0  0  0  0  0
   20.8852   -6.5051  -15.2149 N   0  0  0  0  0  0  0  0  0  0  0  0
   21.6739   -6.1916  -16.4184 C   0  0  0  0  0  0  0  0  0  0  0  0
   23.1052   -6.2983  -15.9616 C   0  0  0  0  0  0  0  0  0  0  0  0
   23.0313   -6.8925  -14.5631 C   0  0  0  0  0  0  0  0  0  0  0  0
   21.7267   -6.2662  -14.0763 C   0  0  1  0  0  0  0  0  0  0  0  0
   21.8953   -4.7935  -13.9097 C   0  0  0  0  0  0  0  0  0  0  0  0
   21.3993   -4.0369  -14.7738 O   0  0  0  0  0  0  0  0  0  0  0  0
   22.5783   -4.2383  -12.8375 O   0  0  0  0  0  0  0  0  0  0  0  0
  1  2  1  0
  2  3  2  0
  4  2  1  0
  4  5  1  0
  5  6  1  6
  7  5  1  0
  7  8  2  0
 10  9  1  6
 10 11  1  0
 10 12  1  0
 12 13  1  1
 13  7  1  0
 14 12  1  0
 15 14  2  0
 16 14  1  0
 16 17  1  0
 18 17  1  0
 19 18  1  0
 19 20  1  0
 20 16  1  0
 20 21  1  6
 21 23  1  0
 22 21  2  0
M  END
$$$$
