NVP.pdb
     RDKit          3D

 23 23  0  0  1  0  0  0  0  0999 V2000
   13.8058  -21.0614    0.8540 N   0  0  0  0  0  0  0  0  0  0  0  0
   13.7178  -20.9636    2.2430 C   0  0  0  0  0  0  0  0  0  0  0  0
   12.7152  -21.4785    2.8137 O   0  0  0  0  0  0  0  0  0  0  0  0
   14.6996  -20.3055    3.1260 C   0  0  0  0  0  0  0  0  0  0  0  0
   15.8175  -19.6301    2.3860 C   0  0  2  0  0  0  0  0  0  0  0  0
   16.6617  -20.5855    1.6803 N   0  0  0  0  0  0  0  0  0  0  0  0
   16.6464  -18.7622    3.2268 C   0  0  0  0  0  0  0  0  0  0  0  0
   17.5771  -19.2415    3.9168 O   0  0  0  0  0  0  0  0  0  0  0  0
   17.8188  -14.0577    4.4603 C   0  0  0  0  0  0  0  0  0  0  0  0
   17.2732  -15.0982    3.5096 C   0  0  1  0  0  0  0  0  0  0  0  0
   18.2062  -15.1904    2.2885 C   0  0  0  0  0  0  0  0  0  0  0  0
   17.1855  -16.4729    4.1771 C   0  0  2  0  0  0  0  0  0  0  0  0
   16.4339  -17.3626    3.2947 N   0  0  0  0  0  0  0  0  0  0  0  0
   16.3848  -16.2812    5.4098 C   0  0  0  0  0  0  0  0  0  0  0  0
   15.1113  -16.2079    5.2600 O   0  0  0  0  0  0  0  0  0  0  0  0
   16.9750  -16.1858    6.6720 N   0  0  0  0  0  0  0  0  0  0  0  0
   18.4305  -16.1546    6.8940 C   0  0  0  0  0  0  0  0  0  0  0  0
   18.5940  -16.5563    8.3364 C   0  0  0  0  0  0  0  0  0  0  0  0
   17.2118  -17.0110    8.7800 C   0  0  0  0  0  0  0  0  0  0  0  0
   16.3427  -16.0645    7.9555 C   0  0  1  0  0  0  0  0  0  0  0  0
   16.5100  -14.6629    8.4379 C   0  0  0  0  0  0  0  0  0  0  0  0
   17.3028  -13.9139    7.8250 O   0  0  0  0  0  0  0  0  0  0  0  0
   15.8217  -14.1653    9.5346 O   0  0  0  0  0  0  0  0  0  0  0  0
  1  2  1  0
  2  3  2  0
  4  2  1  0
  4  5  1  0
  5  6  1  1
  7  5  1  0
  7  8  2  0
 10  9  1  1
 10 11  1  0
 10 12  1  0
 12 13  1  6
 13  7  1  0
 14 12  1  0
 15 14  2  0
 16 14  1  0
 16 17  1  0
 18 17  1  0
 19 18  1  0
 19 20  1  0
 20 16  1  0
 20 21  1  1
 21 23  1  0
 22 21  2  0
M  END
$$$$
