NVP.pdb
     RDKit          3D

 23 23  0  0  1  0  0  0  0  0999 V2000
   13.4673  -21.4271    1.0052 N   0  0  0  0  0  0  0  0  0  0  0  0
   13.9422  -21.5926    2.3067 C   0  0  0  0  0  0  0  0  0  0  0  0
   13.5714  -22.6144    2.9503 O   0  0  0  0  0  0  0  0  0  0  0  0
   14.8518  -20.6734    3.0171 C   0  0  0  0  0  0  0  0  0  0  0  0
   15.7716  -19.9130    2.1065 C   0  0  2  0  0  0  0  0  0  0  0  0
   16.3172  -20.7572    1.0514 N   0  0  0  0  0  0  0  0  0  0  0  0
   16.8610  -19.2244    2.8038 C   0  0  0  0  0  0  0  0  0  0  0  0
   18.0098  -19.7249    2.8450 O   0  0  0  0  0  0  0  0  0  0  0  0
   18.3755  -14.8698    4.7095 C   0  0  0  0  0  0  0  0  0  0  0  0
   17.4745  -15.7300    3.8536 C   0  0  1  0  0  0  0  0  0  0  0  0
   17.7330  -15.3971    2.3730 C   0  0  0  0  0  0  0  0  0  0  0  0
   17.7403  -17.2195    4.0853 C   0  0  2  0  0  0  0  0  0  0  0  0
   16.6647  -17.9798    3.4527 N   0  0  0  0  0  0  0  0  0  0  0  0
   17.6404  -17.4325    5.5488 C   0  0  0  0  0  0  0  0  0  0  0  0
   16.4590  -17.4069    6.0520 O   0  0  0  0  0  0  0  0  0  0  0  0
   18.7658  -17.6516    6.3465 N   0  0  0  0  0  0  0  0  0  0  0  0
   20.1485  -17.5952    5.8431 C   0  0  0  0  0  0  0  0  0  0  0  0
   20.9456  -18.3664    6.8621 C   0  0  0  0  0  0  0  0  0  0  0  0
   19.9094  -19.0076    7.7727 C   0  0  0  0  0  0  0  0  0  0  0  0
   18.8327  -17.9252    7.7545 C   0  0  1  0  0  0  0  0  0  0  0  0
   19.3226  -16.7022    8.4541 C   0  0  0  0  0  0  0  0  0  0  0  0
   19.7865  -15.7678    7.7635 O   0  0  0  0  0  0  0  0  0  0  0  0
   19.2818  -16.5665    9.8340 O   0  0  0  0  0  0  0  0  0  0  0  0
  1  2  1  0
  2  3  2  0
  4  2  1  0
  4  5  1  0
  5  6  1  6
  7  5  1  0
  7  8  2  0
 10  9  1  1
 10 11  1  0
 10 12  1  0
 12 13  1  6
 13  7  1  0
 14 12  1  0
 15 14  2  0
 16 14  1  0
 16 17  1  0
 18 17  1  0
 19 18  1  0
 19 20  1  0
 20 16  1  0
 20 21  1  1
 21 23  1  0
 22 21  2  0
M  END
$$$$
