NVP.pdb
     RDKit          3D

 23 23  0  0  1  0  0  0  0  0999 V2000
   21.7092  -21.3864   -8.1943 N   0  0  0  0  0  0  0  0  0  0  0  0
   22.0581  -21.3031   -9.5426 C   0  0  0  0  0  0  0  0  0  0  0  0
   21.4986  -22.0950  -10.3524 O   0  0  0  0  0  0  0  0  0  0  0  0
   23.0346  -20.3629  -10.1251 C   0  0  0  0  0  0  0  0  0  0  0  0
   24.3430  -21.0024  -10.4894 C   0  0  2  0  0  0  0  0  0  0  0  0
   24.9797  -21.6366   -9.3423 N   0  0  0  0  0  0  0  0  0  0  0  0
   25.2880  -20.0909  -11.1401 C   0  0  0  0  0  0  0  0  0  0  0  0
   26.1035  -19.4243  -10.4598 O   0  0  0  0  0  0  0  0  0  0  0  0
   28.1405  -20.2992  -11.8019 C   0  0  0  0  0  0  0  0  0  0  0  0
   27.6428  -20.1115  -13.2165 C   0  0  1  0  0  0  0  0  0  0  0  0
   27.3051  -21.4916  -13.8094 C   0  0  0  0  0  0  0  0  0  0  0  0
   26.3918  -19.2304  -13.2558 C   0  0  2  0  0  0  0  0  0  0  0  0
   25.3199  -19.9265  -12.5474 N   0  0  0  0  0  0  0  0  0  0  0  0
   25.9999  -19.1356  -14.6822 C   0  0  0  0  0  0  0  0  0  0  0  0
   25.2369  -20.0668  -15.1297 O   0  0  0  0  0  0  0  0  0  0  0  0
   26.4315  -18.0918  -15.5037 N   0  0  0  0  0  0  0  0  0  0  0  0
   27.6755  -17.3360  -15.2802 C   0  0  0  0  0  0  0  0  0  0  0  0
   27.4731  -16.0545  -16.0453 C   0  0  0  0  0  0  0  0  0  0  0  0
   26.0139  -16.0761  -16.4749 C   0  0  0  0  0  0  0  0  0  0  0  0
   25.8240  -17.5746  -16.6975 C   0  0  1  0  0  0  0  0  0  0  0  0
   26.6253  -18.0245  -17.8726 C   0  0  0  0  0  0  0  0  0  0  0  0
   26.2381  -17.6978  -19.0164 O   0  0  0  0  0  0  0  0  0  0  0  0
   27.7766  -18.7870  -17.7413 O   0  0  0  0  0  0  0  0  0  0  0  0
  1  2  1  0
  2  3  2  0
  4  2  1  0
  4  5  1  0
  5  6  1  1
  7  5  1  0
  7  8  2  0
 10  9  1  1
 10 11  1  0
 10 12  1  0
 12 13  1  1
 13  7  1  0
 14 12  1  0
 15 14  2  0
 16 14  1  0
 16 17  1  0
 18 17  1  0
 19 18  1  0
 19 20  1  0
 20 16  1  0
 20 21  1  6
 21 23  1  0
 22 21  2  0
M  END
$$$$
