NVP.pdb
     RDKit          3D

 23 23  0  0  1  0  0  0  0  0999 V2000
   31.8964   -8.9373  -17.7986 N   0  0  0  0  0  0  0  0  0  0  0  0
   30.8938   -8.0587  -18.2102 C   0  0  0  0  0  0  0  0  0  0  0  0
   31.2200   -6.8696  -18.4849 O   0  0  0  0  0  0  0  0  0  0  0  0
   29.4636   -8.3895  -18.3585 C   0  0  0  0  0  0  0  0  0  0  0  0
   29.1360   -9.8137  -18.0153 C   0  0  2  0  0  0  0  0  0  0  0  0
   29.7224  -10.7531  -18.9624 N   0  0  0  0  0  0  0  0  0  0  0  0
   27.7007  -10.0764  -17.8803 C   0  0  0  0  0  0  0  0  0  0  0  0
   27.0206  -10.4315  -18.8719 O   0  0  0  0  0  0  0  0  0  0  0  0
   23.9485  -11.3459  -14.9672 C   0  0  0  0  0  0  0  0  0  0  0  0
   25.4099  -11.0526  -15.2176 C   0  0  1  0  0  0  0  0  0  0  0  0
   26.1552  -12.3851  -15.4150 C   0  0  0  0  0  0  0  0  0  0  0  0
   25.5992  -10.1841  -16.4637 C   0  0  2  0  0  0  0  0  0  0  0  0
   27.0295   -9.9420  -16.6393 N   0  0  0  0  0  0  0  0  0  0  0  0
   24.9573   -8.8830  -16.1597 C   0  0  0  0  0  0  0  0  0  0  0  0
   25.5905   -8.1056  -15.3570 O   0  0  0  0  0  0  0  0  0  0  0  0
   23.7297   -8.5126  -16.7133 N   0  0  0  0  0  0  0  0  0  0  0  0
   22.8928   -9.4135  -17.5235 C   0  0  0  0  0  0  0  0  0  0  0  0
   21.9895   -8.4870  -18.2943 C   0  0  0  0  0  0  0  0  0  0  0  0
   22.5355   -7.0918  -18.0308 C   0  0  0  0  0  0  0  0  0  0  0  0
   23.0282   -7.2652  -16.5961 C   0  0  1  0  0  0  0  0  0  0  0  0
   21.8702   -7.4552  -15.6752 C   0  0  0  0  0  0  0  0  0  0  0  0
   21.5295   -8.6225  -15.3815 O   0  0  0  0  0  0  0  0  0  0  0  0
   21.1634   -6.3896  -15.1374 O   0  0  0  0  0  0  0  0  0  0  0  0
  1  2  1  0
  2  3  2  0
  4  2  1  0
  4  5  1  0
  5  6  1  6
  7  5  1  0
  7  8  2  0
 10  9  1  6
 10 11  1  0
 10 12  1  0
 12 13  1  1
 13  7  1  0
 14 12  1  0
 15 14  2  0
 16 14  1  0
 16 17  1  0
 18 17  1  0
 19 18  1  0
 19 20  1  0
 20 16  1  0
 20 21  1  1
 21 23  1  0
 22 21  2  0
M  END
$$$$
