NVP.pdb
     RDKit          3D

 23 23  0  0  1  0  0  0  0  0999 V2000
   26.8630  -11.5457  -15.2955 N   0  0  0  0  0  0  0  0  0  0  0  0
   26.8241  -10.5745  -16.2965 C   0  0  0  0  0  0  0  0  0  0  0  0
   27.8957  -10.3094  -16.9108 O   0  0  0  0  0  0  0  0  0  0  0  0
   25.6315   -9.8132  -16.7149 C   0  0  0  0  0  0  0  0  0  0  0  0
   24.3980  -10.1448  -15.9261 C   0  0  2  0  0  0  0  0  0  0  0  0
   23.9686  -11.5214  -16.1357 N   0  0  0  0  0  0  0  0  0  0  0  0
   23.2765   -9.2332  -16.1676 C   0  0  0  0  0  0  0  0  0  0  0  0
   22.5062   -9.4124  -17.1405 O   0  0  0  0  0  0  0  0  0  0  0  0
   20.2618   -9.1269  -15.1851 C   0  0  0  0  0  0  0  0  0  0  0  0
   20.7091   -7.7776  -14.6716 C   0  0  1  0  0  0  0  0  0  0  0  0
   21.1513   -7.9282  -13.2047 C   0  0  0  0  0  0  0  0  0  0  0  0
   21.8779   -7.2274  -15.4926 C   0  0  2  0  0  0  0  0  0  0  0  0
   23.0184   -8.1249  -15.3228 N   0  0  0  0  0  0  0  0  0  0  0  0
   22.2350   -5.9261  -14.8792 C   0  0  0  0  0  0  0  0  0  0  0  0
   23.1400   -5.9514  -13.9683 O   0  0  0  0  0  0  0  0  0  0  0  0
   21.6260   -4.7301  -15.2659 N   0  0  0  0  0  0  0  0  0  0  0  0
   20.4522   -4.6594  -16.1524 C   0  0  0  0  0  0  0  0  0  0  0  0
   20.4721   -3.2495  -16.6818 C   0  0  0  0  0  0  0  0  0  0  0  0
   21.8042   -2.6738  -16.2254 C   0  0  0  0  0  0  0  0  0  0  0  0
   21.9563   -3.3861  -14.8835 C   0  0  1  0  0  0  0  0  0  0  0  0
   20.9246   -2.8974  -13.9233 C   0  0  0  0  0  0  0  0  0  0  0  0
   19.8847   -3.5762  -13.7715 O   0  0  0  0  0  0  0  0  0  0  0  0
   21.0777   -1.7247  -13.1982 O   0  0  0  0  0  0  0  0  0  0  0  0
  1  2  1  0
  2  3  2  0
  4  2  1  0
  4  5  1  0
  5  6  1  6
  7  5  1  0
  7  8  2  0
 10  9  1  6
 10 11  1  0
 10 12  1  0
 12 13  1  1
 13  7  1  0
 14 12  1  0
 15 14  2  0
 16 14  1  0
 16 17  1  0
 18 17  1  0
 19 18  1  0
 19 20  1  0
 20 16  1  0
 20 21  1  1
 21 23  1  0
 22 21  2  0
M  END
$$$$
