NVP.pdb
     RDKit          3D

 23 23  0  0  1  0  0  0  0  0999 V2000
   23.6146  -17.5709  -19.5882 N   0  0  0  0  0  0  0  0  0  0  0  0
   22.6223  -16.6506  -19.2490 C   0  0  0  0  0  0  0  0  0  0  0  0
   21.5683  -16.6280  -19.9452 O   0  0  0  0  0  0  0  0  0  0  0  0
   22.6852  -15.6840  -18.1362 C   0  0  0  0  0  0  0  0  0  0  0  0
   23.9561  -15.7628  -17.3411 C   0  0  2  0  0  0  0  0  0  0  0  0
   24.0936  -17.0413  -16.6554 N   0  0  0  0  0  0  0  0  0  0  0  0
   24.1264  -14.6660  -16.3843 C   0  0  0  0  0  0  0  0  0  0  0  0
   23.5684  -14.7052  -15.2622 O   0  0  0  0  0  0  0  0  0  0  0  0
   27.1440  -13.4740  -14.7535 C   0  0  0  0  0  0  0  0  0  0  0  0
   26.6015  -12.2649  -15.4802 C   0  0  1  0  0  0  0  0  0  0  0  0
   27.3534  -12.1113  -16.8148 C   0  0  0  0  0  0  0  0  0  0  0  0
   25.1042  -12.4093  -15.7632 C   0  0  2  0  0  0  0  0  0  0  0  0
   24.9186  -13.5295  -16.6830 N   0  0  0  0  0  0  0  0  0  0  0  0
   24.6987  -11.1730  -16.4734 C   0  0  0  0  0  0  0  0  0  0  0  0
   24.8667  -11.1625  -17.7467 O   0  0  0  0  0  0  0  0  0  0  0  0
   24.1600  -10.0730  -15.8021 N   0  0  0  0  0  0  0  0  0  0  0  0
   24.0450   -9.9853  -14.3367 C   0  0  0  0  0  0  0  0  0  0  0  0
   22.9944   -8.9300  -14.1099 C   0  0  0  0  0  0  0  0  0  0  0  0
   22.4161   -8.6445  -15.4877 C   0  0  0  0  0  0  0  0  0  0  0  0
   23.6636   -8.8402  -16.3459 C   0  0  1  0  0  0  0  0  0  0  0  0
   24.6551   -7.7621  -16.0636 C   0  0  0  0  0  0  0  0  0  0  0  0
   25.6336   -8.0311  -15.3320 O   0  0  0  0  0  0  0  0  0  0  0  0
   24.5301   -6.4809  -16.5806 O   0  0  0  0  0  0  0  0  0  0  0  0
  1  2  1  0
  2  3  2  0
  4  2  1  0
  4  5  1  0
  5  6  1  1
  7  5  1  0
  7  8  2  0
 10  9  1  6
 10 11  1  0
 10 12  1  0
 12 13  1  6
 13  7  1  0
 14 12  1  0
 15 14  2  0
 16 14  1  0
 16 17  1  0
 18 17  1  0
 19 18  1  0
 19 20  1  0
 20 16  1  0
 20 21  1  1
 21 23  1  0
 22 21  2  0
M  END
$$$$
