FYS.pdb
     RDKit          3D

 30 31  0  0  1  0  0  0  0  0999 V2000
   18.5117  -23.9492  -13.5511 N   0  0  0  0  0  0  0  0  0  0  0  0
   18.8021  -24.7905  -12.4323 C   0  0  1  0  0  0  0  0  0  0  0  0
   20.3003  -24.8649  -12.1716 C   0  0  0  0  0  0  0  0  0  0  0  0
   20.8895  -25.5923  -13.3241 C   0  0  0  0  0  0  0  0  0  0  0  0
   20.8564  -26.9673  -13.3806 C   0  0  0  0  0  0  0  0  0  0  0  0
   21.4043  -27.6568  -14.4524 C   0  0  0  0  0  0  0  0  0  0  0  0
   21.9942  -26.9570  -15.4831 C   0  0  0  0  0  0  0  0  0  0  0  0
   22.0189  -25.5837  -15.4111 C   0  0  0  0  0  0  0  0  0  0  0  0
   21.4749  -24.8761  -14.3450 C   0  0  0  0  0  0  0  0  0  0  0  0
   18.1488  -24.3318  -11.1833 C   0  0  0  0  0  0  0  0  0  0  0  0
   18.2079  -23.1654  -10.7556 O   0  0  0  0  0  0  0  0  0  0  0  0
   12.9581  -21.1212  -12.7903 O   0  0  0  0  0  0  0  0  0  0  0  0
   13.5057  -22.0894  -11.9821 C   0  0  0  0  0  0  0  0  0  0  0  0
   13.6494  -21.8554  -10.6306 C   0  0  0  0  0  0  0  0  0  0  0  0
   14.1980  -22.8129   -9.7908 C   0  0  0  0  0  0  0  0  0  0  0  0
   14.6038  -24.0187  -10.3311 C   0  0  0  0  0  0  0  0  0  0  0  0
   15.2020  -25.1042   -9.5129 C   0  0  0  0  0  0  0  0  0  0  0  0
   16.6839  -24.8407   -9.2506 C   0  0  2  0  0  0  0  0  0  0  0  0
   17.4052  -25.2815  -10.4203 N   0  0  0  0  0  0  0  0  0  0  0  0
   17.0989  -25.6615   -8.0950 C   0  0  0  0  0  0  0  0  0  0  0  0
   17.5691  -26.8394   -8.2627 O   0  0  0  0  0  0  0  0  0  0  0  0
   14.4536  -24.2343  -11.6765 C   0  0  0  0  0  0  0  0  0  0  0  0
   13.9121  -23.2943  -12.5166 C   0  0  0  0  0  0  0  0  0  0  0  0
   17.4312  -25.8400   -3.2396 O   0  0  0  0  0  0  0  0  0  0  0  0
   16.9940  -25.1379   -4.3509 C   0  0  0  0  0  0  0  0  0  0  0  0
   17.3270  -25.9175   -5.6191 C   0  0  2  0  0  0  0  0  0  0  0  0
   16.9726  -25.1339   -6.7880 N   0  0  0  0  0  0  0  0  0  0  0  0
   16.7093  -27.2533   -5.6331 C   0  0  0  0  0  0  0  0  0  0  0  0
   15.5231  -27.4749   -5.9523 O   0  0  0  0  0  0  0  0  0  0  0  0
   17.5013  -28.3327   -5.2667 O   0  0  0  0  0  0  0  0  0  0  0  0
  2  1  1  6
  3  4  1  0
  3  2  1  0
  4  5  2  0
  5  6  1  0
  7  6  2  0
  8  7  1  0
  9  4  1  0
  9  8  2  0
 10 19  1  0
 10  2  1  0
 11 10  2  0
 13 12  1  0
 14 13  2  0
 15 14  1  0
 16 15  2  0
 16 22  1  0
 18 17  1  6
 17 16  1  0
 18 19  1  0
 20 18  1  0
 21 20  2  0
 22 23  2  0
 23 13  1  0
 24 25  1  0
 26 25  1  1
 26 28  1  0
 26 27  1  0
 27 20  1  0
 28 30  1  0
 29 28  2  0
M  END
$$$$
