FYS.pdb
     RDKit          3D

 30 31  0  0  1  0  0  0  0  0999 V2000
   26.9430  -27.7640  -20.9168 N   0  0  0  0  0  0  0  0  0  0  0  0
   25.8273  -27.1625  -20.2554 C   0  0  1  0  0  0  0  0  0  0  0  0
   24.8326  -26.5930  -21.2576 C   0  0  0  0  0  0  0  0  0  0  0  0
   25.4524  -25.3609  -21.8075 C   0  0  0  0  0  0  0  0  0  0  0  0
   25.7054  -24.2775  -20.9968 C   0  0  0  0  0  0  0  0  0  0  0  0
   26.2836  -23.1215  -21.5003 C   0  0  0  0  0  0  0  0  0  0  0  0
   26.6131  -23.0507  -22.8369 C   0  0  0  0  0  0  0  0  0  0  0  0
   26.3537  -24.1418  -23.6331 C   0  0  0  0  0  0  0  0  0  0  0  0
   25.7750  -25.3083  -23.1458 C   0  0  0  0  0  0  0  0  0  0  0  0
   25.0958  -28.1121  -19.3834 C   0  0  0  0  0  0  0  0  0  0  0  0
   25.0319  -29.3371  -19.5890 O   0  0  0  0  0  0  0  0  0  0  0  0
   28.6324  -32.1911  -15.8890 O   0  0  0  0  0  0  0  0  0  0  0  0
   27.6071  -31.2755  -15.9212 C   0  0  0  0  0  0  0  0  0  0  0  0
   27.8794  -29.9481  -16.1771 C   0  0  0  0  0  0  0  0  0  0  0  0
   26.8662  -29.0020  -16.2158 C   0  0  0  0  0  0  0  0  0  0  0  0
   25.5648  -29.4106  -15.9923 C   0  0  0  0  0  0  0  0  0  0  0  0
   24.4139  -28.4723  -16.0134 C   0  0  0  0  0  0  0  0  0  0  0  0
   23.7075  -28.5006  -17.3679 C   0  0  2  0  0  0  0  0  0  0  0  0
   24.4217  -27.5958  -18.2362 N   0  0  0  0  0  0  0  0  0  0  0  0
   22.3319  -27.9971  -17.1792 C   0  0  0  0  0  0  0  0  0  0  0  0
   22.0785  -26.7446  -17.2382 O   0  0  0  0  0  0  0  0  0  0  0  0
   25.3122  -30.7341  -15.7395 C   0  0  0  0  0  0  0  0  0  0  0  0
   26.3068  -31.6785  -15.6988 C   0  0  0  0  0  0  0  0  0  0  0  0
   19.2560  -30.7135  -16.2766 O   0  0  0  0  0  0  0  0  0  0  0  0
   18.9473  -29.5972  -17.0367 C   0  0  0  0  0  0  0  0  0  0  0  0
   19.9212  -28.4677  -16.7162 C   0  0  2  0  0  0  0  0  0  0  0  0
   21.2848  -28.9158  -16.9300 N   0  0  0  0  0  0  0  0  0  0  0  0
   19.7179  -27.9203  -15.3652 C   0  0  0  0  0  0  0  0  0  0  0  0
   20.5545  -27.9999  -14.4423 O   0  0  0  0  0  0  0  0  0  0  0  0
   18.5166  -27.2750  -15.1062 O   0  0  0  0  0  0  0  0  0  0  0  0
  2  1  1  6
  3  4  1  0
  3  2  1  0
  4  5  2  0
  5  6  1  0
  7  6  2  0
  8  7  1  0
  9  4  1  0
  9  8  2  0
 10 19  1  0
 10  2  1  0
 11 10  2  0
 13 12  1  0
 14 13  2  0
 15 14  1  0
 16 15  2  0
 16 22  1  0
 18 17  1  1
 17 16  1  0
 18 19  1  0
 20 18  1  0
 21 20  2  0
 22 23  2  0
 23 13  1  0
 24 25  1  0
 26 25  1  1
 26 28  1  0
 26 27  1  0
 27 20  1  0
 28 30  1  0
 29 28  2  0
M  END
$$$$
