FYS.pdb
     RDKit          3D

 30 31  0  0  1  0  0  0  0  0999 V2000
   26.5564  -23.5214  -17.2834 N   0  0  0  0  0  0  0  0  0  0  0  0
   26.6145  -22.2624  -16.6084 C   0  0  1  0  0  0  0  0  0  0  0  0
   25.9197  -21.1722  -17.4127 C   0  0  0  0  0  0  0  0  0  0  0  0
   26.8342  -20.8309  -18.5314 C   0  0  0  0  0  0  0  0  0  0  0  0
   28.0321  -20.1959  -18.2933 C   0  0  0  0  0  0  0  0  0  0  0  0
   28.8936  -19.8721  -19.3312 C   0  0  0  0  0  0  0  0  0  0  0  0
   28.5487  -20.1898  -20.6275 C   0  0  0  0  0  0  0  0  0  0  0  0
   27.3485  -20.8241  -20.8481 C   0  0  0  0  0  0  0  0  0  0  0  0
   26.4728  -21.1562  -19.8204 C   0  0  0  0  0  0  0  0  0  0  0  0
   25.9888  -22.3008  -15.2653 C   0  0  0  0  0  0  0  0  0  0  0  0
   25.0002  -22.9990  -14.9785 O   0  0  0  0  0  0  0  0  0  0  0  0
   25.0152  -20.0089   -6.7831 O   0  0  0  0  0  0  0  0  0  0  0  0
   25.4976  -20.2498   -8.0479 C   0  0  0  0  0  0  0  0  0  0  0  0
   24.6541  -20.7391   -9.0231 C   0  0  0  0  0  0  0  0  0  0  0  0
   25.1121  -20.9917  -10.3075 C   0  0  0  0  0  0  0  0  0  0  0  0
   26.4398  -20.7442  -10.6017 C   0  0  0  0  0  0  0  0  0  0  0  0
   27.0220  -20.9831  -11.9469 C   0  0  0  0  0  0  0  0  0  0  0  0
   25.9677  -21.5201  -12.9136 C   0  0  2  0  0  0  0  0  0  0  0  0
   26.5499  -21.4897  -14.2337 N   0  0  0  0  0  0  0  0  0  0  0  0
   24.8072  -20.6072  -12.8812 C   0  0  0  0  0  0  0  0  0  0  0  0
   24.9632  -19.3439  -13.0090 O   0  0  0  0  0  0  0  0  0  0  0  0
   27.2640  -20.2578   -9.6202 C   0  0  0  0  0  0  0  0  0  0  0  0
   26.8217  -20.0043   -8.3463 C   0  0  0  0  0  0  0  0  0  0  0  0
   21.3099  -21.9219  -14.1940 O   0  0  0  0  0  0  0  0  0  0  0  0
   21.5767  -20.5676  -14.0767 C   0  0  0  0  0  0  0  0  0  0  0  0
   22.3289  -20.2993  -12.7770 C   0  0  2  0  0  0  0  0  0  0  0  0
   23.5086  -21.1415  -12.7061 N   0  0  0  0  0  0  0  0  0  0  0  0
   21.4674  -20.4429  -11.5923 C   0  0  0  0  0  0  0  0  0  0  0  0
   20.4510  -19.7515  -11.3755 O   0  0  0  0  0  0  0  0  0  0  0  0
   21.8121  -21.4109  -10.6592 O   0  0  0  0  0  0  0  0  0  0  0  0
  2  1  1  6
  3  4  1  0
  3  2  1  0
  4  5  2  0
  5  6  1  0
  7  6  2  0
  8  7  1  0
  9  4  1  0
  9  8  2  0
 10 19  1  0
 10  2  1  0
 11 10  2  0
 13 12  1  0
 14 13  2  0
 15 14  1  0
 16 15  2  0
 16 22  1  0
 18 17  1  1
 17 16  1  0
 18 19  1  0
 20 18  1  0
 21 20  2  0
 22 23  2  0
 23 13  1  0
 24 25  1  0
 26 25  1  6
 26 28  1  0
 26 27  1  0
 27 20  1  0
 28 30  1  0
 29 28  2  0
M  END
$$$$
