FYS.pdb
     RDKit          3D

 30 31  0  0  1  0  0  0  0  0999 V2000
   27.8472  -22.2409  -17.0725 N   0  0  0  0  0  0  0  0  0  0  0  0
   27.6799  -21.0671  -16.2738 C   0  0  1  0  0  0  0  0  0  0  0  0
   26.7646  -20.0603  -16.9569 C   0  0  0  0  0  0  0  0  0  0  0  0
   27.5747  -19.4129  -18.0195 C   0  0  0  0  0  0  0  0  0  0  0  0
   28.4504  -18.3951  -17.7160 C   0  0  0  0  0  0  0  0  0  0  0  0
   29.2116  -17.7830  -18.7011 C   0  0  0  0  0  0  0  0  0  0  0  0
   29.0928  -18.1979  -20.0103 C   0  0  0  0  0  0  0  0  0  0  0  0
   28.2134  -19.2158  -20.2965 C   0  0  0  0  0  0  0  0  0  0  0  0
   27.4427  -19.8406  -19.3224 C   0  0  0  0  0  0  0  0  0  0  0  0
   27.1119  -21.3584  -14.9360 C   0  0  0  0  0  0  0  0  0  0  0  0
   26.2204  -22.2002  -14.7274 O   0  0  0  0  0  0  0  0  0  0  0  0
   26.0814  -20.5832   -6.2267 O   0  0  0  0  0  0  0  0  0  0  0  0
   26.5501  -20.4966   -7.5165 C   0  0  0  0  0  0  0  0  0  0  0  0
   25.8042  -19.8447   -8.4760 C   0  0  0  0  0  0  0  0  0  0  0  0
   26.2511  -19.7413   -9.7847 C   0  0  0  0  0  0  0  0  0  0  0  0
   27.4673  -20.3063  -10.1196 C   0  0  0  0  0  0  0  0  0  0  0  0
   28.0287  -20.2475  -11.4933 C   0  0  0  0  0  0  0  0  0  0  0  0
   27.0870  -20.9068  -12.4997 C   0  0  2  0  0  0  0  0  0  0  0  0
   27.6141  -20.6321  -13.8147 N   0  0  0  0  0  0  0  0  0  0  0  0
   25.7605  -20.2698  -12.3731 C   0  0  0  0  0  0  0  0  0  0  0  0
   25.6096  -19.0195  -12.5977 O   0  0  0  0  0  0  0  0  0  0  0  0
   28.1955  -20.9506   -9.1532 C   0  0  0  0  0  0  0  0  0  0  0  0
   27.7631  -21.0588   -7.8555 C   0  0  0  0  0  0  0  0  0  0  0  0
   22.3858  -22.3464  -13.2563 O   0  0  0  0  0  0  0  0  0  0  0  0
   22.5843  -20.9760  -13.2957 C   0  0  0  0  0  0  0  0  0  0  0  0
   23.2978  -20.5200  -12.0269 C   0  0  2  0  0  0  0  0  0  0  0  0
   24.6457  -21.0567  -11.9982 N   0  0  0  0  0  0  0  0  0  0  0  0
   22.5389  -20.8490  -10.8095 C   0  0  0  0  0  0  0  0  0  0  0  0
   22.9618  -21.5884   -9.8970 O   0  0  0  0  0  0  0  0  0  0  0  0
   21.2719  -20.2990  -10.6724 O   0  0  0  0  0  0  0  0  0  0  0  0
  2  1  1  6
  3  4  1  0
  3  2  1  0
  4  5  2  0
  5  6  1  0
  7  6  2  0
  8  7  1  0
  9  4  1  0
  9  8  2  0
 10 19  1  0
 10  2  1  0
 11 10  2  0
 13 12  1  0
 14 13  2  0
 15 14  1  0
 16 15  2  0
 16 22  1  0
 18 17  1  1
 17 16  1  0
 18 19  1  0
 20 18  1  0
 21 20  2  0
 22 23  2  0
 23 13  1  0
 24 25  1  0
 26 25  1  6
 26 28  1  0
 26 27  1  0
 27 20  1  0
 28 30  1  0
 29 28  2  0
M  END
$$$$
