FYS.pdb
     RDKit          3D

 30 31  0  0  1  0  0  0  0  0999 V2000
   26.1670  -18.0573   11.4451 N   0  0  0  0  0  0  0  0  0  0  0  0
   27.5313  -18.2358   11.8335 C   0  0  1  0  0  0  0  0  0  0  0  0
   27.6495  -18.5031   13.3277 C   0  0  0  0  0  0  0  0  0  0  0  0
   29.0861  -18.3455   13.6681 C   0  0  0  0  0  0  0  0  0  0  0  0
   29.9091  -19.4437   13.7756 C   0  0  0  0  0  0  0  0  0  0  0  0
   31.2525  -19.3077   14.0937 C   0  0  0  0  0  0  0  0  0  0  0  0
   31.7785  -18.0515   14.3071 C   0  0  0  0  0  0  0  0  0  0  0  0
   30.9428  -16.9650   14.1957 C   0  0  0  0  0  0  0  0  0  0  0  0
   29.5942  -17.0823   13.8779 C   0  0  0  0  0  0  0  0  0  0  0  0
   28.1898  -19.3563   11.1209 C   0  0  0  0  0  0  0  0  0  0  0  0
   27.6798  -20.4809   10.9716 O   0  0  0  0  0  0  0  0  0  0  0  0
   34.4652  -23.4859    6.5728 O   0  0  0  0  0  0  0  0  0  0  0  0
   33.6409  -22.5383    7.1324 C   0  0  0  0  0  0  0  0  0  0  0  0
   32.3777  -22.3363    6.6172 C   0  0  0  0  0  0  0  0  0  0  0  0
   31.5242  -21.3879    7.1606 C   0  0  0  0  0  0  0  0  0  0  0  0
   31.9601  -20.6389    8.2373 C   0  0  0  0  0  0  0  0  0  0  0  0
   31.1191  -19.6011    8.8863 C   0  0  0  0  0  0  0  0  0  0  0  0
   30.1670  -20.2247    9.9056 C   0  0  2  0  0  0  0  0  0  0  0  0
   29.4883  -19.1382   10.5702 N   0  0  0  0  0  0  0  0  0  0  0  0
   30.9752  -20.9623   10.8977 C   0  0  0  0  0  0  0  0  0  0  0  0
   31.7840  -20.3454   11.6734 O   0  0  0  0  0  0  0  0  0  0  0  0
   33.2187  -20.8529    8.7367 C   0  0  0  0  0  0  0  0  0  0  0  0
   34.0714  -21.7883    8.2070 C   0  0  0  0  0  0  0  0  0  0  0  0
   29.8395  -24.5782   12.4097 O   0  0  0  0  0  0  0  0  0  0  0  0
   30.8019  -23.7644   12.9846 C   0  0  0  0  0  0  0  0  0  0  0  0
   31.6728  -23.1450   11.8961 C   0  0  2  0  0  0  0  0  0  0  0  0
   30.8498  -22.3690   10.9870 N   0  0  0  0  0  0  0  0  0  0  0  0
   32.4884  -24.1487   11.1936 C   0  0  0  0  0  0  0  0  0  0  0  0
   32.3839  -24.4122    9.9779 O   0  0  0  0  0  0  0  0  0  0  0  0
   33.4331  -24.8442   11.9355 O   0  0  0  0  0  0  0  0  0  0  0  0
  2  1  1  6
  3  4  1  0
  3  2  1  0
  4  5  2  0
  5  6  1  0
  7  6  2  0
  8  7  1  0
  9  4  1  0
  9  8  2  0
 10 19  1  0
 10  2  1  0
 11 10  2  0
 13 12  1  0
 14 13  2  0
 15 14  1  0
 16 15  2  0
 16 22  1  0
 18 17  1  6
 17 16  1  0
 18 19  1  0
 20 18  1  0
 21 20  2  0
 22 23  2  0
 23 13  1  0
 24 25  1  0
 26 25  1  1
 26 28  1  0
 26 27  1  0
 27 20  1  0
 28 30  1  0
 29 28  2  0
M  END
$$$$
