FYS.pdb
     RDKit          3D

 30 31  0  0  1  0  0  0  0  0999 V2000
   20.4997   -6.6721  -14.0283 N   0  0  0  0  0  0  0  0  0  0  0  0
   21.6904   -6.7521  -14.8156 C   0  0  1  0  0  0  0  0  0  0  0  0
   22.8336   -5.9833  -14.1675 C   0  0  0  0  0  0  0  0  0  0  0  0
   22.6800   -4.5690  -14.5925 C   0  0  0  0  0  0  0  0  0  0  0  0
   23.2410   -4.1216  -15.7673 C   0  0  0  0  0  0  0  0  0  0  0  0
   23.1039   -2.8023  -16.1735 C   0  0  0  0  0  0  0  0  0  0  0  0
   22.3937   -1.9183  -15.3898 C   0  0  0  0  0  0  0  0  0  0  0  0
   21.8396   -2.3813  -14.2192 C   0  0  0  0  0  0  0  0  0  0  0  0
   21.9667   -3.6998  -13.7965 C   0  0  0  0  0  0  0  0  0  0  0  0
   22.1469   -8.1464  -15.0272 C   0  0  0  0  0  0  0  0  0  0  0  0
   22.0304   -9.0519  -14.1826 O   0  0  0  0  0  0  0  0  0  0  0  0
   17.0198  -11.6789  -17.0009 O   0  0  0  0  0  0  0  0  0  0  0  0
   18.3261  -11.3090  -17.2183 C   0  0  0  0  0  0  0  0  0  0  0  0
   18.6254  -10.0018  -17.5399 C   0  0  0  0  0  0  0  0  0  0  0  0
   19.9334   -9.5994  -17.7647 C   0  0  0  0  0  0  0  0  0  0  0  0
   20.9451  -10.5354  -17.6613 C   0  0  0  0  0  0  0  0  0  0  0  0
   22.3747  -10.2001  -17.8837 C   0  0  0  0  0  0  0  0  0  0  0  0
   23.0687   -9.8550  -16.5670 C   0  0  2  0  0  0  0  0  0  0  0  0
   22.7581   -8.4765  -16.2740 N   0  0  0  0  0  0  0  0  0  0  0  0
   24.5261   -9.9849  -16.7682 C   0  0  0  0  0  0  0  0  0  0  0  0
   25.1837   -9.0859  -17.3974 O   0  0  0  0  0  0  0  0  0  0  0  0
   20.6295  -11.8304  -17.3407 C   0  0  0  0  0  0  0  0  0  0  0  0
   19.3392  -12.2395  -17.1163 C   0  0  0  0  0  0  0  0  0  0  0  0
   28.4844  -12.5652  -15.6054 O   0  0  0  0  0  0  0  0  0  0  0  0
   27.1018  -12.4827  -15.5775 C   0  0  0  0  0  0  0  0  0  0  0  0
   26.6419  -11.2457  -16.3426 C   0  0  2  0  0  0  0  0  0  0  0  0
   25.1988  -11.1200  -16.2567 N   0  0  0  0  0  0  0  0  0  0  0  0
   27.1222  -11.2378  -17.7338 C   0  0  0  0  0  0  0  0  0  0  0  0
   28.0960  -10.5688  -18.1364 O   0  0  0  0  0  0  0  0  0  0  0  0
   26.4448  -12.0268  -18.6531 O   0  0  0  0  0  0  0  0  0  0  0  0
  2  1  1  1
  3  4  1  0
  3  2  1  0
  4  5  2  0
  5  6  1  0
  7  6  2  0
  8  7  1  0
  9  4  1  0
  9  8  2  0
 10 19  1  0
 10  2  1  0
 11 10  2  0
 13 12  1  0
 14 13  2  0
 15 14  1  0
 16 15  2  0
 16 22  1  0
 18 17  1  6
 17 16  1  0
 18 19  1  0
 20 18  1  0
 21 20  2  0
 22 23  2  0
 23 13  1  0
 24 25  1  0
 26 25  1  6
 26 28  1  0
 26 27  1  0
 27 20  1  0
 28 30  1  0
 29 28  2  0
M  END
$$$$
