FYS.pdb
     RDKit          3D

 30 31  0  0  1  0  0  0  0  0999 V2000
   28.7910  -20.9362  -14.7178 N   0  0  0  0  0  0  0  0  0  0  0  0
   27.9154  -20.7556  -13.6022 C   0  0  1  0  0  0  0  0  0  0  0  0
   28.5196  -19.8095  -12.5736 C   0  0  0  0  0  0  0  0  0  0  0  0
   29.2975  -20.6555  -11.6337 C   0  0  0  0  0  0  0  0  0  0  0  0
   28.6947  -21.2251  -10.5349 C   0  0  0  0  0  0  0  0  0  0  0  0
   29.4123  -22.0168   -9.6502 C   0  0  0  0  0  0  0  0  0  0  0  0
   30.7545  -22.2407   -9.8706 C   0  0  0  0  0  0  0  0  0  0  0  0
   31.3413  -21.6644  -10.9729 C   0  0  0  0  0  0  0  0  0  0  0  0
   30.6379  -20.8683  -11.8700 C   0  0  0  0  0  0  0  0  0  0  0  0
   26.5922  -20.2131  -13.9920 C   0  0  0  0  0  0  0  0  0  0  0  0
   26.4171  -19.0709  -14.4521 O   0  0  0  0  0  0  0  0  0  0  0  0
   26.7222  -18.3175  -19.6416 O   0  0  0  0  0  0  0  0  0  0  0  0
   26.0534  -19.0334  -18.6769 C   0  0  0  0  0  0  0  0  0  0  0  0
   26.6017  -20.1981  -18.1821 C   0  0  0  0  0  0  0  0  0  0  0  0
   25.9504  -20.9411  -17.2089 C   0  0  0  0  0  0  0  0  0  0  0  0
   24.7309  -20.4950  -16.7355 C   0  0  0  0  0  0  0  0  0  0  0  0
   23.9591  -21.2215  -15.6953 C   0  0  0  0  0  0  0  0  0  0  0  0
   24.1652  -20.5914  -14.3188 C   0  0  2  0  0  0  0  0  0  0  0  0
   25.4451  -21.0472  -13.8324 N   0  0  0  0  0  0  0  0  0  0  0  0
   23.1055  -21.0931  -13.4206 C   0  0  0  0  0  0  0  0  0  0  0  0
   23.0824  -22.3187  -13.0547 O   0  0  0  0  0  0  0  0  0  0  0  0
   24.2006  -19.3352  -17.2386 C   0  0  0  0  0  0  0  0  0  0  0  0
   24.8361  -18.5922  -18.2013 C   0  0  0  0  0  0  0  0  0  0  0  0
   20.1506  -18.4428  -11.8992 O   0  0  0  0  0  0  0  0  0  0  0  0
   20.6800  -19.4648  -11.1283 C   0  0  0  0  0  0  0  0  0  0  0  0
   21.0849  -20.6316  -12.0237 C   0  0  2  0  0  0  0  0  0  0  0  0
   22.1055  -20.2031  -12.9621 N   0  0  0  0  0  0  0  0  0  0  0  0
   19.9297  -21.2474  -12.6965 C   0  0  0  0  0  0  0  0  0  0  0  0
   19.6687  -21.1103  -13.9094 O   0  0  0  0  0  0  0  0  0  0  0  0
   19.0792  -22.0301  -11.9280 O   0  0  0  0  0  0  0  0  0  0  0  0
  2  1  1  6
  3  4  1  0
  3  2  1  0
  4  5  2  0
  5  6  1  0
  7  6  2  0
  8  7  1  0
  9  4  1  0
  9  8  2  0
 10 19  1  0
 10  2  1  0
 11 10  2  0
 13 12  1  0
 14 13  2  0
 15 14  1  0
 16 15  2  0
 16 22  1  0
 18 17  1  6
 17 16  1  0
 18 19  1  0
 20 18  1  0
 21 20  2  0
 22 23  2  0
 23 13  1  0
 24 25  1  0
 26 25  1  6
 26 28  1  0
 26 27  1  0
 27 20  1  0
 28 30  1  0
 29 28  2  0
M  END
$$$$
