FYS.pdb
     RDKit          3D

 30 31  0  0  1  0  0  0  0  0999 V2000
   16.3420  -13.9161    6.7391 N   0  0  0  0  0  0  0  0  0  0  0  0
   17.6606  -14.3564    7.0726 C   0  0  1  0  0  0  0  0  0  0  0  0
   18.1647  -13.6795    8.3398 C   0  0  0  0  0  0  0  0  0  0  0  0
   19.3439  -12.8703    7.9407 C   0  0  0  0  0  0  0  0  0  0  0  0
   19.1942  -11.5702    7.5137 C   0  0  0  0  0  0  0  0  0  0  0  0
   20.2891  -10.8057    7.1381 C   0  0  0  0  0  0  0  0  0  0  0  0
   21.5531  -11.3531    7.1914 C   0  0  0  0  0  0  0  0  0  0  0  0
   21.6852  -12.6531    7.6202 C   0  0  0  0  0  0  0  0  0  0  0  0
   20.5995  -13.4341    8.0004 C   0  0  0  0  0  0  0  0  0  0  0  0
   17.7419  -15.8217    7.2806 C   0  0  0  0  0  0  0  0  0  0  0  0
   16.8334  -16.5035    7.7871 O   0  0  0  0  0  0  0  0  0  0  0  0
   14.9942  -19.7039    2.5640 O   0  0  0  0  0  0  0  0  0  0  0  0
   16.1002  -19.4122    3.3271 C   0  0  0  0  0  0  0  0  0  0  0  0
   17.3473  -19.3678    2.7402 C   0  0  0  0  0  0  0  0  0  0  0  0
   18.4808  -19.0764    3.4843 C   0  0  0  0  0  0  0  0  0  0  0  0
   18.3436  -18.8280    4.8371 C   0  0  0  0  0  0  0  0  0  0  0  0
   19.4973  -18.5075    5.7155 C   0  0  0  0  0  0  0  0  0  0  0  0
   19.0276  -17.9273    7.0485 C   0  0  2  0  0  0  0  0  0  0  0  0
   18.9326  -16.4975    6.8773 N   0  0  0  0  0  0  0  0  0  0  0  0
   20.0578  -18.2201    8.0655 C   0  0  0  0  0  0  0  0  0  0  0  0
   21.2077  -17.6620    8.0132 O   0  0  0  0  0  0  0  0  0  0  0  0
   17.0963  -18.8763    5.4039 C   0  0  0  0  0  0  0  0  0  0  0  0
   15.9683  -19.1636    4.6775 C   0  0  0  0  0  0  0  0  0  0  0  0
   21.3332  -19.0528   12.4007 O   0  0  0  0  0  0  0  0  0  0  0  0
   20.3550  -18.8076   11.4509 C   0  0  0  0  0  0  0  0  0  0  0  0
   20.7462  -19.4554   10.1264 C   0  0  2  0  0  0  0  0  0  0  0  0
   19.7644  -19.1303    9.1085 N   0  0  0  0  0  0  0  0  0  0  0  0
   20.9593  -20.9061   10.2547 C   0  0  0  0  0  0  0  0  0  0  0  0
   21.9264  -21.4235   10.8505 O   0  0  0  0  0  0  0  0  0  0  0  0
   20.0215  -21.7483    9.6737 O   0  0  0  0  0  0  0  0  0  0  0  0
  2  1  1  1
  3  4  1  0
  3  2  1  0
  4  5  2  0
  5  6  1  0
  7  6  2  0
  8  7  1  0
  9  4  1  0
  9  8  2  0
 10 19  1  0
 10  2  1  0
 11 10  2  0
 13 12  1  0
 14 13  2  0
 15 14  1  0
 16 15  2  0
 16 22  1  0
 18 17  1  6
 17 16  1  0
 18 19  1  0
 20 18  1  0
 21 20  2  0
 22 23  2  0
 23 13  1  0
 24 25  1  0
 26 25  1  1
 26 28  1  0
 26 27  1  0
 27 20  1  0
 28 30  1  0
 29 28  2  0
M  END
$$$$
