FYS.pdb
     RDKit          3D

 30 31  0  0  1  0  0  0  0  0999 V2000
   27.5548  -28.2050  -16.6181 N   0  0  0  0  0  0  0  0  0  0  0  0
   26.5164  -27.2682  -16.9147 C   0  0  1  0  0  0  0  0  0  0  0  0
   26.1167  -27.3334  -18.3824 C   0  0  0  0  0  0  0  0  0  0  0  0
   27.2905  -26.8571  -19.1568 C   0  0  0  0  0  0  0  0  0  0  0  0
   28.1820  -27.7510  -19.7058 C   0  0  0  0  0  0  0  0  0  0  0  0
   29.2822  -27.3168  -20.4306 C   0  0  0  0  0  0  0  0  0  0  0  0
   29.4916  -25.9659  -20.6076 C   0  0  0  0  0  0  0  0  0  0  0  0
   28.5917  -25.0863  -20.0527 C   0  0  0  0  0  0  0  0  0  0  0  0
   27.4838  -25.5033  -19.3234 C   0  0  0  0  0  0  0  0  0  0  0  0
   25.2951  -27.4882  -16.1041 C   0  0  0  0  0  0  0  0  0  0  0  0
   25.0008  -28.5723  -15.5703 O   0  0  0  0  0  0  0  0  0  0  0  0
   19.3052  -25.4900  -10.1671 O   0  0  0  0  0  0  0  0  0  0  0  0
   20.3298  -25.4833  -11.0840 C   0  0  0  0  0  0  0  0  0  0  0  0
   21.3155  -26.4456  -11.0196 C   0  0  0  0  0  0  0  0  0  0  0  0
   22.3611  -26.4642  -11.9304 C   0  0  0  0  0  0  0  0  0  0  0  0
   22.4037  -25.4951  -12.9151 C   0  0  0  0  0  0  0  0  0  0  0  0
   23.4822  -25.4330  -13.9341 C   0  0  0  0  0  0  0  0  0  0  0  0
   23.3035  -26.5231  -14.9895 C   0  0  2  0  0  0  0  0  0  0  0  0
   24.3980  -26.3933  -15.9211 N   0  0  0  0  0  0  0  0  0  0  0  0
   22.0354  -26.2686  -15.7027 C   0  0  0  0  0  0  0  0  0  0  0  0
   21.8294  -25.1542  -16.2963 O   0  0  0  0  0  0  0  0  0  0  0  0
   21.4156  -24.5462  -12.9643 C   0  0  0  0  0  0  0  0  0  0  0  0
   20.3766  -24.5183  -12.0684 C   0  0  0  0  0  0  0  0  0  0  0  0
   19.6803  -29.4518  -16.4693 O   0  0  0  0  0  0  0  0  0  0  0  0
   19.4223  -28.3175  -17.2216 C   0  0  0  0  0  0  0  0  0  0  0  0
   19.7787  -27.0713  -16.4173 C   0  0  2  0  0  0  0  0  0  0  0  0
   21.0388  -27.2730  -15.7264 N   0  0  0  0  0  0  0  0  0  0  0  0
   18.6982  -26.6676  -15.5032 C   0  0  0  0  0  0  0  0  0  0  0  0
   17.5303  -26.4158  -15.8647 O   0  0  0  0  0  0  0  0  0  0  0  0
   19.0030  -26.5615  -14.1532 O   0  0  0  0  0  0  0  0  0  0  0  0
  2  1  1  6
  3  4  1  0
  3  2  1  0
  4  5  2  0
  5  6  1  0
  7  6  2  0
  8  7  1  0
  9  4  1  0
  9  8  2  0
 10 19  1  0
 10  2  1  0
 11 10  2  0
 13 12  1  0
 14 13  2  0
 15 14  1  0
 16 15  2  0
 16 22  1  0
 18 17  1  1
 17 16  1  0
 18 19  1  0
 20 18  1  0
 21 20  2  0
 22 23  2  0
 23 13  1  0
 24 25  1  0
 26 25  1  1
 26 28  1  0
 26 27  1  0
 27 20  1  0
 28 30  1  0
 29 28  2  0
M  END
$$$$
