FYS.pdb
     RDKit          3D

 30 31  0  0  1  0  0  0  0  0999 V2000
   35.5308  -28.5805  -18.3781 N   0  0  0  0  0  0  0  0  0  0  0  0
   34.7111  -29.5512  -19.0337 C   0  0  1  0  0  0  0  0  0  0  0  0
   35.5451  -30.4797  -19.9057 C   0  0  0  0  0  0  0  0  0  0  0  0
   35.9616  -29.6818  -21.0866 C   0  0  0  0  0  0  0  0  0  0  0  0
   35.0754  -29.4178  -22.1064 C   0  0  0  0  0  0  0  0  0  0  0  0
   35.4543  -28.6739  -23.2143 C   0  0  0  0  0  0  0  0  0  0  0  0
   36.7411  -28.1873  -23.3008 C   0  0  0  0  0  0  0  0  0  0  0  0
   37.6139  -28.4600  -22.2735 C   0  0  0  0  0  0  0  0  0  0  0  0
   37.2518  -29.2036  -21.1559 C   0  0  0  0  0  0  0  0  0  0  0  0
   33.9445  -30.3920  -18.0836 C   0  0  0  0  0  0  0  0  0  0  0  0
   34.2579  -30.5562  -16.8912 O   0  0  0  0  0  0  0  0  0  0  0  0
   26.9011  -33.8314  -14.3740 O   0  0  0  0  0  0  0  0  0  0  0  0
   27.7780  -33.2255  -15.2426 C   0  0  0  0  0  0  0  0  0  0  0  0
   28.0794  -33.8281  -16.4459 C   0  0  0  0  0  0  0  0  0  0  0  0
   28.9600  -33.2410  -17.3420 C   0  0  0  0  0  0  0  0  0  0  0  0
   29.5387  -32.0303  -17.0105 C   0  0  0  0  0  0  0  0  0  0  0  0
   30.4926  -31.3252  -17.9040 C   0  0  0  0  0  0  0  0  0  0  0  0
   31.9303  -31.7604  -17.6247 C   0  0  2  0  0  0  0  0  0  0  0  0
   32.7745  -31.0563  -18.5597 N   0  0  0  0  0  0  0  0  0  0  0  0
   32.0306  -33.2103  -17.8873 C   0  0  0  0  0  0  0  0  0  0  0  0
   31.9486  -33.6678  -19.0791 O   0  0  0  0  0  0  0  0  0  0  0  0
   29.2278  -31.4455  -15.8103 C   0  0  0  0  0  0  0  0  0  0  0  0
   28.3580  -32.0174  -14.9163 C   0  0  0  0  0  0  0  0  0  0  0  0
   32.5536  -35.8307  -14.6600 O   0  0  0  0  0  0  0  0  0  0  0  0
   33.2234  -36.1022  -15.8418 C   0  0  0  0  0  0  0  0  0  0  0  0
   32.4516  -35.5164  -17.0201 C   0  0  2  0  0  0  0  0  0  0  0  0
   32.2194  -34.1004  -16.8035 N   0  0  0  0  0  0  0  0  0  0  0  0
   31.2065  -36.2518  -17.2942 C   0  0  0  0  0  0  0  0  0  0  0  0
   30.0727  -35.7301  -17.3123 O   0  0  0  0  0  0  0  0  0  0  0  0
   31.3053  -37.6127  -17.5483 O   0  0  0  0  0  0  0  0  0  0  0  0
  2  1  1  1
  3  4  1  0
  3  2  1  0
  4  5  2  0
  5  6  1  0
  7  6  2  0
  8  7  1  0
  9  4  1  0
  9  8  2  0
 10 19  1  0
 10  2  1  0
 11 10  2  0
 13 12  1  0
 14 13  2  0
 15 14  1  0
 16 15  2  0
 16 22  1  0
 18 17  1  6
 17 16  1  0
 18 19  1  0
 20 18  1  0
 21 20  2  0
 22 23  2  0
 23 13  1  0
 24 25  1  0
 26 25  1  1
 26 28  1  0
 26 27  1  0
 27 20  1  0
 28 30  1  0
 29 28  2  0
M  END
$$$$
