FYS.pdb
     RDKit          3D

 30 31  0  0  1  0  0  0  0  0999 V2000
   20.7454  -11.6939  -17.1825 N   0  0  0  0  0  0  0  0  0  0  0  0
   19.8405  -10.6379  -16.8509 C   0  0  1  0  0  0  0  0  0  0  0  0
   19.1765  -10.8828  -15.5029 C   0  0  0  0  0  0  0  0  0  0  0  0
   18.1780  -11.9603  -15.7184 C   0  0  0  0  0  0  0  0  0  0  0  0
   17.0687  -11.7457  -16.5047 C   0  0  0  0  0  0  0  0  0  0  0  0
   16.1295  -12.7453  -16.7122 C   0  0  0  0  0  0  0  0  0  0  0  0
   16.3054  -13.9787  -16.1223 C   0  0  0  0  0  0  0  0  0  0  0  0
   17.4189  -14.1766  -15.3399 C   0  0  0  0  0  0  0  0  0  0  0  0
   18.3704  -13.1866  -15.1208 C   0  0  0  0  0  0  0  0  0  0  0  0
   20.5004   -9.3118  -16.7948 C   0  0  0  0  0  0  0  0  0  0  0  0
   21.6123   -9.1099  -16.2753 O   0  0  0  0  0  0  0  0  0  0  0  0
   22.4038   -8.2978  -23.2159 O   0  0  0  0  0  0  0  0  0  0  0  0
   21.8014   -7.7769  -22.0951 C   0  0  0  0  0  0  0  0  0  0  0  0
   20.4256   -7.7206  -22.0181 C   0  0  0  0  0  0  0  0  0  0  0  0
   19.7899   -7.2008  -20.9006 C   0  0  0  0  0  0  0  0  0  0  0  0
   20.5611   -6.7344  -19.8526 C   0  0  0  0  0  0  0  0  0  0  0  0
   19.9722   -6.1608  -18.6158 C   0  0  0  0  0  0  0  0  0  0  0  0
   20.4687   -6.9032  -17.3762 C   0  0  2  0  0  0  0  0  0  0  0  0
   19.8241   -8.1944  -17.3702 N   0  0  0  0  0  0  0  0  0  0  0  0
   20.0360   -6.1468  -16.1837 C   0  0  0  0  0  0  0  0  0  0  0  0
   18.7940   -6.0092  -15.9098 O   0  0  0  0  0  0  0  0  0  0  0  0
   21.9273   -6.7980  -19.9460 C   0  0  0  0  0  0  0  0  0  0  0  0
   22.5667   -7.3102  -21.0467 C   0  0  0  0  0  0  0  0  0  0  0  0
   22.8891   -4.2998  -13.5758 O   0  0  0  0  0  0  0  0  0  0  0  0
   21.7325   -4.9009  -13.1067 C   0  0  0  0  0  0  0  0  0  0  0  0
   20.6351   -4.8047  -14.1620 C   0  0  2  0  0  0  0  0  0  0  0  0
   21.0114   -5.5688  -15.3369 N   0  0  0  0  0  0  0  0  0  0  0  0
   20.2927   -3.4108  -14.4875 C   0  0  0  0  0  0  0  0  0  0  0  0
   20.5586   -2.8581  -15.5746 O   0  0  0  0  0  0  0  0  0  0  0  0
   19.6315   -2.6675  -13.5195 O   0  0  0  0  0  0  0  0  0  0  0  0
  2  1  1  1
  3  4  1  0
  3  2  1  0
  4  5  2  0
  5  6  1  0
  7  6  2  0
  8  7  1  0
  9  4  1  0
  9  8  2  0
 10 19  1  0
 10  2  1  0
 11 10  2  0
 13 12  1  0
 14 13  2  0
 15 14  1  0
 16 15  2  0
 16 22  1  0
 18 17  1  6
 17 16  1  0
 18 19  1  0
 20 18  1  0
 21 20  2  0
 22 23  2  0
 23 13  1  0
 24 25  1  0
 26 25  1  1
 26 28  1  0
 26 27  1  0
 27 20  1  0
 28 30  1  0
 29 28  2  0
M  END
$$$$
