FYS.pdb
     RDKit          3D

 30 31  0  0  1  0  0  0  0  0999 V2000
   15.1306  -14.2505    4.3900 N   0  0  0  0  0  0  0  0  0  0  0  0
   16.4788  -14.2491    4.8656 C   0  0  1  0  0  0  0  0  0  0  0  0
   16.7472  -13.0475    5.7612 C   0  0  0  0  0  0  0  0  0  0  0  0
   18.2214  -12.8753    5.7990 C   0  0  0  0  0  0  0  0  0  0  0  0
   18.8947  -12.3306    4.7289 C   0  0  0  0  0  0  0  0  0  0  0  0
   20.2718  -12.1658    4.7536 C   0  0  0  0  0  0  0  0  0  0  0  0
   20.9846  -12.5529    5.8681 C   0  0  0  0  0  0  0  0  0  0  0  0
   20.2968  -13.0952    6.9285 C   0  0  0  0  0  0  0  0  0  0  0  0
   18.9172  -13.2679    6.9213 C   0  0  0  0  0  0  0  0  0  0  0  0
   16.8182  -15.4700    5.6347 C   0  0  0  0  0  0  0  0  0  0  0  0
   16.0658  -15.9938    6.4753 O   0  0  0  0  0  0  0  0  0  0  0  0
   14.5283  -20.5872    2.2796 O   0  0  0  0  0  0  0  0  0  0  0  0
   15.6020  -20.0246    2.9286 C   0  0  0  0  0  0  0  0  0  0  0  0
   16.7107  -19.6315    2.2087 C   0  0  0  0  0  0  0  0  0  0  0  0
   17.8084  -19.0612    2.8357 C   0  0  0  0  0  0  0  0  0  0  0  0
   17.7773  -18.8896    4.2068 C   0  0  0  0  0  0  0  0  0  0  0  0
   18.9032  -18.2889    4.9664 C   0  0  0  0  0  0  0  0  0  0  0  0
   18.3907  -17.3398    6.0485 C   0  0  2  0  0  0  0  0  0  0  0  0
   18.0838  -16.0870    5.4013 N   0  0  0  0  0  0  0  0  0  0  0  0
   19.4801  -17.1215    7.0216 C   0  0  0  0  0  0  0  0  0  0  0  0
   20.5811  -16.5784    6.6621 O   0  0  0  0  0  0  0  0  0  0  0  0
   16.6671  -19.2861    4.9066 C   0  0  0  0  0  0  0  0  0  0  0  0
   15.5757  -19.8513    4.2967 C   0  0  0  0  0  0  0  0  0  0  0  0
   19.1345  -16.0920   10.8534 O   0  0  0  0  0  0  0  0  0  0  0  0
   19.8098  -17.2962   10.7397 C   0  0  0  0  0  0  0  0  0  0  0  0
   20.3798  -17.4386    9.3319 C   0  0  2  0  0  0  0  0  0  0  0  0
   19.2988  -17.5202    8.3673 N   0  0  0  0  0  0  0  0  0  0  0  0
   21.3162  -18.5685    9.2192 C   0  0  0  0  0  0  0  0  0  0  0  0
   20.9894  -19.7177    8.8579 O   0  0  0  0  0  0  0  0  0  0  0  0
   22.6473  -18.3355    9.5364 O   0  0  0  0  0  0  0  0  0  0  0  0
  2  1  1  1
  3  4  1  0
  3  2  1  0
  4  5  2  0
  5  6  1  0
  7  6  2  0
  8  7  1  0
  9  4  1  0
  9  8  2  0
 10 19  1  0
 10  2  1  0
 11 10  2  0
 13 12  1  0
 14 13  2  0
 15 14  1  0
 16 15  2  0
 16 22  1  0
 18 17  1  6
 17 16  1  0
 18 19  1  0
 20 18  1  0
 21 20  2  0
 22 23  2  0
 23 13  1  0
 24 25  1  0
 26 25  1  1
 26 28  1  0
 26 27  1  0
 27 20  1  0
 28 30  1  0
 29 28  2  0
M  END
$$$$
