WNA.pdb
     RDKit          3D

 28 29  0  0  1  0  0  0  0  0999 V2000
   27.1535  -21.4611  -15.6630 N   0  0  0  0  0  0  0  0  0  0  0  0
   25.8074  -21.2900  -15.1815 C   0  0  1  0  0  0  0  0  0  0  0  0
   25.6276  -20.0268  -14.4045 C   0  0  0  0  0  0  0  0  0  0  0  0
   26.3030  -20.0607  -13.0891 C   0  0  0  0  0  0  0  0  0  0  0  0
   27.6435  -19.7229  -12.8889 C   0  0  0  0  0  0  0  0  0  0  0  0
   27.9552  -19.8345  -11.5870 N   0  0  0  0  0  0  0  0  0  0  0  0
   26.8625  -20.2385  -10.9047 C   0  0  0  0  0  0  0  0  0  0  0  0
   26.6325  -20.5087   -9.5750 C   0  0  0  0  0  0  0  0  0  0  0  0
   25.3743  -20.9221   -9.1707 C   0  0  0  0  0  0  0  0  0  0  0  0
   24.3499  -21.0695  -10.0652 C   0  0  0  0  0  0  0  0  0  0  0  0
   24.6024  -20.7908  -11.4076 C   0  0  0  0  0  0  0  0  0  0  0  0
   25.8407  -20.3788  -11.8317 C   0  0  0  0  0  0  0  0  0  0  0  0
   24.8751  -21.4560  -16.2967 C   0  0  0  0  0  0  0  0  0  0  0  0
   25.1484  -20.9135  -17.3961 O   0  0  0  0  0  0  0  0  0  0  0  0
   21.2157  -22.4755  -19.5997 N   0  0  0  0  0  0  0  0  0  0  0  0
   22.0287  -23.6290  -19.2817 C   0  0  0  0  0  0  0  0  0  0  0  0
   21.9618  -24.5773  -20.1011 O   0  0  0  0  0  0  0  0  0  0  0  0
   22.8401  -23.5837  -18.0550 C   0  0  0  0  0  0  0  0  0  0  0  0
   22.7190  -22.2787  -17.3611 C   0  0  2  0  0  0  0  0  0  0  0  0
   23.6716  -22.1877  -16.2401 N   0  0  0  0  0  0  0  0  0  0  0  0
   21.3363  -22.1696  -16.7814 C   0  0  0  0  0  0  0  0  0  0  0  0
   20.4000  -22.9288  -17.0799 O   0  0  0  0  0  0  0  0  0  0  0  0
   19.0806  -19.6582  -15.5836 C   0  0  0  0  0  0  0  0  0  0  0  0
   19.7205  -20.9830  -15.2254 C   0  0  2  0  0  0  0  0  0  0  0  0
   21.0097  -21.1517  -15.8215 N   0  0  0  0  0  0  0  0  0  0  0  0
   18.8097  -22.1025  -15.4922 C   0  0  0  0  0  0  0  0  0  0  0  0
   17.4303  -21.9982  -15.2386 O   0  0  0  0  0  0  0  0  0  0  0  0
   19.1958  -23.1963  -15.9520 O   0  0  0  0  0  0  0  0  0  0  0  0
  2  1  1  6
  3  2  1  0
  4  5  2  0
  4  3  1  0
  6  5  1  0
  7 12  2  0
  7  6  1  0
  8  7  1  0
  9 10  1  0
  9  8  2  0
 10 11  2  0
 11 12  1  0
 12  4  1  0
 13 14  2  0
 13  2  1  0
 16 17  2  0
 16 15  1  0
 18 16  1  0
 19 18  1  1
 19 20  1  0
 20 13  1  0
 21 25  1  0
 21 19  1  0
 22 21  2  0
 24 23  1  6
 24 25  1  0
 24 26  1  0
 26 27  1  0
 28 26  2  0
M  END
$$$$
