WNA.pdb
     RDKit          3D

 28 29  0  0  1  0  0  0  0  0999 V2000
   25.6786  -32.5267  -13.7297 N   0  0  0  0  0  0  0  0  0  0  0  0
   26.6039  -33.2363  -12.8850 C   0  0  1  0  0  0  0  0  0  0  0  0
   27.9768  -33.3140  -13.4688 C   0  0  0  0  0  0  0  0  0  0  0  0
   28.0272  -34.1116  -14.7133 C   0  0  0  0  0  0  0  0  0  0  0  0
   28.4741  -33.6184  -15.9414 C   0  0  0  0  0  0  0  0  0  0  0  0
   28.4181  -34.5855  -16.8720 N   0  0  0  0  0  0  0  0  0  0  0  0
   27.9454  -35.7162  -16.3055 C   0  0  0  0  0  0  0  0  0  0  0  0
   27.6894  -36.9762  -16.7962 C   0  0  0  0  0  0  0  0  0  0  0  0
   27.1878  -37.9494  -15.9484 C   0  0  0  0  0  0  0  0  0  0  0  0
   26.9392  -37.6873  -14.6290 C   0  0  0  0  0  0  0  0  0  0  0  0
   27.2053  -36.4053  -14.1507 C   0  0  0  0  0  0  0  0  0  0  0  0
   27.7033  -35.4248  -14.9715 C   0  0  0  0  0  0  0  0  0  0  0  0
   26.5479  -32.6743  -11.5353 C   0  0  0  0  0  0  0  0  0  0  0  0
   26.7616  -31.4458  -11.3850 O   0  0  0  0  0  0  0  0  0  0  0  0
   24.5806  -30.1190   -8.2809 N   0  0  0  0  0  0  0  0  0  0  0  0
   24.8940  -31.3812   -7.6474 C   0  0  0  0  0  0  0  0  0  0  0  0
   25.0942  -31.3273   -6.4096 O   0  0  0  0  0  0  0  0  0  0  0  0
   24.9473  -32.5833   -8.4944 C   0  0  0  0  0  0  0  0  0  0  0  0
   26.3149  -32.8350   -9.0097 C   0  0  2  0  0  0  0  0  0  0  0  0
   26.2691  -33.4104  -10.3659 N   0  0  0  0  0  0  0  0  0  0  0  0
   26.9854  -33.8438   -8.1195 C   0  0  0  0  0  0  0  0  0  0  0  0
   26.6874  -35.0490   -8.0941 O   0  0  0  0  0  0  0  0  0  0  0  0
   29.9520  -33.7500   -5.7163 C   0  0  0  0  0  0  0  0  0  0  0  0
   28.6998  -34.3514   -6.3187 C   0  0  2  0  0  0  0  0  0  0  0  0
   28.0392  -33.4602   -7.2215 N   0  0  0  0  0  0  0  0  0  0  0  0
   27.8116  -34.8825   -5.2778 C   0  0  0  0  0  0  0  0  0  0  0  0
   28.0537  -36.1315   -4.6786 O   0  0  0  0  0  0  0  0  0  0  0  0
   26.8051  -34.2697   -4.8676 O   0  0  0  0  0  0  0  0  0  0  0  0
  2  1  1  6
  3  2  1  0
  4  5  2  0
  4  3  1  0
  6  5  1  0
  7 12  2  0
  7  6  1  0
  8  7  1  0
  9 10  1  0
  9  8  2  0
 10 11  2  0
 11 12  1  0
 12  4  1  0
 13 14  2  0
 13  2  1  0
 16 17  2  0
 16 15  1  0
 18 16  1  0
 19 18  1  1
 19 20  1  0
 20 13  1  0
 21 25  1  0
 21 19  1  0
 22 21  2  0
 24 23  1  1
 24 25  1  0
 24 26  1  0
 26 27  1  0
 28 26  2  0
M  END
$$$$
