WNA.pdb
     RDKit          3D

 28 29  0  0  1  0  0  0  0  0999 V2000
   26.1030  -18.9451  -11.5362 N   0  0  0  0  0  0  0  0  0  0  0  0
   26.6061  -20.2670  -11.8059 C   0  0  1  0  0  0  0  0  0  0  0  0
   26.1701  -21.2701  -10.7882 C   0  0  0  0  0  0  0  0  0  0  0  0
   26.3187  -20.7816   -9.4001 C   0  0  0  0  0  0  0  0  0  0  0  0
   25.2465  -20.4547   -8.5667 C   0  0  0  0  0  0  0  0  0  0  0  0
   25.7022  -20.0625   -7.3654 N   0  0  0  0  0  0  0  0  0  0  0  0
   27.0513  -20.1155   -7.3664 C   0  0  0  0  0  0  0  0  0  0  0  0
   28.0032  -19.8230   -6.4166 C   0  0  0  0  0  0  0  0  0  0  0  0
   29.3445  -19.9748   -6.7258 C   0  0  0  0  0  0  0  0  0  0  0  0
   29.7479  -20.4100   -7.9583 C   0  0  0  0  0  0  0  0  0  0  0  0
   28.7688  -20.7014   -8.9069 C   0  0  0  0  0  0  0  0  0  0  0  0
   27.4337  -20.5596   -8.6233 C   0  0  0  0  0  0  0  0  0  0  0  0
   26.2905  -20.6267  -13.1884 C   0  0  0  0  0  0  0  0  0  0  0  0
   25.1601  -20.3260  -13.6460 O   0  0  0  0  0  0  0  0  0  0  0  0
   28.0251  -19.3480  -16.5086 N   0  0  0  0  0  0  0  0  0  0  0  0
   28.7011  -20.5994  -16.7721 C   0  0  0  0  0  0  0  0  0  0  0  0
   29.7660  -20.5081  -17.4300 O   0  0  0  0  0  0  0  0  0  0  0  0
   28.0910  -21.8349  -16.2557 C   0  0  0  0  0  0  0  0  0  0  0  0
   26.8549  -21.5592  -15.4842 C   0  0  2  0  0  0  0  0  0  0  0  0
   27.1657  -21.2961  -14.0677 N   0  0  0  0  0  0  0  0  0  0  0  0
   25.9784  -22.7798  -15.5293 C   0  0  0  0  0  0  0  0  0  0  0  0
   26.3732  -23.9243  -15.2535 O   0  0  0  0  0  0  0  0  0  0  0  0
   23.6028  -24.1377  -14.1944 C   0  0  0  0  0  0  0  0  0  0  0  0
   23.6157  -23.6984  -15.6434 C   0  0  2  0  0  0  0  0  0  0  0  0
   24.5947  -22.6890  -15.9050 N   0  0  0  0  0  0  0  0  0  0  0  0
   22.2700  -23.3300  -16.0990 C   0  0  0  0  0  0  0  0  0  0  0  0
   21.3301  -24.3090  -16.4674 O   0  0  0  0  0  0  0  0  0  0  0  0
   21.8837  -22.1467  -16.1860 O   0  0  0  0  0  0  0  0  0  0  0  0
  2  1  1  1
  3  2  1  0
  4  5  2  0
  4  3  1  0
  6  5  1  0
  7 12  2  0
  7  6  1  0
  8  7  1  0
  9 10  1  0
  9  8  2  0
 10 11  2  0
 11 12  1  0
 12  4  1  0
 13 14  2  0
 13  2  1  0
 16 17  2  0
 16 15  1  0
 18 16  1  0
 19 18  1  6
 19 20  1  0
 20 13  1  0
 21 25  1  0
 21 19  1  0
 22 21  2  0
 24 23  1  1
 24 25  1  0
 24 26  1  0
 26 27  1  0
 28 26  2  0
M  END
$$$$
