WNA.pdb
     RDKit          3D

 28 29  0  0  1  0  0  0  0  0999 V2000
   24.9885  -20.5171   -8.4804 N   0  0  0  0  0  0  0  0  0  0  0  0
   26.1736  -20.4351   -9.2940 C   0  0  1  0  0  0  0  0  0  0  0  0
   27.4186  -20.7645   -8.5367 C   0  0  0  0  0  0  0  0  0  0  0  0
   27.6760  -19.8292   -7.4203 C   0  0  0  0  0  0  0  0  0  0  0  0
   27.0837  -18.5697   -7.3022 C   0  0  0  0  0  0  0  0  0  0  0  0
   27.5015  -17.9701   -6.1751 N   0  0  0  0  0  0  0  0  0  0  0  0
   28.3590  -18.7901   -5.5308 C   0  0  0  0  0  0  0  0  0  0  0  0
   29.0694  -18.6718   -4.3581 C   0  0  0  0  0  0  0  0  0  0  0  0
   29.8935  -19.7081   -3.9523 C   0  0  0  0  0  0  0  0  0  0  0  0
   30.0195  -20.8514   -4.6927 C   0  0  0  0  0  0  0  0  0  0  0  0
   29.2916  -20.9525   -5.8773 C   0  0  0  0  0  0  0  0  0  0  0  0
   28.4679  -19.9393   -6.2993 C   0  0  0  0  0  0  0  0  0  0  0  0
   25.9750  -21.2235  -10.5103 C   0  0  0  0  0  0  0  0  0  0  0  0
   26.0106  -22.4763  -10.4285 O   0  0  0  0  0  0  0  0  0  0  0  0
   24.4907  -19.0421  -12.8279 N   0  0  0  0  0  0  0  0  0  0  0  0
   23.6596  -20.0617  -13.4299 C   0  0  0  0  0  0  0  0  0  0  0  0
   22.5302  -19.6759  -13.8180 O   0  0  0  0  0  0  0  0  0  0  0  0
   24.2039  -21.4252  -13.5288 C   0  0  0  0  0  0  0  0  0  0  0  0
   25.5894  -21.5057  -13.0063 C   0  0  2  0  0  0  0  0  0  0  0  0
   25.7430  -20.6846  -11.7920 N   0  0  0  0  0  0  0  0  0  0  0  0
   26.5263  -20.9498  -14.0422 C   0  0  0  0  0  0  0  0  0  0  0  0
   26.7167  -19.7358  -14.2212 O   0  0  0  0  0  0  0  0  0  0  0  0
   29.1996  -22.4636  -16.2836 C   0  0  0  0  0  0  0  0  0  0  0  0
   28.2414  -21.3685  -15.8650 C   0  0  2  0  0  0  0  0  0  0  0  0
   27.2761  -21.8160  -14.9091 N   0  0  0  0  0  0  0  0  0  0  0  0
   27.6383  -20.7151  -17.0328 C   0  0  0  0  0  0  0  0  0  0  0  0
   28.3583  -19.7827  -17.8009 O   0  0  0  0  0  0  0  0  0  0  0  0
   26.4707  -20.9423  -17.4093 O   0  0  0  0  0  0  0  0  0  0  0  0
  2  1  1  1
  3  2  1  0
  4  5  2  0
  4  3  1  0
  6  5  1  0
  7 12  2  0
  7  6  1  0
  8  7  1  0
  9 10  1  0
  9  8  2  0
 10 11  2  0
 11 12  1  0
 12  4  1  0
 13 14  2  0
 13  2  1  0
 16 17  2  0
 16 15  1  0
 18 16  1  0
 19 18  1  6
 19 20  1  0
 20 13  1  0
 21 25  1  0
 21 19  1  0
 22 21  2  0
 24 23  1  6
 24 25  1  0
 24 26  1  0
 26 27  1  0
 28 26  2  0
M  END
$$$$
