WNA.pdb
     RDKit          3D

 28 29  0  0  1  0  0  0  0  0999 V2000
-3785.0720-3758.531726913.2617 N   0  0  0  0  0  0  0  0  0  0  0  0
-3784.2598-3759.612526913.7559 C   0  0  1  0  0  0  0  0  0  0  0  0
-3783.2996-3760.129626912.7363 C   0  0  0  0  0  0  0  0  0  0  0  0
-3783.1506-3759.222726911.5742 C   0  0  0  0  0  0  0  0  0  0  0  0
-3781.9272-3758.907026910.9805 C   0  0  0  0  0  0  0  0  0  0  0  0
-3782.1218-3758.078426909.9473 N   0  0  0  0  0  0  0  0  0  0  0  0
-3783.4419-3757.825426909.8262 C   0  0  0  0  0  0  0  0  0  0  0  0
-3784.1738-3757.053226908.9512 C   0  0  0  0  0  0  0  0  0  0  0  0
-3785.5500-3756.986826909.0859 C   0  0  0  0  0  0  0  0  0  0  0  0
-3786.2026-3757.673326910.0781 C   0  0  0  0  0  0  0  0  0  0  0  0
-3785.4443-3758.450226910.9453 C   0  0  0  0  0  0  0  0  0  0  0  0
-3784.0796-3758.531726910.8340 C   0  0  0  0  0  0  0  0  0  0  0  0
-3783.6448-3759.208726915.0176 C   0  0  0  0  0  0  0  0  0  0  0  0
-3783.8008-3759.942926916.0273 O   0  0  0  0  0  0  0  0  0  0  0  0
-3785.6946-3755.720026913.6973 N   0  0  0  0  0  0  0  0  0  0  0  0
-3784.8398-3755.025426914.6328 C   0  0  0  0  0  0  0  0  0  0  0  0
-3785.0300-3753.787626914.7188 O   0  0  0  0  0  0  0  0  0  0  0  0
-3783.8491-3755.815926915.3770 C   0  0  0  0  0  0  0  0  0  0  0  0
-3783.1323-3756.774426914.5020 C   0  0  2  0  0  0  0  0  0  0  0  0
-3782.8760-3758.041726915.2070 N   0  0  0  0  0  0  0  0  0  0  0  0
-3781.7979-3756.187026914.1367 C   0  0  0  0  0  0  0  0  0  0  0  0
-3780.7258-3756.806426914.2168 O   0  0  0  0  0  0  0  0  0  0  0  0
-3780.1936-3753.380426912.3730 C   0  0  0  0  0  0  0  0  0  0  0  0
-3781.2400-3754.474126912.3477 C   0  0  2  0  0  0  0  0  0  0  0  0
-3781.6843-3754.836426913.6602 N   0  0  0  0  0  0  0  0  0  0  0  0
-3780.7939-3755.624326911.5547 C   0  0  0  0  0  0  0  0  0  0  0  0
-3780.1919-3756.740226912.1543 O   0  0  0  0  0  0  0  0  0  0  0  0
-3780.9194-3755.679026910.3086 O   0  0  0  0  0  0  0  0  0  0  0  0
  2  1  1  6
  3  2  1  0
  4  5  2  0
  4  3  1  0
  6  5  1  0
  7 12  2  0
  7  6  1  0
  8  7  1  0
  9 10  1  0
  9  8  2  0
 10 11  2  0
 11 12  1  0
 12  4  1  0
 13 14  2  0
 13  2  1  0
 16 17  2  0
 16 15  1  0
 18 16  1  0
 19 18  1  1
 19 20  1  0
 20 13  1  0
 21 25  1  0
 21 19  1  0
 22 21  2  0
 24 23  1  1
 24 25  1  0
 24 26  1  0
 26 27  1  0
 28 26  2  0
M  END
$$$$
