WNA.pdb
     RDKit          3D

 28 29  0  0  1  0  0  0  0  0999 V2000
   15.1479  -15.8842    4.5694 N   0  0  0  0  0  0  0  0  0  0  0  0
   16.4833  -16.4020    4.7174 C   0  0  1  0  0  0  0  0  0  0  0  0
   17.2410  -15.7395    5.8215 C   0  0  0  0  0  0  0  0  0  0  0  0
   17.7546  -14.4046    5.4450 C   0  0  0  0  0  0  0  0  0  0  0  0
   17.1359  -13.5604    4.5200 C   0  0  0  0  0  0  0  0  0  0  0  0
   17.8294  -12.4154    4.4082 N   0  0  0  0  0  0  0  0  0  0  0  0
   18.8984  -12.4649    5.2315 C   0  0  0  0  0  0  0  0  0  0  0  0
   19.9188  -11.5813    5.4995 C   0  0  0  0  0  0  0  0  0  0  0  0
   20.8998  -11.9289    6.4130 C   0  0  0  0  0  0  0  0  0  0  0  0
   20.8791  -13.1350    7.0580 C   0  0  0  0  0  0  0  0  0  0  0  0
   19.8373  -14.0164    6.7734 C   0  0  0  0  0  0  0  0  0  0  0  0
   18.8535  -13.6937    5.8727 C   0  0  0  0  0  0  0  0  0  0  0  0
   16.4237  -17.8608    4.8107 C   0  0  0  0  0  0  0  0  0  0  0  0
   15.4412  -18.3877    5.3891 O   0  0  0  0  0  0  0  0  0  0  0  0
   17.0472  -20.3401    0.9500 N   0  0  0  0  0  0  0  0  0  0  0  0
   16.6242  -20.7176    2.2808 C   0  0  0  0  0  0  0  0  0  0  0  0
   15.3836  -20.8148    2.4440 O   0  0  0  0  0  0  0  0  0  0  0  0
   17.6643  -20.9473    3.2959 C   0  0  0  0  0  0  0  0  0  0  0  0
   17.3924  -20.1952    4.5447 C   0  0  2  0  0  0  0  0  0  0  0  0
   17.3958  -18.7424    4.2961 N   0  0  0  0  0  0  0  0  0  0  0  0
   18.4932  -20.4822    5.5275 C   0  0  0  0  0  0  0  0  0  0  0  0
   18.7554  -21.6165    5.9594 O   0  0  0  0  0  0  0  0  0  0  0  0
   21.4478  -18.6346    6.9773 C   0  0  0  0  0  0  0  0  0  0  0  0
   20.2793  -19.5905    7.0940 C   0  0  2  0  0  0  0  0  0  0  0  0
   19.3283  -19.4304    6.0377 N   0  0  0  0  0  0  0  0  0  0  0  0
   19.6746  -19.5299    8.4300 C   0  0  0  0  0  0  0  0  0  0  0  0
   20.3811  -19.9498    9.5712 O   0  0  0  0  0  0  0  0  0  0  0  0
   18.5173  -19.1098    8.6322 O   0  0  0  0  0  0  0  0  0  0  0  0
  2  1  1  1
  3  2  1  0
  4  5  2  0
  4  3  1  0
  6  5  1  0
  7 12  2  0
  7  6  1  0
  8  7  1  0
  9 10  1  0
  9  8  2  0
 10 11  2  0
 11 12  1  0
 12  4  1  0
 13 14  2  0
 13  2  1  0
 16 17  2  0
 16 15  1  0
 18 16  1  0
 19 18  1  6
 19 20  1  0
 20 13  1  0
 21 25  1  0
 21 19  1  0
 22 21  2  0
 24 23  1  1
 24 25  1  0
 24 26  1  0
 26 27  1  0
 28 26  2  0
M  END
$$$$
