WNA.pdb
     RDKit          3D

 28 29  0  0  1  0  0  0  0  0999 V2000
   24.4739  -20.0859  -10.2498 N   0  0  0  0  0  0  0  0  0  0  0  0
   24.5473  -20.3118  -11.6700 C   0  0  1  0  0  0  0  0  0  0  0  0
   25.3909  -21.4926  -12.0247 C   0  0  0  0  0  0  0  0  0  0  0  0
   26.8374  -21.2378  -11.8511 C   0  0  0  0  0  0  0  0  0  0  0  0
   27.6082  -21.7758  -10.8179 C   0  0  0  0  0  0  0  0  0  0  0  0
   28.8849  -21.3769  -10.9425 N   0  0  0  0  0  0  0  0  0  0  0  0
   28.9956  -20.5848  -12.0303 C   0  0  0  0  0  0  0  0  0  0  0  0
   30.0548  -19.9179  -12.6023 C   0  0  0  0  0  0  0  0  0  0  0  0
   29.8478  -19.1595  -13.7423 C   0  0  0  0  0  0  0  0  0  0  0  0
   28.6102  -19.0564  -14.3158 C   0  0  0  0  0  0  0  0  0  0  0  0
   27.5500  -19.7395  -13.7219 C   0  0  0  0  0  0  0  0  0  0  0  0
   27.7310  -20.4979  -12.5927 C   0  0  0  0  0  0  0  0  0  0  0  0
   23.1921  -20.3452  -12.2203 C   0  0  0  0  0  0  0  0  0  0  0  0
   22.2421  -20.6631  -11.4627 O   0  0  0  0  0  0  0  0  0  0  0  0
   22.5751  -17.2029  -16.0186 N   0  0  0  0  0  0  0  0  0  0  0  0
   21.6029  -17.8557  -15.1693 C   0  0  0  0  0  0  0  0  0  0  0  0
   21.0245  -17.1105  -14.3415 O   0  0  0  0  0  0  0  0  0  0  0  0
   21.3878  -19.3000  -15.3512 C   0  0  0  0  0  0  0  0  0  0  0  0
   21.4737  -20.0368  -14.0671 C   0  0  2  0  0  0  0  0  0  0  0  0
   22.8561  -20.0450  -13.5560 N   0  0  0  0  0  0  0  0  0  0  0  0
   21.0782  -21.4672  -14.3068 C   0  0  0  0  0  0  0  0  0  0  0  0
   21.7226  -22.2516  -15.0220 O   0  0  0  0  0  0  0  0  0  0  0  0
   19.5866  -24.1986  -12.6178 C   0  0  0  0  0  0  0  0  0  0  0  0
   19.4584  -23.3736  -13.8810 C   0  0  2  0  0  0  0  0  0  0  0  0
   19.8983  -22.0240  -13.7052 N   0  0  0  0  0  0  0  0  0  0  0  0
   18.1069  -23.4719  -14.4450 C   0  0  0  0  0  0  0  0  0  0  0  0
   17.6096  -24.6900  -14.9416 O   0  0  0  0  0  0  0  0  0  0  0  0
   17.3297  -22.4985  -14.5175 O   0  0  0  0  0  0  0  0  0  0  0  0
  2  1  1  1
  3  2  1  0
  4  5  2  0
  4  3  1  0
  6  5  1  0
  7 12  2  0
  7  6  1  0
  8  7  1  0
  9 10  1  0
  9  8  2  0
 10 11  2  0
 11 12  1  0
 12  4  1  0
 13 14  2  0
 13  2  1  0
 16 17  2  0
 16 15  1  0
 18 16  1  0
 19 18  1  6
 19 20  1  0
 20 13  1  0
 21 25  1  0
 21 19  1  0
 22 21  2  0
 24 23  1  1
 24 25  1  0
 24 26  1  0
 26 27  1  0
 28 26  2  0
M  END
$$$$
