WNA.pdb
     RDKit          3D

 28 29  0  0  1  0  0  0  0  0999 V2000
   27.7930  -22.1928  -11.0107 N   0  0  0  0  0  0  0  0  0  0  0  0
   26.7680  -21.3290  -10.4849 C   0  0  1  0  0  0  0  0  0  0  0  0
   27.2962  -19.9985  -10.0577 C   0  0  0  0  0  0  0  0  0  0  0  0
   28.2469  -20.0937   -8.9287 C   0  0  0  0  0  0  0  0  0  0  0  0
   29.6118  -20.3518   -9.0746 C   0  0  0  0  0  0  0  0  0  0  0  0
   30.2089  -20.3575   -7.8713 N   0  0  0  0  0  0  0  0  0  0  0  0
   29.2844  -20.1109   -6.9187 C   0  0  0  0  0  0  0  0  0  0  0  0
   29.3519  -20.0125   -5.5478 C   0  0  0  0  0  0  0  0  0  0  0  0
   28.2000  -19.7504   -4.8252 C   0  0  0  0  0  0  0  0  0  0  0  0
   26.9912  -19.5867   -5.4441 C   0  0  0  0  0  0  0  0  0  0  0  0
   26.9432  -19.6897   -6.8335 C   0  0  0  0  0  0  0  0  0  0  0  0
   28.0713  -19.9479   -7.5708 C   0  0  0  0  0  0  0  0  0  0  0  0
   25.6596  -21.2659  -11.4378 C   0  0  0  0  0  0  0  0  0  0  0  0
   25.9221  -21.2323  -12.6656 O   0  0  0  0  0  0  0  0  0  0  0  0
   21.2730  -22.8955  -13.7171 N   0  0  0  0  0  0  0  0  0  0  0  0
   20.9600  -22.2905  -12.4409 C   0  0  0  0  0  0  0  0  0  0  0  0
   19.7583  -21.9667  -12.2788 O   0  0  0  0  0  0  0  0  0  0  0  0
   22.0550  -22.1153  -11.4738 C   0  0  0  0  0  0  0  0  0  0  0  0
   23.1988  -21.3777  -12.0627 C   0  0  2  0  0  0  0  0  0  0  0  0
   24.2946  -21.2387  -11.0869 N   0  0  0  0  0  0  0  0  0  0  0  0
   22.7424  -19.9910  -12.4215 C   0  0  0  0  0  0  0  0  0  0  0  0
   22.4503  -19.1216  -11.5844 O   0  0  0  0  0  0  0  0  0  0  0  0
   22.7348  -17.9199  -15.5910 C   0  0  0  0  0  0  0  0  0  0  0  0
   22.2145  -18.2739  -14.2138 C   0  0  2  0  0  0  0  0  0  0  0  0
   22.6143  -19.5810  -13.7924 N   0  0  0  0  0  0  0  0  0  0  0  0
   20.7662  -18.0545  -14.1203 C   0  0  0  0  0  0  0  0  0  0  0  0
   20.2391  -16.8001  -13.7648 O   0  0  0  0  0  0  0  0  0  0  0  0
   19.9284  -18.9511  -14.3464 O   0  0  0  0  0  0  0  0  0  0  0  0
  2  1  1  6
  3  2  1  0
  4  5  2  0
  4  3  1  0
  6  5  1  0
  7 12  2  0
  7  6  1  0
  8  7  1  0
  9 10  1  0
  9  8  2  0
 10 11  2  0
 11 12  1  0
 12  4  1  0
 13 14  2  0
 13  2  1  0
 16 17  2  0
 16 15  1  0
 18 16  1  0
 19 18  1  1
 19 20  1  0
 20 13  1  0
 21 25  1  0
 21 19  1  0
 22 21  2  0
 24 23  1  6
 24 25  1  0
 24 26  1  0
 26 27  1  0
 28 26  2  0
M  END
$$$$
