WNA.pdb
     RDKit          3D

 28 29  0  0  1  0  0  0  0  0999 V2000
   27.6263  -21.8584  -10.2032 N   0  0  0  0  0  0  0  0  0  0  0  0
   26.7643  -20.7545   -9.8689 C   0  0  1  0  0  0  0  0  0  0  0  0
   27.4469  -19.7201   -9.0346 C   0  0  0  0  0  0  0  0  0  0  0  0
   28.2721  -20.3056   -7.9558 C   0  0  0  0  0  0  0  0  0  0  0  0
   29.1390  -21.3865   -8.1326 C   0  0  0  0  0  0  0  0  0  0  0  0
   29.7589  -21.6716   -6.9755 N   0  0  0  0  0  0  0  0  0  0  0  0
   29.3334  -20.8134   -6.0239 C   0  0  0  0  0  0  0  0  0  0  0  0
   29.6347  -20.6668   -4.6891 C   0  0  0  0  0  0  0  0  0  0  0  0
   29.0130  -19.6708   -3.9549 C   0  0  0  0  0  0  0  0  0  0  0  0
   28.1021  -18.8256   -4.5269 C   0  0  0  0  0  0  0  0  0  0  0  0
   27.8105  -18.9897   -5.8802 C   0  0  0  0  0  0  0  0  0  0  0  0
   28.4145  -19.9688   -6.6283 C   0  0  0  0  0  0  0  0  0  0  0  0
   26.1489  -20.2399  -11.0923 C   0  0  0  0  0  0  0  0  0  0  0  0
   26.8706  -19.6279  -11.9182 O   0  0  0  0  0  0  0  0  0  0  0  0
   25.1341  -23.0415  -15.1395 N   0  0  0  0  0  0  0  0  0  0  0  0
   24.2754  -23.0793  -13.9759 C   0  0  0  0  0  0  0  0  0  0  0  0
   23.1850  -23.6811  -14.1308 O   0  0  0  0  0  0  0  0  0  0  0  0
   24.7500  -22.4235  -12.7471 C   0  0  0  0  0  0  0  0  0  0  0  0
   24.3130  -21.0083  -12.6728 C   0  0  2  0  0  0  0  0  0  0  0  0
   24.7867  -20.3754  -11.4288 N   0  0  0  0  0  0  0  0  0  0  0  0
   22.8104  -20.9703  -12.6484 C   0  0  0  0  0  0  0  0  0  0  0  0
   22.0948  -21.3257  -13.5989 O   0  0  0  0  0  0  0  0  0  0  0  0
   20.5509  -18.8268  -12.3836 C   0  0  0  0  0  0  0  0  0  0  0  0
   20.7428  -20.0448  -11.5048 C   0  0  2  0  0  0  0  0  0  0  0  0
   22.0962  -20.5072  -11.4910 N   0  0  0  0  0  0  0  0  0  0  0  0
   19.7758  -21.0977  -11.8373 C   0  0  0  0  0  0  0  0  0  0  0  0
   18.4986  -21.1284  -11.2495 O   0  0  0  0  0  0  0  0  0  0  0  0
   20.0226  -22.0140  -12.6474 O   0  0  0  0  0  0  0  0  0  0  0  0
  2  1  1  6
  3  2  1  0
  4  5  2  0
  4  3  1  0
  6  5  1  0
  7 12  2  0
  7  6  1  0
  8  7  1  0
  9 10  1  0
  9  8  2  0
 10 11  2  0
 11 12  1  0
 12  4  1  0
 13 14  2  0
 13  2  1  0
 16 17  2  0
 16 15  1  0
 18 16  1  0
 19 18  1  1
 19 20  1  0
 20 13  1  0
 21 25  1  0
 21 19  1  0
 22 21  2  0
 24 23  1  6
 24 25  1  0
 24 26  1  0
 26 27  1  0
 28 26  2  0
M  END
$$$$
