WNA.pdb
     RDKit          3D

 28 29  0  0  1  0  0  0  0  0999 V2000
   27.4302  -20.2149  -12.0244 N   0  0  0  0  0  0  0  0  0  0  0  0
   26.6478  -21.3981  -12.2714 C   0  0  1  0  0  0  0  0  0  0  0  0
   25.8875  -21.8501  -11.0674 C   0  0  0  0  0  0  0  0  0  0  0  0
   26.2743  -21.1243   -9.8382 C   0  0  0  0  0  0  0  0  0  0  0  0
   25.3771  -20.4268   -9.0261 C   0  0  0  0  0  0  0  0  0  0  0  0
   26.0263  -19.8926   -7.9784 N   0  0  0  0  0  0  0  0  0  0  0  0
   27.3359  -20.2101   -8.0623 C   0  0  0  0  0  0  0  0  0  0  0  0
   28.4245  -19.9215   -7.2714 C   0  0  0  0  0  0  0  0  0  0  0  0
   29.6745  -20.3960   -7.6320 C   0  0  0  0  0  0  0  0  0  0  0  0
   29.8541  -21.1476   -8.7608 C   0  0  0  0  0  0  0  0  0  0  0  0
   28.7392  -21.4296   -9.5487 C   0  0  0  0  0  0  0  0  0  0  0  0
   27.4906  -20.9712   -9.2112 C   0  0  0  0  0  0  0  0  0  0  0  0
   25.8283  -21.1898  -13.4653 C   0  0  0  0  0  0  0  0  0  0  0  0
   26.1480  -20.2738  -14.2630 O   0  0  0  0  0  0  0  0  0  0  0  0
   26.9061  -21.8877  -16.1155 N   0  0  0  0  0  0  0  0  0  0  0  0
   26.7858  -23.2875  -15.7710 C   0  0  0  0  0  0  0  0  0  0  0  0
   27.8077  -23.9842  -15.9844 O   0  0  0  0  0  0  0  0  0  0  0  0
   25.5056  -23.7533  -15.2149 C   0  0  0  0  0  0  0  0  0  0  0  0
   24.5246  -22.6485  -15.0875 C   0  0  2  0  0  0  0  0  0  0  0  0
   24.6869  -21.9454  -13.8023 N   0  0  0  0  0  0  0  0  0  0  0  0
   23.1393  -23.2319  -15.1049 C   0  0  0  0  0  0  0  0  0  0  0  0
   22.6779  -23.8883  -16.0527 O   0  0  0  0  0  0  0  0  0  0  0  0
   20.4292  -24.0877  -12.7086 C   0  0  0  0  0  0  0  0  0  0  0  0
   20.8629  -23.4284  -14.0008 C   0  0  2  0  0  0  0  0  0  0  0  0
   22.2444  -23.0583  -13.9944 N   0  0  0  0  0  0  0  0  0  0  0  0
   19.9694  -22.3200  -14.3579 C   0  0  0  0  0  0  0  0  0  0  0  0
   18.6194  -22.5453  -14.6811 O   0  0  0  0  0  0  0  0  0  0  0  0
   20.3456  -21.1310  -14.3961 O   0  0  0  0  0  0  0  0  0  0  0  0
  2  1  1  1
  3  2  1  0
  4  5  2  0
  4  3  1  0
  6  5  1  0
  7 12  2  0
  7  6  1  0
  8  7  1  0
  9 10  1  0
  9  8  2  0
 10 11  2  0
 11 12  1  0
 12  4  1  0
 13 14  2  0
 13  2  1  0
 16 17  2  0
 16 15  1  0
 18 16  1  0
 19 18  1  1
 19 20  1  0
 20 13  1  0
 21 25  1  0
 21 19  1  0
 22 21  2  0
 24 23  1  1
 24 25  1  0
 24 26  1  0
 26 27  1  0
 28 26  2  0
M  END
$$$$
