WNA.pdb
     RDKit          3D

 28 29  0  0  1  0  0  0  0  0999 V2000
   23.6249  -33.0378  -12.1635 N   0  0  0  0  0  0  0  0  0  0  0  0
   23.3470  -32.2431  -10.9954 C   0  0  1  0  0  0  0  0  0  0  0  0
   21.9160  -31.8227  -10.9093 C   0  0  0  0  0  0  0  0  0  0  0  0
   21.5485  -30.8232  -11.9357 C   0  0  0  0  0  0  0  0  0  0  0  0
   21.3176  -31.1295  -13.2788 C   0  0  0  0  0  0  0  0  0  0  0  0
   20.9850  -30.0160  -13.9527 N   0  0  0  0  0  0  0  0  0  0  0  0
   20.9859  -28.9681  -13.1012 C   0  0  0  0  0  0  0  0  0  0  0  0
   20.7276  -27.6262  -13.2635 C   0  0  0  0  0  0  0  0  0  0  0  0
   20.8188  -26.7773  -12.1733 C   0  0  0  0  0  0  0  0  0  0  0  0
   21.1615  -27.2425  -10.9334 C   0  0  0  0  0  0  0  0  0  0  0  0
   21.4190  -28.6049  -10.7890 C   0  0  0  0  0  0  0  0  0  0  0  0
   21.3341  -29.4655  -11.8544 C   0  0  0  0  0  0  0  0  0  0  0  0
   23.8482  -32.9409   -9.8112 C   0  0  0  0  0  0  0  0  0  0  0  0
   23.7209  -34.1888   -9.7484 O   0  0  0  0  0  0  0  0  0  0  0  0
   26.8822  -32.4481   -4.5056 N   0  0  0  0  0  0  0  0  0  0  0  0
   26.4971  -33.1971   -5.6818 C   0  0  0  0  0  0  0  0  0  0  0  0
   26.5754  -34.4451   -5.5749 O   0  0  0  0  0  0  0  0  0  0  0  0
   26.0592  -32.4428   -6.8669 C   0  0  0  0  0  0  0  0  0  0  0  0
   24.8370  -33.0257   -7.4715 C   0  0  2  0  0  0  0  0  0  0  0  0
   24.4741  -32.3179   -8.7124 N   0  0  0  0  0  0  0  0  0  0  0  0
   23.6954  -32.8524   -6.5089 C   0  0  0  0  0  0  0  0  0  0  0  0
   22.7364  -32.0884   -6.7049 O   0  0  0  0  0  0  0  0  0  0  0  0
   21.2390  -33.9482   -5.0026 C   0  0  0  0  0  0  0  0  0  0  0  0
   22.5497  -33.5528   -4.3557 C   0  0  2  0  0  0  0  0  0  0  0  0
   23.6476  -33.5816   -5.2719 N   0  0  0  0  0  0  0  0  0  0  0  0
   22.7954  -34.3296   -3.1349 C   0  0  0  0  0  0  0  0  0  0  0  0
   21.9549  -34.2130   -2.0135 O   0  0  0  0  0  0  0  0  0  0  0  0
   23.7480  -35.1271   -3.0186 O   0  0  0  0  0  0  0  0  0  0  0  0
  2  1  1  6
  3  2  1  0
  4  5  2  0
  4  3  1  0
  6  5  1  0
  7 12  2  0
  7  6  1  0
  8  7  1  0
  9 10  1  0
  9  8  2  0
 10 11  2  0
 11 12  1  0
 12  4  1  0
 13 14  2  0
 13  2  1  0
 16 17  2  0
 16 15  1  0
 18 16  1  0
 19 18  1  1
 19 20  1  0
 20 13  1  0
 21 25  1  0
 21 19  1  0
 22 21  2  0
 24 23  1  6
 24 25  1  0
 24 26  1  0
 26 27  1  0
 28 26  2  0
M  END
$$$$
