WNA.pdb
     RDKit          3D

 28 29  0  0  1  0  0  0  0  0999 V2000
   28.7103  -21.7732  -10.8070 N   0  0  0  0  0  0  0  0  0  0  0  0
   27.4657  -21.2063  -10.3565 C   0  0  1  0  0  0  0  0  0  0  0  0
   27.6467  -19.9032   -9.6487 C   0  0  0  0  0  0  0  0  0  0  0  0
   28.4672  -20.0241   -8.4240 C   0  0  0  0  0  0  0  0  0  0  0  0
   29.8337  -20.3136   -8.4230 C   0  0  0  0  0  0  0  0  0  0  0  0
   30.2968  -20.3369   -7.1622 N   0  0  0  0  0  0  0  0  0  0  0  0
   29.2804  -20.0720   -6.3138 C   0  0  0  0  0  0  0  0  0  0  0  0
   29.2014  -19.9795   -4.9430 C   0  0  0  0  0  0  0  0  0  0  0  0
   27.9844  -19.6930   -4.3477 C   0  0  0  0  0  0  0  0  0  0  0  0
   26.8537  -19.4992   -5.0927 C   0  0  0  0  0  0  0  0  0  0  0  0
   26.9539  -19.5966   -6.4797 C   0  0  0  0  0  0  0  0  0  0  0  0
   28.1491  -19.8786   -7.0922 C   0  0  0  0  0  0  0  0  0  0  0  0
   26.5253  -21.1646  -11.4765 C   0  0  0  0  0  0  0  0  0  0  0  0
   26.8549  -20.5428  -12.5169 O   0  0  0  0  0  0  0  0  0  0  0  0
   23.8029  -23.7236  -15.2880 N   0  0  0  0  0  0  0  0  0  0  0  0
   23.1016  -23.4636  -14.0498 C   0  0  0  0  0  0  0  0  0  0  0  0
   21.8511  -23.4068  -14.1410 O   0  0  0  0  0  0  0  0  0  0  0  0
   23.9016  -23.2939  -12.8266 C   0  0  0  0  0  0  0  0  0  0  0  0
   24.4253  -21.9125  -12.6969 C   0  0  2  0  0  0  0  0  0  0  0  0
   25.2548  -21.7752  -11.4863 N   0  0  0  0  0  0  0  0  0  0  0  0
   23.2632  -20.9702  -12.5507 C   0  0  0  0  0  0  0  0  0  0  0  0
   22.6485  -20.7912  -11.4867 O   0  0  0  0  0  0  0  0  0  0  0  0
   21.7749  -18.1979  -14.6542 C   0  0  0  0  0  0  0  0  0  0  0  0
   21.6840  -19.2884  -13.6077 C   0  0  2  0  0  0  0  0  0  0  0  0
   22.7838  -20.2011  -13.6655 N   0  0  0  0  0  0  0  0  0  0  0  0
   20.3771  -19.9553  -13.6473 C   0  0  0  0  0  0  0  0  0  0  0  0
   19.2705  -19.4352  -12.9526 O   0  0  0  0  0  0  0  0  0  0  0  0
   20.1708  -21.0058  -14.2882 O   0  0  0  0  0  0  0  0  0  0  0  0
  2  1  1  6
  3  2  1  0
  4  5  2  0
  4  3  1  0
  6  5  1  0
  7 12  2  0
  7  6  1  0
  8  7  1  0
  9 10  1  0
  9  8  2  0
 10 11  2  0
 11 12  1  0
 12  4  1  0
 13 14  2  0
 13  2  1  0
 16 17  2  0
 16 15  1  0
 18 16  1  0
 19 18  1  1
 19 20  1  0
 20 13  1  0
 21 25  1  0
 21 19  1  0
 22 21  2  0
 24 23  1  6
 24 25  1  0
 24 26  1  0
 26 27  1  0
 28 26  2  0
M  END
$$$$
