WNA.pdb
     RDKit          3D

 28 29  0  0  1  0  0  0  0  0999 V2000
   22.1848  -11.6887  -17.1567 N   0  0  0  0  0  0  0  0  0  0  0  0
   22.8421  -10.4255  -16.9434 C   0  0  1  0  0  0  0  0  0  0  0  0
   23.9403  -10.1726  -17.9241 C   0  0  0  0  0  0  0  0  0  0  0  0
   25.0255  -11.1742  -17.8420 C   0  0  0  0  0  0  0  0  0  0  0  0
   25.2850  -12.1294  -18.8276 C   0  0  0  0  0  0  0  0  0  0  0  0
   26.3421  -12.8787  -18.4732 N   0  0  0  0  0  0  0  0  0  0  0  0
   26.8017  -12.4554  -17.2764 C   0  0  0  0  0  0  0  0  0  0  0  0
   27.8375  -12.8672  -16.4693 C   0  0  0  0  0  0  0  0  0  0  0  0
   28.0609  -12.2227  -15.2641 C   0  0  0  0  0  0  0  0  0  0  0  0
   27.2730  -11.1822  -14.8546 C   0  0  0  0  0  0  0  0  0  0  0  0
   26.2291  -10.7795  -15.6860 C   0  0  0  0  0  0  0  0  0  0  0  0
   25.9889  -11.4022  -16.8850 C   0  0  0  0  0  0  0  0  0  0  0  0
   21.8345   -9.3672  -16.8723 C   0  0  0  0  0  0  0  0  0  0  0  0
   20.7667   -9.5078  -17.5187 O   0  0  0  0  0  0  0  0  0  0  0  0
   18.8563   -5.3959  -15.9822 N   0  0  0  0  0  0  0  0  0  0  0  0
   18.8141   -6.4733  -15.0178 C   0  0  0  0  0  0  0  0  0  0  0  0
   17.8353   -6.4550  -14.2326 O   0  0  0  0  0  0  0  0  0  0  0  0
   19.8984   -7.4677  -15.0470 C   0  0  0  0  0  0  0  0  0  0  0  0
   20.9242   -7.1359  -16.0653 C   0  0  2  0  0  0  0  0  0  0  0  0
   21.9638   -8.1790  -16.1250 N   0  0  0  0  0  0  0  0  0  0  0  0
   21.6007   -5.8543  -15.6656 C   0  0  0  0  0  0  0  0  0  0  0  0
   22.0418   -5.6321  -14.5263 O   0  0  0  0  0  0  0  0  0  0  0  0
   22.5546   -2.6437  -17.5183 C   0  0  0  0  0  0  0  0  0  0  0  0
   22.4155   -3.5374  -16.3039 C   0  0  2  0  0  0  0  0  0  0  0  0
   21.7803   -4.7829  -16.6057 N   0  0  0  0  0  0  0  0  0  0  0  0
   21.7852   -2.8229  -15.1875 C   0  0  0  0  0  0  0  0  0  0  0  0
   20.4404   -3.0476  -14.8428 O   0  0  0  0  0  0  0  0  0  0  0  0
   22.3924   -1.9869  -14.4880 O   0  0  0  0  0  0  0  0  0  0  0  0
  2  1  1  6
  3  2  1  0
  4  5  2  0
  4  3  1  0
  6  5  1  0
  7 12  2  0
  7  6  1  0
  8  7  1  0
  9 10  1  0
  9  8  2  0
 10 11  2  0
 11 12  1  0
 12  4  1  0
 13 14  2  0
 13  2  1  0
 16 17  2  0
 16 15  1  0
 18 16  1  0
 19 18  1  1
 19 20  1  0
 20 13  1  0
 21 25  1  0
 21 19  1  0
 22 21  2  0
 24 23  1  6
 24 25  1  0
 24 26  1  0
 26 27  1  0
 28 26  2  0
M  END
$$$$
