WNA.pdb
     RDKit          3D

 28 29  0  0  1  0  0  0  0  0999 V2000
   24.5688  -20.1800  -16.6622 N   0  0  0  0  0  0  0  0  0  0  0  0
   23.1707  -19.9621  -16.3952 C   0  0  1  0  0  0  0  0  0  0  0  0
   22.2887  -20.4513  -17.4973 C   0  0  0  0  0  0  0  0  0  0  0  0
   22.5564  -19.7800  -18.7878 C   0  0  0  0  0  0  0  0  0  0  0  0
   23.4107  -20.2855  -19.7705 C   0  0  0  0  0  0  0  0  0  0  0  0
   23.4297  -19.4606  -20.8305 N   0  0  0  0  0  0  0  0  0  0  0  0
   22.6125  -18.4133  -20.5893 C   0  0  0  0  0  0  0  0  0  0  0  0
   22.2737  -17.2985  -21.3216 C   0  0  0  0  0  0  0  0  0  0  0  0
   21.3906  -16.3746  -20.7885 C   0  0  0  0  0  0  0  0  0  0  0  0
   20.8448  -16.5439  -19.5457 C   0  0  0  0  0  0  0  0  0  0  0  0
   21.2000  -17.6796  -18.8194 C   0  0  0  0  0  0  0  0  0  0  0  0
   22.0723  -18.6093  -19.3272 C   0  0  0  0  0  0  0  0  0  0  0  0
   22.8464  -20.4983  -15.0732 C   0  0  0  0  0  0  0  0  0  0  0  0
   23.4802  -21.4998  -14.6574 O   0  0  0  0  0  0  0  0  0  0  0  0
   20.0207  -19.7153   -9.9174 N   0  0  0  0  0  0  0  0  0  0  0  0
   21.3426  -19.7612  -10.5030 C   0  0  0  0  0  0  0  0  0  0  0  0
   22.2504  -20.1906   -9.7501 O   0  0  0  0  0  0  0  0  0  0  0  0
   21.4962  -19.3104  -11.8952 C   0  0  0  0  0  0  0  0  0  0  0  0
   21.6519  -20.4506  -12.8306 C   0  0  2  0  0  0  0  0  0  0  0  0
   21.8624  -19.9755  -14.2098 N   0  0  0  0  0  0  0  0  0  0  0  0
   20.3811  -21.2537  -12.8244 C   0  0  0  0  0  0  0  0  0  0  0  0
   19.8533  -21.7039  -11.7945 O   0  0  0  0  0  0  0  0  0  0  0  0
   18.6062  -23.7471  -13.8471 C   0  0  0  0  0  0  0  0  0  0  0  0
   18.4460  -22.2658  -14.1169 C   0  0  2  0  0  0  0  0  0  0  0  0
   19.6851  -21.5550  -14.0446 N   0  0  0  0  0  0  0  0  0  0  0  0
   17.3953  -21.6827  -13.2741 C   0  0  0  0  0  0  0  0  0  0  0  0
   16.2896  -21.0216  -13.8382 O   0  0  0  0  0  0  0  0  0  0  0  0
   17.4178  -21.7364  -12.0278 O   0  0  0  0  0  0  0  0  0  0  0  0
  2  1  1  6
  3  2  1  0
  4  5  2  0
  4  3  1  0
  6  5  1  0
  7 12  2  0
  7  6  1  0
  8  7  1  0
  9 10  1  0
  9  8  2  0
 10 11  2  0
 11 12  1  0
 12  4  1  0
 13 14  2  0
 13  2  1  0
 16 17  2  0
 16 15  1  0
 18 16  1  0
 19 18  1  1
 19 20  1  0
 20 13  1  0
 21 25  1  0
 21 19  1  0
 22 21  2  0
 24 23  1  1
 24 25  1  0
 24 26  1  0
 26 27  1  0
 28 26  2  0
M  END
$$$$
