WNA.pdb
     RDKit          3D

 28 29  0  0  1  0  0  0  0  0999 V2000
   24.0707   -8.5199  -19.6275 N   0  0  0  0  0  0  0  0  0  0  0  0
   23.7099   -8.3795  -18.2407 C   0  0  1  0  0  0  0  0  0  0  0  0
   24.6612   -7.5139  -17.4807 C   0  0  0  0  0  0  0  0  0  0  0  0
   25.9748   -8.1577  -17.2629 C   0  0  0  0  0  0  0  0  0  0  0  0
   27.1689   -7.7126  -17.8351 C   0  0  0  0  0  0  0  0  0  0  0  0
   28.1879   -8.4902  -17.4332 N   0  0  0  0  0  0  0  0  0  0  0  0
   27.7138   -9.4470  -16.6070 C   0  0  0  0  0  0  0  0  0  0  0  0
   28.3130  -10.4850  -15.9308 C   0  0  0  0  0  0  0  0  0  0  0  0
   27.5403  -11.3237  -15.1453 C   0  0  0  0  0  0  0  0  0  0  0  0
   26.1895  -11.1446  -15.0249 C   0  0  0  0  0  0  0  0  0  0  0  0
   25.6009  -10.0874  -15.7172 C   0  0  0  0  0  0  0  0  0  0  0  0
   26.3462   -9.2428  -16.5009 C   0  0  0  0  0  0  0  0  0  0  0  0
   22.3086   -7.9690  -18.1495 C   0  0  0  0  0  0  0  0  0  0  0  0
   21.8093   -7.3158  -19.0991 O   0  0  0  0  0  0  0  0  0  0  0  0
   17.3506   -7.4591  -17.0015 N   0  0  0  0  0  0  0  0  0  0  0  0
   17.8104   -8.6240  -16.2775 C   0  0  0  0  0  0  0  0  0  0  0  0
   16.9075   -9.3393  -15.7791 O   0  0  0  0  0  0  0  0  0  0  0  0
   19.2611   -8.8564  -16.1950 C   0  0  0  0  0  0  0  0  0  0  0  0
   20.0213   -7.9072  -17.0436 C   0  0  2  0  0  0  0  0  0  0  0  0
   21.4546   -8.2502  -17.0639 N   0  0  0  0  0  0  0  0  0  0  0  0
   19.9003   -6.5307  -16.4515 C   0  0  0  0  0  0  0  0  0  0  0  0
   20.3435   -6.2177  -15.3346 O   0  0  0  0  0  0  0  0  0  0  0  0
   18.9435   -3.1291  -17.8301 C   0  0  0  0  0  0  0  0  0  0  0  0
   19.1560   -4.1178  -16.7031 C   0  0  2  0  0  0  0  0  0  0  0  0
   19.2460   -5.4687  -17.1643 N   0  0  0  0  0  0  0  0  0  0  0  0
   18.1597   -3.9351  -15.6409 C   0  0  0  0  0  0  0  0  0  0  0  0
   18.3743   -3.0299  -14.5862 O   0  0  0  0  0  0  0  0  0  0  0  0
   17.0804   -4.5601  -15.6087 O   0  0  0  0  0  0  0  0  0  0  0  0
  2  1  1  6
  3  2  1  0
  4  5  2  0
  4  3  1  0
  6  5  1  0
  7 12  2  0
  7  6  1  0
  8  7  1  0
  9 10  1  0
  9  8  2  0
 10 11  2  0
 11 12  1  0
 12  4  1  0
 13 14  2  0
 13  2  1  0
 16 17  2  0
 16 15  1  0
 18 16  1  0
 19 18  1  1
 19 20  1  0
 20 13  1  0
 21 25  1  0
 21 19  1  0
 22 21  2  0
 24 23  1  6
 24 25  1  0
 24 26  1  0
 26 27  1  0
 28 26  2  0
M  END
$$$$
