MYR.pdb
     RDKit          3D

 32 32  0  0  1  0  0  0  0  0999 V2000
   28.6371  -20.1071   -2.1078 C   0  0  0  0  0  0  0  0  0  0  0  0
   28.1939  -20.2518   -3.8242 S   0  0  0  0  0  0  0  0  0  0  0  0
   26.7656  -19.3208   -4.3419 C   0  0  0  0  0  0  0  0  0  0  0  0
   26.4023  -19.3662   -5.7679 C   0  0  0  0  0  0  0  0  0  0  0  0
   27.3681  -19.8202   -6.7772 C   0  0  2  0  0  0  0  0  0  0  0  0
   28.6780  -19.2713   -6.7445 N   0  0  0  0  0  0  0  0  0  0  0  0
   26.8422  -19.6647   -8.1865 C   0  0  0  0  0  0  0  0  0  0  0  0
   26.8150  -18.5492   -8.7676 O   0  0  0  0  0  0  0  0  0  0  0  0
   32.1930  -22.0005  -11.7041 O   0  0  0  0  0  0  0  0  0  0  0  0
   30.8158  -22.0127  -11.5088 C   0  0  0  0  0  0  0  0  0  0  0  0
   30.2477  -22.5471  -10.3473 C   0  0  0  0  0  0  0  0  0  0  0  0
   28.8782  -22.5513  -10.1690 C   0  0  0  0  0  0  0  0  0  0  0  0
   28.0278  -22.0317  -11.1244 C   0  0  0  0  0  0  0  0  0  0  0  0
   26.5733  -22.0498  -10.9070 C   0  0  0  0  0  0  0  0  0  0  0  0
   26.0574  -20.7245  -10.3321 C   0  0  2  0  0  0  0  0  0  0  0  0
   26.3545  -20.7805   -8.9154 N   0  0  0  0  0  0  0  0  0  0  0  0
   24.5863  -20.7463  -10.5822 C   0  0  0  0  0  0  0  0  0  0  0  0
   23.8557  -21.2712   -9.7027 O   0  0  0  0  0  0  0  0  0  0  0  0
   28.6131  -21.5118  -12.2584 C   0  0  0  0  0  0  0  0  0  0  0  0
   29.9715  -21.4952  -12.4607 C   0  0  0  0  0  0  0  0  0  0  0  0
   21.3310  -15.3162  -13.7428 N   0  0  0  0  0  0  0  0  0  0  0  0
   20.8805  -15.9380  -14.9314 C   0  0  0  0  0  0  0  0  0  0  0  0
   20.9158  -15.2533  -16.0486 N   0  0  0  0  0  0  0  0  0  0  0  0
   20.3955  -17.2594  -14.9897 N   0  0  0  0  0  0  0  0  0  0  0  0
   20.1936  -18.0710  -13.7638 C   0  0  0  0  0  0  0  0  0  0  0  0
   21.0811  -19.2453  -13.8792 C   0  0  0  0  0  0  0  0  0  0  0  0
   22.3135  -19.3503  -13.1146 C   0  0  0  0  0  0  0  0  0  0  0  0
   22.5096  -20.2433  -11.9605 C   0  0  2  0  0  0  0  0  0  0  0  0
   24.0106  -20.2077  -11.7498 N   0  0  0  0  0  0  0  0  0  0  0  0
   22.2410  -21.6763  -12.1176 C   0  0  0  0  0  0  0  0  0  0  0  0
   21.0226  -22.2641  -11.6956 O   0  0  0  0  0  0  0  0  0  0  0  0
   23.0374  -22.4941  -12.6241 O   0  0  0  0  0  0  0  0  0  0  0  0
  2  1  1  0
  3  4  1  0
  3  2  1  0
  5  6  1  6
  5  4  1  0
  7  5  1  0
  8  7  2  0
  9 10  1  0
 10 20  2  0
 10 11  1  0
 11 12  2  0
 12 13  1  0
 13 14  1  0
 15 14  1  6
 15 16  1  0
 16  7  1  0
 17 29  1  0
 17 15  1  0
 18 17  2  0
 19 13  2  0
 20 19  1  0
 22 23  2  0
 22 21  1  0
 24 22  1  0
 25 26  1  0
 25 24  1  0
 26 27  1  0
 28 27  1  6
 28 29  1  0
 30 28  1  0
 30 31  1  0
 32 30  2  0
M  END
$$$$
