MYR.pdb
     RDKit          3D

 32 32  0  0  1  0  0  0  0  0999 V2000
   21.2499  -25.5289  -13.9129 C   0  0  0  0  0  0  0  0  0  0  0  0
   19.6876  -25.4726  -13.0647 S   0  0  0  0  0  0  0  0  0  0  0  0
   19.1814  -23.8718  -12.4681 C   0  0  0  0  0  0  0  0  0  0  0  0
   19.9992  -22.7102  -12.8547 C   0  0  0  0  0  0  0  0  0  0  0  0
   20.5925  -21.8341  -11.8358 C   0  0  2  0  0  0  0  0  0  0  0  0
   19.7354  -21.2824  -10.8463 N   0  0  0  0  0  0  0  0  0  0  0  0
   21.3800  -20.6959  -12.4449 C   0  0  0  0  0  0  0  0  0  0  0  0
   20.8705  -19.5617  -12.6368 O   0  0  0  0  0  0  0  0  0  0  0  0
   28.2507  -17.0219  -16.7573 O   0  0  0  0  0  0  0  0  0  0  0  0
   27.4347  -17.8430  -15.9860 C   0  0  0  0  0  0  0  0  0  0  0  0
   26.5814  -17.3157  -15.0105 C   0  0  0  0  0  0  0  0  0  0  0  0
   25.7777  -18.1450  -14.2532 C   0  0  0  0  0  0  0  0  0  0  0  0
   25.7881  -19.5140  -14.4311 C   0  0  0  0  0  0  0  0  0  0  0  0
   24.9209  -20.3723  -13.6099 C   0  0  0  0  0  0  0  0  0  0  0  0
   23.4782  -19.8542  -13.5550 C   0  0  2  0  0  0  0  0  0  0  0  0
   22.7364  -20.8636  -12.8273 N   0  0  0  0  0  0  0  0  0  0  0  0
   23.0440  -19.7804  -14.9808 C   0  0  0  0  0  0  0  0  0  0  0  0
   22.6196  -20.8380  -15.5139 O   0  0  0  0  0  0  0  0  0  0  0  0
   26.6371  -20.0070  -15.3980 C   0  0  0  0  0  0  0  0  0  0  0  0
   27.4466  -19.2049  -16.1647 C   0  0  0  0  0  0  0  0  0  0  0  0
   16.0593  -17.9082  -15.7294 N   0  0  0  0  0  0  0  0  0  0  0  0
   16.6049  -17.0412  -16.7056 C   0  0  0  0  0  0  0  0  0  0  0  0
   15.9877  -15.9122  -16.9557 N   0  0  0  0  0  0  0  0  0  0  0  0
   17.7819  -17.3169  -17.4289 N   0  0  0  0  0  0  0  0  0  0  0  0
   18.4900  -18.6149  -17.3015 C   0  0  0  0  0  0  0  0  0  0  0  0
   19.8970  -18.3715  -17.6770 C   0  0  0  0  0  0  0  0  0  0  0  0
   20.9864  -18.5806  -16.7368 C   0  0  0  0  0  0  0  0  0  0  0  0
   22.4158  -18.4844  -17.0764 C   0  0  2  0  0  0  0  0  0  0  0  0
   23.0972  -18.5858  -15.7257 N   0  0  0  0  0  0  0  0  0  0  0  0
   22.9366  -17.2197  -17.6050 C   0  0  0  0  0  0  0  0  0  0  0  0
   23.1220  -17.0040  -18.9933 O   0  0  0  0  0  0  0  0  0  0  0  0
   23.2582  -16.2382  -16.9029 O   0  0  0  0  0  0  0  0  0  0  0  0
  2  1  1  0
  3  4  1  0
  3  2  1  0
  5  6  1  6
  5  4  1  0
  7  5  1  0
  8  7  2  0
  9 10  1  0
 10 20  2  0
 10 11  1  0
 11 12  2  0
 12 13  1  0
 13 14  1  0
 15 14  1  6
 15 16  1  0
 16  7  1  0
 17 29  1  0
 17 15  1  0
 18 17  2  0
 19 13  2  0
 20 19  1  0
 22 23  2  0
 22 21  1  0
 24 22  1  0
 25 26  1  0
 25 24  1  0
 26 27  1  0
 28 27  1  1
 28 29  1  0
 30 28  1  0
 30 31  1  0
 32 30  2  0
M  END
$$$$
