MYR.pdb
     RDKit          3D

 32 32  0  0  1  0  0  0  0  0999 V2000
   30.6924  -21.2088  -10.2344 C   0  0  0  0  0  0  0  0  0  0  0  0
   29.3841  -21.2699   -9.0311 S   0  0  0  0  0  0  0  0  0  0  0  0
   28.0184  -22.3470   -9.4180 C   0  0  0  0  0  0  0  0  0  0  0  0
   27.0236  -21.8644  -10.3901 C   0  0  0  0  0  0  0  0  0  0  0  0
   26.2713  -20.6265  -10.1465 C   0  0  2  0  0  0  0  0  0  0  0  0
   25.1582  -20.6823   -9.2657 N   0  0  0  0  0  0  0  0  0  0  0  0
   25.8071  -19.9745  -11.4295 C   0  0  0  0  0  0  0  0  0  0  0  0
   24.6018  -19.9967  -11.7892 O   0  0  0  0  0  0  0  0  0  0  0  0
   26.6733  -15.4350  -19.0449 O   0  0  0  0  0  0  0  0  0  0  0  0
   26.8973  -16.0622  -17.8237 C   0  0  0  0  0  0  0  0  0  0  0  0
   26.3944  -15.5353  -16.6291 C   0  0  0  0  0  0  0  0  0  0  0  0
   26.6260  -16.1705  -15.4249 C   0  0  0  0  0  0  0  0  0  0  0  0
   27.3568  -17.3399  -15.3584 C   0  0  0  0  0  0  0  0  0  0  0  0
   27.5872  -17.9944  -14.0616 C   0  0  0  0  0  0  0  0  0  0  0  0
   26.3089  -18.6272  -13.4974 C   0  0  2  0  0  0  0  0  0  0  0  0
   26.7206  -19.3061  -12.2857 N   0  0  0  0  0  0  0  0  0  0  0  0
   25.8686  -19.5967  -14.5430 C   0  0  0  0  0  0  0  0  0  0  0  0
   26.4998  -20.6814  -14.6316 O   0  0  0  0  0  0  0  0  0  0  0  0
   27.8403  -17.8373  -16.5491 C   0  0  0  0  0  0  0  0  0  0  0  0
   27.6248  -17.2256  -17.7599 C   0  0  0  0  0  0  0  0  0  0  0  0
   20.4124  -25.5695  -14.4908 N   0  0  0  0  0  0  0  0  0  0  0  0
   21.8139  -25.3740  -14.4878 C   0  0  0  0  0  0  0  0  0  0  0  0
   22.5870  -26.3872  -14.1814 N   0  0  0  0  0  0  0  0  0  0  0  0
   22.4352  -24.1488  -14.7998 N   0  0  0  0  0  0  0  0  0  0  0  0
   21.6466  -22.9385  -15.1400 C   0  0  0  0  0  0  0  0  0  0  0  0
   22.4730  -22.1375  -16.0649 C   0  0  0  0  0  0  0  0  0  0  0  0
   23.5878  -21.3324  -15.5922 C   0  0  0  0  0  0  0  0  0  0  0  0
   24.3368  -20.3713  -16.4188 C   0  0  2  0  0  0  0  0  0  0  0  0
   24.7913  -19.3331  -15.4117 N   0  0  0  0  0  0  0  0  0  0  0  0
   23.6102  -19.5657  -17.4053 C   0  0  0  0  0  0  0  0  0  0  0  0
   23.4632  -19.9789  -18.7529 O   0  0  0  0  0  0  0  0  0  0  0  0
   23.0661  -18.4686  -17.1605 O   0  0  0  0  0  0  0  0  0  0  0  0
  2  1  1  0
  3  4  1  0
  3  2  1  0
  5  6  1  1
  5  4  1  0
  7  5  1  0
  8  7  2  0
  9 10  1  0
 10 20  2  0
 10 11  1  0
 11 12  2  0
 12 13  1  0
 13 14  1  0
 15 14  1  6
 15 16  1  0
 16  7  1  0
 17 29  1  0
 17 15  1  0
 18 17  2  0
 19 13  2  0
 20 19  1  0
 22 23  2  0
 22 21  1  0
 24 22  1  0
 25 26  1  0
 25 24  1  0
 26 27  1  0
 28 27  1  1
 28 29  1  0
 30 28  1  0
 30 31  1  0
 32 30  2  0
M  END
$$$$
