MYR.pdb
     RDKit          3D

 32 32  0  0  1  0  0  0  0  0999 V2000
   25.5276  -19.1924  -20.1884 C   0  0  0  0  0  0  0  0  0  0  0  0
   27.0135  -19.9250  -20.8355 S   0  0  0  0  0  0  0  0  0  0  0  0
   27.8640  -21.0528  -19.7493 C   0  0  0  0  0  0  0  0  0  0  0  0
   27.3337  -21.2166  -18.3857 C   0  0  0  0  0  0  0  0  0  0  0  0
   28.1537  -21.8179  -17.3257 C   0  0  2  0  0  0  0  0  0  0  0  0
   28.8125  -23.0452  -17.6044 N   0  0  0  0  0  0  0  0  0  0  0  0
   27.3855  -21.9940  -16.0351 C   0  0  0  0  0  0  0  0  0  0  0  0
   26.7022  -23.0244  -15.8024 O   0  0  0  0  0  0  0  0  0  0  0  0
   24.5959  -19.9325   -7.8345 O   0  0  0  0  0  0  0  0  0  0  0  0
   25.2491  -19.9685   -9.0621 C   0  0  0  0  0  0  0  0  0  0  0  0
   24.9121  -19.0867  -10.0948 C   0  0  0  0  0  0  0  0  0  0  0  0
   25.5706  -19.1359  -11.3077 C   0  0  0  0  0  0  0  0  0  0  0  0
   26.5777  -20.0507  -11.5419 C   0  0  0  0  0  0  0  0  0  0  0  0
   27.2615  -20.0795  -12.8437 C   0  0  0  0  0  0  0  0  0  0  0  0
   26.6343  -21.0974  -13.8047 C   0  0  2  0  0  0  0  0  0  0  0  0
   27.4052  -20.9953  -15.0269 N   0  0  0  0  0  0  0  0  0  0  0  0
   25.2332  -20.6234  -14.0024 C   0  0  0  0  0  0  0  0  0  0  0  0
   25.0653  -19.5707  -14.6708 O   0  0  0  0  0  0  0  0  0  0  0  0
   26.8898  -20.9071  -10.5085 C   0  0  0  0  0  0  0  0  0  0  0  0
   26.2509  -20.8796   -9.2929 C   0  0  0  0  0  0  0  0  0  0  0  0
   23.3301  -26.0832  -15.5348 N   0  0  0  0  0  0  0  0  0  0  0  0
   22.0652  -26.2359  -14.9189 C   0  0  0  0  0  0  0  0  0  0  0  0
   21.8244  -27.3351  -14.2467 N   0  0  0  0  0  0  0  0  0  0  0  0
   21.0415  -25.2702  -14.9810 N   0  0  0  0  0  0  0  0  0  0  0  0
   21.2714  -23.9259  -15.5663 C   0  0  0  0  0  0  0  0  0  0  0  0
   21.8413  -23.0860  -14.4940 C   0  0  0  0  0  0  0  0  0  0  0  0
   22.1751  -21.6879  -14.7139 C   0  0  0  0  0  0  0  0  0  0  0  0
   22.7155  -20.7840  -13.6848 C   0  0  2  0  0  0  0  0  0  0  0  0
   24.1222  -21.3081  -13.4718 N   0  0  0  0  0  0  0  0  0  0  0  0
   22.1483  -20.8269  -12.3333 C   0  0  0  0  0  0  0  0  0  0  0  0
   21.0205  -20.0516  -11.9656 O   0  0  0  0  0  0  0  0  0  0  0  0
   22.5918  -21.5307  -11.4018 O   0  0  0  0  0  0  0  0  0  0  0  0
  2  1  1  0
  3  4  1  0
  3  2  1  0
  5  6  1  6
  5  4  1  0
  7  5  1  0
  8  7  2  0
  9 10  1  0
 10 20  2  0
 10 11  1  0
 11 12  2  0
 12 13  1  0
 13 14  1  0
 15 14  1  1
 15 16  1  0
 16  7  1  0
 17 29  1  0
 17 15  1  0
 18 17  2  0
 19 13  2  0
 20 19  1  0
 22 23  2  0
 22 21  1  0
 24 22  1  0
 25 26  1  0
 25 24  1  0
 26 27  1  0
 28 27  1  6
 28 29  1  0
 30 28  1  0
 30 31  1  0
 32 30  2  0
M  END
$$$$
