MYR.pdb
     RDKit          3D

 32 32  0  0  1  0  0  0  0  0999 V2000
   24.6182  -31.6267  -13.9792 C   0  0  0  0  0  0  0  0  0  0  0  0
   25.4758  -32.2067  -12.5330 S   0  0  0  0  0  0  0  0  0  0  0  0
   24.5001  -33.1384  -11.3690 C   0  0  0  0  0  0  0  0  0  0  0  0
   25.1839  -33.6723  -10.1796 C   0  0  0  0  0  0  0  0  0  0  0  0
   26.5854  -34.1068  -10.2479 C   0  0  2  0  0  0  0  0  0  0  0  0
   26.9153  -35.1655  -11.1359 N   0  0  0  0  0  0  0  0  0  0  0  0
   27.1444  -34.4599   -8.8879 C   0  0  0  0  0  0  0  0  0  0  0  0
   27.2905  -35.6533   -8.5175 O   0  0  0  0  0  0  0  0  0  0  0  0
   34.2707  -35.3156   -7.1915 O   0  0  0  0  0  0  0  0  0  0  0  0
   33.0395  -34.6922   -7.0168 C   0  0  0  0  0  0  0  0  0  0  0  0
   32.2663  -34.2838   -8.1090 C   0  0  0  0  0  0  0  0  0  0  0  0
   31.0459  -33.6662   -7.9181 C   0  0  0  0  0  0  0  0  0  0  0  0
   30.5497  -33.4318   -6.6513 C   0  0  0  0  0  0  0  0  0  0  0  0
   29.2466  -32.7721   -6.4787 C   0  0  0  0  0  0  0  0  0  0  0  0
   28.0759  -33.7466   -6.6593 C   0  0  2  0  0  0  0  0  0  0  0  0
   27.5295  -33.4502   -7.9678 N   0  0  0  0  0  0  0  0  0  0  0  0
   27.1141  -33.3940   -5.5740 C   0  0  0  0  0  0  0  0  0  0  0  0
   26.5940  -32.2489   -5.6087 O   0  0  0  0  0  0  0  0  0  0  0  0
   31.3309  -33.8438   -5.5936 C   0  0  0  0  0  0  0  0  0  0  0  0
   32.5477  -34.4600   -5.7555 C   0  0  0  0  0  0  0  0  0  0  0  0
   20.9379  -38.5942   -3.5587 N   0  0  0  0  0  0  0  0  0  0  0  0
   21.3071  -37.4919   -4.3657 C   0  0  0  0  0  0  0  0  0  0  0  0
   20.7665  -37.3769   -5.5543 N   0  0  0  0  0  0  0  0  0  0  0  0
   22.2247  -36.5004   -3.9663 N   0  0  0  0  0  0  0  0  0  0  0  0
   22.9159  -36.5601   -2.6544 C   0  0  0  0  0  0  0  0  0  0  0  0
   23.7741  -35.3616   -2.5700 C   0  0  0  0  0  0  0  0  0  0  0  0
   24.8420  -35.1171   -3.5262 C   0  0  0  0  0  0  0  0  0  0  0  0
   25.7187  -33.9342   -3.5183 C   0  0  2  0  0  0  0  0  0  0  0  0
   26.7835  -34.2891   -4.5376 N   0  0  0  0  0  0  0  0  0  0  0  0
   26.5079  -33.6433   -2.3171 C   0  0  0  0  0  0  0  0  0  0  0  0
   27.8664  -34.0285   -2.1978 O   0  0  0  0  0  0  0  0  0  0  0  0
   26.0715  -33.0450   -1.3114 O   0  0  0  0  0  0  0  0  0  0  0  0
  2  1  1  0
  3  4  1  0
  3  2  1  0
  5  6  1  6
  5  4  1  0
  7  5  1  0
  8  7  2  0
  9 10  1  0
 10 20  2  0
 10 11  1  0
 11 12  2  0
 12 13  1  0
 13 14  1  0
 15 14  1  1
 15 16  1  0
 16  7  1  0
 17 29  1  0
 17 15  1  0
 18 17  2  0
 19 13  2  0
 20 19  1  0
 22 23  2  0
 22 21  1  0
 24 22  1  0
 25 26  1  0
 25 24  1  0
 26 27  1  0
 28 27  1  1
 28 29  1  0
 30 28  1  0
 30 31  1  0
 32 30  2  0
M  END
$$$$
