MYR.pdb
     RDKit          3D

 32 32  0  0  1  0  0  0  0  0999 V2000
   31.7236  -22.6440   -8.8282 C   0  0  0  0  0  0  0  0  0  0  0  0
   30.4314  -21.7670   -9.6794 S   0  0  0  0  0  0  0  0  0  0  0  0
   28.8003  -21.9063   -8.9760 C   0  0  0  0  0  0  0  0  0  0  0  0
   27.7250  -21.1049   -9.5836 C   0  0  0  0  0  0  0  0  0  0  0  0
   27.2446  -21.3948  -10.9411 C   0  0  2  0  0  0  0  0  0  0  0  0
   28.1342  -22.0382  -11.8426 N   0  0  0  0  0  0  0  0  0  0  0  0
   26.7025  -20.1646  -11.6335 C   0  0  0  0  0  0  0  0  0  0  0  0
   25.9297  -19.3598  -11.0524 O   0  0  0  0  0  0  0  0  0  0  0  0
   25.9698  -14.0564  -18.0581 O   0  0  0  0  0  0  0  0  0  0  0  0
   26.3742  -15.0920  -17.2221 C   0  0  0  0  0  0  0  0  0  0  0  0
   26.4853  -16.4063  -17.6890 C   0  0  0  0  0  0  0  0  0  0  0  0
   26.8883  -17.4230  -16.8457 C   0  0  0  0  0  0  0  0  0  0  0  0
   27.1936  -17.1796  -15.5215 C   0  0  0  0  0  0  0  0  0  0  0  0
   27.6204  -18.2823  -14.6470 C   0  0  0  0  0  0  0  0  0  0  0  0
   26.5045  -18.7311  -13.6948 C   0  0  2  0  0  0  0  0  0  0  0  0
   27.0472  -19.8669  -12.9777 N   0  0  0  0  0  0  0  0  0  0  0  0
   25.3800  -19.1367  -14.5881 C   0  0  0  0  0  0  0  0  0  0  0  0
   25.5067  -20.2118  -15.2293 O   0  0  0  0  0  0  0  0  0  0  0  0
   27.0760  -15.8770  -15.0876 C   0  0  0  0  0  0  0  0  0  0  0  0
   26.6775  -14.8475  -15.9049 C   0  0  0  0  0  0  0  0  0  0  0  0
   20.2751  -22.6580  -10.8176 N   0  0  0  0  0  0  0  0  0  0  0  0
   21.0818  -21.4964  -10.7676 C   0  0  0  0  0  0  0  0  0  0  0  0
   21.6771  -21.1953   -9.6393 N   0  0  0  0  0  0  0  0  0  0  0  0
   21.2894  -20.6384  -11.8654 N   0  0  0  0  0  0  0  0  0  0  0  0
   20.6714  -20.9012  -13.1888 C   0  0  0  0  0  0  0  0  0  0  0  0
   21.6984  -20.6004  -14.2061 C   0  0  0  0  0  0  0  0  0  0  0  0
   22.0433  -19.2338  -14.5635 C   0  0  0  0  0  0  0  0  0  0  0  0
   23.0509  -18.8601  -15.5700 C   0  0  2  0  0  0  0  0  0  0  0  0
   24.2101  -18.3644  -14.7278 N   0  0  0  0  0  0  0  0  0  0  0  0
   22.7841  -17.7200  -16.4527 C   0  0  0  0  0  0  0  0  0  0  0  0
   22.4072  -17.8899  -17.8082 O   0  0  0  0  0  0  0  0  0  0  0  0
   22.8612  -16.5229  -16.1053 O   0  0  0  0  0  0  0  0  0  0  0  0
  2  1  1  0
  3  4  1  0
  3  2  1  0
  5  6  1  6
  5  4  1  0
  7  5  1  0
  8  7  2  0
  9 10  1  0
 10 20  2  0
 10 11  1  0
 11 12  2  0
 12 13  1  0
 13 14  1  0
 15 14  1  6
 15 16  1  0
 16  7  1  0
 17 29  1  0
 17 15  1  0
 18 17  2  0
 19 13  2  0
 20 19  1  0
 22 23  2  0
 22 21  1  0
 24 22  1  0
 25 26  1  0
 25 24  1  0
 26 27  1  0
 28 27  1  1
 28 29  1  0
 30 28  1  0
 30 31  1  0
 32 30  2  0
M  END
$$$$
