MYR.pdb
     RDKit          3D

 32 32  0  0  1  0  0  0  0  0999 V2000
   29.1569  -19.4001   -3.7818 C   0  0  0  0  0  0  0  0  0  0  0  0
   28.6143  -19.7676   -5.4353 S   0  0  0  0  0  0  0  0  0  0  0  0
   29.8436  -19.6012   -6.7145 C   0  0  0  0  0  0  0  0  0  0  0  0
   29.4370  -19.9106   -8.0952 C   0  0  0  0  0  0  0  0  0  0  0  0
   29.0748  -21.2798   -8.4849 C   0  0  2  0  0  0  0  0  0  0  0  0
   30.1154  -22.1575   -8.8908 N   0  0  0  0  0  0  0  0  0  0  0  0
   28.0081  -21.3089   -9.5564 C   0  0  0  0  0  0  0  0  0  0  0  0
   28.2940  -21.4008  -10.7781 O   0  0  0  0  0  0  0  0  0  0  0  0
   19.7702  -20.7195  -12.8925 O   0  0  0  0  0  0  0  0  0  0  0  0
   20.8791  -20.7639  -12.0539 C   0  0  0  0  0  0  0  0  0  0  0  0
   21.3012  -19.6363  -11.3411 C   0  0  0  0  0  0  0  0  0  0  0  0
   22.4045  -19.6973  -10.5127 C   0  0  0  0  0  0  0  0  0  0  0  0
   23.1245  -20.8653  -10.3600 C   0  0  0  0  0  0  0  0  0  0  0  0
   24.2952  -20.9005   -9.4705 C   0  0  0  0  0  0  0  0  0  0  0  0
   25.5777  -21.2897  -10.2167 C   0  0  2  0  0  0  0  0  0  0  0  0
   26.6306  -21.2332   -9.2232 N   0  0  0  0  0  0  0  0  0  0  0  0
   25.7510  -20.2327  -11.2558 C   0  0  0  0  0  0  0  0  0  0  0  0
   26.0830  -19.0837  -10.8653 O   0  0  0  0  0  0  0  0  0  0  0  0
   22.6875  -21.9606  -11.0730 C   0  0  0  0  0  0  0  0  0  0  0  0
   21.5940  -21.9270  -11.9034 C   0  0  0  0  0  0  0  0  0  0  0  0
   29.3631  -22.5272  -17.2966 N   0  0  0  0  0  0  0  0  0  0  0  0
   29.1225  -21.2914  -17.9425 C   0  0  0  0  0  0  0  0  0  0  0  0
   28.9406  -21.2881  -19.2406 N   0  0  0  0  0  0  0  0  0  0  0  0
   29.0624  -20.0545  -17.2709 N   0  0  0  0  0  0  0  0  0  0  0  0
   28.9882  -19.9731  -15.7909 C   0  0  0  0  0  0  0  0  0  0  0  0
   27.5688  -19.7576  -15.4466 C   0  0  0  0  0  0  0  0  0  0  0  0
   27.1389  -19.5440  -14.0740 C   0  0  0  0  0  0  0  0  0  0  0  0
   25.7383  -19.3792  -13.6509 C   0  0  2  0  0  0  0  0  0  0  0  0
   25.5562  -20.4837  -12.6283 N   0  0  0  0  0  0  0  0  0  0  0  0
   24.6683  -19.6543  -14.6151 C   0  0  0  0  0  0  0  0  0  0  0  0
   24.0862  -18.6319  -15.4051 O   0  0  0  0  0  0  0  0  0  0  0  0
   24.1800  -20.7841  -14.8272 O   0  0  0  0  0  0  0  0  0  0  0  0
  2  1  1  0
  3  4  1  0
  3  2  1  0
  5  6  1  6
  5  4  1  0
  7  5  1  0
  8  7  2  0
  9 10  1  0
 10 20  2  0
 10 11  1  0
 11 12  2  0
 12 13  1  0
 13 14  1  0
 15 14  1  1
 15 16  1  0
 16  7  1  0
 17 29  1  0
 17 15  1  0
 18 17  2  0
 19 13  2  0
 20 19  1  0
 22 23  2  0
 22 21  1  0
 24 22  1  0
 25 26  1  0
 25 24  1  0
 26 27  1  0
 28 27  1  6
 28 29  1  0
 30 28  1  0
 30 31  1  0
 32 30  2  0
M  END
$$$$
