MYR.pdb
     RDKit          3D

 32 32  0  0  1  0  0  0  0  0999 V2000
   15.7787  -24.9900  -19.8186 C   0  0  0  0  0  0  0  0  0  0  0  0
   17.0557  -23.8059  -19.4576 S   0  0  0  0  0  0  0  0  0  0  0  0
   17.1075  -23.2012  -17.7823 C   0  0  0  0  0  0  0  0  0  0  0  0
   18.1123  -22.1750  -17.4585 C   0  0  0  0  0  0  0  0  0  0  0  0
   18.7104  -21.3470  -18.5141 C   0  0  2  0  0  0  0  0  0  0  0  0
   19.6600  -21.9510  -19.3811 N   0  0  0  0  0  0  0  0  0  0  0  0
   19.3302  -20.0801  -17.9685 C   0  0  0  0  0  0  0  0  0  0  0  0
   20.4168  -20.0901  -17.3345 O   0  0  0  0  0  0  0  0  0  0  0  0
   25.0661  -19.3121  -19.8893 O   0  0  0  0  0  0  0  0  0  0  0  0
   23.8197  -18.7404  -19.6556 C   0  0  0  0  0  0  0  0  0  0  0  0
   23.6006  -17.8850  -18.5703 C   0  0  0  0  0  0  0  0  0  0  0  0
   22.3569  -17.3257  -18.3524 C   0  0  0  0  0  0  0  0  0  0  0  0
   21.2935  -17.5892  -19.1925 C   0  0  0  0  0  0  0  0  0  0  0  0
   19.9802  -16.9790  -18.9357 C   0  0  0  0  0  0  0  0  0  0  0  0
   19.2962  -17.5762  -17.6994 C   0  0  2  0  0  0  0  0  0  0  0  0
   18.7053  -18.8191  -18.1519 N   0  0  0  0  0  0  0  0  0  0  0  0
   18.2504  -16.5805  -17.3227 C   0  0  0  0  0  0  0  0  0  0  0  0
   17.1719  -16.5981  -17.9704 O   0  0  0  0  0  0  0  0  0  0  0  0
   21.5363  -18.4345  -20.2534 C   0  0  0  0  0  0  0  0  0  0  0  0
   22.7630  -19.0040  -20.4927 C   0  0  0  0  0  0  0  0  0  0  0  0
   18.0141   -9.1425  -18.5388 N   0  0  0  0  0  0  0  0  0  0  0  0
   16.7254   -9.1795  -17.9553 C   0  0  0  0  0  0  0  0  0  0  0  0
   15.8977   -8.1934  -18.2019 N   0  0  0  0  0  0  0  0  0  0  0  0
   16.2719  -10.2206  -17.1217 N   0  0  0  0  0  0  0  0  0  0  0  0
   17.1601  -11.3382  -16.7160 C   0  0  0  0  0  0  0  0  0  0  0  0
   16.6998  -12.5354  -17.4474 C   0  0  0  0  0  0  0  0  0  0  0  0
   17.3418  -13.8290  -17.2775 C   0  0  0  0  0  0  0  0  0  0  0  0
   17.3963  -14.5770  -16.0104 C   0  0  2  0  0  0  0  0  0  0  0  0
   18.4370  -15.6446  -16.2864 N   0  0  0  0  0  0  0  0  0  0  0  0
   16.2293  -15.3642  -15.5998 C   0  0  0  0  0  0  0  0  0  0  0  0
   15.8340  -16.5385  -16.2876 O   0  0  0  0  0  0  0  0  0  0  0  0
   15.4917  -15.0839  -14.6318 O   0  0  0  0  0  0  0  0  0  0  0  0
  2  1  1  0
  3  4  1  0
  3  2  1  0
  5  6  1  1
  5  4  1  0
  7  5  1  0
  8  7  2  0
  9 10  1  0
 10 20  2  0
 10 11  1  0
 11 12  2  0
 12 13  1  0
 13 14  1  0
 15 14  1  6
 15 16  1  0
 16  7  1  0
 17 29  1  0
 17 15  1  0
 18 17  2  0
 19 13  2  0
 20 19  1  0
 22 23  2  0
 22 21  1  0
 24 22  1  0
 25 26  1  0
 25 24  1  0
 26 27  1  0
 28 27  1  6
 28 29  1  0
 30 28  1  0
 30 31  1  0
 32 30  2  0
M  END
$$$$
