MYR.pdb
     RDKit          3D

 32 32  0  0  1  0  0  0  0  0999 V2000
   32.5037  -11.3724  -17.8226 C   0  0  0  0  0  0  0  0  0  0  0  0
   32.9751  -12.7425  -18.8541 S   0  0  0  0  0  0  0  0  0  0  0  0
   31.9879  -14.2169  -18.6915 C   0  0  0  0  0  0  0  0  0  0  0  0
   30.6309  -14.1951  -19.2621 C   0  0  0  0  0  0  0  0  0  0  0  0
   30.3733  -14.7117  -20.6128 C   0  0  2  0  0  0  0  0  0  0  0  0
   31.0721  -14.1213  -21.6996 N   0  0  0  0  0  0  0  0  0  0  0  0
   28.9012  -14.7065  -20.9587 C   0  0  0  0  0  0  0  0  0  0  0  0
   28.2534  -13.6368  -21.0963 O   0  0  0  0  0  0  0  0  0  0  0  0
   27.3482  -11.4416  -25.9958 O   0  0  0  0  0  0  0  0  0  0  0  0
   27.1955  -12.6114  -25.2587 C   0  0  0  0  0  0  0  0  0  0  0  0
   25.9592  -12.9751  -24.7140 C   0  0  0  0  0  0  0  0  0  0  0  0
   25.8247  -14.1401  -23.9846 C   0  0  0  0  0  0  0  0  0  0  0  0
   26.8984  -14.9808  -23.7691 C   0  0  0  0  0  0  0  0  0  0  0  0
   26.7252  -16.2151  -22.9884 C   0  0  0  0  0  0  0  0  0  0  0  0
   26.7770  -15.9563  -21.4773 C   0  0  2  0  0  0  0  0  0  0  0  0
   28.1862  -15.9185  -21.1436 N   0  0  0  0  0  0  0  0  0  0  0  0
   26.1028  -17.1379  -20.8638 C   0  0  0  0  0  0  0  0  0  0  0  0
   26.7269  -18.2303  -20.8697 O   0  0  0  0  0  0  0  0  0  0  0  0
   28.1041  -14.5992  -24.3164 C   0  0  0  0  0  0  0  0  0  0  0  0
   28.2652  -13.4464  -25.0456 C   0  0  0  0  0  0  0  0  0  0  0  0
   18.3673  -19.5209  -18.3326 N   0  0  0  0  0  0  0  0  0  0  0  0
   18.8286  -18.5077  -19.2062 C   0  0  0  0  0  0  0  0  0  0  0  0
   18.1878  -18.3127  -20.3330 N   0  0  0  0  0  0  0  0  0  0  0  0
   19.9410  -17.6866  -18.9363 N   0  0  0  0  0  0  0  0  0  0  0  0
   20.7673  -17.8683  -17.7171 C   0  0  0  0  0  0  0  0  0  0  0  0
   22.0548  -18.4421  -18.1565 C   0  0  0  0  0  0  0  0  0  0  0  0
   22.9437  -17.7255  -19.0569 C   0  0  0  0  0  0  0  0  0  0  0  0
   24.2188  -18.2529  -19.5705 C   0  0  2  0  0  0  0  0  0  0  0  0
   24.8168  -17.0619  -20.2934 N   0  0  0  0  0  0  0  0  0  0  0  0
   24.1924  -19.2825  -20.6143 C   0  0  0  0  0  0  0  0  0  0  0  0
   24.3773  -20.6565  -20.3208 O   0  0  0  0  0  0  0  0  0  0  0  0
   24.0099  -19.0546  -21.8286 O   0  0  0  0  0  0  0  0  0  0  0  0
  2  1  1  0
  3  4  1  0
  3  2  1  0
  5  6  1  6
  5  4  1  0
  7  5  1  0
  8  7  2  0
  9 10  1  0
 10 20  2  0
 10 11  1  0
 11 12  2  0
 12 13  1  0
 13 14  1  0
 15 14  1  6
 15 16  1  0
 16  7  1  0
 17 29  1  0
 17 15  1  0
 18 17  2  0
 19 13  2  0
 20 19  1  0
 22 23  2  0
 22 21  1  0
 24 22  1  0
 25 26  1  0
 25 24  1  0
 26 27  1  0
 28 27  1  6
 28 29  1  0
 30 28  1  0
 30 31  1  0
 32 30  2  0
M  END
$$$$
