MYR.pdb
     RDKit          3D

 32 32  0  0  1  0  0  0  0  0999 V2000
   31.1986  -22.1785   -9.6196 C   0  0  0  0  0  0  0  0  0  0  0  0
   29.5505  -21.5189   -9.7303 S   0  0  0  0  0  0  0  0  0  0  0  0
   28.9481  -21.1974  -11.3761 C   0  0  0  0  0  0  0  0  0  0  0  0
   27.5895  -20.6462  -11.5093 C   0  0  0  0  0  0  0  0  0  0  0  0
   26.4395  -21.5274  -11.7517 C   0  0  2  0  0  0  0  0  0  0  0  0
   26.5352  -22.4786  -12.8025 N   0  0  0  0  0  0  0  0  0  0  0  0
   25.1551  -20.7543  -11.9504 C   0  0  0  0  0  0  0  0  0  0  0  0
   25.0877  -19.5136  -11.7535 O   0  0  0  0  0  0  0  0  0  0  0  0
   25.1020  -23.3842  -17.9710 O   0  0  0  0  0  0  0  0  0  0  0  0
   24.5835  -22.5438  -16.9912 C   0  0  0  0  0  0  0  0  0  0  0  0
   25.3829  -21.5934  -16.3468 C   0  0  0  0  0  0  0  0  0  0  0  0
   24.8524  -20.7666  -15.3761 C   0  0  0  0  0  0  0  0  0  0  0  0
   23.5237  -20.8486  -15.0103 C   0  0  0  0  0  0  0  0  0  0  0  0
   22.9864  -19.9547  -13.9732 C   0  0  0  0  0  0  0  0  0  0  0  0
   22.7365  -20.6883  -12.6495 C   0  0  2  0  0  0  0  0  0  0  0  0
   23.9650  -21.4035  -12.3704 N   0  0  0  0  0  0  0  0  0  0  0  0
   21.6127  -21.6267  -12.9387 C   0  0  0  0  0  0  0  0  0  0  0  0
   21.9096  -22.8057  -13.2623 O   0  0  0  0  0  0  0  0  0  0  0  0
   22.7589  -21.7927  -15.6603 C   0  0  0  0  0  0  0  0  0  0  0  0
   23.2612  -22.6271  -16.6288 C   0  0  0  0  0  0  0  0  0  0  0  0
   19.1191  -24.2997   -6.8548 N   0  0  0  0  0  0  0  0  0  0  0  0
   18.0836  -24.4763   -7.8030 C   0  0  0  0  0  0  0  0  0  0  0  0
   16.8504  -24.5817   -7.3715 N   0  0  0  0  0  0  0  0  0  0  0  0
   18.2974  -24.5430   -9.1939 N   0  0  0  0  0  0  0  0  0  0  0  0
   19.6033  -24.1841   -9.8006 C   0  0  0  0  0  0  0  0  0  0  0  0
   19.3457  -23.0765  -10.7422 C   0  0  0  0  0  0  0  0  0  0  0  0
   19.3505  -23.2802  -12.1820 C   0  0  0  0  0  0  0  0  0  0  0  0
   19.1509  -22.2155  -13.1793 C   0  0  2  0  0  0  0  0  0  0  0  0
   20.2619  -21.2342  -12.8610 N   0  0  0  0  0  0  0  0  0  0  0  0
   17.9493  -21.3793  -13.0944 C   0  0  0  0  0  0  0  0  0  0  0  0
   18.0145  -19.9976  -12.7865 O   0  0  0  0  0  0  0  0  0  0  0  0
   16.7853  -21.7922  -13.2798 O   0  0  0  0  0  0  0  0  0  0  0  0
  2  1  1  0
  3  4  1  0
  3  2  1  0
  5  6  1  6
  5  4  1  0
  7  5  1  0
  8  7  2  0
  9 10  1  0
 10 20  2  0
 10 11  1  0
 11 12  2  0
 12 13  1  0
 13 14  1  0
 15 14  1  6
 15 16  1  0
 16  7  1  0
 17 29  1  0
 17 15  1  0
 18 17  2  0
 19 13  2  0
 20 19  1  0
 22 23  2  0
 22 21  1  0
 24 22  1  0
 25 26  1  0
 25 24  1  0
 26 27  1  0
 28 27  1  1
 28 29  1  0
 30 28  1  0
 30 31  1  0
 32 30  2  0
M  END
$$$$
