MYR.pdb
     RDKit          3D

 32 32  0  0  1  0  0  0  0  0999 V2000
   30.3505  -14.1890  -22.4547 C   0  0  0  0  0  0  0  0  0  0  0  0
   29.8990  -15.3799  -21.2133 S   0  0  0  0  0  0  0  0  0  0  0  0
   29.4485  -14.7154  -19.6225 C   0  0  0  0  0  0  0  0  0  0  0  0
   28.0325  -14.7934  -19.2271 C   0  0  0  0  0  0  0  0  0  0  0  0
   27.3504  -16.0900  -19.1211 C   0  0  2  0  0  0  0  0  0  0  0  0
   27.2713  -16.9016  -20.2844 N   0  0  0  0  0  0  0  0  0  0  0  0
   25.9527  -15.9594  -18.5587 C   0  0  0  0  0  0  0  0  0  0  0  0
   25.7133  -15.2943  -17.5181 O   0  0  0  0  0  0  0  0  0  0  0  0
   22.9127  -10.7784  -21.6167 O   0  0  0  0  0  0  0  0  0  0  0  0
   22.8441  -12.1059  -21.2070 C   0  0  0  0  0  0  0  0  0  0  0  0
   23.7852  -13.0505  -21.6309 C   0  0  0  0  0  0  0  0  0  0  0  0
   23.7027  -14.3647  -21.2147 C   0  0  0  0  0  0  0  0  0  0  0  0
   22.6954  -14.7894  -20.3714 C   0  0  0  0  0  0  0  0  0  0  0  0
   22.6330  -16.1954  -19.9446 C   0  0  0  0  0  0  0  0  0  0  0  0
   23.4886  -16.4610  -18.6994 C   0  0  2  0  0  0  0  0  0  0  0  0
   24.8465  -16.5875  -19.1881 N   0  0  0  0  0  0  0  0  0  0  0  0
   22.9817  -17.7551  -18.1562 C   0  0  0  0  0  0  0  0  0  0  0  0
   23.3229  -18.8088  -18.7531 O   0  0  0  0  0  0  0  0  0  0  0  0
   21.7821  -13.8392  -19.9691 C   0  0  0  0  0  0  0  0  0  0  0  0
   21.8411  -12.5262  -20.3680 C   0  0  0  0  0  0  0  0  0  0  0  0
   23.0333  -23.8559  -14.4045 N   0  0  0  0  0  0  0  0  0  0  0  0
   24.2517  -23.2035  -14.7080 C   0  0  0  0  0  0  0  0  0  0  0  0
   25.1742  -23.8702  -15.3581 N   0  0  0  0  0  0  0  0  0  0  0  0
   24.5358  -21.8696  -14.3549 N   0  0  0  0  0  0  0  0  0  0  0  0
   23.5509  -21.0273  -13.6319 C   0  0  0  0  0  0  0  0  0  0  0  0
   22.4939  -20.6794  -14.6022 C   0  0  0  0  0  0  0  0  0  0  0  0
   22.5986  -19.5103  -15.4605 C   0  0  0  0  0  0  0  0  0  0  0  0
   21.6359  -19.1582  -16.5175 C   0  0  2  0  0  0  0  0  0  0  0  0
   22.1508  -17.8239  -17.0205 N   0  0  0  0  0  0  0  0  0  0  0  0
   20.2523  -18.8484  -16.1433 C   0  0  0  0  0  0  0  0  0  0  0  0
   19.7967  -17.5162  -15.9824 O   0  0  0  0  0  0  0  0  0  0  0  0
   19.3668  -19.7043  -15.9359 O   0  0  0  0  0  0  0  0  0  0  0  0
  2  1  1  0
  3  4  1  0
  3  2  1  0
  5  6  1  6
  5  4  1  0
  7  5  1  0
  8  7  2  0
  9 10  1  0
 10 20  2  0
 10 11  1  0
 11 12  2  0
 12 13  1  0
 13 14  1  0
 15 14  1  6
 15 16  1  0
 16  7  1  0
 17 29  1  0
 17 15  1  0
 18 17  2  0
 19 13  2  0
 20 19  1  0
 22 23  2  0
 22 21  1  0
 24 22  1  0
 25 26  1  0
 25 24  1  0
 26 27  1  0
 28 27  1  1
 28 29  1  0
 30 28  1  0
 30 31  1  0
 32 30  2  0
M  END
$$$$
