MYR.pdb
     RDKit          3D

 32 32  0  0  1  0  0  0  0  0999 V2000
   30.4093  -17.5588  -19.9709 C   0  0  0  0  0  0  0  0  0  0  0  0
   29.5585  -18.3433  -18.6202 S   0  0  0  0  0  0  0  0  0  0  0  0
   28.0189  -19.1424  -19.0273 C   0  0  0  0  0  0  0  0  0  0  0  0
   27.3177  -19.8605  -17.9502 C   0  0  0  0  0  0  0  0  0  0  0  0
   28.0297  -20.8224  -17.0984 C   0  0  2  0  0  0  0  0  0  0  0  0
   28.5823  -21.9785  -17.7118 N   0  0  0  0  0  0  0  0  0  0  0  0
   27.1916  -21.2827  -15.9269 C   0  0  0  0  0  0  0  0  0  0  0  0
   26.3648  -22.2254  -16.0295 O   0  0  0  0  0  0  0  0  0  0  0  0
   23.7849  -20.8192   -7.7043 O   0  0  0  0  0  0  0  0  0  0  0  0
   24.5734  -20.6743   -8.8410 C   0  0  0  0  0  0  0  0  0  0  0  0
   25.5678  -21.6043   -9.1634 C   0  0  0  0  0  0  0  0  0  0  0  0
   26.3420  -21.4455  -10.2959 C   0  0  0  0  0  0  0  0  0  0  0  0
   26.1628  -20.3709  -11.1439 C   0  0  0  0  0  0  0  0  0  0  0  0
   27.0022  -20.2280  -12.3431 C   0  0  0  0  0  0  0  0  0  0  0  0
   26.4097  -20.9584  -13.5549 C   0  0  2  0  0  0  0  0  0  0  0  0
   27.3056  -20.6641  -14.6546 N   0  0  0  0  0  0  0  0  0  0  0  0
   25.0702  -20.3336  -13.7604 C   0  0  0  0  0  0  0  0  0  0  0  0
   25.0393  -19.1722  -14.2432 O   0  0  0  0  0  0  0  0  0  0  0  0
   25.1770  -19.4702  -10.8033 C   0  0  0  0  0  0  0  0  0  0  0  0
   24.3934  -19.6043   -9.6833 C   0  0  0  0  0  0  0  0  0  0  0  0
   20.8497  -22.0787  -19.8910 N   0  0  0  0  0  0  0  0  0  0  0  0
   21.2771  -22.7789  -18.7379 C   0  0  0  0  0  0  0  0  0  0  0  0
   21.7269  -24.0020  -18.8786 N   0  0  0  0  0  0  0  0  0  0  0  0
   21.2523  -22.2372  -17.4377 N   0  0  0  0  0  0  0  0  0  0  0  0
   20.7656  -20.8599  -17.1755 C   0  0  0  0  0  0  0  0  0  0  0  0
   20.9461  -20.6119  -15.7313 C   0  0  0  0  0  0  0  0  0  0  0  0
   22.2535  -20.6911  -15.0995 C   0  0  0  0  0  0  0  0  0  0  0  0
   22.5283  -20.3396  -13.6964 C   0  0  2  0  0  0  0  0  0  0  0  0
   23.8700  -20.9954  -13.4345 N   0  0  0  0  0  0  0  0  0  0  0  0
   21.6815  -20.9082  -12.6429 C   0  0  0  0  0  0  0  0  0  0  0  0
   20.5863  -20.1973  -12.0922 O   0  0  0  0  0  0  0  0  0  0  0  0
   21.8391  -22.0418  -12.1431 O   0  0  0  0  0  0  0  0  0  0  0  0
  2  1  1  0
  3  4  1  0
  3  2  1  0
  5  6  1  6
  5  4  1  0
  7  5  1  0
  8  7  2  0
  9 10  1  0
 10 20  2  0
 10 11  1  0
 11 12  2  0
 12 13  1  0
 13 14  1  0
 15 14  1  1
 15 16  1  0
 16  7  1  0
 17 29  1  0
 17 15  1  0
 18 17  2  0
 19 13  2  0
 20 19  1  0
 22 23  2  0
 22 21  1  0
 24 22  1  0
 25 26  1  0
 25 24  1  0
 26 27  1  0
 28 27  1  6
 28 29  1  0
 30 28  1  0
 30 31  1  0
 32 30  2  0
M  END
$$$$
