PNT.pdb
     RDKit          3D

 23 23  0  0  1  0  0  0  0  0999 V2000
   17.4852   -9.9785  -11.7208 N   0  0  0  0  0  0  0  0  0  0  0  0
   17.7340  -11.0118  -12.7037 C   0  0  0  0  0  0  0  0  0  0  0  0
   16.5080  -10.9138  -13.5853 C   0  0  0  0  0  0  0  0  0  0  0  0
   16.3258   -9.4236  -13.7154 C   0  0  0  0  0  0  0  0  0  0  0  0
   17.1012   -8.8604  -12.5558 C   0  0  1  0  0  0  0  0  0  0  0  0
   16.3606   -7.8933  -11.7560 C   0  0  0  0  0  0  0  0  0  0  0  0
   15.8590   -6.8829  -12.3078 O   0  0  0  0  0  0  0  0  0  0  0  0
   13.1639   -8.6919   -9.8148 N   0  0  0  0  0  0  0  0  0  0  0  0
   13.7481   -8.7001   -8.5075 C   0  0  0  0  0  0  0  0  0  0  0  0
   13.2339   -9.4388   -7.6472 O   0  0  0  0  0  0  0  0  0  0  0  0
   14.9152   -7.8206   -8.3108 C   0  0  0  0  0  0  0  0  0  0  0  0
   15.3260   -7.1091   -9.5811 C   0  0  2  0  0  0  0  0  0  0  0  0
   16.1476   -7.9986  -10.3462 N   0  0  0  0  0  0  0  0  0  0  0  0
   15.9898   -5.8451   -9.1759 C   0  0  0  0  0  0  0  0  0  0  0  0
   17.0507   -5.9768   -8.5252 O   0  0  0  0  0  0  0  0  0  0  0  0
   15.2015   -2.0494  -11.2082 C   0  0  0  0  0  0  0  0  0  0  0  0
   16.4463   -2.5535  -10.5563 C   0  0  1  0  0  0  0  0  0  0  0  0
   17.2451   -1.4495  -10.2517 O   0  0  0  0  0  0  0  0  0  0  0  0
   16.2112   -3.3418   -9.3181 C   0  0  2  0  0  0  0  0  0  0  0  0
   15.4888   -4.5662   -9.4849 N   0  0  0  0  0  0  0  0  0  0  0  0
   15.7063   -2.5241   -8.1825 C   0  0  0  0  0  0  0  0  0  0  0  0
   16.3915   -1.4715   -7.6216 O   0  0  0  0  0  0  0  0  0  0  0  0
   14.5719   -2.7824   -7.6733 O   0  0  0  0  0  0  0  0  0  0  0  0
  1  5  1  0
  1  2  1  0
  2  3  1  0
  4  3  1  0
  5  6  1  1
  5  4  1  0
  6 13  1  0
  7  6  2  0
  8  9  1  0
  9 11  1  0
 10  9  2  0
 12 11  1  1
 12 14  1  0
 13 12  1  0
 14 15  2  0
 14 20  1  0
 17 16  1  1
 17 18  1  0
 19 17  1  0
 19 21  1  0
 19 20  1  6
 21 22  1  0
 23 21  2  0
M  END
$$$$
