PNT.pdb
     RDKit          3D

 23 23  0  0  1  0  0  0  0  0999 V2000
   18.3901  -14.5479  -15.8007 N   0  0  0  0  0  0  0  0  0  0  0  0
   18.3018  -15.9297  -16.2233 C   0  0  0  0  0  0  0  0  0  0  0  0
   18.2523  -15.7989  -17.7300 C   0  0  0  0  0  0  0  0  0  0  0  0
   19.2815  -14.7297  -17.9922 C   0  0  0  0  0  0  0  0  0  0  0  0
   19.4340  -14.0391  -16.6646 C   0  0  1  0  0  0  0  0  0  0  0  0
   19.3381  -12.5867  -16.7328 C   0  0  0  0  0  0  0  0  0  0  0  0
   20.2463  -11.9286  -17.2977 O   0  0  0  0  0  0  0  0  0  0  0  0
   15.3237   -7.9980  -16.1126 N   0  0  0  0  0  0  0  0  0  0  0  0
   16.5564   -8.5448  -16.5944 C   0  0  0  0  0  0  0  0  0  0  0  0
   17.3741   -7.7625  -17.1135 O   0  0  0  0  0  0  0  0  0  0  0  0
   16.7338   -9.9987  -16.4242 C   0  0  0  0  0  0  0  0  0  0  0  0
   18.1834  -10.3880  -16.2351 C   0  0  2  0  0  0  0  0  0  0  0  0
   18.2607  -11.8175  -16.1928 N   0  0  0  0  0  0  0  0  0  0  0  0
   18.6603   -9.7040  -15.0075 C   0  0  0  0  0  0  0  0  0  0  0  0
   18.1561  -10.1060  -13.9348 O   0  0  0  0  0  0  0  0  0  0  0  0
   22.2602   -9.3925  -13.8110 C   0  0  0  0  0  0  0  0  0  0  0  0
   21.6334   -8.0400  -13.7288 C   0  0  1  0  0  0  0  0  0  0  0  0
   22.1660   -7.2601  -14.7573 O   0  0  0  0  0  0  0  0  0  0  0  0
   20.1509   -8.0461  -13.8391 C   0  0  2  0  0  0  0  0  0  0  0  0
   19.6144   -8.6688  -15.0110 N   0  0  0  0  0  0  0  0  0  0  0  0
   19.5305   -6.7248  -13.5523 C   0  0  0  0  0  0  0  0  0  0  0  0
   19.6972   -6.0300  -12.3769 O   0  0  0  0  0  0  0  0  0  0  0  0
   18.7952   -6.1691  -14.4260 O   0  0  0  0  0  0  0  0  0  0  0  0
  1  5  1  0
  1  2  1  0
  2  3  1  0
  4  3  1  0
  5  6  1  6
  5  4  1  0
  6 13  1  0
  7  6  2  0
  8  9  1  0
  9 11  1  0
 10  9  2  0
 12 11  1  1
 12 14  1  0
 13 12  1  0
 14 15  2  0
 14 20  1  0
 17 16  1  6
 17 18  1  0
 19 17  1  0
 19 21  1  0
 19 20  1  6
 21 22  1  0
 23 21  2  0
M  END
$$$$
