PNT.pdb
     RDKit          3D

 23 23  0  0  1  0  0  0  0  0999 V2000
   29.5805  -20.3392  -10.8359 N   0  0  0  0  0  0  0  0  0  0  0  0
   30.9626  -20.5695  -10.4717 C   0  0  0  0  0  0  0  0  0  0  0  0
   30.8501  -21.7427   -9.5227 C   0  0  0  0  0  0  0  0  0  0  0  0
   29.8317  -22.6144  -10.2110 C   0  0  0  0  0  0  0  0  0  0  0  0
   29.1307  -21.6771  -11.1560 C   0  0  1  0  0  0  0  0  0  0  0  0
   27.6765  -21.7283  -11.0782 C   0  0  0  0  0  0  0  0  0  0  0  0
   27.0807  -22.8169  -11.2704 O   0  0  0  0  0  0  0  0  0  0  0  0
   26.1486  -19.3405   -7.4375 N   0  0  0  0  0  0  0  0  0  0  0  0
   25.4283  -20.2725   -8.2517 C   0  0  0  0  0  0  0  0  0  0  0  0
   25.2451  -21.4176   -7.7986 O   0  0  0  0  0  0  0  0  0  0  0  0
   24.9707  -19.7740   -9.5618 C   0  0  0  0  0  0  0  0  0  0  0  0
   25.4098  -20.6613  -10.7057 C   0  0  2  0  0  0  0  0  0  0  0  0
   26.8384  -20.6061  -10.7917 N   0  0  0  0  0  0  0  0  0  0  0  0
   24.6963  -20.1909  -11.9190 C   0  0  0  0  0  0  0  0  0  0  0  0
   24.8605  -18.9844  -12.2083 O   0  0  0  0  0  0  0  0  0  0  0  0
   25.1409  -21.2284  -15.4304 C   0  0  0  0  0  0  0  0  0  0  0  0
   23.6749  -21.3139  -15.1618 C   0  0  1  0  0  0  0  0  0  0  0  0
   23.3379  -22.6652  -15.0621 O   0  0  0  0  0  0  0  0  0  0  0  0
   23.2381  -20.6100  -13.9274 C   0  0  2  0  0  0  0  0  0  0  0  0
   23.8811  -21.0176  -12.7153 N   0  0  0  0  0  0  0  0  0  0  0  0
   21.7597  -20.5141  -13.7922 C   0  0  0  0  0  0  0  0  0  0  0  0
   21.0495  -20.9780  -12.7094 O   0  0  0  0  0  0  0  0  0  0  0  0
   21.0748  -19.9725  -14.7144 O   0  0  0  0  0  0  0  0  0  0  0  0
  1  5  1  0
  1  2  1  0
  2  3  1  0
  4  3  1  0
  5  6  1  1
  5  4  1  0
  6 13  1  0
  7  6  2  0
  8  9  1  0
  9 11  1  0
 10  9  2  0
 12 11  1  1
 12 14  1  0
 13 12  1  0
 14 15  2  0
 14 20  1  0
 17 16  1  1
 17 18  1  0
 19 17  1  0
 19 21  1  0
 19 20  1  1
 21 22  1  0
 23 21  2  0
M  END
$$$$
