PNT.pdb
     RDKit          3D

 23 23  0  0  1  0  0  0  0  0999 V2000
   23.8040  -12.7972  -15.3128 N   0  0  0  0  0  0  0  0  0  0  0  0
   24.3132  -14.1220  -15.5986 C   0  0  0  0  0  0  0  0  0  0  0  0
   23.4574  -14.5451  -16.7727 C   0  0  0  0  0  0  0  0  0  0  0  0
   23.4046  -13.2867  -17.6000 C   0  0  0  0  0  0  0  0  0  0  0  0
   23.7770  -12.1986  -16.6303 C   0  0  1  0  0  0  0  0  0  0  0  0
   22.8624  -11.0643  -16.6258 C   0  0  0  0  0  0  0  0  0  0  0  0
   22.7670  -10.3373  -17.6453 O   0  0  0  0  0  0  0  0  0  0  0  0
   18.4961  -11.9331  -14.6740 N   0  0  0  0  0  0  0  0  0  0  0  0
   19.0340  -10.8457  -15.4347 C   0  0  0  0  0  0  0  0  0  0  0  0
   18.7122  -10.7622  -16.6345 O   0  0  0  0  0  0  0  0  0  0  0  0
   19.9266   -9.9230  -14.7093 C   0  0  0  0  0  0  0  0  0  0  0  0
   21.1587   -9.5596  -15.5083 C   0  0  2  0  0  0  0  0  0  0  0  0
   22.0338  -10.6933  -15.5213 N   0  0  0  0  0  0  0  0  0  0  0  0
   21.7333   -8.3391  -14.8897 C   0  0  0  0  0  0  0  0  0  0  0  0
   22.2063   -8.4875  -13.7405 O   0  0  0  0  0  0  0  0  0  0  0  0
   24.1158   -5.8370  -16.9314 C   0  0  0  0  0  0  0  0  0  0  0  0
   23.1341   -5.1017  -16.0804 C   0  0  1  0  0  0  0  0  0  0  0  0
   22.1573   -4.5661  -16.9222 O   0  0  0  0  0  0  0  0  0  0  0  0
   22.4775   -5.9394  -15.0425 C   0  0  2  0  0  0  0  0  0  0  0  0
   21.7618   -7.0820  -15.5231 N   0  0  0  0  0  0  0  0  0  0  0  0
   21.7032   -5.1501  -14.0473 C   0  0  0  0  0  0  0  0  0  0  0  0
   22.2611   -4.2483  -13.1711 O   0  0  0  0  0  0  0  0  0  0  0  0
   20.4429   -5.2882  -13.9740 O   0  0  0  0  0  0  0  0  0  0  0  0
  1  5  1  0
  1  2  1  0
  2  3  1  0
  4  3  1  0
  5  6  1  1
  5  4  1  0
  6 13  1  0
  7  6  2  0
  8  9  1  0
  9 11  1  0
 10  9  2  0
 12 11  1  1
 12 14  1  0
 13 12  1  0
 14 15  2  0
 14 20  1  0
 17 16  1  6
 17 18  1  0
 19 17  1  0
 19 21  1  0
 19 20  1  6
 21 22  1  0
 23 21  2  0
M  END
$$$$
