PNT.pdb
     RDKit          3D

 23 23  0  0  1  0  0  0  0  0999 V2000
   24.4799  -12.8335  -15.4658 N   0  0  0  0  0  0  0  0  0  0  0  0
   25.1954  -14.0864  -15.5850 C   0  0  0  0  0  0  0  0  0  0  0  0
   24.1534  -14.9894  -16.2084 C   0  0  0  0  0  0  0  0  0  0  0  0
   23.5238  -14.0877  -17.2386 C   0  0  0  0  0  0  0  0  0  0  0  0
   23.8894  -12.7023  -16.7806 C   0  0  1  0  0  0  0  0  0  0  0  0
   22.7638  -11.7793  -16.7136 C   0  0  0  0  0  0  0  0  0  0  0  0
   22.1726  -11.4407  -17.7686 O   0  0  0  0  0  0  0  0  0  0  0  0
   18.6740   -9.2109  -15.3515 N   0  0  0  0  0  0  0  0  0  0  0  0
   18.9066  -10.1613  -14.3061 C   0  0  0  0  0  0  0  0  0  0  0  0
   18.0018  -10.3353  -13.4687 O   0  0  0  0  0  0  0  0  0  0  0  0
   20.2121  -10.8465  -14.3283 C   0  0  0  0  0  0  0  0  0  0  0  0
   21.1112  -10.3458  -15.4371 C   0  0  2  0  0  0  0  0  0  0  0  0
   22.2553  -11.2046  -15.5073 N   0  0  0  0  0  0  0  0  0  0  0  0
   21.4189   -8.9250  -15.1388 C   0  0  0  0  0  0  0  0  0  0  0  0
   22.0858   -8.7237  -14.0990 O   0  0  0  0  0  0  0  0  0  0  0  0
   22.8292   -6.4437  -17.8903 C   0  0  0  0  0  0  0  0  0  0  0  0
   21.7757   -5.7824  -17.0649 C   0  0  1  0  0  0  0  0  0  0  0  0
   20.6223   -5.6832  -17.8455 O   0  0  0  0  0  0  0  0  0  0  0  0
   21.4503   -6.4972  -15.8027 C   0  0  2  0  0  0  0  0  0  0  0  0
   21.0050   -7.8498  -15.9480 N   0  0  0  0  0  0  0  0  0  0  0  0
   20.5969   -5.7052  -14.8767 C   0  0  0  0  0  0  0  0  0  0  0  0
   20.9491   -4.4825  -14.3542 O   0  0  0  0  0  0  0  0  0  0  0  0
   19.4614   -6.1526  -14.5255 O   0  0  0  0  0  0  0  0  0  0  0  0
  1  5  1  0
  1  2  1  0
  2  3  1  0
  4  3  1  0
  5  6  1  1
  5  4  1  0
  6 13  1  0
  7  6  2  0
  8  9  1  0
  9 11  1  0
 10  9  2  0
 12 11  1  1
 12 14  1  0
 13 12  1  0
 14 15  2  0
 14 20  1  0
 17 16  1  6
 17 18  1  0
 19 17  1  0
 19 21  1  0
 19 20  1  6
 21 22  1  0
 23 21  2  0
M  END
$$$$
