PNT.pdb
     RDKit          3D

 23 23  0  0  1  0  0  0  0  0999 V2000
   44.9889  -11.3019   -7.2702 N   0  0  0  0  0  0  0  0  0  0  0  0
   46.0544  -12.2310   -6.9579 C   0  0  0  0  0  0  0  0  0  0  0  0
   45.3428  -13.5648   -7.0239 C   0  0  0  0  0  0  0  0  0  0  0  0
   44.4732  -13.4034   -8.2440 C   0  0  0  0  0  0  0  0  0  0  0  0
   44.3942  -11.9139   -8.4393 C   0  0  1  0  0  0  0  0  0  0  0  0
   43.0396  -11.4057   -8.6132 C   0  0  0  0  0  0  0  0  0  0  0  0
   42.3763  -11.7355   -9.6272 O   0  0  0  0  0  0  0  0  0  0  0  0
   38.0419  -10.8520   -6.2189 N   0  0  0  0  0  0  0  0  0  0  0  0
   38.9650   -9.7792   -6.4364 C   0  0  0  0  0  0  0  0  0  0  0  0
   38.4975   -8.6393   -6.6158 O   0  0  0  0  0  0  0  0  0  0  0  0
   40.3950  -10.1390   -6.4255 C   0  0  0  0  0  0  0  0  0  0  0  0
   41.0069  -10.1264   -7.8090 C   0  0  2  0  0  0  0  0  0  0  0  0
   42.3758  -10.5324   -7.6963 N   0  0  0  0  0  0  0  0  0  0  0  0
   40.8073   -8.7628   -8.3599 C   0  0  0  0  0  0  0  0  0  0  0  0
   41.5729   -7.8811   -7.9096 O   0  0  0  0  0  0  0  0  0  0  0  0
   39.9893   -7.9382  -12.2923 C   0  0  0  0  0  0  0  0  0  0  0  0
   39.1532   -7.1641  -11.3278 C   0  0  1  0  0  0  0  0  0  0  0  0
   37.8706   -7.7159  -11.3371 O   0  0  0  0  0  0  0  0  0  0  0  0
   39.6725   -7.1606   -9.9349 C   0  0  2  0  0  0  0  0  0  0  0  0
   39.8325   -8.4456   -9.3249 N   0  0  0  0  0  0  0  0  0  0  0  0
   38.9851   -6.1829   -9.0491 C   0  0  0  0  0  0  0  0  0  0  0  0
   38.8585   -4.8417   -9.3276 O   0  0  0  0  0  0  0  0  0  0  0  0
   38.4665   -6.5747   -7.9581 O   0  0  0  0  0  0  0  0  0  0  0  0
  1  5  1  0
  1  2  1  0
  2  3  1  0
  4  3  1  0
  5  6  1  1
  5  4  1  0
  6 13  1  0
  7  6  2  0
  8  9  1  0
  9 11  1  0
 10  9  2  0
 12 11  1  1
 12 14  1  0
 13 12  1  0
 14 15  2  0
 14 20  1  0
 17 16  1  6
 17 18  1  0
 19 17  1  0
 19 21  1  0
 19 20  1  1
 21 22  1  0
 23 21  2  0
M  END
$$$$
