PNT.pdb
     RDKit          3D

 23 23  0  0  1  0  0  0  0  0999 V2000
   17.6050  -12.1075  -16.0552 N   0  0  0  0  0  0  0  0  0  0  0  0
   18.1030  -13.2821  -16.7394 C   0  0  0  0  0  0  0  0  0  0  0  0
   19.4687  -12.8247  -17.2034 C   0  0  0  0  0  0  0  0  0  0  0  0
   19.9770  -12.0672  -16.0039 C   0  0  0  0  0  0  0  0  0  0  0  0
   18.7323  -11.7492  -15.2211 C   0  0  1  0  0  0  0  0  0  0  0  0
   18.6157  -10.3511  -14.8275 C   0  0  0  0  0  0  0  0  0  0  0  0
   18.2371   -9.4974  -15.6671 O   0  0  0  0  0  0  0  0  0  0  0  0
   16.5003   -9.6760  -10.5761 N   0  0  0  0  0  0  0  0  0  0  0  0
   16.8490   -8.8256  -11.6741 C   0  0  0  0  0  0  0  0  0  0  0  0
   15.9491   -8.5174  -12.4774 O   0  0  0  0  0  0  0  0  0  0  0  0
   18.2578   -8.3956  -11.7422 C   0  0  0  0  0  0  0  0  0  0  0  0
   18.8196   -8.4688  -13.1449 C   0  0  2  0  0  0  0  0  0  0  0  0
   18.9054   -9.8482  -13.5209 N   0  0  0  0  0  0  0  0  0  0  0  0
   20.1163   -7.7472  -13.1318 C   0  0  0  0  0  0  0  0  0  0  0  0
   21.0043   -8.2455  -12.4041 O   0  0  0  0  0  0  0  0  0  0  0  0
   22.4784   -7.4454  -15.9011 C   0  0  0  0  0  0  0  0  0  0  0  0
   22.2271   -6.0553  -15.4183 C   0  0  1  0  0  0  0  0  0  0  0  0
   21.3494   -5.4444  -16.3161 O   0  0  0  0  0  0  0  0  0  0  0  0
   21.6550   -5.9786  -14.0484 C   0  0  2  0  0  0  0  0  0  0  0  0
   20.3668   -6.5780  -13.8751 N   0  0  0  0  0  0  0  0  0  0  0  0
   21.7464   -4.6224  -13.4436 C   0  0  0  0  0  0  0  0  0  0  0  0
   22.9266   -4.0099  -13.0912 O   0  0  0  0  0  0  0  0  0  0  0  0
   20.6881   -3.9549  -13.2264 O   0  0  0  0  0  0  0  0  0  0  0  0
  1  5  1  0
  1  2  1  0
  2  3  1  0
  4  3  1  0
  5  6  1  6
  5  4  1  0
  6 13  1  0
  7  6  2  0
  8  9  1  0
  9 11  1  0
 10  9  2  0
 12 11  1  1
 12 14  1  0
 13 12  1  0
 14 15  2  0
 14 20  1  0
 17 16  1  6
 17 18  1  0
 19 17  1  0
 19 21  1  0
 19 20  1  6
 21 22  1  0
 23 21  2  0
M  END
$$$$
