PNT.pdb
     RDKit          3D

 23 23  0  0  1  0  0  0  0  0999 V2000
   19.0617  -13.5046  -16.4130 N   0  0  0  0  0  0  0  0  0  0  0  0
   18.2918  -14.5420  -17.0664 C   0  0  0  0  0  0  0  0  0  0  0  0
   16.9745  -14.4753  -16.3247 C   0  0  0  0  0  0  0  0  0  0  0  0
   16.7557  -12.9901  -16.1943 C   0  0  0  0  0  0  0  0  0  0  0  0
   18.1246  -12.4017  -16.4015 C   0  0  1  0  0  0  0  0  0  0  0  0
   18.5225  -11.4417  -15.3800 C   0  0  0  0  0  0  0  0  0  0  0  0
   18.8355  -11.8466  -14.2332 O   0  0  0  0  0  0  0  0  0  0  0  0
   22.0829   -8.7632  -14.3273 N   0  0  0  0  0  0  0  0  0  0  0  0
   21.1790   -8.6312  -15.4301 C   0  0  0  0  0  0  0  0  0  0  0  0
   21.5723   -9.0060  -16.5503 O   0  0  0  0  0  0  0  0  0  0  0  0
   19.8563   -8.0568  -15.1220 C   0  0  0  0  0  0  0  0  0  0  0  0
   18.8992   -9.0788  -14.5492 C   0  0  2  0  0  0  0  0  0  0  0  0
   18.5900  -10.0272  -15.5770 N   0  0  0  0  0  0  0  0  0  0  0  0
   17.7303   -8.3317  -14.0220 C   0  0  0  0  0  0  0  0  0  0  0  0
   16.8370   -8.0668  -14.8576 O   0  0  0  0  0  0  0  0  0  0  0  0
   15.7772   -9.2200  -10.6179 C   0  0  0  0  0  0  0  0  0  0  0  0
   16.0755   -7.7623  -10.7393 C   0  0  1  0  0  0  0  0  0  0  0  0
   17.1330   -7.4702   -9.8755 O   0  0  0  0  0  0  0  0  0  0  0  0
   16.4338   -7.3245  -12.1140 C   0  0  2  0  0  0  0  0  0  0  0  0
   17.6008   -7.9313  -12.6785 N   0  0  0  0  0  0  0  0  0  0  0  0
   16.4086   -5.8476  -12.2906 C   0  0  0  0  0  0  0  0  0  0  0  0
   15.3101   -5.0571  -12.0445 O   0  0  0  0  0  0  0  0  0  0  0  0
   17.4506   -5.2412  -12.6898 O   0  0  0  0  0  0  0  0  0  0  0  0
  1  5  1  0
  1  2  1  0
  2  3  1  0
  4  3  1  0
  5  6  1  1
  5  4  1  0
  6 13  1  0
  7  6  2  0
  8  9  1  0
  9 11  1  0
 10  9  2  0
 12 11  1  6
 12 14  1  0
 13 12  1  0
 14 15  2  0
 14 20  1  0
 17 16  1  6
 17 18  1  0
 19 17  1  0
 19 21  1  0
 19 20  1  1
 21 22  1  0
 23 21  2  0
M  END
$$$$
