PNT.pdb
     RDKit          3D

 23 23  0  0  1  0  0  0  0  0999 V2000
   20.8056  -10.4748  -15.2674 N   0  0  0  0  0  0  0  0  0  0  0  0
   20.6705  -11.7615  -15.9170 C   0  0  0  0  0  0  0  0  0  0  0  0
   19.1733  -11.8638  -16.1117 C   0  0  0  0  0  0  0  0  0  0  0  0
   18.8125  -10.4694  -16.5549 C   0  0  0  0  0  0  0  0  0  0  0  0
   19.9773   -9.6317  -16.1029 C   0  0  1  0  0  0  0  0  0  0  0  0
   19.6001   -8.4370  -15.3586 C   0  0  0  0  0  0  0  0  0  0  0  0
   19.0170   -7.4942  -15.9486 O   0  0  0  0  0  0  0  0  0  0  0  0
   19.2624   -6.3454   -9.5697 N   0  0  0  0  0  0  0  0  0  0  0  0
   18.8708   -6.3060  -10.9465 C   0  0  0  0  0  0  0  0  0  0  0  0
   18.1997   -5.3304  -11.3308 O   0  0  0  0  0  0  0  0  0  0  0  0
   19.3084   -7.4409  -11.7802 C   0  0  0  0  0  0  0  0  0  0  0  0
   19.4741   -7.0619  -13.2353 C   0  0  2  0  0  0  0  0  0  0  0  0
   19.8451   -8.2376  -13.9643 N   0  0  0  0  0  0  0  0  0  0  0  0
   20.4672   -5.9603  -13.2870 C   0  0  0  0  0  0  0  0  0  0  0  0
   21.6014   -6.2340  -12.8341 O   0  0  0  0  0  0  0  0  0  0  0  0
   21.0190   -3.8685  -16.6213 C   0  0  0  0  0  0  0  0  0  0  0  0
   21.8956   -3.9012  -15.4134 C   0  0  1  0  0  0  0  0  0  0  0  0
   22.8614   -2.9036  -15.5604 O   0  0  0  0  0  0  0  0  0  0  0  0
   21.1745   -3.6963  -14.1296 C   0  0  2  0  0  0  0  0  0  0  0  0
   20.1878   -4.6807  -13.8036 N   0  0  0  0  0  0  0  0  0  0  0  0
   20.6850   -2.3042  -13.9410 C   0  0  0  0  0  0  0  0  0  0  0  0
   21.4918   -1.1903  -13.9625 O   0  0  0  0  0  0  0  0  0  0  0  0
   19.4482   -2.0901  -13.7483 O   0  0  0  0  0  0  0  0  0  0  0  0
  1  5  1  0
  1  2  1  0
  2  3  1  0
  4  3  1  0
  5  6  1  1
  5  4  1  0
  6 13  1  0
  7  6  2  0
  8  9  1  0
  9 11  1  0
 10  9  2  0
 12 11  1  1
 12 14  1  0
 13 12  1  0
 14 15  2  0
 14 20  1  0
 17 16  1  6
 17 18  1  0
 19 17  1  0
 19 21  1  0
 19 20  1  6
 21 22  1  0
 23 21  2  0
M  END
$$$$
