PNT.pdb
     RDKit          3D

 23 23  0  0  1  0  0  0  0  0999 V2000
   24.7869  -11.6409  -16.0860 N   0  0  0  0  0  0  0  0  0  0  0  0
   25.4124  -12.8750  -16.5122 C   0  0  0  0  0  0  0  0  0  0  0  0
   24.2886  -13.5596  -17.2594 C   0  0  0  0  0  0  0  0  0  0  0  0
   23.6789  -12.4200  -18.0343 C   0  0  0  0  0  0  0  0  0  0  0  0
   24.1536  -11.1915  -17.3074 C   0  0  1  0  0  0  0  0  0  0  0  0
   23.0952  -10.2444  -16.9815 C   0  0  0  0  0  0  0  0  0  0  0  0
   22.4643   -9.6737  -17.9052 O   0  0  0  0  0  0  0  0  0  0  0  0
   19.5165  -10.4878  -15.9235 N   0  0  0  0  0  0  0  0  0  0  0  0
   19.7507  -10.3386  -14.5188 C   0  0  0  0  0  0  0  0  0  0  0  0
   18.9777  -10.9224  -13.7368 O   0  0  0  0  0  0  0  0  0  0  0  0
   20.8996   -9.4969  -14.1366 C   0  0  0  0  0  0  0  0  0  0  0  0
   21.6549   -8.9671  -15.3355 C   0  0  2  0  0  0  0  0  0  0  0  0
   22.6980   -9.8957  -15.6531 N   0  0  0  0  0  0  0  0  0  0  0  0
   22.1234   -7.6030  -14.9858 C   0  0  0  0  0  0  0  0  0  0  0  0
   23.2241   -7.5456  -14.3929 O   0  0  0  0  0  0  0  0  0  0  0  0
   21.5573   -2.6341  -15.2668 C   0  0  0  0  0  0  0  0  0  0  0  0
   21.0255   -4.0004  -15.5479 C   0  0  1  0  0  0  0  0  0  0  0  0
   20.9685   -4.1588  -16.9340 O   0  0  0  0  0  0  0  0  0  0  0  0
   21.8341   -5.1027  -14.9640 C   0  0  2  0  0  0  0  0  0  0  0  0
   21.4047   -6.4299  -15.2849 N   0  0  0  0  0  0  0  0  0  0  0  0
   22.1208   -4.9235  -13.5152 C   0  0  0  0  0  0  0  0  0  0  0  0
   21.5455   -5.6709  -12.5139 O   0  0  0  0  0  0  0  0  0  0  0  0
   22.9469   -4.0350  -13.1399 O   0  0  0  0  0  0  0  0  0  0  0  0
  1  5  1  0
  1  2  1  0
  2  3  1  0
  4  3  1  0
  5  6  1  1
  5  4  1  0
  6 13  1  0
  7  6  2  0
  8  9  1  0
  9 11  1  0
 10  9  2  0
 12 11  1  1
 12 14  1  0
 13 12  1  0
 14 15  2  0
 14 20  1  0
 17 16  1  6
 17 18  1  0
 19 17  1  0
 19 21  1  0
 19 20  1  1
 21 22  1  0
 23 21  2  0
M  END
$$$$
