PNT.pdb
     RDKit          3D

 23 23  0  0  1  0  0  0  0  0999 V2000
   31.8790  -33.1348  -17.9899 N   0  0  0  0  0  0  0  0  0  0  0  0
   32.9273  -32.2121  -18.3716 C   0  0  0  0  0  0  0  0  0  0  0  0
   32.1942  -30.8885  -18.3915 C   0  0  0  0  0  0  0  0  0  0  0  0
   31.3343  -30.9806  -17.1574 C   0  0  0  0  0  0  0  0  0  0  0  0
   31.2810  -32.4544  -16.8610 C   0  0  1  0  0  0  0  0  0  0  0  0
   29.9360  -32.9713  -16.6440 C   0  0  0  0  0  0  0  0  0  0  0  0
   29.3777  -33.6504  -17.5407 O   0  0  0  0  0  0  0  0  0  0  0  0
   25.5644  -33.6289  -12.4609 N   0  0  0  0  0  0  0  0  0  0  0  0
   26.3188  -34.1784  -13.5468 C   0  0  0  0  0  0  0  0  0  0  0  0
   25.8207  -35.1306  -14.1756 O   0  0  0  0  0  0  0  0  0  0  0  0
   27.6267  -33.5518  -13.8132 C   0  0  0  0  0  0  0  0  0  0  0  0
   27.8188  -33.2087  -15.2741 C   0  0  2  0  0  0  0  0  0  0  0  0
   29.1685  -32.7650  -15.4555 N   0  0  0  0  0  0  0  0  0  0  0  0
   26.7831  -32.2051  -15.6244 C   0  0  0  0  0  0  0  0  0  0  0  0
   26.9762  -31.0516  -15.1788 O   0  0  0  0  0  0  0  0  0  0  0  0
   23.4214  -32.7311  -18.6379 C   0  0  0  0  0  0  0  0  0  0  0  0
   24.3226  -31.5937  -18.2874 C   0  0  1  0  0  0  0  0  0  0  0  0
   23.6761  -30.4103  -18.6498 O   0  0  0  0  0  0  0  0  0  0  0  0
   24.6909  -31.5272  -16.8487 C   0  0  2  0  0  0  0  0  0  0  0  0
   25.6468  -32.4951  -16.4034 N   0  0  0  0  0  0  0  0  0  0  0  0
   23.5172  -31.4157  -15.9415 C   0  0  0  0  0  0  0  0  0  0  0  0
   22.7790  -30.2680  -15.7682 O   0  0  0  0  0  0  0  0  0  0  0  0
   23.1402  -32.4250  -15.2692 O   0  0  0  0  0  0  0  0  0  0  0  0
  1  5  1  0
  1  2  1  0
  2  3  1  0
  4  3  1  0
  5  6  1  6
  5  4  1  0
  6 13  1  0
  7  6  2  0
  8  9  1  0
  9 11  1  0
 10  9  2  0
 12 11  1  1
 12 14  1  0
 13 12  1  0
 14 15  2  0
 14 20  1  0
 17 16  1  1
 17 18  1  0
 19 17  1  0
 19 21  1  0
 19 20  1  1
 21 22  1  0
 23 21  2  0
M  END
$$$$
