NPW.pdb
     RDKit          3D

 30 32  0  0  1  0  0  0  0  0999 V2000
   21.9528  -17.1236  -17.2726 N   0  0  0  0  0  0  0  0  0  0  0  0
   23.3503  -17.1210  -16.9379 C   0  0  0  0  0  0  0  0  0  0  0  0
   23.9746  -16.0826  -17.2201 O   0  0  0  0  0  0  0  0  0  0  0  0
   24.0103  -18.2609  -16.3038 C   0  0  0  0  0  0  0  0  0  0  0  0
   25.0815  -18.8752  -17.1277 C   0  0  2  0  0  0  0  0  0  0  0  0
   24.5190  -19.5121  -18.3319 N   0  0  0  0  0  0  0  0  0  0  0  0
   25.8674  -19.9321  -16.3748 C   0  0  0  0  0  0  0  0  0  0  0  0
   25.3368  -21.0435  -16.2625 O   0  0  0  0  0  0  0  0  0  0  0  0
   27.1473  -19.6772  -15.8219 N   0  0  0  0  0  0  0  0  0  0  0  0
   28.0582  -18.7027  -16.4696 C   0  0  0  0  0  0  0  0  0  0  0  0
   28.9870  -18.2358  -15.3435 C   0  0  0  0  0  0  0  0  0  0  0  0
   28.3300  -18.8315  -14.0813 C   0  0  0  0  0  0  0  0  0  0  0  0
   27.8930  -20.1568  -14.7138 C   0  0  1  0  0  0  0  0  0  0  0  0
   27.3364  -21.0963  -13.7824 C   0  0  0  0  0  0  0  0  0  0  0  0
   27.8288  -22.2119  -13.5416 O   0  0  0  0  0  0  0  0  0  0  0  0
   26.1265  -20.8180  -13.0252 N   0  0  0  0  0  0  0  0  0  0  0  0
   25.6080  -21.7309  -12.0650 C   0  0  1  0  0  0  0  0  0  0  0  0
   26.6022  -22.0027  -10.9700 C   0  0  0  0  0  0  0  0  0  0  0  0
   26.5644  -21.0246   -9.8738 C   0  0  0  0  0  0  0  0  0  0  0  0
   25.4818  -20.1600   -9.6458 C   0  0  0  0  0  0  0  0  0  0  0  0
   25.7861  -19.4390   -8.5616 N   0  0  0  0  0  0  0  0  0  0  0  0
   27.0077  -19.8032   -8.0927 C   0  0  0  0  0  0  0  0  0  0  0  0
   27.7577  -19.3648   -7.0278 C   0  0  0  0  0  0  0  0  0  0  0  0
   28.9995  -19.8789   -6.7344 C   0  0  0  0  0  0  0  0  0  0  0  0
   29.4989  -20.8813   -7.5605 C   0  0  0  0  0  0  0  0  0  0  0  0
   28.7741  -21.3437   -8.6368 C   0  0  0  0  0  0  0  0  0  0  0  0
   27.5275  -20.8104   -8.9091 C   0  0  0  0  0  0  0  0  0  0  0  0
   24.3181  -21.3026  -11.4840 C   0  0  0  0  0  0  0  0  0  0  0  0
   23.8729  -20.0113  -11.6522 O   0  0  0  0  0  0  0  0  0  0  0  0
   23.6279  -22.1118  -10.8347 O   0  0  0  0  0  0  0  0  0  0  0  0
  2  1  1  0
  3  2  2  0
  4  2  1  0
  4  5  1  0
  5  6  1  6
  7  5  1  0
  7  8  2  0
  9  7  1  0
 10  9  1  0
 11 12  1  0
 11 10  1  0
 12 13  1  0
 13  9  1  0
 13 14  1  1
 14 15  2  0
 16 14  1  0
 16 17  1  0
 17 28  1  0
 17 18  1  1
 19 18  1  0
 20 19  2  0
 21 22  1  0
 21 20  1  0
 22 27  2  0
 23 22  1  0
 23 24  2  0
 24 25  1  0
 25 26  2  0
 27 19  1  0
 27 26  1  0
 28 29  1  0
 30 28  2  0
M  END
$$$$
