NPW.pdb
     RDKit          3D

 30 32  0  0  1  0  0  0  0  0999 V2000
   24.9027  -14.8844  -20.0501 N   0  0  0  0  0  0  0  0  0  0  0  0
   24.3343  -13.6004  -20.3559 C   0  0  0  0  0  0  0  0  0  0  0  0
   24.2410  -13.3214  -21.5646 O   0  0  0  0  0  0  0  0  0  0  0  0
   23.8880  -12.6701  -19.3203 C   0  0  0  0  0  0  0  0  0  0  0  0
   24.1094  -13.1551  -17.9349 C   0  0  2  0  0  0  0  0  0  0  0  0
   23.2891  -14.3477  -17.6577 N   0  0  0  0  0  0  0  0  0  0  0  0
   23.7704  -12.1119  -16.8869 C   0  0  0  0  0  0  0  0  0  0  0  0
   22.5693  -11.9121  -16.6708 O   0  0  0  0  0  0  0  0  0  0  0  0
   24.7666  -11.3932  -16.1800 N   0  0  0  0  0  0  0  0  0  0  0  0
   25.9384  -12.1045  -15.6142 C   0  0  0  0  0  0  0  0  0  0  0  0
   27.0272  -11.0310  -15.5092 C   0  0  0  0  0  0  0  0  0  0  0  0
   26.4167   -9.8402  -16.2767 C   0  0  0  0  0  0  0  0  0  0  0  0
   24.9736  -10.0409  -15.8026 C   0  0  1  0  0  0  0  0  0  0  0  0
   24.0724   -9.0002  -16.2085 C   0  0  0  0  0  0  0  0  0  0  0  0
   23.9381   -8.6153  -17.3827 O   0  0  0  0  0  0  0  0  0  0  0  0
   23.2222   -8.2942  -15.2634 N   0  0  0  0  0  0  0  0  0  0  0  0
   22.2395   -7.3555  -15.6844 C   0  0  1  0  0  0  0  0  0  0  0  0
   21.2499   -7.9798  -16.6290 C   0  0  0  0  0  0  0  0  0  0  0  0
   20.4677   -9.0736  -16.0360 C   0  0  0  0  0  0  0  0  0  0  0  0
   20.0086   -9.0649  -14.7091 C   0  0  0  0  0  0  0  0  0  0  0  0
   19.3214  -10.1982  -14.5317 N   0  0  0  0  0  0  0  0  0  0  0  0
   19.3236  -10.9242  -15.6797 C   0  0  0  0  0  0  0  0  0  0  0  0
   18.7746  -12.1414  -16.0050 C   0  0  0  0  0  0  0  0  0  0  0  0
   18.9092  -12.7053  -17.2525 C   0  0  0  0  0  0  0  0  0  0  0  0
   19.6337  -12.0003  -18.2089 C   0  0  0  0  0  0  0  0  0  0  0  0
   20.1979  -10.7782  -17.9165 C   0  0  0  0  0  0  0  0  0  0  0  0
   20.0467  -10.2330  -16.6546 C   0  0  0  0  0  0  0  0  0  0  0  0
   21.5294   -6.7056  -14.5627 C   0  0  0  0  0  0  0  0  0  0  0  0
   20.7763   -5.5738  -14.7773 O   0  0  0  0  0  0  0  0  0  0  0  0
   21.6130   -7.1803  -13.4136 O   0  0  0  0  0  0  0  0  0  0  0  0
  2  1  1  0
  3  2  2  0
  4  2  1  0
  4  5  1  0
  5  6  1  1
  7  5  1  0
  7  8  2  0
  9  7  1  0
 10  9  1  0
 11 12  1  0
 11 10  1  0
 12 13  1  0
 13  9  1  0
 13 14  1  6
 14 15  2  0
 16 14  1  0
 16 17  1  0
 17 28  1  0
 17 18  1  6
 19 18  1  0
 20 19  2  0
 21 22  1  0
 21 20  1  0
 22 27  2  0
 23 22  1  0
 23 24  2  0
 24 25  1  0
 25 26  2  0
 27 19  1  0
 27 26  1  0
 28 29  1  0
 30 28  2  0
M  END
$$$$
