NPW.pdb
     RDKit          3D

 30 32  0  0  1  0  0  0  0  0999 V2000
   30.5948  -25.4387  -15.7609 N   0  0  0  0  0  0  0  0  0  0  0  0
   31.1165  -24.2140  -16.3023 C   0  0  0  0  0  0  0  0  0  0  0  0
   32.3299  -24.2143  -16.5761 O   0  0  0  0  0  0  0  0  0  0  0  0
   30.2834  -23.0333  -16.5237 C   0  0  0  0  0  0  0  0  0  0  0  0
   28.9169  -23.1412  -15.9538 C   0  0  2  0  0  0  0  0  0  0  0  0
   27.8953  -22.9976  -17.0063 N   0  0  0  0  0  0  0  0  0  0  0  0
   28.6374  -22.0892  -14.8970 C   0  0  0  0  0  0  0  0  0  0  0  0
   29.2666  -22.1866  -13.8368 O   0  0  0  0  0  0  0  0  0  0  0  0
   27.7062  -21.0397  -15.0971 N   0  0  0  0  0  0  0  0  0  0  0  0
   27.6801  -20.3019  -16.3832 C   0  0  0  0  0  0  0  0  0  0  0  0
   26.2557  -19.7448  -16.4792 C   0  0  0  0  0  0  0  0  0  0  0  0
   25.5272  -20.4503  -15.3167 C   0  0  0  0  0  0  0  0  0  0  0  0
   26.6939  -20.4138  -14.3242 C   0  0  1  0  0  0  0  0  0  0  0  0
   26.3589  -20.8761  -13.0074 C   0  0  0  0  0  0  0  0  0  0  0  0
   26.0395  -22.0476  -12.7419 O   0  0  0  0  0  0  0  0  0  0  0  0
   26.3656  -19.9974  -11.8488 N   0  0  0  0  0  0  0  0  0  0  0  0
   26.1293  -20.4803  -10.5315 C   0  0  1  0  0  0  0  0  0  0  0  0
   27.2731  -20.1537   -9.6114 C   0  0  0  0  0  0  0  0  0  0  0  0
   27.0012  -20.4424   -8.1963 C   0  0  0  0  0  0  0  0  0  0  0  0
   25.9832  -21.3079   -7.7653 C   0  0  0  0  0  0  0  0  0  0  0  0
   26.0484  -21.3451   -6.4303 N   0  0  0  0  0  0  0  0  0  0  0  0
   27.0562  -20.5454   -5.9947 C   0  0  0  0  0  0  0  0  0  0  0  0
   27.5179  -20.2422   -4.7363 C   0  0  0  0  0  0  0  0  0  0  0  0
   28.5698  -19.3824   -4.5201 C   0  0  0  0  0  0  0  0  0  0  0  0
   29.1768  -18.8067   -5.6322 C   0  0  0  0  0  0  0  0  0  0  0  0
   28.7391  -19.0881   -6.9076 C   0  0  0  0  0  0  0  0  0  0  0  0
   27.6799  -19.9569   -7.0973 C   0  0  0  0  0  0  0  0  0  0  0  0
   24.8577  -20.0016   -9.9496 C   0  0  0  0  0  0  0  0  0  0  0  0
   24.1969  -20.7538   -9.0053 O   0  0  0  0  0  0  0  0  0  0  0  0
   24.3760  -18.9122  -10.3157 O   0  0  0  0  0  0  0  0  0  0  0  0
  2  1  1  0
  3  2  2  0
  4  2  1  0
  4  5  1  0
  5  6  1  6
  7  5  1  0
  7  8  2  0
  9  7  1  0
 10  9  1  0
 11 12  1  0
 11 10  1  0
 12 13  1  0
 13  9  1  0
 13 14  1  1
 14 15  2  0
 16 14  1  0
 16 17  1  0
 17 28  1  0
 17 18  1  1
 19 18  1  0
 20 19  2  0
 21 22  1  0
 21 20  1  0
 22 27  2  0
 23 22  1  0
 23 24  2  0
 24 25  1  0
 25 26  2  0
 27 19  1  0
 27 26  1  0
 28 29  1  0
 30 28  2  0
M  END
$$$$
