NPW.pdb
     RDKit          3D

 30 32  0  0  1  0  0  0  0  0999 V2000
   24.0772  -21.1797  -19.0040 N   0  0  0  0  0  0  0  0  0  0  0  0
   24.9953  -20.5598  -18.0886 C   0  0  0  0  0  0  0  0  0  0  0  0
   25.4834  -19.4770  -18.4585 O   0  0  0  0  0  0  0  0  0  0  0  0
   25.3424  -21.1534  -16.7986 C   0  0  0  0  0  0  0  0  0  0  0  0
   26.7843  -21.4724  -16.6475 C   0  0  2  0  0  0  0  0  0  0  0  0
   27.1498  -22.6502  -17.4545 N   0  0  0  0  0  0  0  0  0  0  0  0
   27.1734  -21.7629  -15.2102 C   0  0  0  0  0  0  0  0  0  0  0  0
   26.8881  -22.8842  -14.7737 O   0  0  0  0  0  0  0  0  0  0  0  0
   27.8322  -20.8099  -14.3938 N   0  0  0  0  0  0  0  0  0  0  0  0
   28.9708  -20.0274  -14.9326 C   0  0  0  0  0  0  0  0  0  0  0  0
   29.0024  -18.7551  -14.0788 C   0  0  0  0  0  0  0  0  0  0  0  0
   27.6866  -18.8407  -13.2782 C   0  0  0  0  0  0  0  0  0  0  0  0
   27.7099  -20.3563  -13.0548 C   0  0  1  0  0  0  0  0  0  0  0  0
   26.6711  -20.8379  -12.1893 C   0  0  0  0  0  0  0  0  0  0  0  0
   25.5153  -21.0959  -12.5666 O   0  0  0  0  0  0  0  0  0  0  0  0
   26.8861  -21.0709  -10.7701 N   0  0  0  0  0  0  0  0  0  0  0  0
   25.8502  -21.5401   -9.9149 C   0  0  1  0  0  0  0  0  0  0  0  0
   26.3601  -21.8038   -8.5251 C   0  0  0  0  0  0  0  0  0  0  0  0
   26.7463  -20.5904   -7.7912 C   0  0  0  0  0  0  0  0  0  0  0  0
   26.3082  -19.3030   -8.1406 C   0  0  0  0  0  0  0  0  0  0  0  0
   26.8349  -18.4607   -7.2456 N   0  0  0  0  0  0  0  0  0  0  0  0
   27.5853  -19.1505   -6.3479 C   0  0  0  0  0  0  0  0  0  0  0  0
   28.3244  -18.7515   -5.2601 C   0  0  0  0  0  0  0  0  0  0  0  0
   29.0284  -19.6370   -4.4774 C   0  0  0  0  0  0  0  0  0  0  0  0
   28.9780  -20.9857   -4.8170 C   0  0  0  0  0  0  0  0  0  0  0  0
   28.2477  -21.4201   -5.9011 C   0  0  0  0  0  0  0  0  0  0  0  0
   27.5479  -20.5089   -6.6710 C   0  0  0  0  0  0  0  0  0  0  0  0
   24.6788  -20.6402   -9.8631 C   0  0  0  0  0  0  0  0  0  0  0  0
   23.4648  -21.1025   -9.4083 O   0  0  0  0  0  0  0  0  0  0  0  0
   24.7858  -19.4558  -10.2354 O   0  0  0  0  0  0  0  0  0  0  0  0
  2  1  1  0
  3  2  2  0
  4  2  1  0
  4  5  1  0
  5  6  1  6
  7  5  1  0
  7  8  2  0
  9  7  1  0
 10  9  1  0
 11 12  1  0
 11 10  1  0
 12 13  1  0
 13  9  1  0
 13 14  1  6
 14 15  2  0
 16 14  1  0
 16 17  1  0
 17 28  1  0
 17 18  1  1
 19 18  1  0
 20 19  2  0
 21 22  1  0
 21 20  1  0
 22 27  2  0
 23 22  1  0
 23 24  2  0
 24 25  1  0
 25 26  2  0
 27 19  1  0
 27 26  1  0
 28 29  1  0
 30 28  2  0
M  END
$$$$
