NPW.pdb
     RDKit          3D

 30 32  0  0  1  0  0  0  0  0999 V2000
   24.0302  -19.8145  -14.9216 N   0  0  0  0  0  0  0  0  0  0  0  0
   23.8075  -21.1678  -15.3509 C   0  0  0  0  0  0  0  0  0  0  0  0
   22.8376  -21.7495  -14.8329 O   0  0  0  0  0  0  0  0  0  0  0  0
   24.6597  -21.8317  -16.3358 C   0  0  0  0  0  0  0  0  0  0  0  0
   26.0129  -21.2351  -16.4653 C   0  0  2  0  0  0  0  0  0  0  0  0
   26.7993  -21.9340  -17.4974 N   0  0  0  0  0  0  0  0  0  0  0  0
   26.8038  -21.2887  -15.1717 C   0  0  0  0  0  0  0  0  0  0  0  0
   26.8646  -22.3853  -14.6033 O   0  0  0  0  0  0  0  0  0  0  0  0
   27.4483  -20.1499  -14.6274 N   0  0  0  0  0  0  0  0  0  0  0  0
   27.8080  -19.0079  -15.5024 C   0  0  0  0  0  0  0  0  0  0  0  0
   27.8771  -17.8042  -14.5563 C   0  0  0  0  0  0  0  0  0  0  0  0
   27.2935  -18.3613  -13.2414 C   0  0  0  0  0  0  0  0  0  0  0  0
   27.9150  -19.7579  -13.3459 C   0  0  1  0  0  0  0  0  0  0  0  0
   27.7102  -20.5795  -12.1869 C   0  0  0  0  0  0  0  0  0  0  0  0
   28.3894  -21.5853  -11.9186 O   0  0  0  0  0  0  0  0  0  0  0  0
   26.6719  -20.2998  -11.2081 N   0  0  0  0  0  0  0  0  0  0  0  0
   26.3833  -21.1894  -10.1360 C   0  0  1  0  0  0  0  0  0  0  0  0
   27.5408  -21.2967   -9.1820 C   0  0  0  0  0  0  0  0  0  0  0  0
   27.4566  -20.3797   -8.0366 C   0  0  0  0  0  0  0  0  0  0  0  0
   26.5443  -19.3150   -7.9638 C   0  0  0  0  0  0  0  0  0  0  0  0
   26.7383  -18.7214   -6.7815 N   0  0  0  0  0  0  0  0  0  0  0  0
   27.7287  -19.3565   -6.1028 C   0  0  0  0  0  0  0  0  0  0  0  0
   28.2963  -19.1329   -4.8714 C   0  0  0  0  0  0  0  0  0  0  0  0
   29.3150  -19.9113   -4.3725 C   0  0  0  0  0  0  0  0  0  0  0  0
   29.7753  -20.9615   -5.1612 C   0  0  0  0  0  0  0  0  0  0  0  0
   29.2294  -21.2135   -6.4005 C   0  0  0  0  0  0  0  0  0  0  0  0
   28.2053  -20.4161   -6.8781 C   0  0  0  0  0  0  0  0  0  0  0  0
   25.1498  -20.8412   -9.3996 C   0  0  0  0  0  0  0  0  0  0  0  0
   24.5699  -21.7493   -8.5432 O   0  0  0  0  0  0  0  0  0  0  0  0
   24.6269  -19.7208   -9.5545 O   0  0  0  0  0  0  0  0  0  0  0  0
  2  1  1  0
  3  2  2  0
  4  2  1  0
  4  5  1  0
  5  6  1  6
  7  5  1  0
  7  8  2  0
  9  7  1  0
 10  9  1  0
 11 12  1  0
 11 10  1  0
 12 13  1  0
 13  9  1  0
 13 14  1  1
 14 15  2  0
 16 14  1  0
 16 17  1  0
 17 28  1  0
 17 18  1  1
 19 18  1  0
 20 19  2  0
 21 22  1  0
 21 20  1  0
 22 27  2  0
 23 22  1  0
 23 24  2  0
 24 25  1  0
 25 26  2  0
 27 19  1  0
 27 26  1  0
 28 29  1  0
 30 28  2  0
M  END
$$$$
