NPW.pdb
     RDKit          3D

 30 32  0  0  1  0  0  0  0  0999 V2000
   25.4275  -22.0396  -19.3334 N   0  0  0  0  0  0  0  0  0  0  0  0
   26.8086  -21.6560  -19.2310 C   0  0  0  0  0  0  0  0  0  0  0  0
   27.0447  -20.4400  -19.3453 O   0  0  0  0  0  0  0  0  0  0  0  0
   27.8801  -22.6245  -19.0054 C   0  0  0  0  0  0  0  0  0  0  0  0
   28.8754  -22.2001  -17.9890 C   0  0  2  0  0  0  0  0  0  0  0  0
   29.9541  -23.1961  -17.8611 N   0  0  0  0  0  0  0  0  0  0  0  0
   28.2640  -22.0073  -16.6140 C   0  0  0  0  0  0  0  0  0  0  0  0
   27.7125  -22.9921  -16.1087 O   0  0  0  0  0  0  0  0  0  0  0  0
   28.3135  -20.7685  -15.9272 N   0  0  0  0  0  0  0  0  0  0  0  0
   29.3945  -19.7966  -16.2205 C   0  0  0  0  0  0  0  0  0  0  0  0
   28.8106  -18.4378  -15.8186 C   0  0  0  0  0  0  0  0  0  0  0  0
   27.3249  -18.7610  -15.5578 C   0  0  0  0  0  0  0  0  0  0  0  0
   27.5493  -20.1333  -14.9142 C   0  0  1  0  0  0  0  0  0  0  0  0
   26.3591  -20.7334  -14.3819 C   0  0  0  0  0  0  0  0  0  0  0  0
   25.4351  -21.1841  -15.0805 O   0  0  0  0  0  0  0  0  0  0  0  0
   26.1282  -20.8694  -12.9526 N   0  0  0  0  0  0  0  0  0  0  0  0
   24.9588  -21.4892  -12.4307 C   0  0  1  0  0  0  0  0  0  0  0  0
   25.2314  -22.1578  -11.1116 C   0  0  0  0  0  0  0  0  0  0  0  0
   25.7317  -21.2462  -10.0731 C   0  0  0  0  0  0  0  0  0  0  0  0
   24.9013  -20.3983   -9.3229 C   0  0  0  0  0  0  0  0  0  0  0  0
   25.6924  -19.7422   -8.4675 N   0  0  0  0  0  0  0  0  0  0  0  0
   26.9822  -20.1317   -8.6397 C   0  0  0  0  0  0  0  0  0  0  0  0
   28.1516  -19.7559   -8.0233 C   0  0  0  0  0  0  0  0  0  0  0  0
   29.3740  -20.2846   -8.3679 C   0  0  0  0  0  0  0  0  0  0  0  0
   29.4069  -21.2357   -9.3833 C   0  0  0  0  0  0  0  0  0  0  0  0
   28.2539  -21.6347  -10.0226 C   0  0  0  0  0  0  0  0  0  0  0  0
   27.0376  -21.0881   -9.6561 C   0  0  0  0  0  0  0  0  0  0  0  0
   23.8115  -20.5660  -12.3038 C   0  0  0  0  0  0  0  0  0  0  0  0
   22.5243  -21.0529  -12.2843 O   0  0  0  0  0  0  0  0  0  0  0  0
   24.0062  -19.3383  -12.2167 O   0  0  0  0  0  0  0  0  0  0  0  0
  2  1  1  0
  3  2  2  0
  4  2  1  0
  4  5  1  0
  5  6  1  1
  7  5  1  0
  7  8  2  0
  9  7  1  0
 10  9  1  0
 11 12  1  0
 11 10  1  0
 12 13  1  0
 13  9  1  0
 13 14  1  6
 14 15  2  0
 16 14  1  0
 16 17  1  0
 17 28  1  0
 17 18  1  1
 19 18  1  0
 20 19  2  0
 21 22  1  0
 21 20  1  0
 22 27  2  0
 23 22  1  0
 23 24  2  0
 24 25  1  0
 25 26  2  0
 27 19  1  0
 27 26  1  0
 28 29  1  0
 30 28  2  0
M  END
$$$$
