NPW.pdb
     RDKit          3D

 30 32  0  0  1  0  0  0  0  0999 V2000
   28.0926  -22.8529  -18.9781 N   0  0  0  0  0  0  0  0  0  0  0  0
   29.3422  -22.6238  -18.3064 C   0  0  0  0  0  0  0  0  0  0  0  0
   30.3562  -23.0559  -18.8831 O   0  0  0  0  0  0  0  0  0  0  0  0
   29.4309  -21.9264  -17.0247 C   0  0  0  0  0  0  0  0  0  0  0  0
   28.1156  -21.5529  -16.4467 C   0  0  2  0  0  0  0  0  0  0  0  0
   27.5841  -20.3382  -17.0902 N   0  0  0  0  0  0  0  0  0  0  0  0
   28.1845  -21.2883  -14.9544 C   0  0  0  0  0  0  0  0  0  0  0  0
   28.5235  -22.2372  -14.2375 O   0  0  0  0  0  0  0  0  0  0  0  0
   27.8802  -20.0234  -14.3921 N   0  0  0  0  0  0  0  0  0  0  0  0
   28.2840  -18.7801  -15.0922 C   0  0  0  0  0  0  0  0  0  0  0  0
   27.3061  -17.7158  -14.5826 C   0  0  0  0  0  0  0  0  0  0  0  0
   26.2633  -18.5453  -13.8054 C   0  0  0  0  0  0  0  0  0  0  0  0
   27.2462  -19.5590  -13.2105 C   0  0  1  0  0  0  0  0  0  0  0  0
   26.6554  -20.4656  -12.2676 C   0  0  0  0  0  0  0  0  0  0  0  0
   25.9177  -21.4146  -12.5837 O   0  0  0  0  0  0  0  0  0  0  0  0
   26.8742  -20.3502  -10.8346 N   0  0  0  0  0  0  0  0  0  0  0  0
   26.3280  -21.2818   -9.9084 C   0  0  1  0  0  0  0  0  0  0  0  0
   27.2975  -21.5912   -8.8013 C   0  0  0  0  0  0  0  0  0  0  0  0
   27.4629  -20.4998   -7.8311 C   0  0  0  0  0  0  0  0  0  0  0  0
   26.9030  -19.2233   -8.0000 C   0  0  0  0  0  0  0  0  0  0  0  0
   27.2383  -18.5094   -6.9203 N   0  0  0  0  0  0  0  0  0  0  0  0
   27.9835  -19.2698   -6.0770 C   0  0  0  0  0  0  0  0  0  0  0  0
   28.5660  -19.0023   -4.8613 C   0  0  0  0  0  0  0  0  0  0  0  0
   29.2998  -19.9378   -4.1693 C   0  0  0  0  0  0  0  0  0  0  0  0
   29.4471  -21.1987   -4.7395 C   0  0  0  0  0  0  0  0  0  0  0  0
   28.8773  -21.5005   -5.9567 C   0  0  0  0  0  0  0  0  0  0  0  0
   28.1434  -20.5419   -6.6313 C   0  0  0  0  0  0  0  0  0  0  0  0
   25.0310  -20.8554   -9.3422 C   0  0  0  0  0  0  0  0  0  0  0  0
   24.4456  -19.6787   -9.7508 O   0  0  0  0  0  0  0  0  0  0  0  0
   24.4621  -21.5611   -8.4871 O   0  0  0  0  0  0  0  0  0  0  0  0
  2  1  1  0
  3  2  2  0
  4  2  1  0
  4  5  1  0
  5  6  1  6
  7  5  1  0
  7  8  2  0
  9  7  1  0
 10  9  1  0
 11 12  1  0
 11 10  1  0
 12 13  1  0
 13  9  1  0
 13 14  1  6
 14 15  2  0
 16 14  1  0
 16 17  1  0
 17 28  1  0
 17 18  1  1
 19 18  1  0
 20 19  2  0
 21 22  1  0
 21 20  1  0
 22 27  2  0
 23 22  1  0
 23 24  2  0
 24 25  1  0
 25 26  2  0
 27 19  1  0
 27 26  1  0
 28 29  1  0
 30 28  2  0
M  END
$$$$
