NPW.pdb
     RDKit          3D

 30 32  0  0  1  0  0  0  0  0999 V2000
   24.5905  -13.5879  -22.2989 N   0  0  0  0  0  0  0  0  0  0  0  0
   25.2988  -12.8500  -21.2895 C   0  0  0  0  0  0  0  0  0  0  0  0
   26.5330  -12.7835  -21.4306 O   0  0  0  0  0  0  0  0  0  0  0  0
   24.6231  -12.2109  -20.1616 C   0  0  0  0  0  0  0  0  0  0  0  0
   25.1118  -12.6559  -18.8323 C   0  0  2  0  0  0  0  0  0  0  0  0
   24.7938  -14.0768  -18.6037 N   0  0  0  0  0  0  0  0  0  0  0  0
   24.5083  -11.8614  -17.6894 C   0  0  0  0  0  0  0  0  0  0  0  0
   23.2806  -11.7134  -17.7037 O   0  0  0  0  0  0  0  0  0  0  0  0
   25.2959  -11.3100  -16.6482 N   0  0  0  0  0  0  0  0  0  0  0  0
   26.3526  -12.1251  -16.0015 C   0  0  0  0  0  0  0  0  0  0  0  0
   27.3420  -11.0982  -15.4399 C   0  0  0  0  0  0  0  0  0  0  0  0
   26.8534   -9.7712  -16.0564 C   0  0  0  0  0  0  0  0  0  0  0  0
   25.3536  -10.0697  -15.9611 C   0  0  1  0  0  0  0  0  0  0  0  0
   24.5114   -8.9668  -16.3276 C   0  0  0  0  0  0  0  0  0  0  0  0
   24.6346   -8.3174  -17.3803 O   0  0  0  0  0  0  0  0  0  0  0  0
   23.4204   -8.5064  -15.4837 N   0  0  0  0  0  0  0  0  0  0  0  0
   22.5571   -7.4453  -15.8748 C   0  0  1  0  0  0  0  0  0  0  0  0
   21.9056   -7.7251  -17.2009 C   0  0  0  0  0  0  0  0  0  0  0  0
   21.0308   -8.9060  -17.1982 C   0  0  0  0  0  0  0  0  0  0  0  0
   20.3055   -9.3286  -16.0727 C   0  0  0  0  0  0  0  0  0  0  0  0
   19.6106  -10.4086  -16.4452 N   0  0  0  0  0  0  0  0  0  0  0  0
   19.8608  -10.6913  -17.7499 C   0  0  0  0  0  0  0  0  0  0  0  0
   19.4068  -11.6845  -18.5843 C   0  0  0  0  0  0  0  0  0  0  0  0
   19.8051  -11.7893  -19.8969 C   0  0  0  0  0  0  0  0  0  0  0  0
   20.7040  -10.8431  -20.3800 C   0  0  0  0  0  0  0  0  0  0  0  0
   21.1796   -9.8348  -19.5710 C   0  0  0  0  0  0  0  0  0  0  0  0
   20.7623   -9.7516  -18.2551 C   0  0  0  0  0  0  0  0  0  0  0  0
   21.5292   -7.1211  -14.8632 C   0  0  0  0  0  0  0  0  0  0  0  0
   20.7472   -5.9969  -15.0001 O   0  0  0  0  0  0  0  0  0  0  0  0
   21.3685   -7.8660  -13.8773 O   0  0  0  0  0  0  0  0  0  0  0  0
  2  1  1  0
  3  2  2  0
  4  2  1  0
  4  5  1  0
  5  6  1  1
  7  5  1  0
  7  8  2  0
  9  7  1  0
 10  9  1  0
 11 12  1  0
 11 10  1  0
 12 13  1  0
 13  9  1  0
 13 14  1  6
 14 15  2  0
 16 14  1  0
 16 17  1  0
 17 28  1  0
 17 18  1  6
 19 18  1  0
 20 19  2  0
 21 22  1  0
 21 20  1  0
 22 27  2  0
 23 22  1  0
 23 24  2  0
 24 25  1  0
 25 26  2  0
 27 19  1  0
 27 26  1  0
 28 29  1  0
 30 28  2  0
M  END
$$$$
