NPW.pdb
     RDKit          3D

 30 32  0  0  1  0  0  0  0  0999 V2000
   12.4905  -11.9279  -15.7112 N   0  0  0  0  0  0  0  0  0  0  0  0
   13.4030  -11.6370  -14.6398 C   0  0  0  0  0  0  0  0  0  0  0  0
   12.9472  -11.7616  -13.4891 O   0  0  0  0  0  0  0  0  0  0  0  0
   14.7847  -11.2206  -14.8735 C   0  0  0  0  0  0  0  0  0  0  0  0
   15.1150  -10.9946  -16.3030 C   0  0  2  0  0  0  0  0  0  0  0  0
   15.0173  -12.2492  -17.0702 N   0  0  0  0  0  0  0  0  0  0  0  0
   16.5145  -10.4436  -16.5017 C   0  0  0  0  0  0  0  0  0  0  0  0
   17.4509  -11.2346  -16.3385 O   0  0  0  0  0  0  0  0  0  0  0  0
   16.7561   -9.0931  -16.8576 N   0  0  0  0  0  0  0  0  0  0  0  0
   15.8436   -8.3950  -17.7952 C   0  0  0  0  0  0  0  0  0  0  0  0
   16.0134   -6.9085  -17.4634 C   0  0  0  0  0  0  0  0  0  0  0  0
   16.8496   -6.9348  -16.1673 C   0  0  0  0  0  0  0  0  0  0  0  0
   17.7420   -8.1192  -16.5525 C   0  0  1  0  0  0  0  0  0  0  0  0
   18.7990   -8.3856  -15.6188 C   0  0  0  0  0  0  0  0  0  0  0  0
   18.6426   -8.9933  -14.5460 O   0  0  0  0  0  0  0  0  0  0  0  0
   20.1698   -7.9603  -15.8528 N   0  0  0  0  0  0  0  0  0  0  0  0
   21.2348   -8.3282  -14.9840 C   0  0  1  0  0  0  0  0  0  0  0  0
   21.6407   -9.7620  -15.1861 C   0  0  0  0  0  0  0  0  0  0  0  0
   23.0318  -10.0470  -14.8074 C   0  0  0  0  0  0  0  0  0  0  0  0
   23.3908  -10.7058  -13.6206 C   0  0  0  0  0  0  0  0  0  0  0  0
   24.7239  -10.8096  -13.6255 N   0  0  0  0  0  0  0  0  0  0  0  0
   25.2266  -10.2484  -14.7556 C   0  0  0  0  0  0  0  0  0  0  0  0
   26.5112  -10.0961  -15.2197 C   0  0  0  0  0  0  0  0  0  0  0  0
   26.7991   -9.4760  -16.4135 C   0  0  0  0  0  0  0  0  0  0  0  0
   25.7341   -8.9902  -17.1662 C   0  0  0  0  0  0  0  0  0  0  0  0
   24.4344   -9.1253  -16.7305 C   0  0  0  0  0  0  0  0  0  0  0  0
   24.1723   -9.7538  -15.5268 C   0  0  0  0  0  0  0  0  0  0  0  0
   22.4157   -7.4462  -15.0963 C   0  0  0  0  0  0  0  0  0  0  0  0
   22.6822   -6.7854  -16.2738 O   0  0  0  0  0  0  0  0  0  0  0  0
   23.1788   -7.2996  -14.1222 O   0  0  0  0  0  0  0  0  0  0  0  0
  2  1  1  0
  3  2  2  0
  4  2  1  0
  4  5  1  0
  5  6  1  6
  7  5  1  0
  7  8  2  0
  9  7  1  0
 10  9  1  0
 11 12  1  0
 11 10  1  0
 12 13  1  0
 13  9  1  0
 13 14  1  1
 14 15  2  0
 16 14  1  0
 16 17  1  0
 17 28  1  0
 17 18  1  6
 19 18  1  0
 20 19  2  0
 21 22  1  0
 21 20  1  0
 22 27  2  0
 23 22  1  0
 23 24  2  0
 24 25  1  0
 25 26  2  0
 27 19  1  0
 27 26  1  0
 28 29  1  0
 30 28  2  0
M  END
$$$$
