NPW.pdb
     RDKit          3D

 30 32  0  0  1  0  0  0  0  0999 V2000
   14.0301  -11.5527  -15.2955 N   0  0  0  0  0  0  0  0  0  0  0  0
   14.6280  -10.6650  -16.2545 C   0  0  0  0  0  0  0  0  0  0  0  0
   13.9394  -10.4048  -17.2572 O   0  0  0  0  0  0  0  0  0  0  0  0
   15.9620  -10.0947  -16.0747 C   0  0  0  0  0  0  0  0  0  0  0  0
   16.8812  -10.3338  -17.2156 C   0  0  2  0  0  0  0  0  0  0  0  0
   17.1838  -11.7694  -17.3553 N   0  0  0  0  0  0  0  0  0  0  0  0
   18.2006   -9.5992  -17.0699 C   0  0  0  0  0  0  0  0  0  0  0  0
   19.0011  -10.0543  -16.2444 O   0  0  0  0  0  0  0  0  0  0  0  0
   18.5179   -8.4482  -17.8336 N   0  0  0  0  0  0  0  0  0  0  0  0
   18.1193   -8.3670  -19.2596 C   0  0  0  0  0  0  0  0  0  0  0  0
   18.0450   -6.8649  -19.5542 C   0  0  0  0  0  0  0  0  0  0  0  0
   18.1773   -6.2291  -18.1549 C   0  0  0  0  0  0  0  0  0  0  0  0
   19.2000   -7.2260  -17.5999 C   0  0  1  0  0  0  0  0  0  0  0  0
   19.7079   -6.8841  -16.3018 C   0  0  0  0  0  0  0  0  0  0  0  0
   19.0128   -6.8405  -15.2723 O   0  0  0  0  0  0  0  0  0  0  0  0
   21.1059   -6.5544  -16.0749 N   0  0  0  0  0  0  0  0  0  0  0  0
   21.5915   -6.1540  -14.7989 C   0  0  1  0  0  0  0  0  0  0  0  0
   22.4900   -7.1995  -14.1983 C   0  0  0  0  0  0  0  0  0  0  0  0
   23.5974   -7.6085  -15.0736 C   0  0  0  0  0  0  0  0  0  0  0  0
   24.6095   -6.7338  -15.5003 C   0  0  0  0  0  0  0  0  0  0  0  0
   25.4476   -7.4528  -16.2543 N   0  0  0  0  0  0  0  0  0  0  0  0
   25.0159   -8.7386  -16.3271 C   0  0  0  0  0  0  0  0  0  0  0  0
   25.5129   -9.8456  -16.9723 C   0  0  0  0  0  0  0  0  0  0  0  0
   24.8973  -11.0746  -16.9162 C   0  0  0  0  0  0  0  0  0  0  0  0
   23.7260  -11.1806  -16.1721 C   0  0  0  0  0  0  0  0  0  0  0  0
   23.1999  -10.0911  -15.5136 C   0  0  0  0  0  0  0  0  0  0  0  0
   23.8393   -8.8669  -15.5855 C   0  0  0  0  0  0  0  0  0  0  0  0
   22.2774   -4.8448  -14.8159 C   0  0  0  0  0  0  0  0  0  0  0  0
   22.5446   -4.1830  -13.6391 O   0  0  0  0  0  0  0  0  0  0  0  0
   22.6150   -4.3321  -15.9003 O   0  0  0  0  0  0  0  0  0  0  0  0
  2  1  1  0
  3  2  2  0
  4  2  1  0
  4  5  1  0
  5  6  1  1
  7  5  1  0
  7  8  2  0
  9  7  1  0
 10  9  1  0
 11 12  1  0
 11 10  1  0
 12 13  1  0
 13  9  1  0
 13 14  1  1
 14 15  2  0
 16 14  1  0
 16 17  1  0
 17 28  1  0
 17 18  1  6
 19 18  1  0
 20 19  2  0
 21 22  1  0
 21 20  1  0
 22 27  2  0
 23 22  1  0
 23 24  2  0
 24 25  1  0
 25 26  2  0
 27 19  1  0
 27 26  1  0
 28 29  1  0
 30 28  2  0
M  END
$$$$
