NPW.pdb
     RDKit          3D

 30 32  0  0  1  0  0  0  0  0999 V2000
   25.2520  -15.5797  -15.8808 N   0  0  0  0  0  0  0  0  0  0  0  0
   24.0829  -16.3285  -15.5098 C   0  0  0  0  0  0  0  0  0  0  0  0
   22.9971  -15.8771  -15.9156 O   0  0  0  0  0  0  0  0  0  0  0  0
   24.1511  -17.5479  -14.7064 C   0  0  0  0  0  0  0  0  0  0  0  0
   25.1272  -18.5483  -15.2065 C   0  0  2  0  0  0  0  0  0  0  0  0
   24.7004  -19.0953  -16.5068 N   0  0  0  0  0  0  0  0  0  0  0  0
   25.3096  -19.7162  -14.2554 C   0  0  0  0  0  0  0  0  0  0  0  0
   24.2876  -20.1603  -13.7192 O   0  0  0  0  0  0  0  0  0  0  0  0
   26.5795  -20.2838  -13.9838 N   0  0  0  0  0  0  0  0  0  0  0  0
   27.5401  -20.5236  -15.0878 C   0  0  0  0  0  0  0  0  0  0  0  0
   28.9144  -20.5251  -14.4095 C   0  0  0  0  0  0  0  0  0  0  0  0
   28.5989  -20.0288  -12.9834 C   0  0  0  0  0  0  0  0  0  0  0  0
   27.2593  -20.7568  -12.8314 C   0  0  1  0  0  0  0  0  0  0  0  0
   26.6810  -20.6544  -11.5218 C   0  0  0  0  0  0  0  0  0  0  0  0
   26.0080  -19.6846  -11.1326 O   0  0  0  0  0  0  0  0  0  0  0  0
   26.8347  -21.6964  -10.5193 N   0  0  0  0  0  0  0  0  0  0  0  0
   26.8279  -21.4122   -9.1252 C   0  0  1  0  0  0  0  0  0  0  0  0
   27.8767  -20.3966   -8.7647 C   0  0  0  0  0  0  0  0  0  0  0  0
   27.8111  -19.9413   -7.3689 C   0  0  0  0  0  0  0  0  0  0  0  0
   26.7540  -19.1735   -6.8547 C   0  0  0  0  0  0  0  0  0  0  0  0
   27.0193  -18.9704   -5.5600 N   0  0  0  0  0  0  0  0  0  0  0  0
   28.1922  -19.5703   -5.2293 C   0  0  0  0  0  0  0  0  0  0  0  0
   28.8912  -19.6462   -4.0485 C   0  0  0  0  0  0  0  0  0  0  0  0
   30.0889  -20.3138   -3.9380 C   0  0  0  0  0  0  0  0  0  0  0  0
   30.5965  -20.9296   -5.0781 C   0  0  0  0  0  0  0  0  0  0  0  0
   29.9224  -20.8726   -6.2780 C   0  0  0  0  0  0  0  0  0  0  0  0
   28.7193  -20.1956   -6.3616 C   0  0  0  0  0  0  0  0  0  0  0  0
   25.5078  -20.9790   -8.6206 C   0  0  0  0  0  0  0  0  0  0  0  0
   25.0770  -21.3684   -7.3728 O   0  0  0  0  0  0  0  0  0  0  0  0
   24.7761  -20.2593   -9.3273 O   0  0  0  0  0  0  0  0  0  0  0  0
  2  1  1  0
  3  2  2  0
  4  2  1  0
  4  5  1  0
  5  6  1  6
  7  5  1  0
  7  8  2  0
  9  7  1  0
 10  9  1  0
 11 12  1  0
 11 10  1  0
 12 13  1  0
 13  9  1  0
 13 14  1  1
 14 15  2  0
 16 14  1  0
 16 17  1  0
 17 28  1  0
 17 18  1  6
 19 18  1  0
 20 19  2  0
 21 22  1  0
 21 20  1  0
 22 27  2  0
 23 22  1  0
 23 24  2  0
 24 25  1  0
 25 26  2  0
 27 19  1  0
 27 26  1  0
 28 29  1  0
 30 28  2  0
M  END
$$$$
