NPW.pdb
     RDKit          3D

 30 32  0  0  1  0  0  0  0  0999 V2000
   28.0590  -16.8075  -15.6144 N   0  0  0  0  0  0  0  0  0  0  0  0
   27.2212  -17.5456  -16.5191 C   0  0  0  0  0  0  0  0  0  0  0  0
   27.4608  -17.3912  -17.7299 O   0  0  0  0  0  0  0  0  0  0  0  0
   26.1504  -18.4278  -16.0583 C   0  0  0  0  0  0  0  0  0  0  0  0
   26.6297  -19.6550  -15.3743 C   0  0  2  0  0  0  0  0  0  0  0  0
   27.3444  -20.5364  -16.3148 N   0  0  0  0  0  0  0  0  0  0  0  0
   25.5022  -20.4611  -14.7573 C   0  0  0  0  0  0  0  0  0  0  0  0
   24.4619  -20.5572  -15.4191 O   0  0  0  0  0  0  0  0  0  0  0  0
   25.6174  -21.0810  -13.4880 N   0  0  0  0  0  0  0  0  0  0  0  0
   26.8124  -21.8967  -13.1628 C   0  0  0  0  0  0  0  0  0  0  0  0
   26.8980  -21.8623  -11.6331 C   0  0  0  0  0  0  0  0  0  0  0  0
   25.8502  -20.7969  -11.2500 C   0  0  0  0  0  0  0  0  0  0  0  0
   24.8172  -21.1673  -12.3193 C   0  0  1  0  0  0  0  0  0  0  0  0
   23.5742  -20.4590  -12.2046 C   0  0  0  0  0  0  0  0  0  0  0  0
   23.4851  -19.2248  -12.0873 O   0  0  0  0  0  0  0  0  0  0  0  0
   22.2878  -21.1371  -12.2173 N   0  0  0  0  0  0  0  0  0  0  0  0
   21.0595  -20.4322  -12.0809 C   0  0  1  0  0  0  0  0  0  0  0  0
   20.9781  -19.2764  -13.0395 C   0  0  0  0  0  0  0  0  0  0  0  0
   21.0564  -19.6679  -14.4538 C   0  0  0  0  0  0  0  0  0  0  0  0
   20.6666  -20.9300  -14.9296 C   0  0  0  0  0  0  0  0  0  0  0  0
   20.8528  -20.9171  -16.2537 N   0  0  0  0  0  0  0  0  0  0  0  0
   21.3421  -19.7103  -16.6395 C   0  0  0  0  0  0  0  0  0  0  0  0
   21.6998  -19.2073  -17.8674 C   0  0  0  0  0  0  0  0  0  0  0  0
   22.1905  -17.9326  -18.0317 C   0  0  0  0  0  0  0  0  0  0  0  0
   22.3230  -17.1369  -16.8977 C   0  0  0  0  0  0  0  0  0  0  0  0
   21.9747  -17.6095  -15.6517 C   0  0  0  0  0  0  0  0  0  0  0  0
   21.4828  -18.8947  -15.5143 C   0  0  0  0  0  0  0  0  0  0  0  0
   19.8680  -21.2951  -12.2246 C   0  0  0  0  0  0  0  0  0  0  0  0
   20.0024  -22.6103  -12.6071 O   0  0  0  0  0  0  0  0  0  0  0  0
   18.7328  -20.8320  -12.0019 O   0  0  0  0  0  0  0  0  0  0  0  0
  2  1  1  0
  3  2  2  0
  4  2  1  0
  4  5  1  0
  5  6  1  6
  7  5  1  0
  7  8  2  0
  9  7  1  0
 10  9  1  0
 11 12  1  0
 11 10  1  0
 12 13  1  0
 13  9  1  0
 13 14  1  6
 14 15  2  0
 16 14  1  0
 16 17  1  0
 17 28  1  0
 17 18  1  6
 19 18  1  0
 20 19  2  0
 21 22  1  0
 21 20  1  0
 22 27  2  0
 23 22  1  0
 23 24  2  0
 24 25  1  0
 25 26  2  0
 27 19  1  0
 27 26  1  0
 28 29  1  0
 30 28  2  0
M  END
$$$$
