NPW.pdb
     RDKit          3D

 30 32  0  0  1  0  0  0  0  0999 V2000
   25.5927  -25.5658  -15.9763 N   0  0  0  0  0  0  0  0  0  0  0  0
   25.2134  -24.3145  -16.5725 C   0  0  0  0  0  0  0  0  0  0  0  0
   23.9918  -24.0861  -16.6255 O   0  0  0  0  0  0  0  0  0  0  0  0
   26.1925  -23.3591  -17.0880 C   0  0  0  0  0  0  0  0  0  0  0  0
   26.0664  -21.9952  -16.5158 C   0  0  2  0  0  0  0  0  0  0  0  0
   27.0486  -21.0780  -17.1210 N   0  0  0  0  0  0  0  0  0  0  0  0
   26.2782  -21.9674  -15.0137 C   0  0  0  0  0  0  0  0  0  0  0  0
   25.5764  -22.7309  -14.3400 O   0  0  0  0  0  0  0  0  0  0  0  0
   27.2285  -21.1166  -14.3959 N   0  0  0  0  0  0  0  0  0  0  0  0
   28.3331  -20.5304  -15.1929 C   0  0  0  0  0  0  0  0  0  0  0  0
   28.7331  -19.2655  -14.4255 C   0  0  0  0  0  0  0  0  0  0  0  0
   27.6165  -19.1317  -13.3695 C   0  0  0  0  0  0  0  0  0  0  0  0
   27.4587  -20.6287  -13.0834 C   0  0  1  0  0  0  0  0  0  0  0  0
   26.5641  -20.9282  -12.0018 C   0  0  0  0  0  0  0  0  0  0  0  0
   25.3324  -21.0374  -12.1278 O   0  0  0  0  0  0  0  0  0  0  0  0
   27.0308  -21.1349  -10.6401 N   0  0  0  0  0  0  0  0  0  0  0  0
   26.1377  -21.4145   -9.5684 C   0  0  1  0  0  0  0  0  0  0  0  0
   26.8809  -21.7411   -8.3026 C   0  0  0  0  0  0  0  0  0  0  0  0
   27.3517  -20.5598   -7.5658 C   0  0  0  0  0  0  0  0  0  0  0  0
   26.9551  -19.2483   -7.8724 C   0  0  0  0  0  0  0  0  0  0  0  0
   27.5571  -18.4468   -6.9875 N   0  0  0  0  0  0  0  0  0  0  0  0
   28.3159  -19.1854   -6.1369 C   0  0  0  0  0  0  0  0  0  0  0  0
   29.1191  -18.8395   -5.0768 C   0  0  0  0  0  0  0  0  0  0  0  0
   29.8179  -19.7694   -4.3422 C   0  0  0  0  0  0  0  0  0  0  0  0
   29.6939  -21.1078   -4.7027 C   0  0  0  0  0  0  0  0  0  0  0  0
   28.8979  -21.4894   -5.7602 C   0  0  0  0  0  0  0  0  0  0  0  0
   28.2051  -20.5343   -6.4817 C   0  0  0  0  0  0  0  0  0  0  0  0
   25.1624  -20.3323   -9.3190 C   0  0  0  0  0  0  0  0  0  0  0  0
   23.9433  -20.6118   -8.7447 O   0  0  0  0  0  0  0  0  0  0  0  0
   25.4404  -19.1586   -9.6319 O   0  0  0  0  0  0  0  0  0  0  0  0
  2  1  1  0
  3  2  2  0
  4  2  1  0
  4  5  1  0
  5  6  1  6
  7  5  1  0
  7  8  2  0
  9  7  1  0
 10  9  1  0
 11 12  1  0
 11 10  1  0
 12 13  1  0
 13  9  1  0
 13 14  1  1
 14 15  2  0
 16 14  1  0
 16 17  1  0
 17 28  1  0
 17 18  1  1
 19 18  1  0
 20 19  2  0
 21 22  1  0
 21 20  1  0
 22 27  2  0
 23 22  1  0
 23 24  2  0
 24 25  1  0
 25 26  2  0
 27 19  1  0
 27 26  1  0
 28 29  1  0
 30 28  2  0
M  END
$$$$
