NPW.pdb
     RDKit          3D

 30 32  0  0  1  0  0  0  0  0999 V2000
   20.2983  -17.2727  -14.2097 N   0  0  0  0  0  0  0  0  0  0  0  0
   19.7976  -18.5996  -13.9772 C   0  0  0  0  0  0  0  0  0  0  0  0
   18.9156  -18.7026  -13.1062 O   0  0  0  0  0  0  0  0  0  0  0  0
   20.2851  -19.7651  -14.7127 C   0  0  0  0  0  0  0  0  0  0  0  0
   21.7506  -19.7618  -14.9495 C   0  0  2  0  0  0  0  0  0  0  0  0
   22.1218  -20.7641  -15.9642 N   0  0  0  0  0  0  0  0  0  0  0  0
   22.5483  -20.0628  -13.6946 C   0  0  0  0  0  0  0  0  0  0  0  0
   22.4121  -19.2780  -12.7487 O   0  0  0  0  0  0  0  0  0  0  0  0
   23.4103  -21.1832  -13.5926 N   0  0  0  0  0  0  0  0  0  0  0  0
   23.1656  -22.3894  -14.4198 C   0  0  0  0  0  0  0  0  0  0  0  0
   24.5355  -23.0680  -14.5266 C   0  0  0  0  0  0  0  0  0  0  0  0
   25.4929  -22.0142  -13.9329 C   0  0  0  0  0  0  0  0  0  0  0  0
   24.5551  -21.5221  -12.8256 C   0  0  1  0  0  0  0  0  0  0  0  0
   25.1575  -20.5863  -11.9193 C   0  0  0  0  0  0  0  0  0  0  0  0
   25.1896  -19.3581  -12.1074 O   0  0  0  0  0  0  0  0  0  0  0  0
   25.7929  -21.0024  -10.6793 N   0  0  0  0  0  0  0  0  0  0  0  0
   26.9458  -20.3477  -10.1631 C   0  0  1  0  0  0  0  0  0  0  0  0
   26.5892  -19.3962   -9.0546 C   0  0  0  0  0  0  0  0  0  0  0  0
   26.6593  -19.9909   -7.7125 C   0  0  0  0  0  0  0  0  0  0  0  0
   25.8760  -21.0841   -7.3091 C   0  0  0  0  0  0  0  0  0  0  0  0
   26.2231  -21.3626   -6.0482 N   0  0  0  0  0  0  0  0  0  0  0  0
   27.1862  -20.4996   -5.6330 C   0  0  0  0  0  0  0  0  0  0  0  0
   27.8570  -20.3666   -4.4409 C   0  0  0  0  0  0  0  0  0  0  0  0
   28.8091  -19.3961   -4.2307 C   0  0  0  0  0  0  0  0  0  0  0  0
   29.0897  -18.5241   -5.2784 C   0  0  0  0  0  0  0  0  0  0  0  0
   28.4357  -18.6287   -6.4861 C   0  0  0  0  0  0  0  0  0  0  0  0
   27.4833  -19.6142   -6.6716 C   0  0  0  0  0  0  0  0  0  0  0  0
   27.9985  -21.2816   -9.7107 C   0  0  0  0  0  0  0  0  0  0  0  0
   29.2247  -20.8057   -9.3055 O   0  0  0  0  0  0  0  0  0  0  0  0
   27.7796  -22.5082   -9.6976 O   0  0  0  0  0  0  0  0  0  0  0  0
  2  1  1  0
  3  2  2  0
  4  2  1  0
  4  5  1  0
  5  6  1  6
  7  5  1  0
  7  8  2  0
  9  7  1  0
 10  9  1  0
 11 12  1  0
 11 10  1  0
 12 13  1  0
 13  9  1  0
 13 14  1  6
 14 15  2  0
 16 14  1  0
 16 17  1  0
 17 28  1  0
 17 18  1  1
 19 18  1  0
 20 19  2  0
 21 22  1  0
 21 20  1  0
 22 27  2  0
 23 22  1  0
 23 24  2  0
 24 25  1  0
 25 26  2  0
 27 19  1  0
 27 26  1  0
 28 29  1  0
 30 28  2  0
M  END
$$$$
