IQC.pdb
     RDKit          3D

 24 23  0  0  1  0  0  0  0  0999 V2000
    6.5012  -11.7299   28.0844 C   0  0  0  0  0  0  0  0  0  0  0  0
    5.7717  -12.7382   27.2124 C   0  0  0  0  0  0  0  0  0  0  0  0
    6.7103  -13.3236   26.2139 C   0  0  2  0  0  0  0  0  0  0  0  0
    7.2230  -12.2059   25.3096 C   0  0  0  0  0  0  0  0  0  0  0  0
    6.1073  -14.4267   25.3888 C   0  0  2  0  0  0  0  0  0  0  0  0
    5.5791  -15.4180   26.2802 N   0  0  0  0  0  0  0  0  0  0  0  0
    7.0085  -14.9587   24.3657 C   0  0  0  0  0  0  0  0  0  0  0  0
    7.7613  -15.9233   24.6582 O   0  0  0  0  0  0  0  0  0  0  0  0
    7.6880  -13.0029   18.3344 N   0  0  0  0  0  0  0  0  0  0  0  0
    8.5928  -14.1006   18.4142 C   0  0  0  0  0  0  0  0  0  0  0  0
    9.2014  -14.3961   17.3464 O   0  0  0  0  0  0  0  0  0  0  0  0
    8.8129  -14.8576   19.6747 C   0  0  0  0  0  0  0  0  0  0  0  0
    7.9126  -14.2920   20.7225 C   0  0  0  0  0  0  0  0  0  0  0  0
    7.9861  -15.0221   22.0358 C   0  0  2  0  0  0  0  0  0  0  0  0
    7.1051  -14.4613   23.0328 N   0  0  0  0  0  0  0  0  0  0  0  0
    9.3605  -15.1050   22.5623 C   0  0  0  0  0  0  0  0  0  0  0  0
    9.9961  -14.0524   22.8265 O   0  0  0  0  0  0  0  0  0  0  0  0
   10.0116  -16.3426   22.7890 N   0  0  0  0  0  0  0  0  0  0  0  0
   11.3773  -16.3971   23.2638 C   0  0  1  0  0  0  0  0  0  0  0  0
   11.3737  -16.3061   24.7711 C   0  0  0  0  0  0  0  0  0  0  0  0
   10.3047  -17.5799   25.4921 S   0  0  0  0  0  0  0  0  0  0  0  0
   12.0518  -17.6438   22.8399 C   0  0  0  0  0  0  0  0  0  0  0  0
   11.3885  -18.5251   22.2450 O   0  0  0  0  0  0  0  0  0  0  0  0
   13.3830  -17.8705   23.0756 O   0  0  0  0  0  0  0  0  0  0  0  0
  1  2  1  0
  2  3  1  0
  3  4  1  6
  5  7  1  0
  5  3  1  0
  5  6  1  1
  7  8  2  0
 10  9  1  0
 11 10  2  0
 12 10  1  0
 13 12  1  0
 14 13  1  6
 15 14  1  0
 15  7  1  0
 16 17  2  0
 16 14  1  0
 18 16  1  0
 19 22  1  0
 19 18  1  0
 19 20  1  1
 21 20  1  0
 22 24  1  0
 23 22  2  0
M  END
$$$$
