IQC.pdb
     RDKit          3D

 24 23  0  0  1  0  0  0  0  0999 V2000
    5.8244  -11.4661   26.4473 C   0  0  0  0  0  0  0  0  0  0  0  0
    5.5412  -12.7820   25.7423 C   0  0  0  0  0  0  0  0  0  0  0  0
    6.7803  -13.6080   25.6852 C   0  0  2  0  0  0  0  0  0  0  0  0
    7.8595  -12.8215   24.9460 C   0  0  0  0  0  0  0  0  0  0  0  0
    6.5832  -14.9533   25.0428 C   0  0  2  0  0  0  0  0  0  0  0  0
    5.4429  -15.5779   25.6476 N   0  0  0  0  0  0  0  0  0  0  0  0
    7.7877  -15.7846   25.0323 C   0  0  0  0  0  0  0  0  0  0  0  0
    8.0193  -16.5348   26.0152 O   0  0  0  0  0  0  0  0  0  0  0  0
   13.6706  -16.8648   21.0093 N   0  0  0  0  0  0  0  0  0  0  0  0
   12.4332  -17.5105   21.2961 C   0  0  0  0  0  0  0  0  0  0  0  0
   11.8558  -18.0621   20.3162 O   0  0  0  0  0  0  0  0  0  0  0  0
   11.8505  -17.5376   22.6636 C   0  0  0  0  0  0  0  0  0  0  0  0
   10.6514  -16.6487   22.6781 C   0  0  0  0  0  0  0  0  0  0  0  0
    9.9373  -16.6248   24.0020 C   0  0  2  0  0  0  0  0  0  0  0  0
    8.7427  -15.8142   23.9738 N   0  0  0  0  0  0  0  0  0  0  0  0
   10.8118  -16.2011   25.1105 C   0  0  0  0  0  0  0  0  0  0  0  0
   11.4023  -15.0920   25.0555 O   0  0  0  0  0  0  0  0  0  0  0  0
   11.0216  -17.0033   26.2592 N   0  0  0  0  0  0  0  0  0  0  0  0
   11.5225  -16.4344   27.4916 C   0  0  1  0  0  0  0  0  0  0  0  0
   10.5124  -15.4425   28.0169 C   0  0  0  0  0  0  0  0  0  0  0  0
   11.0587  -14.7396   29.5957 S   0  0  0  0  0  0  0  0  0  0  0  0
   11.7750  -17.4776   28.5098 C   0  0  0  0  0  0  0  0  0  0  0  0
   11.2305  -18.5991   28.3831 O   0  0  0  0  0  0  0  0  0  0  0  0
   12.5873  -17.2601   29.5924 O   0  0  0  0  0  0  0  0  0  0  0  0
  1  2  1  0
  2  3  1  0
  3  4  1  6
  5  7  1  0
  5  3  1  0
  5  6  1  1
  7  8  2  0
 10  9  1  0
 11 10  2  0
 12 10  1  0
 13 12  1  0
 14 13  1  6
 15 14  1  0
 15  7  1  0
 16 17  2  0
 16 14  1  0
 18 16  1  0
 19 22  1  0
 19 18  1  0
 19 20  1  1
 21 20  1  0
 22 24  1  0
 23 22  2  0
M  END
$$$$
