IQC.pdb
     RDKit          3D

 24 23  0  0  1  0  0  0  0  0999 V2000
    7.7391  -12.7403   18.4081 C   0  0  0  0  0  0  0  0  0  0  0  0
    7.8219  -14.2230   18.7301 C   0  0  0  0  0  0  0  0  0  0  0  0
    7.3553  -14.4699   20.1237 C   0  0  2  0  0  0  0  0  0  0  0  0
    8.2005  -13.6316   21.0789 C   0  0  0  0  0  0  0  0  0  0  0  0
    7.3926  -15.9178   20.5281 C   0  0  2  0  0  0  0  0  0  0  0  0
    6.5769  -16.6617   19.6130 N   0  0  0  0  0  0  0  0  0  0  0  0
    7.0733  -16.1453   21.9381 C   0  0  0  0  0  0  0  0  0  0  0  0
    5.9084  -15.9025   22.3463 O   0  0  0  0  0  0  0  0  0  0  0  0
    7.3784  -20.2654   25.9386 N   0  0  0  0  0  0  0  0  0  0  0  0
    7.6105  -19.2103   26.8675 C   0  0  0  0  0  0  0  0  0  0  0  0
    7.2696  -19.4393   28.0630 O   0  0  0  0  0  0  0  0  0  0  0  0
    8.2171  -17.9150   26.4618 C   0  0  0  0  0  0  0  0  0  0  0  0
    8.3510  -17.9072   24.9751 C   0  0  0  0  0  0  0  0  0  0  0  0
    7.6945  -16.7232   24.3189 C   0  0  2  0  0  0  0  0  0  0  0  0
    7.9967  -16.6311   22.9101 N   0  0  0  0  0  0  0  0  0  0  0  0
    8.0167  -15.4514   24.9910 C   0  0  0  0  0  0  0  0  0  0  0  0
    9.1597  -14.9436   24.8589 O   0  0  0  0  0  0  0  0  0  0  0  0
    7.0776  -14.7606   25.7959 N   0  0  0  0  0  0  0  0  0  0  0  0
    7.4397  -13.5514   26.5030 C   0  0  1  0  0  0  0  0  0  0  0  0
    6.1842  -12.7690   26.8061 C   0  0  0  0  0  0  0  0  0  0  0  0
    6.5664  -11.2842   27.7728 S   0  0  0  0  0  0  0  0  0  0  0  0
    8.1582  -13.8507   27.7611 C   0  0  0  0  0  0  0  0  0  0  0  0
    8.0227  -14.9797   28.2880 O   0  0  0  0  0  0  0  0  0  0  0  0
    8.9708  -12.9327   28.3743 O   0  0  0  0  0  0  0  0  0  0  0  0
  1  2  1  0
  2  3  1  0
  3  4  1  1
  5  7  1  0
  5  3  1  0
  5  6  1  6
  7  8  2  0
 10  9  1  0
 11 10  2  0
 12 10  1  0
 13 12  1  0
 14 13  1  1
 15 14  1  0
 15  7  1  0
 16 17  2  0
 16 14  1  0
 18 16  1  0
 19 22  1  0
 19 18  1  0
 19 20  1  1
 21 20  1  0
 22 24  1  0
 23 22  2  0
M  END
$$$$
