IQC.pdb
     RDKit          3D

 24 23  0  0  1  0  0  0  0  0999 V2000
    5.8049  -11.5461   26.8276 C   0  0  0  0  0  0  0  0  0  0  0  0
    5.4716  -12.8112   26.0545 C   0  0  0  0  0  0  0  0  0  0  0  0
    6.7123  -13.5970   25.8014 C   0  0  2  0  0  0  0  0  0  0  0  0
    7.6958  -12.7236   25.0271 C   0  0  0  0  0  0  0  0  0  0  0  0
    6.4732  -14.8884   25.0691 C   0  0  2  0  0  0  0  0  0  0  0  0
    5.4668  -15.6264   25.7753 N   0  0  0  0  0  0  0  0  0  0  0  0
    7.6945  -15.6478   24.7973 C   0  0  0  0  0  0  0  0  0  0  0  0
    8.1972  -16.3435   25.7171 O   0  0  0  0  0  0  0  0  0  0  0  0
    9.6150  -18.3654   20.0140 N   0  0  0  0  0  0  0  0  0  0  0  0
   10.9162  -18.2339   20.5794 C   0  0  0  0  0  0  0  0  0  0  0  0
   11.7852  -19.0540   20.1671 O   0  0  0  0  0  0  0  0  0  0  0  0
   11.2393  -17.1964   21.5941 C   0  0  0  0  0  0  0  0  0  0  0  0
   10.0022  -16.4059   21.8643 C   0  0  0  0  0  0  0  0  0  0  0  0
    9.5952  -16.4033   23.3126 C   0  0  2  0  0  0  0  0  0  0  0  0
    8.3773  -15.6637   23.5456 N   0  0  0  0  0  0  0  0  0  0  0  0
   10.6643  -15.9132   24.2013 C   0  0  0  0  0  0  0  0  0  0  0  0
   11.0328  -14.7124   24.1368 O   0  0  0  0  0  0  0  0  0  0  0  0
   11.3090  -16.7508   25.1445 N   0  0  0  0  0  0  0  0  0  0  0  0
   11.8550  -16.2172   26.3736 C   0  0  1  0  0  0  0  0  0  0  0  0
   10.7396  -15.5775   27.1655 C   0  0  0  0  0  0  0  0  0  0  0  0
   11.3782  -14.8179   28.6822 S   0  0  0  0  0  0  0  0  0  0  0  0
   12.5029  -17.2714   27.1845 C   0  0  0  0  0  0  0  0  0  0  0  0
   13.2089  -16.9401   28.1654 O   0  0  0  0  0  0  0  0  0  0  0  0
   12.3578  -18.6045   26.8998 O   0  0  0  0  0  0  0  0  0  0  0  0
  1  2  1  0
  2  3  1  0
  3  4  1  6
  5  7  1  0
  5  3  1  0
  5  6  1  1
  7  8  2  0
 10  9  1  0
 11 10  2  0
 12 10  1  0
 13 12  1  0
 14 13  1  6
 15 14  1  0
 15  7  1  0
 16 17  2  0
 16 14  1  0
 18 16  1  0
 19 22  1  0
 19 18  1  0
 19 20  1  1
 21 20  1  0
 22 24  1  0
 23 22  2  0
M  END
$$$$
