IQC.pdb
     RDKit          3D

 24 23  0  0  1  0  0  0  0  0999 V2000
    6.0657  -10.8954   26.2447 C   0  0  0  0  0  0  0  0  0  0  0  0
    5.6288  -12.1864   25.5727 C   0  0  0  0  0  0  0  0  0  0  0  0
    6.7166  -13.2012   25.6598 C   0  0  2  0  0  0  0  0  0  0  0  0
    7.9597  -12.6471   24.9688 C   0  0  0  0  0  0  0  0  0  0  0  0
    6.3476  -14.5371   25.0764 C   0  0  2  0  0  0  0  0  0  0  0  0
    5.0794  -14.9298   25.6182 N   0  0  0  0  0  0  0  0  0  0  0  0
    7.3964  -15.5493   25.2095 C   0  0  0  0  0  0  0  0  0  0  0  0
    7.5114  -16.1686   26.2984 O   0  0  0  0  0  0  0  0  0  0  0  0
   10.6948  -17.7351   20.3328 N   0  0  0  0  0  0  0  0  0  0  0  0
   11.3976  -16.8080   21.1554 C   0  0  0  0  0  0  0  0  0  0  0  0
   12.5586  -16.4924   20.7678 O   0  0  0  0  0  0  0  0  0  0  0  0
   10.8067  -16.2418   22.3966 C   0  0  0  0  0  0  0  0  0  0  0  0
    9.9827  -17.3026   23.0478 C   0  0  0  0  0  0  0  0  0  0  0  0
    9.3726  -16.8724   24.3539 C   0  0  2  0  0  0  0  0  0  0  0  0
    8.3203  -15.8990   24.1812 N   0  0  0  0  0  0  0  0  0  0  0  0
   10.3758  -16.3707   25.3105 C   0  0  0  0  0  0  0  0  0  0  0  0
   10.7997  -15.1905   25.2142 O   0  0  0  0  0  0  0  0  0  0  0  0
   10.8949  -17.1744   26.3552 N   0  0  0  0  0  0  0  0  0  0  0  0
   11.3980  -16.5853   27.5772 C   0  0  1  0  0  0  0  0  0  0  0  0
   10.2906  -15.7913   28.2278 C   0  0  0  0  0  0  0  0  0  0  0  0
   10.8589  -15.0397   29.7762 S   0  0  0  0  0  0  0  0  0  0  0  0
   11.8917  -17.6167   28.5159 C   0  0  0  0  0  0  0  0  0  0  0  0
   11.3279  -18.7355   28.5457 O   0  0  0  0  0  0  0  0  0  0  0  0
   12.9491  -17.3912   29.3586 O   0  0  0  0  0  0  0  0  0  0  0  0
  1  2  1  0
  2  3  1  0
  3  4  1  6
  5  7  1  0
  5  3  1  0
  5  6  1  1
  7  8  2  0
 10  9  1  0
 11 10  2  0
 12 10  1  0
 13 12  1  0
 14 13  1  6
 15 14  1  0
 15  7  1  0
 16 17  2  0
 16 14  1  0
 18 16  1  0
 19 22  1  0
 19 18  1  0
 19 20  1  1
 21 20  1  0
 22 24  1  0
 23 22  2  0
M  END
$$$$
