IQC.pdb
     RDKit          3D

 24 23  0  0  1  0  0  0  0  0999 V2000
    6.8560  -12.6460   19.8579 C   0  0  0  0  0  0  0  0  0  0  0  0
    7.7756  -13.0532   18.7188 C   0  0  0  0  0  0  0  0  0  0  0  0
    8.8379  -13.9691   19.2223 C   0  0  2  0  0  0  0  0  0  0  0  0
    9.6079  -13.2616   20.3342 C   0  0  0  0  0  0  0  0  0  0  0  0
    9.7836  -14.4455   18.1547 C   0  0  2  0  0  0  0  0  0  0  0  0
    9.0094  -14.9980   17.0816 N   0  0  0  0  0  0  0  0  0  0  0  0
   10.8376  -15.3309   18.6521 C   0  0  0  0  0  0  0  0  0  0  0  0
   10.5507  -16.5238   18.9304 O   0  0  0  0  0  0  0  0  0  0  0  0
   16.2600  -15.4199   16.8950 N   0  0  0  0  0  0  0  0  0  0  0  0
   15.7165  -14.1839   17.3499 C   0  0  0  0  0  0  0  0  0  0  0  0
   16.1155  -13.1474   16.7464 O   0  0  0  0  0  0  0  0  0  0  0  0
   14.7383  -14.1105   18.4671 C   0  0  0  0  0  0  0  0  0  0  0  0
   14.5813  -15.4794   19.0413 C   0  0  0  0  0  0  0  0  0  0  0  0
   13.1783  -15.7855   19.4900 C   0  0  2  0  0  0  0  0  0  0  0  0
   12.1950  -14.9427   18.8516 N   0  0  0  0  0  0  0  0  0  0  0  0
   13.0252  -15.7237   20.9548 C   0  0  0  0  0  0  0  0  0  0  0  0
   12.9078  -14.6100   21.5273 O   0  0  0  0  0  0  0  0  0  0  0  0
   13.0039  -16.8863   21.7641 N   0  0  0  0  0  0  0  0  0  0  0  0
   12.9684  -16.7962   23.2077 C   0  0  1  0  0  0  0  0  0  0  0  0
   11.6874  -17.4231   23.7041 C   0  0  0  0  0  0  0  0  0  0  0  0
   11.6373  -17.4409   25.5159 S   0  0  0  0  0  0  0  0  0  0  0  0
   14.1291  -17.4753   23.8244 C   0  0  0  0  0  0  0  0  0  0  0  0
   14.7778  -18.3090   23.1502 O   0  0  0  0  0  0  0  0  0  0  0  0
   14.5222  -17.2240   25.1133 O   0  0  0  0  0  0  0  0  0  0  0  0
  1  2  1  0
  2  3  1  0
  3  4  1  1
  5  7  1  0
  5  3  1  0
  5  6  1  6
  7  8  2  0
 10  9  1  0
 11 10  2  0
 12 10  1  0
 13 12  1  0
 14 13  1  1
 15 14  1  0
 15  7  1  0
 16 17  2  0
 16 14  1  0
 18 16  1  0
 19 22  1  0
 19 18  1  0
 19 20  1  1
 21 20  1  0
 22 24  1  0
 23 22  2  0
M  END
$$$$
