IQC.pdb
     RDKit          3D

 24 23  0  0  1  0  0  0  0  0999 V2000
    8.1428  -12.4332   18.1761 C   0  0  0  0  0  0  0  0  0  0  0  0
    8.4040  -13.8886   18.5264 C   0  0  0  0  0  0  0  0  0  0  0  0
    7.8432  -14.1988   19.8718 C   0  0  2  0  0  0  0  0  0  0  0  0
    8.4955  -13.2769   20.8987 C   0  0  0  0  0  0  0  0  0  0  0  0
    8.0095  -15.6361   20.2813 C   0  0  2  0  0  0  0  0  0  0  0  0
    7.4163  -16.4632   19.2713 N   0  0  0  0  0  0  0  0  0  0  0  0
    7.5444  -15.9205   21.6396 C   0  0  0  0  0  0  0  0  0  0  0  0
    6.4053  -15.5182   21.9907 O   0  0  0  0  0  0  0  0  0  0  0  0
    6.6326  -19.8400   25.6239 N   0  0  0  0  0  0  0  0  0  0  0  0
    7.5953  -19.2447   26.4893 C   0  0  0  0  0  0  0  0  0  0  0  0
    7.8491  -19.8767   27.5542 O   0  0  0  0  0  0  0  0  0  0  0  0
    8.2650  -17.9575   26.1654 C   0  0  0  0  0  0  0  0  0  0  0  0
    8.5227  -17.9220   24.6955 C   0  0  0  0  0  0  0  0  0  0  0  0
    7.8948  -16.7429   24.0036 C   0  0  2  0  0  0  0  0  0  0  0  0
    8.2946  -16.6332   22.6206 N   0  0  0  0  0  0  0  0  0  0  0  0
    8.1471  -15.4723   24.7070 C   0  0  0  0  0  0  0  0  0  0  0  0
    9.2077  -14.8330   24.4873 O   0  0  0  0  0  0  0  0  0  0  0  0
    7.2299  -14.9269   25.6389 N   0  0  0  0  0  0  0  0  0  0  0  0
    7.4874  -13.6634   26.2950 C   0  0  1  0  0  0  0  0  0  0  0  0
    6.1924  -12.8931   26.3953 C   0  0  0  0  0  0  0  0  0  0  0  0
    6.4248  -11.3590   27.3322 S   0  0  0  0  0  0  0  0  0  0  0  0
    8.0593  -13.8577   27.6455 C   0  0  0  0  0  0  0  0  0  0  0  0
    7.9327  -14.9704   28.2080 O   0  0  0  0  0  0  0  0  0  0  0  0
    8.7260  -12.8591   28.3069 O   0  0  0  0  0  0  0  0  0  0  0  0
  1  2  1  0
  2  3  1  0
  3  4  1  1
  5  7  1  0
  5  3  1  0
  5  6  1  6
  7  8  2  0
 10  9  1  0
 11 10  2  0
 12 10  1  0
 13 12  1  0
 14 13  1  1
 15 14  1  0
 15  7  1  0
 16 17  2  0
 16 14  1  0
 18 16  1  0
 19 22  1  0
 19 18  1  0
 19 20  1  1
 21 20  1  0
 22 24  1  0
 23 22  2  0
M  END
$$$$
