IQC.pdb
     RDKit          3D

 24 23  0  0  1  0  0  0  0  0999 V2000
    7.1651  -11.8756   19.2997 C   0  0  0  0  0  0  0  0  0  0  0  0
    8.0403  -12.8265   18.5005 C   0  0  0  0  0  0  0  0  0  0  0  0
    8.4400  -13.9862   19.3467 C   0  0  2  0  0  0  0  0  0  0  0  0
    9.2272  -13.4681   20.5474 C   0  0  0  0  0  0  0  0  0  0  0  0
    9.2368  -15.0278   18.6108 C   0  0  2  0  0  0  0  0  0  0  0  0
    8.4965  -15.4217   17.4476 N   0  0  0  0  0  0  0  0  0  0  0  0
    9.6700  -16.1436   19.4529 C   0  0  0  0  0  0  0  0  0  0  0  0
    8.8572  -17.0710   19.7018 O   0  0  0  0  0  0  0  0  0  0  0  0
   14.7030  -19.4678   19.2434 N   0  0  0  0  0  0  0  0  0  0  0  0
   13.8767  -18.7520   18.3297 C   0  0  0  0  0  0  0  0  0  0  0  0
   14.2204  -18.8033   17.1144 O   0  0  0  0  0  0  0  0  0  0  0  0
   12.6803  -17.9885   18.7725 C   0  0  0  0  0  0  0  0  0  0  0  0
   12.5681  -18.1146   20.2556 C   0  0  0  0  0  0  0  0  0  0  0  0
   11.3787  -17.3958   20.8315 C   0  0  2  0  0  0  0  0  0  0  0  0
   10.9688  -16.2684   20.0280 N   0  0  0  0  0  0  0  0  0  0  0  0
   11.5928  -16.9728   22.2273 C   0  0  0  0  0  0  0  0  0  0  0  0
   12.1647  -15.8795   22.4712 O   0  0  0  0  0  0  0  0  0  0  0  0
   11.1748  -17.7584   23.3297 N   0  0  0  0  0  0  0  0  0  0  0  0
   11.5201  -17.3930   24.6864 C   0  0  1  0  0  0  0  0  0  0  0  0
   10.3840  -17.7843   25.6010 C   0  0  0  0  0  0  0  0  0  0  0  0
   10.8516  -17.5703   27.3391 S   0  0  0  0  0  0  0  0  0  0  0  0
   12.7676  -18.0545   25.1278 C   0  0  0  0  0  0  0  0  0  0  0  0
   13.0750  -19.1667   24.6391 O   0  0  0  0  0  0  0  0  0  0  0  0
   13.6036  -17.4914   26.0569 O   0  0  0  0  0  0  0  0  0  0  0  0
  1  2  1  0
  2  3  1  0
  3  4  1  1
  5  7  1  0
  5  3  1  0
  5  6  1  6
  7  8  2  0
 10  9  1  0
 11 10  2  0
 12 10  1  0
 13 12  1  0
 14 13  1  6
 15 14  1  0
 15  7  1  0
 16 17  2  0
 16 14  1  0
 18 16  1  0
 19 22  1  0
 19 18  1  0
 19 20  1  1
 21 20  1  0
 22 24  1  0
 23 22  2  0
M  END
$$$$
