IQC.pdb
     RDKit          3D

 24 23  0  0  1  0  0  0  0  0999 V2000
    7.1393  -11.8164   19.2144 C   0  0  0  0  0  0  0  0  0  0  0  0
    7.7598  -12.7814   18.2180 C   0  0  0  0  0  0  0  0  0  0  0  0
    8.4573  -13.8829   18.9400 C   0  0  2  0  0  0  0  0  0  0  0  0
    9.5265  -13.2756   19.8443 C   0  0  0  0  0  0  0  0  0  0  0  0
    9.0673  -14.9132   18.0304 C   0  0  2  0  0  0  0  0  0  0  0  0
    8.0474  -15.3895   17.1421 N   0  0  0  0  0  0  0  0  0  0  0  0
    9.7893  -15.9717   18.7378 C   0  0  0  0  0  0  0  0  0  0  0  0
    9.1399  -16.9346   19.2213 O   0  0  0  0  0  0  0  0  0  0  0  0
   15.0216  -19.1353   17.6236 N   0  0  0  0  0  0  0  0  0  0  0  0
   15.0578  -18.9683   19.0381 C   0  0  0  0  0  0  0  0  0  0  0  0
   16.1678  -19.2022   19.5957 O   0  0  0  0  0  0  0  0  0  0  0  0
   13.8649  -18.5446   19.8179 C   0  0  0  0  0  0  0  0  0  0  0  0
   13.1380  -17.5048   19.0314 C   0  0  0  0  0  0  0  0  0  0  0  0
   11.8805  -17.0172   19.6979 C   0  0  2  0  0  0  0  0  0  0  0  0
   11.2022  -16.0014   18.9281 N   0  0  0  0  0  0  0  0  0  0  0  0
   12.1158  -16.5395   21.0725 C   0  0  0  0  0  0  0  0  0  0  0  0
   12.8585  -15.5445   21.2727 O   0  0  0  0  0  0  0  0  0  0  0  0
   11.5311  -17.1635   22.2020 N   0  0  0  0  0  0  0  0  0  0  0  0
   11.7545  -16.6580   23.5392 C   0  0  1  0  0  0  0  0  0  0  0  0
   10.5100  -16.8896   24.3624 C   0  0  0  0  0  0  0  0  0  0  0  0
    9.1007  -15.9836   23.6709 S   0  0  0  0  0  0  0  0  0  0  0  0
   12.9108  -17.3179   24.1845 C   0  0  0  0  0  0  0  0  0  0  0  0
   13.4277  -18.3186   23.6352 O   0  0  0  0  0  0  0  0  0  0  0  0
   13.4396  -16.8715   25.3678 O   0  0  0  0  0  0  0  0  0  0  0  0
  1  2  1  0
  2  3  1  0
  3  4  1  6
  5  7  1  0
  5  3  1  0
  5  6  1  1
  7  8  2  0
 10  9  1  0
 11 10  2  0
 12 10  1  0
 13 12  1  0
 14 13  1  6
 15 14  1  0
 15  7  1  0
 16 17  2  0
 16 14  1  0
 18 16  1  0
 19 22  1  0
 19 18  1  0
 19 20  1  1
 21 20  1  0
 22 24  1  0
 23 22  2  0
M  END
$$$$
