IQC.pdb
     RDKit          3D

 24 23  0  0  1  0  0  0  0  0999 V2000
    6.8056  -12.7365   19.9087 C   0  0  0  0  0  0  0  0  0  0  0  0
    7.5577  -13.2585   18.6959 C   0  0  0  0  0  0  0  0  0  0  0  0
    8.8193  -13.9254   19.1253 C   0  0  2  0  0  0  0  0  0  0  0  0
    9.6477  -12.9314   19.9349 C   0  0  0  0  0  0  0  0  0  0  0  0
    9.6322  -14.4760   17.9863 C   0  0  2  0  0  0  0  0  0  0  0  0
    8.8097  -15.3880   17.2462 N   0  0  0  0  0  0  0  0  0  0  0  0
   10.9236  -15.0295   18.3962 C   0  0  0  0  0  0  0  0  0  0  0  0
   10.9751  -16.2178   18.8060 O   0  0  0  0  0  0  0  0  0  0  0  0
   15.7254  -16.0441   16.4284 N   0  0  0  0  0  0  0  0  0  0  0  0
   16.4165  -15.7492   17.6390 C   0  0  0  0  0  0  0  0  0  0  0  0
   17.4897  -16.3877   17.8343 O   0  0  0  0  0  0  0  0  0  0  0  0
   15.9111  -14.7512   18.6183 C   0  0  0  0  0  0  0  0  0  0  0  0
   14.5975  -14.2392   18.1278 C   0  0  0  0  0  0  0  0  0  0  0  0
   13.4140  -14.8794   18.8006 C   0  0  2  0  0  0  0  0  0  0  0  0
   12.1573  -14.3150   18.3683 N   0  0  0  0  0  0  0  0  0  0  0  0
   13.5082  -14.8408   20.2712 C   0  0  0  0  0  0  0  0  0  0  0  0
   13.2525  -13.7754   20.8889 O   0  0  0  0  0  0  0  0  0  0  0  0
   13.8814  -15.9730   21.0365 N   0  0  0  0  0  0  0  0  0  0  0  0
   14.0303  -15.8927   22.4735 C   0  0  1  0  0  0  0  0  0  0  0  0
   12.9748  -16.7561   23.1222 C   0  0  0  0  0  0  0  0  0  0  0  0
   13.2217  -16.8392   24.9159 S   0  0  0  0  0  0  0  0  0  0  0  0
   15.3738  -16.3349   22.9073 C   0  0  0  0  0  0  0  0  0  0  0  0
   16.0889  -16.9867   22.1109 O   0  0  0  0  0  0  0  0  0  0  0  0
   15.8669  -16.0558   24.1555 O   0  0  0  0  0  0  0  0  0  0  0  0
  1  2  1  0
  2  3  1  0
  3  4  1  6
  5  7  1  0
  5  3  1  0
  5  6  1  1
  7  8  2  0
 10  9  1  0
 11 10  2  0
 12 10  1  0
 13 12  1  0
 14 13  1  6
 15 14  1  0
 15  7  1  0
 16 17  2  0
 16 14  1  0
 18 16  1  0
 19 22  1  0
 19 18  1  0
 19 20  1  1
 21 20  1  0
 22 24  1  0
 23 22  2  0
M  END
$$$$
