IQC.pdb
     RDKit          3D

 24 23  0  0  1  0  0  0  0  0999 V2000
    6.6387  -12.5037   19.4009 C   0  0  0  0  0  0  0  0  0  0  0  0
    7.5689  -12.9813   18.2983 C   0  0  0  0  0  0  0  0  0  0  0  0
    8.7455  -13.6794   18.8893 C   0  0  2  0  0  0  0  0  0  0  0  0
    9.4722  -12.7121   19.8199 C   0  0  0  0  0  0  0  0  0  0  0  0
    9.6981  -14.2340   17.8666 C   0  0  2  0  0  0  0  0  0  0  0  0
    8.9409  -14.9807   16.9047 N   0  0  0  0  0  0  0  0  0  0  0  0
   10.8237  -14.9688   18.4456 C   0  0  0  0  0  0  0  0  0  0  0  0
   10.6603  -16.1708   18.7791 O   0  0  0  0  0  0  0  0  0  0  0  0
   15.7194  -16.8086   17.8660 N   0  0  0  0  0  0  0  0  0  0  0  0
   15.3786  -15.7503   16.9750 C   0  0  0  0  0  0  0  0  0  0  0  0
   15.5879  -15.9698   15.7479 O   0  0  0  0  0  0  0  0  0  0  0  0
   14.8103  -14.4624   17.4531 C   0  0  0  0  0  0  0  0  0  0  0  0
   14.5562  -14.5797   18.9194 C   0  0  0  0  0  0  0  0  0  0  0  0
   13.2112  -15.1664   19.2511 C   0  0  2  0  0  0  0  0  0  0  0  0
   12.1211  -14.4206   18.6678 N   0  0  0  0  0  0  0  0  0  0  0  0
   13.0017  -15.3199   20.7021 C   0  0  0  0  0  0  0  0  0  0  0  0
   12.7900  -14.3066   21.4165 O   0  0  0  0  0  0  0  0  0  0  0  0
   13.0285  -16.5836   21.3420 N   0  0  0  0  0  0  0  0  0  0  0  0
   12.8315  -16.7068   22.7701 C   0  0  1  0  0  0  0  0  0  0  0  0
   11.4068  -17.1341   23.0309 C   0  0  0  0  0  0  0  0  0  0  0  0
   11.1243  -17.3919   24.8027 S   0  0  0  0  0  0  0  0  0  0  0  0
   13.7647  -17.6882   23.3658 C   0  0  0  0  0  0  0  0  0  0  0  0
   14.3489  -18.5070   22.6183 O   0  0  0  0  0  0  0  0  0  0  0  0
   14.0144  -17.7342   24.7128 O   0  0  0  0  0  0  0  0  0  0  0  0
  1  2  1  0
  2  3  1  0
  3  4  1  1
  5  7  1  0
  5  3  1  0
  5  6  1  6
  7  8  2  0
 10  9  1  0
 11 10  2  0
 12 10  1  0
 13 12  1  0
 14 13  1  1
 15 14  1  0
 15  7  1  0
 16 17  2  0
 16 14  1  0
 18 16  1  0
 19 22  1  0
 19 18  1  0
 19 20  1  6
 21 20  1  0
 22 24  1  0
 23 22  2  0
M  END
$$$$
