IQC.pdb
     RDKit          3D

 24 23  0  0  1  0  0  0  0  0999 V2000
    6.9628  -11.4303   27.3461 C   0  0  0  0  0  0  0  0  0  0  0  0
    6.2774  -12.7199   26.9264 C   0  0  0  0  0  0  0  0  0  0  0  0
    6.9291  -13.2706   25.7046 C   0  0  2  0  0  0  0  0  0  0  0  0
    6.8659  -12.2193   24.5998 C   0  0  0  0  0  0  0  0  0  0  0  0
    6.3290  -14.5645   25.2281 C   0  0  2  0  0  0  0  0  0  0  0  0
    6.2610  -15.4657   26.3414 N   0  0  0  0  0  0  0  0  0  0  0  0
    6.9877  -15.1204   24.0453 C   0  0  0  0  0  0  0  0  0  0  0  0
    6.2839  -15.4666   23.0617 O   0  0  0  0  0  0  0  0  0  0  0  0
    8.5624  -12.6160   19.3110 N   0  0  0  0  0  0  0  0  0  0  0  0
    9.6641  -13.4670   19.6145 C   0  0  0  0  0  0  0  0  0  0  0  0
   10.7998  -13.0587   19.2386 O   0  0  0  0  0  0  0  0  0  0  0  0
    9.4952  -14.7592   20.3301 C   0  0  0  0  0  0  0  0  0  0  0  0
    8.8511  -14.4826   21.6480 C   0  0  0  0  0  0  0  0  0  0  0  0
    9.0474  -15.5826   22.6554 C   0  0  2  0  0  0  0  0  0  0  0  0
    8.3954  -15.3060   23.9135 N   0  0  0  0  0  0  0  0  0  0  0  0
   10.4696  -15.8989   22.8798 C   0  0  0  0  0  0  0  0  0  0  0  0
   11.3619  -15.1685   22.3777 O   0  0  0  0  0  0  0  0  0  0  0  0
   10.8857  -17.0116   23.6516 N   0  0  0  0  0  0  0  0  0  0  0  0
   11.3684  -16.8484   25.0057 C   0  0  1  0  0  0  0  0  0  0  0  0
   10.3101  -16.1421   25.8190 C   0  0  0  0  0  0  0  0  0  0  0  0
   10.9978  -15.5288   27.3799 S   0  0  0  0  0  0  0  0  0  0  0  0
   11.6918  -18.1505   25.6292 C   0  0  0  0  0  0  0  0  0  0  0  0
   10.9799  -19.1475   25.3654 O   0  0  0  0  0  0  0  0  0  0  0  0
   12.7477  -18.3062   26.4894 O   0  0  0  0  0  0  0  0  0  0  0  0
  1  2  1  0
  2  3  1  0
  3  4  1  6
  5  7  1  0
  5  3  1  0
  5  6  1  1
  7  8  2  0
 10  9  1  0
 11 10  2  0
 12 10  1  0
 13 12  1  0
 14 13  1  6
 15 14  1  0
 15  7  1  0
 16 17  2  0
 16 14  1  0
 18 16  1  0
 19 22  1  0
 19 18  1  0
 19 20  1  1
 21 20  1  0
 22 24  1  0
 23 22  2  0
M  END
$$$$
