IQC.pdb
     RDKit          3D

 24 23  0  0  1  0  0  0  0  0999 V2000
    7.6075  -12.1794   20.0190 C   0  0  0  0  0  0  0  0  0  0  0  0
    7.5734  -13.6737   19.7451 C   0  0  0  0  0  0  0  0  0  0  0  0
    8.7654  -14.0738   18.9451 C   0  0  2  0  0  0  0  0  0  0  0  0
    8.7494  -13.3068   17.6255 C   0  0  0  0  0  0  0  0  0  0  0  0
    8.8543  -15.5526   18.6877 C   0  0  2  0  0  0  0  0  0  0  0  0
    7.7739  -15.9243   17.8212 N   0  0  0  0  0  0  0  0  0  0  0  0
    8.9518  -16.3589   19.9052 C   0  0  0  0  0  0  0  0  0  0  0  0
    7.8946  -16.7486   20.4647 O   0  0  0  0  0  0  0  0  0  0  0  0
   10.7754  -19.8657   18.3719 N   0  0  0  0  0  0  0  0  0  0  0  0
   11.5257  -19.6768   19.5683 C   0  0  0  0  0  0  0  0  0  0  0  0
   12.7526  -19.4131   19.4174 O   0  0  0  0  0  0  0  0  0  0  0  0
   10.9086  -19.7820   20.9169 C   0  0  0  0  0  0  0  0  0  0  0  0
   11.3032  -18.5782   21.7064 C   0  0  0  0  0  0  0  0  0  0  0  0
   10.2425  -17.5121   21.7470 C   0  0  2  0  0  0  0  0  0  0  0  0
   10.1763  -16.7479   20.5238 N   0  0  0  0  0  0  0  0  0  0  0  0
   10.3906  -16.6085   22.9023 C   0  0  0  0  0  0  0  0  0  0  0  0
   11.3236  -15.7654   22.9242 O   0  0  0  0  0  0  0  0  0  0  0  0
    9.5111  -16.6474   24.0123 N   0  0  0  0  0  0  0  0  0  0  0  0
    9.7427  -15.8298   25.1833 C   0  0  1  0  0  0  0  0  0  0  0  0
    8.4208  -15.2797   25.6632 C   0  0  0  0  0  0  0  0  0  0  0  0
    7.5505  -14.4278   24.3209 S   0  0  0  0  0  0  0  0  0  0  0  0
   10.3862  -16.6026   26.2684 C   0  0  0  0  0  0  0  0  0  0  0  0
   10.5793  -17.8309   26.1117 O   0  0  0  0  0  0  0  0  0  0  0  0
   10.7807  -16.0202   27.4449 O   0  0  0  0  0  0  0  0  0  0  0  0
  1  2  1  0
  2  3  1  0
  3  4  1  6
  5  7  1  0
  5  3  1  0
  5  6  1  1
  7  8  2  0
 10  9  1  0
 11 10  2  0
 12 10  1  0
 13 12  1  0
 14 13  1  6
 15 14  1  0
 15  7  1  0
 16 17  2  0
 16 14  1  0
 18 16  1  0
 19 22  1  0
 19 18  1  0
 19 20  1  1
 21 20  1  0
 22 24  1  0
 23 22  2  0
M  END
$$$$
