IQC.pdb
     RDKit          3D

 24 23  0  0  1  0  0  0  0  0999 V2000
    5.8888  -11.3457   26.7627 C   0  0  0  0  0  0  0  0  0  0  0  0
    5.5466  -12.6259   26.0191 C   0  0  0  0  0  0  0  0  0  0  0  0
    6.7741  -13.4489   25.8271 C   0  0  2  0  0  0  0  0  0  0  0  0
    7.8138  -12.6121   25.0863 C   0  0  0  0  0  0  0  0  0  0  0  0
    6.5297  -14.7415   25.0986 C   0  0  2  0  0  0  0  0  0  0  0  0
    5.4729  -15.4423   25.7680 N   0  0  0  0  0  0  0  0  0  0  0  0
    7.7392  -15.5383   24.8883 C   0  0  0  0  0  0  0  0  0  0  0  0
    8.1696  -16.2534   25.8296 O   0  0  0  0  0  0  0  0  0  0  0  0
    9.9303  -18.2898   20.1985 N   0  0  0  0  0  0  0  0  0  0  0  0
   11.2134  -18.0967   20.7869 C   0  0  0  0  0  0  0  0  0  0  0  0
   12.1498  -18.8057   20.3197 O   0  0  0  0  0  0  0  0  0  0  0  0
   11.4442  -17.1214   21.8851 C   0  0  0  0  0  0  0  0  0  0  0  0
   10.1904  -16.3360   22.0834 C   0  0  0  0  0  0  0  0  0  0  0  0
    9.6906  -16.3501   23.5023 C   0  0  2  0  0  0  0  0  0  0  0  0
    8.4873  -15.5711   23.6748 N   0  0  0  0  0  0  0  0  0  0  0  0
   10.7166  -15.9196   24.4693 C   0  0  0  0  0  0  0  0  0  0  0  0
   11.1835  -14.7532   24.4116 O   0  0  0  0  0  0  0  0  0  0  0  0
   11.2110  -16.7781   25.4820 N   0  0  0  0  0  0  0  0  0  0  0  0
   11.6803  -16.2555   26.7469 C   0  0  1  0  0  0  0  0  0  0  0  0
   10.5558  -15.4943   27.4075 C   0  0  0  0  0  0  0  0  0  0  0  0
   11.1716  -14.5154   28.8032 S   0  0  0  0  0  0  0  0  0  0  0  0
   12.1466  -17.3362   27.6432 C   0  0  0  0  0  0  0  0  0  0  0  0
   11.5804  -18.4533   27.5988 O   0  0  0  0  0  0  0  0  0  0  0  0
   13.1810  -17.1584   28.5250 O   0  0  0  0  0  0  0  0  0  0  0  0
  1  2  1  0
  2  3  1  0
  3  4  1  6
  5  7  1  0
  5  3  1  0
  5  6  1  1
  7  8  2  0
 10  9  1  0
 11 10  2  0
 12 10  1  0
 13 12  1  0
 14 13  1  6
 15 14  1  0
 15  7  1  0
 16 17  2  0
 16 14  1  0
 18 16  1  0
 19 22  1  0
 19 18  1  0
 19 20  1  1
 21 20  1  0
 22 24  1  0
 23 22  2  0
M  END
$$$$
