RLF.pdb
     RDKit          3D

 31 31  0  0  1  0  0  0  0  0999 V2000
    6.4719  -18.6584   26.7112 N   0  0  0  0  0  0  0  0  0  0  0  0
    7.5412  -19.5850   26.7393 C   0  0  0  0  0  0  0  0  0  0  0  0
    8.3869  -19.5337   27.6987 N   0  0  0  0  0  0  0  0  0  0  0  0
    7.6919  -20.5787   25.7077 N   0  0  0  0  0  0  0  0  0  0  0  0
    6.7170  -20.6759   24.6616 C   0  0  0  0  0  0  0  0  0  0  0  0
    7.3638  -20.3552   23.3081 C   0  0  0  0  0  0  0  0  0  0  0  0
    6.4177  -19.5866   22.4380 C   0  0  0  0  0  0  0  0  0  0  0  0
    6.9881  -19.2221   21.0941 C   0  0  2  0  0  0  0  0  0  0  0  0
    7.6210  -20.4525   20.5828 N   0  0  0  0  0  0  0  0  0  0  0  0
    8.0063  -18.1431   21.1979 C   0  0  0  0  0  0  0  0  0  0  0  0
    9.2200  -18.3822   21.1229 O   0  0  0  0  0  0  0  0  0  0  0  0
    9.1609  -20.2084   27.7378 C   0  0  0  0  0  0  0  0  0  0  0  0
    8.9476  -13.1880   19.3768 C   0  0  2  0  0  0  0  0  0  0  0  0
    8.3883  -13.1871   20.8381 C   0  0  0  0  0  0  0  0  0  0  0  0
    7.3925  -12.0176   20.8127 C   0  0  0  0  0  0  0  0  0  0  0  0
    7.7441  -14.5079   21.0155 C   0  0  1  0  0  0  0  0  0  0  0  0
    8.5175  -15.6773   21.4691 N   0  0  0  0  0  0  0  0  0  0  0  0
    7.5580  -16.8169   21.3861 C   0  0  0  0  0  0  0  0  0  0  0  0
    9.0707  -15.6888   22.8234 O   0  0  0  0  0  0  0  0  0  0  0  0
   10.0545  -14.9833   23.1196 N   0  0  0  0  0  0  0  0  0  0  0  0
    8.5197  -16.5047   23.8763 C   0  0  1  0  0  0  0  0  0  0  0  0
    8.9389  -16.2414   25.2179 C   0  0  0  0  0  0  0  0  0  0  0  0
    7.8180  -16.0297   26.1804 C   0  0  0  0  0  0  0  0  0  0  0  0
    7.1944  -14.7043   26.1508 C   0  0  0  0  0  0  0  0  0  0  0  0
    7.9251  -13.5682   26.3958 C   0  0  0  0  0  0  0  0  0  0  0  0
    7.3727  -12.2917   26.3696 C   0  0  0  0  0  0  0  0  0  0  0  0
    6.0227  -12.1898   26.0799 C   0  0  0  0  0  0  0  0  0  0  0  0
    5.2655  -13.2841   25.8322 C   0  0  0  0  0  0  0  0  0  0  0  0
    5.8491  -14.5568   25.8661 C   0  0  0  0  0  0  0  0  0  0  0  0
    9.6585  -17.4771   25.7070 O   0  0  0  0  0  0  0  0  0  0  0  0
   10.1718  -17.4807   26.8624 O   0  0  0  0  0  0  0  0  0  0  0  0
  2  1  1  0
  2  3  2  0
  4  2  1  0
  5  4  1  0
  6  5  1  0
  7  6  1  0
  8  7  1  0
  8  9  1  1
 10  8  1  0
 10 11  2  0
 13 14  1  6
 13 12  1  0
 16 15  1  6
 15 13  1  0
 16 17  1  0
 17 10  1  0
 18 16  1  0
 19 18  2  0
 20 18  1  0
 21 22  1  1
 21 20  1  0
 22 23  1  0
 23 28  2  0
 24 25  2  0
 24 23  1  0
 25 26  1  0
 26 27  2  0
 28 27  1  0
 29 21  1  0
 30 29  2  0
 31 29  1  0
M  END
$$$$
