RLF.pdb
     RDKit          3D

 31 31  0  0  1  0  0  0  0  0999 V2000
   10.8002  -20.8568   14.8587 N   0  0  0  0  0  0  0  0  0  0  0  0
    9.5718  -21.4437   15.2449 C   0  0  0  0  0  0  0  0  0  0  0  0
    9.1450  -22.4719   14.6130 N   0  0  0  0  0  0  0  0  0  0  0  0
    8.7975  -20.9022   16.3318 N   0  0  0  0  0  0  0  0  0  0  0  0
    9.2637  -19.7418   17.0322 C   0  0  0  0  0  0  0  0  0  0  0  0
   10.2343  -20.1543   18.1462 C   0  0  0  0  0  0  0  0  0  0  0  0
   10.8299  -18.9476   18.8034 C   0  0  0  0  0  0  0  0  0  0  0  0
   10.5174  -18.8387   20.2713 C   0  0  2  0  0  0  0  0  0  0  0  0
    9.1740  -19.4252   20.4373 N   0  0  0  0  0  0  0  0  0  0  0  0
   10.5052  -17.4248   20.7324 C   0  0  0  0  0  0  0  0  0  0  0  0
   11.4868  -16.6826   20.5861 O   0  0  0  0  0  0  0  0  0  0  0  0
    8.2475  -22.8990   14.8736 C   0  0  0  0  0  0  0  0  0  0  0  0
    8.1665  -12.8468   20.4873 C   0  0  2  0  0  0  0  0  0  0  0  0
    7.3255  -13.7494   21.4495 C   0  0  0  0  0  0  0  0  0  0  0  0
    5.8958  -13.5576   20.9212 C   0  0  0  0  0  0  0  0  0  0  0  0
    7.8463  -15.1220   21.2598 C   0  0  1  0  0  0  0  0  0  0  0  0
    9.1960  -15.4942   21.7192 N   0  0  0  0  0  0  0  0  0  0  0  0
    9.3341  -16.9335   21.3506 C   0  0  0  0  0  0  0  0  0  0  0  0
    9.5229  -15.3894   23.1414 O   0  0  0  0  0  0  0  0  0  0  0  0
   10.3593  -14.5591   23.5468 N   0  0  0  0  0  0  0  0  0  0  0  0
    8.9076  -16.2276   24.1396 C   0  0  1  0  0  0  0  0  0  0  0  0
    9.3121  -16.0570   25.5006 C   0  0  0  0  0  0  0  0  0  0  0  0
    8.2344  -15.5539   26.4024 C   0  0  0  0  0  0  0  0  0  0  0  0
    7.9667  -14.1151   26.3343 C   0  0  0  0  0  0  0  0  0  0  0  0
    6.7359  -13.6371   25.9583 C   0  0  0  0  0  0  0  0  0  0  0  0
    6.4392  -12.2797   25.8885 C   0  0  0  0  0  0  0  0  0  0  0  0
    7.4484  -11.3914   26.2191 C   0  0  0  0  0  0  0  0  0  0  0  0
    8.6761  -11.8198   26.5949 C   0  0  0  0  0  0  0  0  0  0  0  0
    8.9460  -13.1928   26.6555 C   0  0  0  0  0  0  0  0  0  0  0  0
    9.6705  -17.4262   26.0304 O   0  0  0  0  0  0  0  0  0  0  0  0
    9.5804  -18.4307   25.2679 O   0  0  0  0  0  0  0  0  0  0  0  0
  2  1  1  0
  2  3  2  0
  4  2  1  0
  5  4  1  0
  6  5  1  0
  7  6  1  0
  8  7  1  0
  8  9  1  6
 10  8  1  0
 10 11  2  0
 13 14  1  6
 13 12  1  0
 16 15  1  6
 15 13  1  0
 16 17  1  0
 17 10  1  0
 18 16  1  0
 19 18  2  0
 20 18  1  0
 21 22  1  1
 21 20  1  0
 22 23  1  0
 23 28  2  0
 24 25  2  0
 24 23  1  0
 25 26  1  0
 26 27  2  0
 28 27  1  0
 29 21  1  0
 30 29  2  0
 31 29  1  0
M  END
$$$$
