RLF.pdb
     RDKit          3D

 31 31  0  0  1  0  0  0  0  0999 V2000
    5.5068  -22.5710   23.7302 N   0  0  0  0  0  0  0  0  0  0  0  0
    4.6387  -22.4830   22.6160 C   0  0  0  0  0  0  0  0  0  0  0  0
    3.7752  -23.4080   22.4227 N   0  0  0  0  0  0  0  0  0  0  0  0
    4.7139  -21.3744   21.6998 N   0  0  0  0  0  0  0  0  0  0  0  0
    5.7054  -20.3569   21.8895 C   0  0  0  0  0  0  0  0  0  0  0  0
    7.1049  -20.9845   21.9159 C   0  0  0  0  0  0  0  0  0  0  0  0
    8.1550  -19.9300   22.0839 C   0  0  0  0  0  0  0  0  0  0  0  0
    8.1877  -18.9217   20.9674 C   0  0  2  0  0  0  0  0  0  0  0  0
    8.9872  -19.5418   19.8938 N   0  0  0  0  0  0  0  0  0  0  0  0
    8.8243  -17.6460   21.3905 C   0  0  0  0  0  0  0  0  0  0  0  0
   10.0558  -17.5160   21.4384 O   0  0  0  0  0  0  0  0  0  0  0  0
    3.1035  -23.3300   21.6489 C   0  0  0  0  0  0  0  0  0  0  0  0
    6.1504  -13.0774   20.0177 C   0  0  1  0  0  0  0  0  0  0  0  0
    7.2841  -14.1485   20.1421 C   0  0  0  0  0  0  0  0  0  0  0  0
    8.4327  -13.5116   19.3452 C   0  0  0  0  0  0  0  0  0  0  0  0
    7.5628  -14.2627   21.5914 C   0  0  2  0  0  0  0  0  0  0  0  0
    8.5486  -15.2311   22.1029 N   0  0  0  0  0  0  0  0  0  0  0  0
    7.9857  -16.5653   21.7425 C   0  0  0  0  0  0  0  0  0  0  0  0
    8.8389  -15.2685   23.5363 O   0  0  0  0  0  0  0  0  0  0  0  0
    9.3991  -14.3094   24.1016 N   0  0  0  0  0  0  0  0  0  0  0  0
    8.5006  -16.3991   24.3641 C   0  0  1  0  0  0  0  0  0  0  0  0
    8.6726  -16.2705   25.7779 C   0  0  0  0  0  0  0  0  0  0  0  0
    7.4918  -15.6993   26.4900 C   0  0  0  0  0  0  0  0  0  0  0  0
    7.3094  -14.2512   26.3616 C   0  0  0  0  0  0  0  0  0  0  0  0
    6.1322  -13.7206   25.8956 C   0  0  0  0  0  0  0  0  0  0  0  0
    5.9166  -12.3524   25.7663 C   0  0  0  0  0  0  0  0  0  0  0  0
    6.9520  -11.5090   26.1316 C   0  0  0  0  0  0  0  0  0  0  0  0
    8.1290  -11.9901   26.5958 C   0  0  0  0  0  0  0  0  0  0  0  0
    8.3175  -13.3728   26.7148 C   0  0  0  0  0  0  0  0  0  0  0  0
    8.8374  -17.6667   26.3322 O   0  0  0  0  0  0  0  0  0  0  0  0
    8.7008  -18.6607   25.5630 O   0  0  0  0  0  0  0  0  0  0  0  0
  2  1  1  0
  2  3  2  0
  4  2  1  0
  5  4  1  0
  6  5  1  0
  7  6  1  0
  8  7  1  0
  8  9  1  6
 10  8  1  0
 10 11  2  0
 13 14  1  1
 13 12  1  0
 16 15  1  6
 15 13  1  0
 16 17  1  0
 17 10  1  0
 18 16  1  0
 19 18  2  0
 20 18  1  0
 21 22  1  1
 21 20  1  0
 22 23  1  0
 23 28  2  0
 24 25  2  0
 24 23  1  0
 25 26  1  0
 26 27  2  0
 28 27  1  0
 29 21  1  0
 30 29  2  0
 31 29  1  0
M  END
$$$$
