RLF.pdb
     RDKit          3D

 31 31  0  0  1  0  0  0  0  0999 V2000
    8.7164  -21.4149   17.7733 N   0  0  0  0  0  0  0  0  0  0  0  0
    9.2396  -21.5555   16.4659 C   0  0  0  0  0  0  0  0  0  0  0  0
    9.2148  -22.7052   15.9038 N   0  0  0  0  0  0  0  0  0  0  0  0
    9.7988  -20.4296   15.7631 N   0  0  0  0  0  0  0  0  0  0  0  0
    9.9088  -19.1605   16.4201 C   0  0  0  0  0  0  0  0  0  0  0  0
   10.4658  -19.3480   17.8370 C   0  0  0  0  0  0  0  0  0  0  0  0
   10.4998  -18.0423   18.5697 C   0  0  0  0  0  0  0  0  0  0  0  0
   10.2220  -18.1652   20.0435 C   0  0  2  0  0  0  0  0  0  0  0  0
    8.8343  -18.6549   20.1479 N   0  0  0  0  0  0  0  0  0  0  0  0
   10.3439  -16.8579   20.7419 C   0  0  0  0  0  0  0  0  0  0  0  0
   11.4266  -16.2604   20.8234 O   0  0  0  0  0  0  0  0  0  0  0  0
    9.6861  -22.8461   15.0015 C   0  0  0  0  0  0  0  0  0  0  0  0
    6.2133  -13.4079   20.2355 C   0  0  1  0  0  0  0  0  0  0  0  0
    7.6981  -13.9008   20.2535 C   0  0  0  0  0  0  0  0  0  0  0  0
    8.4727  -12.6391   19.8434 C   0  0  0  0  0  0  0  0  0  0  0  0
    7.9567  -14.3257   21.6477 C   0  0  2  0  0  0  0  0  0  0  0  0
    9.2222  -14.9817   22.0212 N   0  0  0  0  0  0  0  0  0  0  0  0
    9.1831  -16.2986   21.3206 C   0  0  0  0  0  0  0  0  0  0  0  0
    9.4953  -15.2614   23.4310 O   0  0  0  0  0  0  0  0  0  0  0  0
   10.5227  -14.8229   23.9836 N   0  0  0  0  0  0  0  0  0  0  0  0
    8.6070  -16.0487   24.2488 C   0  0  1  0  0  0  0  0  0  0  0  0
    8.9109  -16.1739   25.6406 C   0  0  0  0  0  0  0  0  0  0  0  0
    7.7709  -15.8523   26.5487 C   0  0  0  0  0  0  0  0  0  0  0  0
    7.2071  -14.5069   26.4118 C   0  0  0  0  0  0  0  0  0  0  0  0
    6.0961  -14.2759   25.6391 C   0  0  0  0  0  0  0  0  0  0  0  0
    5.5259  -13.0159   25.4895 C   0  0  0  0  0  0  0  0  0  0  0  0
    6.1247  -11.9640   26.1616 C   0  0  0  0  0  0  0  0  0  0  0  0
    7.2212  -12.1476   26.9338 C   0  0  0  0  0  0  0  0  0  0  0  0
    7.7738  -13.4278   27.0653 C   0  0  0  0  0  0  0  0  0  0  0  0
    9.2270  -17.6295   25.8951 O   0  0  0  0  0  0  0  0  0  0  0  0
    9.5611  -17.9989   27.0572 O   0  0  0  0  0  0  0  0  0  0  0  0
  2  1  1  0
  2  3  2  0
  4  2  1  0
  5  4  1  0
  6  5  1  0
  7  6  1  0
  8  7  1  0
  8  9  1  6
 10  8  1  0
 10 11  2  0
 13 14  1  1
 13 12  1  0
 16 15  1  6
 15 13  1  0
 16 17  1  0
 17 10  1  0
 18 16  1  0
 19 18  2  0
 20 18  1  0
 21 22  1  1
 21 20  1  0
 22 23  1  0
 23 28  2  0
 24 25  2  0
 24 23  1  0
 25 26  1  0
 26 27  2  0
 28 27  1  0
 29 21  1  0
 30 29  2  0
 31 29  1  0
M  END
$$$$
