RLF.pdb
     RDKit          3D

 31 31  0  0  1  0  0  0  0  0999 V2000
   10.5695  -17.4614   15.0058 N   0  0  0  0  0  0  0  0  0  0  0  0
    9.2861  -17.9206   14.6255 C   0  0  0  0  0  0  0  0  0  0  0  0
    8.9275  -17.8279   13.4002 N   0  0  0  0  0  0  0  0  0  0  0  0
    8.3812  -18.4861   15.5928 N   0  0  0  0  0  0  0  0  0  0  0  0
    8.3070  -17.9301   16.9119 C   0  0  0  0  0  0  0  0  0  0  0  0
    9.3604  -18.5810   17.8172 C   0  0  0  0  0  0  0  0  0  0  0  0
   10.1657  -17.5372   18.5278 C   0  0  0  0  0  0  0  0  0  0  0  0
    9.9559  -17.5178   20.0177 C   0  0  2  0  0  0  0  0  0  0  0  0
    8.6594  -18.1834   20.2462 N   0  0  0  0  0  0  0  0  0  0  0  0
    9.9062  -16.1311   20.5529 C   0  0  0  0  0  0  0  0  0  0  0  0
   10.1246  -15.1461   19.8333 O   0  0  0  0  0  0  0  0  0  0  0  0
    7.9608  -18.0478   13.1299 C   0  0  0  0  0  0  0  0  0  0  0  0
    6.9303  -13.3174   19.6401 C   0  0  1  0  0  0  0  0  0  0  0  0
    8.3386  -13.6656   20.2262 C   0  0  0  0  0  0  0  0  0  0  0  0
    9.0461  -12.3021   20.2249 C   0  0  0  0  0  0  0  0  0  0  0  0
    8.0815  -14.1965   21.5838 C   0  0  2  0  0  0  0  0  0  0  0  0
    9.1894  -14.6226   22.4569 N   0  0  0  0  0  0  0  0  0  0  0  0
    9.5998  -15.9530   21.9201 C   0  0  0  0  0  0  0  0  0  0  0  0
    8.9453  -14.8018   23.8882 O   0  0  0  0  0  0  0  0  0  0  0  0
    8.6196  -13.8379   24.6081 N   0  0  0  0  0  0  0  0  0  0  0  0
    9.0670  -16.0825   24.5385 C   0  0  1  0  0  0  0  0  0  0  0  0
    9.3514  -16.0988   25.9399 C   0  0  0  0  0  0  0  0  0  0  0  0
    8.1801  -15.7773   26.8073 C   0  0  0  0  0  0  0  0  0  0  0  0
    7.5594  -14.4696   26.5810 C   0  0  0  0  0  0  0  0  0  0  0  0
    6.4109  -14.3456   25.8393 C   0  0  0  0  0  0  0  0  0  0  0  0
    5.7866  -13.1241   25.6078 C   0  0  0  0  0  0  0  0  0  0  0  0
    6.3700  -11.9977   26.1624 C   0  0  0  0  0  0  0  0  0  0  0  0
    7.5022  -12.0750   26.9002 C   0  0  0  0  0  0  0  0  0  0  0  0
    8.1089  -13.3187   27.1161 C   0  0  0  0  0  0  0  0  0  0  0  0
    9.7366  -17.5159   26.2966 O   0  0  0  0  0  0  0  0  0  0  0  0
    9.7546  -18.4008   25.3938 O   0  0  0  0  0  0  0  0  0  0  0  0
  2  1  1  0
  2  3  2  0
  4  2  1  0
  5  4  1  0
  6  5  1  0
  7  6  1  0
  8  7  1  0
  8  9  1  6
 10  8  1  0
 10 11  2  0
 13 14  1  1
 13 12  1  0
 16 15  1  6
 15 13  1  0
 16 17  1  0
 17 10  1  0
 18 16  1  0
 19 18  2  0
 20 18  1  0
 21 22  1  1
 21 20  1  0
 22 23  1  0
 23 28  2  0
 24 25  2  0
 24 23  1  0
 25 26  1  0
 26 27  2  0
 28 27  1  0
 29 21  1  0
 30 29  2  0
 31 29  1  0
M  END
$$$$
