RLF.pdb
     RDKit          3D

 31 31  0  0  1  0  0  0  0  0999 V2000
    8.1561  -20.7626   17.1342 N   0  0  0  0  0  0  0  0  0  0  0  0
    9.3715  -21.3839   17.5077 C   0  0  0  0  0  0  0  0  0  0  0  0
   10.0574  -21.9987   16.6189 N   0  0  0  0  0  0  0  0  0  0  0  0
    9.8443  -21.3366   18.8673 N   0  0  0  0  0  0  0  0  0  0  0  0
    9.1230  -20.5807   19.8485 C   0  0  0  0  0  0  0  0  0  0  0  0
    9.2894  -19.0792   19.5826 C   0  0  0  0  0  0  0  0  0  0  0  0
    8.5426  -18.2750   20.6017 C   0  0  0  0  0  0  0  0  0  0  0  0
    8.5896  -16.7909   20.3579 C   0  0  2  0  0  0  0  0  0  0  0  0
    9.5563  -16.5977   19.2605 N   0  0  0  0  0  0  0  0  0  0  0  0
    9.0451  -16.0452   21.5613 C   0  0  0  0  0  0  0  0  0  0  0  0
   10.2366  -15.7519   21.7347 O   0  0  0  0  0  0  0  0  0  0  0  0
   11.0137  -22.3088   16.8316 C   0  0  0  0  0  0  0  0  0  0  0  0
    7.8314  -12.2332   25.2160 C   0  0  2  0  0  0  0  0  0  0  0  0
    7.1655  -13.6117   25.5390 C   0  0  0  0  0  0  0  0  0  0  0  0
    5.7467  -13.2044   25.9646 C   0  0  0  0  0  0  0  0  0  0  0  0
    7.2056  -14.3765   24.2723 C   0  0  1  0  0  0  0  0  0  0  0  0
    8.4642  -14.9592   23.7745 N   0  0  0  0  0  0  0  0  0  0  0  0
    8.0785  -15.6699   22.5205 C   0  0  0  0  0  0  0  0  0  0  0  0
    9.1832  -15.9264   24.6040 O   0  0  0  0  0  0  0  0  0  0  0  0
    8.8838  -17.1360   24.5826 N   0  0  0  0  0  0  0  0  0  0  0  0
   10.2609  -15.5423   25.4808 C   0  0  2  0  0  0  0  0  0  0  0  0
   11.0754  -16.5783   26.0360 C   0  0  0  0  0  0  0  0  0  0  0  0
   11.9822  -16.1251   27.1314 C   0  0  0  0  0  0  0  0  0  0  0  0
   11.3369  -15.4211   28.2425 C   0  0  0  0  0  0  0  0  0  0  0  0
   10.8626  -14.1413   28.0949 C   0  0  0  0  0  0  0  0  0  0  0  0
   10.2375  -13.4418   29.1221 C   0  0  0  0  0  0  0  0  0  0  0  0
   10.0992  -14.0886   30.3384 C   0  0  0  0  0  0  0  0  0  0  0  0
   10.5525  -15.3499   30.5271 C   0  0  0  0  0  0  0  0  0  0  0  0
   11.1785  -16.0295   29.4745 C   0  0  0  0  0  0  0  0  0  0  0  0
   10.1421  -17.5790   26.6774 O   0  0  0  0  0  0  0  0  0  0  0  0
   10.6126  -18.6525   27.1513 O   0  0  0  0  0  0  0  0  0  0  0  0
  2  1  1  0
  2  3  2  0
  4  2  1  0
  5  4  1  0
  6  5  1  0
  7  6  1  0
  8  7  1  0
  8  9  1  6
 10  8  1  0
 10 11  2  0
 13 14  1  6
 13 12  1  0
 16 15  1  6
 15 13  1  0
 16 17  1  0
 17 10  1  0
 18 16  1  0
 19 18  2  0
 20 18  1  0
 21 22  1  1
 21 20  1  0
 22 23  1  0
 23 28  2  0
 24 25  2  0
 24 23  1  0
 25 26  1  0
 26 27  2  0
 28 27  1  0
 29 21  1  0
 30 29  2  0
 31 29  1  0
M  END
$$$$
