RLF.pdb
     RDKit          3D

 31 31  0  0  1  0  0  0  0  0999 V2000
   10.7725  -16.2612   16.0510 N   0  0  0  0  0  0  0  0  0  0  0  0
    9.4860  -16.2316   15.4620 C   0  0  0  0  0  0  0  0  0  0  0  0
    9.3693  -15.8900   14.2339 N   0  0  0  0  0  0  0  0  0  0  0  0
    8.3119  -16.5765   16.2213 N   0  0  0  0  0  0  0  0  0  0  0  0
    8.4327  -16.9170   17.6084 C   0  0  0  0  0  0  0  0  0  0  0  0
    8.9223  -18.3634   17.7543 C   0  0  0  0  0  0  0  0  0  0  0  0
   10.0549  -18.4431   18.7309 C   0  0  0  0  0  0  0  0  0  0  0  0
    9.6216  -18.3786   20.1705 C   0  0  2  0  0  0  0  0  0  0  0  0
    8.1662  -18.6192   20.1597 N   0  0  0  0  0  0  0  0  0  0  0  0
    9.9033  -17.0496   20.7756 C   0  0  0  0  0  0  0  0  0  0  0  0
   11.0463  -16.5710   20.7952 O   0  0  0  0  0  0  0  0  0  0  0  0
    8.4475  -15.9113   13.7803 C   0  0  0  0  0  0  0  0  0  0  0  0
    6.1445  -13.1751   19.9615 C   0  0  1  0  0  0  0  0  0  0  0  0
    7.5174  -13.9250   19.9873 C   0  0  0  0  0  0  0  0  0  0  0  0
    8.4796  -12.8779   19.4060 C   0  0  0  0  0  0  0  0  0  0  0  0
    7.7720  -14.2346   21.4122 C   0  0  2  0  0  0  0  0  0  0  0  0
    9.0003  -14.9321   21.8319 N   0  0  0  0  0  0  0  0  0  0  0  0
    8.8260  -16.3290   21.3371 C   0  0  0  0  0  0  0  0  0  0  0  0
    9.3199  -15.0256   23.2565 O   0  0  0  0  0  0  0  0  0  0  0  0
    9.9370  -14.1108   23.8358 N   0  0  0  0  0  0  0  0  0  0  0  0
    8.9468  -16.1632   24.0592 C   0  0  1  0  0  0  0  0  0  0  0  0
    9.1107  -16.0667   25.4765 C   0  0  0  0  0  0  0  0  0  0  0  0
    7.8671  -15.6965   26.2140 C   0  0  0  0  0  0  0  0  0  0  0  0
    7.5894  -14.2615   26.3150 C   0  0  0  0  0  0  0  0  0  0  0  0
    6.3342  -13.7606   26.0739 C   0  0  0  0  0  0  0  0  0  0  0  0
    6.0279  -12.4068   26.1665 C   0  0  0  0  0  0  0  0  0  0  0  0
    7.0534  -11.5465   26.5205 C   0  0  0  0  0  0  0  0  0  0  0  0
    8.3054  -11.9982   26.7668 C   0  0  0  0  0  0  0  0  0  0  0  0
    8.5843  -13.3669   26.6651 C   0  0  0  0  0  0  0  0  0  0  0  0
    9.4757  -17.4461   25.9745 O   0  0  0  0  0  0  0  0  0  0  0  0
    9.6505  -17.6337   27.2125 O   0  0  0  0  0  0  0  0  0  0  0  0
  2  1  1  0
  2  3  2  0
  4  2  1  0
  5  4  1  0
  6  5  1  0
  7  6  1  0
  8  7  1  0
  8  9  1  6
 10  8  1  0
 10 11  2  0
 13 14  1  1
 13 12  1  0
 16 15  1  6
 15 13  1  0
 16 17  1  0
 17 10  1  0
 18 16  1  0
 19 18  2  0
 20 18  1  0
 21 22  1  1
 21 20  1  0
 22 23  1  0
 23 28  2  0
 24 25  2  0
 24 23  1  0
 25 26  1  0
 26 27  2  0
 28 27  1  0
 29 21  1  0
 30 29  2  0
 31 29  1  0
M  END
$$$$
