RLF.pdb
     RDKit          3D

 31 31  0  0  1  0  0  0  0  0999 V2000
    7.3304  -18.5636   26.6326 N   0  0  0  0  0  0  0  0  0  0  0  0
    7.1086  -19.9527   26.4779 C   0  0  0  0  0  0  0  0  0  0  0  0
    7.7162  -20.7719   27.2513 N   0  0  0  0  0  0  0  0  0  0  0  0
    6.2153  -20.4555   25.4663 N   0  0  0  0  0  0  0  0  0  0  0  0
    5.7809  -19.5952   24.4053 C   0  0  0  0  0  0  0  0  0  0  0  0
    6.8575  -19.5197   23.3151 C   0  0  0  0  0  0  0  0  0  0  0  0
    6.4086  -18.6422   22.1876 C   0  0  0  0  0  0  0  0  0  0  0  0
    7.4095  -18.5298   21.0696 C   0  0  2  0  0  0  0  0  0  0  0  0
    8.0780  -19.8430   20.9997 N   0  0  0  0  0  0  0  0  0  0  0  0
    8.4185  -17.4695   21.3330 C   0  0  0  0  0  0  0  0  0  0  0  0
    9.6344  -17.6862   21.2306 O   0  0  0  0  0  0  0  0  0  0  0  0
    7.6342  -21.7840   27.0937 C   0  0  0  0  0  0  0  0  0  0  0  0
    6.7076  -12.3685   20.2580 C   0  0  2  0  0  0  0  0  0  0  0  0
    7.5614  -13.6780   20.1929 C   0  0  0  0  0  0  0  0  0  0  0  0
    8.6192  -13.3334   19.1334 C   0  0  0  0  0  0  0  0  0  0  0  0
    8.1215  -13.8527   21.5519 C   0  0  2  0  0  0  0  0  0  0  0  0
    8.9043  -15.0503   21.9044 N   0  0  0  0  0  0  0  0  0  0  0  0
    7.9587  -16.1877   21.7081 C   0  0  0  0  0  0  0  0  0  0  0  0
    9.4455  -15.1797   23.2575 O   0  0  0  0  0  0  0  0  0  0  0  0
   10.4463  -14.5272   23.6121 N   0  0  0  0  0  0  0  0  0  0  0  0
    8.8627  -16.0563   24.2422 C   0  0  1  0  0  0  0  0  0  0  0  0
    9.3223  -15.9482   25.5921 C   0  0  0  0  0  0  0  0  0  0  0  0
    8.2591  -15.5853   26.5748 C   0  0  0  0  0  0  0  0  0  0  0  0
    7.7687  -14.2066   26.5029 C   0  0  0  0  0  0  0  0  0  0  0  0
    6.4747  -13.9295   26.1376 C   0  0  0  0  0  0  0  0  0  0  0  0
    5.9684  -12.6358   26.0647 C   0  0  0  0  0  0  0  0  0  0  0  0
    6.8291  -11.5984   26.3806 C   0  0  0  0  0  0  0  0  0  0  0  0
    8.1123  -11.8270   26.7456 C   0  0  0  0  0  0  0  0  0  0  0  0
    8.5945  -13.1404   26.8096 C   0  0  0  0  0  0  0  0  0  0  0  0
    9.8002  -17.3202   26.0079 O   0  0  0  0  0  0  0  0  0  0  0  0
   10.3084  -17.4802   27.1544 O   0  0  0  0  0  0  0  0  0  0  0  0
  2  1  1  0
  2  3  2  0
  4  2  1  0
  5  4  1  0
  6  5  1  0
  7  6  1  0
  8  7  1  0
  8  9  1  1
 10  8  1  0
 10 11  2  0
 13 14  1  1
 13 12  1  0
 16 15  1  6
 15 13  1  0
 16 17  1  0
 17 10  1  0
 18 16  1  0
 19 18  2  0
 20 18  1  0
 21 22  1  1
 21 20  1  0
 22 23  1  0
 23 28  2  0
 24 25  2  0
 24 23  1  0
 25 26  1  0
 26 27  2  0
 28 27  1  0
 29 21  1  0
 30 29  2  0
 31 29  1  0
M  END
$$$$
