RLF.pdb
     RDKit          3D

 31 31  0  0  1  0  0  0  0  0999 V2000
   11.9068  -21.3658   17.0085 N   0  0  0  0  0  0  0  0  0  0  0  0
   10.9311  -21.3487   15.9836 C   0  0  0  0  0  0  0  0  0  0  0  0
   10.6110  -22.4463   15.4079 N   0  0  0  0  0  0  0  0  0  0  0  0
   10.2979  -20.1200   15.5794 N   0  0  0  0  0  0  0  0  0  0  0  0
   10.5373  -18.9160   16.3195 C   0  0  0  0  0  0  0  0  0  0  0  0
   10.2624  -19.1514   17.8102 C   0  0  0  0  0  0  0  0  0  0  0  0
   10.4140  -17.8782   18.5840 C   0  0  0  0  0  0  0  0  0  0  0  0
   10.1263  -18.0227   20.0540 C   0  0  2  0  0  0  0  0  0  0  0  0
    8.7278  -18.4835   20.1429 N   0  0  0  0  0  0  0  0  0  0  0  0
   10.2735  -16.7318   20.7775 C   0  0  0  0  0  0  0  0  0  0  0  0
   11.3728  -16.1717   20.8953 O   0  0  0  0  0  0  0  0  0  0  0  0
    9.9753  -22.4365   14.6006 C   0  0  0  0  0  0  0  0  0  0  0  0
    6.1453  -13.2155   20.3456 C   0  0  1  0  0  0  0  0  0  0  0  0
    7.6039  -13.7805   20.3107 C   0  0  0  0  0  0  0  0  0  0  0  0
    8.4160  -12.5748   19.8139 C   0  0  0  0  0  0  0  0  0  0  0  0
    7.9120  -14.1658   21.7063 C   0  0  2  0  0  0  0  0  0  0  0  0
    9.1799  -14.8339   22.0492 N   0  0  0  0  0  0  0  0  0  0  0  0
    9.1178  -16.1441   21.3379 C   0  0  0  0  0  0  0  0  0  0  0  0
    9.4784  -15.1281   23.4508 O   0  0  0  0  0  0  0  0  0  0  0  0
   10.4302  -14.5729   24.0332 N   0  0  0  0  0  0  0  0  0  0  0  0
    8.7024  -16.0629   24.2265 C   0  0  1  0  0  0  0  0  0  0  0  0
    9.0304  -16.2220   25.6093 C   0  0  0  0  0  0  0  0  0  0  0  0
    7.9144  -15.8974   26.5457 C   0  0  0  0  0  0  0  0  0  0  0  0
    7.5046  -14.4913   26.5855 C   0  0  0  0  0  0  0  0  0  0  0  0
    6.2733  -14.0954   26.1253 C   0  0  0  0  0  0  0  0  0  0  0  0
    5.8437  -12.7726   26.1526 C   0  0  0  0  0  0  0  0  0  0  0  0
    6.7162  -11.8321   26.6732 C   0  0  0  0  0  0  0  0  0  0  0  0
    7.9394  -12.1793   27.1376 C   0  0  0  0  0  0  0  0  0  0  0  0
    8.3450  -13.5192   27.0968 C   0  0  0  0  0  0  0  0  0  0  0  0
    9.3232  -17.6883   25.8285 O   0  0  0  0  0  0  0  0  0  0  0  0
    9.5586  -18.1068   26.9981 O   0  0  0  0  0  0  0  0  0  0  0  0
  2  1  1  0
  2  3  2  0
  4  2  1  0
  5  4  1  0
  6  5  1  0
  7  6  1  0
  8  7  1  0
  8  9  1  6
 10  8  1  0
 10 11  2  0
 13 14  1  1
 13 12  1  0
 16 15  1  6
 15 13  1  0
 16 17  1  0
 17 10  1  0
 18 16  1  0
 19 18  2  0
 20 18  1  0
 21 22  1  1
 21 20  1  0
 22 23  1  0
 23 28  2  0
 24 25  2  0
 24 23  1  0
 25 26  1  0
 26 27  2  0
 28 27  1  0
 29 21  1  0
 30 29  2  0
 31 29  1  0
M  END
$$$$
