RLF.pdb
     RDKit          3D

 31 31  0  0  1  0  0  0  0  0999 V2000
   10.3241  -16.0550   15.4846 N   0  0  0  0  0  0  0  0  0  0  0  0
   11.3509  -16.6916   14.7477 C   0  0  0  0  0  0  0  0  0  0  0  0
   11.4914  -16.4152   13.5057 N   0  0  0  0  0  0  0  0  0  0  0  0
   12.2342  -17.6429   15.3713 N   0  0  0  0  0  0  0  0  0  0  0  0
   11.7003  -18.6521   16.2377 C   0  0  0  0  0  0  0  0  0  0  0  0
   10.6422  -18.0424   17.1661 C   0  0  0  0  0  0  0  0  0  0  0  0
   11.2587  -17.6124   18.4614 C   0  0  0  0  0  0  0  0  0  0  0  0
   10.4552  -17.9971   19.6741 C   0  0  2  0  0  0  0  0  0  0  0  0
    9.1309  -18.3991   19.1636 N   0  0  0  0  0  0  0  0  0  0  0  0
   10.3013  -16.8607   20.6210 C   0  0  0  0  0  0  0  0  0  0  0  0
   11.2801  -16.3189   21.1542 O   0  0  0  0  0  0  0  0  0  0  0  0
   12.1757  -16.9313   12.9389 C   0  0  0  0  0  0  0  0  0  0  0  0
    5.9874  -13.6418   19.6495 C   0  0  1  0  0  0  0  0  0  0  0  0
    7.4598  -14.1333   19.8462 C   0  0  0  0  0  0  0  0  0  0  0  0
    8.2749  -12.8599   19.5741 C   0  0  0  0  0  0  0  0  0  0  0  0
    7.5378  -14.5961   21.2500 C   0  0  2  0  0  0  0  0  0  0  0  0
    8.7660  -15.2137   21.7807 N   0  0  0  0  0  0  0  0  0  0  0  0
    8.9967  -16.4009   20.9067 C   0  0  0  0  0  0  0  0  0  0  0  0
    8.7863  -15.6958   23.1618 O   0  0  0  0  0  0  0  0  0  0  0  0
    7.8767  -16.4275   23.5983 N   0  0  0  0  0  0  0  0  0  0  0  0
    9.8417  -15.3568   24.0832 C   0  0  2  0  0  0  0  0  0  0  0  0
    9.5822  -15.4997   25.4823 C   0  0  0  0  0  0  0  0  0  0  0  0
    8.1484  -15.3300   25.8607 C   0  0  0  0  0  0  0  0  0  0  0  0
    7.7206  -13.9562   26.1366 C   0  0  0  0  0  0  0  0  0  0  0  0
    6.4179  -13.5652   25.9497 C   0  0  0  0  0  0  0  0  0  0  0  0
    5.9702  -12.2735   26.2072 C   0  0  0  0  0  0  0  0  0  0  0  0
    6.9005  -11.3600   26.6730 C   0  0  0  0  0  0  0  0  0  0  0  0
    8.1947  -11.7034   26.8712 C   0  0  0  0  0  0  0  0  0  0  0  0
    8.6168  -13.0116   26.6027 C   0  0  0  0  0  0  0  0  0  0  0  0
    9.9282  -16.9233   25.8531 O   0  0  0  0  0  0  0  0  0  0  0  0
   10.2626  -17.7379   24.9459 O   0  0  0  0  0  0  0  0  0  0  0  0
  2  1  1  0
  2  3  2  0
  4  2  1  0
  5  4  1  0
  6  5  1  0
  7  6  1  0
  8  7  1  0
  8  9  1  6
 10  8  1  0
 10 11  2  0
 13 14  1  1
 13 12  1  0
 16 15  1  6
 15 13  1  0
 16 17  1  0
 17 10  1  0
 18 16  1  0
 19 18  2  0
 20 18  1  0
 21 22  1  6
 21 20  1  0
 22 23  1  0
 23 28  2  0
 24 25  2  0
 24 23  1  0
 25 26  1  0
 26 27  2  0
 28 27  1  0
 29 21  1  0
 30 29  2  0
 31 29  1  0
M  END
$$$$
