RLF.pdb
     RDKit          3D

 31 31  0  0  1  0  0  0  0  0999 V2000
    7.8997  -12.8668   14.8122 N   0  0  0  0  0  0  0  0  0  0  0  0
    8.0557  -13.6562   15.9763 C   0  0  0  0  0  0  0  0  0  0  0  0
    7.8797  -14.9219   15.9006 N   0  0  0  0  0  0  0  0  0  0  0  0
    8.4057  -13.0589   17.2391 N   0  0  0  0  0  0  0  0  0  0  0  0
    8.5990  -13.8878   18.3923 C   0  0  0  0  0  0  0  0  0  0  0  0
    7.3785  -13.7958   19.3170 C   0  0  0  0  0  0  0  0  0  0  0  0
    7.8057  -13.6355   20.7434 C   0  0  0  0  0  0  0  0  0  0  0  0
    8.3313  -14.9005   21.3661 C   0  0  2  0  0  0  0  0  0  0  0  0
    7.1891  -15.8334   21.3979 N   0  0  0  0  0  0  0  0  0  0  0  0
    8.8286  -14.6729   22.7491 C   0  0  0  0  0  0  0  0  0  0  0  0
    9.9399  -14.1702   22.9682 O   0  0  0  0  0  0  0  0  0  0  0  0
    7.9611  -15.5031   16.7441 C   0  0  0  0  0  0  0  0  0  0  0  0
    5.8968  -12.4876   26.8291 C   0  0  1  0  0  0  0  0  0  0  0  0
    7.1363  -12.7718   25.9175 C   0  0  0  0  0  0  0  0  0  0  0  0
    8.2648  -12.0294   26.6491 C   0  0  0  0  0  0  0  0  0  0  0  0
    7.2990  -14.2431   25.9191 C   0  0  2  0  0  0  0  0  0  0  0  0
    8.4413  -14.8832   25.2433 N   0  0  0  0  0  0  0  0  0  0  0  0
    7.9969  -15.0459   23.8282 C   0  0  0  0  0  0  0  0  0  0  0  0
    8.8970  -16.1975   25.6965 O   0  0  0  0  0  0  0  0  0  0  0  0
    8.1193  -17.1710   25.7230 N   0  0  0  0  0  0  0  0  0  0  0  0
   10.2496  -16.4383   26.1328 C   0  0  1  0  0  0  0  0  0  0  0  0
   10.5946  -17.7625   26.5483 C   0  0  0  0  0  0  0  0  0  0  0  0
   11.7152  -18.3753   25.7761 C   0  0  0  0  0  0  0  0  0  0  0  0
   11.5034  -18.4938   24.3312 C   0  0  0  0  0  0  0  0  0  0  0  0
   12.1488  -17.6657   23.4468 C   0  0  0  0  0  0  0  0  0  0  0  0
   11.9811  -17.7508   22.0684 C   0  0  0  0  0  0  0  0  0  0  0  0
   11.1190  -18.7241   21.5926 C   0  0  0  0  0  0  0  0  0  0  0  0
   10.4625  -19.5613   22.4295 C   0  0  0  0  0  0  0  0  0  0  0  0
   10.6508  -19.4516   23.8130 C   0  0  0  0  0  0  0  0  0  0  0  0
   11.0958  -17.6633   27.9705 O   0  0  0  0  0  0  0  0  0  0  0  0
   11.4381  -18.7148   28.5834 O   0  0  0  0  0  0  0  0  0  0  0  0
  2  1  1  0
  2  3  2  0
  4  2  1  0
  5  4  1  0
  6  5  1  0
  7  6  1  0
  8  7  1  0
  8  9  1  1
 10  8  1  0
 10 11  2  0
 13 14  1  1
 13 12  1  0
 16 15  1  6
 15 13  1  0
 16 17  1  0
 17 10  1  0
 18 16  1  0
 19 18  2  0
 20 18  1  0
 21 22  1  1
 21 20  1  0
 22 23  1  0
 23 28  2  0
 24 25  2  0
 24 23  1  0
 25 26  1  0
 26 27  2  0
 28 27  1  0
 29 21  1  0
 30 29  2  0
 31 29  1  0
M  END
$$$$
