RLF.pdb
     RDKit          3D

 31 31  0  0  1  0  0  0  0  0999 V2000
    3.4767  -23.3925   19.7393 N   0  0  0  0  0  0  0  0  0  0  0  0
    4.5672  -24.2475   20.0266 C   0  0  0  0  0  0  0  0  0  0  0  0
    5.2670  -24.7129   19.0611 N   0  0  0  0  0  0  0  0  0  0  0  0
    4.8980  -24.6015   21.3828 N   0  0  0  0  0  0  0  0  0  0  0  0
    5.0203  -23.5780   22.3787 C   0  0  0  0  0  0  0  0  0  0  0  0
    5.3151  -22.2281   21.7124 C   0  0  0  0  0  0  0  0  0  0  0  0
    5.6013  -21.1801   22.7432 C   0  0  0  0  0  0  0  0  0  0  0  0
    6.9372  -20.5087   22.5724 C   0  0  2  0  0  0  0  0  0  0  0  0
    7.6871  -20.7929   23.8105 N   0  0  0  0  0  0  0  0  0  0  0  0
    6.8007  -19.0381   22.3979 C   0  0  0  0  0  0  0  0  0  0  0  0
    6.1995  -18.5491   21.4308 O   0  0  0  0  0  0  0  0  0  0  0  0
    6.0831  -25.3057   19.2573 C   0  0  0  0  0  0  0  0  0  0  0  0
    7.5420  -16.1788   27.0141 C   0  0  1  0  0  0  0  0  0  0  0  0
    7.0355  -16.9617   25.7577 C   0  0  0  0  0  0  0  0  0  0  0  0
    5.5096  -16.9137   25.9284 C   0  0  0  0  0  0  0  0  0  0  0  0
    7.5239  -16.1939   24.5901 C   0  0  2  0  0  0  0  0  0  0  0  0
    7.3624  -16.7089   23.2190 N   0  0  0  0  0  0  0  0  0  0  0  0
    7.3780  -18.1932   23.3715 C   0  0  0  0  0  0  0  0  0  0  0  0
    8.3654  -16.3779   22.2067 O   0  0  0  0  0  0  0  0  0  0  0  0
    8.0320  -16.1305   21.0316 N   0  0  0  0  0  0  0  0  0  0  0  0
    9.7746  -16.3210   22.5047 C   0  0  1  0  0  0  0  0  0  0  0  0
   10.6606  -15.8758   21.4743 C   0  0  0  0  0  0  0  0  0  0  0  0
   10.6567  -14.3991   21.2576 C   0  0  0  0  0  0  0  0  0  0  0  0
    9.4037  -13.8326   20.7519 C   0  0  0  0  0  0  0  0  0  0  0  0
    8.5653  -13.1162   21.5695 C   0  0  0  0  0  0  0  0  0  0  0  0
    7.3715  -12.5559   21.1266 C   0  0  0  0  0  0  0  0  0  0  0  0
    7.0373  -12.7431   19.7961 C   0  0  0  0  0  0  0  0  0  0  0  0
    7.8351  -13.4427   18.9556 C   0  0  0  0  0  0  0  0  0  0  0  0
    9.0310  -13.9959   19.4301 C   0  0  0  0  0  0  0  0  0  0  0  0
   12.0643  -16.2109   21.9226 O   0  0  0  0  0  0  0  0  0  0  0  0
   12.2539  -16.6566   23.0905 O   0  0  0  0  0  0  0  0  0  0  0  0
  2  1  1  0
  2  3  2  0
  4  2  1  0
  5  4  1  0
  6  5  1  0
  7  6  1  0
  8  7  1  0
  8  9  1  1
 10  8  1  0
 10 11  2  0
 13 14  1  6
 13 12  1  0
 16 15  1  1
 15 13  1  0
 16 17  1  0
 17 10  1  0
 18 16  1  0
 19 18  2  0
 20 18  1  0
 21 22  1  6
 21 20  1  0
 22 23  1  0
 23 28  2  0
 24 25  2  0
 24 23  1  0
 25 26  1  0
 26 27  2  0
 28 27  1  0
 29 21  1  0
 30 29  2  0
 31 29  1  0
M  END
$$$$
