RLF.pdb
     RDKit          3D

 31 31  0  0  1  0  0  0  0  0999 V2000
    7.2846  -18.3632   16.1391 N   0  0  0  0  0  0  0  0  0  0  0  0
    8.6607  -18.6103   16.3582 C   0  0  0  0  0  0  0  0  0  0  0  0
    9.4890  -18.4230   15.4004 N   0  0  0  0  0  0  0  0  0  0  0  0
    9.1400  -19.0695   17.6363 N   0  0  0  0  0  0  0  0  0  0  0  0
    8.3863  -18.7922   18.8235 C   0  0  0  0  0  0  0  0  0  0  0  0
    7.9761  -17.3144   18.8530 C   0  0  0  0  0  0  0  0  0  0  0  0
    7.2236  -16.9986   20.1087 C   0  0  0  0  0  0  0  0  0  0  0  0
    8.0019  -17.2693   21.3678 C   0  0  2  0  0  0  0  0  0  0  0  0
    7.0815  -18.0055   22.2548 N   0  0  0  0  0  0  0  0  0  0  0  0
    8.4366  -16.0118   22.0324 C   0  0  0  0  0  0  0  0  0  0  0  0
    9.2213  -15.2232   21.4865 O   0  0  0  0  0  0  0  0  0  0  0  0
   10.4930  -18.5815   15.5512 C   0  0  0  0  0  0  0  0  0  0  0  0
    7.0666  -11.4996   24.8561 C   0  0  2  0  0  0  0  0  0  0  0  0
    6.9505  -12.8952   25.5538 C   0  0  0  0  0  0  0  0  0  0  0  0
    5.5722  -12.8169   26.2276 C   0  0  0  0  0  0  0  0  0  0  0  0
    7.0179  -13.8906   24.4603 C   0  0  1  0  0  0  0  0  0  0  0  0
    8.3040  -14.4755   24.0416 N   0  0  0  0  0  0  0  0  0  0  0  0
    7.9298  -15.7265   23.3196 C   0  0  0  0  0  0  0  0  0  0  0  0
    9.2847  -14.8527   25.0596 O   0  0  0  0  0  0  0  0  0  0  0  0
    9.7011  -14.0195   25.8877 N   0  0  0  0  0  0  0  0  0  0  0  0
    9.8185  -16.1878   25.1612 C   0  0  1  0  0  0  0  0  0  0  0  0
   11.2385  -16.3482   25.1084 C   0  0  0  0  0  0  0  0  0  0  0  0
   11.9792  -15.6092   26.1728 C   0  0  0  0  0  0  0  0  0  0  0  0
   11.2757  -15.4546   27.4486 C   0  0  0  0  0  0  0  0  0  0  0  0
   10.9115  -16.5459   28.1976 C   0  0  0  0  0  0  0  0  0  0  0  0
   10.2497  -16.4415   29.4168 C   0  0  0  0  0  0  0  0  0  0  0  0
    9.9575  -15.1677   29.8736 C   0  0  0  0  0  0  0  0  0  0  0  0
   10.2984  -14.0647   29.1669 C   0  0  0  0  0  0  0  0  0  0  0  0
   10.9637  -14.2008   27.9420 C   0  0  0  0  0  0  0  0  0  0  0  0
   11.5282  -17.8098   25.3603 O   0  0  0  0  0  0  0  0  0  0  0  0
   10.5715  -18.6004   25.6011 O   0  0  0  0  0  0  0  0  0  0  0  0
  2  1  1  0
  2  3  2  0
  4  2  1  0
  5  4  1  0
  6  5  1  0
  7  6  1  0
  8  7  1  0
  8  9  1  1
 10  8  1  0
 10 11  2  0
 13 14  1  6
 13 12  1  0
 16 15  1  6
 15 13  1  0
 16 17  1  0
 17 10  1  0
 18 16  1  0
 19 18  2  0
 20 18  1  0
 21 22  1  6
 21 20  1  0
 22 23  1  0
 23 28  2  0
 24 25  2  0
 24 23  1  0
 25 26  1  0
 26 27  2  0
 28 27  1  0
 29 21  1  0
 30 29  2  0
 31 29  1  0
M  END
$$$$
