FNA.pdb
     RDKit          3D

 25 25  0  0  1  0  0  0  0  0999 V2000
   28.3175  -22.0061  -11.1282 N   0  0  0  0  0  0  0  0  0  0  0  0
   27.1105  -21.3843  -10.7050 C   0  0  1  0  0  0  0  0  0  0  0  0
   27.4399  -20.0047  -10.1784 C   0  0  0  0  0  0  0  0  0  0  0  0
   27.6405  -20.0171   -8.7227 C   0  0  0  0  0  0  0  0  0  0  0  0
   28.9139  -20.0734   -8.2000 C   0  0  0  0  0  0  0  0  0  0  0  0
   29.0948  -20.0848   -6.8369 C   0  0  0  0  0  0  0  0  0  0  0  0
   27.9834  -20.0391   -6.0302 C   0  0  0  0  0  0  0  0  0  0  0  0
   26.6979  -19.9823   -6.5422 C   0  0  0  0  0  0  0  0  0  0  0  0
   26.5196  -19.9710   -7.9100 C   0  0  0  0  0  0  0  0  0  0  0  0
   26.0299  -21.3801  -11.6886 C   0  0  0  0  0  0  0  0  0  0  0  0
   26.3291  -21.4167  -12.9103 O   0  0  0  0  0  0  0  0  0  0  0  0
   21.2217  -23.3078  -13.6599 N   0  0  0  0  0  0  0  0  0  0  0  0
   21.2495  -22.2170  -12.7592 C   0  0  0  0  0  0  0  0  0  0  0  0
   20.3242  -21.3731  -12.8506 O   0  0  0  0  0  0  0  0  0  0  0  0
   22.3480  -22.1432  -11.7852 C   0  0  0  0  0  0  0  0  0  0  0  0
   23.5798  -21.4790  -12.2989 C   0  0  2  0  0  0  0  0  0  0  0  0
   24.6494  -21.3378  -11.3914 N   0  0  0  0  0  0  0  0  0  0  0  0
   23.2271  -20.1672  -12.8855 C   0  0  0  0  0  0  0  0  0  0  0  0
   22.9433  -19.1545  -12.2015 O   0  0  0  0  0  0  0  0  0  0  0  0
   23.7124  -18.7728  -16.2575 C   0  0  0  0  0  0  0  0  0  0  0  0
   22.8752  -18.8122  -14.9877 C   0  0  2  0  0  0  0  0  0  0  0  0
   23.2053  -20.0353  -14.2951 N   0  0  0  0  0  0  0  0  0  0  0  0
   21.4395  -18.8468  -15.3589 C   0  0  0  0  0  0  0  0  0  0  0  0
   20.6321  -17.7199  -15.3446 O   0  0  0  0  0  0  0  0  0  0  0  0
   20.8838  -19.9290  -15.7105 O   0  0  0  0  0  0  0  0  0  0  0  0
  2  1  1  6
  2 10  1  0
  3  2  1  0
  4  3  1  0
  5  4  2  0
  6  5  1  0
  7  6  2  0
  7  8  1  0
  8  9  2  0
  9  4  1  0
 10 11  2  0
 10 17  1  0
 13 12  1  0
 14 13  2  0
 15 13  1  0
 16 15  1  1
 17 16  1  0
 18 22  1  0
 18 16  1  0
 19 18  2  0
 21 20  1  6
 21 23  1  0
 21 22  1  0
 23 24  1  0
 25 23  2  0
M  END
$$$$
