FNA.pdb
     RDKit          3D

 25 25  0  0  1  0  0  0  0  0999 V2000
   18.1900  -12.2929  -16.7357 N   0  0  0  0  0  0  0  0  0  0  0  0
   18.2698  -11.0003  -17.3232 C   0  0  1  0  0  0  0  0  0  0  0  0
   17.0602  -10.8002  -18.2099 C   0  0  0  0  0  0  0  0  0  0  0  0
   17.1117  -11.6672  -19.3953 C   0  0  0  0  0  0  0  0  0  0  0  0
   16.3021  -12.7789  -19.4753 C   0  0  0  0  0  0  0  0  0  0  0  0
   16.3551  -13.5861  -20.5873 C   0  0  0  0  0  0  0  0  0  0  0  0
   17.2263  -13.2520  -21.5959 C   0  0  0  0  0  0  0  0  0  0  0  0
   18.0457  -12.1376  -21.5286 C   0  0  0  0  0  0  0  0  0  0  0  0
   17.9903  -11.3297  -20.4118 C   0  0  0  0  0  0  0  0  0  0  0  0
   18.4833   -9.8989  -16.3869 C   0  0  0  0  0  0  0  0  0  0  0  0
   17.7193   -9.7991  -15.3921 O   0  0  0  0  0  0  0  0  0  0  0  0
   20.5303  -10.0431  -14.0837 N   0  0  0  0  0  0  0  0  0  0  0  0
   21.4865   -9.0087  -14.2177 C   0  0  0  0  0  0  0  0  0  0  0  0
   22.5956   -9.1754  -13.6532 O   0  0  0  0  0  0  0  0  0  0  0  0
   21.1232   -7.8189  -15.0006 C   0  0  0  0  0  0  0  0  0  0  0  0
   19.7543   -7.8659  -15.5889 C   0  0  2  0  0  0  0  0  0  0  0  0
   19.4892   -8.9128  -16.4951 N   0  0  0  0  0  0  0  0  0  0  0  0
   19.4351   -6.5594  -16.2056 C   0  0  0  0  0  0  0  0  0  0  0  0
   19.7547   -6.2486  -17.3783 O   0  0  0  0  0  0  0  0  0  0  0  0
   17.2945   -3.7628  -14.9218 C   0  0  0  0  0  0  0  0  0  0  0  0
   18.2226   -4.3562  -15.9713 C   0  0  2  0  0  0  0  0  0  0  0  0
   18.7306   -5.5989  -15.4401 N   0  0  0  0  0  0  0  0  0  0  0  0
   19.3602   -3.4291  -16.1869 C   0  0  0  0  0  0  0  0  0  0  0  0
   19.2597   -2.2830  -16.9604 O   0  0  0  0  0  0  0  0  0  0  0  0
   20.4909   -3.6528  -15.6623 O   0  0  0  0  0  0  0  0  0  0  0  0
  2  1  1  1
  2 10  1  0
  3  2  1  0
  4  3  1  0
  5  4  2  0
  6  5  1  0
  7  6  2  0
  7  8  1  0
  8  9  2  0
  9  4  1  0
 10 11  2  0
 10 17  1  0
 13 12  1  0
 14 13  2  0
 15 13  1  0
 16 15  1  6
 17 16  1  0
 18 22  1  0
 18 16  1  0
 19 18  2  0
 21 20  1  1
 21 23  1  0
 21 22  1  0
 23 24  1  0
 25 23  2  0
M  END
$$$$
