FNA.pdb
     RDKit          3D

 25 25  0  0  1  0  0  0  0  0999 V2000
   27.4915  -21.1754  -16.0747 N   0  0  0  0  0  0  0  0  0  0  0  0
   26.6801  -20.2807  -15.3240 C   0  0  1  0  0  0  0  0  0  0  0  0
   26.0937  -19.2556  -16.2698 C   0  0  0  0  0  0  0  0  0  0  0  0
   27.1447  -18.4778  -16.9406 C   0  0  0  0  0  0  0  0  0  0  0  0
   28.1891  -17.9527  -16.2115 C   0  0  0  0  0  0  0  0  0  0  0  0
   29.1693  -17.2259  -16.8453 C   0  0  0  0  0  0  0  0  0  0  0  0
   29.0731  -17.0451  -18.2040 C   0  0  0  0  0  0  0  0  0  0  0  0
   28.0289  -17.5672  -18.9489 C   0  0  0  0  0  0  0  0  0  0  0  0
   27.0470  -18.2960  -18.3104 C   0  0  0  0  0  0  0  0  0  0  0  0
   25.6774  -20.9121  -14.4688 C   0  0  0  0  0  0  0  0  0  0  0  0
   25.1625  -21.9965  -14.8461 O   0  0  0  0  0  0  0  0  0  0  0  0
   26.3313  -21.9369  -10.9232 N   0  0  0  0  0  0  0  0  0  0  0  0
   25.4348  -21.0808  -10.2410 C   0  0  0  0  0  0  0  0  0  0  0  0
   25.7081  -20.7953   -9.0492 O   0  0  0  0  0  0  0  0  0  0  0  0
   24.2544  -20.5863  -10.9641 C   0  0  0  0  0  0  0  0  0  0  0  0
   24.2176  -20.9598  -12.4068 C   0  0  2  0  0  0  0  0  0  0  0  0
   25.2208  -20.4090  -13.2302 N   0  0  0  0  0  0  0  0  0  0  0  0
   22.8781  -20.6636  -12.9610 C   0  0  0  0  0  0  0  0  0  0  0  0
   22.4398  -19.5009  -13.1338 O   0  0  0  0  0  0  0  0  0  0  0  0
   20.3157  -22.9384  -14.4672 C   0  0  0  0  0  0  0  0  0  0  0  0
   20.7226  -21.5867  -13.8997 C   0  0  2  0  0  0  0  0  0  0  0  0
   22.0356  -21.7435  -13.3198 N   0  0  0  0  0  0  0  0  0  0  0  0
   19.7698  -21.2084  -12.8276 C   0  0  0  0  0  0  0  0  0  0  0  0
   19.9717  -21.5306  -11.4944 O   0  0  0  0  0  0  0  0  0  0  0  0
   18.7130  -20.5632  -13.0936 O   0  0  0  0  0  0  0  0  0  0  0  0
  2  1  1  6
  2 10  1  0
  3  2  1  0
  4  3  1  0
  5  4  2  0
  6  5  1  0
  7  6  2  0
  7  8  1  0
  8  9  2  0
  9  4  1  0
 10 11  2  0
 10 17  1  0
 13 12  1  0
 14 13  2  0
 15 13  1  0
 16 15  1  1
 17 16  1  0
 18 22  1  0
 18 16  1  0
 19 18  2  0
 21 20  1  1
 21 23  1  0
 21 22  1  0
 23 24  1  0
 25 23  2  0
M  END
$$$$
