FNA.pdb
     RDKit          3D

 25 25  0  0  1  0  0  0  0  0999 V2000
   24.1429  -13.3499  -18.5691 N   0  0  0  0  0  0  0  0  0  0  0  0
   23.9341  -12.6214  -17.3657 C   0  0  1  0  0  0  0  0  0  0  0  0
   25.2729  -12.1222  -16.8680 C   0  0  0  0  0  0  0  0  0  0  0  0
   26.1751  -13.2351  -16.5406 C   0  0  0  0  0  0  0  0  0  0  0  0
   26.0213  -13.9258  -15.3585 C   0  0  0  0  0  0  0  0  0  0  0  0
   26.8689  -14.9661  -15.0581 C   0  0  0  0  0  0  0  0  0  0  0  0
   27.8550  -15.2864  -15.9598 C   0  0  0  0  0  0  0  0  0  0  0  0
   28.0208  -14.6006  -17.1514 C   0  0  0  0  0  0  0  0  0  0  0  0
   27.1690  -13.5575  -17.4501 C   0  0  0  0  0  0  0  0  0  0  0  0
   22.9206  -11.5711  -17.4372 C   0  0  0  0  0  0  0  0  0  0  0  0
   22.5414  -11.1781  -18.5708 O   0  0  0  0  0  0  0  0  0  0  0  0
   18.1799   -9.3035  -17.0536 N   0  0  0  0  0  0  0  0  0  0  0  0
   18.9167   -9.3779  -15.8479 C   0  0  0  0  0  0  0  0  0  0  0  0
   18.6135   -8.5668  -14.9387 O   0  0  0  0  0  0  0  0  0  0  0  0
   19.9780  -10.3891  -15.7392 C   0  0  0  0  0  0  0  0  0  0  0  0
   21.2737   -9.9876  -16.3577 C   0  0  2  0  0  0  0  0  0  0  0  0
   22.3122  -10.9406  -16.3290 N   0  0  0  0  0  0  0  0  0  0  0  0
   21.7309   -8.7113  -15.7650 C   0  0  0  0  0  0  0  0  0  0  0  0
   22.3205   -8.6306  -14.6606 O   0  0  0  0  0  0  0  0  0  0  0  0
   21.6546   -5.2299  -17.1705 C   0  0  0  0  0  0  0  0  0  0  0  0
   21.9983   -6.2179  -16.0657 C   0  0  2  0  0  0  0  0  0  0  0  0
   21.4958   -7.5084  -16.4739 N   0  0  0  0  0  0  0  0  0  0  0  0
   21.3044   -5.8079  -14.8205 C   0  0  0  0  0  0  0  0  0  0  0  0
   20.2096   -6.4888  -14.3110 O   0  0  0  0  0  0  0  0  0  0  0  0
   21.6927   -4.7991  -14.1607 O   0  0  0  0  0  0  0  0  0  0  0  0
  2  1  1  6
  2 10  1  0
  3  2  1  0
  4  3  1  0
  5  4  2  0
  6  5  1  0
  7  6  2  0
  7  8  1  0
  8  9  2  0
  9  4  1  0
 10 11  2  0
 10 17  1  0
 13 12  1  0
 14 13  2  0
 15 13  1  0
 16 15  1  1
 17 16  1  0
 18 22  1  0
 18 16  1  0
 19 18  2  0
 21 20  1  6
 21 23  1  0
 21 22  1  0
 23 24  1  0
 25 23  2  0
M  END
$$$$
