FNA.pdb
     RDKit          3D

 25 25  0  0  1  0  0  0  0  0999 V2000
   28.2624  -21.2580   -9.1542 N   0  0  0  0  0  0  0  0  0  0  0  0
   26.8683  -21.0137   -9.0159 C   0  0  1  0  0  0  0  0  0  0  0  0
   26.6806  -19.6997   -8.2896 C   0  0  0  0  0  0  0  0  0  0  0  0
   27.2568  -19.7437   -6.9384 C   0  0  0  0  0  0  0  0  0  0  0  0
   26.8524  -20.7110   -6.0448 C   0  0  0  0  0  0  0  0  0  0  0  0
   27.3954  -20.7467   -4.7820 C   0  0  0  0  0  0  0  0  0  0  0  0
   28.3367  -19.8028   -4.4489 C   0  0  0  0  0  0  0  0  0  0  0  0
   28.7523  -18.8250   -5.3372 C   0  0  0  0  0  0  0  0  0  0  0  0
   28.2057  -18.7917   -6.6034 C   0  0  0  0  0  0  0  0  0  0  0  0
   26.0912  -21.1031  -10.2502 C   0  0  0  0  0  0  0  0  0  0  0  0
   26.7071  -21.1343  -11.3470 O   0  0  0  0  0  0  0  0  0  0  0  0
   20.4737  -20.7108  -10.9916 N   0  0  0  0  0  0  0  0  0  0  0  0
   21.6606  -21.2313  -10.4237 C   0  0  0  0  0  0  0  0  0  0  0  0
   21.8659  -20.9968   -9.2073 O   0  0  0  0  0  0  0  0  0  0  0  0
   22.5665  -22.0044  -11.2852 C   0  0  0  0  0  0  0  0  0  0  0  0
   23.9047  -21.3789  -11.4862 C   0  0  2  0  0  0  0  0  0  0  0  0
   24.6820  -21.1592  -10.3308 N   0  0  0  0  0  0  0  0  0  0  0  0
   23.7536  -20.1211  -12.2506 C   0  0  0  0  0  0  0  0  0  0  0  0
   23.6137  -18.9954  -11.7146 O   0  0  0  0  0  0  0  0  0  0  0  0
   24.3545  -19.3071  -15.8094 C   0  0  0  0  0  0  0  0  0  0  0  0
   23.5918  -19.0295  -14.5225 C   0  0  2  0  0  0  0  0  0  0  0  0
   23.7660  -20.1782  -13.6653 N   0  0  0  0  0  0  0  0  0  0  0  0
   22.1499  -18.8850  -14.8394 C   0  0  0  0  0  0  0  0  0  0  0  0
   21.5950  -17.6978  -15.2914 O   0  0  0  0  0  0  0  0  0  0  0  0
   21.3533  -19.8604  -14.7067 O   0  0  0  0  0  0  0  0  0  0  0  0
  2  1  1  6
  2 10  1  0
  3  2  1  0
  4  3  1  0
  5  4  2  0
  6  5  1  0
  7  6  2  0
  7  8  1  0
  8  9  2  0
  9  4  1  0
 10 11  2  0
 10 17  1  0
 13 12  1  0
 14 13  2  0
 15 13  1  0
 16 15  1  1
 17 16  1  0
 18 22  1  0
 18 16  1  0
 19 18  2  0
 21 20  1  6
 21 23  1  0
 21 22  1  0
 23 24  1  0
 25 23  2  0
M  END
$$$$
