FNA.pdb
     RDKit          3D

 25 25  0  0  1  0  0  0  0  0999 V2000
   24.6051   -9.9537  -18.4290 N   0  0  0  0  0  0  0  0  0  0  0  0
   24.0779   -9.4665  -17.2014 C   0  0  1  0  0  0  0  0  0  0  0  0
   25.1050   -8.5556  -16.5654 C   0  0  0  0  0  0  0  0  0  0  0  0
   26.3842   -9.2483  -16.3571 C   0  0  0  0  0  0  0  0  0  0  0  0
   27.4868   -8.9062  -17.1090 C   0  0  0  0  0  0  0  0  0  0  0  0
   28.6808   -9.5582  -16.9093 C   0  0  0  0  0  0  0  0  0  0  0  0
   28.7352  -10.5432  -15.9527 C   0  0  0  0  0  0  0  0  0  0  0  0
   27.6348  -10.8969  -15.1900 C   0  0  0  0  0  0  0  0  0  0  0  0
   26.4382  -10.2411  -15.3926 C   0  0  0  0  0  0  0  0  0  0  0  0
   22.7497   -8.8631  -17.2857 C   0  0  0  0  0  0  0  0  0  0  0  0
   22.4395   -8.2368  -18.3321 O   0  0  0  0  0  0  0  0  0  0  0  0
   19.5964  -10.8799  -17.0978 N   0  0  0  0  0  0  0  0  0  0  0  0
   19.0432  -10.3680  -15.9003 C   0  0  0  0  0  0  0  0  0  0  0  0
   18.2540  -11.1125  -15.2682 O   0  0  0  0  0  0  0  0  0  0  0  0
   19.4241   -9.0124  -15.4785 C   0  0  0  0  0  0  0  0  0  0  0  0
   20.4598   -8.3708  -16.3376 C   0  0  2  0  0  0  0  0  0  0  0  0
   21.7581   -8.9173  -16.2810 N   0  0  0  0  0  0  0  0  0  0  0  0
   20.5014   -6.9178  -16.0615 C   0  0  0  0  0  0  0  0  0  0  0  0
   21.0041   -6.4223  -15.0243 O   0  0  0  0  0  0  0  0  0  0  0  0
   19.3688   -4.0088  -18.1494 C   0  0  0  0  0  0  0  0  0  0  0  0
   19.9154   -4.5928  -16.8553 C   0  0  2  0  0  0  0  0  0  0  0  0
   19.9466   -6.0277  -17.0126 N   0  0  0  0  0  0  0  0  0  0  0  0
   18.9903   -4.2545  -15.7462 C   0  0  0  0  0  0  0  0  0  0  0  0
   19.1502   -3.1307  -14.9503 O   0  0  0  0  0  0  0  0  0  0  0  0
   17.9981   -4.9941  -15.4775 O   0  0  0  0  0  0  0  0  0  0  0  0
  2  1  1  6
  2 10  1  0
  3  2  1  0
  4  3  1  0
  5  4  2  0
  6  5  1  0
  7  6  2  0
  7  8  1  0
  8  9  2  0
  9  4  1  0
 10 11  2  0
 10 17  1  0
 13 12  1  0
 14 13  2  0
 15 13  1  0
 16 15  1  1
 17 16  1  0
 18 22  1  0
 18 16  1  0
 19 18  2  0
 21 20  1  6
 21 23  1  0
 21 22  1  0
 23 24  1  0
 25 23  2  0
M  END
$$$$
