FNA.pdb
     RDKit          3D

 25 25  0  0  1  0  0  0  0  0999 V2000
   21.9010  -18.6680  -16.4478 N   0  0  0  0  0  0  0  0  0  0  0  0
   22.1673  -20.0533  -16.6281 C   0  0  1  0  0  0  0  0  0  0  0  0
   23.6241  -20.2177  -17.0022 C   0  0  0  0  0  0  0  0  0  0  0  0
   23.9640  -19.4384  -18.2008 C   0  0  0  0  0  0  0  0  0  0  0  0
   25.0268  -18.5620  -18.1780 C   0  0  0  0  0  0  0  0  0  0  0  0
   25.3396  -17.8357  -19.3029 C   0  0  0  0  0  0  0  0  0  0  0  0
   24.5708  -18.0109  -20.4282 C   0  0  0  0  0  0  0  0  0  0  0  0
   23.5000  -18.8883  -20.4649 C   0  0  0  0  0  0  0  0  0  0  0  0
   23.1885  -19.6155  -19.3349 C   0  0  0  0  0  0  0  0  0  0  0  0
   21.7570  -20.9188  -15.5245 C   0  0  0  0  0  0  0  0  0  0  0  0
   21.9966  -22.1514  -15.6064 O   0  0  0  0  0  0  0  0  0  0  0  0
   21.1698  -18.9838  -10.3265 N   0  0  0  0  0  0  0  0  0  0  0  0
   21.1459  -19.4401  -11.6656 C   0  0  0  0  0  0  0  0  0  0  0  0
   21.0919  -18.5688  -12.5682 O   0  0  0  0  0  0  0  0  0  0  0  0
   21.1855  -20.8889  -11.9107 C   0  0  0  0  0  0  0  0  0  0  0  0
   20.7007  -21.2963  -13.2603 C   0  0  2  0  0  0  0  0  0  0  0  0
   21.1021  -20.4934  -14.3474 N   0  0  0  0  0  0  0  0  0  0  0  0
   19.2274  -21.4310  -13.2374 C   0  0  0  0  0  0  0  0  0  0  0  0
   18.4398  -20.4815  -13.4657 O   0  0  0  0  0  0  0  0  0  0  0  0
   17.0691  -24.4169  -12.4979 C   0  0  0  0  0  0  0  0  0  0  0  0
   17.2451  -22.9463  -12.8460 C   0  0  2  0  0  0  0  0  0  0  0  0
   18.6637  -22.6961  -12.9430 N   0  0  0  0  0  0  0  0  0  0  0  0
   16.6893  -22.1215  -11.7455 C   0  0  0  0  0  0  0  0  0  0  0  0
   15.4039  -21.6029  -11.7702 O   0  0  0  0  0  0  0  0  0  0  0  0
   17.3814  -21.8532  -10.7195 O   0  0  0  0  0  0  0  0  0  0  0  0
  2  1  1  1
  2 10  1  0
  3  2  1  0
  4  3  1  0
  5  4  2  0
  6  5  1  0
  7  6  2  0
  7  8  1  0
  8  9  2  0
  9  4  1  0
 10 11  2  0
 10 17  1  0
 13 12  1  0
 14 13  2  0
 15 13  1  0
 16 15  1  1
 17 16  1  0
 18 22  1  0
 18 16  1  0
 19 18  2  0
 21 20  1  1
 21 23  1  0
 21 22  1  0
 23 24  1  0
 25 23  2  0
M  END
$$$$
