FNA.pdb
     RDKit          3D

 25 25  0  0  1  0  0  0  0  0999 V2000
   19.0336   -7.7618  -17.3704 N   0  0  0  0  0  0  0  0  0  0  0  0
   19.7724   -6.6023  -17.7338 C   0  0  1  0  0  0  0  0  0  0  0  0
   19.1761   -6.0306  -19.0014 C   0  0  0  0  0  0  0  0  0  0  0  0
   19.3191   -6.9596  -20.1310 C   0  0  0  0  0  0  0  0  0  0  0  0
   18.2540   -7.7398  -20.5245 C   0  0  0  0  0  0  0  0  0  0  0  0
   18.3944   -8.6071  -21.5823 C   0  0  0  0  0  0  0  0  0  0  0  0
   19.6097   -8.6675  -22.2205 C   0  0  0  0  0  0  0  0  0  0  0  0
   20.6884   -7.8891  -21.8355 C   0  0  0  0  0  0  0  0  0  0  0  0
   20.5447   -7.0200  -20.7740 C   0  0  0  0  0  0  0  0  0  0  0  0
   19.9356   -5.6068  -16.6767 C   0  0  0  0  0  0  0  0  0  0  0  0
   18.9277   -5.2804  -15.9978 O   0  0  0  0  0  0  0  0  0  0  0  0
   22.6159   -6.8291  -13.8118 N   0  0  0  0  0  0  0  0  0  0  0  0
   21.9707   -5.6130  -13.4848 C   0  0  0  0  0  0  0  0  0  0  0  0
   21.1231   -5.6436  -12.5589 O   0  0  0  0  0  0  0  0  0  0  0  0
   22.3306   -4.4057  -14.2422 C   0  0  0  0  0  0  0  0  0  0  0  0
   21.3489   -4.0290  -15.2989 C   0  0  2  0  0  0  0  0  0  0  0  0
   21.1453   -4.9612  -16.3368 N   0  0  0  0  0  0  0  0  0  0  0  0
   21.7068   -2.7069  -15.8587 C   0  0  0  0  0  0  0  0  0  0  0  0
   22.7388   -2.4981  -16.5408 O   0  0  0  0  0  0  0  0  0  0  0  0
   19.6700    0.3903  -16.1852 C   0  0  0  0  0  0  0  0  0  0  0  0
   21.0271   -0.2974  -16.1923 C   0  0  2  0  0  0  0  0  0  0  0  0
   20.8451   -1.6095  -15.6180 N   0  0  0  0  0  0  0  0  0  0  0  0
   21.9613    0.4729  -15.3355 C   0  0  0  0  0  0  0  0  0  0  0  0
   22.7872    1.4700  -15.8311 O   0  0  0  0  0  0  0  0  0  0  0  0
   22.0426    0.2453  -14.0924 O   0  0  0  0  0  0  0  0  0  0  0  0
  2  1  1  1
  2 10  1  0
  3  2  1  0
  4  3  1  0
  5  4  2  0
  6  5  1  0
  7  6  2  0
  7  8  1  0
  8  9  2  0
  9  4  1  0
 10 11  2  0
 10 17  1  0
 13 12  1  0
 14 13  2  0
 15 13  1  0
 16 15  1  1
 17 16  1  0
 18 22  1  0
 18 16  1  0
 19 18  2  0
 21 20  1  1
 21 23  1  0
 21 22  1  0
 23 24  1  0
 25 23  2  0
M  END
$$$$
