FNA.pdb
     RDKit          3D

 25 25  0  0  1  0  0  0  0  0999 V2000
   22.0148  -12.9794    7.5944 N   0  0  0  0  0  0  0  0  0  0  0  0
   21.9444  -11.5916    7.2917 C   0  0  1  0  0  0  0  0  0  0  0  0
   20.4882  -11.1837    7.2439 C   0  0  0  0  0  0  0  0  0  0  0  0
   19.7212  -12.0311    6.3200 C   0  0  0  0  0  0  0  0  0  0  0  0
   19.2519  -13.2583    6.7344 C   0  0  0  0  0  0  0  0  0  0  0  0
   18.5349  -14.0463    5.8651 C   0  0  0  0  0  0  0  0  0  0  0  0
   18.3073  -13.5767    4.5940 C   0  0  0  0  0  0  0  0  0  0  0  0
   18.7732  -12.3454    4.1645 C   0  0  0  0  0  0  0  0  0  0  0  0
   19.4921  -11.5570    5.0388 C   0  0  0  0  0  0  0  0  0  0  0  0
   22.7558  -10.7232    8.1419 C   0  0  0  0  0  0  0  0  0  0  0  0
   23.3155  -11.2236    9.1517 O   0  0  0  0  0  0  0  0  0  0  0  0
   27.2096   -7.3304    8.9186 N   0  0  0  0  0  0  0  0  0  0  0  0
   26.1159   -7.9948    9.5224 C   0  0  0  0  0  0  0  0  0  0  0  0
   25.9273   -7.7937   10.7474 O   0  0  0  0  0  0  0  0  0  0  0  0
   25.2806   -8.8680    8.6855 C   0  0  0  0  0  0  0  0  0  0  0  0
   23.8361   -8.4998    8.6655 C   0  0  2  0  0  0  0  0  0  0  0  0
   22.9767   -9.3436    7.9328 N   0  0  0  0  0  0  0  0  0  0  0  0
   23.6885   -7.0986    8.2135 C   0  0  0  0  0  0  0  0  0  0  0  0
   23.9073   -6.7219    7.0371 O   0  0  0  0  0  0  0  0  0  0  0  0
   22.1412   -4.1457    9.8657 C   0  0  0  0  0  0  0  0  0  0  0  0
   23.1017   -4.7223    8.8363 C   0  0  2  0  0  0  0  0  0  0  0  0
   23.2782   -6.1202    9.1512 N   0  0  0  0  0  0  0  0  0  0  0  0
   24.4107   -4.0360    8.9622 C   0  0  0  0  0  0  0  0  0  0  0  0
   25.3730   -4.4160    9.8850 O   0  0  0  0  0  0  0  0  0  0  0  0
   24.7065   -3.0562    8.2164 O   0  0  0  0  0  0  0  0  0  0  0  0
  2  1  1  1
  2 10  1  0
  3  2  1  0
  4  3  1  0
  5  4  2  0
  6  5  1  0
  7  6  2  0
  7  8  1  0
  8  9  2  0
  9  4  1  0
 10 11  2  0
 10 17  1  0
 13 12  1  0
 14 13  2  0
 15 13  1  0
 16 15  1  6
 17 16  1  0
 18 22  1  0
 18 16  1  0
 19 18  2  0
 21 20  1  1
 21 23  1  0
 21 22  1  0
 23 24  1  0
 25 23  2  0
M  END
$$$$
