FNA.pdb
     RDKit          3D

 25 25  0  0  1  0  0  0  0  0999 V2000
   26.7378  -16.1718  -18.6906 N   0  0  0  0  0  0  0  0  0  0  0  0
   26.1191  -16.4108  -17.4326 C   0  0  1  0  0  0  0  0  0  0  0  0
   25.3465  -15.1724  -17.0344 C   0  0  0  0  0  0  0  0  0  0  0  0
   26.2453  -14.0881  -16.6148 C   0  0  0  0  0  0  0  0  0  0  0  0
   26.6869  -14.0206  -15.3116 C   0  0  0  0  0  0  0  0  0  0  0  0
   27.5278  -13.0035  -14.9253 C   0  0  0  0  0  0  0  0  0  0  0  0
   27.9049  -12.0752  -15.8656 C   0  0  0  0  0  0  0  0  0  0  0  0
   27.4686  -12.1312  -17.1788 C   0  0  0  0  0  0  0  0  0  0  0  0
   26.6251  -13.1527  -17.5633 C   0  0  0  0  0  0  0  0  0  0  0  0
   25.3250  -17.6346  -17.3476 C   0  0  0  0  0  0  0  0  0  0  0  0
   24.7061  -18.0217  -18.3725 O   0  0  0  0  0  0  0  0  0  0  0  0
   26.4732  -22.6779  -15.9553 N   0  0  0  0  0  0  0  0  0  0  0  0
   26.3064  -21.2742  -15.8945 C   0  0  0  0  0  0  0  0  0  0  0  0
   27.2356  -20.5651  -16.3533 O   0  0  0  0  0  0  0  0  0  0  0  0
   25.0695  -20.7427  -15.3043 C   0  0  0  0  0  0  0  0  0  0  0  0
   24.4431  -19.6375  -16.0844 C   0  0  2  0  0  0  0  0  0  0  0  0
   25.1830  -18.4427  -16.1977 N   0  0  0  0  0  0  0  0  0  0  0  0
   23.0928  -19.3568  -15.5487 C   0  0  0  0  0  0  0  0  0  0  0  0
   22.8628  -19.1094  -14.3405 O   0  0  0  0  0  0  0  0  0  0  0  0
   19.8488  -18.8094  -17.3342 C   0  0  0  0  0  0  0  0  0  0  0  0
   20.6386  -19.0396  -16.0544 C   0  0  2  0  0  0  0  0  0  0  0  0
   21.9917  -19.3649  -16.4390 N   0  0  0  0  0  0  0  0  0  0  0  0
   20.0568  -20.1970  -15.3316 C   0  0  0  0  0  0  0  0  0  0  0  0
   18.9797  -20.0789  -14.4669 O   0  0  0  0  0  0  0  0  0  0  0  0
   20.5309  -21.3619  -15.4792 O   0  0  0  0  0  0  0  0  0  0  0  0
  2  1  1  6
  2 10  1  0
  3  2  1  0
  4  3  1  0
  5  4  2  0
  6  5  1  0
  7  6  2  0
  7  8  1  0
  8  9  2  0
  9  4  1  0
 10 11  2  0
 10 17  1  0
 13 12  1  0
 14 13  2  0
 15 13  1  0
 16 15  1  1
 17 16  1  0
 18 22  1  0
 18 16  1  0
 19 18  2  0
 21 20  1  6
 21 23  1  0
 21 22  1  0
 23 24  1  0
 25 23  2  0
M  END
$$$$
