FNA.pdb
     RDKit          3D

 25 25  0  0  1  0  0  0  0  0999 V2000
   24.8221  -21.2598   -9.0099 N   0  0  0  0  0  0  0  0  0  0  0  0
   25.2270  -20.4265  -10.0889 C   0  0  1  0  0  0  0  0  0  0  0  0
   26.6961  -20.1050   -9.9223 C   0  0  0  0  0  0  0  0  0  0  0  0
   27.0089  -19.7137   -8.5407 C   0  0  0  0  0  0  0  0  0  0  0  0
   27.7779  -20.5353   -7.7460 C   0  0  0  0  0  0  0  0  0  0  0  0
   28.0669  -20.1633   -6.4541 C   0  0  0  0  0  0  0  0  0  0  0  0
   27.5720  -18.9675   -5.9925 C   0  0  0  0  0  0  0  0  0  0  0  0
   26.7979  -18.1322   -6.7804 C   0  0  0  0  0  0  0  0  0  0  0  0
   26.5096  -18.5080   -8.0760 C   0  0  0  0  0  0  0  0  0  0  0  0
   24.8961  -20.9237  -11.4225 C   0  0  0  0  0  0  0  0  0  0  0  0
   24.4440  -22.0928  -11.5330 O   0  0  0  0  0  0  0  0  0  0  0  0
   21.7359  -18.0883  -14.2393 N   0  0  0  0  0  0  0  0  0  0  0  0
   22.3195  -18.9247  -13.2586 C   0  0  0  0  0  0  0  0  0  0  0  0
   22.3904  -18.4747  -12.0885 O   0  0  0  0  0  0  0  0  0  0  0  0
   22.7999  -20.2520  -13.6687 C   0  0  0  0  0  0  0  0  0  0  0  0
   24.2809  -20.3531  -13.8060 C   0  0  2  0  0  0  0  0  0  0  0  0
   25.0389  -20.1998  -12.6272 N   0  0  0  0  0  0  0  0  0  0  0  0
   24.7478  -19.4073  -14.8437 C   0  0  0  0  0  0  0  0  0  0  0  0
   24.1852  -19.2637  -15.9558 O   0  0  0  0  0  0  0  0  0  0  0  0
   27.7451  -17.1423  -14.8868 C   0  0  0  0  0  0  0  0  0  0  0  0
   26.6558  -17.9332  -15.5957 C   0  0  2  0  0  0  0  0  0  0  0  0
   25.8912  -18.6154  -14.5786 N   0  0  0  0  0  0  0  0  0  0  0  0
   27.2908  -18.9456  -16.4745 C   0  0  0  0  0  0  0  0  0  0  0  0
   27.6760  -18.6737  -17.7782 O   0  0  0  0  0  0  0  0  0  0  0  0
   27.5104  -20.1218  -16.0598 O   0  0  0  0  0  0  0  0  0  0  0  0
  2  1  1  1
  2 10  1  0
  3  2  1  0
  4  3  1  0
  5  4  2  0
  6  5  1  0
  7  6  2  0
  7  8  1  0
  8  9  2  0
  9  4  1  0
 10 11  2  0
 10 17  1  0
 13 12  1  0
 14 13  2  0
 15 13  1  0
 16 15  1  1
 17 16  1  0
 18 22  1  0
 18 16  1  0
 19 18  2  0
 21 20  1  1
 21 23  1  0
 21 22  1  0
 23 24  1  0
 25 23  2  0
M  END
$$$$
