FNA.pdb
     RDKit          3D

 25 25  0  0  1  0  0  0  0  0999 V2000
   23.7227   -9.8047  -17.8633 N   0  0  0  0  0  0  0  0  0  0  0  0
   23.3437   -8.8152  -16.9149 C   0  0  1  0  0  0  0  0  0  0  0  0
   24.5340   -7.9180  -16.6552 C   0  0  0  0  0  0  0  0  0  0  0  0
   25.7158   -8.6934  -16.2530 C   0  0  0  0  0  0  0  0  0  0  0  0
   26.8143   -8.7603  -17.0817 C   0  0  0  0  0  0  0  0  0  0  0  0
   27.9170   -9.4877  -16.6996 C   0  0  0  0  0  0  0  0  0  0  0  0
   27.8858  -10.1326  -15.4867 C   0  0  0  0  0  0  0  0  0  0  0  0
   26.7883  -10.0737  -14.6441 C   0  0  0  0  0  0  0  0  0  0  0  0
   25.6836   -9.3433  -15.0301 C   0  0  0  0  0  0  0  0  0  0  0  0
   22.1258   -8.0741  -17.2356 C   0  0  0  0  0  0  0  0  0  0  0  0
   21.7323   -8.0529  -18.4306 O   0  0  0  0  0  0  0  0  0  0  0  0
   16.9487   -8.2925  -15.6991 N   0  0  0  0  0  0  0  0  0  0  0  0
   18.3351   -8.1749  -15.9559 C   0  0  0  0  0  0  0  0  0  0  0  0
   18.9310   -9.1991  -16.3714 O   0  0  0  0  0  0  0  0  0  0  0  0
   18.9810   -6.8754  -15.7222 C   0  0  0  0  0  0  0  0  0  0  0  0
   20.1672   -6.6154  -16.5869 C   0  0  2  0  0  0  0  0  0  0  0  0
   21.3299   -7.3630  -16.3101 N   0  0  0  0  0  0  0  0  0  0  0  0
   20.4742   -5.1680  -16.5843 C   0  0  0  0  0  0  0  0  0  0  0  0
   21.0333   -4.5786  -15.6282 O   0  0  0  0  0  0  0  0  0  0  0  0
   19.9753   -2.5717  -19.2522 C   0  0  0  0  0  0  0  0  0  0  0  0
   20.3909   -2.9824  -17.8474 C   0  0  2  0  0  0  0  0  0  0  0  0
   20.1225   -4.3951  -17.7173 N   0  0  0  0  0  0  0  0  0  0  0  0
   19.5584   -2.2462  -16.8649 C   0  0  0  0  0  0  0  0  0  0  0  0
   18.4195   -2.7879  -16.2892 O   0  0  0  0  0  0  0  0  0  0  0  0
   19.8616   -1.0702  -16.5062 O   0  0  0  0  0  0  0  0  0  0  0  0
  2  1  1  6
  2 10  1  0
  3  2  1  0
  4  3  1  0
  5  4  2  0
  6  5  1  0
  7  6  2  0
  7  8  1  0
  8  9  2  0
  9  4  1  0
 10 11  2  0
 10 17  1  0
 13 12  1  0
 14 13  2  0
 15 13  1  0
 16 15  1  1
 17 16  1  0
 18 22  1  0
 18 16  1  0
 19 18  2  0
 21 20  1  6
 21 23  1  0
 21 22  1  0
 23 24  1  0
 25 23  2  0
M  END
$$$$
