YGR.pdb
     RDKit          3D

 28 28  0  0  1  0  0  0  0  0999 V2000
    6.7254  -11.5272   28.0939 O   0  0  0  0  0  0  0  0  0  0  0  0
    6.6634  -12.3374   26.9619 C   0  0  0  0  0  0  0  0  0  0  0  0
    7.4938  -12.0760   25.8817 C   0  0  0  0  0  0  0  0  0  0  0  0
    7.4387  -12.8731   24.7576 C   0  0  0  0  0  0  0  0  0  0  0  0
    6.5548  -13.9295   24.7138 C   0  0  0  0  0  0  0  0  0  0  0  0
    6.5114  -14.7766   23.4920 C   0  0  0  0  0  0  0  0  0  0  0  0
    7.0559  -16.1587   23.7921 C   0  0  2  0  0  0  0  0  0  0  0  0
    6.5949  -16.6027   25.0919 N   0  0  0  0  0  0  0  0  0  0  0  0
    8.5316  -16.1271   23.7150 C   0  0  0  0  0  0  0  0  0  0  0  0
    9.2370  -16.0151   24.7507 O   0  0  0  0  0  0  0  0  0  0  0  0
    5.7348  -14.1707   25.8065 C   0  0  0  0  0  0  0  0  0  0  0  0
    5.7642  -13.3962   26.9418 C   0  0  0  0  0  0  0  0  0  0  0  0
    9.1778  -16.2240   22.4532 N   0  0  0  0  0  0  0  0  0  0  0  0
   10.3968  -15.4962   22.1645 C   0  0  0  0  0  0  0  0  0  0  0  0
   11.5155  -15.9530   23.0314 C   0  0  0  0  0  0  0  0  0  0  0  0
   11.2278  -16.2896   24.2152 O   0  0  0  0  0  0  0  0  0  0  0  0
   13.0576  -18.6414   28.6558 N   0  0  0  0  0  0  0  0  0  0  0  0
   11.8666  -19.0398   27.9893 C   0  0  0  0  0  0  0  0  0  0  0  0
   11.0923  -19.8875   28.5860 N   0  0  0  0  0  0  0  0  0  0  0  0
   11.5150  -18.5389   26.7102 N   0  0  0  0  0  0  0  0  0  0  0  0
   12.1521  -19.1746   25.5336 C   0  0  0  0  0  0  0  0  0  0  0  0
   13.4127  -18.4861   25.1816 C   0  0  0  0  0  0  0  0  0  0  0  0
   13.5041  -17.8545   23.8842 C   0  0  0  0  0  0  0  0  0  0  0  0
   13.8958  -16.4618   23.6184 C   0  0  2  0  0  0  0  0  0  0  0  0
   12.8465  -16.0264   22.6068 N   0  0  0  0  0  0  0  0  0  0  0  0
   15.1951  -16.1863   22.9928 C   0  0  0  0  0  0  0  0  0  0  0  0
   15.2233  -16.1449   21.7032 O   0  0  0  0  0  0  0  0  0  0  0  0
   16.4073  -15.9548   23.5767 O   0  0  0  0  0  0  0  0  0  0  0  0
  2 12  2  0
  2  1  1  0
  3  2  1  0
  4  5  1  0
  4  3  2  0
  5 11  2  0
  6  7  1  0
  6  5  1  0
  7  8  1  1
  9  7  1  0
  9 13  1  0
 10  9  2  0
 11 12  1  0
 13 14  1  0
 15 14  1  0
 15 16  2  0
 18 17  1  0
 19 18  2  0
 20 18  1  0
 21 22  1  0
 21 20  1  0
 22 23  1  0
 24 23  1  6
 24 25  1  0
 24 26  1  0
 25 15  1  0
 26 27  2  0
 26 28  1  0
M  END
$$$$
