YGR.pdb
     RDKit          3D

 28 28  0  0  1  0  0  0  0  0999 V2000
   10.6852  -14.4252   29.5625 O   0  0  0  0  0  0  0  0  0  0  0  0
    9.8900  -14.0394   28.4853 C   0  0  0  0  0  0  0  0  0  0  0  0
    8.5431  -13.7727   28.6843 C   0  0  0  0  0  0  0  0  0  0  0  0
    7.7492  -13.3903   27.6234 C   0  0  0  0  0  0  0  0  0  0  0  0
    8.3011  -13.2747   26.3659 C   0  0  0  0  0  0  0  0  0  0  0  0
    7.4273  -12.8609   25.2357 C   0  0  0  0  0  0  0  0  0  0  0  0
    6.9438  -14.0783   24.4734 C   0  0  2  0  0  0  0  0  0  0  0  0
    6.7234  -15.1811   25.3867 N   0  0  0  0  0  0  0  0  0  0  0  0
    7.9311  -14.4208   23.4280 C   0  0  0  0  0  0  0  0  0  0  0  0
    8.3286  -13.5620   22.5992 O   0  0  0  0  0  0  0  0  0  0  0  0
    9.6504  -13.5467   26.1922 C   0  0  0  0  0  0  0  0  0  0  0  0
   10.4696  -13.9299   27.2274 C   0  0  0  0  0  0  0  0  0  0  0  0
    8.4485  -15.7417   23.3473 N   0  0  0  0  0  0  0  0  0  0  0  0
    9.4701  -16.1015   22.3850 C   0  0  0  0  0  0  0  0  0  0  0  0
   10.4642  -17.0353   22.9780 C   0  0  0  0  0  0  0  0  0  0  0  0
   10.0512  -17.8249   23.8742 O   0  0  0  0  0  0  0  0  0  0  0  0
   15.0290  -18.2083   17.5522 N   0  0  0  0  0  0  0  0  0  0  0  0
   14.2245  -19.3779   17.4720 C   0  0  0  0  0  0  0  0  0  0  0  0
   13.8519  -19.7784   16.2996 N   0  0  0  0  0  0  0  0  0  0  0  0
   13.8291  -20.1013   18.6257 N   0  0  0  0  0  0  0  0  0  0  0  0
   14.3405  -19.6271   19.9326 C   0  0  0  0  0  0  0  0  0  0  0  0
   13.2573  -19.0118   20.7297 C   0  0  0  0  0  0  0  0  0  0  0  0
   13.5944  -18.4540   22.0203 C   0  0  0  0  0  0  0  0  0  0  0  0
   12.6663  -18.2162   23.1364 C   0  0  2  0  0  0  0  0  0  0  0  0
   11.8098  -17.0802   22.5980 N   0  0  0  0  0  0  0  0  0  0  0  0
   13.1936  -17.7462   24.4235 C   0  0  0  0  0  0  0  0  0  0  0  0
   13.2820  -16.4688   24.5850 O   0  0  0  0  0  0  0  0  0  0  0  0
   13.6093  -18.4670   25.5059 O   0  0  0  0  0  0  0  0  0  0  0  0
  2 12  2  0
  2  1  1  0
  3  2  1  0
  4  5  1  0
  4  3  2  0
  5 11  2  0
  6  7  1  0
  6  5  1  0
  7  8  1  1
  9  7  1  0
  9 13  1  0
 10  9  2  0
 11 12  1  0
 13 14  1  0
 15 14  1  0
 15 16  2  0
 18 17  1  0
 19 18  2  0
 20 18  1  0
 21 22  1  0
 21 20  1  0
 22 23  1  0
 24 23  1  6
 24 25  1  0
 24 26  1  0
 25 15  1  0
 26 27  2  0
 26 28  1  0
M  END
$$$$
