YGR.pdb
     RDKit          3D

 28 28  0  0  1  0  0  0  0  0999 V2000
   -1.6978  -21.2090   19.9450 O   0  0  0  0  0  0  0  0  0  0  0  0
   -0.5855  -20.5868   20.5082 C   0  0  0  0  0  0  0  0  0  0  0  0
    0.1174  -19.6397   19.7776 C   0  0  0  0  0  0  0  0  0  0  0  0
    1.2193  -19.0193   20.3277 C   0  0  0  0  0  0  0  0  0  0  0  0
    1.6176  -19.3452   21.6061 C   0  0  0  0  0  0  0  0  0  0  0  0
    2.8087  -18.6642   22.1805 C   0  0  0  0  0  0  0  0  0  0  0  0
    4.0403  -18.9751   21.3538 C   0  0  2  0  0  0  0  0  0  0  0  0
    4.1886  -20.4083   21.2031 N   0  0  0  0  0  0  0  0  0  0  0  0
    5.2237  -18.3659   21.9967 C   0  0  0  0  0  0  0  0  0  0  0  0
    6.0517  -19.0651   22.6356 O   0  0  0  0  0  0  0  0  0  0  0  0
    0.8985  -20.2952   22.3167 C   0  0  0  0  0  0  0  0  0  0  0  0
   -0.2038  -20.9323   21.7986 C   0  0  0  0  0  0  0  0  0  0  0  0
    5.4413  -16.9652   21.8985 N   0  0  0  0  0  0  0  0  0  0  0  0
    6.6399  -16.3426   22.4230 C   0  0  0  0  0  0  0  0  0  0  0  0
    6.9221  -16.8000   23.8097 C   0  0  0  0  0  0  0  0  0  0  0  0
    6.1923  -16.3345   24.7307 O   0  0  0  0  0  0  0  0  0  0  0  0
    8.8995  -19.8404   29.6756 N   0  0  0  0  0  0  0  0  0  0  0  0
    8.3608  -21.1522   29.5737 C   0  0  0  0  0  0  0  0  0  0  0  0
    8.9956  -22.1156   30.1593 N   0  0  0  0  0  0  0  0  0  0  0  0
    7.1667  -21.4233   28.8587 N   0  0  0  0  0  0  0  0  0  0  0  0
    6.7863  -20.4732   27.7877 C   0  0  0  0  0  0  0  0  0  0  0  0
    7.8912  -20.3013   26.8199 C   0  0  0  0  0  0  0  0  0  0  0  0
    7.6877  -19.4005   25.7073 C   0  0  0  0  0  0  0  0  0  0  0  0
    8.1710  -18.0148   25.6080 C   0  0  2  0  0  0  0  0  0  0  0  0
    7.9382  -17.7041   24.1371 N   0  0  0  0  0  0  0  0  0  0  0  0
    9.5885  -17.7270   25.8596 C   0  0  0  0  0  0  0  0  0  0  0  0
   10.3402  -17.5545   24.8248 O   0  0  0  0  0  0  0  0  0  0  0  0
   10.2511  -17.6038   27.0469 O   0  0  0  0  0  0  0  0  0  0  0  0
  2 12  2  0
  2  1  1  0
  3  2  1  0
  4  5  1  0
  4  3  2  0
  5 11  2  0
  6  7  1  0
  6  5  1  0
  7  8  1  1
  9  7  1  0
  9 13  1  0
 10  9  2  0
 11 12  1  0
 13 14  1  0
 15 14  1  0
 15 16  2  0
 18 17  1  0
 19 18  2  0
 20 18  1  0
 21 22  1  0
 21 20  1  0
 22 23  1  0
 24 23  1  6
 24 25  1  0
 24 26  1  0
 25 15  1  0
 26 27  2  0
 26 28  1  0
M  END
$$$$
