YGR.pdb
     RDKit          3D

 28 28  0  0  1  0  0  0  0  0999 V2000
    7.2692  -13.1353   14.6481 O   0  0  0  0  0  0  0  0  0  0  0  0
    7.5446  -13.6452   15.9152 C   0  0  0  0  0  0  0  0  0  0  0  0
    8.1122  -14.9048   16.0422 C   0  0  0  0  0  0  0  0  0  0  0  0
    8.3879  -15.4168   17.2927 C   0  0  0  0  0  0  0  0  0  0  0  0
    8.0966  -14.6706   18.4142 C   0  0  0  0  0  0  0  0  0  0  0  0
    8.4019  -15.2415   19.7532 C   0  0  0  0  0  0  0  0  0  0  0  0
    7.4007  -16.3241   20.1028 C   0  0  2  0  0  0  0  0  0  0  0  0
    6.0739  -15.7543   20.2207 N   0  0  0  0  0  0  0  0  0  0  0  0
    7.8235  -16.9923   21.3516 C   0  0  0  0  0  0  0  0  0  0  0  0
    7.3043  -16.6958   22.4585 O   0  0  0  0  0  0  0  0  0  0  0  0
    7.5293  -13.4138   18.2613 C   0  0  0  0  0  0  0  0  0  0  0  0
    7.2418  -12.8740   17.0303 C   0  0  0  0  0  0  0  0  0  0  0  0
    8.8347  -17.9899   21.3145 N   0  0  0  0  0  0  0  0  0  0  0  0
    9.1911  -18.7564   22.4912 C   0  0  0  0  0  0  0  0  0  0  0  0
   10.3332  -18.1353   23.2134 C   0  0  0  0  0  0  0  0  0  0  0  0
   10.9723  -17.2271   22.6100 O   0  0  0  0  0  0  0  0  0  0  0  0
   10.6337  -15.5574   29.9998 N   0  0  0  0  0  0  0  0  0  0  0  0
    9.9735  -14.5825   29.2028 C   0  0  0  0  0  0  0  0  0  0  0  0
    9.2511  -13.6945   29.8057 N   0  0  0  0  0  0  0  0  0  0  0  0
   10.0870  -14.5618   27.7895 N   0  0  0  0  0  0  0  0  0  0  0  0
   11.1485  -15.3971   27.1814 C   0  0  0  0  0  0  0  0  0  0  0  0
   10.7349  -16.8159   27.1262 C   0  0  0  0  0  0  0  0  0  0  0  0
   11.6374  -17.7647   26.5133 C   0  0  0  0  0  0  0  0  0  0  0  0
   11.9732  -17.8499   25.0837 C   0  0  2  0  0  0  0  0  0  0  0  0
   10.7265  -18.5017   24.5050 N   0  0  0  0  0  0  0  0  0  0  0  0
   13.0997  -18.6896   24.6577 C   0  0  0  0  0  0  0  0  0  0  0  0
   14.2561  -18.1208   24.5877 O   0  0  0  0  0  0  0  0  0  0  0  0
   13.1169  -20.0128   24.3219 O   0  0  0  0  0  0  0  0  0  0  0  0
  2 12  2  0
  2  1  1  0
  3  2  1  0
  4  5  1  0
  4  3  2  0
  5 11  2  0
  6  7  1  0
  6  5  1  0
  7  8  1  1
  9  7  1  0
  9 13  1  0
 10  9  2  0
 11 12  1  0
 13 14  1  0
 15 14  1  0
 15 16  2  0
 18 17  1  0
 19 18  2  0
 20 18  1  0
 21 22  1  0
 21 20  1  0
 22 23  1  0
 24 23  1  1
 24 25  1  0
 24 26  1  0
 25 15  1  0
 26 27  2  0
 26 28  1  0
M  END
$$$$
