YGR.pdb
     RDKit          3D

 28 28  0  0  1  0  0  0  0  0999 V2000
    5.6044  -10.7097   27.1453 O   0  0  0  0  0  0  0  0  0  0  0  0
    6.1479  -11.5728   26.1960 C   0  0  0  0  0  0  0  0  0  0  0  0
    7.0324  -11.0828   25.2460 C   0  0  0  0  0  0  0  0  0  0  0  0
    7.5748  -11.9303   24.3030 C   0  0  0  0  0  0  0  0  0  0  0  0
    7.2333  -13.2655   24.3098 C   0  0  0  0  0  0  0  0  0  0  0  0
    7.8296  -14.1623   23.2839 C   0  0  0  0  0  0  0  0  0  0  0  0
    8.5859  -15.2933   23.9515 C   0  0  2  0  0  0  0  0  0  0  0  0
    9.4792  -14.7649   24.9623 N   0  0  0  0  0  0  0  0  0  0  0  0
    9.3162  -16.0634   22.9227 C   0  0  0  0  0  0  0  0  0  0  0  0
    8.7101  -16.8211   22.1219 O   0  0  0  0  0  0  0  0  0  0  0  0
    6.3468  -13.7317   25.2697 C   0  0  0  0  0  0  0  0  0  0  0  0
    5.7882  -12.9144   26.2235 C   0  0  0  0  0  0  0  0  0  0  0  0
   10.7297  -15.9545   22.8261 N   0  0  0  0  0  0  0  0  0  0  0  0
   11.4985  -16.7955   21.9313 C   0  0  0  0  0  0  0  0  0  0  0  0
   12.2177  -17.8615   22.6785 C   0  0  0  0  0  0  0  0  0  0  0  0
   13.4405  -18.0313   22.4079 O   0  0  0  0  0  0  0  0  0  0  0  0
   13.2033  -19.2438   30.7385 N   0  0  0  0  0  0  0  0  0  0  0  0
   12.5492  -20.4902   30.5379 C   0  0  0  0  0  0  0  0  0  0  0  0
   12.3540  -21.2456   31.5700 N   0  0  0  0  0  0  0  0  0  0  0  0
   12.1141  -20.9157   29.2571 N   0  0  0  0  0  0  0  0  0  0  0  0
   12.0375  -19.8902   28.1909 C   0  0  0  0  0  0  0  0  0  0  0  0
   11.7056  -20.5082   26.8890 C   0  0  0  0  0  0  0  0  0  0  0  0
   11.4766  -19.6350   25.7596 C   0  0  0  0  0  0  0  0  0  0  0  0
   12.4841  -19.1864   24.7863 C   0  0  2  0  0  0  0  0  0  0  0  0
   11.6161  -18.6702   23.6487 N   0  0  0  0  0  0  0  0  0  0  0  0
   13.3915  -20.1709   24.1840 C   0  0  0  0  0  0  0  0  0  0  0  0
   14.6407  -20.0781   24.4948 O   0  0  0  0  0  0  0  0  0  0  0  0
   13.1127  -21.1991   23.3302 O   0  0  0  0  0  0  0  0  0  0  0  0
  2 12  2  0
  2  1  1  0
  3  2  1  0
  4  5  1  0
  4  3  2  0
  5 11  2  0
  6  7  1  0
  6  5  1  0
  7  8  1  1
  9  7  1  0
  9 13  1  0
 10  9  2  0
 11 12  1  0
 13 14  1  0
 15 14  1  0
 15 16  2  0
 18 17  1  0
 19 18  2  0
 20 18  1  0
 21 22  1  0
 21 20  1  0
 22 23  1  0
 24 23  1  1
 24 25  1  0
 24 26  1  0
 25 15  1  0
 26 27  2  0
 26 28  1  0
M  END
$$$$
