YGR.pdb
     RDKit          3D

 28 28  0  0  1  0  0  0  0  0999 V2000
    8.7692  -12.3349   17.8179 O   0  0  0  0  0  0  0  0  0  0  0  0
    8.3104  -12.8416   19.0321 C   0  0  0  0  0  0  0  0  0  0  0  0
    7.4565  -13.9351   19.0434 C   0  0  0  0  0  0  0  0  0  0  0  0
    6.9979  -14.4426   20.2409 C   0  0  0  0  0  0  0  0  0  0  0  0
    7.3924  -13.8579   21.4248 C   0  0  0  0  0  0  0  0  0  0  0  0
    6.8861  -14.4210   22.7050 C   0  0  0  0  0  0  0  0  0  0  0  0
    7.8127  -15.5130   23.2008 C   0  0  2  0  0  0  0  0  0  0  0  0
    8.1833  -16.3853   22.1050 N   0  0  0  0  0  0  0  0  0  0  0  0
    7.1481  -16.2557   24.2924 C   0  0  0  0  0  0  0  0  0  0  0  0
    6.5805  -15.6539   25.2401 O   0  0  0  0  0  0  0  0  0  0  0  0
    8.2468  -12.7656   21.3876 C   0  0  0  0  0  0  0  0  0  0  0  0
    8.7223  -12.2349   20.2121 C   0  0  0  0  0  0  0  0  0  0  0  0
    7.1435  -17.6766   24.2825 N   0  0  0  0  0  0  0  0  0  0  0  0
    8.1900  -18.4366   23.6295 C   0  0  0  0  0  0  0  0  0  0  0  0
    9.3218  -18.7025   24.5569 C   0  0  0  0  0  0  0  0  0  0  0  0
    9.4432  -19.8814   24.9962 O   0  0  0  0  0  0  0  0  0  0  0  0
   11.0407  -14.5408   18.3510 N   0  0  0  0  0  0  0  0  0  0  0  0
   12.3980  -14.7995   18.6862 C   0  0  0  0  0  0  0  0  0  0  0  0
   13.3099  -14.4455   17.8393 N   0  0  0  0  0  0  0  0  0  0  0  0
   12.7677  -15.4243   19.9043 N   0  0  0  0  0  0  0  0  0  0  0  0
   11.6822  -15.7426   20.8606 C   0  0  0  0  0  0  0  0  0  0  0  0
   12.2042  -16.5073   22.0138 C   0  0  0  0  0  0  0  0  0  0  0  0
   11.2672  -16.9303   23.0305 C   0  0  0  0  0  0  0  0  0  0  0  0
   11.5883  -17.6827   24.2529 C   0  0  2  0  0  0  0  0  0  0  0  0
   10.2415  -17.7279   24.9587 N   0  0  0  0  0  0  0  0  0  0  0  0
   12.5308  -17.1118   25.2230 C   0  0  0  0  0  0  0  0  0  0  0  0
   13.7587  -16.9952   24.8427 O   0  0  0  0  0  0  0  0  0  0  0  0
   12.3048  -16.6677   26.4941 O   0  0  0  0  0  0  0  0  0  0  0  0
  2 12  2  0
  2  1  1  0
  3  2  1  0
  4  5  1  0
  4  3  2  0
  5 11  2  0
  6  7  1  0
  6  5  1  0
  7  8  1  6
  9  7  1  0
  9 13  1  0
 10  9  2  0
 11 12  1  0
 13 14  1  0
 15 14  1  0
 15 16  2  0
 18 17  1  0
 19 18  2  0
 20 18  1  0
 21 22  1  0
 21 20  1  0
 22 23  1  0
 24 23  1  6
 24 25  1  0
 24 26  1  0
 25 15  1  0
 26 27  2  0
 26 28  1  0
M  END
$$$$
