YGR.pdb
     RDKit          3D

 28 28  0  0  1  0  0  0  0  0999 V2000
    7.6287  -12.7896   15.4766 O   0  0  0  0  0  0  0  0  0  0  0  0
    7.6134  -13.4547   16.7009 C   0  0  0  0  0  0  0  0  0  0  0  0
    7.3127  -14.8084   16.7455 C   0  0  0  0  0  0  0  0  0  0  0  0
    7.2955  -15.4740   17.9532 C   0  0  0  0  0  0  0  0  0  0  0  0
    7.5785  -14.7873   19.1141 C   0  0  0  0  0  0  0  0  0  0  0  0
    7.5544  -15.5242   20.4058 C   0  0  0  0  0  0  0  0  0  0  0  0
    8.9354  -15.5344   21.0300 C   0  0  2  0  0  0  0  0  0  0  0  0
    9.9297  -15.8687   20.0306 N   0  0  0  0  0  0  0  0  0  0  0  0
    8.9513  -16.4876   22.1596 C   0  0  0  0  0  0  0  0  0  0  0  0
    8.1453  -16.3759   23.1191 O   0  0  0  0  0  0  0  0  0  0  0  0
    7.8762  -13.4342   19.0437 C   0  0  0  0  0  0  0  0  0  0  0  0
    7.9020  -12.7407   17.8571 C   0  0  0  0  0  0  0  0  0  0  0  0
    9.8897  -17.5544   22.1737 N   0  0  0  0  0  0  0  0  0  0  0  0
    9.9719  -18.4811   23.2844 C   0  0  0  0  0  0  0  0  0  0  0  0
   10.1515  -17.7623   24.5739 C   0  0  0  0  0  0  0  0  0  0  0  0
   11.1158  -16.9490   24.6518 O   0  0  0  0  0  0  0  0  0  0  0  0
    7.5240  -11.1274   25.4522 N   0  0  0  0  0  0  0  0  0  0  0  0
    6.7372  -12.0832   26.1513 C   0  0  0  0  0  0  0  0  0  0  0  0
    6.1155  -11.6939   27.2171 N   0  0  0  0  0  0  0  0  0  0  0  0
    6.6206  -13.4274   25.7152 N   0  0  0  0  0  0  0  0  0  0  0  0
    6.9031  -14.4900   26.7079 C   0  0  0  0  0  0  0  0  0  0  0  0
    8.1464  -15.2137   26.3647 C   0  0  0  0  0  0  0  0  0  0  0  0
    8.5204  -16.3485   27.1790 C   0  0  0  0  0  0  0  0  0  0  0  0
    9.6860  -17.2219   26.9740 C   0  0  2  0  0  0  0  0  0  0  0  0
    9.3192  -17.9402   25.6842 N   0  0  0  0  0  0  0  0  0  0  0  0
    9.9758  -18.2772   27.9527 C   0  0  0  0  0  0  0  0  0  0  0  0
    9.4969  -19.4496   27.7038 O   0  0  0  0  0  0  0  0  0  0  0  0
   10.6960  -18.2123   29.1107 O   0  0  0  0  0  0  0  0  0  0  0  0
  2 12  2  0
  2  1  1  0
  3  2  1  0
  4  5  1  0
  4  3  2  0
  5 11  2  0
  6  7  1  0
  6  5  1  0
  7  8  1  6
  9  7  1  0
  9 13  1  0
 10  9  2  0
 11 12  1  0
 13 14  1  0
 15 14  1  0
 15 16  2  0
 18 17  1  0
 19 18  2  0
 20 18  1  0
 21 22  1  0
 21 20  1  0
 22 23  1  0
 24 23  1  1
 24 25  1  0
 24 26  1  0
 25 15  1  0
 26 27  2  0
 26 28  1  0
M  END
$$$$
