YGR.pdb
     RDKit          3D

 28 28  0  0  1  0  0  0  0  0999 V2000
   10.9742  -14.8354   31.1303 O   0  0  0  0  0  0  0  0  0  0  0  0
   10.3093  -14.9521   29.9113 C   0  0  0  0  0  0  0  0  0  0  0  0
    9.6208  -13.8636   29.3955 C   0  0  0  0  0  0  0  0  0  0  0  0
    8.9601  -13.9708   28.1897 C   0  0  0  0  0  0  0  0  0  0  0  0
    8.9880  -15.1642   27.5010 C   0  0  0  0  0  0  0  0  0  0  0  0
    8.2689  -15.2583   26.2024 C   0  0  0  0  0  0  0  0  0  0  0  0
    7.3559  -16.4680   26.1947 C   0  0  2  0  0  0  0  0  0  0  0  0
    7.9822  -17.5675   26.9003 N   0  0  0  0  0  0  0  0  0  0  0  0
    7.0345  -16.8254   24.7970 C   0  0  0  0  0  0  0  0  0  0  0  0
    6.4310  -16.0218   24.0401 O   0  0  0  0  0  0  0  0  0  0  0  0
    9.6833  -16.2382   28.0373 C   0  0  0  0  0  0  0  0  0  0  0  0
   10.3521  -16.1654   29.2360 C   0  0  0  0  0  0  0  0  0  0  0  0
    7.4088  -18.0976   24.2866 N   0  0  0  0  0  0  0  0  0  0  0  0
    7.1750  -18.4618   22.9039 C   0  0  0  0  0  0  0  0  0  0  0  0
    8.1369  -17.7804   21.9971 C   0  0  0  0  0  0  0  0  0  0  0  0
    8.1235  -18.1217   20.7802 O   0  0  0  0  0  0  0  0  0  0  0  0
    7.7577  -14.9785   16.6472 N   0  0  0  0  0  0  0  0  0  0  0  0
    7.8258  -13.6696   17.1984 C   0  0  0  0  0  0  0  0  0  0  0  0
    8.3641  -12.7369   16.4813 N   0  0  0  0  0  0  0  0  0  0  0  0
    7.3265  -13.3692   18.4911 N   0  0  0  0  0  0  0  0  0  0  0  0
    7.5956  -14.3505   19.5677 C   0  0  0  0  0  0  0  0  0  0  0  0
    9.0501  -14.5113   19.7816 C   0  0  0  0  0  0  0  0  0  0  0  0
    9.5021  -14.9531   21.0820 C   0  0  0  0  0  0  0  0  0  0  0  0
   10.0515  -16.2775   21.4102 C   0  0  2  0  0  0  0  0  0  0  0  0
    9.0390  -16.7980   22.4191 N   0  0  0  0  0  0  0  0  0  0  0  0
   11.3598  -16.3708   22.0699 C   0  0  0  0  0  0  0  0  0  0  0  0
   12.3976  -16.1284   21.3419 O   0  0  0  0  0  0  0  0  0  0  0  0
   11.6575  -16.6752   23.3671 O   0  0  0  0  0  0  0  0  0  0  0  0
  2 12  2  0
  2  1  1  0
  3  2  1  0
  4  5  1  0
  4  3  2  0
  5 11  2  0
  6  7  1  0
  6  5  1  0
  7  8  1  6
  9  7  1  0
  9 13  1  0
 10  9  2  0
 11 12  1  0
 13 14  1  0
 15 14  1  0
 15 16  2  0
 18 17  1  0
 19 18  2  0
 20 18  1  0
 21 22  1  0
 21 20  1  0
 22 23  1  0
 24 23  1  1
 24 25  1  0
 24 26  1  0
 25 15  1  0
 26 27  2  0
 26 28  1  0
M  END
$$$$
