YGR.pdb
     RDKit          3D

 28 28  0  0  1  0  0  0  0  0999 V2000
    9.5209  -11.6945   17.5631 O   0  0  0  0  0  0  0  0  0  0  0  0
    8.7951  -12.4652   18.4691 C   0  0  0  0  0  0  0  0  0  0  0  0
    8.4666  -13.7751   18.1508 C   0  0  0  0  0  0  0  0  0  0  0  0
    7.7485  -14.5446   19.0419 C   0  0  0  0  0  0  0  0  0  0  0  0
    7.3595  -14.0053   20.2490 C   0  0  0  0  0  0  0  0  0  0  0  0
    6.5857  -14.8524   21.1955 C   0  0  0  0  0  0  0  0  0  0  0  0
    7.4911  -15.3745   22.2930 C   0  0  2  0  0  0  0  0  0  0  0  0
    8.7240  -15.8778   21.7223 N   0  0  0  0  0  0  0  0  0  0  0  0
    6.7755  -16.4169   23.0586 C   0  0  0  0  0  0  0  0  0  0  0  0
    5.6946  -16.1652   23.6510 O   0  0  0  0  0  0  0  0  0  0  0  0
    7.7000  -12.6932   20.5444 C   0  0  0  0  0  0  0  0  0  0  0  0
    8.4145  -11.8991   19.6793 C   0  0  0  0  0  0  0  0  0  0  0  0
    7.3083  -17.7320   23.1343 N   0  0  0  0  0  0  0  0  0  0  0  0
    6.7544  -18.7271   24.0300 C   0  0  0  0  0  0  0  0  0  0  0  0
    7.3728  -18.6410   25.3799 C   0  0  0  0  0  0  0  0  0  0  0  0
    7.9001  -17.5390   25.7037 O   0  0  0  0  0  0  0  0  0  0  0  0
    6.2627  -25.3885   30.2001 N   0  0  0  0  0  0  0  0  0  0  0  0
    5.1726  -24.6516   29.6616 C   0  0  0  0  0  0  0  0  0  0  0  0
    3.9946  -25.1838   29.7168 N   0  0  0  0  0  0  0  0  0  0  0  0
    5.3439  -23.3712   29.0767 N   0  0  0  0  0  0  0  0  0  0  0  0
    6.7180  -22.8190   29.0424 C   0  0  0  0  0  0  0  0  0  0  0  0
    6.7272  -21.4674   28.4424 C   0  0  0  0  0  0  0  0  0  0  0  0
    8.0049  -20.8229   28.2358 C   0  0  0  0  0  0  0  0  0  0  0  0
    8.2341  -19.5410   27.5518 C   0  0  2  0  0  0  0  0  0  0  0  0
    7.3980  -19.7021   26.2912 N   0  0  0  0  0  0  0  0  0  0  0  0
    9.5872  -19.2005   27.0951 C   0  0  0  0  0  0  0  0  0  0  0  0
   10.3616  -18.6211   27.9498 O   0  0  0  0  0  0  0  0  0  0  0  0
   10.1714  -19.4121   25.8795 O   0  0  0  0  0  0  0  0  0  0  0  0
  2 12  2  0
  2  1  1  0
  3  2  1  0
  4  5  1  0
  4  3  2  0
  5 11  2  0
  6  7  1  0
  6  5  1  0
  7  8  1  6
  9  7  1  0
  9 13  1  0
 10  9  2  0
 11 12  1  0
 13 14  1  0
 15 14  1  0
 15 16  2  0
 18 17  1  0
 19 18  2  0
 20 18  1  0
 21 22  1  0
 21 20  1  0
 22 23  1  0
 24 23  1  6
 24 25  1  0
 24 26  1  0
 25 15  1  0
 26 27  2  0
 26 28  1  0
M  END
$$$$
