YGR.pdb
     RDKit          3D

 28 28  0  0  1  0  0  0  0  0999 V2000
    6.4980  -10.7148   28.3673 O   0  0  0  0  0  0  0  0  0  0  0  0
    6.5751  -11.7095   27.3947 C   0  0  0  0  0  0  0  0  0  0  0  0
    7.7192  -11.8266   26.6185 C   0  0  0  0  0  0  0  0  0  0  0  0
    7.8035  -12.8084   25.6537 C   0  0  0  0  0  0  0  0  0  0  0  0
    6.7458  -13.6716   25.4654 C   0  0  0  0  0  0  0  0  0  0  0  0
    6.8574  -14.7232   24.4195 C   0  0  0  0  0  0  0  0  0  0  0  0
    7.2800  -16.0390   25.0415 C   0  0  2  0  0  0  0  0  0  0  0  0
    8.4219  -15.8342   25.9093 N   0  0  0  0  0  0  0  0  0  0  0  0
    7.5744  -17.0116   23.9681 C   0  0  0  0  0  0  0  0  0  0  0  0
    6.6911  -17.3599   23.1427 O   0  0  0  0  0  0  0  0  0  0  0  0
    5.6126  -13.5345   26.2539 C   0  0  0  0  0  0  0  0  0  0  0  0
    5.4959  -12.5674   27.2238 C   0  0  0  0  0  0  0  0  0  0  0  0
    8.8757  -17.5710   23.8558 N   0  0  0  0  0  0  0  0  0  0  0  0
    9.2408  -18.4330   22.7500 C   0  0  0  0  0  0  0  0  0  0  0  0
   10.4526  -17.9286   22.0507 C   0  0  0  0  0  0  0  0  0  0  0  0
   10.9393  -18.6581   21.1406 O   0  0  0  0  0  0  0  0  0  0  0  0
    7.5858  -14.5702   19.2264 N   0  0  0  0  0  0  0  0  0  0  0  0
    8.5290  -13.7906   18.5025 C   0  0  0  0  0  0  0  0  0  0  0  0
    8.1003  -13.1019   17.4946 N   0  0  0  0  0  0  0  0  0  0  0  0
    9.9023  -13.7516   18.8535 N   0  0  0  0  0  0  0  0  0  0  0  0
   10.3010  -14.4256   20.1109 C   0  0  0  0  0  0  0  0  0  0  0  0
   11.7511  -14.2687   20.3553 C   0  0  0  0  0  0  0  0  0  0  0  0
   12.3271  -14.9492   21.4936 C   0  0  0  0  0  0  0  0  0  0  0  0
   12.4064  -16.4047   21.6905 C   0  0  2  0  0  0  0  0  0  0  0  0
   11.0680  -16.7077   22.3470 N   0  0  0  0  0  0  0  0  0  0  0  0
   13.4282  -16.9549   22.5898 C   0  0  0  0  0  0  0  0  0  0  0  0
   14.5830  -17.2094   22.0725 O   0  0  0  0  0  0  0  0  0  0  0  0
   13.3480  -17.2405   23.9224 O   0  0  0  0  0  0  0  0  0  0  0  0
  2 12  2  0
  2  1  1  0
  3  2  1  0
  4  5  1  0
  4  3  2  0
  5 11  2  0
  6  7  1  0
  6  5  1  0
  7  8  1  6
  9  7  1  0
  9 13  1  0
 10  9  2  0
 11 12  1  0
 13 14  1  0
 15 14  1  0
 15 16  2  0
 18 17  1  0
 19 18  2  0
 20 18  1  0
 21 22  1  0
 21 20  1  0
 22 23  1  0
 24 23  1  1
 24 25  1  0
 24 26  1  0
 25 15  1  0
 26 27  2  0
 26 28  1  0
M  END
$$$$
