YGR.pdb
     RDKit          3D

 28 28  0  0  1  0  0  0  0  0999 V2000
    7.7900  -12.2901   16.3429 O   0  0  0  0  0  0  0  0  0  0  0  0
    7.5940  -12.7971   17.6259 C   0  0  0  0  0  0  0  0  0  0  0  0
    8.5250  -12.5335   18.6202 C   0  0  0  0  0  0  0  0  0  0  0  0
    8.3384  -13.0316   19.8926 C   0  0  0  0  0  0  0  0  0  0  0  0
    7.2229  -13.7918   20.1703 C   0  0  0  0  0  0  0  0  0  0  0  0
    7.0410  -14.3192   21.5490 C   0  0  0  0  0  0  0  0  0  0  0  0
    7.9084  -15.5438   21.7611 C   0  0  2  0  0  0  0  0  0  0  0  0
    7.6363  -16.5290   20.7343 N   0  0  0  0  0  0  0  0  0  0  0  0
    7.6658  -16.0824   23.1160 C   0  0  0  0  0  0  0  0  0  0  0  0
    7.8335  -15.3718   24.1405 O   0  0  0  0  0  0  0  0  0  0  0  0
    6.3063  -14.0416   19.1593 C   0  0  0  0  0  0  0  0  0  0  0  0
    6.4618  -13.5607   17.8810 C   0  0  0  0  0  0  0  0  0  0  0  0
    7.2349  -17.4267   23.2777 N   0  0  0  0  0  0  0  0  0  0  0  0
    7.2233  -18.0714   24.5752 C   0  0  0  0  0  0  0  0  0  0  0  0
    8.5886  -18.5071   24.9728 C   0  0  0  0  0  0  0  0  0  0  0  0
    9.0232  -19.5793   24.4639 O   0  0  0  0  0  0  0  0  0  0  0  0
   11.9701  -14.7690   20.8622 N   0  0  0  0  0  0  0  0  0  0  0  0
   13.0684  -15.6172   21.1717 C   0  0  0  0  0  0  0  0  0  0  0  0
   13.9550  -15.8214   20.2518 N   0  0  0  0  0  0  0  0  0  0  0  0
   13.2113  -16.2324   22.4413 N   0  0  0  0  0  0  0  0  0  0  0  0
   12.2625  -15.8253   23.5035 C   0  0  0  0  0  0  0  0  0  0  0  0
   11.4954  -16.9888   23.9982 C   0  0  0  0  0  0  0  0  0  0  0  0
   11.6309  -17.3511   25.3914 C   0  0  0  0  0  0  0  0  0  0  0  0
   10.8046  -18.3230   26.1237 C   0  0  2  0  0  0  0  0  0  0  0  0
    9.3995  -17.7997   25.8667 N   0  0  0  0  0  0  0  0  0  0  0  0
   10.9347  -18.4240   27.5825 C   0  0  0  0  0  0  0  0  0  0  0  0
   11.9924  -19.0102   28.0336 O   0  0  0  0  0  0  0  0  0  0  0  0
   10.0940  -17.9779   28.5613 O   0  0  0  0  0  0  0  0  0  0  0  0
  2 12  2  0
  2  1  1  0
  3  2  1  0
  4  5  1  0
  4  3  2  0
  5 11  2  0
  6  7  1  0
  6  5  1  0
  7  8  1  6
  9  7  1  0
  9 13  1  0
 10  9  2  0
 11 12  1  0
 13 14  1  0
 15 14  1  0
 15 16  2  0
 18 17  1  0
 19 18  2  0
 20 18  1  0
 21 22  1  0
 21 20  1  0
 22 23  1  0
 24 23  1  1
 24 25  1  0
 24 26  1  0
 25 15  1  0
 26 27  2  0
 26 28  1  0
M  END
$$$$
