YGR.pdb
     RDKit          3D

 28 28  0  0  1  0  0  0  0  0999 V2000
    6.3811  -12.9806   27.7278 O   0  0  0  0  0  0  0  0  0  0  0  0
    6.9541  -12.9942   26.4577 C   0  0  0  0  0  0  0  0  0  0  0  0
    6.1431  -13.1065   25.3376 C   0  0  0  0  0  0  0  0  0  0  0  0
    6.7023  -13.1208   24.0770 C   0  0  0  0  0  0  0  0  0  0  0  0
    8.0698  -13.0229   23.9368 C   0  0  0  0  0  0  0  0  0  0  0  0
    8.6522  -13.0402   22.5683 C   0  0  0  0  0  0  0  0  0  0  0  0
    8.3181  -14.3444   21.8723 C   0  0  2  0  0  0  0  0  0  0  0  0
    6.9176  -14.6637   22.0615 N   0  0  0  0  0  0  0  0  0  0  0  0
    9.1989  -15.4119   22.3914 C   0  0  0  0  0  0  0  0  0  0  0  0
   10.4488  -15.3461   22.2644 O   0  0  0  0  0  0  0  0  0  0  0  0
    8.8595  -12.9115   25.0719 C   0  0  0  0  0  0  0  0  0  0  0  0
    8.3349  -12.8942   26.3423 C   0  0  0  0  0  0  0  0  0  0  0  0
    8.6354  -16.5389   23.0483 N   0  0  0  0  0  0  0  0  0  0  0  0
    9.4610  -17.6181   23.5512 C   0  0  0  0  0  0  0  0  0  0  0  0
    9.7479  -17.4469   25.0004 C   0  0  0  0  0  0  0  0  0  0  0  0
    9.3087  -16.4000   25.5558 O   0  0  0  0  0  0  0  0  0  0  0  0
   10.4280  -21.8006   31.6812 N   0  0  0  0  0  0  0  0  0  0  0  0
   11.0775  -22.6971   30.7891 C   0  0  0  0  0  0  0  0  0  0  0  0
   11.9324  -23.5324   31.2845 N   0  0  0  0  0  0  0  0  0  0  0  0
   10.8146  -22.6965   29.3957 N   0  0  0  0  0  0  0  0  0  0  0  0
    9.9178  -21.6389   28.8746 C   0  0  0  0  0  0  0  0  0  0  0  0
   10.6968  -20.4736   28.4029 C   0  0  0  0  0  0  0  0  0  0  0  0
    9.9776  -19.3705   27.8059 C   0  0  0  0  0  0  0  0  0  0  0  0
   10.5674  -18.1370   27.2634 C   0  0  2  0  0  0  0  0  0  0  0  0
   10.4674  -18.3724   25.7639 N   0  0  0  0  0  0  0  0  0  0  0  0
   11.9798  -17.8371   27.5292 C   0  0  0  0  0  0  0  0  0  0  0  0
   12.8158  -18.0787   26.5761 O   0  0  0  0  0  0  0  0  0  0  0  0
   12.5610  -17.3235   28.6528 O   0  0  0  0  0  0  0  0  0  0  0  0
  2 12  2  0
  2  1  1  0
  3  2  1  0
  4  5  1  0
  4  3  2  0
  5 11  2  0
  6  7  1  0
  6  5  1  0
  7  8  1  1
  9  7  1  0
  9 13  1  0
 10  9  2  0
 11 12  1  0
 13 14  1  0
 15 14  1  0
 15 16  2  0
 18 17  1  0
 19 18  2  0
 20 18  1  0
 21 22  1  0
 21 20  1  0
 22 23  1  0
 24 23  1  1
 24 25  1  0
 24 26  1  0
 25 15  1  0
 26 27  2  0
 26 28  1  0
M  END
$$$$
