EGK.pdb
     RDKit          3D

 23 22  0  0  1  0  0  0  0  0999 V2000
   23.9516  -20.0186  -15.7215 N   0  0  0  0  0  0  0  0  0  0  0  0
   22.8679  -19.0740  -15.6031 C   0  0  1  0  0  0  0  0  0  0  0  0
   21.9799  -19.0865  -16.8247 C   0  0  0  0  0  0  0  0  0  0  0  0
   21.8962  -20.4698  -17.4192 C   0  0  0  0  0  0  0  0  0  0  0  0
   20.5521  -20.6559  -18.0004 C   0  0  0  0  0  0  0  0  0  0  0  0
   19.7007  -19.7508  -17.9007 O   0  0  0  0  0  0  0  0  0  0  0  0
   22.0484  -19.2566  -14.4034 C   0  0  0  0  0  0  0  0  0  0  0  0
   21.1348  -18.4388  -14.1449 O   0  0  0  0  0  0  0  0  0  0  0  0
   20.2278  -21.8228  -18.6537 O   0  0  0  0  0  0  0  0  0  0  0  0
   22.2178  -20.3283  -13.4760 N   0  0  0  0  0  0  0  0  0  0  0  0
   21.3388  -20.6054  -12.3771 C   0  0  0  0  0  0  0  0  0  0  0  0
   20.3299  -21.6365  -12.6330 C   0  0  0  0  0  0  0  0  0  0  0  0
   20.3629  -22.2717  -13.7212 O   0  0  0  0  0  0  0  0  0  0  0  0
   19.2991  -21.9926  -11.7508 N   0  0  0  0  0  0  0  0  0  0  0  0
   18.3287  -23.0620  -11.9838 C   0  0  1  0  0  0  0  0  0  0  0  0
   18.1737  -23.7726  -10.6947 C   0  0  0  0  0  0  0  0  0  0  0  0
   17.8517  -25.2163  -10.7296 C   0  0  0  0  0  0  0  0  0  0  0  0
   17.8168  -25.9493   -9.4403 C   0  0  0  0  0  0  0  0  0  0  0  0
   17.5433  -27.4217   -9.6035 C   0  0  0  0  0  0  0  0  0  0  0  0
   17.6886  -28.1390   -8.3522 N   0  0  0  0  0  0  0  0  0  0  0  0
   17.1563  -22.6269  -12.7020 C   0  0  0  0  0  0  0  0  0  0  0  0
   16.7489  -21.2724  -12.7805 O   0  0  0  0  0  0  0  0  0  0  0  0
   16.3835  -23.3983  -13.3260 O   0  0  0  0  0  0  0  0  0  0  0  0
  2  1  1  6
  2  7  1  0
  3  2  1  0
  4  3  1  0
  5  4  1  0
  6  5  2  0
  7 10  1  0
  8  7  2  0
  9  5  1  0
 10 11  1  0
 11 12  1  0
 12 13  2  0
 12 14  1  0
 14 15  1  0
 15 21  1  0
 15 16  1  1
 17 16  1  0
 18 17  1  0
 19 18  1  0
 20 19  1  0
 21 23  2  0
 21 22  1  0
M  END
$$$$
