EGK.pdb
     RDKit          3D

 23 22  0  0  1  0  0  0  0  0999 V2000
   24.0018  -12.8401  -19.2356 N   0  0  0  0  0  0  0  0  0  0  0  0
   23.8242  -13.3877  -17.9130 C   0  0  1  0  0  0  0  0  0  0  0  0
   24.8617  -14.4396  -17.5997 C   0  0  0  0  0  0  0  0  0  0  0  0
   24.7711  -15.5941  -18.5657 C   0  0  0  0  0  0  0  0  0  0  0  0
   24.0064  -16.6853  -17.9305 C   0  0  0  0  0  0  0  0  0  0  0  0
   23.6402  -16.5790  -16.7437 O   0  0  0  0  0  0  0  0  0  0  0  0
   23.8143  -12.3814  -16.8492 C   0  0  0  0  0  0  0  0  0  0  0  0
   23.5919  -12.7302  -15.6663 O   0  0  0  0  0  0  0  0  0  0  0  0
   23.6924  -17.8232  -18.6377 O   0  0  0  0  0  0  0  0  0  0  0  0
   24.0445  -10.9893  -17.0647 N   0  0  0  0  0  0  0  0  0  0  0  0
   23.9118   -9.9737  -16.0607 C   0  0  0  0  0  0  0  0  0  0  0  0
   22.8425   -9.0007  -16.2987 C   0  0  0  0  0  0  0  0  0  0  0  0
   22.3297   -8.9201  -17.4472 O   0  0  0  0  0  0  0  0  0  0  0  0
   22.3213   -8.1239  -15.3358 N   0  0  0  0  0  0  0  0  0  0  0  0
   21.2088   -7.2004  -15.5580 C   0  0  1  0  0  0  0  0  0  0  0  0
   20.1156   -8.0005  -16.1543 C   0  0  0  0  0  0  0  0  0  0  0  0
   18.8496   -7.3109  -16.4871 C   0  0  0  0  0  0  0  0  0  0  0  0
   17.7227   -8.1359  -16.9876 C   0  0  0  0  0  0  0  0  0  0  0  0
   16.5018   -7.3235  -17.3326 C   0  0  0  0  0  0  0  0  0  0  0  0
   15.3586   -8.1657  -17.6246 N   0  0  0  0  0  0  0  0  0  0  0  0
   20.9331   -6.3508  -14.4259 C   0  0  0  0  0  0  0  0  0  0  0  0
   20.3415   -5.0688  -14.5399 O   0  0  0  0  0  0  0  0  0  0  0  0
   21.1871   -6.6587  -13.2332 O   0  0  0  0  0  0  0  0  0  0  0  0
  2  1  1  6
  2  7  1  0
  3  2  1  0
  4  3  1  0
  5  4  1  0
  6  5  2  0
  7 10  1  0
  8  7  2  0
  9  5  1  0
 10 11  1  0
 11 12  1  0
 12 13  2  0
 12 14  1  0
 14 15  1  0
 15 21  1  0
 15 16  1  1
 17 16  1  0
 18 17  1  0
 19 18  1  0
 20 19  1  0
 21 23  2  0
 21 22  1  0
M  END
$$$$
