EGK.pdb
     RDKit          3D

 23 22  0  0  1  0  0  0  0  0999 V2000
   23.3512  -21.0275  -16.5793 N   0  0  0  0  0  0  0  0  0  0  0  0
   23.9366  -20.3340  -15.4581 C   0  0  1  0  0  0  0  0  0  0  0  0
   24.4742  -18.9801  -15.8573 C   0  0  0  0  0  0  0  0  0  0  0  0
   23.3892  -18.1226  -16.4586 C   0  0  0  0  0  0  0  0  0  0  0  0
   23.9983  -16.8828  -16.9792 C   0  0  0  0  0  0  0  0  0  0  0  0
   23.8280  -15.8053  -16.3760 O   0  0  0  0  0  0  0  0  0  0  0  0
   23.0335  -20.1818  -14.3156 C   0  0  0  0  0  0  0  0  0  0  0  0
   23.4984  -19.8769  -13.1925 O   0  0  0  0  0  0  0  0  0  0  0  0
   24.7552  -16.9043  -18.1283 O   0  0  0  0  0  0  0  0  0  0  0  0
   21.6192  -20.3617  -14.3861 N   0  0  0  0  0  0  0  0  0  0  0  0
   20.7524  -20.4807  -13.2496 C   0  0  0  0  0  0  0  0  0  0  0  0
   19.8960  -21.6694  -13.2431 C   0  0  0  0  0  0  0  0  0  0  0  0
   19.9485  -22.4698  -14.2154 O   0  0  0  0  0  0  0  0  0  0  0  0
   18.9952  -22.0086  -12.2227 N   0  0  0  0  0  0  0  0  0  0  0  0
   18.0286  -23.1045  -12.2882 C   0  0  1  0  0  0  0  0  0  0  0  0
   17.5765  -23.3454  -10.8996 C   0  0  0  0  0  0  0  0  0  0  0  0
   18.5202  -23.9939   -9.9625 C   0  0  0  0  0  0  0  0  0  0  0  0
   18.1288  -24.0787   -8.5340 C   0  0  0  0  0  0  0  0  0  0  0  0
   19.1389  -24.8065   -7.6858 C   0  0  0  0  0  0  0  0  0  0  0  0
   18.7997  -24.7518   -6.2774 N   0  0  0  0  0  0  0  0  0  0  0  0
   17.0519  -22.9466  -13.3374 C   0  0  0  0  0  0  0  0  0  0  0  0
   16.6052  -24.0151  -14.1531 O   0  0  0  0  0  0  0  0  0  0  0  0
   16.5023  -21.8545  -13.6321 O   0  0  0  0  0  0  0  0  0  0  0  0
  2  1  1  6
  2  7  1  0
  3  2  1  0
  4  3  1  0
  5  4  1  0
  6  5  2  0
  7 10  1  0
  8  7  2  0
  9  5  1  0
 10 11  1  0
 11 12  1  0
 12 13  2  0
 12 14  1  0
 14 15  1  0
 15 21  1  0
 15 16  1  1
 17 16  1  0
 18 17  1  0
 19 18  1  0
 20 19  1  0
 21 23  2  0
 21 22  1  0
M  END
$$$$
