EGK.pdb
     RDKit          3D

 23 22  0  0  1  0  0  0  0  0999 V2000
   25.1899  -19.1228  -18.5716 N   0  0  0  0  0  0  0  0  0  0  0  0
   24.5287  -18.4886  -17.4574 C   0  0  1  0  0  0  0  0  0  0  0  0
   23.3321  -19.2837  -16.9914 C   0  0  0  0  0  0  0  0  0  0  0  0
   22.0604  -18.7616  -17.6110 C   0  0  0  0  0  0  0  0  0  0  0  0
   20.9116  -19.4409  -16.9802 C   0  0  0  0  0  0  0  0  0  0  0  0
   21.1061  -20.3523  -16.1522 O   0  0  0  0  0  0  0  0  0  0  0  0
   25.4087  -18.2201  -16.3182 C   0  0  0  0  0  0  0  0  0  0  0  0
   24.9783  -17.5623  -15.3423 O   0  0  0  0  0  0  0  0  0  0  0  0
   19.6231  -19.0771  -17.2979 O   0  0  0  0  0  0  0  0  0  0  0  0
   26.7627  -18.6636  -16.2332 N   0  0  0  0  0  0  0  0  0  0  0  0
   27.6041  -18.5057  -15.0824 C   0  0  0  0  0  0  0  0  0  0  0  0
   27.2408  -19.3327  -13.9289 C   0  0  0  0  0  0  0  0  0  0  0  0
   27.6265  -18.9876  -12.7796 O   0  0  0  0  0  0  0  0  0  0  0  0
   26.4798  -20.5096  -13.9882 N   0  0  0  0  0  0  0  0  0  0  0  0
   26.0866  -21.3126  -12.8305 C   0  0  1  0  0  0  0  0  0  0  0  0
   25.1692  -20.4702  -12.0309 C   0  0  0  0  0  0  0  0  0  0  0  0
   24.5478  -21.0657  -10.8274 C   0  0  0  0  0  0  0  0  0  0  0  0
   23.5462  -20.2550  -10.0922 C   0  0  0  0  0  0  0  0  0  0  0  0
   22.9759  -20.9646   -8.8919 C   0  0  0  0  0  0  0  0  0  0  0  0
   21.9470  -20.1789   -8.2396 N   0  0  0  0  0  0  0  0  0  0  0  0
   25.7012  -22.6600  -13.1706 C   0  0  0  0  0  0  0  0  0  0  0  0
   25.7396  -23.7368  -12.2510 O   0  0  0  0  0  0  0  0  0  0  0  0
   25.2953  -23.0128  -14.3075 O   0  0  0  0  0  0  0  0  0  0  0  0
  2  1  1  6
  2  7  1  0
  3  2  1  0
  4  3  1  0
  5  4  1  0
  6  5  2  0
  7 10  1  0
  8  7  2  0
  9  5  1  0
 10 11  1  0
 11 12  1  0
 12 13  2  0
 12 14  1  0
 14 15  1  0
 15 21  1  0
 15 16  1  6
 17 16  1  0
 18 17  1  0
 19 18  1  0
 20 19  1  0
 21 23  2  0
 21 22  1  0
M  END
$$$$
