EGK.pdb
     RDKit          3D

 23 22  0  0  1  0  0  0  0  0999 V2000
   14.2780   -7.1303  -17.5592 N   0  0  0  0  0  0  0  0  0  0  0  0
   15.3908   -8.0406  -17.6761 C   0  0  1  0  0  0  0  0  0  0  0  0
   15.2139   -8.9934  -18.8346 C   0  0  0  0  0  0  0  0  0  0  0  0
   14.1832  -10.0472  -18.5165 C   0  0  0  0  0  0  0  0  0  0  0  0
   14.8038  -11.0733  -17.6557 C   0  0  0  0  0  0  0  0  0  0  0  0
   14.3814  -11.2509  -16.4964 O   0  0  0  0  0  0  0  0  0  0  0  0
   16.6921   -7.3781  -17.7848 C   0  0  0  0  0  0  0  0  0  0  0  0
   16.9899   -6.7624  -18.8349 O   0  0  0  0  0  0  0  0  0  0  0  0
   15.8481  -11.8389  -18.1216 O   0  0  0  0  0  0  0  0  0  0  0  0
   17.6787   -7.3818  -16.7534 N   0  0  0  0  0  0  0  0  0  0  0  0
   18.9696   -6.7650  -16.8544 C   0  0  0  0  0  0  0  0  0  0  0  0
   19.8305   -6.9295  -15.6804 C   0  0  0  0  0  0  0  0  0  0  0  0
   19.3591   -7.4698  -14.6437 O   0  0  0  0  0  0  0  0  0  0  0  0
   21.1725   -6.5286  -15.6021 N   0  0  0  0  0  0  0  0  0  0  0  0
   22.0236   -6.6761  -14.4216 C   0  0  1  0  0  0  0  0  0  0  0  0
   23.1701   -7.5152  -14.8364 C   0  0  0  0  0  0  0  0  0  0  0  0
   22.9095   -8.9311  -15.1774 C   0  0  0  0  0  0  0  0  0  0  0  0
   24.0697   -9.7797  -15.5445 C   0  0  0  0  0  0  0  0  0  0  0  0
   23.6927  -11.2128  -15.8158 C   0  0  0  0  0  0  0  0  0  0  0  0
   24.8579  -12.0399  -16.0600 N   0  0  0  0  0  0  0  0  0  0  0  0
   22.2642   -5.4345  -13.7286 C   0  0  0  0  0  0  0  0  0  0  0  0
   22.5686   -5.3598  -12.3472 O   0  0  0  0  0  0  0  0  0  0  0  0
   22.2289   -4.3023  -14.2750 O   0  0  0  0  0  0  0  0  0  0  0  0
  2  1  1  6
  2  7  1  0
  3  2  1  0
  4  3  1  0
  5  4  1  0
  6  5  2  0
  7 10  1  0
  8  7  2  0
  9  5  1  0
 10 11  1  0
 11 12  1  0
 12 13  2  0
 12 14  1  0
 14 15  1  0
 15 21  1  0
 15 16  1  6
 17 16  1  0
 18 17  1  0
 19 18  1  0
 20 19  1  0
 21 23  2  0
 21 22  1  0
M  END
$$$$
