EGK.pdb
     RDKit          3D

 23 22  0  0  1  0  0  0  0  0999 V2000
   20.2680  -10.7206  -15.3191 N   0  0  0  0  0  0  0  0  0  0  0  0
   21.2728   -9.7169  -15.0670 C   0  0  1  0  0  0  0  0  0  0  0  0
   22.1030   -9.4360  -16.2971 C   0  0  0  0  0  0  0  0  0  0  0  0
   22.6499  -10.7127  -16.8845 C   0  0  0  0  0  0  0  0  0  0  0  0
   23.2726  -10.4069  -18.1874 C   0  0  0  0  0  0  0  0  0  0  0  0
   23.2610   -9.2391  -18.6235 O   0  0  0  0  0  0  0  0  0  0  0  0
   20.7380   -8.4587  -14.5426 C   0  0  0  0  0  0  0  0  0  0  0  0
   21.5241   -7.5674  -14.1450 O   0  0  0  0  0  0  0  0  0  0  0  0
   23.8682  -11.4015  -18.9287 O   0  0  0  0  0  0  0  0  0  0  0  0
   19.3453   -8.1618  -14.4455 N   0  0  0  0  0  0  0  0  0  0  0  0
   18.8046   -6.9303  -13.9472 C   0  0  0  0  0  0  0  0  0  0  0  0
   18.2320   -7.0029  -12.6006 C   0  0  0  0  0  0  0  0  0  0  0  0
   18.3170   -8.0816  -11.9541 O   0  0  0  0  0  0  0  0  0  0  0  0
   17.5777   -5.9495  -11.9448 N   0  0  0  0  0  0  0  0  0  0  0  0
   16.9115   -6.0554  -10.6468 C   0  0  1  0  0  0  0  0  0  0  0  0
   15.8600   -7.0855  -10.8007 C   0  0  0  0  0  0  0  0  0  0  0  0
   15.1561   -7.5493   -9.5846 C   0  0  0  0  0  0  0  0  0  0  0  0
   14.1617   -8.6400   -9.7338 C   0  0  0  0  0  0  0  0  0  0  0  0
   13.4999   -9.0195   -8.4348 C   0  0  0  0  0  0  0  0  0  0  0  0
   12.5298  -10.0817   -8.6141 N   0  0  0  0  0  0  0  0  0  0  0  0
   17.8277   -6.1339   -9.5360 C   0  0  0  0  0  0  0  0  0  0  0  0
   17.4270   -5.9949   -8.1844 O   0  0  0  0  0  0  0  0  0  0  0  0
   19.0642   -6.3323   -9.6529 O   0  0  0  0  0  0  0  0  0  0  0  0
  2  1  1  6
  2  7  1  0
  3  2  1  0
  4  3  1  0
  5  4  1  0
  6  5  2  0
  7 10  1  0
  8  7  2  0
  9  5  1  0
 10 11  1  0
 11 12  1  0
 12 13  2  0
 12 14  1  0
 14 15  1  0
 15 21  1  0
 15 16  1  6
 17 16  1  0
 18 17  1  0
 19 18  1  0
 20 19  1  0
 21 23  2  0
 21 22  1  0
M  END
$$$$
