EGK.pdb
     RDKit          3D

 23 22  0  0  1  0  0  0  0  0999 V2000
   26.7345  -19.6820  -13.2100 N   0  0  0  0  0  0  0  0  0  0  0  0
   27.8035  -19.2039  -14.0523 C   0  0  1  0  0  0  0  0  0  0  0  0
   28.0958  -20.1624  -15.1824 C   0  0  0  0  0  0  0  0  0  0  0  0
   26.8883  -21.0074  -15.5017 C   0  0  0  0  0  0  0  0  0  0  0  0
   27.2395  -21.9465  -16.5851 C   0  0  0  0  0  0  0  0  0  0  0  0
   26.9864  -21.6521  -17.7697 O   0  0  0  0  0  0  0  0  0  0  0  0
   27.5773  -17.8635  -14.5968 C   0  0  0  0  0  0  0  0  0  0  0  0
   28.4048  -17.3710  -15.3987 O   0  0  0  0  0  0  0  0  0  0  0  0
   27.8459  -23.1484  -16.2998 O   0  0  0  0  0  0  0  0  0  0  0  0
   26.4509  -17.0492  -14.2720 N   0  0  0  0  0  0  0  0  0  0  0  0
   26.2373  -15.7172  -14.7591 C   0  0  0  0  0  0  0  0  0  0  0  0
   25.2731  -15.6042  -15.8564 C   0  0  0  0  0  0  0  0  0  0  0  0
   25.3485  -16.4064  -16.8257 O   0  0  0  0  0  0  0  0  0  0  0  0
   24.2421  -14.6557  -15.9294 N   0  0  0  0  0  0  0  0  0  0  0  0
   23.1911  -14.6370  -16.9465 C   0  0  1  0  0  0  0  0  0  0  0  0
   22.1181  -15.5295  -16.4538 C   0  0  0  0  0  0  0  0  0  0  0  0
   21.9953  -16.8727  -17.0622 C   0  0  0  0  0  0  0  0  0  0  0  0
   20.6735  -17.5433  -16.9986 C   0  0  0  0  0  0  0  0  0  0  0  0
   20.6661  -18.9003  -17.6530 C   0  0  0  0  0  0  0  0  0  0  0  0
   19.3392  -19.4839  -17.6688 N   0  0  0  0  0  0  0  0  0  0  0  0
   22.8590  -13.3105  -17.4046 C   0  0  0  0  0  0  0  0  0  0  0  0
   22.4026  -13.0309  -18.7161 O   0  0  0  0  0  0  0  0  0  0  0  0
   22.9399  -12.2767  -16.6930 O   0  0  0  0  0  0  0  0  0  0  0  0
  2  1  1  6
  2  7  1  0
  3  2  1  0
  4  3  1  0
  5  4  1  0
  6  5  2  0
  7 10  1  0
  8  7  2  0
  9  5  1  0
 10 11  1  0
 11 12  1  0
 12 13  2  0
 12 14  1  0
 14 15  1  0
 15 21  1  0
 15 16  1  1
 17 16  1  0
 18 17  1  0
 19 18  1  0
 20 19  1  0
 21 23  2  0
 21 22  1  0
M  END
$$$$
