EGK.pdb
     RDKit          3D

 23 22  0  0  1  0  0  0  0  0999 V2000
   21.4934  -21.2960  -16.7273 N   0  0  0  0  0  0  0  0  0  0  0  0
   21.9442  -19.9707  -16.3792 C   0  0  1  0  0  0  0  0  0  0  0  0
   20.9594  -18.9125  -16.8169 C   0  0  0  0  0  0  0  0  0  0  0  0
   20.8126  -18.8970  -18.3176 C   0  0  0  0  0  0  0  0  0  0  0  0
   21.8548  -18.0204  -18.8872 C   0  0  0  0  0  0  0  0  0  0  0  0
   22.8151  -18.5177  -19.5071 O   0  0  0  0  0  0  0  0  0  0  0  0
   22.2431  -19.7990  -14.9560 C   0  0  0  0  0  0  0  0  0  0  0  0
   22.5840  -18.6731  -14.5243 O   0  0  0  0  0  0  0  0  0  0  0  0
   21.7769  -16.6544  -18.7403 O   0  0  0  0  0  0  0  0  0  0  0  0
   22.1749  -20.8505  -13.9932 N   0  0  0  0  0  0  0  0  0  0  0  0
   22.4308  -20.6929  -12.5908 C   0  0  0  0  0  0  0  0  0  0  0  0
   23.8467  -20.6136  -12.2226 C   0  0  0  0  0  0  0  0  0  0  0  0
   24.7233  -20.8245  -13.1034 O   0  0  0  0  0  0  0  0  0  0  0  0
   24.3309  -20.3155  -10.9403 N   0  0  0  0  0  0  0  0  0  0  0  0
   25.7417  -20.3245  -10.5541 C   0  0  1  0  0  0  0  0  0  0  0  0
   25.7792  -20.0276   -9.1046 C   0  0  0  0  0  0  0  0  0  0  0  0
   27.0976  -19.9978   -8.4337 C   0  0  0  0  0  0  0  0  0  0  0  0
   27.1397  -19.5915   -7.0075 C   0  0  0  0  0  0  0  0  0  0  0  0
   28.5339  -19.5762   -6.4371 C   0  0  0  0  0  0  0  0  0  0  0  0
   28.5524  -19.0905   -5.0714 N   0  0  0  0  0  0  0  0  0  0  0  0
   26.4702  -21.4583  -11.0675 C   0  0  0  0  0  0  0  0  0  0  0  0
   27.7520  -21.3564  -11.6617 O   0  0  0  0  0  0  0  0  0  0  0  0
   26.0458  -22.6418  -11.0399 O   0  0  0  0  0  0  0  0  0  0  0  0
  2  1  1  1
  2  7  1  0
  3  2  1  0
  4  3  1  0
  5  4  1  0
  6  5  2  0
  7 10  1  0
  8  7  2  0
  9  5  1  0
 10 11  1  0
 11 12  1  0
 12 13  2  0
 12 14  1  0
 14 15  1  0
 15 21  1  0
 15 16  1  1
 17 16  1  0
 18 17  1  0
 19 18  1  0
 20 19  1  0
 21 23  2  0
 21 22  1  0
M  END
$$$$
