EGK.pdb
     RDKit          3D

 23 22  0  0  1  0  0  0  0  0999 V2000
   24.7046  -22.6448  -12.8958 N   0  0  0  0  0  0  0  0  0  0  0  0
   24.3691  -21.4006  -13.5442 C   0  0  1  0  0  0  0  0  0  0  0  0
   23.4504  -20.5568  -12.6926 C   0  0  0  0  0  0  0  0  0  0  0  0
   22.1914  -21.3100  -12.3440 C   0  0  0  0  0  0  0  0  0  0  0  0
   21.3728  -20.4747  -11.4433 C   0  0  0  0  0  0  0  0  0  0  0  0
   21.7588  -19.3304  -11.1345 O   0  0  0  0  0  0  0  0  0  0  0  0
   25.5321  -20.6048  -13.9419 C   0  0  0  0  0  0  0  0  0  0  0  0
   25.3667  -19.5383  -14.5786 O   0  0  0  0  0  0  0  0  0  0  0  0
   20.1832  -20.9481  -10.9390 O   0  0  0  0  0  0  0  0  0  0  0  0
   26.8826  -20.9641  -13.6514 N   0  0  0  0  0  0  0  0  0  0  0  0
   28.0345  -20.2150  -14.0627 C   0  0  0  0  0  0  0  0  0  0  0  0
   28.2633  -20.1712  -15.5091 C   0  0  0  0  0  0  0  0  0  0  0  0
   28.8574  -21.1330  -16.0666 O   0  0  0  0  0  0  0  0  0  0  0  0
   27.8696  -19.1249  -16.3564 N   0  0  0  0  0  0  0  0  0  0  0  0
   27.5705  -19.2677  -17.7812 C   0  0  1  0  0  0  0  0  0  0  0  0
   26.5976  -20.3774  -17.8938 C   0  0  0  0  0  0  0  0  0  0  0  0
   26.1066  -20.7390  -19.2419 C   0  0  0  0  0  0  0  0  0  0  0  0
   25.0739  -21.7995  -19.3412 C   0  0  0  0  0  0  0  0  0  0  0  0
   24.6223  -22.0555  -20.7554 C   0  0  0  0  0  0  0  0  0  0  0  0
   23.7148  -23.1830  -20.8358 N   0  0  0  0  0  0  0  0  0  0  0  0
   27.2989  -18.0136  -18.4393 C   0  0  0  0  0  0  0  0  0  0  0  0
   27.5517  -17.7846  -19.8142 O   0  0  0  0  0  0  0  0  0  0  0  0
   26.8144  -17.0051  -17.8650 O   0  0  0  0  0  0  0  0  0  0  0  0
  2  1  1  1
  2  7  1  0
  3  2  1  0
  4  3  1  0
  5  4  1  0
  6  5  2  0
  7 10  1  0
  8  7  2  0
  9  5  1  0
 10 11  1  0
 11 12  1  0
 12 13  2  0
 12 14  1  0
 14 15  1  0
 15 21  1  0
 15 16  1  1
 17 16  1  0
 18 17  1  0
 19 18  1  0
 20 19  1  0
 21 23  2  0
 21 22  1  0
M  END
$$$$
