EGK.pdb
     RDKit          3D

 23 22  0  0  1  0  0  0  0  0999 V2000
   23.3017   -7.1320  -17.9528 N   0  0  0  0  0  0  0  0  0  0  0  0
   22.3365   -6.4995  -17.0874 C   0  0  1  0  0  0  0  0  0  0  0  0
   21.2627   -5.7866  -17.8748 C   0  0  0  0  0  0  0  0  0  0  0  0
   20.5773   -6.7289  -18.8320 C   0  0  0  0  0  0  0  0  0  0  0  0
   19.5114   -5.9934  -19.5404 C   0  0  0  0  0  0  0  0  0  0  0  0
   18.3649   -6.4772  -19.6135 O   0  0  0  0  0  0  0  0  0  0  0  0
   21.7118   -7.4110  -16.1266 C   0  0  0  0  0  0  0  0  0  0  0  0
   20.9796   -6.9511  -15.2196 O   0  0  0  0  0  0  0  0  0  0  0  0
   19.7713   -4.7742  -20.1232 O   0  0  0  0  0  0  0  0  0  0  0  0
   21.8803   -8.8283  -16.1447 N   0  0  0  0  0  0  0  0  0  0  0  0
   21.2239   -9.7411  -15.2542 C   0  0  0  0  0  0  0  0  0  0  0  0
   19.9138  -10.2164  -15.7065 C   0  0  0  0  0  0  0  0  0  0  0  0
   19.4152   -9.7345  -16.7590 O   0  0  0  0  0  0  0  0  0  0  0  0
   19.1400  -11.1885  -15.0553 N   0  0  0  0  0  0  0  0  0  0  0  0
   17.8545  -11.6957  -15.5349 C   0  0  1  0  0  0  0  0  0  0  0  0
   17.7817  -13.1125  -15.1130 C   0  0  0  0  0  0  0  0  0  0  0  0
   16.8187  -13.9968  -15.8057 C   0  0  0  0  0  0  0  0  0  0  0  0
   16.7407  -15.4125  -15.3689 C   0  0  0  0  0  0  0  0  0  0  0  0
   15.7194  -16.2128  -16.1343 C   0  0  0  0  0  0  0  0  0  0  0  0
   15.7930  -17.6253  -15.8167 N   0  0  0  0  0  0  0  0  0  0  0  0
   16.7490  -10.8125  -15.2566 C   0  0  0  0  0  0  0  0  0  0  0  0
   15.6843  -10.5876  -16.1634 O   0  0  0  0  0  0  0  0  0  0  0  0
   16.6186  -10.1584  -14.1904 O   0  0  0  0  0  0  0  0  0  0  0  0
  2  1  1  6
  2  7  1  0
  3  2  1  0
  4  3  1  0
  5  4  1  0
  6  5  2  0
  7 10  1  0
  8  7  2  0
  9  5  1  0
 10 11  1  0
 11 12  1  0
 12 13  2  0
 12 14  1  0
 14 15  1  0
 15 21  1  0
 15 16  1  1
 17 16  1  0
 18 17  1  0
 19 18  1  0
 20 19  1  0
 21 23  2  0
 21 22  1  0
M  END
$$$$
