EGK.pdb
     RDKit          3D

 23 22  0  0  1  0  0  0  0  0999 V2000
   28.6838   -9.2943  -16.8803 N   0  0  0  0  0  0  0  0  0  0  0  0
   27.7535  -10.0477  -17.6850 C   0  0  1  0  0  0  0  0  0  0  0  0
   28.3105  -11.3993  -18.0650 C   0  0  0  0  0  0  0  0  0  0  0  0
   29.5973  -11.2568  -18.8381 C   0  0  0  0  0  0  0  0  0  0  0  0
   30.1387  -12.6028  -19.1104 C   0  0  0  0  0  0  0  0  0  0  0  0
   31.1479  -13.0028  -18.4977 O   0  0  0  0  0  0  0  0  0  0  0  0
   26.4368  -10.2196  -17.0678 C   0  0  0  0  0  0  0  0  0  0  0  0
   25.5097  -10.7531  -17.7206 O   0  0  0  0  0  0  0  0  0  0  0  0
   29.5385  -13.4238  -20.0374 O   0  0  0  0  0  0  0  0  0  0  0  0
   26.1189   -9.8112  -15.7376 N   0  0  0  0  0  0  0  0  0  0  0  0
   24.8300   -9.9533  -15.1246 C   0  0  0  0  0  0  0  0  0  0  0  0
   23.8167   -8.9982  -15.5801 C   0  0  0  0  0  0  0  0  0  0  0  0
   24.1467   -8.0931  -16.3928 O   0  0  0  0  0  0  0  0  0  0  0  0
   22.4715   -8.9988  -15.1822 N   0  0  0  0  0  0  0  0  0  0  0  0
   21.4492   -8.0800  -15.6824 C   0  0  1  0  0  0  0  0  0  0  0  0
   20.2302   -8.8909  -15.8999 C   0  0  0  0  0  0  0  0  0  0  0  0
   19.0054   -8.1982  -16.3572 C   0  0  0  0  0  0  0  0  0  0  0  0
   17.7854   -9.0156  -16.5678 C   0  0  0  0  0  0  0  0  0  0  0  0
   16.6086   -8.2091  -17.0517 C   0  0  0  0  0  0  0  0  0  0  0  0
   15.4456   -9.0413  -17.2891 N   0  0  0  0  0  0  0  0  0  0  0  0
   21.3627   -6.8527  -14.9302 C   0  0  0  0  0  0  0  0  0  0  0  0
   20.9844   -5.6133  -15.5024 O   0  0  0  0  0  0  0  0  0  0  0  0
   21.6118   -6.7586  -13.7010 O   0  0  0  0  0  0  0  0  0  0  0  0
  2  1  1  1
  2  7  1  0
  3  2  1  0
  4  3  1  0
  5  4  1  0
  6  5  2  0
  7 10  1  0
  8  7  2  0
  9  5  1  0
 10 11  1  0
 11 12  1  0
 12 13  2  0
 12 14  1  0
 14 15  1  0
 15 21  1  0
 15 16  1  1
 17 16  1  0
 18 17  1  0
 19 18  1  0
 20 19  1  0
 21 23  2  0
 21 22  1  0
M  END
$$$$
