HHM.pdb
     RDKit          3D

 29 30  0  0  1  0  0  0  0  0999 V2000
    7.4122  -17.0752   20.1659 N   0  0  0  0  0  0  0  0  0  0  0  0
    8.2959  -16.1928   20.9298 C   0  0  1  0  0  0  0  0  0  0  0  0
    7.6305  -14.8440   21.1054 C   0  0  0  0  0  0  0  0  0  0  0  0
    7.9519  -13.9427   19.9635 C   0  0  0  0  0  0  0  0  0  0  0  0
    8.7557  -14.1891   18.8799 C   0  0  0  0  0  0  0  0  0  0  0  0
    8.7399  -13.0809   18.1191 N   0  0  0  0  0  0  0  0  0  0  0  0
    7.9634  -12.1664   18.6870 C   0  0  0  0  0  0  0  0  0  0  0  0
    7.4794  -12.6961   19.8199 N   0  0  0  0  0  0  0  0  0  0  0  0
    8.5146  -16.8330   22.2443 C   0  0  0  0  0  0  0  0  0  0  0  0
    7.5445  -17.2988   22.9018 O   0  0  0  0  0  0  0  0  0  0  0  0
    9.8072  -16.9589   22.8346 N   0  0  0  0  0  0  0  0  0  0  0  0
   10.0572  -17.5523   24.1078 C   0  0  1  0  0  0  0  0  0  0  0  0
   11.2566  -18.4859   24.1244 C   0  0  0  0  0  0  0  0  0  0  0  0
   10.9755  -19.7707   23.4775 C   0  0  0  0  0  0  0  0  0  0  0  0
    9.8007  -20.2477   22.9325 C   0  0  0  0  0  0  0  0  0  0  0  0
   10.0018  -21.4748   22.4490 N   0  0  0  0  0  0  0  0  0  0  0  0
   11.2895  -21.7890   22.6774 C   0  0  0  0  0  0  0  0  0  0  0  0
   11.8742  -20.7573   23.2987 N   0  0  0  0  0  0  0  0  0  0  0  0
   10.2477  -16.5199   25.1811 C   0  0  0  0  0  0  0  0  0  0  0  0
   11.1530  -15.6593   25.0414 O   0  0  0  0  0  0  0  0  0  0  0  0
    7.0544  -11.5578   25.7606 C   0  0  0  0  0  0  0  0  0  0  0  0
    7.3751  -13.3230   25.9984 S   0  0  0  0  0  0  0  0  0  0  0  0
    8.1518  -13.5623   27.5945 C   0  0  0  0  0  0  0  0  0  0  0  0
    8.4871  -14.9668   27.9184 C   0  0  0  0  0  0  0  0  0  0  0  0
    9.7796  -15.4565   27.4164 C   0  0  2  0  0  0  0  0  0  0  0  0
    9.4582  -16.4691   26.3408 N   0  0  0  0  0  0  0  0  0  0  0  0
   10.6044  -16.1178   28.4222 C   0  0  0  0  0  0  0  0  0  0  0  0
   10.8464  -17.5055   28.3163 O   0  0  0  0  0  0  0  0  0  0  0  0
   11.1354  -15.5710   29.3968 O   0  0  0  0  0  0  0  0  0  0  0  0
  2  3  1  0
  2  1  1  6
  3  4  1  0
  4  8  1  0
  5  4  2  0
  5  6  1  0
  6  7  1  0
  8  7  2  0
  9 10  2  0
  9  2  1  0
 11  9  1  0
 12 11  1  0
 13 14  1  0
 12 13  1  6
 14 18  1  0
 14 15  2  0
 15 16  1  0
 17 16  1  0
 18 17  2  0
 19 20  2  0
 19 12  1  0
 22 21  1  0
 23 22  1  0
 25 24  1  1
 24 23  1  0
 25 26  1  0
 26 19  1  0
 27 25  1  0
 28 27  1  0
 29 27  2  0
M  END
$$$$
