HHM.pdb
     RDKit          3D

 29 30  0  0  1  0  0  0  0  0999 V2000
    8.9806  -17.0184   18.2874 N   0  0  0  0  0  0  0  0  0  0  0  0
    9.0019  -15.9711   19.3099 C   0  0  1  0  0  0  0  0  0  0  0  0
    7.8016  -15.0660   19.1280 C   0  0  0  0  0  0  0  0  0  0  0  0
    7.9154  -14.2835   17.8654 C   0  0  0  0  0  0  0  0  0  0  0  0
    8.4099  -13.0168   17.6863 C   0  0  0  0  0  0  0  0  0  0  0  0
    8.3077  -12.7371   16.3755 N   0  0  0  0  0  0  0  0  0  0  0  0
    7.7728  -13.7741   15.7429 C   0  0  0  0  0  0  0  0  0  0  0  0
    7.5321  -14.7240   16.6583 N   0  0  0  0  0  0  0  0  0  0  0  0
    8.9410  -16.6478   20.6229 C   0  0  0  0  0  0  0  0  0  0  0  0
    7.8551  -17.1265   21.0495 O   0  0  0  0  0  0  0  0  0  0  0  0
   10.0814  -16.7962   21.4671 N   0  0  0  0  0  0  0  0  0  0  0  0
   10.0480  -17.3700   22.7729 C   0  0  1  0  0  0  0  0  0  0  0  0
   11.2283  -18.2795   23.0734 C   0  0  0  0  0  0  0  0  0  0  0  0
   11.1206  -19.5777   22.4014 C   0  0  0  0  0  0  0  0  0  0  0  0
   10.0969  -20.0927   21.6324 C   0  0  0  0  0  0  0  0  0  0  0  0
   10.4255  -21.3181   21.2192 N   0  0  0  0  0  0  0  0  0  0  0  0
   11.6456  -21.5935   21.7137 C   0  0  0  0  0  0  0  0  0  0  0  0
   12.0620  -20.5399   22.4271 N   0  0  0  0  0  0  0  0  0  0  0  0
    9.9746  -16.3220   23.8453 C   0  0  0  0  0  0  0  0  0  0  0  0
   10.8833  -15.4562   23.9109 O   0  0  0  0  0  0  0  0  0  0  0  0
    7.0224  -10.6389   26.5315 C   0  0  0  0  0  0  0  0  0  0  0  0
    6.2484  -12.2745   26.5633 S   0  0  0  0  0  0  0  0  0  0  0  0
    7.5030  -13.5040   26.9129 C   0  0  0  0  0  0  0  0  0  0  0  0
    7.7382  -14.4791   25.8249 C   0  0  0  0  0  0  0  0  0  0  0  0
    8.9931  -15.2420   25.8989 C   0  0  2  0  0  0  0  0  0  0  0  0
    8.9330  -16.2621   24.7847 N   0  0  0  0  0  0  0  0  0  0  0  0
    9.1876  -15.9604   27.1540 C   0  0  0  0  0  0  0  0  0  0  0  0
    9.5460  -15.2408   28.3157 O   0  0  0  0  0  0  0  0  0  0  0  0
    9.0676  -17.1811   27.3158 O   0  0  0  0  0  0  0  0  0  0  0  0
  2  3  1  0
  2  1  1  6
  3  4  1  0
  4  8  1  0
  5  4  2  0
  5  6  1  0
  6  7  1  0
  8  7  2  0
  9 10  2  0
  9  2  1  0
 11  9  1  0
 12 11  1  0
 13 14  1  0
 12 13  1  1
 14 18  1  0
 14 15  2  0
 15 16  1  0
 17 16  1  0
 18 17  2  0
 19 20  2  0
 19 12  1  0
 22 21  1  0
 23 22  1  0
 25 24  1  1
 24 23  1  0
 25 26  1  0
 26 19  1  0
 27 25  1  0
 28 27  1  0
 29 27  2  0
M  END
$$$$
