HHM.pdb
     RDKit          3D

 29 30  0  0  1  0  0  0  0  0999 V2000
    8.9640  -17.4344   18.2466 N   0  0  0  0  0  0  0  0  0  0  0  0
    9.2272  -16.3074   19.1429 C   0  0  1  0  0  0  0  0  0  0  0  0
    8.0786  -15.3238   19.0647 C   0  0  0  0  0  0  0  0  0  0  0  0
    8.1190  -14.5636   17.7840 C   0  0  0  0  0  0  0  0  0  0  0  0
    9.0071  -14.6843   16.7459 C   0  0  0  0  0  0  0  0  0  0  0  0
    8.6422  -13.7899   15.8110 N   0  0  0  0  0  0  0  0  0  0  0  0
    7.5713  -13.1263   16.2288 C   0  0  0  0  0  0  0  0  0  0  0  0
    7.2499  -13.6019   17.4407 N   0  0  0  0  0  0  0  0  0  0  0  0
    9.3392  -16.8592   20.5098 C   0  0  0  0  0  0  0  0  0  0  0  0
    8.3281  -17.3316   21.0970 O   0  0  0  0  0  0  0  0  0  0  0  0
   10.5701  -16.8893   21.2303 N   0  0  0  0  0  0  0  0  0  0  0  0
   10.7214  -17.4229   22.5447 C   0  0  1  0  0  0  0  0  0  0  0  0
   12.0685  -18.0841   22.7869 C   0  0  0  0  0  0  0  0  0  0  0  0
   12.1834  -19.3830   22.1174 C   0  0  0  0  0  0  0  0  0  0  0  0
   11.2467  -20.0882   21.3895 C   0  0  0  0  0  0  0  0  0  0  0  0
   11.7860  -21.2310   20.9612 N   0  0  0  0  0  0  0  0  0  0  0  0
   13.0551  -21.2660   21.4054 C   0  0  0  0  0  0  0  0  0  0  0  0
   13.2912  -20.1481   22.1033 N   0  0  0  0  0  0  0  0  0  0  0  0
   10.5113  -16.3785   23.6026 C   0  0  0  0  0  0  0  0  0  0  0  0
   11.1850  -15.3187   23.5513 O   0  0  0  0  0  0  0  0  0  0  0  0
    6.1358  -11.7306   27.6988 C   0  0  0  0  0  0  0  0  0  0  0  0
    6.3396  -12.9676   26.3936 S   0  0  0  0  0  0  0  0  0  0  0  0
    7.8772  -13.8463   26.6611 C   0  0  0  0  0  0  0  0  0  0  0  0
    8.2369  -14.8084   25.5957 C   0  0  0  0  0  0  0  0  0  0  0  0
    9.5330  -15.4865   25.7460 C   0  0  2  0  0  0  0  0  0  0  0  0
    9.5926  -16.5296   24.6533 N   0  0  0  0  0  0  0  0  0  0  0  0
    9.7118  -16.1664   27.0247 C   0  0  0  0  0  0  0  0  0  0  0  0
   10.0298  -15.4085   28.1737 O   0  0  0  0  0  0  0  0  0  0  0  0
    9.6109  -17.3843   27.2176 O   0  0  0  0  0  0  0  0  0  0  0  0
  2  3  1  0
  2  1  1  6
  3  4  1  0
  4  8  1  0
  5  4  2  0
  5  6  1  0
  6  7  1  0
  8  7  2  0
  9 10  2  0
  9  2  1  0
 11  9  1  0
 12 11  1  0
 13 14  1  0
 12 13  1  6
 14 18  1  0
 14 15  2  0
 15 16  1  0
 17 16  1  0
 18 17  2  0
 19 20  2  0
 19 12  1  0
 22 21  1  0
 23 22  1  0
 25 24  1  1
 24 23  1  0
 25 26  1  0
 26 19  1  0
 27 25  1  0
 28 27  1  0
 29 27  2  0
M  END
$$$$
