HHM.pdb
     RDKit          3D

 29 30  0  0  1  0  0  0  0  0999 V2000
   10.5831  -14.7065   17.9423 N   0  0  0  0  0  0  0  0  0  0  0  0
   11.1069  -15.3506   19.1479 C   0  0  1  0  0  0  0  0  0  0  0  0
   12.2080  -14.4946   19.7375 C   0  0  0  0  0  0  0  0  0  0  0  0
   13.5052  -14.7554   19.0527 C   0  0  0  0  0  0  0  0  0  0  0  0
   13.8085  -14.6332   17.7208 C   0  0  0  0  0  0  0  0  0  0  0  0
   15.1002  -14.9772   17.5790 N   0  0  0  0  0  0  0  0  0  0  0  0
   15.6025  -15.3051   18.7630 C   0  0  0  0  0  0  0  0  0  0  0  0
   14.6226  -15.1686   19.6682 N   0  0  0  0  0  0  0  0  0  0  0  0
    9.9814  -15.4672   20.0993 C   0  0  0  0  0  0  0  0  0  0  0  0
    9.2603  -14.4680   20.3675 O   0  0  0  0  0  0  0  0  0  0  0  0
    9.6512  -16.6896   20.7565 N   0  0  0  0  0  0  0  0  0  0  0  0
    8.6340  -16.8221   21.7480 C   0  0  1  0  0  0  0  0  0  0  0  0
    8.1530  -18.2504   21.9461 C   0  0  0  0  0  0  0  0  0  0  0  0
    6.7043  -18.3835   21.7680 C   0  0  0  0  0  0  0  0  0  0  0  0
    5.7327  -18.7563   22.6745 C   0  0  0  0  0  0  0  0  0  0  0  0
    4.5396  -18.7420   22.0773 N   0  0  0  0  0  0  0  0  0  0  0  0
    4.7353  -18.3651   20.8011 C   0  0  0  0  0  0  0  0  0  0  0  0
    6.0439  -18.1495   20.6182 N   0  0  0  0  0  0  0  0  0  0  0  0
    9.0729  -16.2830   23.0787 C   0  0  0  0  0  0  0  0  0  0  0  0
   10.2357  -15.8197   23.1920 O   0  0  0  0  0  0  0  0  0  0  0  0
    5.7436  -11.7121   28.0682 C   0  0  0  0  0  0  0  0  0  0  0  0
    6.3571  -12.0391   26.3973 S   0  0  0  0  0  0  0  0  0  0  0  0
    7.5887  -13.3372   26.4745 C   0  0  0  0  0  0  0  0  0  0  0  0
    7.5854  -14.2666   25.3229 C   0  0  0  0  0  0  0  0  0  0  0  0
    8.5718  -15.3561   25.3671 C   0  0  2  0  0  0  0  0  0  0  0  0
    8.2417  -16.2714   24.2099 N   0  0  0  0  0  0  0  0  0  0  0  0
    8.5369  -16.1505   26.5907 C   0  0  0  0  0  0  0  0  0  0  0  0
    7.9968  -17.4554   26.5543 O   0  0  0  0  0  0  0  0  0  0  0  0
    8.9458  -15.7886   27.7009 O   0  0  0  0  0  0  0  0  0  0  0  0
  2  3  1  0
  2  1  1  6
  3  4  1  0
  4  8  1  0
  5  4  2  0
  5  6  1  0
  6  7  1  0
  8  7  2  0
  9 10  2  0
  9  2  1  0
 11  9  1  0
 12 11  1  0
 13 14  1  0
 12 13  1  1
 14 18  1  0
 14 15  2  0
 15 16  1  0
 17 16  1  0
 18 17  2  0
 19 20  2  0
 19 12  1  0
 22 21  1  0
 23 22  1  0
 25 24  1  1
 24 23  1  0
 25 26  1  0
 26 19  1  0
 27 25  1  0
 28 27  1  0
 29 27  2  0
M  END
$$$$
