HHM.pdb
     RDKit          3D

 29 30  0  0  1  0  0  0  0  0999 V2000
   12.9341  -17.2815   18.1673 N   0  0  0  0  0  0  0  0  0  0  0  0
   12.4518  -17.9813   19.3592 C   0  0  1  0  0  0  0  0  0  0  0  0
   13.6130  -18.6756   20.0391 C   0  0  0  0  0  0  0  0  0  0  0  0
   13.8246  -20.0352   19.4681 C   0  0  0  0  0  0  0  0  0  0  0  0
   12.9414  -20.8141   18.7649 C   0  0  0  0  0  0  0  0  0  0  0  0
   13.5819  -21.9556   18.4588 N   0  0  0  0  0  0  0  0  0  0  0  0
   14.8172  -21.9123   18.9425 C   0  0  0  0  0  0  0  0  0  0  0  0
   14.9661  -20.7325   19.5623 N   0  0  0  0  0  0  0  0  0  0  0  0
   11.8688  -16.9592   20.2541 C   0  0  0  0  0  0  0  0  0  0  0  0
   12.4914  -15.8907   20.5011 O   0  0  0  0  0  0  0  0  0  0  0  0
   10.5956  -17.1170   20.8779 N   0  0  0  0  0  0  0  0  0  0  0  0
   10.0083  -16.1644   21.7629 C   0  0  1  0  0  0  0  0  0  0  0  0
    8.4993  -16.0462   21.6230 C   0  0  0  0  0  0  0  0  0  0  0  0
    8.1060  -15.0633   20.6094 C   0  0  0  0  0  0  0  0  0  0  0  0
    8.8884  -14.2353   19.8304 C   0  0  0  0  0  0  0  0  0  0  0  0
    8.1052  -13.4995   19.0395 N   0  0  0  0  0  0  0  0  0  0  0  0
    6.8324  -13.8459   19.3024 C   0  0  0  0  0  0  0  0  0  0  0  0
    6.8371  -14.7906   20.2510 N   0  0  0  0  0  0  0  0  0  0  0  0
   10.3274  -16.4610   23.1996 C   0  0  0  0  0  0  0  0  0  0  0  0
   10.7962  -17.5887   23.4968 O   0  0  0  0  0  0  0  0  0  0  0  0
   10.6575  -13.6743   30.5975 C   0  0  0  0  0  0  0  0  0  0  0  0
   10.0924  -13.4061   28.8993 S   0  0  0  0  0  0  0  0  0  0  0  0
   10.4562  -14.8666   27.9285 C   0  0  0  0  0  0  0  0  0  0  0  0
   10.1605  -14.7424   26.4838 C   0  0  0  0  0  0  0  0  0  0  0  0
   10.5131  -15.9002   25.6487 C   0  0  2  0  0  0  0  0  0  0  0  0
   10.1262  -15.5334   24.2340 N   0  0  0  0  0  0  0  0  0  0  0  0
    9.8126  -17.1312   25.9999 C   0  0  0  0  0  0  0  0  0  0  0  0
    8.5904  -17.4389   25.3619 O   0  0  0  0  0  0  0  0  0  0  0  0
   10.1899  -17.9675   26.8300 O   0  0  0  0  0  0  0  0  0  0  0  0
  2  3  1  0
  2  1  1  6
  3  4  1  0
  4  8  1  0
  5  4  2  0
  5  6  1  0
  6  7  1  0
  8  7  2  0
  9 10  2  0
  9  2  1  0
 11  9  1  0
 12 11  1  0
 13 14  1  0
 12 13  1  1
 14 18  1  0
 14 15  2  0
 15 16  1  0
 17 16  1  0
 18 17  2  0
 19 20  2  0
 19 12  1  0
 22 21  1  0
 23 22  1  0
 25 24  1  1
 24 23  1  0
 25 26  1  0
 26 19  1  0
 27 25  1  0
 28 27  1  0
 29 27  2  0
M  END
$$$$
