HHM.pdb
     RDKit          3D

 29 30  0  0  1  0  0  0  0  0999 V2000
    9.7666  -15.4727   18.6968 N   0  0  0  0  0  0  0  0  0  0  0  0
    8.6791  -14.7901   19.3999 C   0  0  1  0  0  0  0  0  0  0  0  0
    7.3932  -14.9541   18.6174 C   0  0  0  0  0  0  0  0  0  0  0  0
    7.5681  -14.4979   17.2100 C   0  0  0  0  0  0  0  0  0  0  0  0
    7.8032  -13.2290   16.7456 C   0  0  0  0  0  0  0  0  0  0  0  0
    7.8880  -13.3104   15.4065 N   0  0  0  0  0  0  0  0  0  0  0  0
    7.7154  -14.5711   15.0288 C   0  0  0  0  0  0  0  0  0  0  0  0
    7.5191  -15.3004   16.1368 N   0  0  0  0  0  0  0  0  0  0  0  0
    8.5569  -15.4264   20.7286 C   0  0  0  0  0  0  0  0  0  0  0  0
    7.6079  -15.1231   21.5018 O   0  0  0  0  0  0  0  0  0  0  0  0
    9.4847  -16.3997   21.2053 N   0  0  0  0  0  0  0  0  0  0  0  0
    9.3990  -17.0392   22.4777 C   0  0  1  0  0  0  0  0  0  0  0  0
   10.3868  -18.1804   22.6583 C   0  0  0  0  0  0  0  0  0  0  0  0
    9.9756  -19.3949   21.9482 C   0  0  0  0  0  0  0  0  0  0  0  0
    8.8107  -19.6643   21.2590 C   0  0  0  0  0  0  0  0  0  0  0  0
    8.8620  -20.9039   20.7681 N   0  0  0  0  0  0  0  0  0  0  0  0
   10.0442  -21.4308   21.1342 C   0  0  0  0  0  0  0  0  0  0  0  0
   10.7138  -20.5163   21.8468 N   0  0  0  0  0  0  0  0  0  0  0  0
    9.5870  -16.0689   23.6079 C   0  0  0  0  0  0  0  0  0  0  0  0
   10.6620  -15.4218   23.6796 O   0  0  0  0  0  0  0  0  0  0  0  0
    6.5042  -10.5639   28.0461 C   0  0  0  0  0  0  0  0  0  0  0  0
    6.3130  -11.7978   26.7361 S   0  0  0  0  0  0  0  0  0  0  0  0
    7.7348  -12.8870   26.7521 C   0  0  0  0  0  0  0  0  0  0  0  0
    7.7398  -13.9184   25.6910 C   0  0  0  0  0  0  0  0  0  0  0  0
    8.8815  -14.8451   25.6939 C   0  0  2  0  0  0  0  0  0  0  0  0
    8.6134  -15.8482   24.5950 N   0  0  0  0  0  0  0  0  0  0  0  0
    9.0549  -15.5825   26.9411 C   0  0  0  0  0  0  0  0  0  0  0  0
    8.9850  -16.9934   26.9271 O   0  0  0  0  0  0  0  0  0  0  0  0
    9.2650  -15.0841   28.0538 O   0  0  0  0  0  0  0  0  0  0  0  0
  2  3  1  0
  2  1  1  6
  3  4  1  0
  4  8  1  0
  5  4  2  0
  5  6  1  0
  6  7  1  0
  8  7  2  0
  9 10  2  0
  9  2  1  0
 11  9  1  0
 12 11  1  0
 13 14  1  0
 12 13  1  6
 14 18  1  0
 14 15  2  0
 15 16  1  0
 17 16  1  0
 18 17  2  0
 19 20  2  0
 19 12  1  0
 22 21  1  0
 23 22  1  0
 25 24  1  1
 24 23  1  0
 25 26  1  0
 26 19  1  0
 27 25  1  0
 28 27  1  0
 29 27  2  0
M  END
$$$$
