HHM.pdb
     RDKit          3D

 29 30  0  0  1  0  0  0  0  0999 V2000
    9.7652  -15.2557   18.8658 N   0  0  0  0  0  0  0  0  0  0  0  0
    8.4214  -14.9444   19.3561 C   0  0  1  0  0  0  0  0  0  0  0  0
    7.3992  -15.3566   18.3179 C   0  0  0  0  0  0  0  0  0  0  0  0
    7.6440  -14.6554   17.0264 C   0  0  0  0  0  0  0  0  0  0  0  0
    8.6982  -13.8506   16.6770 C   0  0  0  0  0  0  0  0  0  0  0  0
    8.4826  -13.4478   15.4128 N   0  0  0  0  0  0  0  0  0  0  0  0
    7.3443  -13.9685   14.9714 C   0  0  0  0  0  0  0  0  0  0  0  0
    6.8294  -14.7104   15.9627 N   0  0  0  0  0  0  0  0  0  0  0  0
    8.2271  -15.7146   20.6028 C   0  0  0  0  0  0  0  0  0  0  0  0
    7.1613  -15.6034   21.2676 O   0  0  0  0  0  0  0  0  0  0  0  0
    9.2118  -16.6097   21.1171 N   0  0  0  0  0  0  0  0  0  0  0  0
    9.1222  -17.2665   22.3805 C   0  0  1  0  0  0  0  0  0  0  0  0
    9.9498  -18.5384   22.4705 C   0  0  0  0  0  0  0  0  0  0  0  0
    9.3626  -19.6439   21.7080 C   0  0  0  0  0  0  0  0  0  0  0  0
    8.0964  -20.1888   21.7739 C   0  0  0  0  0  0  0  0  0  0  0  0
    7.9959  -21.1859   20.8930 N   0  0  0  0  0  0  0  0  0  0  0  0
    9.1809  -21.2859   20.2647 C   0  0  0  0  0  0  0  0  0  0  0  0
   10.0037  -20.3529   20.7597 N   0  0  0  0  0  0  0  0  0  0  0  0
    9.5195  -16.3638   23.5124 C   0  0  0  0  0  0  0  0  0  0  0  0
   10.1605  -15.3138   23.2550 O   0  0  0  0  0  0  0  0  0  0  0  0
    6.5414  -11.0886   27.3139 C   0  0  0  0  0  0  0  0  0  0  0  0
    6.8927  -12.1904   25.9219 S   0  0  0  0  0  0  0  0  0  0  0  0
    8.1152  -13.3967   26.4302 C   0  0  0  0  0  0  0  0  0  0  0  0
    8.3042  -14.5242   25.4905 C   0  0  0  0  0  0  0  0  0  0  0  0
    9.3012  -15.5322   25.8805 C   0  0  2  0  0  0  0  0  0  0  0  0
    9.2075  -16.6378   24.8535 N   0  0  0  0  0  0  0  0  0  0  0  0
    9.0772  -16.1227   27.1960 C   0  0  0  0  0  0  0  0  0  0  0  0
    9.6606  -15.5216   28.3336 O   0  0  0  0  0  0  0  0  0  0  0  0
    8.4042  -17.1340   27.4308 O   0  0  0  0  0  0  0  0  0  0  0  0
  2  3  1  0
  2  1  1  6
  3  4  1  0
  4  8  1  0
  5  4  2  0
  5  6  1  0
  6  7  1  0
  8  7  2  0
  9 10  2  0
  9  2  1  0
 11  9  1  0
 12 11  1  0
 13 14  1  0
 12 13  1  6
 14 18  1  0
 14 15  2  0
 15 16  1  0
 17 16  1  0
 18 17  2  0
 19 20  2  0
 19 12  1  0
 22 21  1  0
 23 22  1  0
 25 24  1  6
 24 23  1  0
 25 26  1  0
 26 19  1  0
 27 25  1  0
 28 27  1  0
 29 27  2  0
M  END
$$$$
