HHM.pdb
     RDKit          3D

 29 30  0  0  1  0  0  0  0  0999 V2000
    9.4048  -19.8682   18.2846 N   0  0  0  0  0  0  0  0  0  0  0  0
    9.4588  -18.4737   18.7265 C   0  0  1  0  0  0  0  0  0  0  0  0
    8.8150  -17.5891   17.6798 C   0  0  0  0  0  0  0  0  0  0  0  0
    9.6915  -17.4629   16.4817 C   0  0  0  0  0  0  0  0  0  0  0  0
   11.0107  -17.8130   16.3469 C   0  0  0  0  0  0  0  0  0  0  0  0
   11.3699  -17.5124   15.0869 N   0  0  0  0  0  0  0  0  0  0  0  0
   10.3314  -16.9938   14.4433 C   0  0  0  0  0  0  0  0  0  0  0  0
    9.3004  -16.9636   15.3003 N   0  0  0  0  0  0  0  0  0  0  0  0
    8.7093  -18.3941   19.9983 C   0  0  0  0  0  0  0  0  0  0  0  0
    7.4579  -18.2378   19.9981 O   0  0  0  0  0  0  0  0  0  0  0  0
    9.3426  -18.4870   21.2732 N   0  0  0  0  0  0  0  0  0  0  0  0
    8.6568  -18.4033   22.5215 C   0  0  1  0  0  0  0  0  0  0  0  0
    8.8203  -19.6367   23.3949 C   0  0  0  0  0  0  0  0  0  0  0  0
    8.0892  -19.5278   24.6605 C   0  0  0  0  0  0  0  0  0  0  0  0
    6.7329  -19.4187   24.8914 C   0  0  0  0  0  0  0  0  0  0  0  0
    6.5108  -19.3442   26.2049 N   0  0  0  0  0  0  0  0  0  0  0  0
    7.7070  -19.4042   26.8171 C   0  0  0  0  0  0  0  0  0  0  0  0
    8.6576  -19.5151   25.8810 N   0  0  0  0  0  0  0  0  0  0  0  0
    9.0813  -17.2025   23.3163 C   0  0  0  0  0  0  0  0  0  0  0  0
   10.3062  -16.9355   23.4050 O   0  0  0  0  0  0  0  0  0  0  0  0
    6.7609  -10.8134   27.3677 C   0  0  0  0  0  0  0  0  0  0  0  0
    6.2801  -12.2243   26.3413 S   0  0  0  0  0  0  0  0  0  0  0  0
    7.7427  -13.1792   25.9448 C   0  0  0  0  0  0  0  0  0  0  0  0
    7.5016  -14.3554   25.0798 C   0  0  0  0  0  0  0  0  0  0  0  0
    8.6830  -15.1619   24.7391 C   0  0  2  0  0  0  0  0  0  0  0  0
    8.1699  -16.3579   23.9697 N   0  0  0  0  0  0  0  0  0  0  0  0
    9.4269  -15.6569   25.8927 C   0  0  0  0  0  0  0  0  0  0  0  0
   10.4550  -14.8622   26.4470 O   0  0  0  0  0  0  0  0  0  0  0  0
    9.2463  -16.7416   26.4597 O   0  0  0  0  0  0  0  0  0  0  0  0
  2  3  1  0
  2  1  1  6
  3  4  1  0
  4  8  1  0
  5  4  2  0
  5  6  1  0
  6  7  1  0
  8  7  2  0
  9 10  2  0
  9  2  1  0
 11  9  1  0
 12 11  1  0
 13 14  1  0
 12 13  1  1
 14 18  1  0
 14 15  2  0
 15 16  1  0
 17 16  1  0
 18 17  2  0
 19 20  2  0
 19 12  1  0
 22 21  1  0
 23 22  1  0
 25 24  1  1
 24 23  1  0
 25 26  1  0
 26 19  1  0
 27 25  1  0
 28 27  1  0
 29 27  2  0
M  END
$$$$
