HHM.pdb
     RDKit          3D

 29 30  0  0  1  0  0  0  0  0999 V2000
   11.9006  -15.6287   17.6501 N   0  0  0  0  0  0  0  0  0  0  0  0
   12.2911  -15.6264   19.0608 C   0  0  1  0  0  0  0  0  0  0  0  0
   12.9918  -14.3242   19.3867 C   0  0  0  0  0  0  0  0  0  0  0  0
   14.3905  -14.3331   18.8739 C   0  0  0  0  0  0  0  0  0  0  0  0
   15.4202  -15.1732   19.2133 C   0  0  0  0  0  0  0  0  0  0  0  0
   16.4892  -14.7959   18.4910 N   0  0  0  0  0  0  0  0  0  0  0  0
   16.1621  -13.7628   17.7245 C   0  0  0  0  0  0  0  0  0  0  0  0
   14.8728  -13.4788   17.9598 N   0  0  0  0  0  0  0  0  0  0  0  0
   11.0496  -15.7542   19.8531 C   0  0  0  0  0  0  0  0  0  0  0  0
   10.2260  -14.8013   19.9156 O   0  0  0  0  0  0  0  0  0  0  0  0
   10.7165  -16.9367   20.5784 N   0  0  0  0  0  0  0  0  0  0  0  0
    9.5382  -17.0928   21.3675 C   0  0  1  0  0  0  0  0  0  0  0  0
    9.1297  -18.5415   21.5797 C   0  0  0  0  0  0  0  0  0  0  0  0
    7.9358  -18.6696   22.4202 C   0  0  0  0  0  0  0  0  0  0  0  0
    7.7983  -19.2041   23.6851 C   0  0  0  0  0  0  0  0  0  0  0  0
    6.5238  -19.1132   24.0693 N   0  0  0  0  0  0  0  0  0  0  0  0
    5.8444  -18.5277   23.0670 C   0  0  0  0  0  0  0  0  0  0  0  0
    6.7006  -18.2613   22.0728 N   0  0  0  0  0  0  0  0  0  0  0  0
    9.6717  -16.4383   22.7121 C   0  0  0  0  0  0  0  0  0  0  0  0
   10.7700  -16.5153   23.3181 O   0  0  0  0  0  0  0  0  0  0  0  0
    6.7893  -10.9683   27.5872 C   0  0  0  0  0  0  0  0  0  0  0  0
    6.5289  -11.9661   26.1000 S   0  0  0  0  0  0  0  0  0  0  0  0
    7.8129  -13.2112   26.0037 C   0  0  0  0  0  0  0  0  0  0  0  0
    7.7975  -14.0258   24.7684 C   0  0  0  0  0  0  0  0  0  0  0  0
    8.8725  -15.0201   24.6349 C   0  0  2  0  0  0  0  0  0  0  0  0
    8.6218  -15.7397   23.3291 N   0  0  0  0  0  0  0  0  0  0  0  0
    8.9038  -16.0191   25.6981 C   0  0  0  0  0  0  0  0  0  0  0  0
    9.7055  -15.7918   26.8388 O   0  0  0  0  0  0  0  0  0  0  0  0
    8.2783  -17.0865   25.7074 O   0  0  0  0  0  0  0  0  0  0  0  0
  2  3  1  0
  2  1  1  6
  3  4  1  0
  4  8  1  0
  5  4  2  0
  5  6  1  0
  6  7  1  0
  8  7  2  0
  9 10  2  0
  9  2  1  0
 11  9  1  0
 12 11  1  0
 13 14  1  0
 12 13  1  1
 14 18  1  0
 14 15  2  0
 15 16  1  0
 17 16  1  0
 18 17  2  0
 19 20  2  0
 19 12  1  0
 22 21  1  0
 23 22  1  0
 25 24  1  1
 24 23  1  0
 25 26  1  0
 26 19  1  0
 27 25  1  0
 28 27  1  0
 29 27  2  0
M  END
$$$$
