HHM.pdb
     RDKit          3D

 29 30  0  0  1  0  0  0  0  0999 V2000
    8.9684  -18.8402   19.0035 N   0  0  0  0  0  0  0  0  0  0  0  0
    8.1033  -18.3894   20.0950 C   0  0  1  0  0  0  0  0  0  0  0  0
    8.1209  -19.4163   21.2076 C   0  0  0  0  0  0  0  0  0  0  0  0
    7.2052  -20.5496   20.8966 C   0  0  0  0  0  0  0  0  0  0  0  0
    6.3919  -20.7167   19.8049 C   0  0  0  0  0  0  0  0  0  0  0  0
    5.7563  -21.8903   19.9648 N   0  0  0  0  0  0  0  0  0  0  0  0
    6.1424  -22.4501   21.1046 C   0  0  0  0  0  0  0  0  0  0  0  0
    7.0326  -21.6264   21.6767 N   0  0  0  0  0  0  0  0  0  0  0  0
    8.6486  -17.1020   20.5752 C   0  0  0  0  0  0  0  0  0  0  0  0
    9.8761  -16.8392   20.4554 O   0  0  0  0  0  0  0  0  0  0  0  0
    7.8369  -16.1023   21.1893 N   0  0  0  0  0  0  0  0  0  0  0  0
    8.3358  -14.8807   21.7318 C   0  0  1  0  0  0  0  0  0  0  0  0
    7.7389  -13.6371   21.0932 C   0  0  0  0  0  0  0  0  0  0  0  0
    8.0470  -13.5386   19.6636 C   0  0  0  0  0  0  0  0  0  0  0  0
    7.1981  -13.4090   18.5832 C   0  0  0  0  0  0  0  0  0  0  0  0
    7.9151  -13.3563   17.4592 N   0  0  0  0  0  0  0  0  0  0  0  0
    9.2112  -13.4504   17.8064 C   0  0  0  0  0  0  0  0  0  0  0  0
    9.2867  -13.5603   19.1385 N   0  0  0  0  0  0  0  0  0  0  0  0
    8.1243  -14.7972   23.2158 C   0  0  0  0  0  0  0  0  0  0  0  0
    7.0345  -14.3451   23.6489 O   0  0  0  0  0  0  0  0  0  0  0  0
    6.0428  -10.9414   27.0414 C   0  0  0  0  0  0  0  0  0  0  0  0
    6.4399  -12.6933   27.2611 S   0  0  0  0  0  0  0  0  0  0  0  0
    7.0156  -13.3584   25.7009 C   0  0  0  0  0  0  0  0  0  0  0  0
    7.3457  -14.8008   25.7239 C   0  0  0  0  0  0  0  0  0  0  0  0
    8.7731  -15.1402   25.6258 C   0  0  2  0  0  0  0  0  0  0  0  0
    9.0914  -15.2024   24.1492 N   0  0  0  0  0  0  0  0  0  0  0  0
    9.1276  -16.4271   26.2152 C   0  0  0  0  0  0  0  0  0  0  0  0
    9.2815  -16.5287   27.6158 O   0  0  0  0  0  0  0  0  0  0  0  0
    9.3156  -17.4807   25.5944 O   0  0  0  0  0  0  0  0  0  0  0  0
  2  3  1  0
  2  1  1  6
  3  4  1  0
  4  8  1  0
  5  4  2  0
  5  6  1  0
  6  7  1  0
  8  7  2  0
  9 10  2  0
  9  2  1  0
 11  9  1  0
 12 11  1  0
 13 14  1  0
 12 13  1  6
 14 18  1  0
 14 15  2  0
 15 16  1  0
 17 16  1  0
 18 17  2  0
 19 20  2  0
 19 12  1  0
 22 21  1  0
 23 22  1  0
 25 24  1  6
 24 23  1  0
 25 26  1  0
 26 19  1  0
 27 25  1  0
 28 27  1  0
 29 27  2  0
M  END
$$$$
