HHM.pdb
     RDKit          3D

 29 30  0  0  1  0  0  0  0  0999 V2000
   11.4177  -17.2202   17.9636 N   0  0  0  0  0  0  0  0  0  0  0  0
   10.9774  -17.9333   19.1638 C   0  0  1  0  0  0  0  0  0  0  0  0
   11.9797  -19.0170   19.5011 C   0  0  0  0  0  0  0  0  0  0  0  0
   11.6915  -20.2616   18.7347 C   0  0  0  0  0  0  0  0  0  0  0  0
   10.6337  -20.5280   17.9033 C   0  0  0  0  0  0  0  0  0  0  0  0
   10.8032  -21.7787   17.4406 N   0  0  0  0  0  0  0  0  0  0  0  0
   11.9163  -22.2912   17.9505 C   0  0  0  0  0  0  0  0  0  0  0  0
   12.4619  -21.3591   18.7453 N   0  0  0  0  0  0  0  0  0  0  0  0
   10.9081  -16.9394   20.2560 C   0  0  0  0  0  0  0  0  0  0  0  0
   11.7558  -16.0089   20.3331 O   0  0  0  0  0  0  0  0  0  0  0  0
    9.9008  -16.9729   21.2658 N   0  0  0  0  0  0  0  0  0  0  0  0
    9.7522  -15.9893   22.2885 C   0  0  1  0  0  0  0  0  0  0  0  0
    8.3344  -15.4593   22.4283 C   0  0  0  0  0  0  0  0  0  0  0  0
    7.9005  -14.7030   21.2501 C   0  0  0  0  0  0  0  0  0  0  0  0
    6.8717  -14.9572   20.3661 C   0  0  0  0  0  0  0  0  0  0  0  0
    6.8384  -14.0005   19.4367 N   0  0  0  0  0  0  0  0  0  0  0  0
    7.8323  -13.1378   19.7146 C   0  0  0  0  0  0  0  0  0  0  0  0
    8.4713  -13.5656   20.8105 N   0  0  0  0  0  0  0  0  0  0  0  0
   10.1996  -16.4994   23.6278 C   0  0  0  0  0  0  0  0  0  0  0  0
   10.4919  -17.7160   23.7470 O   0  0  0  0  0  0  0  0  0  0  0  0
   10.3700  -12.9316   29.8407 C   0  0  0  0  0  0  0  0  0  0  0  0
    9.8706  -12.8322   28.1040 S   0  0  0  0  0  0  0  0  0  0  0  0
    9.6405  -14.4915   27.4700 C   0  0  0  0  0  0  0  0  0  0  0  0
   10.8801  -15.1618   27.0181 C   0  0  0  0  0  0  0  0  0  0  0  0
   10.7057  -16.2860   26.0865 C   0  0  2  0  0  0  0  0  0  0  0  0
   10.3080  -15.6777   24.7608 N   0  0  0  0  0  0  0  0  0  0  0  0
    9.6660  -17.2335   26.4745 C   0  0  0  0  0  0  0  0  0  0  0  0
    9.9243  -18.1599   27.5094 O   0  0  0  0  0  0  0  0  0  0  0  0
    8.5376  -17.3156   25.9739 O   0  0  0  0  0  0  0  0  0  0  0  0
  2  3  1  0
  2  1  1  6
  3  4  1  0
  4  8  1  0
  5  4  2  0
  5  6  1  0
  6  7  1  0
  8  7  2  0
  9 10  2  0
  9  2  1  0
 11  9  1  0
 12 11  1  0
 13 14  1  0
 12 13  1  1
 14 18  1  0
 14 15  2  0
 15 16  1  0
 17 16  1  0
 18 17  2  0
 19 20  2  0
 19 12  1  0
 22 21  1  0
 23 22  1  0
 25 24  1  1
 24 23  1  0
 25 26  1  0
 26 19  1  0
 27 25  1  0
 28 27  1  0
 29 27  2  0
M  END
$$$$
