HHM.pdb
     RDKit          3D

 29 30  0  0  1  0  0  0  0  0999 V2000
    9.7883  -15.1931   19.3842 N   0  0  0  0  0  0  0  0  0  0  0  0
    8.5400  -14.6804   19.9515 C   0  0  1  0  0  0  0  0  0  0  0  0
    7.4092  -14.9136   18.9717 C   0  0  0  0  0  0  0  0  0  0  0  0
    7.7137  -14.2892   17.6538 C   0  0  0  0  0  0  0  0  0  0  0  0
    8.2626  -13.0588   17.3970 C   0  0  0  0  0  0  0  0  0  0  0  0
    8.3456  -12.9369   16.0609 N   0  0  0  0  0  0  0  0  0  0  0  0
    7.8725  -14.0362   15.4868 C   0  0  0  0  0  0  0  0  0  0  0  0
    7.4845  -14.8668   16.4655 N   0  0  0  0  0  0  0  0  0  0  0  0
    8.2963  -15.4262   21.2044 C   0  0  0  0  0  0  0  0  0  0  0  0
    7.2367  -15.2459   21.8640 O   0  0  0  0  0  0  0  0  0  0  0  0
    9.2247  -16.3730   21.7307 N   0  0  0  0  0  0  0  0  0  0  0  0
    9.0677  -17.0476   22.9779 C   0  0  1  0  0  0  0  0  0  0  0  0
    9.8308  -18.3593   23.0659 C   0  0  0  0  0  0  0  0  0  0  0  0
    9.1595  -19.4471   22.3487 C   0  0  0  0  0  0  0  0  0  0  0  0
    7.9273  -19.4683   21.7275 C   0  0  0  0  0  0  0  0  0  0  0  0
    7.7174  -20.6752   21.1989 N   0  0  0  0  0  0  0  0  0  0  0  0
    8.7989  -21.4262   21.4738 C   0  0  0  0  0  0  0  0  0  0  0  0
    9.6675  -20.6810   22.1683 N   0  0  0  0  0  0  0  0  0  0  0  0
    9.4749  -16.1859   24.1380 C   0  0  0  0  0  0  0  0  0  0  0  0
   10.5464  -15.5334   24.0624 O   0  0  0  0  0  0  0  0  0  0  0  0
    6.2203  -10.6825   25.7580 C   0  0  0  0  0  0  0  0  0  0  0  0
    6.2928  -12.2633   26.6361 S   0  0  0  0  0  0  0  0  0  0  0  0
    7.7792  -13.1333   26.1443 C   0  0  0  0  0  0  0  0  0  0  0  0
    8.0254  -14.4010   26.8669 C   0  0  0  0  0  0  0  0  0  0  0  0
    9.1942  -15.1790   26.4302 C   0  0  2  0  0  0  0  0  0  0  0  0
    8.7115  -16.0732   25.3107 N   0  0  0  0  0  0  0  0  0  0  0  0
    9.7721  -16.0296   27.4655 C   0  0  0  0  0  0  0  0  0  0  0  0
   10.5636  -15.4459   28.4796 O   0  0  0  0  0  0  0  0  0  0  0  0
    9.6376  -17.2564   27.5533 O   0  0  0  0  0  0  0  0  0  0  0  0
  2  3  1  0
  2  1  1  6
  3  4  1  0
  4  8  1  0
  5  4  2  0
  5  6  1  0
  6  7  1  0
  8  7  2  0
  9 10  2  0
  9  2  1  0
 11  9  1  0
 12 11  1  0
 13 14  1  0
 12 13  1  6
 14 18  1  0
 14 15  2  0
 15 16  1  0
 17 16  1  0
 18 17  2  0
 19 20  2  0
 19 12  1  0
 22 21  1  0
 23 22  1  0
 25 24  1  1
 24 23  1  0
 25 26  1  0
 26 19  1  0
 27 25  1  0
 28 27  1  0
 29 27  2  0
M  END
$$$$
