HHM.pdb
     RDKit          3D

 29 30  0  0  1  0  0  0  0  0999 V2000
    9.7224  -15.5283   18.5581 N   0  0  0  0  0  0  0  0  0  0  0  0
    8.5659  -14.8941   19.1931 C   0  0  1  0  0  0  0  0  0  0  0  0
    7.3656  -15.0044   18.2765 C   0  0  0  0  0  0  0  0  0  0  0  0
    7.6506  -14.3807   16.9539 C   0  0  0  0  0  0  0  0  0  0  0  0
    7.7665  -13.0498   16.6435 C   0  0  0  0  0  0  0  0  0  0  0  0
    8.0277  -12.9749   15.3270 N   0  0  0  0  0  0  0  0  0  0  0  0
    8.0769  -14.1990   14.8161 C   0  0  0  0  0  0  0  0  0  0  0  0
    7.8454  -15.0624   15.8157 N   0  0  0  0  0  0  0  0  0  0  0  0
    8.3155  -15.6187   20.4571 C   0  0  0  0  0  0  0  0  0  0  0  0
    7.2704  -15.3990   21.1278 O   0  0  0  0  0  0  0  0  0  0  0  0
    9.2212  -16.5879   20.9822 N   0  0  0  0  0  0  0  0  0  0  0  0
    9.0695  -17.2302   22.2471 C   0  0  1  0  0  0  0  0  0  0  0  0
    9.8789  -18.5093   22.3863 C   0  0  0  0  0  0  0  0  0  0  0  0
    9.3017  -19.6228   21.6279 C   0  0  0  0  0  0  0  0  0  0  0  0
    9.7458  -20.2278   20.4697 C   0  0  0  0  0  0  0  0  0  0  0  0
    8.9053  -21.2067   20.1298 N   0  0  0  0  0  0  0  0  0  0  0  0
    7.9295  -21.2357   21.0551 C   0  0  0  0  0  0  0  0  0  0  0  0
    8.1725  -20.2776   21.9581 N   0  0  0  0  0  0  0  0  0  0  0  0
    9.4264  -16.3195   23.3860 C   0  0  0  0  0  0  0  0  0  0  0  0
   10.5336  -15.7251   23.3637 O   0  0  0  0  0  0  0  0  0  0  0  0
    6.6219  -10.8357   28.0489 C   0  0  0  0  0  0  0  0  0  0  0  0
    6.3792  -12.0498   26.7289 S   0  0  0  0  0  0  0  0  0  0  0  0
    7.8066  -13.1298   26.6636 C   0  0  0  0  0  0  0  0  0  0  0  0
    7.7669  -14.1483   25.5907 C   0  0  0  0  0  0  0  0  0  0  0  0
    8.9346  -15.0373   25.4981 C   0  0  2  0  0  0  0  0  0  0  0  0
    8.5775  -16.0983   24.4820 N   0  0  0  0  0  0  0  0  0  0  0  0
    9.2791  -15.7102   26.7463 C   0  0  0  0  0  0  0  0  0  0  0  0
    9.9351  -14.9851   27.7659 O   0  0  0  0  0  0  0  0  0  0  0  0
    9.0491  -16.8952   27.0176 O   0  0  0  0  0  0  0  0  0  0  0  0
  2  3  1  0
  2  1  1  6
  3  4  1  0
  4  8  1  0
  5  4  2  0
  5  6  1  0
  6  7  1  0
  8  7  2  0
  9 10  2  0
  9  2  1  0
 11  9  1  0
 12 11  1  0
 13 14  1  0
 12 13  1  6
 14 18  1  0
 14 15  2  0
 15 16  1  0
 17 16  1  0
 18 17  2  0
 19 20  2  0
 19 12  1  0
 22 21  1  0
 23 22  1  0
 25 24  1  1
 24 23  1  0
 25 26  1  0
 26 19  1  0
 27 25  1  0
 28 27  1  0
 29 27  2  0
M  END
$$$$
