HHM.pdb
     RDKit          3D

 29 30  0  0  1  0  0  0  0  0999 V2000
    8.6067  -18.8523   17.2840 N   0  0  0  0  0  0  0  0  0  0  0  0
    9.3396  -17.8776   18.0937 C   0  0  1  0  0  0  0  0  0  0  0  0
    9.1874  -16.5004   17.4828 C   0  0  0  0  0  0  0  0  0  0  0  0
    9.9578  -16.3971   16.2119 C   0  0  0  0  0  0  0  0  0  0  0  0
    9.5055  -16.0541   14.9634 C   0  0  0  0  0  0  0  0  0  0  0  0
   10.5643  -16.0980   14.1363 N   0  0  0  0  0  0  0  0  0  0  0  0
   11.6449  -16.4526   14.8206 C   0  0  0  0  0  0  0  0  0  0  0  0
   11.2722  -16.6360   16.0956 N   0  0  0  0  0  0  0  0  0  0  0  0
    8.7468  -17.9076   19.4476 C   0  0  0  0  0  0  0  0  0  0  0  0
    7.5129  -17.7070   19.6137 O   0  0  0  0  0  0  0  0  0  0  0  0
    9.5180  -18.1593   20.6211 N   0  0  0  0  0  0  0  0  0  0  0  0
    8.9822  -18.2067   21.9425 C   0  0  1  0  0  0  0  0  0  0  0  0
    9.4601  -19.3988   22.7556 C   0  0  0  0  0  0  0  0  0  0  0  0
    8.6711  -20.6065   22.4960 C   0  0  0  0  0  0  0  0  0  0  0  0
    7.5242  -20.7688   21.7458 C   0  0  0  0  0  0  0  0  0  0  0  0
    7.1453  -22.0475   21.7854 N   0  0  0  0  0  0  0  0  0  0  0  0
    8.0345  -22.7050   22.5509 C   0  0  0  0  0  0  0  0  0  0  0  0
    8.9544  -21.8313   22.9782 N   0  0  0  0  0  0  0  0  0  0  0  0
    9.2840  -16.9561   22.7164 C   0  0  0  0  0  0  0  0  0  0  0  0
   10.3598  -16.3471   22.4899 O   0  0  0  0  0  0  0  0  0  0  0  0
    6.4132  -11.0216   27.0000 C   0  0  0  0  0  0  0  0  0  0  0  0
    6.0887  -12.4804   25.9793 S   0  0  0  0  0  0  0  0  0  0  0  0
    7.6498  -13.2393   25.5377 C   0  0  0  0  0  0  0  0  0  0  0  0
    7.5340  -14.4844   24.7464 C   0  0  0  0  0  0  0  0  0  0  0  0
    8.7966  -15.1621   24.4166 C   0  0  2  0  0  0  0  0  0  0  0  0
    8.4166  -16.4306   23.6871 N   0  0  0  0  0  0  0  0  0  0  0  0
    9.5999  -15.5356   25.5762 C   0  0  0  0  0  0  0  0  0  0  0  0
   10.4454  -14.5735   26.1722 O   0  0  0  0  0  0  0  0  0  0  0  0
    9.6204  -16.6494   26.1145 O   0  0  0  0  0  0  0  0  0  0  0  0
  2  3  1  0
  2  1  1  6
  3  4  1  0
  4  8  1  0
  5  4  2  0
  5  6  1  0
  6  7  1  0
  8  7  2  0
  9 10  2  0
  9  2  1  0
 11  9  1  0
 12 11  1  0
 13 14  1  0
 12 13  1  1
 14 18  1  0
 14 15  2  0
 15 16  1  0
 17 16  1  0
 18 17  2  0
 19 20  2  0
 19 12  1  0
 22 21  1  0
 23 22  1  0
 25 24  1  1
 24 23  1  0
 25 26  1  0
 26 19  1  0
 27 25  1  0
 28 27  1  0
 29 27  2  0
M  END
$$$$
