HHM.pdb
     RDKit          3D

 29 30  0  0  1  0  0  0  0  0999 V2000
   12.5806  -14.9078   17.8476 N   0  0  0  0  0  0  0  0  0  0  0  0
   12.9271  -15.3455   19.2008 C   0  0  1  0  0  0  0  0  0  0  0  0
   13.7749  -14.2848   19.8709 C   0  0  0  0  0  0  0  0  0  0  0  0
   15.1783  -14.3369   19.3736 C   0  0  0  0  0  0  0  0  0  0  0  0
   15.7348  -15.2100   18.4741 C   0  0  0  0  0  0  0  0  0  0  0  0
   17.0270  -14.8650   18.3399 N   0  0  0  0  0  0  0  0  0  0  0  0
   17.2882  -13.8205   19.1161 C   0  0  0  0  0  0  0  0  0  0  0  0
   16.1524  -13.4961   19.7509 N   0  0  0  0  0  0  0  0  0  0  0  0
   11.6568  -15.5275   19.9348 C   0  0  0  0  0  0  0  0  0  0  0  0
   10.6945  -14.7311   19.7613 O   0  0  0  0  0  0  0  0  0  0  0  0
   11.4484  -16.5909   20.8627 N   0  0  0  0  0  0  0  0  0  0  0  0
   10.2102  -16.8552   21.5203 C   0  0  1  0  0  0  0  0  0  0  0  0
    9.9289  -18.3347   21.7264 C   0  0  0  0  0  0  0  0  0  0  0  0
    9.5373  -19.0087   20.4851 C   0  0  0  0  0  0  0  0  0  0  0  0
    8.4309  -18.8127   19.6839 C   0  0  0  0  0  0  0  0  0  0  0  0
    8.4785  -19.6526   18.6482 N   0  0  0  0  0  0  0  0  0  0  0  0
    9.6006  -20.3830   18.7764 C   0  0  0  0  0  0  0  0  0  0  0  0
   10.2373  -19.9912   19.8870 N   0  0  0  0  0  0  0  0  0  0  0  0
   10.1237  -16.1683   22.8525 C   0  0  0  0  0  0  0  0  0  0  0  0
   11.1843  -15.9371   23.4859 O   0  0  0  0  0  0  0  0  0  0  0  0
    5.7804  -11.7078   27.6554 C   0  0  0  0  0  0  0  0  0  0  0  0
    5.8568  -12.6474   26.1106 S   0  0  0  0  0  0  0  0  0  0  0  0
    7.3492  -13.6379   26.1064 C   0  0  0  0  0  0  0  0  0  0  0  0
    7.6880  -14.2462   24.8006 C   0  0  0  0  0  0  0  0  0  0  0  0
    8.9132  -15.0584   24.7629 C   0  0  2  0  0  0  0  0  0  0  0  0
    8.9073  -15.7691   23.4285 N   0  0  0  0  0  0  0  0  0  0  0  0
    8.9961  -16.0716   25.8097 C   0  0  0  0  0  0  0  0  0  0  0  0
    9.7764  -15.8173   26.9596 O   0  0  0  0  0  0  0  0  0  0  0  0
    8.4337  -17.1735   25.7972 O   0  0  0  0  0  0  0  0  0  0  0  0
  2  3  1  0
  2  1  1  6
  3  4  1  0
  4  8  1  0
  5  4  2  0
  5  6  1  0
  6  7  1  0
  8  7  2  0
  9 10  2  0
  9  2  1  0
 11  9  1  0
 12 11  1  0
 13 14  1  0
 12 13  1  1
 14 18  1  0
 14 15  2  0
 15 16  1  0
 17 16  1  0
 18 17  2  0
 19 20  2  0
 19 12  1  0
 22 21  1  0
 23 22  1  0
 25 24  1  1
 24 23  1  0
 25 26  1  0
 26 19  1  0
 27 25  1  0
 28 27  1  0
 29 27  2  0
M  END
$$$$
