HHM.pdb
     RDKit          3D

 29 30  0  0  1  0  0  0  0  0999 V2000
    7.8249  -17.4593   18.7215 N   0  0  0  0  0  0  0  0  0  0  0  0
    8.5288  -16.4802   19.5514 C   0  0  1  0  0  0  0  0  0  0  0  0
    7.7566  -15.1776   19.5567 C   0  0  0  0  0  0  0  0  0  0  0  0
    7.8953  -14.4748   18.2504 C   0  0  0  0  0  0  0  0  0  0  0  0
    8.6166  -14.8548   17.1475 C   0  0  0  0  0  0  0  0  0  0  0  0
    8.4371  -13.9041   16.2143 N   0  0  0  0  0  0  0  0  0  0  0  0
    7.6391  -12.9585   16.6948 C   0  0  0  0  0  0  0  0  0  0  0  0
    7.3063  -13.3094   17.9455 N   0  0  0  0  0  0  0  0  0  0  0  0
    8.5986  -17.0418   20.9170 C   0  0  0  0  0  0  0  0  0  0  0  0
    7.5509  -17.4080   21.5158 O   0  0  0  0  0  0  0  0  0  0  0  0
    9.8279  -17.1994   21.6236 N   0  0  0  0  0  0  0  0  0  0  0  0
    9.9297  -17.6560   22.9714 C   0  0  1  0  0  0  0  0  0  0  0  0
   11.0921  -18.6058   23.2110 C   0  0  0  0  0  0  0  0  0  0  0  0
   10.8395  -19.9465   22.6754 C   0  0  0  0  0  0  0  0  0  0  0  0
    9.7859  -20.8071   22.9075 C   0  0  0  0  0  0  0  0  0  0  0  0
    9.9662  -21.9285   22.2073 N   0  0  0  0  0  0  0  0  0  0  0  0
   11.1211  -21.7965   21.5305 C   0  0  0  0  0  0  0  0  0  0  0  0
   11.6455  -20.5982   21.8159 N   0  0  0  0  0  0  0  0  0  0  0  0
   10.0426  -16.5173   23.9433 C   0  0  0  0  0  0  0  0  0  0  0  0
   10.8867  -15.6126   23.7227 O   0  0  0  0  0  0  0  0  0  0  0  0
    6.5117  -10.8694   27.5579 C   0  0  0  0  0  0  0  0  0  0  0  0
    6.4543  -12.3577   26.5298 S   0  0  0  0  0  0  0  0  0  0  0  0
    7.9826  -13.2679   26.7398 C   0  0  0  0  0  0  0  0  0  0  0  0
    8.1130  -14.4692   25.8855 C   0  0  0  0  0  0  0  0  0  0  0  0
    9.3834  -15.2026   25.9888 C   0  0  2  0  0  0  0  0  0  0  0  0
    9.2454  -16.4136   25.0943 N   0  0  0  0  0  0  0  0  0  0  0  0
    9.6993  -15.6726   27.3336 C   0  0  0  0  0  0  0  0  0  0  0  0
    9.8208  -17.0598   27.5719 O   0  0  0  0  0  0  0  0  0  0  0  0
    9.8790  -14.9575   28.3271 O   0  0  0  0  0  0  0  0  0  0  0  0
  2  3  1  0
  2  1  1  6
  3  4  1  0
  4  8  1  0
  5  4  2  0
  5  6  1  0
  6  7  1  0
  8  7  2  0
  9 10  2  0
  9  2  1  0
 11  9  1  0
 12 11  1  0
 13 14  1  0
 12 13  1  6
 14 18  1  0
 14 15  2  0
 15 16  1  0
 17 16  1  0
 18 17  2  0
 19 20  2  0
 19 12  1  0
 22 21  1  0
 23 22  1  0
 25 24  1  1
 24 23  1  0
 25 26  1  0
 26 19  1  0
 27 25  1  0
 28 27  1  0
 29 27  2  0
M  END
$$$$
