EIF.pdb
     RDKit          3D

 29 29  0  0  1  0  0  0  0  0999 V2000
    9.3086  -19.2552   18.6336 N   0  0  0  0  0  0  0  0  0  0  0  0
    8.2828  -18.7848   19.6019 C   0  0  1  0  0  0  0  0  0  0  0  0
    7.8836  -19.9224   20.4865 C   0  0  0  0  0  0  0  0  0  0  0  0
    9.0768  -20.4984   21.1906 C   0  0  0  0  0  0  0  0  0  0  0  0
    8.6580  -21.7105   21.9846 C   0  0  0  0  0  0  0  0  0  0  0  0
    9.5553  -22.3353   22.5774 O   0  0  0  0  0  0  0  0  0  0  0  0
    8.7793  -17.5844   20.2723 C   0  0  0  0  0  0  0  0  0  0  0  0
   10.0367  -17.4206   20.3357 O   0  0  0  0  0  0  0  0  0  0  0  0
    7.3345  -22.0979   22.0421 O   0  0  0  0  0  0  0  0  0  0  0  0
    7.8668  -11.7586   20.6012 C   0  0  0  0  0  0  0  0  0  0  0  0
    8.5786  -12.8817   21.3760 C   0  0  0  0  0  0  0  0  0  0  0  0
    7.9609  -14.1647   20.9078 C   0  0  2  0  0  0  0  0  0  0  0  0
    6.4603  -14.0619   21.1866 C   0  0  0  0  0  0  0  0  0  0  0  0
    8.5478  -15.4027   21.5084 C   0  0  2  0  0  0  0  0  0  0  0  0
    7.9886  -16.5891   20.8516 N   0  0  0  0  0  0  0  0  0  0  0  0
    8.4195  -15.5344   22.9678 C   0  0  0  0  0  0  0  0  0  0  0  0
    7.3863  -16.0917   23.4470 O   0  0  0  0  0  0  0  0  0  0  0  0
    9.3742  -15.0880   23.9034 N   0  0  0  0  0  0  0  0  0  0  0  0
    9.2599  -15.4213   25.3110 C   0  0  1  0  0  0  0  0  0  0  0  0
    7.7825  -15.3845   25.6592 C   0  0  0  0  0  0  0  0  0  0  0  0
    7.2809  -14.0686   26.0375 C   0  0  0  0  0  0  0  0  0  0  0  0
    8.1395  -13.1171   26.5876 C   0  0  0  0  0  0  0  0  0  0  0  0
    7.6620  -11.8749   26.9330 C   0  0  0  0  0  0  0  0  0  0  0  0
    6.3414  -11.5405   26.7481 C   0  0  0  0  0  0  0  0  0  0  0  0
    5.4966  -12.4723   26.2083 C   0  0  0  0  0  0  0  0  0  0  0  0
    5.9664  -13.7415   25.8510 C   0  0  0  0  0  0  0  0  0  0  0  0
    9.7692  -16.7665   25.5420 C   0  0  0  0  0  0  0  0  0  0  0  0
   10.0153  -17.5799   24.6010 O   0  0  0  0  0  0  0  0  0  0  0  0
   10.0087  -17.2152   26.8253 O   0  0  0  0  0  0  0  0  0  0  0  0
  2  1  1  6
  2  7  1  0
  2  3  1  0
  4  3  1  0
  4  5  1  0
  5  6  2  0
  7  8  2  0
  9  5  1  0
 10 11  1  0
 11 12  1  0
 12 14  1  0
 12 13  1  1
 14 15  1  6
 15  7  1  0
 16 14  1  0
 17 16  2  0
 18 16  1  0
 19 27  1  0
 19 18  1  0
 19 20  1  6
 21 20  1  0
 22 21  2  0
 23 22  1  0
 24 23  2  0
 24 25  1  0
 25 26  2  0
 26 21  1  0
 27 29  1  0
 28 27  2  0
M  END
$$$$
