EIF.pdb
     RDKit          3D

 29 29  0  0  1  0  0  0  0  0999 V2000
   11.1867  -17.6694   17.8126 N   0  0  0  0  0  0  0  0  0  0  0  0
   10.8350  -18.1763   19.1657 C   0  0  1  0  0  0  0  0  0  0  0  0
   11.8823  -19.1441   19.6155 C   0  0  0  0  0  0  0  0  0  0  0  0
   11.5247  -20.5454   19.2158 C   0  0  0  0  0  0  0  0  0  0  0  0
   11.8003  -21.4839   20.3640 C   0  0  0  0  0  0  0  0  0  0  0  0
   12.2290  -20.9783   21.4163 O   0  0  0  0  0  0  0  0  0  0  0  0
   10.5816  -17.0378   20.0469 C   0  0  0  0  0  0  0  0  0  0  0  0
   11.5845  -16.3888   20.4767 O   0  0  0  0  0  0  0  0  0  0  0  0
   11.5820  -22.8410   20.2387 O   0  0  0  0  0  0  0  0  0  0  0  0
    6.6299  -13.4181   19.2011 C   0  0  0  0  0  0  0  0  0  0  0  0
    8.0168  -14.0142   19.5007 C   0  0  0  0  0  0  0  0  0  0  0  0
    7.9077  -14.6618   20.8482 C   0  0  2  0  0  0  0  0  0  0  0  0
    7.5241  -13.5613   21.8391 C   0  0  0  0  0  0  0  0  0  0  0  0
    9.1302  -15.4002   21.2931 C   0  0  2  0  0  0  0  0  0  0  0  0
    9.3238  -16.5919   20.4600 N   0  0  0  0  0  0  0  0  0  0  0  0
    9.1758  -15.7739   22.7150 C   0  0  0  0  0  0  0  0  0  0  0  0
    8.5273  -16.7912   23.1052 O   0  0  0  0  0  0  0  0  0  0  0  0
    9.9023  -15.0836   23.7059 N   0  0  0  0  0  0  0  0  0  0  0  0
    9.8288  -15.4750   25.1012 C   0  0  1  0  0  0  0  0  0  0  0  0
   10.6066  -14.4409   25.8958 C   0  0  0  0  0  0  0  0  0  0  0  0
   10.6220  -14.6684   27.3360 C   0  0  0  0  0  0  0  0  0  0  0  0
   11.2685  -15.7840   27.8677 C   0  0  0  0  0  0  0  0  0  0  0  0
   11.2875  -15.9873   29.2274 C   0  0  0  0  0  0  0  0  0  0  0  0
   10.6774  -15.1075   30.0897 C   0  0  0  0  0  0  0  0  0  0  0  0
   10.0422  -14.0118   29.5708 C   0  0  0  0  0  0  0  0  0  0  0  0
   10.0135  -13.7899   28.1890 C   0  0  0  0  0  0  0  0  0  0  0  0
    8.4405  -15.4678   25.5428 C   0  0  0  0  0  0  0  0  0  0  0  0
    7.5962  -14.6101   25.1439 O   0  0  0  0  0  0  0  0  0  0  0  0
    7.9826  -16.4183   26.4330 O   0  0  0  0  0  0  0  0  0  0  0  0
  2  1  1  6
  2  7  1  0
  2  3  1  0
  4  3  1  0
  4  5  1  0
  5  6  2  0
  7  8  2  0
  9  5  1  0
 10 11  1  0
 11 12  1  0
 12 14  1  0
 12 13  1  1
 14 15  1  6
 15  7  1  0
 16 14  1  0
 17 16  2  0
 18 16  1  0
 19 27  1  0
 19 18  1  0
 19 20  1  1
 21 20  1  0
 22 21  2  0
 23 22  1  0
 24 23  2  0
 24 25  1  0
 25 26  2  0
 26 21  1  0
 27 29  1  0
 28 27  2  0
M  END
$$$$
