EIF.pdb
     RDKit          3D

 29 29  0  0  1  0  0  0  0  0999 V2000
    9.6659  -18.7698   18.8438 N   0  0  0  0  0  0  0  0  0  0  0  0
   10.9221  -18.0252   19.1244 C   0  0  1  0  0  0  0  0  0  0  0  0
   11.4255  -17.4147   17.8556 C   0  0  0  0  0  0  0  0  0  0  0  0
   12.0129  -18.4600   16.9537 C   0  0  0  0  0  0  0  0  0  0  0  0
   13.0964  -17.8433   16.1047 C   0  0  0  0  0  0  0  0  0  0  0  0
   14.1917  -18.4316   16.0715 O   0  0  0  0  0  0  0  0  0  0  0  0
   10.6903  -17.1080   20.2388 C   0  0  0  0  0  0  0  0  0  0  0  0
   11.6608  -16.3831   20.6190 O   0  0  0  0  0  0  0  0  0  0  0  0
   12.8688  -16.6779   15.4011 O   0  0  0  0  0  0  0  0  0  0  0  0
    6.6617  -13.7625   20.4450 C   0  0  0  0  0  0  0  0  0  0  0  0
    8.0809  -14.3435   20.5744 C   0  0  0  0  0  0  0  0  0  0  0  0
    8.0712  -15.1906   21.8111 C   0  0  2  0  0  0  0  0  0  0  0  0
    7.7971  -14.2531   22.9884 C   0  0  0  0  0  0  0  0  0  0  0  0
    9.3100  -16.0000   22.0301 C   0  0  2  0  0  0  0  0  0  0  0  0
    9.4851  -16.9518   20.9278 N   0  0  0  0  0  0  0  0  0  0  0  0
    9.3993  -16.7066   23.3171 C   0  0  0  0  0  0  0  0  0  0  0  0
    8.8254  -17.8301   23.4435 O   0  0  0  0  0  0  0  0  0  0  0  0
   10.0912  -16.2322   24.4495 N   0  0  0  0  0  0  0  0  0  0  0  0
   10.4589  -17.1239   25.5336 C   0  0  1  0  0  0  0  0  0  0  0  0
   11.4244  -16.3653   26.4268 C   0  0  0  0  0  0  0  0  0  0  0  0
   10.8301  -15.2485   27.1520 C   0  0  0  0  0  0  0  0  0  0  0  0
   10.8617  -15.2150   28.5459 C   0  0  0  0  0  0  0  0  0  0  0  0
   10.3080  -14.1542   29.2230 C   0  0  0  0  0  0  0  0  0  0  0  0
    9.7153  -13.1102   28.5532 C   0  0  0  0  0  0  0  0  0  0  0  0
    9.6830  -13.1404   27.1852 C   0  0  0  0  0  0  0  0  0  0  0  0
   10.2421  -14.2127   26.4804 C   0  0  0  0  0  0  0  0  0  0  0  0
    9.2744  -17.4761   26.3053 C   0  0  0  0  0  0  0  0  0  0  0  0
    8.1407  -16.9444   26.1067 O   0  0  0  0  0  0  0  0  0  0  0  0
    9.3453  -18.4254   27.3051 O   0  0  0  0  0  0  0  0  0  0  0  0
  2  1  1  6
  2  7  1  0
  2  3  1  0
  4  3  1  0
  4  5  1  0
  5  6  2  0
  7  8  2  0
  9  5  1  0
 10 11  1  0
 11 12  1  0
 12 14  1  0
 12 13  1  1
 14 15  1  6
 15  7  1  0
 16 14  1  0
 17 16  2  0
 18 16  1  0
 19 27  1  0
 19 18  1  0
 19 20  1  1
 21 20  1  0
 22 21  2  0
 23 22  1  0
 24 23  2  0
 24 25  1  0
 25 26  2  0
 26 21  1  0
 27 29  1  0
 28 27  2  0
M  END
$$$$
