EIF.pdb
     RDKit          3D

 29 29  0  0  1  0  0  0  0  0999 V2000
   13.2786  -16.0975   20.6378 N   0  0  0  0  0  0  0  0  0  0  0  0
   11.9896  -16.8360   20.7052 C   0  0  1  0  0  0  0  0  0  0  0  0
   12.2417  -18.2192   21.2141 C   0  0  0  0  0  0  0  0  0  0  0  0
   12.7902  -19.0982   20.1287 C   0  0  0  0  0  0  0  0  0  0  0  0
   12.8789  -20.5192   20.6264 C   0  0  0  0  0  0  0  0  0  0  0  0
   13.9793  -20.8958   21.0669 O   0  0  0  0  0  0  0  0  0  0  0  0
   11.0233  -16.0348   21.4543 C   0  0  0  0  0  0  0  0  0  0  0  0
   11.4671  -15.2848   22.3775 O   0  0  0  0  0  0  0  0  0  0  0  0
   11.7801  -21.3537   20.5889 O   0  0  0  0  0  0  0  0  0  0  0  0
    6.8917  -13.2998   19.3797 C   0  0  0  0  0  0  0  0  0  0  0  0
    8.1256  -13.6865   20.2141 C   0  0  0  0  0  0  0  0  0  0  0  0
    7.6382  -14.6505   21.2533 C   0  0  2  0  0  0  0  0  0  0  0  0
    6.6162  -13.9004   22.1093 C   0  0  0  0  0  0  0  0  0  0  0  0
    8.7115  -15.2674   22.0933 C   0  0  2  0  0  0  0  0  0  0  0  0
    9.6426  -16.0157   21.2420 N   0  0  0  0  0  0  0  0  0  0  0  0
    8.2533  -16.1207   23.2002 C   0  0  0  0  0  0  0  0  0  0  0  0
    8.4732  -17.3683   23.1474 O   0  0  0  0  0  0  0  0  0  0  0  0
    7.5783  -15.6576   24.3475 N   0  0  0  0  0  0  0  0  0  0  0  0
    7.3656  -16.5211   25.4940 C   0  0  1  0  0  0  0  0  0  0  0  0
    6.6285  -15.7017   26.5385 C   0  0  0  0  0  0  0  0  0  0  0  0
    7.1606  -14.3596   26.7430 C   0  0  0  0  0  0  0  0  0  0  0  0
    6.4040  -13.2399   26.3978 C   0  0  0  0  0  0  0  0  0  0  0  0
    6.9079  -11.9772   26.6022 C   0  0  0  0  0  0  0  0  0  0  0  0
    8.1560  -11.7855   27.1459 C   0  0  0  0  0  0  0  0  0  0  0  0
    8.9007  -12.8825   27.4858 C   0  0  0  0  0  0  0  0  0  0  0  0
    8.4026  -14.1750   27.2844 C   0  0  0  0  0  0  0  0  0  0  0  0
    6.5373  -17.6561   25.1093 C   0  0  0  0  0  0  0  0  0  0  0  0
    5.8717  -17.6878   24.0306 O   0  0  0  0  0  0  0  0  0  0  0  0
    6.4453  -18.7659   25.9251 O   0  0  0  0  0  0  0  0  0  0  0  0
  2  1  1  1
  2  7  1  0
  2  3  1  0
  4  3  1  0
  4  5  1  0
  5  6  2  0
  7  8  2  0
  9  5  1  0
 10 11  1  0
 11 12  1  0
 12 14  1  0
 12 13  1  1
 14 15  1  6
 15  7  1  0
 16 14  1  0
 17 16  2  0
 18 16  1  0
 19 27  1  0
 19 18  1  0
 19 20  1  1
 21 20  1  0
 22 21  2  0
 23 22  1  0
 24 23  2  0
 24 25  1  0
 25 26  2  0
 26 21  1  0
 27 29  1  0
 28 27  2  0
M  END
$$$$
