EIF.pdb
     RDKit          3D

 29 29  0  0  1  0  0  0  0  0999 V2000
   13.0119  -16.0431   19.9551 N   0  0  0  0  0  0  0  0  0  0  0  0
   12.0484  -16.9566   20.6248 C   0  0  1  0  0  0  0  0  0  0  0  0
   12.8000  -18.0783   21.2672 C   0  0  0  0  0  0  0  0  0  0  0  0
   13.3119  -19.0408   20.2361 C   0  0  0  0  0  0  0  0  0  0  0  0
   14.0344  -20.1751   20.9189 C   0  0  0  0  0  0  0  0  0  0  0  0
   15.0867  -20.5745   20.3897 O   0  0  0  0  0  0  0  0  0  0  0  0
   11.1809  -16.1709   21.5005 C   0  0  0  0  0  0  0  0  0  0  0  0
   11.7340  -15.3724   22.3181 O   0  0  0  0  0  0  0  0  0  0  0  0
   13.5388  -20.7355   22.0789 O   0  0  0  0  0  0  0  0  0  0  0  0
    7.1598  -13.2029   19.9274 C   0  0  0  0  0  0  0  0  0  0  0  0
    8.4064  -13.7382   20.6538 C   0  0  0  0  0  0  0  0  0  0  0  0
    7.9028  -14.6961   21.6910 C   0  0  2  0  0  0  0  0  0  0  0  0
    6.9967  -13.8973   22.6295 C   0  0  0  0  0  0  0  0  0  0  0  0
    8.9688  -15.4256   22.4454 C   0  0  2  0  0  0  0  0  0  0  0  0
    9.7848  -16.2159   21.5172 N   0  0  0  0  0  0  0  0  0  0  0  0
    8.5073  -16.2777   23.5520 C   0  0  0  0  0  0  0  0  0  0  0  0
    8.3988  -17.5268   23.3631 O   0  0  0  0  0  0  0  0  0  0  0  0
    8.1722  -15.8135   24.8397 N   0  0  0  0  0  0  0  0  0  0  0  0
    7.8059  -16.7349   25.8990 C   0  0  1  0  0  0  0  0  0  0  0  0
    7.4695  -15.8986   27.1209 C   0  0  0  0  0  0  0  0  0  0  0  0
    8.5605  -15.0581   27.5998 C   0  0  0  0  0  0  0  0  0  0  0  0
    9.5867  -15.6043   28.3703 C   0  0  0  0  0  0  0  0  0  0  0  0
   10.6175  -14.8080   28.8105 C   0  0  0  0  0  0  0  0  0  0  0  0
   10.6646  -13.4680   28.5072 C   0  0  0  0  0  0  0  0  0  0  0  0
    9.6589  -12.9292   27.7511 C   0  0  0  0  0  0  0  0  0  0  0  0
    8.6022  -13.7258   27.2948 C   0  0  0  0  0  0  0  0  0  0  0  0
    6.6276  -17.4957   25.5049 C   0  0  0  0  0  0  0  0  0  0  0  0
    6.2647  -18.5572   26.0959 O   0  0  0  0  0  0  0  0  0  0  0  0
    5.8439  -17.0779   24.4481 O   0  0  0  0  0  0  0  0  0  0  0  0
  2  1  1  1
  2  7  1  0
  2  3  1  0
  4  3  1  0
  4  5  1  0
  5  6  2  0
  7  8  2  0
  9  5  1  0
 10 11  1  0
 11 12  1  0
 12 14  1  0
 12 13  1  1
 14 15  1  6
 15  7  1  0
 16 14  1  0
 17 16  2  0
 18 16  1  0
 19 27  1  0
 19 18  1  0
 19 20  1  1
 21 20  1  0
 22 21  2  0
 23 22  1  0
 24 23  2  0
 24 25  1  0
 25 26  2  0
 26 21  1  0
 27 29  1  0
 28 27  2  0
M  END
$$$$
