EIF.pdb
     RDKit          3D

 29 29  0  0  1  0  0  0  0  0999 V2000
   10.0338  -17.9607   17.9659 N   0  0  0  0  0  0  0  0  0  0  0  0
    9.1744  -18.1373   19.1666 C   0  0  1  0  0  0  0  0  0  0  0  0
    9.4488  -19.4754   19.7748 C   0  0  0  0  0  0  0  0  0  0  0  0
    9.9477  -20.4421   18.7414 C   0  0  0  0  0  0  0  0  0  0  0  0
   10.2027  -21.7822   19.3850 C   0  0  0  0  0  0  0  0  0  0  0  0
    9.3694  -22.6800   19.1697 O   0  0  0  0  0  0  0  0  0  0  0  0
    9.3412  -16.9793   20.0430 C   0  0  0  0  0  0  0  0  0  0  0  0
   10.5230  -16.5724   20.2659 O   0  0  0  0  0  0  0  0  0  0  0  0
   11.3153  -21.9891   20.1752 O   0  0  0  0  0  0  0  0  0  0  0  0
    7.0546  -12.3785   19.3946 C   0  0  0  0  0  0  0  0  0  0  0  0
    8.0894  -13.4684   19.7258 C   0  0  0  0  0  0  0  0  0  0  0  0
    7.7570  -13.9504   21.1057 C   0  0  2  0  0  0  0  0  0  0  0  0
    7.9393  -12.7588   22.0474 C   0  0  0  0  0  0  0  0  0  0  0  0
    8.5422  -15.1383   21.5642 C   0  0  2  0  0  0  0  0  0  0  0  0
    8.3082  -16.2698   20.6604 N   0  0  0  0  0  0  0  0  0  0  0  0
    8.3210  -15.5590   22.9562 C   0  0  0  0  0  0  0  0  0  0  0  0
    7.1828  -16.0065   23.2906 O   0  0  0  0  0  0  0  0  0  0  0  0
    9.2931  -15.5117   23.9756 N   0  0  0  0  0  0  0  0  0  0  0  0
    8.9290  -15.6830   25.3697 C   0  0  1  0  0  0  0  0  0  0  0  0
    7.4615  -15.3142   25.4957 C   0  0  0  0  0  0  0  0  0  0  0  0
    7.2155  -13.9602   25.9778 C   0  0  0  0  0  0  0  0  0  0  0  0
    5.9113  -13.5074   26.1760 C   0  0  0  0  0  0  0  0  0  0  0  0
    5.6868  -12.2328   26.6400 C   0  0  0  0  0  0  0  0  0  0  0  0
    6.7286  -11.3799   26.9179 C   0  0  0  0  0  0  0  0  0  0  0  0
    8.0095  -11.8217   26.7244 C   0  0  0  0  0  0  0  0  0  0  0  0
    8.2557  -13.1164   26.2528 C   0  0  0  0  0  0  0  0  0  0  0  0
    9.1037  -17.0765   25.7571 C   0  0  0  0  0  0  0  0  0  0  0  0
    9.0896  -17.4617   26.9650 O   0  0  0  0  0  0  0  0  0  0  0  0
    9.2951  -18.0522   24.7994 O   0  0  0  0  0  0  0  0  0  0  0  0
  2  1  1  6
  2  7  1  0
  2  3  1  0
  4  3  1  0
  4  5  1  0
  5  6  2  0
  7  8  2  0
  9  5  1  0
 10 11  1  0
 11 12  1  0
 12 14  1  0
 12 13  1  1
 14 15  1  6
 15  7  1  0
 16 14  1  0
 17 16  2  0
 18 16  1  0
 19 27  1  0
 19 18  1  0
 19 20  1  6
 21 20  1  0
 22 21  2  0
 23 22  1  0
 24 23  2  0
 24 25  1  0
 25 26  2  0
 26 21  1  0
 27 29  1  0
 28 27  2  0
M  END
$$$$
