EIF.pdb
     RDKit          3D

 29 29  0  0  1  0  0  0  0  0999 V2000
   12.2766  -17.3921   18.9170 N   0  0  0  0  0  0  0  0  0  0  0  0
   10.8720  -17.6667   19.3208 C   0  0  1  0  0  0  0  0  0  0  0  0
   10.7350  -19.1143   19.6698 C   0  0  0  0  0  0  0  0  0  0  0  0
   11.8313  -19.5482   20.5979 C   0  0  0  0  0  0  0  0  0  0  0  0
   11.6412  -21.0001   20.9597 C   0  0  0  0  0  0  0  0  0  0  0  0
   11.1801  -21.2452   22.0885 O   0  0  0  0  0  0  0  0  0  0  0  0
   10.4805  -16.7099   20.3543 C   0  0  0  0  0  0  0  0  0  0  0  0
   11.4012  -16.1889   21.0563 O   0  0  0  0  0  0  0  0  0  0  0  0
   11.9685  -22.0018   20.0684 O   0  0  0  0  0  0  0  0  0  0  0  0
    6.7931  -12.9559   19.4825 C   0  0  0  0  0  0  0  0  0  0  0  0
    8.1014  -13.6271   19.9369 C   0  0  0  0  0  0  0  0  0  0  0  0
    7.7597  -14.4107   21.1683 C   0  0  2  0  0  0  0  0  0  0  0  0
    7.3382  -13.3985   22.2350 C   0  0  0  0  0  0  0  0  0  0  0  0
    8.8468  -15.3109   21.6640 C   0  0  2  0  0  0  0  0  0  0  0  0
    9.1731  -16.3093   20.6401 N   0  0  0  0  0  0  0  0  0  0  0  0
    8.5938  -15.9800   22.9492 C   0  0  0  0  0  0  0  0  0  0  0  0
    8.1268  -17.1588   22.9480 O   0  0  0  0  0  0  0  0  0  0  0  0
    8.8379  -15.4105   24.2150 N   0  0  0  0  0  0  0  0  0  0  0  0
    8.7337  -16.2010   25.4274 C   0  0  1  0  0  0  0  0  0  0  0  0
    9.0705  -15.2826   26.5887 C   0  0  0  0  0  0  0  0  0  0  0  0
    8.2325  -14.0930   26.6841 C   0  0  0  0  0  0  0  0  0  0  0  0
    7.1310  -13.9360   25.8431 C   0  0  0  0  0  0  0  0  0  0  0  0
    6.3395  -12.8165   25.9450 C   0  0  0  0  0  0  0  0  0  0  0  0
    6.6084  -11.8331   26.8672 C   0  0  0  0  0  0  0  0  0  0  0  0
    7.6886  -11.9845   27.6940 C   0  0  0  0  0  0  0  0  0  0  0  0
    8.5047  -13.1182   27.6035 C   0  0  0  0  0  0  0  0  0  0  0  0
    7.3685  -16.6847   25.5846 C   0  0  0  0  0  0  0  0  0  0  0  0
    7.0353  -17.5282   26.4707 O   0  0  0  0  0  0  0  0  0  0  0  0
    6.3634  -16.2307   24.7544 O   0  0  0  0  0  0  0  0  0  0  0  0
  2  1  1  1
  2  7  1  0
  2  3  1  0
  4  3  1  0
  4  5  1  0
  5  6  2  0
  7  8  2  0
  9  5  1  0
 10 11  1  0
 11 12  1  0
 12 14  1  0
 12 13  1  1
 14 15  1  6
 15  7  1  0
 16 14  1  0
 17 16  2  0
 18 16  1  0
 19 27  1  0
 19 18  1  0
 19 20  1  1
 21 20  1  0
 22 21  2  0
 23 22  1  0
 24 23  2  0
 24 25  1  0
 25 26  2  0
 26 21  1  0
 27 29  1  0
 28 27  2  0
M  END
$$$$
