EIF.pdb
     RDKit          3D

 29 29  0  0  1  0  0  0  0  0999 V2000
   11.6462  -16.5758   17.9183 N   0  0  0  0  0  0  0  0  0  0  0  0
   11.3048  -17.4262   19.0895 C   0  0  1  0  0  0  0  0  0  0  0  0
   12.4139  -18.3998   19.3298 C   0  0  0  0  0  0  0  0  0  0  0  0
   12.3635  -19.5255   18.3391 C   0  0  0  0  0  0  0  0  0  0  0  0
   13.4027  -20.5589   18.6957 C   0  0  0  0  0  0  0  0  0  0  0  0
   12.9920  -21.6327   19.1700 O   0  0  0  0  0  0  0  0  0  0  0  0
   10.9439  -16.5630   20.2126 C   0  0  0  0  0  0  0  0  0  0  0  0
   11.7923  -15.6963   20.5879 O   0  0  0  0  0  0  0  0  0  0  0  0
   14.7462  -20.3106   18.4992 O   0  0  0  0  0  0  0  0  0  0  0  0
    6.6713  -13.6165   20.4850 C   0  0  0  0  0  0  0  0  0  0  0  0
    8.1290  -14.0843   20.6420 C   0  0  0  0  0  0  0  0  0  0  0  0
    8.1420  -15.0140   21.8178 C   0  0  2  0  0  0  0  0  0  0  0  0
    7.7249  -14.1914   23.0381 C   0  0  0  0  0  0  0  0  0  0  0  0
    9.4406  -15.7198   22.0486 C   0  0  2  0  0  0  0  0  0  0  0  0
    9.7369  -16.6023   20.9149 N   0  0  0  0  0  0  0  0  0  0  0  0
    9.5504  -16.4725   23.3075 C   0  0  0  0  0  0  0  0  0  0  0  0
    9.0317  -17.6272   23.3815 O   0  0  0  0  0  0  0  0  0  0  0  0
   10.2049  -16.0108   24.4670 N   0  0  0  0  0  0  0  0  0  0  0  0
   10.5521  -16.9174   25.5454 C   0  0  1  0  0  0  0  0  0  0  0  0
   11.4834  -16.1643   26.4787 C   0  0  0  0  0  0  0  0  0  0  0  0
   10.8320  -15.1453   27.2933 C   0  0  0  0  0  0  0  0  0  0  0  0
   10.8710  -15.2229   28.6853 C   0  0  0  0  0  0  0  0  0  0  0  0
   10.2630  -14.2535   29.4475 C   0  0  0  0  0  0  0  0  0  0  0  0
    9.6080  -13.1940   28.8659 C   0  0  0  0  0  0  0  0  0  0  0  0
    9.5683  -13.1152   27.5000 C   0  0  0  0  0  0  0  0  0  0  0  0
   10.1821  -14.0935   26.7093 C   0  0  0  0  0  0  0  0  0  0  0  0
    9.3505  -17.2961   26.2771 C   0  0  0  0  0  0  0  0  0  0  0  0
    8.2222  -16.7545   26.0742 O   0  0  0  0  0  0  0  0  0  0  0  0
    9.3980  -18.2831   27.2410 O   0  0  0  0  0  0  0  0  0  0  0  0
  2  1  1  6
  2  7  1  0
  2  3  1  0
  4  3  1  0
  4  5  1  0
  5  6  2  0
  7  8  2  0
  9  5  1  0
 10 11  1  0
 11 12  1  0
 12 14  1  0
 12 13  1  1
 14 15  1  6
 15  7  1  0
 16 14  1  0
 17 16  2  0
 18 16  1  0
 19 27  1  0
 19 18  1  0
 19 20  1  1
 21 20  1  0
 22 21  2  0
 23 22  1  0
 24 23  2  0
 24 25  1  0
 25 26  2  0
 26 21  1  0
 27 29  1  0
 28 27  2  0
M  END
$$$$
