EIF.pdb
     RDKit          3D

 29 29  0  0  1  0  0  0  0  0999 V2000
    8.5300  -18.8329   20.3390 N   0  0  0  0  0  0  0  0  0  0  0  0
    9.9327  -18.3401   20.3700 C   0  0  1  0  0  0  0  0  0  0  0  0
   10.5293  -18.4698   19.0050 C   0  0  0  0  0  0  0  0  0  0  0  0
    9.4697  -18.3839   17.9462 C   0  0  0  0  0  0  0  0  0  0  0  0
   10.1129  -18.4348   16.5829 C   0  0  0  0  0  0  0  0  0  0  0  0
    9.5730  -17.7734   15.6785 O   0  0  0  0  0  0  0  0  0  0  0  0
    9.9525  -17.0042   20.9630 C   0  0  0  0  0  0  0  0  0  0  0  0
   11.0557  -16.3759   20.9669 O   0  0  0  0  0  0  0  0  0  0  0  0
   11.2498  -19.1858   16.3628 O   0  0  0  0  0  0  0  0  0  0  0  0
    6.6145  -13.0445   19.8366 C   0  0  0  0  0  0  0  0  0  0  0  0
    7.8987  -13.8288   20.1592 C   0  0  0  0  0  0  0  0  0  0  0  0
    7.8314  -14.1516   21.6215 C   0  0  2  0  0  0  0  0  0  0  0  0
    7.7680  -12.8176   22.3675 C   0  0  0  0  0  0  0  0  0  0  0  0
    8.9449  -15.0123   22.1286 C   0  0  2  0  0  0  0  0  0  0  0  0
    8.8564  -16.3475   21.5276 N   0  0  0  0  0  0  0  0  0  0  0  0
    9.0537  -15.1306   23.5907 C   0  0  0  0  0  0  0  0  0  0  0  0
    9.3185  -14.0958   24.2739 O   0  0  0  0  0  0  0  0  0  0  0  0
    8.8783  -16.3256   24.3169 N   0  0  0  0  0  0  0  0  0  0  0  0
    8.9742  -16.3461   25.7646 C   0  0  1  0  0  0  0  0  0  0  0  0
    7.6222  -15.9182   26.3071 C   0  0  0  0  0  0  0  0  0  0  0  0
    7.4913  -14.4863   26.5493 C   0  0  0  0  0  0  0  0  0  0  0  0
    6.2904  -13.8311   26.2774 C   0  0  0  0  0  0  0  0  0  0  0  0
    6.1708  -12.4825   26.5172 C   0  0  0  0  0  0  0  0  0  0  0  0
    7.2185  -11.7517   27.0253 C   0  0  0  0  0  0  0  0  0  0  0  0
    8.3981  -12.3921   27.2932 C   0  0  0  0  0  0  0  0  0  0  0  0
    8.5367  -13.7644   27.0550 C   0  0  0  0  0  0  0  0  0  0  0  0
    9.2623  -17.6996   26.2204 C   0  0  0  0  0  0  0  0  0  0  0  0
    9.3344  -18.6901   25.4322 O   0  0  0  0  0  0  0  0  0  0  0  0
    9.4729  -17.9588   27.5598 O   0  0  0  0  0  0  0  0  0  0  0  0
  2  1  1  6
  2  7  1  0
  2  3  1  0
  4  3  1  0
  4  5  1  0
  5  6  2  0
  7  8  2  0
  9  5  1  0
 10 11  1  0
 11 12  1  0
 12 14  1  0
 12 13  1  1
 14 15  1  6
 15  7  1  0
 16 14  1  0
 17 16  2  0
 18 16  1  0
 19 27  1  0
 19 18  1  0
 19 20  1  1
 21 20  1  0
 22 21  2  0
 23 22  1  0
 24 23  2  0
 24 25  1  0
 25 26  2  0
 26 21  1  0
 27 29  1  0
 28 27  2  0
M  END
$$$$
