EIF.pdb
     RDKit          3D

 29 29  0  0  1  0  0  0  0  0999 V2000
   10.0533  -18.4098   18.7420 N   0  0  0  0  0  0  0  0  0  0  0  0
   11.1596  -17.7667   19.4995 C   0  0  1  0  0  0  0  0  0  0  0  0
   12.2164  -17.3193   18.5409 C   0  0  0  0  0  0  0  0  0  0  0  0
   12.4754  -18.3687   17.5001 C   0  0  0  0  0  0  0  0  0  0  0  0
   13.7177  -18.0126   16.7224 C   0  0  0  0  0  0  0  0  0  0  0  0
   14.0790  -18.8100   15.8389 O   0  0  0  0  0  0  0  0  0  0  0  0
   10.5995  -16.7384   20.3745 C   0  0  0  0  0  0  0  0  0  0  0  0
   11.4081  -16.0503   21.0704 O   0  0  0  0  0  0  0  0  0  0  0  0
   14.4130  -16.8506   16.9897 O   0  0  0  0  0  0  0  0  0  0  0  0
    6.8727  -13.2194   18.9483 C   0  0  0  0  0  0  0  0  0  0  0  0
    8.1415  -13.7993   19.5980 C   0  0  0  0  0  0  0  0  0  0  0  0
    7.6749  -14.6056   20.7724 C   0  0  2  0  0  0  0  0  0  0  0  0
    7.0191  -13.6277   21.7490 C   0  0  0  0  0  0  0  0  0  0  0  0
    8.7377  -15.4193   21.4402 C   0  0  2  0  0  0  0  0  0  0  0  0
    9.2422  -16.4380   20.5130 N   0  0  0  0  0  0  0  0  0  0  0  0
    8.3619  -16.0490   22.7152 C   0  0  0  0  0  0  0  0  0  0  0  0
    7.8007  -17.1859   22.6985 O   0  0  0  0  0  0  0  0  0  0  0  0
    8.5831  -15.4849   23.9877 N   0  0  0  0  0  0  0  0  0  0  0  0
    8.5170  -16.2942   25.1902 C   0  0  1  0  0  0  0  0  0  0  0  0
    9.1546  -15.4864   26.3068 C   0  0  0  0  0  0  0  0  0  0  0  0
    8.4910  -14.2203   26.5947 C   0  0  0  0  0  0  0  0  0  0  0  0
    8.0806  -13.3859   25.5553 C   0  0  0  0  0  0  0  0  0  0  0  0
    7.4468  -12.1980   25.8337 C   0  0  0  0  0  0  0  0  0  0  0  0
    7.2031  -11.8047   27.1282 C   0  0  0  0  0  0  0  0  0  0  0  0
    7.6047  -12.6216   28.1503 C   0  0  0  0  0  0  0  0  0  0  0  0
    8.2511  -13.8344   27.8843 C   0  0  0  0  0  0  0  0  0  0  0  0
    7.1253  -16.5589   25.5303 C   0  0  0  0  0  0  0  0  0  0  0  0
    6.1545  -15.9834   24.9526 O   0  0  0  0  0  0  0  0  0  0  0  0
    6.8054  -17.4689   26.5179 O   0  0  0  0  0  0  0  0  0  0  0  0
  2  1  1  6
  2  7  1  0
  2  3  1  0
  4  3  1  0
  4  5  1  0
  5  6  2  0
  7  8  2  0
  9  5  1  0
 10 11  1  0
 11 12  1  0
 12 14  1  0
 12 13  1  1
 14 15  1  6
 15  7  1  0
 16 14  1  0
 17 16  2  0
 18 16  1  0
 19 27  1  0
 19 18  1  0
 19 20  1  1
 21 20  1  0
 22 21  2  0
 23 22  1  0
 24 23  2  0
 24 25  1  0
 25 26  2  0
 26 21  1  0
 27 29  1  0
 28 27  2  0
M  END
$$$$
