EIF.pdb
     RDKit          3D

 29 29  0  0  1  0  0  0  0  0999 V2000
   11.6606  -18.3556   20.8610 N   0  0  0  0  0  0  0  0  0  0  0  0
   11.8728  -16.9511   20.4209 C   0  0  1  0  0  0  0  0  0  0  0  0
   11.7925  -16.8861   18.9291 C   0  0  0  0  0  0  0  0  0  0  0  0
   13.0214  -16.2460   18.3533 C   0  0  0  0  0  0  0  0  0  0  0  0
   13.7133  -17.2195   17.4321 C   0  0  0  0  0  0  0  0  0  0  0  0
   13.0588  -18.2106   17.0631 O   0  0  0  0  0  0  0  0  0  0  0  0
   10.9595  -16.0803   21.1587 C   0  0  0  0  0  0  0  0  0  0  0  0
   11.0722  -14.8271   20.9894 O   0  0  0  0  0  0  0  0  0  0  0  0
   15.0148  -17.0075   17.0246 O   0  0  0  0  0  0  0  0  0  0  0  0
    8.0971  -13.2096   19.7209 C   0  0  0  0  0  0  0  0  0  0  0  0
    9.0326  -13.8519   20.7604 C   0  0  0  0  0  0  0  0  0  0  0  0
    8.2280  -14.9189   21.4394 C   0  0  2  0  0  0  0  0  0  0  0  0
    6.9248  -14.2648   21.9016 C   0  0  0  0  0  0  0  0  0  0  0  0
    8.9251  -15.6120   22.5670 C   0  0  2  0  0  0  0  0  0  0  0  0
    9.9614  -16.5057   22.0386 N   0  0  0  0  0  0  0  0  0  0  0  0
    8.0620  -16.3488   23.5028 C   0  0  0  0  0  0  0  0  0  0  0  0
    7.5732  -17.4621   23.1430 O   0  0  0  0  0  0  0  0  0  0  0  0
    7.7278  -15.9150   24.8014 N   0  0  0  0  0  0  0  0  0  0  0  0
    7.5582  -16.8603   25.8891 C   0  0  1  0  0  0  0  0  0  0  0  0
    7.3998  -16.0499   27.1634 C   0  0  0  0  0  0  0  0  0  0  0  0
    8.4610  -15.0783   27.4002 C   0  0  0  0  0  0  0  0  0  0  0  0
    9.6128  -15.4461   28.0954 C   0  0  0  0  0  0  0  0  0  0  0  0
   10.6138  -14.5276   28.3068 C   0  0  0  0  0  0  0  0  0  0  0  0
   10.5084  -13.2372   27.8445 C   0  0  0  0  0  0  0  0  0  0  0  0
    9.3792  -12.8735   27.1619 C   0  0  0  0  0  0  0  0  0  0  0  0
    8.3508  -13.7962   26.9379 C   0  0  0  0  0  0  0  0  0  0  0  0
    6.3516  -17.6480   25.6739 C   0  0  0  0  0  0  0  0  0  0  0  0
    5.4892  -17.3581   24.7908 O   0  0  0  0  0  0  0  0  0  0  0  0
    6.0976  -18.7663   26.4424 O   0  0  0  0  0  0  0  0  0  0  0  0
  2  1  1  1
  2  7  1  0
  2  3  1  0
  4  3  1  0
  4  5  1  0
  5  6  2  0
  7  8  2  0
  9  5  1  0
 10 11  1  0
 11 12  1  0
 12 14  1  0
 12 13  1  1
 14 15  1  6
 15  7  1  0
 16 14  1  0
 17 16  2  0
 18 16  1  0
 19 27  1  0
 19 18  1  0
 19 20  1  1
 21 20  1  0
 22 21  2  0
 23 22  1  0
 24 23  2  0
 24 25  1  0
 25 26  2  0
 26 21  1  0
 27 29  1  0
 28 27  2  0
M  END
$$$$
