EIF.pdb
     RDKit          3D

 29 29  0  0  1  0  0  0  0  0999 V2000
   11.0191  -16.7711   17.8954 N   0  0  0  0  0  0  0  0  0  0  0  0
   10.8635  -17.6488   19.0857 C   0  0  1  0  0  0  0  0  0  0  0  0
   12.0328  -18.5772   19.1680 C   0  0  0  0  0  0  0  0  0  0  0  0
   11.7290  -19.8832   18.4947 C   0  0  0  0  0  0  0  0  0  0  0  0
   12.8933  -20.8255   18.6719 C   0  0  0  0  0  0  0  0  0  0  0  0
   13.7657  -20.8186   17.7855 O   0  0  0  0  0  0  0  0  0  0  0  0
   10.6129  -16.8148   20.2598 C   0  0  0  0  0  0  0  0  0  0  0  0
   11.6065  -16.2312   20.7928 O   0  0  0  0  0  0  0  0  0  0  0  0
   12.9745  -21.6530   19.7737 O   0  0  0  0  0  0  0  0  0  0  0  0
    6.8273  -13.1398   20.3500 C   0  0  0  0  0  0  0  0  0  0  0  0
    8.1800  -13.8483   20.5418 C   0  0  0  0  0  0  0  0  0  0  0  0
    7.9986  -14.7819   21.7004 C   0  0  2  0  0  0  0  0  0  0  0  0
    7.6514  -13.9191   22.9149 C   0  0  0  0  0  0  0  0  0  0  0  0
    9.1652  -15.6764   21.9773 C   0  0  2  0  0  0  0  0  0  0  0  0
    9.3669  -16.5957   20.8521 N   0  0  0  0  0  0  0  0  0  0  0  0
    9.1115  -16.4348   23.2365 C   0  0  0  0  0  0  0  0  0  0  0  0
    8.3364  -17.4347   23.3202 O   0  0  0  0  0  0  0  0  0  0  0  0
    9.8721  -16.1413   24.3861 N   0  0  0  0  0  0  0  0  0  0  0  0
   10.0304  -17.1141   25.4510 C   0  0  1  0  0  0  0  0  0  0  0  0
   11.0702  -16.5609   26.4093 C   0  0  0  0  0  0  0  0  0  0  0  0
   10.6053  -15.4527   27.2351 C   0  0  0  0  0  0  0  0  0  0  0  0
   10.1046  -14.2930   26.6437 C   0  0  0  0  0  0  0  0  0  0  0  0
    9.6590  -13.2557   27.4283 C   0  0  0  0  0  0  0  0  0  0  0  0
    9.6941  -13.3318   28.8005 C   0  0  0  0  0  0  0  0  0  0  0  0
   10.1849  -14.4687   29.3837 C   0  0  0  0  0  0  0  0  0  0  0  0
   10.6425  -15.5341   28.5995 C   0  0  0  0  0  0  0  0  0  0  0  0
    8.7688  -17.2772   26.1611 C   0  0  0  0  0  0  0  0  0  0  0  0
    7.7431  -16.5749   25.9116 O   0  0  0  0  0  0  0  0  0  0  0  0
    8.6412  -18.2261   27.1556 O   0  0  0  0  0  0  0  0  0  0  0  0
  2  1  1  6
  2  7  1  0
  2  3  1  0
  4  3  1  0
  4  5  1  0
  5  6  2  0
  7  8  2  0
  9  5  1  0
 10 11  1  0
 11 12  1  0
 12 14  1  0
 12 13  1  1
 14 15  1  6
 15  7  1  0
 16 14  1  0
 17 16  2  0
 18 16  1  0
 19 27  1  0
 19 18  1  0
 19 20  1  1
 21 20  1  0
 22 21  2  0
 23 22  1  0
 24 23  2  0
 24 25  1  0
 25 26  2  0
 26 21  1  0
 27 29  1  0
 28 27  2  0
M  END
$$$$
