ALK.pdb
     RDKit          3D

 23 22  0  0  1  0  0  0  0  0999 V2000
   23.8699  -17.2423  -18.2324 C   0  0  0  0  0  0  0  0  0  0  0  0
   24.6223  -16.4493  -19.2764 C   0  0  2  0  0  0  0  0  0  0  0  0
   25.8509  -17.0663  -19.6653 N   0  0  0  0  0  0  0  0  0  0  0  0
   24.8101  -15.0398  -18.8797 C   0  0  0  0  0  0  0  0  0  0  0  0
   23.7861  -14.3899  -18.5166 O   0  0  0  0  0  0  0  0  0  0  0  0
   27.3166  -13.1873  -15.6483 C   0  0  0  0  0  0  0  0  0  0  0  0
   28.0619  -13.6576  -16.9247 C   0  0  2  0  0  0  0  0  0  0  0  0
   29.5347  -13.4541  -16.5450 C   0  0  0  0  0  0  0  0  0  0  0  0
   27.5985  -12.7424  -18.0026 C   0  0  0  0  0  0  0  0  0  0  0  0
   26.2170  -12.9569  -18.5247 C   0  0  2  0  0  0  0  0  0  0  0  0
   26.0365  -14.3671  -18.8750 N   0  0  0  0  0  0  0  0  0  0  0  0
   25.8946  -12.0628  -19.6245 C   0  0  0  0  0  0  0  0  0  0  0  0
   26.4035  -12.2686  -20.7561 O   0  0  0  0  0  0  0  0  0  0  0  0
   25.0282  -10.9371  -19.5327 N   0  0  0  0  0  0  0  0  0  0  0  0
   24.5725  -10.1627  -20.6727 C   0  0  1  0  0  0  0  0  0  0  0  0
   23.1140   -9.8890  -20.6805 C   0  0  0  0  0  0  0  0  0  0  0  0
   22.5614   -9.1650  -21.8532 C   0  0  0  0  0  0  0  0  0  0  0  0
   21.0932   -8.9079  -21.8146 C   0  0  0  0  0  0  0  0  0  0  0  0
   20.7054   -8.1740  -23.1010 C   0  0  0  0  0  0  0  0  0  0  0  0
   19.2978   -7.9171  -23.0393 N   0  0  0  0  0  0  0  0  0  0  0  0
   25.4466   -8.9674  -20.7697 C   0  0  0  0  0  0  0  0  0  0  0  0
   26.1787   -8.4856  -19.6641 O   0  0  0  0  0  0  0  0  0  0  0  0
   25.5894   -8.3152  -21.8359 O   0  0  0  0  0  0  0  0  0  0  0  0
  2  1  1  1
  2  3  1  0
  4  2  1  0
  4  5  2  0
  7  6  1  1
  7  9  1  0
  8  7  1  0
 10  9  1  6
 10 12  1  0
 10 11  1  0
 11  4  1  0
 12 14  1  0
 13 12  2  0
 14 15  1  0
 15 21  1  0
 15 16  1  1
 17 16  1  0
 18 17  1  0
 19 18  1  0
 20 19  1  0
 21 23  2  0
 21 22  1  0
M  END
$$$$
