ALK.pdb
     RDKit          3D

 23 22  0  0  1  0  0  0  0  0999 V2000
   27.6925  -19.7517  -16.5848 C   0  0  0  0  0  0  0  0  0  0  0  0
   28.0871  -20.8822  -15.6622 C   0  0  2  0  0  0  0  0  0  0  0  0
   28.5401  -22.0412  -16.3643 N   0  0  0  0  0  0  0  0  0  0  0  0
   27.0270  -21.2033  -14.6864 C   0  0  0  0  0  0  0  0  0  0  0  0
   26.1388  -22.0352  -15.0357 O   0  0  0  0  0  0  0  0  0  0  0  0
   25.8949  -19.9516   -8.7645 C   0  0  0  0  0  0  0  0  0  0  0  0
   25.2650  -20.6557   -9.9947 C   0  0  2  0  0  0  0  0  0  0  0  0
   25.1107  -22.1027   -9.5080 C   0  0  0  0  0  0  0  0  0  0  0  0
   26.2678  -20.5030  -11.0833 C   0  0  0  0  0  0  0  0  0  0  0  0
   25.8574  -20.9452  -12.4482 C   0  0  2  0  0  0  0  0  0  0  0  0
   26.9298  -20.6566  -13.4025 N   0  0  0  0  0  0  0  0  0  0  0  0
   24.5814  -20.3794  -12.8543 C   0  0  0  0  0  0  0  0  0  0  0  0
   24.5340  -19.1870  -13.2514 O   0  0  0  0  0  0  0  0  0  0  0  0
   23.3398  -21.0754  -12.8406 N   0  0  0  0  0  0  0  0  0  0  0  0
   22.0810  -20.5080  -13.2886 C   0  0  1  0  0  0  0  0  0  0  0  0
   21.6626  -20.9454  -14.6435 C   0  0  0  0  0  0  0  0  0  0  0  0
   20.3772  -20.4160  -15.1651 C   0  0  0  0  0  0  0  0  0  0  0  0
   20.0260  -20.8365  -16.5519 C   0  0  0  0  0  0  0  0  0  0  0  0
   18.6933  -20.1812  -16.9240 C   0  0  0  0  0  0  0  0  0  0  0  0
   18.3304  -20.6584  -18.2247 N   0  0  0  0  0  0  0  0  0  0  0  0
   21.0879  -20.7355  -12.2095 C   0  0  0  0  0  0  0  0  0  0  0  0
   20.3035  -19.6878  -11.6831 O   0  0  0  0  0  0  0  0  0  0  0  0
   20.8841  -21.8685  -11.7020 O   0  0  0  0  0  0  0  0  0  0  0  0
  2  1  1  6
  2  3  1  0
  4  2  1  0
  4  5  2  0
  7  6  1  1
  7  9  1  0
  8  7  1  0
 10  9  1  1
 10 12  1  0
 10 11  1  0
 11  4  1  0
 12 14  1  0
 13 12  2  0
 14 15  1  0
 15 21  1  0
 15 16  1  6
 17 16  1  0
 18 17  1  0
 19 18  1  0
 20 19  1  0
 21 23  2  0
 21 22  1  0
M  END
$$$$
