ALK.pdb
     RDKit          3D

 23 22  0  0  1  0  0  0  0  0999 V2000
   17.3444  -11.9960  -12.1048 C   0  0  0  0  0  0  0  0  0  0  0  0
   16.6942  -10.8766  -11.3242 C   0  0  2  0  0  0  0  0  0  0  0  0
   15.2713  -10.9916  -11.2668 N   0  0  0  0  0  0  0  0  0  0  0  0
   17.1251   -9.5447  -11.7929 C   0  0  0  0  0  0  0  0  0  0  0  0
   18.3649   -9.2890  -11.7779 O   0  0  0  0  0  0  0  0  0  0  0  0
   18.2781   -7.6776  -15.2006 C   0  0  0  0  0  0  0  0  0  0  0  0
   16.7502   -7.9157  -15.0785 C   0  0  2  0  0  0  0  0  0  0  0  0
   16.2497   -7.6028  -16.4949 C   0  0  0  0  0  0  0  0  0  0  0  0
   16.2864   -6.9362  -14.0589 C   0  0  0  0  0  0  0  0  0  0  0  0
   16.6827   -7.1942  -12.6434 C   0  0  2  0  0  0  0  0  0  0  0  0
   16.2649   -8.5422  -12.2531 N   0  0  0  0  0  0  0  0  0  0  0  0
   16.1907   -6.1721  -11.7345 C   0  0  0  0  0  0  0  0  0  0  0  0
   16.3782   -4.9595  -12.0103 O   0  0  0  0  0  0  0  0  0  0  0  0
   15.4948   -6.4283  -10.5194 N   0  0  0  0  0  0  0  0  0  0  0  0
   14.9878   -5.3946   -9.6355 C   0  0  1  0  0  0  0  0  0  0  0  0
   13.9299   -5.8549   -8.7022 C   0  0  0  0  0  0  0  0  0  0  0  0
   12.8685   -6.7347   -9.2537 C   0  0  0  0  0  0  0  0  0  0  0  0
   11.8097   -7.1452   -8.2875 C   0  0  0  0  0  0  0  0  0  0  0  0
   10.7443   -7.9316   -9.0559 C   0  0  0  0  0  0  0  0  0  0  0  0
    9.6859   -8.2280   -8.1376 N   0  0  0  0  0  0  0  0  0  0  0  0
   16.1614   -4.7456   -9.0000 C   0  0  0  0  0  0  0  0  0  0  0  0
   16.0388   -3.5707   -8.2288 O   0  0  0  0  0  0  0  0  0  0  0  0
   17.3295   -5.2002   -9.1071 O   0  0  0  0  0  0  0  0  0  0  0  0
  2  1  1  6
  2  3  1  0
  4  2  1  0
  4  5  2  0
  7  6  1  6
  7  9  1  0
  8  7  1  0
 10  9  1  6
 10 12  1  0
 10 11  1  0
 11  4  1  0
 12 14  1  0
 13 12  2  0
 14 15  1  0
 15 21  1  0
 15 16  1  1
 17 16  1  0
 18 17  1  0
 19 18  1  0
 20 19  1  0
 21 23  2  0
 21 22  1  0
M  END
$$$$
