ALK.pdb
     RDKit          3D

 23 22  0  0  1  0  0  0  0  0999 V2000
   27.3127  -18.2881  -15.1480 C   0  0  0  0  0  0  0  0  0  0  0  0
   27.8259  -19.5077  -14.4170 C   0  0  2  0  0  0  0  0  0  0  0  0
   28.5771  -20.3853  -15.2578 N   0  0  0  0  0  0  0  0  0  0  0  0
   26.7537  -20.2168  -13.6914 C   0  0  0  0  0  0  0  0  0  0  0  0
   26.2047  -21.2009  -14.2685 O   0  0  0  0  0  0  0  0  0  0  0  0
   26.7275  -21.9817   -9.4862 C   0  0  0  0  0  0  0  0  0  0  0  0
   26.5624  -20.4411   -9.5598 C   0  0  2  0  0  0  0  0  0  0  0  0
   26.5358  -20.0375   -8.0796 C   0  0  0  0  0  0  0  0  0  0  0  0
   25.2644  -20.2240  -10.2541 C   0  0  0  0  0  0  0  0  0  0  0  0
   25.2092  -20.5621  -11.7066 C   0  0  2  0  0  0  0  0  0  0  0  0
   26.2977  -19.8826  -12.4119 N   0  0  0  0  0  0  0  0  0  0  0  0
   23.9072  -20.2863  -12.2913 C   0  0  0  0  0  0  0  0  0  0  0  0
   23.5711  -19.0950  -12.5142 O   0  0  0  0  0  0  0  0  0  0  0  0
   22.9460  -21.2752  -12.6439 N   0  0  0  0  0  0  0  0  0  0  0  0
   21.7286  -21.0023  -13.3858 C   0  0  1  0  0  0  0  0  0  0  0  0
   21.5098  -21.8969  -14.5494 C   0  0  0  0  0  0  0  0  0  0  0  0
   20.2645  -21.7035  -15.3346 C   0  0  0  0  0  0  0  0  0  0  0  0
   20.0837  -22.6300  -16.4887 C   0  0  0  0  0  0  0  0  0  0  0  0
   18.7650  -22.2751  -17.1809 C   0  0  0  0  0  0  0  0  0  0  0  0
   18.5794  -23.2078  -18.2519 N   0  0  0  0  0  0  0  0  0  0  0  0
   20.6177  -20.9501  -12.4032 C   0  0  0  0  0  0  0  0  0  0  0  0
   20.6709  -21.6469  -11.1777 O   0  0  0  0  0  0  0  0  0  0  0  0
   19.5680  -20.2850  -12.5996 O   0  0  0  0  0  0  0  0  0  0  0  0
  2  1  1  6
  2  3  1  0
  4  2  1  0
  4  5  2  0
  7  6  1  1
  7  9  1  0
  8  7  1  0
 10  9  1  1
 10 12  1  0
 10 11  1  0
 11  4  1  0
 12 14  1  0
 13 12  2  0
 14 15  1  0
 15 21  1  0
 15 16  1  6
 17 16  1  0
 18 17  1  0
 19 18  1  0
 20 19  1  0
 21 23  2  0
 21 22  1  0
M  END
$$$$
