ALK.pdb
     RDKit          3D

 23 22  0  0  1  0  0  0  0  0999 V2000
   22.7141  -38.6222   -7.3892 C   0  0  0  0  0  0  0  0  0  0  0  0
   23.2719  -37.6342   -8.3881 C   0  0  2  0  0  0  0  0  0  0  0  0
   23.6546  -38.2456   -9.6213 N   0  0  0  0  0  0  0  0  0  0  0  0
   24.3566  -36.8126   -7.8156 C   0  0  0  0  0  0  0  0  0  0  0  0
   25.4945  -37.3514   -7.6828 O   0  0  0  0  0  0  0  0  0  0  0  0
   26.5030  -32.9209   -9.0356 C   0  0  0  0  0  0  0  0  0  0  0  0
   25.0260  -32.7978   -8.5781 C   0  0  2  0  0  0  0  0  0  0  0  0
   24.7401  -31.3028   -8.7727 C   0  0  0  0  0  0  0  0  0  0  0  0
   25.0269  -33.2174   -7.1505 C   0  0  0  0  0  0  0  0  0  0  0  0
   25.3041  -34.6564   -6.8686 C   0  0  2  0  0  0  0  0  0  0  0  0
   24.2214  -35.4813   -7.4083 N   0  0  0  0  0  0  0  0  0  0  0  0
   25.5479  -34.9083   -5.4579 C   0  0  0  0  0  0  0  0  0  0  0  0
   24.5871  -34.8603   -4.6478 O   0  0  0  0  0  0  0  0  0  0  0  0
   26.8181  -35.2123   -4.8917 N   0  0  0  0  0  0  0  0  0  0  0  0
   27.0273  -35.5689   -3.5003 C   0  0  1  0  0  0  0  0  0  0  0  0
   28.3054  -36.2756   -3.2372 C   0  0  0  0  0  0  0  0  0  0  0  0
   28.5524  -36.7463   -1.8508 C   0  0  0  0  0  0  0  0  0  0  0  0
   29.8623  -37.4225   -1.6270 C   0  0  0  0  0  0  0  0  0  0  0  0
   29.9145  -37.8864   -0.1689 C   0  0  0  0  0  0  0  0  0  0  0  0
   31.1752  -38.5369    0.0282 N   0  0  0  0  0  0  0  0  0  0  0  0
   26.7972  -34.3447   -2.6937 C   0  0  0  0  0  0  0  0  0  0  0  0
   26.9405  -33.0520   -3.2402 O   0  0  0  0  0  0  0  0  0  0  0  0
   26.4610  -34.3830   -1.4820 O   0  0  0  0  0  0  0  0  0  0  0  0
  2  1  1  1
  2  3  1  0
  4  2  1  0
  4  5  2  0
  7  6  1  1
  7  9  1  0
  8  7  1  0
 10  9  1  1
 10 12  1  0
 10 11  1  0
 11  4  1  0
 12 14  1  0
 13 12  2  0
 14 15  1  0
 15 21  1  0
 15 16  1  6
 17 16  1  0
 18 17  1  0
 19 18  1  0
 20 19  1  0
 21 23  2  0
 21 22  1  0
M  END
$$$$
