ALK.pdb
     RDKit          3D

 23 22  0  0  1  0  0  0  0  0999 V2000
   27.6976  -18.6655  -14.7040 C   0  0  0  0  0  0  0  0  0  0  0  0
   28.1690  -19.8300  -13.8632 C   0  0  2  0  0  0  0  0  0  0  0  0
   28.8539  -20.8256  -14.6255 N   0  0  0  0  0  0  0  0  0  0  0  0
   27.0824  -20.4059  -13.0467 C   0  0  0  0  0  0  0  0  0  0  0  0
   26.3861  -21.3293  -13.5619 O   0  0  0  0  0  0  0  0  0  0  0  0
   27.4975  -21.6450   -8.6841 C   0  0  0  0  0  0  0  0  0  0  0  0
   27.1925  -20.1447   -8.9332 C   0  0  2  0  0  0  0  0  0  0  0  0
   27.2588  -19.5517   -7.5195 C   0  0  0  0  0  0  0  0  0  0  0  0
   25.8254  -20.1201   -9.5200 C   0  0  0  0  0  0  0  0  0  0  0  0
   25.6873  -20.5797  -10.9331 C   0  0  2  0  0  0  0  0  0  0  0  0
   26.7635  -20.0074  -11.7443 N   0  0  0  0  0  0  0  0  0  0  0  0
   24.3689  -20.3037  -11.4798 C   0  0  0  0  0  0  0  0  0  0  0  0
   24.0915  -19.1382  -11.8623 O   0  0  0  0  0  0  0  0  0  0  0  0
   23.3288  -21.2647  -11.6240 N   0  0  0  0  0  0  0  0  0  0  0  0
   22.2057  -21.1220  -12.5325 C   0  0  1  0  0  0  0  0  0  0  0  0
   22.1134  -22.1882  -13.5605 C   0  0  0  0  0  0  0  0  0  0  0  0
   20.9573  -22.1409  -14.4912 C   0  0  0  0  0  0  0  0  0  0  0  0
   20.9508  -23.1815  -15.5591 C   0  0  0  0  0  0  0  0  0  0  0  0
   19.6640  -23.0193  -16.3726 C   0  0  0  0  0  0  0  0  0  0  0  0
   19.7087  -23.9746  -17.4388 N   0  0  0  0  0  0  0  0  0  0  0  0
   20.9909  -20.9290  -11.7023 C   0  0  0  0  0  0  0  0  0  0  0  0
   19.8330  -20.3008  -12.2072 O   0  0  0  0  0  0  0  0  0  0  0  0
   20.9179  -21.3120  -10.5062 O   0  0  0  0  0  0  0  0  0  0  0  0
  2  1  1  6
  2  3  1  0
  4  2  1  0
  4  5  2  0
  7  6  1  1
  7  9  1  0
  8  7  1  0
 10  9  1  1
 10 12  1  0
 10 11  1  0
 11  4  1  0
 12 14  1  0
 13 12  2  0
 14 15  1  0
 15 21  1  0
 15 16  1  1
 17 16  1  0
 18 17  1  0
 19 18  1  0
 20 19  1  0
 21 23  2  0
 21 22  1  0
M  END
$$$$
