ALK.pdb
     RDKit          3D

 23 22  0  0  1  0  0  0  0  0999 V2000
   19.9317  -31.9112   -7.8211 C   0  0  0  0  0  0  0  0  0  0  0  0
   20.8819  -32.6460   -8.7389 C   0  0  2  0  0  0  0  0  0  0  0  0
   20.2415  -33.6763   -9.4935 N   0  0  0  0  0  0  0  0  0  0  0  0
   22.0767  -33.1404   -8.0267 C   0  0  0  0  0  0  0  0  0  0  0  0
   21.9472  -34.1759   -7.3100 O   0  0  0  0  0  0  0  0  0  0  0  0
   26.4511  -34.6499   -9.1924 C   0  0  0  0  0  0  0  0  0  0  0  0
   26.0456  -33.1817   -9.4851 C   0  0  2  0  0  0  0  0  0  0  0  0
   27.3077  -32.6127  -10.1468 C   0  0  0  0  0  0  0  0  0  0  0  0
   25.7588  -32.5864   -8.1518 C   0  0  0  0  0  0  0  0  0  0  0  0
   24.5451  -33.0800   -7.4375 C   0  0  2  0  0  0  0  0  0  0  0  0
   23.3433  -32.5497   -8.0844 N   0  0  0  0  0  0  0  0  0  0  0  0
   24.5850  -32.7935   -6.0129 C   0  0  0  0  0  0  0  0  0  0  0  0
   24.5687  -31.5977   -5.6237 O   0  0  0  0  0  0  0  0  0  0  0  0
   24.6449  -33.7765   -4.9851 N   0  0  0  0  0  0  0  0  0  0  0  0
   24.6381  -33.4745   -3.5653 C   0  0  1  0  0  0  0  0  0  0  0  0
   23.4578  -34.0001   -2.8355 C   0  0  0  0  0  0  0  0  0  0  0  0
   23.4214  -33.8029   -1.3642 C   0  0  0  0  0  0  0  0  0  0  0  0
   22.1640  -34.2362   -0.6901 C   0  0  0  0  0  0  0  0  0  0  0  0
   22.3147  -33.9733    0.8106 C   0  0  0  0  0  0  0  0  0  0  0  0
   21.0842  -34.3536    1.4372 N   0  0  0  0  0  0  0  0  0  0  0  0
   25.9578  -33.8829   -3.0230 C   0  0  0  0  0  0  0  0  0  0  0  0
   26.8591  -34.6730   -3.7670 O   0  0  0  0  0  0  0  0  0  0  0  0
   26.3525  -33.5512   -1.8755 O   0  0  0  0  0  0  0  0  0  0  0  0
  2  1  1  1
  2  3  1  0
  4  2  1  0
  4  5  2  0
  7  6  1  1
  7  9  1  0
  8  7  1  0
 10  9  1  6
 10 12  1  0
 10 11  1  0
 11  4  1  0
 12 14  1  0
 13 12  2  0
 14 15  1  0
 15 21  1  0
 15 16  1  1
 17 16  1  0
 18 17  1  0
 19 18  1  0
 20 19  1  0
 21 23  2  0
 21 22  1  0
M  END
$$$$
