ALK.pdb
     RDKit          3D

 23 22  0  0  1  0  0  0  0  0999 V2000
   22.7294  -21.4607  -19.0401 C   0  0  0  0  0  0  0  0  0  0  0  0
   24.1369  -21.5431  -18.4950 C   0  0  2  0  0  0  0  0  0  0  0  0
   24.7657  -22.7972  -18.7652 N   0  0  0  0  0  0  0  0  0  0  0  0
   24.2040  -21.1852  -17.0644 C   0  0  0  0  0  0  0  0  0  0  0  0
   23.8642  -22.0665  -16.2214 O   0  0  0  0  0  0  0  0  0  0  0  0
   27.6196  -19.5154  -14.9246 C   0  0  0  0  0  0  0  0  0  0  0  0
   26.7919  -18.4190  -15.6450 C   0  0  2  0  0  0  0  0  0  0  0  0
   27.6367  -17.1587  -15.4156 C   0  0  0  0  0  0  0  0  0  0  0  0
   25.4851  -18.3910  -14.9339 C   0  0  0  0  0  0  0  0  0  0  0  0
   24.5664  -19.5448  -15.1613 C   0  0  2  0  0  0  0  0  0  0  0  0
   24.6157  -19.9433  -16.5694 N   0  0  0  0  0  0  0  0  0  0  0  0
   23.2130  -19.2746  -14.7046 C   0  0  0  0  0  0  0  0  0  0  0  0
   23.0118  -19.0179  -13.4900 O   0  0  0  0  0  0  0  0  0  0  0  0
   22.0569  -19.2765  -15.5350 N   0  0  0  0  0  0  0  0  0  0  0  0
   20.7017  -19.0947  -15.0478 C   0  0  1  0  0  0  0  0  0  0  0  0
   19.7388  -18.6362  -16.0797 C   0  0  0  0  0  0  0  0  0  0  0  0
   19.1518  -17.2826  -15.9122 C   0  0  0  0  0  0  0  0  0  0  0  0
   18.2696  -16.8243  -17.0234 C   0  0  0  0  0  0  0  0  0  0  0  0
   17.8066  -15.3999  -16.7059 C   0  0  0  0  0  0  0  0  0  0  0  0
   17.0768  -14.9239  -17.8426 N   0  0  0  0  0  0  0  0  0  0  0  0
   20.3231  -20.3364  -14.3286 C   0  0  0  0  0  0  0  0  0  0  0  0
   20.8727  -21.5915  -14.6647 O   0  0  0  0  0  0  0  0  0  0  0  0
   19.4961  -20.3469  -13.3807 O   0  0  0  0  0  0  0  0  0  0  0  0
  2  1  1  1
  2  3  1  0
  4  2  1  0
  4  5  2  0
  7  6  1  1
  7  9  1  0
  8  7  1  0
 10  9  1  6
 10 12  1  0
 10 11  1  0
 11  4  1  0
 12 14  1  0
 13 12  2  0
 14 15  1  0
 15 21  1  0
 15 16  1  6
 17 16  1  0
 18 17  1  0
 19 18  1  0
 20 19  1  0
 21 23  2  0
 21 22  1  0
M  END
$$$$
