ALK.pdb
     RDKit          3D

 23 22  0  0  1  0  0  0  0  0999 V2000
   27.6992  -18.9922  -15.4890 C   0  0  0  0  0  0  0  0  0  0  0  0
   27.9942  -20.2148  -14.6504 C   0  0  2  0  0  0  0  0  0  0  0  0
   28.5906  -21.2740  -15.4013 N   0  0  0  0  0  0  0  0  0  0  0  0
   26.8131  -20.6697  -13.8906 C   0  0  0  0  0  0  0  0  0  0  0  0
   26.0772  -21.5528  -14.4211 O   0  0  0  0  0  0  0  0  0  0  0  0
   25.7764  -22.1630   -9.2860 C   0  0  0  0  0  0  0  0  0  0  0  0
   26.3312  -20.7434   -9.5744 C   0  0  2  0  0  0  0  0  0  0  0  0
   26.3673  -20.1093   -8.1775 C   0  0  0  0  0  0  0  0  0  0  0  0
   25.3335  -20.1152  -10.4821 C   0  0  0  0  0  0  0  0  0  0  0  0
   25.2659  -20.6376  -11.8784 C   0  0  2  0  0  0  0  0  0  0  0  0
   26.4453  -20.1976  -12.6263 N   0  0  0  0  0  0  0  0  0  0  0  0
   24.0211  -20.2871  -12.5421 C   0  0  0  0  0  0  0  0  0  0  0  0
   23.8724  -19.1253  -13.0003 O   0  0  0  0  0  0  0  0  0  0  0  0
   22.9182  -21.1684  -12.7245 N   0  0  0  0  0  0  0  0  0  0  0  0
   21.7701  -20.8766  -13.5633 C   0  0  1  0  0  0  0  0  0  0  0  0
   21.7237  -21.6547  -14.8260 C   0  0  0  0  0  0  0  0  0  0  0  0
   20.5448  -21.4569  -15.7069 C   0  0  0  0  0  0  0  0  0  0  0  0
   20.4871  -22.3379  -16.9084 C   0  0  0  0  0  0  0  0  0  0  0  0
   19.2287  -21.9771  -17.7021 C   0  0  0  0  0  0  0  0  0  0  0  0
   19.2835  -22.6946  -18.9405 N   0  0  0  0  0  0  0  0  0  0  0  0
   20.5628  -20.9782  -12.7064 C   0  0  0  0  0  0  0  0  0  0  0  0
   20.6360  -21.3861  -11.3579 O   0  0  0  0  0  0  0  0  0  0  0  0
   19.4079  -20.7074  -13.1254 O   0  0  0  0  0  0  0  0  0  0  0  0
  2  1  1  6
  2  3  1  0
  4  2  1  0
  4  5  2  0
  7  6  1  1
  7  9  1  0
  8  7  1  0
 10  9  1  1
 10 12  1  0
 10 11  1  0
 11  4  1  0
 12 14  1  0
 13 12  2  0
 14 15  1  0
 15 21  1  0
 15 16  1  6
 17 16  1  0
 18 17  1  0
 19 18  1  0
 20 19  1  0
 21 23  2  0
 21 22  1  0
M  END
$$$$
