ALK.pdb
     RDKit          3D

 23 22  0  0  1  0  0  0  0  0999 V2000
   38.3929   -9.9835   -8.2693 C   0  0  0  0  0  0  0  0  0  0  0  0
   38.8501  -11.2399   -7.5640 C   0  0  2  0  0  0  0  0  0  0  0  0
   38.3641  -11.3340   -6.2238 N   0  0  0  0  0  0  0  0  0  0  0  0
   40.3132  -11.4215   -7.6380 C   0  0  0  0  0  0  0  0  0  0  0  0
   41.0158  -10.9166   -6.7137 O   0  0  0  0  0  0  0  0  0  0  0  0
   43.6484  -14.8749   -7.5849 C   0  0  0  0  0  0  0  0  0  0  0  0
   42.5327  -14.9058   -8.6620 C   0  0  2  0  0  0  0  0  0  0  0  0
   42.8927  -16.1537   -9.4793 C   0  0  0  0  0  0  0  0  0  0  0  0
   42.6930  -13.6364   -9.4216 C   0  0  0  0  0  0  0  0  0  0  0  0
   42.4242  -12.3677   -8.6833 C   0  0  2  0  0  0  0  0  0  0  0  0
   40.9830  -12.1107   -8.6545 N   0  0  0  0  0  0  0  0  0  0  0  0
   43.1808  -11.2458   -9.2144 C   0  0  0  0  0  0  0  0  0  0  0  0
   42.7726  -10.6621  -10.2509 O   0  0  0  0  0  0  0  0  0  0  0  0
   44.3827  -10.7329   -8.6499 N   0  0  0  0  0  0  0  0  0  0  0  0
   45.0846   -9.5640   -9.1480 C   0  0  1  0  0  0  0  0  0  0  0  0
   45.7474   -8.7557   -8.0947 C   0  0  0  0  0  0  0  0  0  0  0  0
   46.4431   -7.5156   -8.5224 C   0  0  0  0  0  0  0  0  0  0  0  0
   47.0804   -6.7280   -7.4284 C   0  0  0  0  0  0  0  0  0  0  0  0
   47.6720   -5.4559   -8.0414 C   0  0  0  0  0  0  0  0  0  0  0  0
   48.1938   -4.6658   -6.9667 N   0  0  0  0  0  0  0  0  0  0  0  0
   45.9652  -10.0181  -10.2528 C   0  0  0  0  0  0  0  0  0  0  0  0
   46.2858   -9.1832  -11.3439 O   0  0  0  0  0  0  0  0  0  0  0  0
   46.4780  -11.1664  -10.2843 O   0  0  0  0  0  0  0  0  0  0  0  0
  2  1  1  1
  2  3  1  0
  4  2  1  0
  4  5  2  0
  7  6  1  1
  7  9  1  0
  8  7  1  0
 10  9  1  6
 10 12  1  0
 10 11  1  0
 11  4  1  0
 12 14  1  0
 13 12  2  0
 14 15  1  0
 15 21  1  0
 15 16  1  1
 17 16  1  0
 18 17  1  0
 19 18  1  0
 20 19  1  0
 21 23  2  0
 21 22  1  0
M  END
$$$$
