KNE.pdb
     RDKit          3D

 27 26  0  0  1  0  0  0  0  0999 V2000
   31.3147  -24.3699  -16.9964 N   0  0  0  0  0  0  0  0  0  0  0  0
   31.3948  -25.2212  -18.1410 C   0  0  1  0  0  0  0  0  0  0  0  0
   32.4722  -26.2532  -18.0173 C   0  0  0  0  0  0  0  0  0  0  0  0
   33.7344  -25.7030  -17.4394 C   0  0  0  0  0  0  0  0  0  0  0  0
   34.7297  -25.2943  -18.5063 C   0  0  0  0  0  0  0  0  0  0  0  0
   35.9733  -24.7066  -17.8493 C   0  0  0  0  0  0  0  0  0  0  0  0
   36.8723  -24.2536  -18.8969 N   0  0  0  0  0  0  0  0  0  0  0  0
   30.0946  -25.9312  -18.3791 C   0  0  0  0  0  0  0  0  0  0  0  0
   29.9374  -26.7018  -19.3473 O   0  0  0  0  0  0  0  0  0  0  0  0
   26.2819  -28.8907  -15.2708 N   0  0  0  0  0  0  0  0  0  0  0  0
   26.2330  -27.7801  -16.2101 C   0  0  0  0  0  0  0  0  0  0  0  0
   25.0964  -27.5271  -16.6347 O   0  0  0  0  0  0  0  0  0  0  0  0
   27.5043  -27.1587  -16.4929 C   0  0  0  0  0  0  0  0  0  0  0  0
   27.6785  -26.2951  -17.6878 C   0  0  2  0  0  0  0  0  0  0  0  0
   29.0449  -25.7131  -17.4858 N   0  0  0  0  0  0  0  0  0  0  0  0
   26.7948  -25.1264  -17.7979 C   0  0  0  0  0  0  0  0  0  0  0  0
   27.2677  -23.9799  -17.5147 O   0  0  0  0  0  0  0  0  0  0  0  0
   25.4504  -25.0914  -18.1912 N   0  0  0  0  0  0  0  0  0  0  0  0
   24.6694  -23.9138  -18.4322 C   0  0  1  0  0  0  0  0  0  0  0  0
   25.2406  -22.8461  -19.2551 C   0  0  0  0  0  0  0  0  0  0  0  0
   24.3961  -21.6140  -19.4402 C   0  0  0  0  0  0  0  0  0  0  0  0
   25.0218  -20.5848  -20.2991 C   0  0  0  0  0  0  0  0  0  0  0  0
   26.0759  -19.9722  -20.0403 O   0  0  0  0  0  0  0  0  0  0  0  0
   23.2792  -24.2107  -18.8548 C   0  0  0  0  0  0  0  0  0  0  0  0
   22.9801  -25.5109  -19.2526 O   0  0  0  0  0  0  0  0  0  0  0  0
   24.4065  -20.2409  -21.5174 O   0  0  0  0  0  0  0  0  0  0  0  0
   22.3687  -23.3510  -18.8684 O   0  0  0  0  0  0  0  0  0  0  0  0
  2  1  1  1
  2  8  1  0
  3  2  1  0
  4  3  1  0
  5  4  1  0
  6  5  1  0
  7  6  1  0
  8  9  2  0
  8 15  1  0
 10 11  1  0
 11 12  2  0
 13 11  1  0
 14 16  1  0
 14 13  1  1
 15 14  1  0
 16 18  1  0
 17 16  2  0
 18 19  1  0
 19 24  1  0
 19 20  1  6
 20 21  1  0
 22 21  1  0
 22 26  1  0
 23 22  2  0
 24 27  2  0
 24 25  1  0
M  END
$$$$
