KNE.pdb
     RDKit          3D

 27 26  0  0  1  0  0  0  0  0999 V2000
   23.3716  -15.4060  -18.5397 N   0  0  0  0  0  0  0  0  0  0  0  0
   22.4919  -14.3001  -18.3291 C   0  0  1  0  0  0  0  0  0  0  0  0
   21.0726  -14.7253  -18.1150 C   0  0  0  0  0  0  0  0  0  0  0  0
   20.7655  -16.0459  -18.7407 C   0  0  0  0  0  0  0  0  0  0  0  0
   19.3529  -16.5101  -18.4488 C   0  0  0  0  0  0  0  0  0  0  0  0
   19.1432  -17.9066  -19.0230 C   0  0  0  0  0  0  0  0  0  0  0  0
   17.7803  -18.3191  -18.7342 N   0  0  0  0  0  0  0  0  0  0  0  0
   22.9191  -13.4875  -17.1422 C   0  0  0  0  0  0  0  0  0  0  0  0
   22.4578  -13.7003  -16.0030 O   0  0  0  0  0  0  0  0  0  0  0  0
   28.0660  -10.7801  -15.9114 N   0  0  0  0  0  0  0  0  0  0  0  0
   26.6490  -10.7495  -15.5808 C   0  0  0  0  0  0  0  0  0  0  0  0
   26.3744  -10.0442  -14.5992 O   0  0  0  0  0  0  0  0  0  0  0  0
   25.8006  -11.5381  -16.4413 C   0  0  0  0  0  0  0  0  0  0  0  0
   24.3336  -11.5913  -16.2196 C   0  0  2  0  0  0  0  0  0  0  0  0
   23.8568  -12.4721  -17.3347 N   0  0  0  0  0  0  0  0  0  0  0  0
   23.5884  -10.3377  -16.3984 C   0  0  0  0  0  0  0  0  0  0  0  0
   23.7132   -9.7097  -17.4976 O   0  0  0  0  0  0  0  0  0  0  0  0
   22.7196   -9.7105  -15.4955 N   0  0  0  0  0  0  0  0  0  0  0  0
   22.0269   -8.4736  -15.7076 C   0  0  1  0  0  0  0  0  0  0  0  0
   20.7989   -8.4818  -16.5047 C   0  0  0  0  0  0  0  0  0  0  0  0
   19.5925   -9.1258  -15.8758 C   0  0  0  0  0  0  0  0  0  0  0  0
   18.3650   -9.0216  -16.6948 C   0  0  0  0  0  0  0  0  0  0  0  0
   18.3257   -9.0286  -17.9405 O   0  0  0  0  0  0  0  0  0  0  0  0
   21.8355   -7.6899  -14.4632 C   0  0  0  0  0  0  0  0  0  0  0  0
   21.3662   -6.3842  -14.5781 O   0  0  0  0  0  0  0  0  0  0  0  0
   17.1187   -8.9035  -16.0515 O   0  0  0  0  0  0  0  0  0  0  0  0
   22.0741   -8.1471  -13.3219 O   0  0  0  0  0  0  0  0  0  0  0  0
  2  1  1  1
  2  8  1  0
  3  2  1  0
  4  3  1  0
  5  4  1  0
  6  5  1  0
  7  6  1  0
  8  9  2  0
  8 15  1  0
 10 11  1  0
 11 12  2  0
 13 11  1  0
 14 16  1  0
 14 13  1  6
 15 14  1  0
 16 18  1  0
 17 16  2  0
 18 19  1  0
 19 24  1  0
 19 20  1  1
 20 21  1  0
 22 21  1  0
 22 26  1  0
 23 22  2  0
 24 27  2  0
 24 25  1  0
M  END
$$$$
