KNE.pdb
     RDKit          3D

 27 26  0  0  1  0  0  0  0  0999 V2000
   23.2524  -21.6761  -17.8354 N   0  0  0  0  0  0  0  0  0  0  0  0
   23.2649  -23.0017  -17.3026 C   0  0  1  0  0  0  0  0  0  0  0  0
   24.3214  -23.8621  -17.9226 C   0  0  0  0  0  0  0  0  0  0  0  0
   25.5700  -23.1058  -18.2374 C   0  0  0  0  0  0  0  0  0  0  0  0
   26.4719  -22.9494  -17.0299 C   0  0  0  0  0  0  0  0  0  0  0  0
   27.7278  -22.1806  -17.4242 C   0  0  0  0  0  0  0  0  0  0  0  0
   28.5366  -21.9855  -16.2330 N   0  0  0  0  0  0  0  0  0  0  0  0
   23.4879  -22.9861  -15.8189 C   0  0  0  0  0  0  0  0  0  0  0  0
   23.5492  -24.0404  -15.1551 O   0  0  0  0  0  0  0  0  0  0  0  0
   26.1195  -22.3136  -12.0951 N   0  0  0  0  0  0  0  0  0  0  0  0
   26.2528  -21.0925  -12.8756 C   0  0  0  0  0  0  0  0  0  0  0  0
   27.3440  -20.5212  -12.7375 O   0  0  0  0  0  0  0  0  0  0  0  0
   25.1033  -20.7473  -13.6768 C   0  0  0  0  0  0  0  0  0  0  0  0
   23.9105  -21.6303  -13.7138 C   0  0  2  0  0  0  0  0  0  0  0  0
   23.6283  -21.7530  -15.1807 N   0  0  0  0  0  0  0  0  0  0  0  0
   22.6672  -21.0923  -13.1450 C   0  0  0  0  0  0  0  0  0  0  0  0
   22.6347  -20.8263  -11.9015 O   0  0  0  0  0  0  0  0  0  0  0  0
   21.4627  -20.8138  -13.8046 N   0  0  0  0  0  0  0  0  0  0  0  0
   20.2559  -20.3352  -13.1969 C   0  0  1  0  0  0  0  0  0  0  0  0
   19.8035  -18.9771  -13.5036 C   0  0  0  0  0  0  0  0  0  0  0  0
   19.4124  -18.7041  -14.9312 C   0  0  0  0  0  0  0  0  0  0  0  0
   18.8982  -17.3357  -15.1583 C   0  0  0  0  0  0  0  0  0  0  0  0
   18.7330  -16.4710  -14.2758 O   0  0  0  0  0  0  0  0  0  0  0  0
   19.1300  -21.2951  -13.2980 C   0  0  0  0  0  0  0  0  0  0  0  0
   19.2543  -22.3577  -14.1889 O   0  0  0  0  0  0  0  0  0  0  0  0
   18.5560  -16.9390  -16.4646 O   0  0  0  0  0  0  0  0  0  0  0  0
   18.0807  -21.1943  -12.6217 O   0  0  0  0  0  0  0  0  0  0  0  0
  2  1  1  6
  2  8  1  0
  3  2  1  0
  4  3  1  0
  5  4  1  0
  6  5  1  0
  7  6  1  0
  8  9  2  0
  8 15  1  0
 10 11  1  0
 11 12  2  0
 13 11  1  0
 14 16  1  0
 14 13  1  6
 15 14  1  0
 16 18  1  0
 17 16  2  0
 18 19  1  0
 19 24  1  0
 19 20  1  6
 20 21  1  0
 22 21  1  0
 22 26  1  0
 23 22  2  0
 24 27  2  0
 24 25  1  0
M  END
$$$$
