KNE.pdb
     RDKit          3D

 27 26  0  0  1  0  0  0  0  0999 V2000
   22.4524  -15.4479  -17.7649 N   0  0  0  0  0  0  0  0  0  0  0  0
   21.7244  -14.2186  -17.7625 C   0  0  1  0  0  0  0  0  0  0  0  0
   20.3084  -14.3882  -17.3075 C   0  0  0  0  0  0  0  0  0  0  0  0
   19.8374  -15.8020  -17.4024 C   0  0  0  0  0  0  0  0  0  0  0  0
   18.3912  -15.9600  -16.9788 C   0  0  0  0  0  0  0  0  0  0  0  0
   17.9724  -17.4190  -17.1189 C   0  0  0  0  0  0  0  0  0  0  0  0
   16.6110  -17.5523  -16.6290 N   0  0  0  0  0  0  0  0  0  0  0  0
   22.3809  -13.2031  -16.8742 C   0  0  0  0  0  0  0  0  0  0  0  0
   22.3802  -13.3217  -15.6325 O   0  0  0  0  0  0  0  0  0  0  0  0
   25.7361   -9.2304  -15.8604 N   0  0  0  0  0  0  0  0  0  0  0  0
   26.0754  -10.0559  -17.0100 C   0  0  0  0  0  0  0  0  0  0  0  0
   27.2170   -9.8619  -17.4520 O   0  0  0  0  0  0  0  0  0  0  0  0
   25.0372  -10.9585  -17.4455 C   0  0  0  0  0  0  0  0  0  0  0  0
   23.7726  -11.0882  -16.6787 C   0  0  2  0  0  0  0  0  0  0  0  0
   23.0035  -12.1042  -17.4678 N   0  0  0  0  0  0  0  0  0  0  0  0
   22.8940   -9.9110  -16.6417 C   0  0  0  0  0  0  0  0  0  0  0  0
   22.2047   -9.6363  -17.6750 O   0  0  0  0  0  0  0  0  0  0  0  0
   22.6945   -9.0124  -15.5853 N   0  0  0  0  0  0  0  0  0  0  0  0
   21.6139   -8.0788  -15.4610 C   0  0  1  0  0  0  0  0  0  0  0  0
   20.2525   -8.5351  -15.7466 C   0  0  0  0  0  0  0  0  0  0  0  0
   19.4438   -7.6892  -16.6932 C   0  0  0  0  0  0  0  0  0  0  0  0
   18.0651   -8.1822  -16.9053 C   0  0  0  0  0  0  0  0  0  0  0  0
   17.0908   -7.9414  -16.1663 O   0  0  0  0  0  0  0  0  0  0  0  0
   21.6504   -7.3077  -14.1947 C   0  0  0  0  0  0  0  0  0  0  0  0
   20.8208   -6.1953  -14.0821 O   0  0  0  0  0  0  0  0  0  0  0  0
   17.7904   -8.9929  -18.0226 O   0  0  0  0  0  0  0  0  0  0  0  0
   22.3875   -7.6110  -13.2287 O   0  0  0  0  0  0  0  0  0  0  0  0
  2  1  1  1
  2  8  1  0
  3  2  1  0
  4  3  1  0
  5  4  1  0
  6  5  1  0
  7  6  1  0
  8  9  2  0
  8 15  1  0
 10 11  1  0
 11 12  2  0
 13 11  1  0
 14 16  1  0
 14 13  1  6
 15 14  1  0
 16 18  1  0
 17 16  2  0
 18 19  1  0
 19 24  1  0
 19 20  1  1
 20 21  1  0
 22 21  1  0
 22 26  1  0
 23 22  2  0
 24 27  2  0
 24 25  1  0
M  END
$$$$
