KNE.pdb
     RDKit          3D

 27 26  0  0  1  0  0  0  0  0999 V2000
   19.5474  -10.9116  -15.2066 N   0  0  0  0  0  0  0  0  0  0  0  0
   18.6235   -9.8304  -15.3435 C   0  0  1  0  0  0  0  0  0  0  0  0
   17.2288  -10.2114  -14.9556 C   0  0  0  0  0  0  0  0  0  0  0  0
   16.6377  -11.2386  -15.8639 C   0  0  0  0  0  0  0  0  0  0  0  0
   15.2306  -11.6285  -15.4588 C   0  0  0  0  0  0  0  0  0  0  0  0
   15.2107  -13.0860  -15.0127 C   0  0  0  0  0  0  0  0  0  0  0  0
   15.6142  -13.9132  -16.1370 N   0  0  0  0  0  0  0  0  0  0  0  0
   19.0364   -8.6567  -14.5048 C   0  0  0  0  0  0  0  0  0  0  0  0
   19.3111   -8.7815  -13.2944 O   0  0  0  0  0  0  0  0  0  0  0  0
   21.2559   -4.2693  -13.1371 N   0  0  0  0  0  0  0  0  0  0  0  0
   21.8830   -5.5368  -13.4810 C   0  0  0  0  0  0  0  0  0  0  0  0
   23.0942   -5.5876  -13.2231 O   0  0  0  0  0  0  0  0  0  0  0  0
   21.0013   -6.5205  -14.0616 C   0  0  0  0  0  0  0  0  0  0  0  0
   19.5917   -6.1820  -14.3821 C   0  0  2  0  0  0  0  0  0  0  0  0
   19.1101   -7.4010  -15.1091 N   0  0  0  0  0  0  0  0  0  0  0  0
   19.3715   -5.0798  -15.3285 C   0  0  0  0  0  0  0  0  0  0  0  0
   19.8183   -5.1998  -16.5135 O   0  0  0  0  0  0  0  0  0  0  0  0
   18.7078   -3.8662  -15.1050 N   0  0  0  0  0  0  0  0  0  0  0  0
   18.4462   -2.8518  -16.0834 C   0  0  1  0  0  0  0  0  0  0  0  0
   17.1928   -2.0999  -16.0006 C   0  0  0  0  0  0  0  0  0  0  0  0
   16.8635   -1.4851  -14.6668 C   0  0  0  0  0  0  0  0  0  0  0  0
   15.5819   -0.7463  -14.6499 C   0  0  0  0  0  0  0  0  0  0  0  0
   14.4523   -1.2628  -14.5462 O   0  0  0  0  0  0  0  0  0  0  0  0
   19.5918   -1.9340  -16.2945 C   0  0  0  0  0  0  0  0  0  0  0  0
   19.5102   -1.0150  -17.3371 O   0  0  0  0  0  0  0  0  0  0  0  0
   15.5972    0.6570  -14.7574 O   0  0  0  0  0  0  0  0  0  0  0  0
   20.6211   -1.9474  -15.5811 O   0  0  0  0  0  0  0  0  0  0  0  0
  2  1  1  1
  2  8  1  0
  3  2  1  0
  4  3  1  0
  5  4  1  0
  6  5  1  0
  7  6  1  0
  8  9  2  0
  8 15  1  0
 10 11  1  0
 11 12  2  0
 13 11  1  0
 14 16  1  0
 14 13  1  6
 15 14  1  0
 16 18  1  0
 17 16  2  0
 18 19  1  0
 19 24  1  0
 19 20  1  1
 20 21  1  0
 22 21  1  0
 22 26  1  0
 23 22  2  0
 24 27  2  0
 24 25  1  0
M  END
$$$$
