KNE.pdb
     RDKit          3D

 27 26  0  0  1  0  0  0  0  0999 V2000
   21.3372  -12.9249  -15.4200 N   0  0  0  0  0  0  0  0  0  0  0  0
   21.1026  -12.7812  -16.8219 C   0  0  1  0  0  0  0  0  0  0  0  0
   20.0936  -13.7581  -17.3404 C   0  0  0  0  0  0  0  0  0  0  0  0
   18.8073  -13.7155  -16.5833 C   0  0  0  0  0  0  0  0  0  0  0  0
   17.7639  -14.6494  -17.1619 C   0  0  0  0  0  0  0  0  0  0  0  0
   16.4857  -14.5653  -16.3354 C   0  0  0  0  0  0  0  0  0  0  0  0
   15.5295  -15.5167  -16.8752 N   0  0  0  0  0  0  0  0  0  0  0  0
   20.6239  -11.3978  -17.1512 C   0  0  0  0  0  0  0  0  0  0  0  0
   20.4783  -11.0191  -18.3308 O   0  0  0  0  0  0  0  0  0  0  0  0
   18.2775   -6.8057  -15.9002 N   0  0  0  0  0  0  0  0  0  0  0  0
   17.5907   -8.0684  -15.6720 C   0  0  0  0  0  0  0  0  0  0  0  0
   16.4000   -7.9450  -15.3505 O   0  0  0  0  0  0  0  0  0  0  0  0
   18.3996   -9.2492  -15.8551 C   0  0  0  0  0  0  0  0  0  0  0  0
   19.8052   -9.1422  -16.3208 C   0  0  2  0  0  0  0  0  0  0  0  0
   20.3388  -10.5253  -16.1001 N   0  0  0  0  0  0  0  0  0  0  0  0
   20.6996   -8.2755  -15.5411 C   0  0  0  0  0  0  0  0  0  0  0  0
   20.9146   -8.5666  -14.3216 O   0  0  0  0  0  0  0  0  0  0  0  0
   21.3822   -7.1284  -15.9674 N   0  0  0  0  0  0  0  0  0  0  0  0
   22.2092   -6.2849  -15.1555 C   0  0  1  0  0  0  0  0  0  0  0  0
   22.9849   -5.2255  -15.8030 C   0  0  0  0  0  0  0  0  0  0  0  0
   22.2328   -3.9798  -16.1878 C   0  0  0  0  0  0  0  0  0  0  0  0
   22.8252   -3.2542  -17.3329 C   0  0  0  0  0  0  0  0  0  0  0  0
   23.8929   -3.5532  -17.9024 O   0  0  0  0  0  0  0  0  0  0  0  0
   21.5112   -5.7614  -13.9563 C   0  0  0  0  0  0  0  0  0  0  0  0
   22.2850   -5.2208  -12.9330 O   0  0  0  0  0  0  0  0  0  0  0  0
   22.1586   -2.1281  -17.8510 O   0  0  0  0  0  0  0  0  0  0  0  0
   20.2660   -5.7825  -13.8245 O   0  0  0  0  0  0  0  0  0  0  0  0
  2  1  1  1
  2  8  1  0
  3  2  1  0
  4  3  1  0
  5  4  1  0
  6  5  1  0
  7  6  1  0
  8  9  2  0
  8 15  1  0
 10 11  1  0
 11 12  2  0
 13 11  1  0
 14 16  1  0
 14 13  1  1
 15 14  1  0
 16 18  1  0
 17 16  2  0
 18 19  1  0
 19 24  1  0
 19 20  1  6
 20 21  1  0
 22 21  1  0
 22 26  1  0
 23 22  2  0
 24 27  2  0
 24 25  1  0
M  END
$$$$
