KNE.pdb
     RDKit          3D

 27 26  0  0  1  0  0  0  0  0999 V2000
   15.0749  -10.0223  -11.2893 N   0  0  0  0  0  0  0  0  0  0  0  0
   14.7338   -9.2819  -10.1160 C   0  0  1  0  0  0  0  0  0  0  0  0
   14.3799  -10.1647   -8.9600 C   0  0  0  0  0  0  0  0  0  0  0  0
   13.2115  -11.0493   -9.2464 C   0  0  0  0  0  0  0  0  0  0  0  0
   11.9364  -10.2657   -9.4833 C   0  0  0  0  0  0  0  0  0  0  0  0
   10.7743  -11.2292   -9.6950 C   0  0  0  0  0  0  0  0  0  0  0  0
    9.5772  -10.4495   -9.9597 N   0  0  0  0  0  0  0  0  0  0  0  0
   15.8632   -8.3895   -9.6922 C   0  0  0  0  0  0  0  0  0  0  0  0
   15.8295   -7.7565   -8.6179 O   0  0  0  0  0  0  0  0  0  0  0  0
   20.6069   -6.0299  -10.3491 N   0  0  0  0  0  0  0  0  0  0  0  0
   20.4381   -7.1450  -11.2690 C   0  0  0  0  0  0  0  0  0  0  0  0
   21.4230   -7.3583  -11.9905 O   0  0  0  0  0  0  0  0  0  0  0  0
   19.1627   -7.8158  -11.1931 C   0  0  0  0  0  0  0  0  0  0  0  0
   18.1270   -7.3712  -10.2268 C   0  0  2  0  0  0  0  0  0  0  0  0
   16.9717   -8.2759  -10.5322 N   0  0  0  0  0  0  0  0  0  0  0  0
   17.5888   -6.0159  -10.4061 C   0  0  0  0  0  0  0  0  0  0  0  0
   16.8017   -5.8003  -11.3820 O   0  0  0  0  0  0  0  0  0  0  0  0
   17.8242   -4.8798   -9.6204 N   0  0  0  0  0  0  0  0  0  0  0  0
   16.9359   -3.7672   -9.4535 C   0  0  1  0  0  0  0  0  0  0  0  0
   15.5574   -4.0235   -9.0325 C   0  0  0  0  0  0  0  0  0  0  0  0
   14.6899   -2.8162   -8.7970 C   0  0  0  0  0  0  0  0  0  0  0  0
   13.3090   -3.1452   -8.3804 C   0  0  0  0  0  0  0  0  0  0  0  0
   12.8941   -4.2848   -8.0926 O   0  0  0  0  0  0  0  0  0  0  0  0
   17.5262   -2.6617   -8.6606 C   0  0  0  0  0  0  0  0  0  0  0  0
   17.0295   -1.3764   -8.8595 O   0  0  0  0  0  0  0  0  0  0  0  0
   12.3555   -2.1140   -8.2894 O   0  0  0  0  0  0  0  0  0  0  0  0
   18.4437   -2.8315   -7.8252 O   0  0  0  0  0  0  0  0  0  0  0  0
  2  1  1  6
  2  8  1  0
  3  2  1  0
  4  3  1  0
  5  4  1  0
  6  5  1  0
  7  6  1  0
  8  9  2  0
  8 15  1  0
 10 11  1  0
 11 12  2  0
 13 11  1  0
 14 16  1  0
 14 13  1  6
 15 14  1  0
 16 18  1  0
 17 16  2  0
 18 19  1  0
 19 24  1  0
 19 20  1  1
 20 21  1  0
 22 21  1  0
 22 26  1  0
 23 22  2  0
 24 27  2  0
 24 25  1  0
M  END
$$$$
