KNE.pdb
     RDKit          3D

 27 26  0  0  1  0  0  0  0  0999 V2000
   22.2359  -11.9267  -17.5929 N   0  0  0  0  0  0  0  0  0  0  0  0
   21.7758  -11.0583  -18.6299 C   0  0  1  0  0  0  0  0  0  0  0  0
   20.9616  -11.7742  -19.6621 C   0  0  0  0  0  0  0  0  0  0  0  0
   21.4331  -13.1706  -19.9022 C   0  0  0  0  0  0  0  0  0  0  0  0
   20.5353  -13.9282  -20.8592 C   0  0  0  0  0  0  0  0  0  0  0  0
   21.0013  -15.3759  -20.9622 C   0  0  0  0  0  0  0  0  0  0  0  0
   20.6984  -16.0434  -19.7077 N   0  0  0  0  0  0  0  0  0  0  0  0
   20.9430   -9.9423  -18.0710 C   0  0  0  0  0  0  0  0  0  0  0  0
   20.4645   -9.0528  -18.8030 O   0  0  0  0  0  0  0  0  0  0  0  0
   17.0166   -9.0454  -15.8120 N   0  0  0  0  0  0  0  0  0  0  0  0
   17.7847   -9.7670  -14.8083 C   0  0  0  0  0  0  0  0  0  0  0  0
   17.0904  -10.3946  -13.9957 O   0  0  0  0  0  0  0  0  0  0  0  0
   19.2174   -9.6361  -14.9203 C   0  0  0  0  0  0  0  0  0  0  0  0
   19.8257   -8.8880  -16.0492 C   0  0  2  0  0  0  0  0  0  0  0  0
   20.7071   -9.9133  -16.6959 N   0  0  0  0  0  0  0  0  0  0  0  0
   20.7359   -7.7876  -15.7036 C   0  0  0  0  0  0  0  0  0  0  0  0
   21.8657   -8.0728  -15.1933 O   0  0  0  0  0  0  0  0  0  0  0  0
   20.5313   -6.4110  -15.8667 N   0  0  0  0  0  0  0  0  0  0  0  0
   21.3916   -5.3657  -15.3953 C   0  0  1  0  0  0  0  0  0  0  0  0
   21.2971   -4.0428  -16.0150 C   0  0  0  0  0  0  0  0  0  0  0  0
   22.2736   -3.0030  -15.5344 C   0  0  0  0  0  0  0  0  0  0  0  0
   22.0737   -1.6695  -16.1431 C   0  0  0  0  0  0  0  0  0  0  0  0
   20.9707   -1.1657  -16.4312 O   0  0  0  0  0  0  0  0  0  0  0  0
   21.4135   -5.2487  -13.9171 C   0  0  0  0  0  0  0  0  0  0  0  0
   22.5866   -4.8040  -13.3135 O   0  0  0  0  0  0  0  0  0  0  0  0
   23.1968   -0.8735  -16.4361 O   0  0  0  0  0  0  0  0  0  0  0  0
   20.4308   -5.5286  -13.1929 O   0  0  0  0  0  0  0  0  0  0  0  0
  2  1  1  1
  2  8  1  0
  3  2  1  0
  4  3  1  0
  5  4  1  0
  6  5  1  0
  7  6  1  0
  8  9  2  0
  8 15  1  0
 10 11  1  0
 11 12  2  0
 13 11  1  0
 14 16  1  0
 14 13  1  1
 15 14  1  0
 16 18  1  0
 17 16  2  0
 18 19  1  0
 19 24  1  0
 19 20  1  6
 20 21  1  0
 22 21  1  0
 22 26  1  0
 23 22  2  0
 24 27  2  0
 24 25  1  0
M  END
$$$$
