KNE.pdb
     RDKit          3D

 27 26  0  0  1  0  0  0  0  0999 V2000
   26.1090  -16.6347  -16.0705 N   0  0  0  0  0  0  0  0  0  0  0  0
   25.0567  -15.6746  -16.1793 C   0  0  1  0  0  0  0  0  0  0  0  0
   23.7625  -16.1714  -15.6142 C   0  0  0  0  0  0  0  0  0  0  0  0
   23.3094  -17.4468  -16.2451 C   0  0  0  0  0  0  0  0  0  0  0  0
   21.9424  -17.8806  -15.7563 C   0  0  0  0  0  0  0  0  0  0  0  0
   21.5185  -19.1527  -16.4815 C   0  0  0  0  0  0  0  0  0  0  0  0
   20.2262  -19.5657  -15.9615 N   0  0  0  0  0  0  0  0  0  0  0  0
   25.4135  -14.3987  -15.4748 C   0  0  0  0  0  0  0  0  0  0  0  0
   26.2718  -14.3686  -14.5701 O   0  0  0  0  0  0  0  0  0  0  0  0
   26.4673   -9.3882  -15.0985 N   0  0  0  0  0  0  0  0  0  0  0  0
   27.2532  -10.4765  -15.6606 C   0  0  0  0  0  0  0  0  0  0  0  0
   28.4238  -10.1689  -15.9276 O   0  0  0  0  0  0  0  0  0  0  0  0
   26.5490  -11.7265  -15.8149 C   0  0  0  0  0  0  0  0  0  0  0  0
   25.1538  -11.8770  -15.3304 C   0  0  2  0  0  0  0  0  0  0  0  0
   24.7598  -13.2253  -15.8530 N   0  0  0  0  0  0  0  0  0  0  0  0
   24.1527  -10.9594  -15.8914 C   0  0  0  0  0  0  0  0  0  0  0  0
   24.0328  -10.8927  -17.1561 O   0  0  0  0  0  0  0  0  0  0  0  0
   23.2705  -10.1151  -15.2042 N   0  0  0  0  0  0  0  0  0  0  0  0
   22.3697   -9.1699  -15.7959 C   0  0  1  0  0  0  0  0  0  0  0  0
   20.9650   -9.5462  -15.9647 C   0  0  0  0  0  0  0  0  0  0  0  0
   20.0950   -9.4671  -14.7390 C   0  0  0  0  0  0  0  0  0  0  0  0
   18.6915   -9.8707  -14.9759 C   0  0  0  0  0  0  0  0  0  0  0  0
   18.3240  -10.9714  -15.4306 O   0  0  0  0  0  0  0  0  0  0  0  0
   22.4789   -7.8122  -15.2094 C   0  0  0  0  0  0  0  0  0  0  0  0
   21.8478   -6.7617  -15.8700 O   0  0  0  0  0  0  0  0  0  0  0  0
   17.6570   -8.9649  -14.6757 O   0  0  0  0  0  0  0  0  0  0  0  0
   23.1076   -7.5703  -14.1536 O   0  0  0  0  0  0  0  0  0  0  0  0
  2  1  1  1
  2  8  1  0
  3  2  1  0
  4  3  1  0
  5  4  1  0
  6  5  1  0
  7  6  1  0
  8  9  2  0
  8 15  1  0
 10 11  1  0
 11 12  2  0
 13 11  1  0
 14 16  1  0
 14 13  1  6
 15 14  1  0
 16 18  1  0
 17 16  2  0
 18 19  1  0
 19 24  1  0
 19 20  1  1
 20 21  1  0
 22 21  1  0
 22 26  1  0
 23 22  2  0
 24 27  2  0
 24 25  1  0
M  END
$$$$
