KNE.pdb
     RDKit          3D

 27 26  0  0  1  0  0  0  0  0999 V2000
   15.2235   -8.9266  -18.0487 N   0  0  0  0  0  0  0  0  0  0  0  0
   15.6589   -8.5937  -16.7293 C   0  0  1  0  0  0  0  0  0  0  0  0
   16.4148   -9.7072  -16.0738 C   0  0  0  0  0  0  0  0  0  0  0  0
   15.5766  -10.9237  -15.8561 C   0  0  0  0  0  0  0  0  0  0  0  0
   16.3296  -12.0244  -15.1370 C   0  0  0  0  0  0  0  0  0  0  0  0
   15.4038  -13.2135  -14.9073 C   0  0  0  0  0  0  0  0  0  0  0  0
   16.1225  -14.2080  -14.1291 N   0  0  0  0  0  0  0  0  0  0  0  0
   16.5373   -7.3773  -16.7404 C   0  0  0  0  0  0  0  0  0  0  0  0
   17.3610   -7.1731  -17.6546 O   0  0  0  0  0  0  0  0  0  0  0  0
   17.9797   -2.4968  -15.3272 N   0  0  0  0  0  0  0  0  0  0  0  0
   16.6489   -2.8452  -14.8522 C   0  0  0  0  0  0  0  0  0  0  0  0
   16.0288   -1.8982  -14.3472 O   0  0  0  0  0  0  0  0  0  0  0  0
   16.2700   -4.2243  -15.0439 C   0  0  0  0  0  0  0  0  0  0  0  0
   17.2238   -5.1996  -15.6295 C   0  0  2  0  0  0  0  0  0  0  0  0
   16.4172   -6.4612  -15.6946 N   0  0  0  0  0  0  0  0  0  0  0  0
   18.3948   -5.5546  -14.8161 C   0  0  0  0  0  0  0  0  0  0  0  0
   18.2126   -6.2287  -13.7528 O   0  0  0  0  0  0  0  0  0  0  0  0
   19.7409   -5.2483  -15.0562 N   0  0  0  0  0  0  0  0  0  0  0  0
   20.8673   -5.7576  -14.3306 C   0  0  1  0  0  0  0  0  0  0  0  0
   21.5897   -6.9109  -14.8703 C   0  0  0  0  0  0  0  0  0  0  0  0
   22.7869   -7.3813  -14.0887 C   0  0  0  0  0  0  0  0  0  0  0  0
   23.4722   -8.5465  -14.6897 C   0  0  0  0  0  0  0  0  0  0  0  0
   23.3126   -8.9549  -15.8564 O   0  0  0  0  0  0  0  0  0  0  0  0
   21.8163   -4.6999  -13.9064 C   0  0  0  0  0  0  0  0  0  0  0  0
   22.7062   -4.9940  -12.8770 O   0  0  0  0  0  0  0  0  0  0  0  0
   24.3875   -9.2806  -13.9123 O   0  0  0  0  0  0  0  0  0  0  0  0
   21.8537   -3.5628  -14.4299 O   0  0  0  0  0  0  0  0  0  0  0  0
  2  1  1  6
  2  8  1  0
  3  2  1  0
  4  3  1  0
  5  4  1  0
  6  5  1  0
  7  6  1  0
  8  9  2  0
  8 15  1  0
 10 11  1  0
 11 12  2  0
 13 11  1  0
 14 16  1  0
 14 13  1  1
 15 14  1  0
 16 18  1  0
 17 16  2  0
 18 19  1  0
 19 24  1  0
 19 20  1  6
 20 21  1  0
 22 21  1  0
 22 26  1  0
 23 22  2  0
 24 27  2  0
 24 25  1  0
M  END
$$$$
