KNE.pdb
     RDKit          3D

 27 26  0  0  1  0  0  0  0  0999 V2000
   16.1777  -26.7675   -6.2374 N   0  0  0  0  0  0  0  0  0  0  0  0
   16.3695  -26.0075   -5.0429 C   0  0  1  0  0  0  0  0  0  0  0  0
   15.1864  -25.1543   -4.7065 C   0  0  0  0  0  0  0  0  0  0  0  0
   15.1145  -23.9149   -5.5363 C   0  0  0  0  0  0  0  0  0  0  0  0
   13.9359  -23.0376   -5.1655 C   0  0  0  0  0  0  0  0  0  0  0  0
   13.8339  -21.8747   -6.1458 C   0  0  0  0  0  0  0  0  0  0  0  0
   12.8083  -20.9633   -5.6679 N   0  0  0  0  0  0  0  0  0  0  0  0
   16.6468  -26.9026   -3.8710 C   0  0  0  0  0  0  0  0  0  0  0  0
   15.8699  -27.8256   -3.5541 O   0  0  0  0  0  0  0  0  0  0  0  0
   18.8208  -30.0250   -2.8898 N   0  0  0  0  0  0  0  0  0  0  0  0
   19.9324  -29.1214   -2.6331 C   0  0  0  0  0  0  0  0  0  0  0  0
   21.0436  -29.5965   -2.9084 O   0  0  0  0  0  0  0  0  0  0  0  0
   19.5645  -27.8301   -2.1043 C   0  0  0  0  0  0  0  0  0  0  0  0
   18.1386  -27.4726   -1.8968 C   0  0  2  0  0  0  0  0  0  0  0  0
   17.8072  -26.6837   -3.1274 N   0  0  0  0  0  0  0  0  0  0  0  0
   17.8370  -26.5610   -0.7847 C   0  0  0  0  0  0  0  0  0  0  0  0
   17.5427  -25.3530   -1.0536 O   0  0  0  0  0  0  0  0  0  0  0  0
   17.8216  -26.8445    0.5875 N   0  0  0  0  0  0  0  0  0  0  0  0
   17.4753  -25.9312    1.6367 C   0  0  1  0  0  0  0  0  0  0  0  0
   16.2181  -25.1878    1.5368 C   0  0  0  0  0  0  0  0  0  0  0  0
   15.0693  -25.6934    2.3674 C   0  0  0  0  0  0  0  0  0  0  0  0
   13.8308  -24.8976    2.2209 C   0  0  0  0  0  0  0  0  0  0  0  0
   12.9382  -25.1007    1.3749 O   0  0  0  0  0  0  0  0  0  0  0  0
   17.6313  -26.5120    2.9923 C   0  0  0  0  0  0  0  0  0  0  0  0
   17.7116  -27.8972    3.1052 O   0  0  0  0  0  0  0  0  0  0  0  0
   13.6048  -23.8134    3.0895 O   0  0  0  0  0  0  0  0  0  0  0  0
   17.6952  -25.8170    4.0323 O   0  0  0  0  0  0  0  0  0  0  0  0
  2  1  1  6
  2  8  1  0
  3  2  1  0
  4  3  1  0
  5  4  1  0
  6  5  1  0
  7  6  1  0
  8  9  2  0
  8 15  1  0
 10 11  1  0
 11 12  2  0
 13 11  1  0
 14 16  1  0
 14 13  1  6
 15 14  1  0
 16 18  1  0
 17 16  2  0
 18 19  1  0
 19 24  1  0
 19 20  1  6
 20 21  1  0
 22 21  1  0
 22 26  1  0
 23 22  2  0
 24 27  2  0
 24 25  1  0
M  END
$$$$
