KNE.pdb
     RDKit          3D

 27 26  0  0  1  0  0  0  0  0999 V2000
   20.1348  -12.7530  -18.7534 N   0  0  0  0  0  0  0  0  0  0  0  0
   19.1473  -12.4251  -17.7744 C   0  0  1  0  0  0  0  0  0  0  0  0
   18.5623  -13.6365  -17.1178 C   0  0  0  0  0  0  0  0  0  0  0  0
   19.0116  -14.9109  -17.7534 C   0  0  0  0  0  0  0  0  0  0  0  0
   18.3049  -16.1233  -17.1820 C   0  0  0  0  0  0  0  0  0  0  0  0
   18.7532  -17.3760  -17.9260 C   0  0  0  0  0  0  0  0  0  0  0  0
   18.8242  -18.4715  -16.9743 N   0  0  0  0  0  0  0  0  0  0  0  0
   19.7198  -11.5448  -16.7026 C   0  0  0  0  0  0  0  0  0  0  0  0
   19.0364  -11.1707  -15.7284 O   0  0  0  0  0  0  0  0  0  0  0  0
   25.5328  -10.5088  -15.4350 N   0  0  0  0  0  0  0  0  0  0  0  0
   24.1705  -10.3344  -14.9536 C   0  0  0  0  0  0  0  0  0  0  0  0
   24.0903   -9.7430  -13.8673 O   0  0  0  0  0  0  0  0  0  0  0  0
   23.1426  -10.8735  -15.8110 C   0  0  0  0  0  0  0  0  0  0  0  0
   21.7509  -10.3609  -15.7430 C   0  0  2  0  0  0  0  0  0  0  0  0
   21.0517  -11.1433  -16.8132 N   0  0  0  0  0  0  0  0  0  0  0  0
   21.5408   -8.9562  -16.1191 C   0  0  0  0  0  0  0  0  0  0  0  0
   21.8338   -8.5953  -17.3032 O   0  0  0  0  0  0  0  0  0  0  0  0
   21.0382   -7.9140  -15.3287 N   0  0  0  0  0  0  0  0  0  0  0  0
   20.8969   -6.5437  -15.7249 C   0  0  1  0  0  0  0  0  0  0  0  0
   19.5634   -5.9399  -15.7088 C   0  0  0  0  0  0  0  0  0  0  0  0
   18.4832   -6.6734  -16.4576 C   0  0  0  0  0  0  0  0  0  0  0  0
   17.1450   -6.5619  -15.8369 C   0  0  0  0  0  0  0  0  0  0  0  0
   16.5613   -5.4942  -15.5669 O   0  0  0  0  0  0  0  0  0  0  0  0
   21.8844   -5.6441  -15.0807 C   0  0  0  0  0  0  0  0  0  0  0  0
   21.9911   -4.3408  -15.5583 O   0  0  0  0  0  0  0  0  0  0  0  0
   16.4405   -7.7354  -15.5092 O   0  0  0  0  0  0  0  0  0  0  0  0
   22.6201   -6.0013  -14.1322 O   0  0  0  0  0  0  0  0  0  0  0  0
  2  1  1  6
  2  8  1  0
  3  2  1  0
  4  3  1  0
  5  4  1  0
  6  5  1  0
  7  6  1  0
  8  9  2  0
  8 15  1  0
 10 11  1  0
 11 12  2  0
 13 11  1  0
 14 16  1  0
 14 13  1  6
 15 14  1  0
 16 18  1  0
 17 16  2  0
 18 19  1  0
 19 24  1  0
 19 20  1  1
 20 21  1  0
 22 21  1  0
 22 26  1  0
 23 22  2  0
 24 27  2  0
 24 25  1  0
M  END
$$$$
