KNE.pdb
     RDKit          3D

 27 26  0  0  1  0  0  0  0  0999 V2000
   28.4955  -21.9210  -16.4807 N   0  0  0  0  0  0  0  0  0  0  0  0
   27.9009  -20.8195  -15.7919 C   0  0  1  0  0  0  0  0  0  0  0  0
   27.1990  -19.8733  -16.7155 C   0  0  0  0  0  0  0  0  0  0  0  0
   27.9895  -19.5765  -17.9471 C   0  0  0  0  0  0  0  0  0  0  0  0
   28.7975  -18.3007  -17.8229 C   0  0  0  0  0  0  0  0  0  0  0  0
   29.5473  -18.0399  -19.1243 C   0  0  0  0  0  0  0  0  0  0  0  0
   30.2788  -16.7921  -18.9875 N   0  0  0  0  0  0  0  0  0  0  0  0
   26.9107  -21.2925  -14.7685 C   0  0  0  0  0  0  0  0  0  0  0  0
   26.0883  -22.1954  -15.0219 O   0  0  0  0  0  0  0  0  0  0  0  0
   24.6665  -21.3628   -9.9340 N   0  0  0  0  0  0  0  0  0  0  0  0
   25.8851  -20.5672   -9.9364 C   0  0  0  0  0  0  0  0  0  0  0  0
   26.1960  -20.1159   -8.8246 O   0  0  0  0  0  0  0  0  0  0  0  0
   26.5285  -20.4334  -11.2210 C   0  0  0  0  0  0  0  0  0  0  0  0
   25.9419  -21.0585  -12.4331 C   0  0  2  0  0  0  0  0  0  0  0  0
   26.9233  -20.6969  -13.5066 N   0  0  0  0  0  0  0  0  0  0  0  0
   24.6621  -20.5150  -12.9081 C   0  0  0  0  0  0  0  0  0  0  0  0
   24.6813  -19.6250  -13.8168 O   0  0  0  0  0  0  0  0  0  0  0  0
   23.3686  -20.8542  -12.4896 N   0  0  0  0  0  0  0  0  0  0  0  0
   22.1513  -20.5783  -13.1945 C   0  0  1  0  0  0  0  0  0  0  0  0
   22.0922  -20.8514  -14.6315 C   0  0  0  0  0  0  0  0  0  0  0  0
   20.7879  -20.5520  -15.3205 C   0  0  0  0  0  0  0  0  0  0  0  0
   20.7824  -20.8888  -16.7610 C   0  0  0  0  0  0  0  0  0  0  0  0
   20.9061  -22.0351  -17.2347 O   0  0  0  0  0  0  0  0  0  0  0  0
   20.9472  -21.1115  -12.5124 C   0  0  0  0  0  0  0  0  0  0  0  0
   19.6988  -20.7483  -13.0102 O   0  0  0  0  0  0  0  0  0  0  0  0
   20.6271  -19.8578  -17.7064 O   0  0  0  0  0  0  0  0  0  0  0  0
   21.0027  -21.8695  -11.5170 O   0  0  0  0  0  0  0  0  0  0  0  0
  2  1  1  6
  2  8  1  0
  3  2  1  0
  4  3  1  0
  5  4  1  0
  6  5  1  0
  7  6  1  0
  8  9  2  0
  8 15  1  0
 10 11  1  0
 11 12  2  0
 13 11  1  0
 14 16  1  0
 14 13  1  1
 15 14  1  0
 16 18  1  0
 17 16  2  0
 18 19  1  0
 19 24  1  0
 19 20  1  6
 20 21  1  0
 22 21  1  0
 22 26  1  0
 23 22  2  0
 24 27  2  0
 24 25  1  0
M  END
$$$$
