KNE.pdb
     RDKit          3D

 27 26  0  0  1  0  0  0  0  0999 V2000
   21.4740  -10.8179  -18.2176 N   0  0  0  0  0  0  0  0  0  0  0  0
   20.1474  -10.7370  -18.7418 C   0  0  1  0  0  0  0  0  0  0  0  0
   19.5359  -12.0837  -18.9727 C   0  0  0  0  0  0  0  0  0  0  0  0
   20.5450  -13.1193  -19.3456 C   0  0  0  0  0  0  0  0  0  0  0  0
   19.9474  -14.5097  -19.4196 C   0  0  0  0  0  0  0  0  0  0  0  0
   20.9964  -15.4922  -19.9276 C   0  0  0  0  0  0  0  0  0  0  0  0
   20.4058  -16.8196  -19.9499 N   0  0  0  0  0  0  0  0  0  0  0  0
   19.2473   -9.9683  -17.8196 C   0  0  0  0  0  0  0  0  0  0  0  0
   18.0246   -9.8579  -18.0401 O   0  0  0  0  0  0  0  0  0  0  0  0
   17.2570   -7.8275  -13.6287 N   0  0  0  0  0  0  0  0  0  0  0  0
   17.0353   -9.1370  -14.2237 C   0  0  0  0  0  0  0  0  0  0  0  0
   16.0657   -9.7485  -13.7525 O   0  0  0  0  0  0  0  0  0  0  0  0
   17.9718   -9.5085  -15.2569 C   0  0  0  0  0  0  0  0  0  0  0  0
   19.0027   -8.5496  -15.7279 C   0  0  2  0  0  0  0  0  0  0  0  0
   19.8079   -9.3681  -16.6914 N   0  0  0  0  0  0  0  0  0  0  0  0
   19.9809   -8.0845  -14.7352 C   0  0  0  0  0  0  0  0  0  0  0  0
   20.6362   -8.9533  -14.0765 O   0  0  0  0  0  0  0  0  0  0  0  0
   20.3130   -6.7653  -14.3990 N   0  0  0  0  0  0  0  0  0  0  0  0
   21.6341   -6.2555  -14.1765 C   0  0  1  0  0  0  0  0  0  0  0  0
   22.5975   -6.2913  -15.2782 C   0  0  0  0  0  0  0  0  0  0  0  0
   22.3293   -5.3691  -16.4372 C   0  0  0  0  0  0  0  0  0  0  0  0
   23.3838   -5.3915  -17.4746 C   0  0  0  0  0  0  0  0  0  0  0  0
   24.5746   -5.7080  -17.2866 O   0  0  0  0  0  0  0  0  0  0  0  0
   21.6447   -4.9270  -13.5175 C   0  0  0  0  0  0  0  0  0  0  0  0
   22.8322   -4.4970  -12.9316 O   0  0  0  0  0  0  0  0  0  0  0  0
   23.0551   -5.0324  -18.7952 O   0  0  0  0  0  0  0  0  0  0  0  0
   20.6412   -4.1795  -13.4661 O   0  0  0  0  0  0  0  0  0  0  0  0
  2  1  1  1
  2  8  1  0
  3  2  1  0
  4  3  1  0
  5  4  1  0
  6  5  1  0
  7  6  1  0
  8  9  2  0
  8 15  1  0
 10 11  1  0
 11 12  2  0
 13 11  1  0
 14 16  1  0
 14 13  1  1
 15 14  1  0
 16 18  1  0
 17 16  2  0
 18 19  1  0
 19 24  1  0
 19 20  1  6
 20 21  1  0
 22 21  1  0
 22 26  1  0
 23 22  2  0
 24 27  2  0
 24 25  1  0
M  END
$$$$
