IAS.pdb
     RDKit          3D

 20 19  0  0  1  0  0  0  0  0999 V2000
    8.0113  -11.6245   19.6243 C   0  0  0  0  0  0  0  0  0  0  0  0
    8.0645  -12.9706   18.9484 C   0  0  0  0  0  0  0  0  0  0  0  0
    8.8336  -13.9864   19.7483 C   0  0  2  0  0  0  0  0  0  0  0  0
   10.2235  -13.5067   20.0736 C   0  0  0  0  0  0  0  0  0  0  0  0
    8.8239  -15.3097   19.0297 C   0  0  2  0  0  0  0  0  0  0  0  0
    7.4372  -15.7022   18.8725 N   0  0  0  0  0  0  0  0  0  0  0  0
    9.5475  -16.3663   19.7217 C   0  0  0  0  0  0  0  0  0  0  0  0
    9.0662  -16.9278   20.7338 O   0  0  0  0  0  0  0  0  0  0  0  0
   12.6471  -18.3021   19.0094 C   0  0  0  0  0  0  0  0  0  0  0  0
   11.5156  -17.8990   19.9080 C   0  0  2  0  0  0  0  0  0  0  0  0
   10.8190  -16.7833   19.2613 N   0  0  0  0  0  0  0  0  0  0  0  0
   11.9671  -17.4701   21.2476 C   0  0  0  0  0  0  0  0  0  0  0  0
   12.4374  -16.3438   21.5057 O   0  0  0  0  0  0  0  0  0  0  0  0
   10.8985  -19.9921   24.2757 O   0  0  0  0  0  0  0  0  0  0  0  0
   11.2758  -18.7136   24.6453 C   0  0  0  0  0  0  0  0  0  0  0  0
   12.2802  -18.1301   23.6568 C   0  0  2  0  0  0  0  0  0  0  0  0
   11.8581  -18.4064   22.3181 N   0  0  0  0  0  0  0  0  0  0  0  0
   13.5940  -18.7169   23.9823 C   0  0  0  0  0  0  0  0  0  0  0  0
   14.1635  -19.5232   23.2125 O   0  0  0  0  0  0  0  0  0  0  0  0
   14.2148  -18.3715   25.1640 O   0  0  0  0  0  0  0  0  0  0  0  0
  2  1  1  0
  3  2  1  0
  3  4  1  6
  5  7  1  0
  5  3  1  0
  5  6  1  1
  7 11  1  0
  8  7  2  0
 10  9  1  6
 10 12  1  0
 11 10  1  0
 12 13  2  0
 12 17  1  0
 14 15  1  0
 16 15  1  1
 16 18  1  0
 17 16  1  0
 18 20  1  0
 19 18  2  0
M  END
$$$$
