IAS.pdb
     RDKit          3D

 20 19  0  0  1  0  0  0  0  0999 V2000
    8.3896  -12.2987   27.4288 C   0  0  0  0  0  0  0  0  0  0  0  0
    7.7391  -13.5683   26.9426 C   0  0  0  0  0  0  0  0  0  0  0  0
    6.9415  -13.3611   25.6839 C   0  0  2  0  0  0  0  0  0  0  0  0
    5.8225  -12.3740   25.8866 C   0  0  0  0  0  0  0  0  0  0  0  0
    6.4628  -14.6905   25.1631 C   0  0  2  0  0  0  0  0  0  0  0  0
    5.8118  -15.3731   26.2638 N   0  0  0  0  0  0  0  0  0  0  0  0
    7.5218  -15.5359   24.6315 C   0  0  0  0  0  0  0  0  0  0  0  0
    8.0612  -16.4213   25.3360 O   0  0  0  0  0  0  0  0  0  0  0  0
    9.0303  -16.0090   21.2544 C   0  0  0  0  0  0  0  0  0  0  0  0
    8.9553  -16.2912   22.7258 C   0  0  2  0  0  0  0  0  0  0  0  0
    7.9664  -15.3732   23.2980 N   0  0  0  0  0  0  0  0  0  0  0  0
   10.2462  -16.0968   23.4173 C   0  0  0  0  0  0  0  0  0  0  0  0
   10.6634  -14.9977   23.8351 O   0  0  0  0  0  0  0  0  0  0  0  0
   13.8957  -18.4977   25.5410 O   0  0  0  0  0  0  0  0  0  0  0  0
   12.6523  -18.5164   24.9349 C   0  0  0  0  0  0  0  0  0  0  0  0
   12.3586  -17.1893   24.2430 C   0  0  2  0  0  0  0  0  0  0  0  0
   11.0713  -17.2422   23.6211 N   0  0  0  0  0  0  0  0  0  0  0  0
   13.4551  -16.9524   23.2849 C   0  0  0  0  0  0  0  0  0  0  0  0
   13.3571  -17.2761   22.0795 O   0  0  0  0  0  0  0  0  0  0  0  0
   14.6200  -16.3593   23.7233 O   0  0  0  0  0  0  0  0  0  0  0  0
  2  1  1  0
  3  2  1  0
  3  4  1  1
  5  7  1  0
  5  3  1  0
  5  6  1  1
  7 11  1  0
  8  7  2  0
 10  9  1  6
 10 12  1  0
 11 10  1  0
 12 13  2  0
 12 17  1  0
 14 15  1  0
 16 15  1  6
 16 18  1  0
 17 16  1  0
 18 20  1  0
 19 18  2  0
M  END
$$$$
