IAS.pdb
     RDKit          3D

 20 19  0  0  1  0  0  0  0  0999 V2000
    8.3771  -11.6925   27.3123 C   0  0  0  0  0  0  0  0  0  0  0  0
    7.6183  -12.9296   26.9057 C   0  0  0  0  0  0  0  0  0  0  0  0
    6.7166  -12.6901   25.7255 C   0  0  2  0  0  0  0  0  0  0  0  0
    5.6777  -11.6402   26.0190 C   0  0  0  0  0  0  0  0  0  0  0  0
    6.1184  -13.9955   25.2721 C   0  0  2  0  0  0  0  0  0  0  0  0
    5.5273  -14.6240   26.4370 N   0  0  0  0  0  0  0  0  0  0  0  0
    7.0765  -14.9090   24.6666 C   0  0  0  0  0  0  0  0  0  0  0  0
    7.5976  -15.8365   25.3295 O   0  0  0  0  0  0  0  0  0  0  0  0
    8.4371  -15.3638   21.2180 C   0  0  0  0  0  0  0  0  0  0  0  0
    8.2983  -15.7621   22.6575 C   0  0  2  0  0  0  0  0  0  0  0  0
    7.4411  -14.7662   23.3068 N   0  0  0  0  0  0  0  0  0  0  0  0
    9.5920  -15.8173   23.3685 C   0  0  0  0  0  0  0  0  0  0  0  0
   10.2893  -14.8194   23.6416 O   0  0  0  0  0  0  0  0  0  0  0  0
   10.5267  -19.5574   24.5554 O   0  0  0  0  0  0  0  0  0  0  0  0
   11.2795  -18.6093   25.2247 C   0  0  0  0  0  0  0  0  0  0  0  0
   11.3183  -17.2941   24.4532 C   0  0  2  0  0  0  0  0  0  0  0  0
   10.0770  -17.0971   23.7699 N   0  0  0  0  0  0  0  0  0  0  0  0
   12.4762  -17.3647   23.5418 C   0  0  0  0  0  0  0  0  0  0  0  0
   12.3343  -17.3864   22.2982 O   0  0  0  0  0  0  0  0  0  0  0  0
   13.7497  -17.4080   24.0684 O   0  0  0  0  0  0  0  0  0  0  0  0
  2  1  1  0
  3  2  1  0
  3  4  1  1
  5  7  1  0
  5  3  1  0
  5  6  1  1
  7 11  1  0
  8  7  2  0
 10  9  1  6
 10 12  1  0
 11 10  1  0
 12 13  2  0
 12 17  1  0
 14 15  1  0
 16 15  1  6
 16 18  1  0
 17 16  1  0
 18 20  1  0
 19 18  2  0
M  END
$$$$
