IAS.pdb
     RDKit          3D

 20 19  0  0  1  0  0  0  0  0999 V2000
    7.0129  -15.9546   17.4924 C   0  0  0  0  0  0  0  0  0  0  0  0
    6.9825  -14.7033   18.3321 C   0  0  0  0  0  0  0  0  0  0  0  0
    7.4176  -14.9512   19.7507 C   0  0  2  0  0  0  0  0  0  0  0  0
    6.6165  -16.0499   20.3979 C   0  0  0  0  0  0  0  0  0  0  0  0
    7.3757  -13.6610   20.5261 C   0  0  2  0  0  0  0  0  0  0  0  0
    8.1228  -12.6789   19.7654 N   0  0  0  0  0  0  0  0  0  0  0  0
    7.9330  -13.7562   21.8674 C   0  0  0  0  0  0  0  0  0  0  0  0
    9.1519  -13.9850   22.0494 O   0  0  0  0  0  0  0  0  0  0  0  0
    6.6273  -13.2386   25.3168 C   0  0  0  0  0  0  0  0  0  0  0  0
    7.6403  -13.7793   24.3515 C   0  0  2  0  0  0  0  0  0  0  0  0
    7.1026  -13.5909   23.0012 N   0  0  0  0  0  0  0  0  0  0  0  0
    7.9259  -15.2139   24.5578 C   0  0  0  0  0  0  0  0  0  0  0  0
    7.0951  -16.1293   24.3891 O   0  0  0  0  0  0  0  0  0  0  0  0
   10.8235  -17.0965   23.2721 O   0  0  0  0  0  0  0  0  0  0  0  0
   10.9183  -17.2851   24.6392 C   0  0  0  0  0  0  0  0  0  0  0  0
    9.6148  -16.9105   25.3370 C   0  0  2  0  0  0  0  0  0  0  0  0
    9.2395  -15.5774   24.9781 N   0  0  0  0  0  0  0  0  0  0  0  0
    9.8390  -17.0788   26.7853 C   0  0  0  0  0  0  0  0  0  0  0  0
   10.1616  -18.1838   27.2772 O   0  0  0  0  0  0  0  0  0  0  0  0
    9.6907  -15.9939   27.6232 O   0  0  0  0  0  0  0  0  0  0  0  0
  2  1  1  0
  3  2  1  0
  3  4  1  1
  5  7  1  0
  5  3  1  0
  5  6  1  6
  7 11  1  0
  8  7  2  0
 10  9  1  1
 10 12  1  0
 11 10  1  0
 12 13  2  0
 12 17  1  0
 14 15  1  0
 16 15  1  6
 16 18  1  0
 17 16  1  0
 18 20  1  0
 19 18  2  0
M  END
$$$$
