IAS.pdb
     RDKit          3D

 20 19  0  0  1  0  0  0  0  0999 V2000
    7.1711  -11.3942   26.7053 C   0  0  0  0  0  0  0  0  0  0  0  0
    6.6425  -12.8053   26.7321 C   0  0  0  0  0  0  0  0  0  0  0  0
    7.4674  -13.7452   25.8958 C   0  0  2  0  0  0  0  0  0  0  0  0
    7.6182  -13.2501   24.4816 C   0  0  0  0  0  0  0  0  0  0  0  0
    6.8874  -15.1327   25.9720 C   0  0  2  0  0  0  0  0  0  0  0  0
    6.7867  -15.4790   27.3760 N   0  0  0  0  0  0  0  0  0  0  0  0
    7.6752  -16.1440   25.2823 C   0  0  0  0  0  0  0  0  0  0  0  0
    8.8322  -16.4381   25.6645 O   0  0  0  0  0  0  0  0  0  0  0  0
    7.1006  -18.4407   22.4016 C   0  0  0  0  0  0  0  0  0  0  0  0
    7.9960  -17.6967   23.3476 C   0  0  2  0  0  0  0  0  0  0  0  0
    7.1455  -16.8203   24.1578 N   0  0  0  0  0  0  0  0  0  0  0  0
    9.0103  -16.8747   22.6563 C   0  0  0  0  0  0  0  0  0  0  0  0
    8.7539  -15.8494   21.9932 O   0  0  0  0  0  0  0  0  0  0  0  0
   12.7708  -16.7555   24.0274 O   0  0  0  0  0  0  0  0  0  0  0  0
   12.3573  -15.9188   23.0062 C   0  0  0  0  0  0  0  0  0  0  0  0
   11.4393  -16.6518   22.0335 C   0  0  2  0  0  0  0  0  0  0  0  0
   10.3743  -17.2800   22.7531 N   0  0  0  0  0  0  0  0  0  0  0  0
   12.2789  -17.6094   21.2890 C   0  0  0  0  0  0  0  0  0  0  0  0
   12.0563  -18.8410   21.3184 O   0  0  0  0  0  0  0  0  0  0  0  0
   13.3373  -17.1409   20.5398 O   0  0  0  0  0  0  0  0  0  0  0  0
  2  1  1  0
  3  2  1  0
  3  4  1  6
  5  7  1  0
  5  3  1  0
  5  6  1  1
  7 11  1  0
  8  7  2  0
 10  9  1  6
 10 12  1  0
 11 10  1  0
 12 13  2  0
 12 17  1  0
 14 15  1  0
 16 15  1  1
 16 18  1  0
 17 16  1  0
 18 20  1  0
 19 18  2  0
M  END
$$$$
