IAS.pdb
     RDKit          3D

 20 19  0  0  1  0  0  0  0  0999 V2000
    6.2132  -11.4862   27.3231 C   0  0  0  0  0  0  0  0  0  0  0  0
    5.8076  -12.7588   26.6248 C   0  0  0  0  0  0  0  0  0  0  0  0
    6.9500  -13.3981   25.8836 C   0  0  2  0  0  0  0  0  0  0  0  0
    7.6024  -12.4374   24.9248 C   0  0  0  0  0  0  0  0  0  0  0  0
    6.4762  -14.6615   25.2152 C   0  0  2  0  0  0  0  0  0  0  0  0
    5.9255  -15.5139   26.2504 N   0  0  0  0  0  0  0  0  0  0  0  0
    7.5201  -15.3834   24.5025 C   0  0  0  0  0  0  0  0  0  0  0  0
    8.3180  -16.1370   25.1081 O   0  0  0  0  0  0  0  0  0  0  0  0
    8.4349  -15.7631   20.9009 C   0  0  0  0  0  0  0  0  0  0  0  0
    8.5631  -16.1212   22.3519 C   0  0  2  0  0  0  0  0  0  0  0  0
    7.6555  -15.2471   23.1005 N   0  0  0  0  0  0  0  0  0  0  0  0
    9.9349  -15.9448   22.8709 C   0  0  0  0  0  0  0  0  0  0  0  0
   10.5292  -14.8497   22.9339 O   0  0  0  0  0  0  0  0  0  0  0  0
   11.3631  -19.2498   24.6708 O   0  0  0  0  0  0  0  0  0  0  0  0
   12.1093  -18.1189   24.9501 C   0  0  0  0  0  0  0  0  0  0  0  0
   11.9609  -17.0766   23.8466 C   0  0  2  0  0  0  0  0  0  0  0  0
   10.6267  -17.1041   23.3311 N   0  0  0  0  0  0  0  0  0  0  0  0
   12.9820  -17.3824   22.8267 C   0  0  0  0  0  0  0  0  0  0  0  0
   12.6703  -17.6686   21.6485 O   0  0  0  0  0  0  0  0  0  0  0  0
   14.3158  -17.3536   23.1751 O   0  0  0  0  0  0  0  0  0  0  0  0
  2  1  1  0
  3  2  1  0
  3  4  1  6
  5  7  1  0
  5  3  1  0
  5  6  1  1
  7 11  1  0
  8  7  2  0
 10  9  1  6
 10 12  1  0
 11 10  1  0
 12 13  2  0
 12 17  1  0
 14 15  1  0
 16 15  1  1
 16 18  1  0
 17 16  1  0
 18 20  1  0
 19 18  2  0
M  END
$$$$
