IAS.pdb
     RDKit          3D

 20 19  0  0  1  0  0  0  0  0999 V2000
    7.6520  -12.0074   20.8043 C   0  0  0  0  0  0  0  0  0  0  0  0
    7.6945  -13.4093   20.2525 C   0  0  0  0  0  0  0  0  0  0  0  0
    8.8703  -13.6339   19.3413 C   0  0  2  0  0  0  0  0  0  0  0  0
    8.8415  -12.7101   18.1524 C   0  0  0  0  0  0  0  0  0  0  0  0
    8.9393  -15.0870   18.9525 C   0  0  2  0  0  0  0  0  0  0  0  0
    7.7719  -15.3698   18.1409 N   0  0  0  0  0  0  0  0  0  0  0  0
    8.9726  -16.0032   20.0832 C   0  0  0  0  0  0  0  0  0  0  0  0
    7.9221  -16.5195   20.5318 O   0  0  0  0  0  0  0  0  0  0  0  0
   11.6077  -17.9505   21.7579 C   0  0  0  0  0  0  0  0  0  0  0  0
   10.2489  -17.3157   21.7877 C   0  0  2  0  0  0  0  0  0  0  0  0
   10.2017  -16.3312   20.7029 N   0  0  0  0  0  0  0  0  0  0  0  0
    9.9578  -16.6348   23.0659 C   0  0  0  0  0  0  0  0  0  0  0  0
   10.4888  -15.5669   23.4325 O   0  0  0  0  0  0  0  0  0  0  0  0
    6.8259  -18.2446   25.3076 O   0  0  0  0  0  0  0  0  0  0  0  0
    7.1896  -16.9247   25.5058 C   0  0  0  0  0  0  0  0  0  0  0  0
    8.6754  -16.7172   25.2306 C   0  0  2  0  0  0  0  0  0  0  0  0
    9.0059  -17.2382   23.9400 N   0  0  0  0  0  0  0  0  0  0  0  0
    9.4114  -17.3755   26.3266 C   0  0  0  0  0  0  0  0  0  0  0  0
   10.1233  -18.3858   26.1273 O   0  0  0  0  0  0  0  0  0  0  0  0
    9.3160  -16.8689   27.6054 O   0  0  0  0  0  0  0  0  0  0  0  0
  2  1  1  0
  3  2  1  0
  3  4  1  6
  5  7  1  0
  5  3  1  0
  5  6  1  6
  7 11  1  0
  8  7  2  0
 10  9  1  1
 10 12  1  0
 11 10  1  0
 12 13  2  0
 12 17  1  0
 14 15  1  0
 16 15  1  1
 16 18  1  0
 17 16  1  0
 18 20  1  0
 19 18  2  0
M  END
$$$$
