IAS.pdb
     RDKit          3D

 20 19  0  0  1  0  0  0  0  0999 V2000
    6.3991  -11.6334   27.1261 C   0  0  0  0  0  0  0  0  0  0  0  0
    5.9753  -12.8036   26.2762 C   0  0  0  0  0  0  0  0  0  0  0  0
    7.1209  -13.7218   25.9481 C   0  0  2  0  0  0  0  0  0  0  0  0
    8.2880  -12.9727   25.3612 C   0  0  0  0  0  0  0  0  0  0  0  0
    6.6368  -14.8392   25.0624 C   0  0  2  0  0  0  0  0  0  0  0  0
    5.6142  -15.5570   25.7976 N   0  0  0  0  0  0  0  0  0  0  0  0
    7.6802  -15.7696   24.6567 C   0  0  0  0  0  0  0  0  0  0  0  0
    8.0677  -16.6843   25.4211 O   0  0  0  0  0  0  0  0  0  0  0  0
    9.7496  -16.2162   21.5788 C   0  0  0  0  0  0  0  0  0  0  0  0
    9.3171  -16.6073   22.9608 C   0  0  2  0  0  0  0  0  0  0  0  0
    8.2822  -15.6582   23.3810 N   0  0  0  0  0  0  0  0  0  0  0  0
   10.4215  -16.5772   23.9415 C   0  0  0  0  0  0  0  0  0  0  0  0
   10.9803  -15.5360   24.3418 O   0  0  0  0  0  0  0  0  0  0  0  0
   10.8376  -19.6135   26.5016 O   0  0  0  0  0  0  0  0  0  0  0  0
   11.6915  -18.5329   26.6305 C   0  0  0  0  0  0  0  0  0  0  0  0
   12.0580  -17.9568   25.2667 C   0  0  2  0  0  0  0  0  0  0  0  0
   10.8802  -17.8216   24.4660 N   0  0  0  0  0  0  0  0  0  0  0  0
   13.0607  -18.8617   24.6734 C   0  0  0  0  0  0  0  0  0  0  0  0
   12.8255  -19.5099   23.6285 O   0  0  0  0  0  0  0  0  0  0  0  0
   14.2902  -19.0007   25.2816 O   0  0  0  0  0  0  0  0  0  0  0  0
  2  1  1  0
  3  2  1  0
  3  4  1  6
  5  7  1  0
  5  3  1  0
  5  6  1  1
  7 11  1  0
  8  7  2  0
 10  9  1  6
 10 12  1  0
 11 10  1  0
 12 13  2  0
 12 17  1  0
 14 15  1  0
 16 15  1  1
 16 18  1  0
 17 16  1  0
 18 20  1  0
 19 18  2  0
M  END
$$$$
