IAS.pdb
     RDKit          3D

 20 19  0  0  1  0  0  0  0  0999 V2000
    6.3774  -11.2947   27.4110 C   0  0  0  0  0  0  0  0  0  0  0  0
    5.8544  -12.5130   26.6941 C   0  0  0  0  0  0  0  0  0  0  0  0
    6.9294  -13.2379   25.9312 C   0  0  2  0  0  0  0  0  0  0  0  0
    7.6859  -12.3130   25.0147 C   0  0  0  0  0  0  0  0  0  0  0  0
    6.3314  -14.4169   25.2102 C   0  0  2  0  0  0  0  0  0  0  0  0
    5.8105  -15.3178   26.2195 N   0  0  0  0  0  0  0  0  0  0  0  0
    7.2731  -15.1352   24.3640 C   0  0  0  0  0  0  0  0  0  0  0  0
    8.0183  -16.0272   24.8334 O   0  0  0  0  0  0  0  0  0  0  0  0
    8.1080  -15.0685   20.7234 C   0  0  0  0  0  0  0  0  0  0  0  0
    8.2431  -15.6233   22.1106 C   0  0  2  0  0  0  0  0  0  0  0  0
    7.3662  -14.8378   22.9837 N   0  0  0  0  0  0  0  0  0  0  0  0
    9.6246  -15.5514   22.6289 C   0  0  0  0  0  0  0  0  0  0  0  0
   10.2267  -14.4892   22.8854 O   0  0  0  0  0  0  0  0  0  0  0  0
   11.2290  -19.2079   23.4564 O   0  0  0  0  0  0  0  0  0  0  0  0
   11.8752  -18.1577   24.0835 C   0  0  0  0  0  0  0  0  0  0  0  0
   11.6650  -16.8517   23.3243 C   0  0  2  0  0  0  0  0  0  0  0  0
   10.3169  -16.7784   22.8513 N   0  0  0  0  0  0  0  0  0  0  0  0
   12.6624  -16.8211   22.2377 C   0  0  0  0  0  0  0  0  0  0  0  0
   13.8913  -16.7840   22.4734 O   0  0  0  0  0  0  0  0  0  0  0  0
   12.2350  -16.8336   20.9269 O   0  0  0  0  0  0  0  0  0  0  0  0
  2  1  1  0
  3  2  1  0
  3  4  1  6
  5  7  1  0
  5  3  1  0
  5  6  1  1
  7 11  1  0
  8  7  2  0
 10  9  1  6
 10 12  1  0
 11 10  1  0
 12 13  2  0
 12 17  1  0
 14 15  1  0
 16 15  1  6
 16 18  1  0
 17 16  1  0
 18 20  1  0
 19 18  2  0
M  END
$$$$
