IAS.pdb
     RDKit          3D

 20 19  0  0  1  0  0  0  0  0999 V2000
    7.5508  -12.2291   18.7206 C   0  0  0  0  0  0  0  0  0  0  0  0
    7.9113  -13.6577   19.0380 C   0  0  0  0  0  0  0  0  0  0  0  0
    7.8220  -13.9609   20.5089 C   0  0  2  0  0  0  0  0  0  0  0  0
    8.6690  -13.0216   21.3263 C   0  0  0  0  0  0  0  0  0  0  0  0
    8.1556  -15.4095   20.7485 C   0  0  2  0  0  0  0  0  0  0  0  0
    7.2142  -16.1995   19.9795 N   0  0  0  0  0  0  0  0  0  0  0  0
    8.0908  -15.8102   22.1465 C   0  0  0  0  0  0  0  0  0  0  0  0
    6.9980  -15.8559   22.7589 O   0  0  0  0  0  0  0  0  0  0  0  0
   10.0290  -17.7833   24.4268 C   0  0  0  0  0  0  0  0  0  0  0  0
    9.2111  -16.5368   24.2616 C   0  0  2  0  0  0  0  0  0  0  0  0
    9.2699  -16.1587   22.8468 N   0  0  0  0  0  0  0  0  0  0  0  0
    9.7046  -15.4100   25.0797 C   0  0  0  0  0  0  0  0  0  0  0  0
   10.7662  -14.7921   24.8609 O   0  0  0  0  0  0  0  0  0  0  0  0
    6.9067  -13.9516   27.4492 O   0  0  0  0  0  0  0  0  0  0  0  0
    8.0294  -13.1436   27.4658 C   0  0  0  0  0  0  0  0  0  0  0  0
    9.2760  -13.9273   27.0685 C   0  0  2  0  0  0  0  0  0  0  0  0
    8.9148  -15.0007   26.1945 N   0  0  0  0  0  0  0  0  0  0  0  0
    9.9110  -14.3870   28.3183 C   0  0  0  0  0  0  0  0  0  0  0  0
   10.0578  -15.6039   28.5728 O   0  0  0  0  0  0  0  0  0  0  0  0
   10.3559  -13.4562   29.2329 O   0  0  0  0  0  0  0  0  0  0  0  0
  2  1  1  0
  3  2  1  0
  3  4  1  1
  5  7  1  0
  5  3  1  0
  5  6  1  6
  7 11  1  0
  8  7  2  0
 10  9  1  6
 10 12  1  0
 11 10  1  0
 12 13  2  0
 12 17  1  0
 14 15  1  0
 16 15  1  1
 16 18  1  0
 17 16  1  0
 18 20  1  0
 19 18  2  0
M  END
$$$$
