IAS.pdb
     RDKit          3D

 20 19  0  0  1  0  0  0  0  0999 V2000
    7.2514  -12.0498   20.1085 C   0  0  0  0  0  0  0  0  0  0  0  0
    7.8520  -13.3077   19.5355 C   0  0  0  0  0  0  0  0  0  0  0  0
    8.2162  -14.3079   20.5987 C   0  0  2  0  0  0  0  0  0  0  0  0
    9.1570  -13.7228   21.6186 C   0  0  0  0  0  0  0  0  0  0  0  0
    8.7543  -15.5582   19.9548 C   0  0  2  0  0  0  0  0  0  0  0  0
    7.7325  -16.0491   19.0511 N   0  0  0  0  0  0  0  0  0  0  0  0
    9.1058  -16.6083   20.8995 C   0  0  0  0  0  0  0  0  0  0  0  0
    8.2227  -17.2901   21.4709 O   0  0  0  0  0  0  0  0  0  0  0  0
   12.1868  -18.4529   21.7149 C   0  0  0  0  0  0  0  0  0  0  0  0
   10.8215  -17.9707   22.1068 C   0  0  2  0  0  0  0  0  0  0  0  0
   10.4627  -16.8820   21.1935 N   0  0  0  0  0  0  0  0  0  0  0  0
   10.7628  -17.4703   23.4955 C   0  0  0  0  0  0  0  0  0  0  0  0
   11.1084  -16.3241   23.8468 O   0  0  0  0  0  0  0  0  0  0  0  0
    7.9200  -18.1521   25.8485 O   0  0  0  0  0  0  0  0  0  0  0  0
    9.0340  -18.5465   26.5676 C   0  0  0  0  0  0  0  0  0  0  0  0
   10.3175  -18.0611   25.9018 C   0  0  2  0  0  0  0  0  0  0  0  0
   10.2785  -18.3566   24.5026 N   0  0  0  0  0  0  0  0  0  0  0  0
   11.4388  -18.7170   26.6009 C   0  0  0  0  0  0  0  0  0  0  0  0
   12.1859  -19.5374   26.0214 O   0  0  0  0  0  0  0  0  0  0  0  0
   11.6741  -18.4222   27.9271 O   0  0  0  0  0  0  0  0  0  0  0  0
  2  1  1  0
  3  2  1  0
  3  4  1  1
  5  7  1  0
  5  3  1  0
  5  6  1  6
  7 11  1  0
  8  7  2  0
 10  9  1  6
 10 12  1  0
 11 10  1  0
 12 13  2  0
 12 17  1  0
 14 15  1  0
 16 15  1  1
 16 18  1  0
 17 16  1  0
 18 20  1  0
 19 18  2  0
M  END
$$$$
