IAS.pdb
     RDKit          3D

 20 19  0  0  1  0  0  0  0  0999 V2000
    5.4248  -11.0491   26.1616 C   0  0  0  0  0  0  0  0  0  0  0  0
    6.1184  -12.0282   27.0736 C   0  0  0  0  0  0  0  0  0  0  0  0
    7.0749  -12.9245   26.3354 C   0  0  2  0  0  0  0  0  0  0  0  0
    8.0725  -12.1354   25.5294 C   0  0  0  0  0  0  0  0  0  0  0  0
    6.3024  -13.9146   25.5045 C   0  0  2  0  0  0  0  0  0  0  0  0
    5.5023  -14.7081   26.4164 N   0  0  0  0  0  0  0  0  0  0  0  0
    7.1380  -14.7978   24.7042 C   0  0  0  0  0  0  0  0  0  0  0  0
    7.7283  -15.7763   25.2194 O   0  0  0  0  0  0  0  0  0  0  0  0
    8.0441  -14.9856   21.0849 C   0  0  0  0  0  0  0  0  0  0  0  0
    8.0539  -15.5131   22.4891 C   0  0  2  0  0  0  0  0  0  0  0  0
    7.3015  -14.5668   23.3177 N   0  0  0  0  0  0  0  0  0  0  0  0
    9.4161  -15.6566   23.0423 C   0  0  0  0  0  0  0  0  0  0  0  0
   10.1250  -14.7043   23.4257 O   0  0  0  0  0  0  0  0  0  0  0  0
   10.2816  -18.3858   25.5311 O   0  0  0  0  0  0  0  0  0  0  0  0
   11.2202  -18.5078   24.5223 C   0  0  0  0  0  0  0  0  0  0  0  0
   11.2636  -17.2521   23.6577 C   0  0  2  0  0  0  0  0  0  0  0  0
    9.9577  -16.9721   23.1451 N   0  0  0  0  0  0  0  0  0  0  0  0
   12.2617  -17.4940   22.5985 C   0  0  0  0  0  0  0  0  0  0  0  0
   11.9418  -17.5299   21.3887 O   0  0  0  0  0  0  0  0  0  0  0  0
   13.5823  -17.6862   22.9449 O   0  0  0  0  0  0  0  0  0  0  0  0
  2  1  1  0
  3  2  1  0
  3  4  1  6
  5  7  1  0
  5  3  1  0
  5  6  1  1
  7 11  1  0
  8  7  2  0
 10  9  1  6
 10 12  1  0
 11 10  1  0
 12 13  2  0
 12 17  1  0
 14 15  1  0
 16 15  1  1
 16 18  1  0
 17 16  1  0
 18 20  1  0
 19 18  2  0
M  END
$$$$
