DMC.pdb
     RDKit          3D

 23 22  0  0  1  0  0  0  0  0999 V2000
   20.1327  -15.9859  -16.7392 N   0  0  0  0  0  0  0  0  0  0  0  0
   20.0049  -14.6012  -17.1281 C   0  0  1  0  0  0  0  0  0  0  0  0
   18.6175  -14.1322  -16.8082 C   0  0  0  0  0  0  0  0  0  0  0  0
   17.6790  -14.7847  -17.7537 C   0  0  0  0  0  0  0  0  0  0  0  0
   18.0131  -15.0653  -18.9243 O   0  0  0  0  0  0  0  0  0  0  0  0
   21.0718  -13.8255  -16.5137 C   0  0  0  0  0  0  0  0  0  0  0  0
   21.1868  -13.8204  -15.2624 O   0  0  0  0  0  0  0  0  0  0  0  0
   16.4039  -15.0793  -17.2996 O   0  0  0  0  0  0  0  0  0  0  0  0
   27.3639   -9.8622  -16.0882 C   0  0  0  0  0  0  0  0  0  0  0  0
   25.8407  -10.4576  -16.8597 S   0  0  0  0  0  0  0  0  0  0  0  0
   25.5656  -12.1770  -16.3223 C   0  0  0  0  0  0  0  0  0  0  0  0
   24.3894  -12.7824  -17.0209 C   0  0  0  0  0  0  0  0  0  0  0  0
   23.0640  -12.2612  -16.5426 C   0  0  2  0  0  0  0  0  0  0  0  0
   22.0163  -13.0547  -17.2354 N   0  0  0  0  0  0  0  0  0  0  0  0
   22.7848  -10.8617  -16.8967 C   0  0  0  0  0  0  0  0  0  0  0  0
   22.6407  -10.4820  -18.1139 O   0  0  0  0  0  0  0  0  0  0  0  0
   22.6435   -9.8054  -15.9516 N   0  0  0  0  0  0  0  0  0  0  0  0
   22.3592   -8.4236  -16.3388 C   0  0  1  0  0  0  0  0  0  0  0  0
   21.0730   -8.0324  -15.6421 C   0  0  0  0  0  0  0  0  0  0  0  0
   21.2183   -8.2031  -13.8500 S   0  0  0  0  0  0  0  0  0  0  0  0
   23.4547   -7.5212  -15.9878 C   0  0  0  0  0  0  0  0  0  0  0  0
   24.4423   -7.9494  -15.3466 O   0  0  0  0  0  0  0  0  0  0  0  0
   23.4414   -6.1843  -16.3445 O   0  0  0  0  0  0  0  0  0  0  0  0
  2  1  1  1
  2  3  1  0
  3  4  1  0
  4  8  1  0
  5  4  2  0
  6  2  1  0
  7  6  2  0
  9 10  1  0
 10 11  1  0
 11 12  1  0
 13 12  1  6
 13 15  1  0
 13 14  1  0
 14  6  1  0
 15 17  1  0
 16 15  2  0
 18 17  1  0
 18 21  1  0
 18 19  1  1
 20 19  1  0
 21 22  2  0
 21 23  1  0
M  END
$$$$
