DMC.pdb
     RDKit          3D

 23 22  0  0  1  0  0  0  0  0999 V2000
   28.1021  -21.7618  -16.0258 N   0  0  0  0  0  0  0  0  0  0  0  0
   28.0759  -20.8465  -14.9093 C   0  0  1  0  0  0  0  0  0  0  0  0
   28.0284  -19.4425  -15.4323 C   0  0  0  0  0  0  0  0  0  0  0  0
   27.1751  -19.4293  -16.6456 C   0  0  0  0  0  0  0  0  0  0  0  0
   26.2266  -18.6266  -16.7745 O   0  0  0  0  0  0  0  0  0  0  0  0
   26.9858  -21.2054  -14.0148 C   0  0  0  0  0  0  0  0  0  0  0  0
   26.0767  -21.9683  -14.4278 O   0  0  0  0  0  0  0  0  0  0  0  0
   27.4605  -20.3430  -17.6470 O   0  0  0  0  0  0  0  0  0  0  0  0
   27.1628  -19.8223   -7.8239 C   0  0  0  0  0  0  0  0  0  0  0  0
   25.4500  -20.3988   -7.7609 S   0  0  0  0  0  0  0  0  0  0  0  0
   24.9961  -21.0145   -9.4149 C   0  0  0  0  0  0  0  0  0  0  0  0
   26.0447  -20.6757  -10.4267 C   0  0  0  0  0  0  0  0  0  0  0  0
   25.7401  -21.1784  -11.8093 C   0  0  2  0  0  0  0  0  0  0  0  0
   26.8659  -20.7495  -12.6788 N   0  0  0  0  0  0  0  0  0  0  0  0
   24.5359  -20.6026  -12.4259 C   0  0  0  0  0  0  0  0  0  0  0  0
   24.5004  -19.3933  -12.8537 O   0  0  0  0  0  0  0  0  0  0  0  0
   23.3126  -21.3077  -12.6142 N   0  0  0  0  0  0  0  0  0  0  0  0
   22.1302  -20.7013  -13.2259 C   0  0  1  0  0  0  0  0  0  0  0  0
   21.9287  -21.3898  -14.5593 C   0  0  0  0  0  0  0  0  0  0  0  0
   21.6816  -23.1667  -14.3505 S   0  0  0  0  0  0  0  0  0  0  0  0
   20.9487  -20.8268  -12.3739 C   0  0  0  0  0  0  0  0  0  0  0  0
   21.0252  -21.4248  -11.2756 O   0  0  0  0  0  0  0  0  0  0  0  0
   19.7239  -20.2990  -12.7426 O   0  0  0  0  0  0  0  0  0  0  0  0
  2  1  1  6
  2  3  1  0
  3  4  1  0
  4  8  1  0
  5  4  2  0
  6  2  1  0
  7  6  2  0
  9 10  1  0
 10 11  1  0
 11 12  1  0
 13 12  1  1
 13 15  1  0
 13 14  1  0
 14  6  1  0
 15 17  1  0
 16 15  2  0
 18 17  1  0
 18 21  1  0
 18 19  1  6
 20 19  1  0
 21 22  2  0
 21 23  1  0
M  END
$$$$
