DMC.pdb
     RDKit          3D

 23 22  0  0  1  0  0  0  0  0999 V2000
   18.9485  -12.1423  -19.0277 N   0  0  0  0  0  0  0  0  0  0  0  0
   19.4129  -10.7950  -19.2607 C   0  0  1  0  0  0  0  0  0  0  0  0
   18.2544   -9.9499  -19.6978 C   0  0  0  0  0  0  0  0  0  0  0  0
   17.8655  -10.3701  -21.0663 C   0  0  0  0  0  0  0  0  0  0  0  0
   18.7155  -10.7031  -21.9191 O   0  0  0  0  0  0  0  0  0  0  0  0
   20.1128  -10.3132  -18.0795 C   0  0  0  0  0  0  0  0  0  0  0  0
   19.5926  -10.4752  -16.9471 O   0  0  0  0  0  0  0  0  0  0  0  0
   16.5162  -10.3842  -21.3796 O   0  0  0  0  0  0  0  0  0  0  0  0
   26.9919  -10.1147  -14.5734 C   0  0  0  0  0  0  0  0  0  0  0  0
   26.0275  -10.3639  -16.0827 S   0  0  0  0  0  0  0  0  0  0  0  0
   24.3591   -9.6836  -15.8102 C   0  0  0  0  0  0  0  0  0  0  0  0
   23.4713   -9.9357  -16.9876 C   0  0  0  0  0  0  0  0  0  0  0  0
   22.1022   -9.3311  -16.8570 C   0  0  2  0  0  0  0  0  0  0  0  0
   21.3685   -9.6578  -18.1069 N   0  0  0  0  0  0  0  0  0  0  0  0
   22.0794   -7.8635  -16.7691 C   0  0  0  0  0  0  0  0  0  0  0  0
   22.3710   -7.1158  -17.7703 O   0  0  0  0  0  0  0  0  0  0  0  0
   21.7360   -7.1329  -15.5955 N   0  0  0  0  0  0  0  0  0  0  0  0
   21.7581   -5.6716  -15.5326 C   0  0  1  0  0  0  0  0  0  0  0  0
   20.4228   -5.2403  -14.9636 C   0  0  0  0  0  0  0  0  0  0  0  0
   20.4287   -3.4869  -14.5304 S   0  0  0  0  0  0  0  0  0  0  0  0
   22.8706   -5.1760  -14.7236 C   0  0  0  0  0  0  0  0  0  0  0  0
   23.2026   -5.7758  -13.6748 O   0  0  0  0  0  0  0  0  0  0  0  0
   23.5855   -4.0463  -15.0802 O   0  0  0  0  0  0  0  0  0  0  0  0
  2  1  1  1
  2  3  1  0
  3  4  1  0
  4  8  1  0
  5  4  2  0
  6  2  1  0
  7  6  2  0
  9 10  1  0
 10 11  1  0
 11 12  1  0
 13 12  1  6
 13 15  1  0
 13 14  1  0
 14  6  1  0
 15 17  1  0
 16 15  2  0
 18 17  1  0
 18 21  1  0
 18 19  1  1
 20 19  1  0
 21 22  2  0
 21 23  1  0
M  END
$$$$
