DMC.pdb
     RDKit          3D

 23 22  0  0  1  0  0  0  0  0999 V2000
   27.0241  -22.8167  -16.4997 N   0  0  0  0  0  0  0  0  0  0  0  0
   26.8289  -21.5096  -15.9177 C   0  0  1  0  0  0  0  0  0  0  0  0
   26.2980  -20.5831  -16.9697 C   0  0  0  0  0  0  0  0  0  0  0  0
   27.4239  -19.7565  -17.4692 C   0  0  0  0  0  0  0  0  0  0  0  0
   28.3477  -20.2466  -18.1527 O   0  0  0  0  0  0  0  0  0  0  0  0
   25.9985  -21.6284  -14.7288 C   0  0  0  0  0  0  0  0  0  0  0  0
   24.9696  -22.3489  -14.7662 O   0  0  0  0  0  0  0  0  0  0  0  0
   27.4254  -18.4074  -17.1544 O   0  0  0  0  0  0  0  0  0  0  0  0
   25.5470  -20.4944   -6.8995 C   0  0  0  0  0  0  0  0  0  0  0  0
   26.4409  -20.1676   -8.4371 S   0  0  0  0  0  0  0  0  0  0  0  0
   25.4557  -20.8303   -9.8194 C   0  0  0  0  0  0  0  0  0  0  0  0
   26.1837  -20.6938  -11.1192 C   0  0  0  0  0  0  0  0  0  0  0  0
   25.4049  -21.1846  -12.3065 C   0  0  2  0  0  0  0  0  0  0  0  0
   26.2663  -20.9776  -13.4992 N   0  0  0  0  0  0  0  0  0  0  0  0
   24.1702  -20.4377  -12.5885 C   0  0  0  0  0  0  0  0  0  0  0  0
   24.1784  -19.3183  -13.2158 O   0  0  0  0  0  0  0  0  0  0  0  0
   22.8658  -20.8670  -12.2099 N   0  0  0  0  0  0  0  0  0  0  0  0
   21.6486  -20.1582  -12.6049 C   0  0  1  0  0  0  0  0  0  0  0  0
   21.4594  -20.4103  -14.0859 C   0  0  0  0  0  0  0  0  0  0  0  0
   21.9253  -18.9646  -15.0632 S   0  0  0  0  0  0  0  0  0  0  0  0
   20.4862  -20.5966  -11.8339 C   0  0  0  0  0  0  0  0  0  0  0  0
   20.5162  -21.6846  -11.2133 O   0  0  0  0  0  0  0  0  0  0  0  0
   19.3303  -19.8394  -11.7625 O   0  0  0  0  0  0  0  0  0  0  0  0
  2  1  1  6
  2  3  1  0
  3  4  1  0
  4  8  1  0
  5  4  2  0
  6  2  1  0
  7  6  2  0
  9 10  1  0
 10 11  1  0
 11 12  1  0
 13 12  1  1
 13 15  1  0
 13 14  1  0
 14  6  1  0
 15 17  1  0
 16 15  2  0
 18 17  1  0
 18 21  1  0
 18 19  1  6
 20 19  1  0
 21 22  2  0
 21 23  1  0
M  END
$$$$
