DMC.pdb
     RDKit          3D

 23 22  0  0  1  0  0  0  0  0999 V2000
   28.3607  -22.1667  -16.9660 N   0  0  0  0  0  0  0  0  0  0  0  0
   27.5469  -21.0557  -16.5316 C   0  0  1  0  0  0  0  0  0  0  0  0
   26.9223  -20.4116  -17.7325 C   0  0  0  0  0  0  0  0  0  0  0  0
   27.9957  -19.7494  -18.5132 C   0  0  0  0  0  0  0  0  0  0  0  0
   28.4874  -20.2755  -19.5341 O   0  0  0  0  0  0  0  0  0  0  0  0
   26.6053  -21.5118  -15.5204 C   0  0  0  0  0  0  0  0  0  0  0  0
   26.0382  -22.6239  -15.6646 O   0  0  0  0  0  0  0  0  0  0  0  0
   28.4461  -18.5145  -18.0757 O   0  0  0  0  0  0  0  0  0  0  0  0
   24.6131  -21.0692   -7.9133 C   0  0  0  0  0  0  0  0  0  0  0  0
   25.6478  -20.4768   -9.2729 S   0  0  0  0  0  0  0  0  0  0  0  0
   25.0279  -21.2116  -10.8210 C   0  0  0  0  0  0  0  0  0  0  0  0
   25.8612  -20.7946  -11.9914 C   0  0  0  0  0  0  0  0  0  0  0  0
   25.3901  -21.3549  -13.3034 C   0  0  2  0  0  0  0  0  0  0  0  0
   26.2684  -20.7803  -14.3548 N   0  0  0  0  0  0  0  0  0  0  0  0
   24.0248  -20.9672  -13.6875 C   0  0  0  0  0  0  0  0  0  0  0  0
   23.7361  -19.7771  -14.0708 O   0  0  0  0  0  0  0  0  0  0  0  0
   22.9057  -21.8485  -13.6800 N   0  0  0  0  0  0  0  0  0  0  0  0
   21.5729  -21.4467  -14.1296 C   0  0  1  0  0  0  0  0  0  0  0  0
   21.0430  -22.5779  -14.9854 C   0  0  0  0  0  0  0  0  0  0  0  0
   20.9886  -24.1297  -14.0629 S   0  0  0  0  0  0  0  0  0  0  0  0
   20.6807  -21.1605  -13.0072 C   0  0  0  0  0  0  0  0  0  0  0  0
   21.0460  -21.4056  -11.8341 O   0  0  0  0  0  0  0  0  0  0  0  0
   19.4220  -20.6177  -13.1959 O   0  0  0  0  0  0  0  0  0  0  0  0
  2  1  1  6
  2  3  1  0
  3  4  1  0
  4  8  1  0
  5  4  2  0
  6  2  1  0
  7  6  2  0
  9 10  1  0
 10 11  1  0
 11 12  1  0
 13 12  1  1
 13 15  1  0
 13 14  1  0
 14  6  1  0
 15 17  1  0
 16 15  2  0
 18 17  1  0
 18 21  1  0
 18 19  1  1
 20 19  1  0
 21 22  2  0
 21 23  1  0
M  END
$$$$
