DMC.pdb
     RDKit          3D

 23 22  0  0  1  0  0  0  0  0999 V2000
   18.8600  -11.6493  -17.9539 N   0  0  0  0  0  0  0  0  0  0  0  0
   19.5489  -10.4415  -18.3434 C   0  0  1  0  0  0  0  0  0  0  0  0
   18.5524   -9.4729  -18.9056 C   0  0  0  0  0  0  0  0  0  0  0  0
   18.0857   -9.9958  -20.2130 C   0  0  0  0  0  0  0  0  0  0  0  0
   16.8729  -10.1680  -20.4581 O   0  0  0  0  0  0  0  0  0  0  0  0
   20.3229   -9.9412  -17.2173 C   0  0  0  0  0  0  0  0  0  0  0  0
   19.8582  -10.0492  -16.0548 O   0  0  0  0  0  0  0  0  0  0  0  0
   19.0426  -10.2928  -21.1697 O   0  0  0  0  0  0  0  0  0  0  0  0
   26.3903  -11.0374  -14.8227 C   0  0  0  0  0  0  0  0  0  0  0  0
   26.3286   -9.3117  -15.3595 S   0  0  0  0  0  0  0  0  0  0  0  0
   24.6176   -8.7161  -15.1637 C   0  0  0  0  0  0  0  0  0  0  0  0
   23.7425   -9.2046  -16.2745 C   0  0  0  0  0  0  0  0  0  0  0  0
   22.3056   -8.7852  -16.1454 C   0  0  2  0  0  0  0  0  0  0  0  0
   21.5935   -9.3252  -17.3322 N   0  0  0  0  0  0  0  0  0  0  0  0
   22.0784   -7.3331  -16.1874 C   0  0  0  0  0  0  0  0  0  0  0  0
   22.2272   -6.6504  -17.2636 O   0  0  0  0  0  0  0  0  0  0  0  0
   21.6750   -6.5491  -15.0686 N   0  0  0  0  0  0  0  0  0  0  0  0
   21.4512   -5.1056  -15.1474 C   0  0  1  0  0  0  0  0  0  0  0  0
   20.1449   -4.8283  -14.4336 C   0  0  0  0  0  0  0  0  0  0  0  0
   18.7493   -5.5744  -15.3041 S   0  0  0  0  0  0  0  0  0  0  0  0
   22.5548   -4.3484  -14.5588 C   0  0  0  0  0  0  0  0  0  0  0  0
   23.4833   -4.9461  -13.9669 O   0  0  0  0  0  0  0  0  0  0  0  0
   22.6135   -2.9679  -14.6324 O   0  0  0  0  0  0  0  0  0  0  0  0
  2  1  1  1
  2  3  1  0
  3  4  1  0
  4  8  1  0
  5  4  2  0
  6  2  1  0
  7  6  2  0
  9 10  1  0
 10 11  1  0
 11 12  1  0
 13 12  1  6
 13 15  1  0
 13 14  1  0
 14  6  1  0
 15 17  1  0
 16 15  2  0
 18 17  1  0
 18 21  1  0
 18 19  1  1
 20 19  1  0
 21 22  2  0
 21 23  1  0
M  END
$$$$
