DMC.pdb
     RDKit          3D

 23 22  0  0  1  0  0  0  0  0999 V2000
   31.3538  -26.0118  -16.3747 N   0  0  0  0  0  0  0  0  0  0  0  0
   30.1119  -26.0823  -17.1081 C   0  0  1  0  0  0  0  0  0  0  0  0
   30.0610  -24.9495  -18.0886 C   0  0  0  0  0  0  0  0  0  0  0  0
   29.2913  -23.8402  -17.4744 C   0  0  0  0  0  0  0  0  0  0  0  0
   28.3726  -23.2575  -18.0885 O   0  0  0  0  0  0  0  0  0  0  0  0
   29.9698  -27.4071  -17.6930 C   0  0  0  0  0  0  0  0  0  0  0  0
   28.9151  -27.6967  -18.3117 O   0  0  0  0  0  0  0  0  0  0  0  0
   29.6215  -23.4608  -16.1836 O   0  0  0  0  0  0  0  0  0  0  0  0
   33.1303  -30.1430  -22.6061 C   0  0  0  0  0  0  0  0  0  0  0  0
   32.7460  -29.4494  -20.9809 S   0  0  0  0  0  0  0  0  0  0  0  0
   32.4274  -30.8297  -19.8345 C   0  0  0  0  0  0  0  0  0  0  0  0
   32.1408  -30.3325  -18.4529 C   0  0  0  0  0  0  0  0  0  0  0  0
   30.7722  -29.7332  -18.2944 C   0  0  2  0  0  0  0  0  0  0  0  0
   30.9539  -28.4233  -17.6173 N   0  0  0  0  0  0  0  0  0  0  0  0
   29.8607  -30.4928  -17.4261 C   0  0  0  0  0  0  0  0  0  0  0  0
   29.5945  -30.1223  -16.2267 O   0  0  0  0  0  0  0  0  0  0  0  0
   29.1891  -31.6877  -17.8137 N   0  0  0  0  0  0  0  0  0  0  0  0
   27.9389  -32.1334  -17.1987 C   0  0  1  0  0  0  0  0  0  0  0  0
   27.3331  -30.9239  -16.5184 C   0  0  0  0  0  0  0  0  0  0  0  0
   25.7413  -31.3229  -15.7641 S   0  0  0  0  0  0  0  0  0  0  0  0
   27.0223  -32.7112  -18.1805 C   0  0  0  0  0  0  0  0  0  0  0  0
   26.9684  -32.2449  -19.3422 O   0  0  0  0  0  0  0  0  0  0  0  0
   26.1950  -33.7755  -17.8684 O   0  0  0  0  0  0  0  0  0  0  0  0
  2  1  1  6
  2  3  1  0
  3  4  1  0
  4  8  1  0
  5  4  2  0
  6  2  1  0
  7  6  2  0
  9 10  1  0
 10 11  1  0
 11 12  1  0
 13 12  1  1
 13 15  1  0
 13 14  1  0
 14  6  1  0
 15 17  1  0
 16 15  2  0
 18 17  1  0
 18 21  1  0
 18 19  1  6
 20 19  1  0
 21 22  2  0
 21 23  1  0
M  END
$$$$
