DMC.pdb
     RDKit          3D

 23 22  0  0  1  0  0  0  0  0999 V2000
   21.7889  -13.2154  -17.8539 N   0  0  0  0  0  0  0  0  0  0  0  0
   22.1502  -12.3062  -16.7919 C   0  0  1  0  0  0  0  0  0  0  0  0
   23.6004  -11.9518  -16.9273 C   0  0  0  0  0  0  0  0  0  0  0  0
   24.4043  -13.1409  -16.5529 C   0  0  0  0  0  0  0  0  0  0  0  0
   24.3813  -14.1906  -17.2298 O   0  0  0  0  0  0  0  0  0  0  0  0
   21.2385  -11.1722  -16.7946 C   0  0  0  0  0  0  0  0  0  0  0  0
   21.0391  -10.5454  -17.8654 O   0  0  0  0  0  0  0  0  0  0  0  0
   25.1928  -13.0571  -15.4170 O   0  0  0  0  0  0  0  0  0  0  0  0
   15.0582  -12.3584  -17.1052 C   0  0  0  0  0  0  0  0  0  0  0  0
   15.9240  -11.5662  -15.7294 S   0  0  0  0  0  0  0  0  0  0  0  0
   17.5081  -10.9162  -16.3532 C   0  0  0  0  0  0  0  0  0  0  0  0
   18.2346  -10.1490  -15.2942 C   0  0  0  0  0  0  0  0  0  0  0  0
   19.5571   -9.5957  -15.7438 C   0  0  2  0  0  0  0  0  0  0  0  0
   20.5393  -10.7067  -15.6537 N   0  0  0  0  0  0  0  0  0  0  0  0
   20.1032   -8.5285  -14.8924 C   0  0  0  0  0  0  0  0  0  0  0  0
   20.8715   -8.7775  -13.8952 O   0  0  0  0  0  0  0  0  0  0  0  0
   19.8488   -7.1396  -15.0804 N   0  0  0  0  0  0  0  0  0  0  0  0
   20.4867   -6.0975  -14.2760 C   0  0  1  0  0  0  0  0  0  0  0  0
   21.9737   -6.1879  -14.5469 C   0  0  0  0  0  0  0  0  0  0  0  0
   22.8672   -4.8242  -13.7697 S   0  0  0  0  0  0  0  0  0  0  0  0
   19.9646   -4.7683  -14.5899 C   0  0  0  0  0  0  0  0  0  0  0  0
   19.5721   -4.5039  -15.7500 O   0  0  0  0  0  0  0  0  0  0  0  0
   19.8861   -3.7709  -13.6341 O   0  0  0  0  0  0  0  0  0  0  0  0
  2  1  1  6
  2  3  1  0
  3  4  1  0
  4  8  1  0
  5  4  2  0
  6  2  1  0
  7  6  2  0
  9 10  1  0
 10 11  1  0
 11 12  1  0
 13 12  1  1
 13 15  1  0
 13 14  1  0
 14  6  1  0
 15 17  1  0
 16 15  2  0
 18 17  1  0
 18 21  1  0
 18 19  1  6
 20 19  1  0
 21 22  2  0
 21 23  1  0
M  END
$$$$
