DMC.pdb
     RDKit          3D

 23 22  0  0  1  0  0  0  0  0999 V2000
   21.9755  -10.7258  -18.5860 N   0  0  0  0  0  0  0  0  0  0  0  0
   22.2536   -9.3218  -18.3954 C   0  0  1  0  0  0  0  0  0  0  0  0
   22.1457   -8.6209  -19.7161 C   0  0  0  0  0  0  0  0  0  0  0  0
   23.2014   -9.1548  -20.6110 C   0  0  0  0  0  0  0  0  0  0  0  0
   24.3895   -9.2584  -20.2387 O   0  0  0  0  0  0  0  0  0  0  0  0
   21.3907   -8.7951  -17.3489 C   0  0  0  0  0  0  0  0  0  0  0  0
   20.2093   -9.2134  -17.2569 O   0  0  0  0  0  0  0  0  0  0  0  0
   22.8316   -9.5416  -21.8887 O   0  0  0  0  0  0  0  0  0  0  0  0
   18.5728   -7.9903  -11.0067 C   0  0  0  0  0  0  0  0  0  0  0  0
   19.5036   -8.5284  -12.4607 S   0  0  0  0  0  0  0  0  0  0  0  0
   20.7916   -7.2856  -12.8033 C   0  0  0  0  0  0  0  0  0  0  0  0
   21.5878   -7.6494  -14.0164 C   0  0  0  0  0  0  0  0  0  0  0  0
   20.8787   -7.3778  -15.3128 C   0  0  2  0  0  0  0  0  0  0  0  0
   21.7889   -7.8213  -16.4001 N   0  0  0  0  0  0  0  0  0  0  0  0
   20.6134   -5.9579  -15.5874 C   0  0  0  0  0  0  0  0  0  0  0  0
   21.5591   -5.1118  -15.7779 O   0  0  0  0  0  0  0  0  0  0  0  0
   19.3123   -5.3845  -15.6739 N   0  0  0  0  0  0  0  0  0  0  0  0
   19.0845   -3.9627  -15.9317 C   0  0  1  0  0  0  0  0  0  0  0  0
   18.3396   -3.8728  -17.2469 C   0  0  0  0  0  0  0  0  0  0  0  0
   19.4067   -4.3087  -18.6374 S   0  0  0  0  0  0  0  0  0  0  0  0
   18.3388   -3.3234  -14.8487 C   0  0  0  0  0  0  0  0  0  0  0  0
   17.5263   -3.9888  -14.1654 O   0  0  0  0  0  0  0  0  0  0  0  0
   18.5000   -1.9834  -14.5438 O   0  0  0  0  0  0  0  0  0  0  0  0
  2  1  1  6
  2  3  1  0
  3  4  1  0
  4  8  1  0
  5  4  2  0
  6  2  1  0
  7  6  2  0
  9 10  1  0
 10 11  1  0
 11 12  1  0
 13 12  1  1
 13 15  1  0
 13 14  1  0
 14  6  1  0
 15 17  1  0
 16 15  2  0
 18 17  1  0
 18 21  1  0
 18 19  1  6
 20 19  1  0
 21 22  2  0
 21 23  1  0
M  END
$$$$
