DMC.pdb
     RDKit          3D

 23 22  0  0  1  0  0  0  0  0999 V2000
   20.4674  -12.1967  -17.9229 N   0  0  0  0  0  0  0  0  0  0  0  0
   20.8267  -10.8493  -18.2981 C   0  0  1  0  0  0  0  0  0  0  0  0
   19.6306  -10.1772  -18.9020 C   0  0  0  0  0  0  0  0  0  0  0  0
   19.3670  -10.8003  -20.2221 C   0  0  0  0  0  0  0  0  0  0  0  0
   18.2475  -11.2700  -20.5165 O   0  0  0  0  0  0  0  0  0  0  0  0
   21.4012  -10.1642  -17.1501 C   0  0  0  0  0  0  0  0  0  0  0  0
   20.8995  -10.3435  -16.0120 O   0  0  0  0  0  0  0  0  0  0  0  0
   20.4088  -10.8492  -21.1339 O   0  0  0  0  0  0  0  0  0  0  0  0
   27.3556  -11.8525  -15.2215 C   0  0  0  0  0  0  0  0  0  0  0  0
   26.8460  -10.2224  -15.8158 S   0  0  0  0  0  0  0  0  0  0  0  0
   25.0275  -10.1324  -15.7398 C   0  0  0  0  0  0  0  0  0  0  0  0
   24.5389   -8.7533  -16.0520 C   0  0  0  0  0  0  0  0  0  0  0  0
   23.0439   -8.6130  -16.0046 C   0  0  2  0  0  0  0  0  0  0  0  0
   22.5117   -9.2870  -17.2170 N   0  0  0  0  0  0  0  0  0  0  0  0
   22.5491   -7.2307  -16.0836 C   0  0  0  0  0  0  0  0  0  0  0  0
   22.7127   -6.5065  -17.1303 O   0  0  0  0  0  0  0  0  0  0  0  0
   21.8495   -6.5653  -15.0363 N   0  0  0  0  0  0  0  0  0  0  0  0
   21.4488   -5.1605  -15.1138 C   0  0  1  0  0  0  0  0  0  0  0  0
   19.9418   -5.1294  -14.9703 C   0  0  0  0  0  0  0  0  0  0  0  0
   19.1413   -6.1556  -16.2226 S   0  0  0  0  0  0  0  0  0  0  0  0
   22.1017   -4.3485  -14.0881 C   0  0  0  0  0  0  0  0  0  0  0  0
   22.8168   -4.8927  -13.2149 O   0  0  0  0  0  0  0  0  0  0  0  0
   21.9565   -2.9732  -14.0445 O   0  0  0  0  0  0  0  0  0  0  0  0
  2  1  1  1
  2  3  1  0
  3  4  1  0
  4  8  1  0
  5  4  2  0
  6  2  1  0
  7  6  2  0
  9 10  1  0
 10 11  1  0
 11 12  1  0
 13 12  1  6
 13 15  1  0
 13 14  1  0
 14  6  1  0
 15 17  1  0
 16 15  2  0
 18 17  1  0
 18 21  1  0
 18 19  1  1
 20 19  1  0
 21 22  2  0
 21 23  1  0
M  END
$$$$
