DMC.pdb
     RDKit          3D

 23 22  0  0  1  0  0  0  0  0999 V2000
   28.1935  -21.6286  -15.5449 N   0  0  0  0  0  0  0  0  0  0  0  0
   27.5297  -20.5208  -14.8989 C   0  0  1  0  0  0  0  0  0  0  0  0
   26.9593  -19.6161  -15.9493 C   0  0  0  0  0  0  0  0  0  0  0  0
   28.0715  -18.8284  -16.5352 C   0  0  0  0  0  0  0  0  0  0  0  0
   28.8800  -19.3318  -17.3437 O   0  0  0  0  0  0  0  0  0  0  0  0
   26.5638  -21.0297  -13.9370 C   0  0  0  0  0  0  0  0  0  0  0  0
   25.7666  -21.9362  -14.2861 O   0  0  0  0  0  0  0  0  0  0  0  0
   28.1931  -17.5011  -16.1577 O   0  0  0  0  0  0  0  0  0  0  0  0
   25.9260  -19.6602   -7.5087 C   0  0  0  0  0  0  0  0  0  0  0  0
   27.3365  -20.6504   -8.0565 S   0  0  0  0  0  0  0  0  0  0  0  0
   26.9730  -21.2827   -9.7264 C   0  0  0  0  0  0  0  0  0  0  0  0
   25.7611  -20.6231  -10.3046 C   0  0  0  0  0  0  0  0  0  0  0  0
   25.4081  -21.1023  -11.6840 C   0  0  2  0  0  0  0  0  0  0  0  0
   26.4485  -20.5706  -12.6017 N   0  0  0  0  0  0  0  0  0  0  0  0
   24.1333  -20.5915  -12.2094 C   0  0  0  0  0  0  0  0  0  0  0  0
   23.9654  -19.3551  -12.5086 O   0  0  0  0  0  0  0  0  0  0  0  0
   22.9792  -21.3937  -12.4409 N   0  0  0  0  0  0  0  0  0  0  0  0
   21.7010  -20.8395  -12.8871 C   0  0  1  0  0  0  0  0  0  0  0  0
   21.3181  -21.5880  -14.1464 C   0  0  0  0  0  0  0  0  0  0  0  0
   22.1591  -20.9112  -15.5944 S   0  0  0  0  0  0  0  0  0  0  0  0
   20.6669  -20.9546  -11.8599 C   0  0  0  0  0  0  0  0  0  0  0  0
   20.8802  -21.6270  -10.8244 O   0  0  0  0  0  0  0  0  0  0  0  0
   19.4362  -20.3360  -11.9911 O   0  0  0  0  0  0  0  0  0  0  0  0
  2  1  1  6
  2  3  1  0
  3  4  1  0
  4  8  1  0
  5  4  2  0
  6  2  1  0
  7  6  2  0
  9 10  1  0
 10 11  1  0
 11 12  1  0
 13 12  1  1
 13 15  1  0
 13 14  1  0
 14  6  1  0
 15 17  1  0
 16 15  2  0
 18 17  1  0
 18 21  1  0
 18 19  1  6
 20 19  1  0
 21 22  2  0
 21 23  1  0
M  END
$$$$
