YLK.pdb
     RDKit          3D

 30 30  0  0  1  0  0  0  0  0999 V2000
    6.9213  -12.1031   17.5827 O   0  0  0  0  0  0  0  0  0  0  0  0
    7.6095  -13.0594   18.3326 C   0  0  0  0  0  0  0  0  0  0  0  0
    8.4952  -12.7076   19.3255 C   0  0  0  0  0  0  0  0  0  0  0  0
    9.1523  -13.6847   20.0403 C   0  0  0  0  0  0  0  0  0  0  0  0
    8.9327  -15.0206   19.7722 C   0  0  0  0  0  0  0  0  0  0  0  0
    9.6585  -16.0268   20.5631 C   0  0  0  0  0  0  0  0  0  0  0  0
    8.8069  -16.6927   21.6009 C   0  0  2  0  0  0  0  0  0  0  0  0
    7.4630  -16.9410   21.1800 N   0  0  0  0  0  0  0  0  0  0  0  0
    8.8912  -15.9381   22.8709 C   0  0  0  0  0  0  0  0  0  0  0  0
   10.0350  -15.7162   23.3441 O   0  0  0  0  0  0  0  0  0  0  0  0
    8.0475  -15.3898   18.7795 C   0  0  0  0  0  0  0  0  0  0  0  0
    7.3996  -14.3972   18.0751 C   0  0  0  0  0  0  0  0  0  0  0  0
    5.7765  -12.4388   26.8534 C   0  0  0  0  0  0  0  0  0  0  0  0
    7.0289  -13.2987   26.6138 C   0  0  2  0  0  0  0  0  0  0  0  0
    8.1864  -12.2971   26.6115 C   0  0  0  0  0  0  0  0  0  0  0  0
    6.8453  -13.9489   25.2916 C   0  0  0  0  0  0  0  0  0  0  0  0
    7.9357  -14.8578   24.8527 C   0  0  2  0  0  0  0  0  0  0  0  0
    7.7701  -15.4570   23.5759 N   0  0  0  0  0  0  0  0  0  0  0  0
    8.0126  -15.9698   25.8720 C   0  0  0  0  0  0  0  0  0  0  0  0
    6.9541  -16.5238   26.2700 O   0  0  0  0  0  0  0  0  0  0  0  0
    9.2721  -16.3800   26.3714 N   0  0  0  0  0  0  0  0  0  0  0  0
    9.4061  -17.5455   27.2649 C   0  0  1  0  0  0  0  0  0  0  0  0
    9.7721  -18.6900   26.3847 C   0  0  0  0  0  0  0  0  0  0  0  0
   10.1182  -19.8983   27.2002 C   0  0  0  0  0  0  0  0  0  0  0  0
   10.4692  -21.0450   26.3010 C   0  0  0  0  0  0  0  0  0  0  0  0
   10.8087  -22.2694   27.0988 C   0  0  0  0  0  0  0  0  0  0  0  0
   11.1305  -23.3296   26.1542 N   0  0  0  0  0  0  0  0  0  0  0  0
   10.3507  -17.1915   28.3242 C   0  0  0  0  0  0  0  0  0  0  0  0
   11.3055  -16.2179   28.1235 O   0  0  0  0  0  0  0  0  0  0  0  0
   10.3215  -17.7533   29.4345 O   0  0  0  0  0  0  0  0  0  0  0  0
  2  1  1  0
  3  2  2  0
  4  3  1  0
  5 11  1  0
  5  4  2  0
  6  5  1  0
  7  6  1  0
  7  8  1  6
  9  7  1  0
  9 10  2  0
 11 12  2  0
 12  2  1  0
 14 16  1  0
 14 13  1  6
 15 14  1  0
 17 16  1  1
 17 18  1  0
 18  9  1  0
 19 17  1  0
 20 19  2  0
 21 19  1  0
 22 21  1  0
 22 28  1  0
 22 23  1  6
 24 23  1  0
 25 24  1  0
 26 27  1  0
 26 25  1  0
 28 30  2  0
 28 29  1  0
M  END
$$$$
