YLK.pdb
     RDKit          3D

 30 30  0  0  1  0  0  0  0  0999 V2000
   10.9842  -14.8879   30.1848 O   0  0  0  0  0  0  0  0  0  0  0  0
   10.3119  -15.0237   28.9681 C   0  0  0  0  0  0  0  0  0  0  0  0
   10.2218  -16.2325   28.3164 C   0  0  0  0  0  0  0  0  0  0  0  0
    9.5486  -16.3203   27.1178 C   0  0  0  0  0  0  0  0  0  0  0  0
    8.9594  -15.2047   26.5582 C   0  0  0  0  0  0  0  0  0  0  0  0
    8.2515  -15.3495   25.2766 C   0  0  0  0  0  0  0  0  0  0  0  0
    8.9536  -16.2544   24.3101 C   0  0  2  0  0  0  0  0  0  0  0  0
   10.3571  -16.0062   24.1940 N   0  0  0  0  0  0  0  0  0  0  0  0
    8.2475  -16.2354   23.0100 C   0  0  0  0  0  0  0  0  0  0  0  0
    7.0765  -16.6924   22.9741 O   0  0  0  0  0  0  0  0  0  0  0  0
    9.0409  -13.9851   27.1995 C   0  0  0  0  0  0  0  0  0  0  0  0
    9.7190  -13.9175   28.3982 C   0  0  0  0  0  0  0  0  0  0  0  0
    6.9267  -13.1341   21.5484 C   0  0  0  0  0  0  0  0  0  0  0  0
    8.1658  -13.2553   20.6454 C   0  0  2  0  0  0  0  0  0  0  0  0
    8.1273  -11.9992   19.7716 C   0  0  0  0  0  0  0  0  0  0  0  0
    7.9875  -14.4978   19.8523 C   0  0  0  0  0  0  0  0  0  0  0  0
    8.0619  -15.7738   20.6100 C   0  0  2  0  0  0  0  0  0  0  0  0
    8.8089  -15.7378   21.8173 N   0  0  0  0  0  0  0  0  0  0  0  0
    8.7169  -16.7842   19.6982 C   0  0  0  0  0  0  0  0  0  0  0  0
    8.1912  -17.0516   18.5856 O   0  0  0  0  0  0  0  0  0  0  0  0
    9.9149  -17.4219   20.1007 N   0  0  0  0  0  0  0  0  0  0  0  0
   10.7516  -18.1687   19.1432 C   0  0  1  0  0  0  0  0  0  0  0  0
   11.0856  -17.2034   18.0592 C   0  0  0  0  0  0  0  0  0  0  0  0
   10.6009  -17.7047   16.7330 C   0  0  0  0  0  0  0  0  0  0  0  0
   11.0506  -16.7856   15.6378 C   0  0  0  0  0  0  0  0  0  0  0  0
   10.5255  -17.2377   14.3070 C   0  0  0  0  0  0  0  0  0  0  0  0
   11.1107  -16.3741   13.2914 N   0  0  0  0  0  0  0  0  0  0  0  0
   11.8703  -18.7506   19.8847 C   0  0  0  0  0  0  0  0  0  0  0  0
   12.7087  -19.6703   19.2923 O   0  0  0  0  0  0  0  0  0  0  0  0
   12.1004  -18.4346   21.0663 O   0  0  0  0  0  0  0  0  0  0  0  0
  2  1  1  0
  3  2  2  0
  4  3  1  0
  5 11  1  0
  5  4  2  0
  6  5  1  0
  7  6  1  0
  7  8  1  6
  9  7  1  0
  9 10  2  0
 11 12  2  0
 12  2  1  0
 14 16  1  0
 14 13  1  1
 15 14  1  0
 17 16  1  6
 17 18  1  0
 18  9  1  0
 19 17  1  0
 20 19  2  0
 21 19  1  0
 22 21  1  0
 22 28  1  0
 22 23  1  6
 24 23  1  0
 25 24  1  0
 26 27  1  0
 26 25  1  0
 28 30  2  0
 28 29  1  0
M  END
$$$$
