YLK.pdb
     RDKit          3D

 30 30  0  0  1  0  0  0  0  0999 V2000
    9.7362  -14.0164   30.2499 O   0  0  0  0  0  0  0  0  0  0  0  0
    9.6608  -14.3747   28.9021 C   0  0  0  0  0  0  0  0  0  0  0  0
    9.1414  -13.5267   27.9507 C   0  0  0  0  0  0  0  0  0  0  0  0
    9.0865  -13.9217   26.6323 C   0  0  0  0  0  0  0  0  0  0  0  0
    9.5486  -15.1648   26.2502 C   0  0  0  0  0  0  0  0  0  0  0  0
    9.4686  -15.5406   24.8300 C   0  0  0  0  0  0  0  0  0  0  0  0
    8.2385  -16.3275   24.4931 C   0  0  2  0  0  0  0  0  0  0  0  0
    7.9378  -17.3672   25.4276 N   0  0  0  0  0  0  0  0  0  0  0  0
    8.3223  -16.8050   23.0951 C   0  0  0  0  0  0  0  0  0  0  0  0
    9.0479  -17.8050   22.8615 O   0  0  0  0  0  0  0  0  0  0  0  0
   10.0724  -16.0268   27.1925 C   0  0  0  0  0  0  0  0  0  0  0  0
   10.1188  -15.6133   28.5070 C   0  0  0  0  0  0  0  0  0  0  0  0
    7.5321  -13.1547   19.4307 C   0  0  0  0  0  0  0  0  0  0  0  0
    7.8703  -13.1884   20.9307 C   0  0  2  0  0  0  0  0  0  0  0  0
    8.4567  -11.8050   21.2224 C   0  0  0  0  0  0  0  0  0  0  0  0
    8.8689  -14.2722   21.1118 C   0  0  0  0  0  0  0  0  0  0  0  0
    8.3691  -15.6594   20.9287 C   0  0  2  0  0  0  0  0  0  0  0  0
    7.6396  -16.2067   22.0174 N   0  0  0  0  0  0  0  0  0  0  0  0
    9.5810  -16.5332   20.7064 C   0  0  0  0  0  0  0  0  0  0  0  0
    9.6709  -17.2164   19.6524 O   0  0  0  0  0  0  0  0  0  0  0  0
   10.6048  -16.5772   21.6830 N   0  0  0  0  0  0  0  0  0  0  0  0
   11.8066  -17.4128   21.5047 C   0  0  1  0  0  0  0  0  0  0  0  0
   12.9157  -16.4666   21.1997 C   0  0  0  0  0  0  0  0  0  0  0  0
   13.0292  -16.2386   19.7232 C   0  0  0  0  0  0  0  0  0  0  0  0
   14.2148  -15.3719   19.4242 C   0  0  0  0  0  0  0  0  0  0  0  0
   14.3085  -15.0769   17.9561 C   0  0  0  0  0  0  0  0  0  0  0  0
   15.3458  -14.0707   17.7791 N   0  0  0  0  0  0  0  0  0  0  0  0
   11.9525  -18.2479   22.6969 C   0  0  0  0  0  0  0  0  0  0  0  0
   12.9794  -19.1616   22.7985 O   0  0  0  0  0  0  0  0  0  0  0  0
   11.1600  -18.1593   23.6525 O   0  0  0  0  0  0  0  0  0  0  0  0
  2  1  1  0
  3  2  2  0
  4  3  1  0
  5 11  1  0
  5  4  2  0
  6  5  1  0
  7  6  1  0
  7  8  1  1
  9  7  1  0
  9 10  2  0
 11 12  2  0
 12  2  1  0
 14 16  1  0
 14 13  1  6
 15 14  1  0
 17 16  1  1
 17 18  1  0
 18  9  1  0
 19 17  1  0
 20 19  2  0
 21 19  1  0
 22 21  1  0
 22 28  1  0
 22 23  1  1
 24 23  1  0
 25 24  1  0
 26 27  1  0
 26 25  1  0
 28 30  2  0
 28 29  1  0
M  END
$$$$
