YLK.pdb
     RDKit          3D

 30 30  0  0  1  0  0  0  0  0999 V2000
    7.2005  -14.1295   14.9373 O   0  0  0  0  0  0  0  0  0  0  0  0
    7.2854  -14.3514   16.3135 C   0  0  0  0  0  0  0  0  0  0  0  0
    7.1619  -15.6094   16.8578 C   0  0  0  0  0  0  0  0  0  0  0  0
    7.2523  -15.7819   18.2214 C   0  0  0  0  0  0  0  0  0  0  0  0
    7.4666  -14.7027   19.0546 C   0  0  0  0  0  0  0  0  0  0  0  0
    7.5558  -14.9382   20.5041 C   0  0  0  0  0  0  0  0  0  0  0  0
    8.9172  -14.6637   21.0670 C   0  0  2  0  0  0  0  0  0  0  0  0
    9.9568  -15.4596   20.4919 N   0  0  0  0  0  0  0  0  0  0  0  0
    8.8692  -14.7441   22.5437 C   0  0  0  0  0  0  0  0  0  0  0  0
    9.6721  -15.5269   23.1129 O   0  0  0  0  0  0  0  0  0  0  0  0
    7.5925  -13.4346   18.5242 C   0  0  0  0  0  0  0  0  0  0  0  0
    7.4990  -13.2823   17.1570 C   0  0  0  0  0  0  0  0  0  0  0  0
    6.1898  -12.2440   27.5311 C   0  0  0  0  0  0  0  0  0  0  0  0
    7.2750  -13.1880   26.9867 C   0  0  2  0  0  0  0  0  0  0  0  0
    8.5905  -12.5931   27.4952 C   0  0  0  0  0  0  0  0  0  0  0  0
    7.1706  -13.1388   25.5064 C   0  0  0  0  0  0  0  0  0  0  0  0
    8.1437  -13.9722   24.7540 C   0  0  2  0  0  0  0  0  0  0  0  0
    7.9807  -13.9982   23.3434 N   0  0  0  0  0  0  0  0  0  0  0  0
    7.9861  -15.3875   25.2576 C   0  0  0  0  0  0  0  0  0  0  0  0
    6.8616  -15.9504   25.1908 O   0  0  0  0  0  0  0  0  0  0  0  0
    9.1018  -16.0690   25.8002 N   0  0  0  0  0  0  0  0  0  0  0  0
    8.9914  -17.4489   26.3086 C   0  0  1  0  0  0  0  0  0  0  0  0
    9.8941  -18.2686   25.4532 C   0  0  0  0  0  0  0  0  0  0  0  0
    9.3093  -18.4519   24.0860 C   0  0  0  0  0  0  0  0  0  0  0  0
   10.2339  -19.2677   23.2340 C   0  0  0  0  0  0  0  0  0  0  0  0
    9.6709  -19.4543   21.8558 C   0  0  0  0  0  0  0  0  0  0  0  0
   10.6325  -20.2390   21.0948 N   0  0  0  0  0  0  0  0  0  0  0  0
    9.2765  -17.4218   27.7431 C   0  0  0  0  0  0  0  0  0  0  0  0
    8.9149  -18.4749   28.5555 O   0  0  0  0  0  0  0  0  0  0  0  0
    9.8526  -16.4538   28.2724 O   0  0  0  0  0  0  0  0  0  0  0  0
  2  1  1  0
  3  2  2  0
  4  3  1  0
  5 11  1  0
  5  4  2  0
  6  5  1  0
  7  6  1  0
  7  8  1  6
  9  7  1  0
  9 10  2  0
 11 12  2  0
 12  2  1  0
 14 16  1  0
 14 13  1  1
 15 14  1  0
 17 16  1  1
 17 18  1  0
 18  9  1  0
 19 17  1  0
 20 19  2  0
 21 19  1  0
 22 21  1  0
 22 28  1  0
 22 23  1  6
 24 23  1  0
 25 24  1  0
 26 27  1  0
 26 25  1  0
 28 30  2  0
 28 29  1  0
M  END
$$$$
