YLK.pdb
     RDKit          3D

 30 30  0  0  1  0  0  0  0  0999 V2000
    7.6446  -14.1080   15.5950 O   0  0  0  0  0  0  0  0  0  0  0  0
    8.0677  -14.0555   16.9249 C   0  0  0  0  0  0  0  0  0  0  0  0
    9.0862  -14.8514   17.3975 C   0  0  0  0  0  0  0  0  0  0  0  0
    9.4710  -14.7664   18.7173 C   0  0  0  0  0  0  0  0  0  0  0  0
    8.8445  -13.8878   19.5779 C   0  0  0  0  0  0  0  0  0  0  0  0
    9.2915  -13.8338   20.9785 C   0  0  0  0  0  0  0  0  0  0  0  0
    8.9861  -15.0834   21.7473 C   0  0  2  0  0  0  0  0  0  0  0  0
    7.7237  -15.6723   21.4242 N   0  0  0  0  0  0  0  0  0  0  0  0
    9.1593  -14.8303   23.1949 C   0  0  0  0  0  0  0  0  0  0  0  0
   10.2545  -14.3444   23.5763 O   0  0  0  0  0  0  0  0  0  0  0  0
    7.8213  -13.0829   19.1193 C   0  0  0  0  0  0  0  0  0  0  0  0
    7.4505  -13.1825   17.7950 C   0  0  0  0  0  0  0  0  0  0  0  0
    7.8164  -11.9282   26.5832 C   0  0  0  0  0  0  0  0  0  0  0  0
    6.7533  -12.8490   25.9609 C   0  0  2  0  0  0  0  0  0  0  0  0
    5.4559  -12.4799   26.6843 C   0  0  0  0  0  0  0  0  0  0  0  0
    7.1819  -14.2409   26.2500 C   0  0  0  0  0  0  0  0  0  0  0  0
    8.3815  -14.7216   25.5166 C   0  0  2  0  0  0  0  0  0  0  0  0
    8.1731  -15.1011   24.1640 N   0  0  0  0  0  0  0  0  0  0  0  0
    8.8879  -15.9359   26.2584 C   0  0  0  0  0  0  0  0  0  0  0  0
    9.1280  -15.8565   27.4920 O   0  0  0  0  0  0  0  0  0  0  0  0
    9.0883  -17.1521   25.5622 N   0  0  0  0  0  0  0  0  0  0  0  0
    9.7849  -18.2928   26.1853 C   0  0  1  0  0  0  0  0  0  0  0  0
   10.8161  -18.7238   25.2008 C   0  0  0  0  0  0  0  0  0  0  0  0
   10.6265  -20.1625   24.8279 C   0  0  0  0  0  0  0  0  0  0  0  0
   11.6828  -20.5867   23.8528 C   0  0  0  0  0  0  0  0  0  0  0  0
   11.4780  -22.0098   23.4237 C   0  0  0  0  0  0  0  0  0  0  0  0
   12.5910  -22.3677   22.5560 N   0  0  0  0  0  0  0  0  0  0  0  0
   10.2586  -17.8638   27.5012 C   0  0  0  0  0  0  0  0  0  0  0  0
    9.6752  -18.3446   28.6537 O   0  0  0  0  0  0  0  0  0  0  0  0
   11.1989  -17.0572   27.6215 O   0  0  0  0  0  0  0  0  0  0  0  0
  2  1  1  0
  3  2  2  0
  4  3  1  0
  5 11  1  0
  5  4  2  0
  6  5  1  0
  7  6  1  0
  7  8  1  1
  9  7  1  0
  9 10  2  0
 11 12  2  0
 12  2  1  0
 14 16  1  0
 14 13  1  1
 15 14  1  0
 17 16  1  1
 17 18  1  0
 18  9  1  0
 19 17  1  0
 20 19  2  0
 21 19  1  0
 22 21  1  0
 22 28  1  0
 22 23  1  6
 24 23  1  0
 25 24  1  0
 26 27  1  0
 26 25  1  0
 28 30  2  0
 28 29  1  0
M  END
$$$$
