YLK.pdb
     RDKit          3D

 30 30  0  0  1  0  0  0  0  0999 V2000
    7.5263  -18.7330   16.2283 O   0  0  0  0  0  0  0  0  0  0  0  0
    7.8009  -18.3091   17.5303 C   0  0  0  0  0  0  0  0  0  0  0  0
    6.8730  -17.6301   18.2866 C   0  0  0  0  0  0  0  0  0  0  0  0
    7.1870  -17.2308   19.5669 C   0  0  0  0  0  0  0  0  0  0  0  0
    8.4282  -17.5043   20.1049 C   0  0  0  0  0  0  0  0  0  0  0  0
    8.7158  -17.0571   21.4767 C   0  0  0  0  0  0  0  0  0  0  0  0
    8.8774  -15.5719   21.5948 C   0  0  2  0  0  0  0  0  0  0  0  0
    9.8902  -15.0267   20.7453 N   0  0  0  0  0  0  0  0  0  0  0  0
    9.0474  -15.2028   23.0176 C   0  0  0  0  0  0  0  0  0  0  0  0
   10.2190  -15.1463   23.4708 O   0  0  0  0  0  0  0  0  0  0  0  0
    9.3699  -18.1844   19.3592 C   0  0  0  0  0  0  0  0  0  0  0  0
    9.0367  -18.5757   18.0798 C   0  0  0  0  0  0  0  0  0  0  0  0
    7.6755  -11.7827   26.1229 C   0  0  0  0  0  0  0  0  0  0  0  0
    6.6005  -12.7799   25.6587 C   0  0  2  0  0  0  0  0  0  0  0  0
    5.3417  -12.3716   26.4278 C   0  0  0  0  0  0  0  0  0  0  0  0
    7.0837  -14.1292   26.0466 C   0  0  0  0  0  0  0  0  0  0  0  0
    8.2277  -14.6644   25.2638 C   0  0  2  0  0  0  0  0  0  0  0  0
    7.9780  -14.9129   23.8880 N   0  0  0  0  0  0  0  0  0  0  0  0
    8.6155  -15.9775   25.9016 C   0  0  0  0  0  0  0  0  0  0  0  0
    7.8502  -16.9717   25.7943 O   0  0  0  0  0  0  0  0  0  0  0  0
    9.8345  -16.0802   26.6139 N   0  0  0  0  0  0  0  0  0  0  0  0
   10.2907  -17.3619   27.1829 C   0  0  1  0  0  0  0  0  0  0  0  0
   11.4087  -17.8168   26.3103 C   0  0  0  0  0  0  0  0  0  0  0  0
   11.9756  -19.1125   26.8047 C   0  0  0  0  0  0  0  0  0  0  0  0
   13.0876  -19.5655   25.9076 C   0  0  0  0  0  0  0  0  0  0  0  0
   13.6682  -20.8641   26.3847 C   0  0  0  0  0  0  0  0  0  0  0  0
   14.7357  -21.2285   25.4641 N   0  0  0  0  0  0  0  0  0  0  0  0
   10.5966  -17.1409   28.5963 C   0  0  0  0  0  0  0  0  0  0  0  0
   10.8546  -18.2015   29.4378 O   0  0  0  0  0  0  0  0  0  0  0  0
   10.6350  -15.9950   29.0808 O   0  0  0  0  0  0  0  0  0  0  0  0
  2  1  1  0
  3  2  2  0
  4  3  1  0
  5 11  1  0
  5  4  2  0
  6  5  1  0
  7  6  1  0
  7  8  1  6
  9  7  1  0
  9 10  2  0
 11 12  2  0
 12  2  1  0
 14 16  1  0
 14 13  1  1
 15 14  1  0
 17 16  1  1
 17 18  1  0
 18  9  1  0
 19 17  1  0
 20 19  2  0
 21 19  1  0
 22 21  1  0
 22 28  1  0
 22 23  1  6
 24 23  1  0
 25 24  1  0
 26 27  1  0
 26 25  1  0
 28 30  2  0
 28 29  1  0
M  END
$$$$
