YLK.pdb
     RDKit          3D

 30 30  0  0  1  0  0  0  0  0999 V2000
   10.9394  -14.5096   30.5990 O   0  0  0  0  0  0  0  0  0  0  0  0
   10.3086  -14.6780   29.3643 C   0  0  0  0  0  0  0  0  0  0  0  0
    9.9897  -13.6098   28.5573 C   0  0  0  0  0  0  0  0  0  0  0  0
    9.3675  -13.8225   27.3470 C   0  0  0  0  0  0  0  0  0  0  0  0
    9.0577  -15.1012   26.9300 C   0  0  0  0  0  0  0  0  0  0  0  0
    8.3933  -15.2768   25.6291 C   0  0  0  0  0  0  0  0  0  0  0  0
    9.1586  -16.1545   24.6859 C   0  0  2  0  0  0  0  0  0  0  0  0
   10.5497  -15.8364   24.5929 N   0  0  0  0  0  0  0  0  0  0  0  0
    8.4773  -16.1846   23.3727 C   0  0  0  0  0  0  0  0  0  0  0  0
    7.2549  -16.4792   23.3551 O   0  0  0  0  0  0  0  0  0  0  0  0
    9.3710  -16.1830   27.7280 C   0  0  0  0  0  0  0  0  0  0  0  0
    9.9936  -15.9497   28.9359 C   0  0  0  0  0  0  0  0  0  0  0  0
    6.9357  -13.2621   21.4735 C   0  0  0  0  0  0  0  0  0  0  0  0
    8.3659  -13.3919   20.9231 C   0  0  2  0  0  0  0  0  0  0  0  0
    8.5474  -12.1595   20.0337 C   0  0  0  0  0  0  0  0  0  0  0  0
    8.4037  -14.6566   20.1460 C   0  0  0  0  0  0  0  0  0  0  0  0
    8.3719  -15.9127   20.9392 C   0  0  2  0  0  0  0  0  0  0  0  0
    9.1161  -15.9038   22.1487 N   0  0  0  0  0  0  0  0  0  0  0  0
    8.9449  -16.9982   20.0589 C   0  0  0  0  0  0  0  0  0  0  0  0
    8.6050  -17.0619   18.8481 O   0  0  0  0  0  0  0  0  0  0  0  0
    9.8582  -17.9341   20.6010 N   0  0  0  0  0  0  0  0  0  0  0  0
   10.7457  -18.7358   19.7383 C   0  0  1  0  0  0  0  0  0  0  0  0
   11.5182  -17.7532   18.9284 C   0  0  0  0  0  0  0  0  0  0  0  0
   12.4151  -18.4550   17.9547 C   0  0  0  0  0  0  0  0  0  0  0  0
   13.1920  -17.4540   17.1542 C   0  0  0  0  0  0  0  0  0  0  0  0
   13.9358  -18.1214   16.0350 C   0  0  0  0  0  0  0  0  0  0  0  0
   14.5876  -17.0751   15.2602 N   0  0  0  0  0  0  0  0  0  0  0  0
   11.5111  -19.6381   20.5985 C   0  0  0  0  0  0  0  0  0  0  0  0
   11.4106  -19.5607   21.9710 O   0  0  0  0  0  0  0  0  0  0  0  0
   12.2714  -20.5004   20.1216 O   0  0  0  0  0  0  0  0  0  0  0  0
  2  1  1  0
  3  2  2  0
  4  3  1  0
  5 11  1  0
  5  4  2  0
  6  5  1  0
  7  6  1  0
  7  8  1  6
  9  7  1  0
  9 10  2  0
 11 12  2  0
 12  2  1  0
 14 16  1  0
 14 13  1  6
 15 14  1  0
 17 16  1  6
 17 18  1  0
 18  9  1  0
 19 17  1  0
 20 19  2  0
 21 19  1  0
 22 21  1  0
 22 28  1  0
 22 23  1  1
 24 23  1  0
 25 24  1  0
 26 27  1  0
 26 25  1  0
 28 30  2  0
 28 29  1  0
M  END
$$$$
