YLK.pdb
     RDKit          3D

 30 30  0  0  1  0  0  0  0  0999 V2000
    5.3194  -10.1695   27.9645 O   0  0  0  0  0  0  0  0  0  0  0  0
    5.9607  -11.3340   27.5366 C   0  0  0  0  0  0  0  0  0  0  0  0
    7.2114  -11.6859   27.9905 C   0  0  0  0  0  0  0  0  0  0  0  0
    7.8065  -12.8441   27.5414 C   0  0  0  0  0  0  0  0  0  0  0  0
    7.1608  -13.6618   26.6362 C   0  0  0  0  0  0  0  0  0  0  0  0
    7.8378  -14.8883   26.1866 C   0  0  0  0  0  0  0  0  0  0  0  0
    7.0167  -15.7042   25.2348 C   0  0  2  0  0  0  0  0  0  0  0  0
    6.4152  -16.8589   25.8261 N   0  0  0  0  0  0  0  0  0  0  0  0
    7.8169  -16.0149   24.0295 C   0  0  0  0  0  0  0  0  0  0  0  0
    8.2369  -17.1924   23.8944 O   0  0  0  0  0  0  0  0  0  0  0  0
    5.9061  -13.3228   26.1714 C   0  0  0  0  0  0  0  0  0  0  0  0
    5.3271  -12.1597   26.6328 C   0  0  0  0  0  0  0  0  0  0  0  0
    7.0975  -14.6214   19.4220 C   0  0  0  0  0  0  0  0  0  0  0  0
    7.8269  -13.7093   20.4226 C   0  0  2  0  0  0  0  0  0  0  0  0
    8.1441  -12.4420   19.6250 C   0  0  0  0  0  0  0  0  0  0  0  0
    9.0543  -14.4357   20.8357 C   0  0  0  0  0  0  0  0  0  0  0  0
    8.8796  -15.4684   21.8896 C   0  0  2  0  0  0  0  0  0  0  0  0
    8.1330  -15.0725   23.0309 N   0  0  0  0  0  0  0  0  0  0  0  0
   10.2636  -15.8496   22.3594 C   0  0  0  0  0  0  0  0  0  0  0  0
   10.8755  -15.1006   23.1659 O   0  0  0  0  0  0  0  0  0  0  0  0
   10.8612  -17.0440   21.8902 N   0  0  0  0  0  0  0  0  0  0  0  0
   12.1935  -17.4744   22.3533 C   0  0  1  0  0  0  0  0  0  0  0  0
   12.0262  -18.8801   22.8162 C   0  0  0  0  0  0  0  0  0  0  0  0
   11.8147  -18.9301   24.2987 C   0  0  0  0  0  0  0  0  0  0  0  0
   11.5429  -20.3382   24.7344 C   0  0  0  0  0  0  0  0  0  0  0  0
   11.3581  -20.4147   26.2214 C   0  0  0  0  0  0  0  0  0  0  0  0
   11.1311  -21.8121   26.5610 N   0  0  0  0  0  0  0  0  0  0  0  0
   13.1431  -17.2400   21.2656 C   0  0  0  0  0  0  0  0  0  0  0  0
   14.4988  -17.1908   21.5093 O   0  0  0  0  0  0  0  0  0  0  0  0
   12.7598  -17.0802   20.0922 O   0  0  0  0  0  0  0  0  0  0  0  0
  2  1  1  0
  3  2  2  0
  4  3  1  0
  5 11  1  0
  5  4  2  0
  6  5  1  0
  7  6  1  0
  7  8  1  1
  9  7  1  0
  9 10  2  0
 11 12  2  0
 12  2  1  0
 14 16  1  0
 14 13  1  6
 15 14  1  0
 17 16  1  6
 17 18  1  0
 18  9  1  0
 19 17  1  0
 20 19  2  0
 21 19  1  0
 22 21  1  0
 22 28  1  0
 22 23  1  6
 24 23  1  0
 25 24  1  0
 26 27  1  0
 26 25  1  0
 28 30  2  0
 28 29  1  0
M  END
$$$$
