YLK.pdb
     RDKit          3D

 30 30  0  0  1  0  0  0  0  0999 V2000
    7.4356  -14.9958   15.3473 O   0  0  0  0  0  0  0  0  0  0  0  0
    7.8865  -14.7421   16.6446 C   0  0  0  0  0  0  0  0  0  0  0  0
    7.9471  -13.4668   17.1585 C   0  0  0  0  0  0  0  0  0  0  0  0
    8.3985  -13.2629   18.4438 C   0  0  0  0  0  0  0  0  0  0  0  0
    8.7934  -14.3276   19.2282 C   0  0  0  0  0  0  0  0  0  0  0  0
    9.2680  -14.0586   20.5946 C   0  0  0  0  0  0  0  0  0  0  0  0
    9.0451  -15.2029   21.5361 C   0  0  2  0  0  0  0  0  0  0  0  0
    7.9009  -16.0012   21.2222 N   0  0  0  0  0  0  0  0  0  0  0  0
    9.0462  -14.7063   22.9299 C   0  0  0  0  0  0  0  0  0  0  0  0
   10.1033  -14.1799   23.3620 O   0  0  0  0  0  0  0  0  0  0  0  0
    8.7386  -15.6127   18.7273 C   0  0  0  0  0  0  0  0  0  0  0  0
    8.2839  -15.7964   17.4387 C   0  0  0  0  0  0  0  0  0  0  0  0
    5.4425  -12.4321   27.2617 C   0  0  0  0  0  0  0  0  0  0  0  0
    6.8387  -13.0042   26.9640 C   0  0  2  0  0  0  0  0  0  0  0  0
    7.7804  -11.8048   27.0967 C   0  0  0  0  0  0  0  0  0  0  0  0
    6.7900  -13.5300   25.5762 C   0  0  0  0  0  0  0  0  0  0  0  0
    8.0095  -14.2325   25.0998 C   0  0  2  0  0  0  0  0  0  0  0  0
    7.9373  -14.7891   23.7952 N   0  0  0  0  0  0  0  0  0  0  0  0
    8.2649  -15.3654   26.0656 C   0  0  0  0  0  0  0  0  0  0  0  0
    8.3097  -15.1311   27.3021 O   0  0  0  0  0  0  0  0  0  0  0  0
    8.4516  -16.6797   25.5742 N   0  0  0  0  0  0  0  0  0  0  0  0
    8.8120  -17.7949   26.4692 C   0  0  1  0  0  0  0  0  0  0  0  0
    8.4107  -19.0362   25.7507 C   0  0  0  0  0  0  0  0  0  0  0  0
    8.8126  -20.2533   26.5267 C   0  0  0  0  0  0  0  0  0  0  0  0
    8.5560  -21.4891   25.7184 C   0  0  0  0  0  0  0  0  0  0  0  0
    8.9312  -22.7218   26.4872 C   0  0  0  0  0  0  0  0  0  0  0  0
    8.0370  -22.8099   27.6328 N   0  0  0  0  0  0  0  0  0  0  0  0
   10.2264  -17.6530   26.8145 C   0  0  0  0  0  0  0  0  0  0  0  0
   10.6729  -17.9222   28.0904 O   0  0  0  0  0  0  0  0  0  0  0  0
   11.0670  -17.2885   25.9721 O   0  0  0  0  0  0  0  0  0  0  0  0
  2  1  1  0
  3  2  2  0
  4  3  1  0
  5 11  1  0
  5  4  2  0
  6  5  1  0
  7  6  1  0
  7  8  1  6
  9  7  1  0
  9 10  2  0
 11 12  2  0
 12  2  1  0
 14 16  1  0
 14 13  1  6
 15 14  1  0
 17 16  1  1
 17 18  1  0
 18  9  1  0
 19 17  1  0
 20 19  2  0
 21 19  1  0
 22 21  1  0
 22 28  1  0
 22 23  1  6
 24 23  1  0
 25 24  1  0
 26 27  1  0
 26 25  1  0
 28 30  2  0
 28 29  1  0
M  END
$$$$
