YLK.pdb
     RDKit          3D

 30 30  0  0  1  0  0  0  0  0999 V2000
   10.7030  -14.8222   31.3395 O   0  0  0  0  0  0  0  0  0  0  0  0
   10.4164  -14.9327   29.9770 C   0  0  0  0  0  0  0  0  0  0  0  0
    9.8799  -13.8889   29.2583 C   0  0  0  0  0  0  0  0  0  0  0  0
    9.6131  -14.0423   27.9157 C   0  0  0  0  0  0  0  0  0  0  0  0
    9.8784  -15.2369   27.2775 C   0  0  0  0  0  0  0  0  0  0  0  0
    9.5760  -15.3516   25.8422 C   0  0  0  0  0  0  0  0  0  0  0  0
    8.1827  -15.8292   25.5659 C   0  0  2  0  0  0  0  0  0  0  0  0
    7.8681  -17.0877   26.1675 N   0  0  0  0  0  0  0  0  0  0  0  0
    7.9273  -15.7982   24.1087 C   0  0  0  0  0  0  0  0  0  0  0  0
    7.2319  -16.7236   23.6175 O   0  0  0  0  0  0  0  0  0  0  0  0
   10.4164  -16.2934   27.9844 C   0  0  0  0  0  0  0  0  0  0  0  0
   10.6765  -16.1203   29.3274 C   0  0  0  0  0  0  0  0  0  0  0  0
    8.1990  -12.1162   19.1726 C   0  0  0  0  0  0  0  0  0  0  0  0
    7.8993  -13.5289   19.7015 C   0  0  2  0  0  0  0  0  0  0  0  0
    6.3954  -13.7094   19.4810 C   0  0  0  0  0  0  0  0  0  0  0  0
    8.2598  -13.5233   21.1419 C   0  0  0  0  0  0  0  0  0  0  0  0
    8.0483  -14.7989   21.8740 C   0  0  2  0  0  0  0  0  0  0  0  0
    8.4158  -14.7973   23.2458 N   0  0  0  0  0  0  0  0  0  0  0  0
    8.8873  -15.8446   21.1782 C   0  0  0  0  0  0  0  0  0  0  0  0
    8.4628  -16.3809   20.1209 O   0  0  0  0  0  0  0  0  0  0  0  0
   10.1425  -16.2131   21.7192 N   0  0  0  0  0  0  0  0  0  0  0  0
   11.0118  -17.1994   21.0512 C   0  0  1  0  0  0  0  0  0  0  0  0
   11.2461  -16.6687   19.6794 C   0  0  0  0  0  0  0  0  0  0  0  0
   12.1368  -17.5867   18.8992 C   0  0  0  0  0  0  0  0  0  0  0  0
   12.3126  -17.0720   17.5025 C   0  0  0  0  0  0  0  0  0  0  0  0
   13.2078  -17.9746   16.7057 C   0  0  0  0  0  0  0  0  0  0  0  0
   13.2466  -17.4588   15.3447 N   0  0  0  0  0  0  0  0  0  0  0  0
   12.1883  -17.4043   21.8960 C   0  0  0  0  0  0  0  0  0  0  0  0
   12.4086  -16.6152   23.0044 O   0  0  0  0  0  0  0  0  0  0  0  0
   13.0219  -18.2934   21.6436 O   0  0  0  0  0  0  0  0  0  0  0  0
  2  1  1  0
  3  2  2  0
  4  3  1  0
  5 11  1  0
  5  4  2  0
  6  5  1  0
  7  6  1  0
  7  8  1  6
  9  7  1  0
  9 10  2  0
 11 12  2  0
 12  2  1  0
 14 16  1  0
 14 13  1  1
 15 14  1  0
 17 16  1  6
 17 18  1  0
 18  9  1  0
 19 17  1  0
 20 19  2  0
 21 19  1  0
 22 21  1  0
 22 28  1  0
 22 23  1  6
 24 23  1  0
 25 24  1  0
 26 27  1  0
 26 25  1  0
 28 30  2  0
 28 29  1  0
M  END
$$$$
