YLK.pdb
     RDKit          3D

 30 30  0  0  1  0  0  0  0  0999 V2000
   13.0020  -17.2836   31.8084 O   0  0  0  0  0  0  0  0  0  0  0  0
   12.3066  -17.1306   30.6070 C   0  0  0  0  0  0  0  0  0  0  0  0
   12.3084  -18.1048   29.6348 C   0  0  0  0  0  0  0  0  0  0  0  0
   11.6082  -17.9114   28.4645 C   0  0  0  0  0  0  0  0  0  0  0  0
   10.9001  -16.7458   28.2525 C   0  0  0  0  0  0  0  0  0  0  0  0
   10.1680  -16.5863   26.9863 C   0  0  0  0  0  0  0  0  0  0  0  0
    8.7214  -16.9647   27.0858 C   0  0  2  0  0  0  0  0  0  0  0  0
    8.4961  -18.3670   27.2518 N   0  0  0  0  0  0  0  0  0  0  0  0
    7.9771  -16.3843   25.9463 C   0  0  0  0  0  0  0  0  0  0  0  0
    7.1474  -17.1207   25.3542 O   0  0  0  0  0  0  0  0  0  0  0  0
   10.8884  -15.7592   29.2178 C   0  0  0  0  0  0  0  0  0  0  0  0
   11.5953  -15.9714   30.3824 C   0  0  0  0  0  0  0  0  0  0  0  0
    5.6363  -12.6506   26.7848 C   0  0  0  0  0  0  0  0  0  0  0  0
    7.0407  -12.4904   26.1787 C   0  0  2  0  0  0  0  0  0  0  0  0
    7.3034  -10.9829   26.2141 C   0  0  0  0  0  0  0  0  0  0  0  0
    6.9619  -13.0151   24.7919 C   0  0  0  0  0  0  0  0  0  0  0  0
    7.1742  -14.4771   24.6328 C   0  0  2  0  0  0  0  0  0  0  0  0
    8.1441  -15.0619   25.4896 N   0  0  0  0  0  0  0  0  0  0  0  0
    7.6297  -14.6987   23.2098 C   0  0  0  0  0  0  0  0  0  0  0  0
    6.8624  -14.4000   22.2569 O   0  0  0  0  0  0  0  0  0  0  0  0
    8.9135  -15.2394   22.9586 N   0  0  0  0  0  0  0  0  0  0  0  0
    9.3961  -15.4773   21.5856 C   0  0  1  0  0  0  0  0  0  0  0  0
    9.2937  -14.1655   20.8878 C   0  0  0  0  0  0  0  0  0  0  0  0
    8.0032  -14.0641   20.1331 C   0  0  0  0  0  0  0  0  0  0  0  0
    8.2610  -13.6115   18.7277 C   0  0  0  0  0  0  0  0  0  0  0  0
    6.9825  -13.5269   17.9471 C   0  0  0  0  0  0  0  0  0  0  0  0
    7.3136  -13.0227   16.6220 N   0  0  0  0  0  0  0  0  0  0  0  0
   10.7253  -16.0814   21.6763 C   0  0  0  0  0  0  0  0  0  0  0  0
   11.3707  -16.5422   20.5490 O   0  0  0  0  0  0  0  0  0  0  0  0
   11.3131  -16.1963   22.7674 O   0  0  0  0  0  0  0  0  0  0  0  0
  2  1  1  0
  3  2  2  0
  4  3  1  0
  5 11  1  0
  5  4  2  0
  6  5  1  0
  7  6  1  0
  7  8  1  6
  9  7  1  0
  9 10  2  0
 11 12  2  0
 12  2  1  0
 14 16  1  0
 14 13  1  6
 15 14  1  0
 17 16  1  1
 17 18  1  0
 18  9  1  0
 19 17  1  0
 20 19  2  0
 21 19  1  0
 22 21  1  0
 22 28  1  0
 22 23  1  6
 24 23  1  0
 25 24  1  0
 26 27  1  0
 26 25  1  0
 28 30  2  0
 28 29  1  0
M  END
$$$$
