YLK.pdb
     RDKit          3D

 30 30  0  0  1  0  0  0  0  0999 V2000
   10.8327  -14.6066   30.4494 O   0  0  0  0  0  0  0  0  0  0  0  0
   10.1585  -14.7795   29.2386 C   0  0  0  0  0  0  0  0  0  0  0  0
    9.8992  -16.0280   28.7208 C   0  0  0  0  0  0  0  0  0  0  0  0
    9.2309  -16.1516   27.5227 C   0  0  0  0  0  0  0  0  0  0  0  0
    8.8151  -15.0325   26.8301 C   0  0  0  0  0  0  0  0  0  0  0  0
    8.1049  -15.2165   25.5548 C   0  0  0  0  0  0  0  0  0  0  0  0
    8.6972  -16.2922   24.6958 C   0  0  2  0  0  0  0  0  0  0  0  0
   10.1246  -16.3599   24.7484 N   0  0  0  0  0  0  0  0  0  0  0  0
    8.1683  -16.1752   23.3188 C   0  0  0  0  0  0  0  0  0  0  0  0
    6.9200  -16.1949   23.1686 O   0  0  0  0  0  0  0  0  0  0  0  0
    9.0675  -13.7734   27.3361 C   0  0  0  0  0  0  0  0  0  0  0  0
    9.7377  -13.6703   28.5367 C   0  0  0  0  0  0  0  0  0  0  0  0
    6.8122  -13.4080   21.2970 C   0  0  0  0  0  0  0  0  0  0  0  0
    8.3143  -13.4705   20.9723 C   0  0  2  0  0  0  0  0  0  0  0  0
    8.5864  -12.1947   20.1715 C   0  0  0  0  0  0  0  0  0  0  0  0
    8.5180  -14.6976   20.1615 C   0  0  0  0  0  0  0  0  0  0  0  0
    8.3852  -15.9888   20.8846 C   0  0  2  0  0  0  0  0  0  0  0  0
    8.9786  -16.0439   22.1737 N   0  0  0  0  0  0  0  0  0  0  0  0
    9.0547  -17.0381   20.0289 C   0  0  0  0  0  0  0  0  0  0  0  0
    9.1727  -16.8482   18.7896 O   0  0  0  0  0  0  0  0  0  0  0  0
    9.5436  -18.2249   20.6257 N   0  0  0  0  0  0  0  0  0  0  0  0
   10.6449  -18.9965   20.0205 C   0  0  1  0  0  0  0  0  0  0  0  0
   11.7235  -18.0089   19.7385 C   0  0  0  0  0  0  0  0  0  0  0  0
   12.9026  -18.6773   19.0997 C   0  0  0  0  0  0  0  0  0  0  0  0
   13.9682  -17.6671   18.7984 C   0  0  0  0  0  0  0  0  0  0  0  0
   15.1766  -18.3232   18.1980 C   0  0  0  0  0  0  0  0  0  0  0  0
   16.0860  -17.2648   17.7828 N   0  0  0  0  0  0  0  0  0  0  0  0
   10.9707  -20.0980   20.9263 C   0  0  0  0  0  0  0  0  0  0  0  0
   11.8856  -21.0635   20.5648 O   0  0  0  0  0  0  0  0  0  0  0  0
   10.4368  -20.1971   22.0463 O   0  0  0  0  0  0  0  0  0  0  0  0
  2  1  1  0
  3  2  2  0
  4  3  1  0
  5 11  1  0
  5  4  2  0
  6  5  1  0
  7  6  1  0
  7  8  1  6
  9  7  1  0
  9 10  2  0
 11 12  2  0
 12  2  1  0
 14 16  1  0
 14 13  1  6
 15 14  1  0
 17 16  1  6
 17 18  1  0
 18  9  1  0
 19 17  1  0
 20 19  2  0
 21 19  1  0
 22 21  1  0
 22 28  1  0
 22 23  1  1
 24 23  1  0
 25 24  1  0
 26 27  1  0
 26 25  1  0
 28 30  2  0
 28 29  1  0
M  END
$$$$
