YLK.pdb
     RDKit          3D

 30 30  0  0  1  0  0  0  0  0999 V2000
    5.9228  -10.6673   28.3380 O   0  0  0  0  0  0  0  0  0  0  0  0
    6.5350  -11.6401   27.5445 C   0  0  0  0  0  0  0  0  0  0  0  0
    7.5886  -12.3974   28.0033 C   0  0  0  0  0  0  0  0  0  0  0  0
    8.1622  -13.3462   27.1859 C   0  0  0  0  0  0  0  0  0  0  0  0
    7.6912  -13.5487   25.9045 C   0  0  0  0  0  0  0  0  0  0  0  0
    8.3371  -14.5739   25.0700 C   0  0  0  0  0  0  0  0  0  0  0  0
    7.3629  -15.5021   24.4104 C   0  0  2  0  0  0  0  0  0  0  0  0
    6.8569  -16.5245   25.2728 N   0  0  0  0  0  0  0  0  0  0  0  0
    7.9502  -16.0309   23.1595 C   0  0  0  0  0  0  0  0  0  0  0  0
    7.9266  -17.2758   22.9833 O   0  0  0  0  0  0  0  0  0  0  0  0
    6.6353  -12.7972   25.4296 C   0  0  0  0  0  0  0  0  0  0  0  0
    6.0744  -11.8526   26.2628 C   0  0  0  0  0  0  0  0  0  0  0  0
    6.7094  -13.7050   19.5465 C   0  0  0  0  0  0  0  0  0  0  0  0
    8.1722  -13.5162   19.9824 C   0  0  2  0  0  0  0  0  0  0  0  0
    8.7058  -12.4130   19.0652 C   0  0  0  0  0  0  0  0  0  0  0  0
    8.8505  -14.8166   19.7514 C   0  0  0  0  0  0  0  0  0  0  0  0
    8.8315  -15.7749   20.8868 C   0  0  2  0  0  0  0  0  0  0  0  0
    8.5308  -15.2242   22.1609 N   0  0  0  0  0  0  0  0  0  0  0  0
   10.2120  -16.3827   20.9668 C   0  0  0  0  0  0  0  0  0  0  0  0
   10.6901  -16.9757   19.9641 O   0  0  0  0  0  0  0  0  0  0  0  0
   10.9564  -16.2812   22.1666 N   0  0  0  0  0  0  0  0  0  0  0  0
   12.2927  -16.8905   22.3000 C   0  0  1  0  0  0  0  0  0  0  0  0
   13.2619  -15.8296   21.9083 C   0  0  0  0  0  0  0  0  0  0  0  0
   13.5946  -15.9254   20.4506 C   0  0  0  0  0  0  0  0  0  0  0  0
   14.6590  -14.9311   20.0973 C   0  0  0  0  0  0  0  0  0  0  0  0
   14.9023  -14.9070   18.6170 C   0  0  0  0  0  0  0  0  0  0  0  0
   15.9339  -13.9120   18.3611 N   0  0  0  0  0  0  0  0  0  0  0  0
   12.4062  -17.4287   23.6555 C   0  0  0  0  0  0  0  0  0  0  0  0
   13.5409  -18.1008   24.0564 O   0  0  0  0  0  0  0  0  0  0  0  0
   11.4884  -17.2962   24.4857 O   0  0  0  0  0  0  0  0  0  0  0  0
  2  1  1  0
  3  2  2  0
  4  3  1  0
  5 11  1  0
  5  4  2  0
  6  5  1  0
  7  6  1  0
  7  8  1  1
  9  7  1  0
  9 10  2  0
 11 12  2  0
 12  2  1  0
 14 16  1  0
 14 13  1  6
 15 14  1  0
 17 16  1  6
 17 18  1  0
 18  9  1  0
 19 17  1  0
 20 19  2  0
 21 19  1  0
 22 21  1  0
 22 28  1  0
 22 23  1  1
 24 23  1  0
 25 24  1  0
 26 27  1  0
 26 25  1  0
 28 30  2  0
 28 29  1  0
M  END
$$$$
