YLK.pdb
     RDKit          3D

 30 30  0  0  1  0  0  0  0  0999 V2000
    5.8416  -11.5614   29.3090 O   0  0  0  0  0  0  0  0  0  0  0  0
    6.4474  -12.3223   28.3067 C   0  0  0  0  0  0  0  0  0  0  0  0
    7.6095  -13.0256   28.5277 C   0  0  0  0  0  0  0  0  0  0  0  0
    8.1724  -13.7632   27.5097 C   0  0  0  0  0  0  0  0  0  0  0  0
    7.5825  -13.8065   26.2627 C   0  0  0  0  0  0  0  0  0  0  0  0
    8.2220  -14.6086   25.2080 C   0  0  0  0  0  0  0  0  0  0  0  0
    7.2714  -15.5283   24.5035 C   0  0  2  0  0  0  0  0  0  0  0  0
    6.7660  -16.5843   25.3248 N   0  0  0  0  0  0  0  0  0  0  0  0
    7.8858  -16.0092   23.2463 C   0  0  0  0  0  0  0  0  0  0  0  0
    7.8022  -17.2369   22.9871 O   0  0  0  0  0  0  0  0  0  0  0  0
    6.4168  -13.1066   26.0250 C   0  0  0  0  0  0  0  0  0  0  0  0
    5.8687  -12.3742   27.0567 C   0  0  0  0  0  0  0  0  0  0  0  0
    6.2520  -13.9740   19.8676 C   0  0  0  0  0  0  0  0  0  0  0  0
    7.6557  -13.4758   20.2505 C   0  0  2  0  0  0  0  0  0  0  0  0
    7.8842  -12.2523   19.3596 C   0  0  0  0  0  0  0  0  0  0  0  0
    8.5943  -14.5829   19.9370 C   0  0  0  0  0  0  0  0  0  0  0  0
    8.7683  -15.6121   20.9945 C   0  0  2  0  0  0  0  0  0  0  0  0
    8.5551  -15.1752   22.3289 N   0  0  0  0  0  0  0  0  0  0  0  0
   10.1943  -16.1003   20.8965 C   0  0  0  0  0  0  0  0  0  0  0  0
   10.5955  -16.6406   19.8322 O   0  0  0  0  0  0  0  0  0  0  0  0
   11.0673  -15.9471   22.0002 N   0  0  0  0  0  0  0  0  0  0  0  0
   12.4395  -16.4868   21.9802 C   0  0  1  0  0  0  0  0  0  0  0  0
   13.3286  -15.3217   21.7151 C   0  0  0  0  0  0  0  0  0  0  0  0
   13.2093  -14.8754   20.2898 C   0  0  0  0  0  0  0  0  0  0  0  0
   14.5449  -14.4318   19.7741 C   0  0  0  0  0  0  0  0  0  0  0  0
   14.4615  -14.0474   18.3262 C   0  0  0  0  0  0  0  0  0  0  0  0
   15.7741  -13.5587   17.9287 N   0  0  0  0  0  0  0  0  0  0  0  0
   12.6522  -17.2161   23.2303 C   0  0  0  0  0  0  0  0  0  0  0  0
   13.8176  -17.9188   23.4491 O   0  0  0  0  0  0  0  0  0  0  0  0
   11.7938  -17.2239   24.1316 O   0  0  0  0  0  0  0  0  0  0  0  0
  2  1  1  0
  3  2  2  0
  4  3  1  0
  5 11  1  0
  5  4  2  0
  6  5  1  0
  7  6  1  0
  7  8  1  1
  9  7  1  0
  9 10  2  0
 11 12  2  0
 12  2  1  0
 14 16  1  0
 14 13  1  6
 15 14  1  0
 17 16  1  6
 17 18  1  0
 18  9  1  0
 19 17  1  0
 20 19  2  0
 21 19  1  0
 22 21  1  0
 22 28  1  0
 22 23  1  1
 24 23  1  0
 25 24  1  0
 26 27  1  0
 26 25  1  0
 28 30  2  0
 28 29  1  0
M  END
$$$$
