YLK.pdb
     RDKit          3D

 30 30  0  0  1  0  0  0  0  0999 V2000
   10.2540  -14.5271   30.5655 O   0  0  0  0  0  0  0  0  0  0  0  0
   10.0633  -14.8332   29.2162 C   0  0  0  0  0  0  0  0  0  0  0  0
   10.3478  -16.0785   28.7043 C   0  0  0  0  0  0  0  0  0  0  0  0
   10.1442  -16.3363   27.3666 C   0  0  0  0  0  0  0  0  0  0  0  0
    9.6554  -15.3557   26.5273 C   0  0  0  0  0  0  0  0  0  0  0  0
    9.4549  -15.6799   25.1063 C   0  0  0  0  0  0  0  0  0  0  0  0
    8.0214  -15.9368   24.7530 C   0  0  2  0  0  0  0  0  0  0  0  0
    7.3867  -16.9216   25.5729 N   0  0  0  0  0  0  0  0  0  0  0  0
    7.9106  -16.2225   23.3054 C   0  0  0  0  0  0  0  0  0  0  0  0
    7.6503  -17.4036   22.9610 O   0  0  0  0  0  0  0  0  0  0  0  0
    9.3651  -14.1016   27.0255 C   0  0  0  0  0  0  0  0  0  0  0  0
    9.5756  -13.8630   28.3670 C   0  0  0  0  0  0  0  0  0  0  0  0
    8.4649  -12.7561   21.3445 C   0  0  0  0  0  0  0  0  0  0  0  0
    8.3378  -13.3366   19.9260 C   0  0  2  0  0  0  0  0  0  0  0  0
    7.7127  -12.2067   19.1042 C   0  0  0  0  0  0  0  0  0  0  0  0
    7.4419  -14.5158   20.0335 C   0  0  0  0  0  0  0  0  0  0  0  0
    7.9004  -15.6057   20.9333 C   0  0  2  0  0  0  0  0  0  0  0  0
    8.0790  -15.2527   22.2972 N   0  0  0  0  0  0  0  0  0  0  0  0
    9.2355  -16.0742   20.4047 C   0  0  0  0  0  0  0  0  0  0  0  0
    9.3567  -16.3586   19.1840 O   0  0  0  0  0  0  0  0  0  0  0  0
   10.3386  -16.1897   21.2842 N   0  0  0  0  0  0  0  0  0  0  0  0
   11.6538  -16.6640   20.8153 C   0  0  1  0  0  0  0  0  0  0  0  0
   12.1603  -15.6079   19.8953 C   0  0  0  0  0  0  0  0  0  0  0  0
   13.5192  -15.9638   19.3741 C   0  0  0  0  0  0  0  0  0  0  0  0
   14.0467  -14.8585   18.5101 C   0  0  0  0  0  0  0  0  0  0  0  0
   15.4493  -15.1482   18.0631 C   0  0  0  0  0  0  0  0  0  0  0  0
   15.9455  -13.9584   17.3864 N   0  0  0  0  0  0  0  0  0  0  0  0
   12.4667  -16.9671   21.9931 C   0  0  0  0  0  0  0  0  0  0  0  0
   13.6310  -17.6961   21.8798 O   0  0  0  0  0  0  0  0  0  0  0  0
   12.1361  -16.5774   23.1279 O   0  0  0  0  0  0  0  0  0  0  0  0
  2  1  1  0
  3  2  2  0
  4  3  1  0
  5 11  1  0
  5  4  2  0
  6  5  1  0
  7  6  1  0
  7  8  1  1
  9  7  1  0
  9 10  2  0
 11 12  2  0
 12  2  1  0
 14 16  1  0
 14 13  1  1
 15 14  1  0
 17 16  1  6
 17 18  1  0
 18  9  1  0
 19 17  1  0
 20 19  2  0
 21 19  1  0
 22 21  1  0
 22 28  1  0
 22 23  1  1
 24 23  1  0
 25 24  1  0
 26 27  1  0
 26 25  1  0
 28 30  2  0
 28 29  1  0
M  END
$$$$
