FVN.pdb
     RDKit          3D

 27 27  0  0  1  0  0  0  0  0999 V2000
    5.8880  -17.3795   25.2318 N   0  0  0  0  0  0  0  0  0  0  0  0
    6.4814  -16.1304   24.7988 C   0  0  1  0  0  0  0  0  0  0  0  0
    7.4548  -15.6863   25.8751 C   0  0  0  0  0  0  0  0  0  0  0  0
    7.1698  -14.3060   26.2958 C   0  0  0  0  0  0  0  0  0  0  0  0
    8.2062  -13.4190   26.5443 C   0  0  0  0  0  0  0  0  0  0  0  0
    7.9121  -12.1314   26.9359 C   0  0  0  0  0  0  0  0  0  0  0  0
    6.6039  -11.7291   27.0791 C   0  0  0  0  0  0  0  0  0  0  0  0
    5.5823  -12.6274   26.8271 C   0  0  0  0  0  0  0  0  0  0  0  0
    5.8316  -13.9252   26.4333 C   0  0  0  0  0  0  0  0  0  0  0  0
    7.1939  -16.3215   23.4969 C   0  0  0  0  0  0  0  0  0  0  0  0
    7.6618  -17.4442   23.2024 O   0  0  0  0  0  0  0  0  0  0  0  0
    6.4231  -13.8085   20.2512 C   0  0  0  0  0  0  0  0  0  0  0  0
    7.8374  -14.2809   20.4388 C   0  0  1  0  0  0  0  0  0  0  0  0
    8.7654  -13.2138   20.9337 C   0  0  0  0  0  0  0  0  0  0  0  0
    7.9158  -15.5400   21.2758 C   0  0  2  0  0  0  0  0  0  0  0  0
    7.3650  -15.2647   22.5655 N   0  0  0  0  0  0  0  0  0  0  0  0
    9.3822  -15.8727   21.3821 C   0  0  0  0  0  0  0  0  0  0  0  0
   10.0909  -16.0666   20.3536 O   0  0  0  0  0  0  0  0  0  0  0  0
   14.5884  -15.5467   22.0504 N   0  0  0  0  0  0  0  0  0  0  0  0
   13.7018  -15.4921   23.1434 C   0  0  0  0  0  0  0  0  0  0  0  0
   14.1757  -15.7907   24.2778 O   0  0  0  0  0  0  0  0  0  0  0  0
   12.2821  -15.1079   22.9995 C   0  0  0  0  0  0  0  0  0  0  0  0
   11.4453  -16.3164   22.7679 C   0  0  2  0  0  0  0  0  0  0  0  0
   10.0295  -15.9824   22.6330 N   0  0  0  0  0  0  0  0  0  0  0  0
   11.5865  -17.2656   23.8881 C   0  0  0  0  0  0  0  0  0  0  0  0
   12.4065  -18.3621   23.8688 O   0  0  0  0  0  0  0  0  0  0  0  0
   10.9059  -17.0679   24.9529 O   0  0  0  0  0  0  0  0  0  0  0  0
  2  1  1  1
  2 10  1  0
  2  3  1  0
  3  4  1  0
  4  9  2  0
  4  5  1  0
  5  6  2  0
  6  7  1  0
  8  7  2  0
  9  8  1  0
 10 11  2  0
 13 12  1  1
 13 15  1  0
 14 13  1  0
 15 17  1  0
 16 10  1  0
 15 16  1  1
 17 24  1  0
 17 18  2  0
 19 20  1  0
 20 22  1  0
 21 20  2  0
 23 22  1  1
 23 25  1  0
 24 23  1  0
 25 27  2  0
 25 26  1  0
M  END
$$$$
