FVN.pdb
     RDKit          3D

 27 27  0  0  1  0  0  0  0  0999 V2000
    6.3705  -16.8912   25.3549 N   0  0  0  0  0  0  0  0  0  0  0  0
    6.7680  -15.6706   24.6827 C   0  0  1  0  0  0  0  0  0  0  0  0
    7.9119  -15.0621   25.4730 C   0  0  0  0  0  0  0  0  0  0  0  0
    7.4514  -13.8921   26.2361 C   0  0  0  0  0  0  0  0  0  0  0  0
    8.1403  -13.4737   27.3645 C   0  0  0  0  0  0  0  0  0  0  0  0
    7.6888  -12.3739   28.0606 C   0  0  0  0  0  0  0  0  0  0  0  0
    6.5662  -11.6974   27.6412 C   0  0  0  0  0  0  0  0  0  0  0  0
    5.8912  -12.1288   26.5133 C   0  0  0  0  0  0  0  0  0  0  0  0
    6.3081  -13.2244   25.7869 C   0  0  0  0  0  0  0  0  0  0  0  0
    7.2022  -15.9705   23.2824 C   0  0  0  0  0  0  0  0  0  0  0  0
    7.0912  -17.1326   22.8317 O   0  0  0  0  0  0  0  0  0  0  0  0
    8.5833  -14.2112   18.8653 C   0  0  0  0  0  0  0  0  0  0  0  0
    8.3417  -13.9934   20.3326 C   0  0  1  0  0  0  0  0  0  0  0  0
    7.3710  -12.8898   20.6232 C   0  0  0  0  0  0  0  0  0  0  0  0
    7.9811  -15.2760   21.0517 C   0  0  2  0  0  0  0  0  0  0  0  0
    7.7446  -14.9752   22.4286 N   0  0  0  0  0  0  0  0  0  0  0  0
    9.1765  -16.1820   20.9014 C   0  0  0  0  0  0  0  0  0  0  0  0
    9.3909  -16.8190   19.8310 O   0  0  0  0  0  0  0  0  0  0  0  0
   12.4267  -15.5565   23.8322 N   0  0  0  0  0  0  0  0  0  0  0  0
   12.7063  -15.6312   22.4538 C   0  0  0  0  0  0  0  0  0  0  0  0
   13.1641  -14.5861   21.9073 O   0  0  0  0  0  0  0  0  0  0  0  0
   12.4847  -16.8584   21.6611 C   0  0  0  0  0  0  0  0  0  0  0  0
   11.1283  -17.4063   21.9335 C   0  0  2  0  0  0  0  0  0  0  0  0
   10.1093  -16.3595   21.9475 N   0  0  0  0  0  0  0  0  0  0  0  0
   11.0995  -18.0897   23.2404 C   0  0  0  0  0  0  0  0  0  0  0  0
   12.1114  -18.0321   24.1613 O   0  0  0  0  0  0  0  0  0  0  0  0
   10.0721  -18.7862   23.5492 O   0  0  0  0  0  0  0  0  0  0  0  0
  2  1  1  1
  2 10  1  0
  2  3  1  0
  3  4  1  0
  4  9  2  0
  4  5  1  0
  5  6  2  0
  6  7  1  0
  8  7  2  0
  9  8  1  0
 10 11  2  0
 13 12  1  6
 13 15  1  0
 14 13  1  0
 15 17  1  0
 16 10  1  0
 15 16  1  1
 17 24  1  0
 17 18  2  0
 19 20  1  0
 20 22  1  0
 21 20  2  0
 23 22  1  1
 23 25  1  0
 24 23  1  0
 25 27  2  0
 25 26  1  0
M  END
$$$$
