FVN.pdb
     RDKit          3D

 27 27  0  0  1  0  0  0  0  0999 V2000
    5.9386  -17.6768   25.1751 N   0  0  0  0  0  0  0  0  0  0  0  0
    6.5115  -16.3789   24.8796 C   0  0  1  0  0  0  0  0  0  0  0  0
    7.4342  -16.0116   26.0272 C   0  0  0  0  0  0  0  0  0  0  0  0
    7.3896  -14.5646   26.2869 C   0  0  0  0  0  0  0  0  0  0  0  0
    8.5317  -13.7905   26.1488 C   0  0  0  0  0  0  0  0  0  0  0  0
    8.4626  -12.4371   26.3967 C   0  0  0  0  0  0  0  0  0  0  0  0
    7.2732  -11.8590   26.7773 C   0  0  0  0  0  0  0  0  0  0  0  0
    6.1436  -12.6466   26.9102 C   0  0  0  0  0  0  0  0  0  0  0  0
    6.1679  -14.0046   26.6721 C   0  0  0  0  0  0  0  0  0  0  0  0
    7.2739  -16.4322   23.5931 C   0  0  0  0  0  0  0  0  0  0  0  0
    7.8275  -17.4979   23.2414 O   0  0  0  0  0  0  0  0  0  0  0  0
    6.1694  -14.2418   20.2281 C   0  0  0  0  0  0  0  0  0  0  0  0
    7.6242  -14.2536   20.6052 C   0  0  1  0  0  0  0  0  0  0  0  0
    8.0951  -12.9702   21.2184 C   0  0  0  0  0  0  0  0  0  0  0  0
    7.9892  -15.4574   21.4476 C   0  0  2  0  0  0  0  0  0  0  0  0
    7.3982  -15.3052   22.7399 N   0  0  0  0  0  0  0  0  0  0  0  0
    9.4935  -15.4506   21.5449 C   0  0  0  0  0  0  0  0  0  0  0  0
   10.1688  -14.4233   21.2514 O   0  0  0  0  0  0  0  0  0  0  0  0
   12.9102  -14.9698   25.8079 N   0  0  0  0  0  0  0  0  0  0  0  0
   12.7166  -15.6176   24.5723 C   0  0  0  0  0  0  0  0  0  0  0  0
   13.7369  -16.1387   24.0356 O   0  0  0  0  0  0  0  0  0  0  0  0
   11.3965  -15.6989   23.9132 C   0  0  0  0  0  0  0  0  0  0  0  0
   11.4956  -16.5038   22.6656 C   0  0  2  0  0  0  0  0  0  0  0  0
   10.2149  -16.5892   21.9679 N   0  0  0  0  0  0  0  0  0  0  0  0
   11.9431  -17.8760   22.9697 C   0  0  0  0  0  0  0  0  0  0  0  0
   11.1235  -18.8653   23.4438 O   0  0  0  0  0  0  0  0  0  0  0  0
   13.1723  -18.1784   22.7858 O   0  0  0  0  0  0  0  0  0  0  0  0
  2  1  1  1
  2 10  1  0
  2  3  1  0
  3  4  1  0
  4  9  2  0
  4  5  1  0
  5  6  2  0
  6  7  1  0
  8  7  2  0
  9  8  1  0
 10 11  2  0
 13 12  1  1
 13 15  1  0
 14 13  1  0
 15 17  1  0
 16 10  1  0
 15 16  1  1
 17 24  1  0
 17 18  2  0
 19 20  1  0
 20 22  1  0
 21 20  2  0
 23 22  1  1
 23 25  1  0
 24 23  1  0
 25 27  2  0
 25 26  1  0
M  END
$$$$
