FVN.pdb
     RDKit          3D

 27 27  0  0  1  0  0  0  0  0999 V2000
    6.1262  -17.8216   25.9670 N   0  0  0  0  0  0  0  0  0  0  0  0
    6.5055  -16.4776   25.5799 C   0  0  1  0  0  0  0  0  0  0  0  0
    7.1324  -15.8102   26.7901 C   0  0  0  0  0  0  0  0  0  0  0  0
    6.8706  -14.3629   26.7789 C   0  0  0  0  0  0  0  0  0  0  0  0
    5.5694  -13.8841   26.8001 C   0  0  0  0  0  0  0  0  0  0  0  0
    5.3516  -12.5238   26.7904 C   0  0  0  0  0  0  0  0  0  0  0  0
    6.4135  -11.6490   26.7600 C   0  0  0  0  0  0  0  0  0  0  0  0
    7.7051  -12.1443   26.7391 C   0  0  0  0  0  0  0  0  0  0  0  0
    7.9685  -13.4978   26.7478 C   0  0  0  0  0  0  0  0  0  0  0  0
    7.4802  -16.5231   24.4453 C   0  0  0  0  0  0  0  0  0  0  0  0
    8.2948  -17.4694   24.3621 O   0  0  0  0  0  0  0  0  0  0  0  0
    9.1610  -14.5217   20.2336 C   0  0  0  0  0  0  0  0  0  0  0  0
    8.2182  -14.4851   21.4035 C   0  0  1  0  0  0  0  0  0  0  0  0
    6.7842  -14.2971   21.0122 C   0  0  0  0  0  0  0  0  0  0  0  0
    8.4076  -15.6668   22.3307 C   0  0  2  0  0  0  0  0  0  0  0  0
    7.5209  -15.5205   23.4419 N   0  0  0  0  0  0  0  0  0  0  0  0
    9.8442  -15.6084   22.7834 C   0  0  0  0  0  0  0  0  0  0  0  0
   10.3107  -14.5894   23.3679 O   0  0  0  0  0  0  0  0  0  0  0  0
   11.0466  -19.3134   25.0945 N   0  0  0  0  0  0  0  0  0  0  0  0
   11.8772  -18.1986   24.8683 C   0  0  0  0  0  0  0  0  0  0  0  0
   12.0204  -17.3895   25.8303 O   0  0  0  0  0  0  0  0  0  0  0  0
   12.5601  -17.9620   23.5793 C   0  0  0  0  0  0  0  0  0  0  0  0
   12.1290  -16.6597   23.0027 C   0  0  2  0  0  0  0  0  0  0  0  0
   10.7322  -16.6874   22.5756 N   0  0  0  0  0  0  0  0  0  0  0  0
   12.9580  -16.3123   21.8332 C   0  0  0  0  0  0  0  0  0  0  0  0
   12.5028  -16.3072   20.5417 O   0  0  0  0  0  0  0  0  0  0  0  0
   14.1829  -15.9942   22.0186 O   0  0  0  0  0  0  0  0  0  0  0  0
  2  1  1  1
  2 10  1  0
  2  3  1  0
  3  4  1  0
  4  9  2  0
  4  5  1  0
  5  6  2  0
  6  7  1  0
  8  7  2  0
  9  8  1  0
 10 11  2  0
 13 12  1  6
 13 15  1  0
 14 13  1  0
 15 17  1  0
 16 10  1  0
 15 16  1  1
 17 24  1  0
 17 18  2  0
 19 20  1  0
 20 22  1  0
 21 20  2  0
 23 22  1  6
 23 25  1  0
 24 23  1  0
 25 27  2  0
 25 26  1  0
M  END
$$$$
