FVN.pdb
     RDKit          3D

 27 27  0  0  1  0  0  0  0  0999 V2000
    5.8206  -18.0298   25.7897 N   0  0  0  0  0  0  0  0  0  0  0  0
    6.2794  -16.6715   25.5785 C   0  0  1  0  0  0  0  0  0  0  0  0
    6.8321  -16.1627   26.8972 C   0  0  0  0  0  0  0  0  0  0  0  0
    6.8596  -14.6923   26.9161 C   0  0  0  0  0  0  0  0  0  0  0  0
    8.0668  -14.0130   26.9805 C   0  0  0  0  0  0  0  0  0  0  0  0
    8.0649  -12.6354   26.9955 C   0  0  0  0  0  0  0  0  0  0  0  0
    6.8782  -11.9404   26.9471 C   0  0  0  0  0  0  0  0  0  0  0  0
    5.6831  -12.6345   26.8832 C   0  0  0  0  0  0  0  0  0  0  0  0
    5.6389  -14.0126   26.8661 C   0  0  0  0  0  0  0  0  0  0  0  0
    7.3391  -16.6431   24.5224 C   0  0  0  0  0  0  0  0  0  0  0  0
    8.1871  -17.5617   24.4668 O   0  0  0  0  0  0  0  0  0  0  0  0
    9.3349  -14.3873   20.5905 C   0  0  0  0  0  0  0  0  0  0  0  0
    8.2726  -14.4427   21.6522 C   0  0  1  0  0  0  0  0  0  0  0  0
    6.8877  -14.2174   21.1270 C   0  0  0  0  0  0  0  0  0  0  0  0
    8.3676  -15.6971   22.4945 C   0  0  2  0  0  0  0  0  0  0  0  0
    7.4250  -15.5999   23.5643 N   0  0  0  0  0  0  0  0  0  0  0  0
    9.7774  -15.7293   23.0272 C   0  0  0  0  0  0  0  0  0  0  0  0
   10.1953  -14.8566   23.8404 O   0  0  0  0  0  0  0  0  0  0  0  0
   14.4937  -17.1947   24.4107 N   0  0  0  0  0  0  0  0  0  0  0  0
   13.7646  -18.3425   24.0438 C   0  0  0  0  0  0  0  0  0  0  0  0
   14.3058  -19.4615   24.2796 O   0  0  0  0  0  0  0  0  0  0  0  0
   12.4303  -18.2712   23.4126 C   0  0  0  0  0  0  0  0  0  0  0  0
   12.0311  -16.8511   23.2179 C   0  0  2  0  0  0  0  0  0  0  0  0
   10.6932  -16.7340   22.6428 N   0  0  0  0  0  0  0  0  0  0  0  0
   12.9775  -16.1667   22.3169 C   0  0  0  0  0  0  0  0  0  0  0  0
   13.1043  -16.4417   20.9814 O   0  0  0  0  0  0  0  0  0  0  0  0
   13.7369  -15.2563   22.7971 O   0  0  0  0  0  0  0  0  0  0  0  0
  2  1  1  1
  2 10  1  0
  2  3  1  0
  3  4  1  0
  4  9  2  0
  4  5  1  0
  5  6  2  0
  6  7  1  0
  8  7  2  0
  9  8  1  0
 10 11  2  0
 13 12  1  6
 13 15  1  0
 14 13  1  0
 15 17  1  0
 16 10  1  0
 15 16  1  1
 17 24  1  0
 17 18  2  0
 19 20  1  0
 20 22  1  0
 21 20  2  0
 23 22  1  6
 23 25  1  0
 24 23  1  0
 25 27  2  0
 25 26  1  0
M  END
$$$$
