FVN.pdb
     RDKit          3D

 27 27  0  0  1  0  0  0  0  0999 V2000
    6.0471  -17.8338   25.8804 N   0  0  0  0  0  0  0  0  0  0  0  0
    6.4366  -16.4862   25.5169 C   0  0  1  0  0  0  0  0  0  0  0  0
    7.0307  -15.8308   26.7501 C   0  0  0  0  0  0  0  0  0  0  0  0
    6.6412  -14.4144   26.8242 C   0  0  0  0  0  0  0  0  0  0  0  0
    7.6063  -13.4256   26.9415 C   0  0  0  0  0  0  0  0  0  0  0  0
    7.2150  -12.1064   27.0076 C   0  0  0  0  0  0  0  0  0  0  0  0
    5.8808  -11.7728   26.9578 C   0  0  0  0  0  0  0  0  0  0  0  0
    4.9315  -12.7723   26.8408 C   0  0  0  0  0  0  0  0  0  0  0  0
    5.2788  -14.1050   26.7715 C   0  0  0  0  0  0  0  0  0  0  0  0
    7.4415  -16.5207   24.4086 C   0  0  0  0  0  0  0  0  0  0  0  0
    8.3075  -17.4237   24.3816 O   0  0  0  0  0  0  0  0  0  0  0  0
    6.6572  -14.5196   20.8156 C   0  0  0  0  0  0  0  0  0  0  0  0
    8.0875  -14.6023   21.2698 C   0  0  1  0  0  0  0  0  0  0  0  0
    8.6304  -13.3026   21.7806 C   0  0  0  0  0  0  0  0  0  0  0  0
    8.3160  -15.7392   22.2430 C   0  0  2  0  0  0  0  0  0  0  0  0
    7.4547  -15.5555   23.3686 N   0  0  0  0  0  0  0  0  0  0  0  0
    9.7622  -15.6422   22.6568 C   0  0  0  0  0  0  0  0  0  0  0  0
   10.1702  -14.7189   23.4175 O   0  0  0  0  0  0  0  0  0  0  0  0
   11.6900  -17.6075   25.4229 N   0  0  0  0  0  0  0  0  0  0  0  0
   11.8097  -18.3238   24.2162 C   0  0  0  0  0  0  0  0  0  0  0  0
   11.1785  -19.4175   24.1371 O   0  0  0  0  0  0  0  0  0  0  0  0
   12.6264  -17.8438   23.0820 C   0  0  0  0  0  0  0  0  0  0  0  0
   12.1286  -16.5212   22.6159 C   0  0  2  0  0  0  0  0  0  0  0  0
   10.7250  -16.5768   22.2145 N   0  0  0  0  0  0  0  0  0  0  0  0
   12.9161  -16.0500   21.4612 C   0  0  0  0  0  0  0  0  0  0  0  0
   14.2313  -15.6746   21.5284 O   0  0  0  0  0  0  0  0  0  0  0  0
   12.3498  -15.9799   20.3163 O   0  0  0  0  0  0  0  0  0  0  0  0
  2  1  1  1
  2 10  1  0
  2  3  1  0
  3  4  1  0
  4  9  2  0
  4  5  1  0
  5  6  2  0
  6  7  1  0
  8  7  2  0
  9  8  1  0
 10 11  2  0
 13 12  1  1
 13 15  1  0
 14 13  1  0
 15 17  1  0
 16 10  1  0
 15 16  1  1
 17 24  1  0
 17 18  2  0
 19 20  1  0
 20 22  1  0
 21 20  2  0
 23 22  1  6
 23 25  1  0
 24 23  1  0
 25 27  2  0
 25 26  1  0
M  END
$$$$
