FVN.pdb
     RDKit          3D

 27 27  0  0  1  0  0  0  0  0999 V2000
   10.2731  -15.7025   21.7127 N   0  0  0  0  0  0  0  0  0  0  0  0
    9.6655  -14.9061   22.7598 C   0  0  1  0  0  0  0  0  0  0  0  0
    8.1604  -15.0569   22.6373 C   0  0  0  0  0  0  0  0  0  0  0  0
    7.6526  -14.2862   21.4921 C   0  0  0  0  0  0  0  0  0  0  0  0
    6.9237  -14.9118   20.4920 C   0  0  0  0  0  0  0  0  0  0  0  0
    6.4583  -14.1668   19.4307 C   0  0  0  0  0  0  0  0  0  0  0  0
    6.7137  -12.8163   19.3632 C   0  0  0  0  0  0  0  0  0  0  0  0
    7.4427  -12.2086   20.3698 C   0  0  0  0  0  0  0  0  0  0  0  0
    7.9274  -12.9161   21.4497 C   0  0  0  0  0  0  0  0  0  0  0  0
   10.1300  -15.3774   24.1019 C   0  0  0  0  0  0  0  0  0  0  0  0
   10.7614  -16.4535   24.1995 O   0  0  0  0  0  0  0  0  0  0  0  0
    8.5372  -13.9108   27.6013 C   0  0  0  0  0  0  0  0  0  0  0  0
   10.0248  -14.1240   27.6190 C   0  0  1  0  0  0  0  0  0  0  0  0
   10.5568  -14.5275   28.9602 C   0  0  0  0  0  0  0  0  0  0  0  0
   10.4844  -15.0557   26.5177 C   0  0  2  0  0  0  0  0  0  0  0  0
    9.8802  -14.6430   25.2901 N   0  0  0  0  0  0  0  0  0  0  0  0
   10.0041  -16.4287   26.9133 C   0  0  0  0  0  0  0  0  0  0  0  0
    8.7740  -16.7192   26.9251 O   0  0  0  0  0  0  0  0  0  0  0  0
   10.6315  -19.7909   24.6965 N   0  0  0  0  0  0  0  0  0  0  0  0
   11.5593  -19.5597   25.7306 C   0  0  0  0  0  0  0  0  0  0  0  0
   12.6772  -19.0713   25.3952 O   0  0  0  0  0  0  0  0  0  0  0  0
   11.2666  -19.8637   27.1468 C   0  0  0  0  0  0  0  0  0  0  0  0
   10.4663  -18.7647   27.7518 C   0  0  2  0  0  0  0  0  0  0  0  0
   10.9048  -17.4507   27.2877 N   0  0  0  0  0  0  0  0  0  0  0  0
   10.5796  -18.7915   29.2222 C   0  0  0  0  0  0  0  0  0  0  0  0
   10.0186  -19.7529   30.0198 O   0  0  0  0  0  0  0  0  0  0  0  0
   11.2395  -17.8645   29.8066 O   0  0  0  0  0  0  0  0  0  0  0  0
  2  1  1  6
  2 10  1  0
  2  3  1  0
  3  4  1  0
  4  9  2  0
  4  5  1  0
  5  6  2  0
  6  7  1  0
  8  7  2  0
  9  8  1  0
 10 11  2  0
 13 12  1  1
 13 15  1  0
 14 13  1  0
 15 17  1  0
 16 10  1  0
 15 16  1  6
 17 24  1  0
 17 18  2  0
 19 20  1  0
 20 22  1  0
 21 20  2  0
 23 22  1  6
 23 25  1  0
 24 23  1  0
 25 27  2  0
 25 26  1  0
M  END
$$$$
