FVN.pdb
     RDKit          3D

 27 27  0  0  1  0  0  0  0  0999 V2000
    5.8491  -18.0492   25.7821 N   0  0  0  0  0  0  0  0  0  0  0  0
    6.2694  -16.6794   25.5657 C   0  0  1  0  0  0  0  0  0  0  0  0
    6.8432  -16.1627   26.8723 C   0  0  0  0  0  0  0  0  0  0  0  0
    6.8919  -14.6927   26.8729 C   0  0  0  0  0  0  0  0  0  0  0  0
    5.7207  -13.9509   26.8471 C   0  0  0  0  0  0  0  0  0  0  0  0
    5.7940  -12.5752   26.8497 C   0  0  0  0  0  0  0  0  0  0  0  0
    7.0162  -11.9433   26.8777 C   0  0  0  0  0  0  0  0  0  0  0  0
    8.1747  -12.6993   26.9031 C   0  0  0  0  0  0  0  0  0  0  0  0
    8.1473  -14.0780   26.9015 C   0  0  0  0  0  0  0  0  0  0  0  0
    7.3009  -16.6209   24.4832 C   0  0  0  0  0  0  0  0  0  0  0  0
    8.2071  -17.4829   24.4397 O   0  0  0  0  0  0  0  0  0  0  0  0
    9.0300  -14.4055   20.4005 C   0  0  0  0  0  0  0  0  0  0  0  0
    8.0795  -14.4255   21.5645 C   0  0  1  0  0  0  0  0  0  0  0  0
    6.6507  -14.1968   21.1759 C   0  0  0  0  0  0  0  0  0  0  0  0
    8.2479  -15.6618   22.4220 C   0  0  2  0  0  0  0  0  0  0  0  0
    7.2951  -15.6113   23.4860 N   0  0  0  0  0  0  0  0  0  0  0  0
    9.6539  -15.5998   22.9618 C   0  0  0  0  0  0  0  0  0  0  0  0
   10.0308  -14.6564   23.7137 O   0  0  0  0  0  0  0  0  0  0  0  0
   11.8397  -17.5955   26.1118 N   0  0  0  0  0  0  0  0  0  0  0  0
   11.6521  -18.2008   24.8540 C   0  0  0  0  0  0  0  0  0  0  0  0
   10.7523  -19.0868   24.7760 O   0  0  0  0  0  0  0  0  0  0  0  0
   12.4536  -17.8372   23.6670 C   0  0  0  0  0  0  0  0  0  0  0  0
   11.9950  -16.5317   23.1195 C   0  0  2  0  0  0  0  0  0  0  0  0
   10.6119  -16.5911   22.6527 N   0  0  0  0  0  0  0  0  0  0  0  0
   12.8432  -16.1200   21.9851 C   0  0  0  0  0  0  0  0  0  0  0  0
   14.0150  -15.4233   22.1137 O   0  0  0  0  0  0  0  0  0  0  0  0
   12.4751  -16.4236   20.7983 O   0  0  0  0  0  0  0  0  0  0  0  0
  2  1  1  1
  2 10  1  0
  2  3  1  0
  3  4  1  0
  4  9  2  0
  4  5  1  0
  5  6  2  0
  6  7  1  0
  8  7  2  0
  9  8  1  0
 10 11  2  0
 13 12  1  6
 13 15  1  0
 14 13  1  0
 15 17  1  0
 16 10  1  0
 15 16  1  1
 17 24  1  0
 17 18  2  0
 19 20  1  0
 20 22  1  0
 21 20  2  0
 23 22  1  6
 23 25  1  0
 24 23  1  0
 25 27  2  0
 25 26  1  0
M  END
$$$$
