FVN.pdb
     RDKit          3D

 27 27  0  0  1  0  0  0  0  0999 V2000
    7.0544  -18.5167   27.0600 N   0  0  0  0  0  0  0  0  0  0  0  0
    7.6460  -17.2281   26.7608 C   0  0  1  0  0  0  0  0  0  0  0  0
    8.9373  -17.1205   27.5509 C   0  0  0  0  0  0  0  0  0  0  0  0
    9.0570  -15.7927   28.1722 C   0  0  0  0  0  0  0  0  0  0  0  0
    8.8196  -14.6457   27.4300 C   0  0  0  0  0  0  0  0  0  0  0  0
    8.9372  -13.4143   28.0364 C   0  0  0  0  0  0  0  0  0  0  0  0
    9.2863  -13.3227   29.3643 C   0  0  0  0  0  0  0  0  0  0  0  0
    9.5196  -14.4775   30.0896 C   0  0  0  0  0  0  0  0  0  0  0  0
    9.4133  -15.7301   29.5227 C   0  0  0  0  0  0  0  0  0  0  0  0
    7.9203  -17.1142   25.2942 C   0  0  0  0  0  0  0  0  0  0  0  0
    8.2208  -18.1353   24.6361 O   0  0  0  0  0  0  0  0  0  0  0  0
    8.4457  -14.1978   21.3226 C   0  0  0  0  0  0  0  0  0  0  0  0
    7.8868  -14.4364   22.6972 C   0  0  1  0  0  0  0  0  0  0  0  0
    6.4194  -14.1540   22.8051 C   0  0  0  0  0  0  0  0  0  0  0  0
    8.2465  -15.8057   23.2335 C   0  0  2  0  0  0  0  0  0  0  0  0
    7.8531  -15.8752   24.6056 N   0  0  0  0  0  0  0  0  0  0  0  0
    9.7439  -15.9189   23.1016 C   0  0  0  0  0  0  0  0  0  0  0  0
   10.5234  -15.2765   23.8613 O   0  0  0  0  0  0  0  0  0  0  0  0
   13.8686  -19.6277   23.2522 N   0  0  0  0  0  0  0  0  0  0  0  0
   13.1745  -19.1832   22.1101 C   0  0  0  0  0  0  0  0  0  0  0  0
   13.8130  -19.1855   21.0178 O   0  0  0  0  0  0  0  0  0  0  0  0
   11.7685  -18.7310   22.1578 C   0  0  0  0  0  0  0  0  0  0  0  0
   11.7105  -17.2463   22.2388 C   0  0  2  0  0  0  0  0  0  0  0  0
   10.3424  -16.7464   22.1254 N   0  0  0  0  0  0  0  0  0  0  0  0
   12.5105  -16.6378   21.1593 C   0  0  0  0  0  0  0  0  0  0  0  0
   12.0607  -16.4519   19.8793 O   0  0  0  0  0  0  0  0  0  0  0  0
   13.7034  -16.2548   21.4171 O   0  0  0  0  0  0  0  0  0  0  0  0
  2  1  1  6
  2 10  1  0
  2  3  1  0
  3  4  1  0
  4  9  2  0
  4  5  1  0
  5  6  2  0
  6  7  1  0
  8  7  2  0
  9  8  1  0
 10 11  2  0
 13 12  1  6
 13 15  1  0
 14 13  1  0
 15 17  1  0
 16 10  1  0
 15 16  1  1
 17 24  1  0
 17 18  2  0
 19 20  1  0
 20 22  1  0
 21 20  2  0
 23 22  1  6
 23 25  1  0
 24 23  1  0
 25 27  2  0
 25 26  1  0
M  END
$$$$
