FVN.pdb
     RDKit          3D

 27 27  0  0  1  0  0  0  0  0999 V2000
    6.3412  -16.7224   25.5209 N   0  0  0  0  0  0  0  0  0  0  0  0
    6.7865  -15.6048   24.7130 C   0  0  1  0  0  0  0  0  0  0  0  0
    7.9582  -14.9582   25.4288 C   0  0  0  0  0  0  0  0  0  0  0  0
    7.5213  -13.7619   26.1647 C   0  0  0  0  0  0  0  0  0  0  0  0
    6.4173  -13.0392   25.7386 C   0  0  0  0  0  0  0  0  0  0  0  0
    6.0282  -11.9233   26.4466 C   0  0  0  0  0  0  0  0  0  0  0  0
    6.7272  -11.5296   27.5647 C   0  0  0  0  0  0  0  0  0  0  0  0
    7.8263  -12.2625   27.9754 C   0  0  0  0  0  0  0  0  0  0  0  0
    8.2504  -13.3854   27.2966 C   0  0  0  0  0  0  0  0  0  0  0  0
    7.2018  -16.0815   23.3567 C   0  0  0  0  0  0  0  0  0  0  0  0
    7.2476  -17.3085   23.1154 O   0  0  0  0  0  0  0  0  0  0  0  0
    6.5541  -13.9061   19.9742 C   0  0  0  0  0  0  0  0  0  0  0  0
    7.9003  -14.5720   20.0300 C   0  0  1  0  0  0  0  0  0  0  0  0
    9.0370  -13.6122   20.2078 C   0  0  0  0  0  0  0  0  0  0  0  0
    7.9415  -15.7000   21.0389 C   0  0  2  0  0  0  0  0  0  0  0  0
    7.5525  -15.1852   22.3140 N   0  0  0  0  0  0  0  0  0  0  0  0
    9.3724  -16.1732   21.0688 C   0  0  0  0  0  0  0  0  0  0  0  0
    9.9133  -16.7027   20.0566 O   0  0  0  0  0  0  0  0  0  0  0  0
   12.8545  -16.2556   19.8914 N   0  0  0  0  0  0  0  0  0  0  0  0
   13.2371  -15.4303   20.9666 C   0  0  0  0  0  0  0  0  0  0  0  0
   14.2208  -14.6590   20.7715 O   0  0  0  0  0  0  0  0  0  0  0  0
   12.5405  -15.4449   22.2697 C   0  0  0  0  0  0  0  0  0  0  0  0
   11.5419  -16.5476   22.3044 C   0  0  2  0  0  0  0  0  0  0  0  0
   10.1719  -16.0463   22.2266 N   0  0  0  0  0  0  0  0  0  0  0  0
   11.6740  -17.3258   23.5505 C   0  0  0  0  0  0  0  0  0  0  0  0
   12.8004  -18.0162   23.9109 O   0  0  0  0  0  0  0  0  0  0  0  0
   10.6823  -17.3707   24.3571 O   0  0  0  0  0  0  0  0  0  0  0  0
  2  1  1  1
  2 10  1  0
  2  3  1  0
  3  4  1  0
  4  9  2  0
  4  5  1  0
  5  6  2  0
  6  7  1  0
  8  7  2  0
  9  8  1  0
 10 11  2  0
 13 12  1  1
 13 15  1  0
 14 13  1  0
 15 17  1  0
 16 10  1  0
 15 16  1  1
 17 24  1  0
 17 18  2  0
 19 20  1  0
 20 22  1  0
 21 20  2  0
 23 22  1  1
 23 25  1  0
 24 23  1  0
 25 27  2  0
 25 26  1  0
M  END
$$$$
