CAY.pdb
     RDKit          3D

 24 24  0  0  1  0  0  0  0  0999 V2000
    6.7859  -14.4439   18.9093 N   0  0  0  0  0  0  0  0  0  0  0  0
    8.1568  -14.5270   19.3780 C   0  0  1  0  0  0  0  0  0  0  0  0
    8.5321  -13.2001   19.9992 C   0  0  0  0  0  0  0  0  0  0  0  0
    8.7984  -11.9474   18.7157 S   0  0  0  0  0  0  0  0  0  0  0  0
    8.2268  -15.6308   20.3904 C   0  0  0  0  0  0  0  0  0  0  0  0
    7.2433  -15.9045   21.1302 O   0  0  0  0  0  0  0  0  0  0  0  0
   10.2307  -18.6332   20.8359 C   0  0  0  0  0  0  0  0  0  0  0  0
    9.4134  -17.5250   21.4798 C   0  0  2  0  0  0  0  0  0  0  0  0
    9.3946  -16.4189   20.5674 N   0  0  0  0  0  0  0  0  0  0  0  0
    9.9105  -17.1676   22.8180 C   0  0  0  0  0  0  0  0  0  0  0  0
    9.9978  -18.0908   23.6718 O   0  0  0  0  0  0  0  0  0  0  0  0
   10.5647  -14.7990   30.9860 O   0  0  0  0  0  0  0  0  0  0  0  0
   10.3201  -15.0143   29.6342 C   0  0  0  0  0  0  0  0  0  0  0  0
   10.0366  -13.9830   28.7635 C   0  0  0  0  0  0  0  0  0  0  0  0
    9.7960  -14.2109   27.4244 C   0  0  0  0  0  0  0  0  0  0  0  0
    9.8291  -15.4919   26.8942 C   0  0  0  0  0  0  0  0  0  0  0  0
    9.5638  -15.7419   25.4629 C   0  0  0  0  0  0  0  0  0  0  0  0
   10.7594  -15.5383   24.5672 C   0  0  2  0  0  0  0  0  0  0  0  0
   10.2977  -15.8773   23.2252 N   0  0  0  0  0  0  0  0  0  0  0  0
   11.8623  -16.4042   25.0033 C   0  0  0  0  0  0  0  0  0  0  0  0
   12.9416  -15.8716   25.3643 O   0  0  0  0  0  0  0  0  0  0  0  0
   10.1129  -16.5161   27.7715 C   0  0  0  0  0  0  0  0  0  0  0  0
   10.3553  -16.2920   29.1173 C   0  0  0  0  0  0  0  0  0  0  0  0
   11.7732  -17.7835   25.0380 O   0  0  0  0  0  0  0  0  0  0  0  0
  2  1  1  1
  2  3  1  0
  3  4  1  0
  5  2  1  0
  6  5  2  0
  8  7  1  6
  8  9  1  0
  9  5  1  0
 10  8  1  0
 10 19  1  0
 11 10  2  0
 13 12  1  0
 14 13  2  0
 15 14  1  0
 16 22  1  0
 16 15  2  0
 17 16  1  0
 18 19  1  0
 18 17  1  1
 20 18  1  0
 21 20  2  0
 22 23  2  0
 23 13  1  0
 24 20  1  0
M  END
$$$$
