CAY.pdb
     RDKit          3D

 24 24  0  0  1  0  0  0  0  0999 V2000
    5.8170  -19.8991   21.7703 N   0  0  0  0  0  0  0  0  0  0  0  0
    5.2985  -18.5797   22.0808 C   0  0  1  0  0  0  0  0  0  0  0  0
    4.9254  -18.5441   23.5460 C   0  0  0  0  0  0  0  0  0  0  0  0
    6.3563  -18.9607   24.5789 S   0  0  0  0  0  0  0  0  0  0  0  0
    6.3772  -17.5828   21.7789 C   0  0  0  0  0  0  0  0  0  0  0  0
    7.5877  -17.9283   21.7096 O   0  0  0  0  0  0  0  0  0  0  0  0
    6.5733  -14.0732   20.6178 C   0  0  0  0  0  0  0  0  0  0  0  0
    7.1476  -15.2512   21.3882 C   0  0  2  0  0  0  0  0  0  0  0  0
    6.0940  -16.2093   21.5571 N   0  0  0  0  0  0  0  0  0  0  0  0
    7.7703  -14.8407   22.6569 C   0  0  0  0  0  0  0  0  0  0  0  0
    7.1661  -13.9778   23.3490 O   0  0  0  0  0  0  0  0  0  0  0  0
   10.7138  -15.6394   30.7426 O   0  0  0  0  0  0  0  0  0  0  0  0
   10.1896  -15.5677   29.4568 C   0  0  0  0  0  0  0  0  0  0  0  0
   10.0852  -16.6749   28.6410 C   0  0  0  0  0  0  0  0  0  0  0  0
    9.5629  -16.5895   27.3670 C   0  0  0  0  0  0  0  0  0  0  0  0
    9.1185  -15.3818   26.8499 C   0  0  0  0  0  0  0  0  0  0  0  0
    8.5664  -15.2837   25.4836 C   0  0  0  0  0  0  0  0  0  0  0  0
    9.5823  -14.9206   24.4303 C   0  0  2  0  0  0  0  0  0  0  0  0
    8.9877  -15.3328   23.1631 N   0  0  0  0  0  0  0  0  0  0  0  0
   10.8469  -15.6180   24.6958 C   0  0  0  0  0  0  0  0  0  0  0  0
   11.0104  -16.7718   24.2261 O   0  0  0  0  0  0  0  0  0  0  0  0
    9.2269  -14.2810   27.6719 C   0  0  0  0  0  0  0  0  0  0  0  0
    9.7507  -14.3620   28.9522 C   0  0  0  0  0  0  0  0  0  0  0  0
   11.8735  -15.0663   25.4398 O   0  0  0  0  0  0  0  0  0  0  0  0
  2  1  1  1
  2  3  1  0
  3  4  1  0
  5  2  1  0
  6  5  2  0
  8  7  1  1
  8  9  1  0
  9  5  1  0
 10  8  1  0
 10 19  1  0
 11 10  2  0
 13 12  1  0
 14 13  2  0
 15 14  1  0
 16 22  1  0
 16 15  2  0
 17 16  1  0
 18 19  1  0
 18 17  1  1
 20 18  1  0
 21 20  2  0
 22 23  2  0
 23 13  1  0
 24 20  1  0
M  END
$$$$
