CAY.pdb
     RDKit          3D

 24 24  0  0  1  0  0  0  0  0999 V2000
    6.7821  -18.9358   19.4557 N   0  0  0  0  0  0  0  0  0  0  0  0
    6.4947  -18.1598   20.6479 C   0  0  1  0  0  0  0  0  0  0  0  0
    6.5493  -19.0825   21.8449 C   0  0  0  0  0  0  0  0  0  0  0  0
    6.0708  -18.1986   23.3540 S   0  0  0  0  0  0  0  0  0  0  0  0
    7.5338  -17.0840   20.7536 C   0  0  0  0  0  0  0  0  0  0  0  0
    8.7564  -17.3343   20.5745 O   0  0  0  0  0  0  0  0  0  0  0  0
    7.5494  -13.3826   21.0838 C   0  0  0  0  0  0  0  0  0  0  0  0
    8.2130  -14.7415   21.2376 C   0  0  2  0  0  0  0  0  0  0  0  0
    7.1980  -15.7385   21.0584 N   0  0  0  0  0  0  0  0  0  0  0  0
    8.9370  -14.8703   22.5124 C   0  0  0  0  0  0  0  0  0  0  0  0
    9.9340  -14.1206   22.6933 O   0  0  0  0  0  0  0  0  0  0  0  0
    5.8219  -10.9146   26.9809 O   0  0  0  0  0  0  0  0  0  0  0  0
    6.4361  -12.1334   26.7155 C   0  0  0  0  0  0  0  0  0  0  0  0
    7.8074  -12.2810   26.7076 C   0  0  0  0  0  0  0  0  0  0  0  0
    8.4036  -13.4965   26.4427 C   0  0  0  0  0  0  0  0  0  0  0  0
    7.6467  -14.6266   26.1720 C   0  0  0  0  0  0  0  0  0  0  0  0
    8.2806  -15.9282   25.8794 C   0  0  0  0  0  0  0  0  0  0  0  0
    9.3392  -15.8738   24.8072 C   0  0  2  0  0  0  0  0  0  0  0  0
    8.6080  -15.7632   23.5492 N   0  0  0  0  0  0  0  0  0  0  0  0
   10.1633  -17.0881   24.8581 C   0  0  0  0  0  0  0  0  0  0  0  0
   10.0708  -17.9204   23.9213 O   0  0  0  0  0  0  0  0  0  0  0  0
    6.2777  -14.4697   26.1818 C   0  0  0  0  0  0  0  0  0  0  0  0
    5.6743  -13.2509   26.4474 C   0  0  0  0  0  0  0  0  0  0  0  0
   11.0417  -17.3637   25.8896 O   0  0  0  0  0  0  0  0  0  0  0  0
  2  1  1  6
  2  3  1  0
  3  4  1  0
  5  2  1  0
  6  5  2  0
  8  7  1  1
  8  9  1  0
  9  5  1  0
 10  8  1  0
 10 19  1  0
 11 10  2  0
 13 12  1  0
 14 13  2  0
 15 14  1  0
 16 22  1  0
 16 15  2  0
 17 16  1  0
 18 19  1  0
 18 17  1  1
 20 18  1  0
 21 20  2  0
 22 23  2  0
 23 13  1  0
 24 20  1  0
M  END
$$$$
