CAY.pdb
     RDKit          3D

 24 24  0  0  1  0  0  0  0  0999 V2000
    7.7323  -15.4042   16.1070 N   0  0  0  0  0  0  0  0  0  0  0  0
    8.5655  -14.7824   17.1195 C   0  0  1  0  0  0  0  0  0  0  0  0
    7.9510  -13.4525   17.4952 C   0  0  0  0  0  0  0  0  0  0  0  0
    8.8266  -12.7206   18.9043 S   0  0  0  0  0  0  0  0  0  0  0  0
    8.6114  -15.7038   18.3017 C   0  0  0  0  0  0  0  0  0  0  0  0
    7.5569  -16.1803   18.8020 O   0  0  0  0  0  0  0  0  0  0  0  0
   11.0577  -17.8015   20.0230 C   0  0  0  0  0  0  0  0  0  0  0  0
    9.8522  -16.8793   20.1075 C   0  0  2  0  0  0  0  0  0  0  0  0
    9.8345  -16.0843   18.9141 N   0  0  0  0  0  0  0  0  0  0  0  0
    9.8458  -16.0774   21.3415 C   0  0  0  0  0  0  0  0  0  0  0  0
   10.8243  -15.3082   21.5404 O   0  0  0  0  0  0  0  0  0  0  0  0
    6.7195  -11.1104   27.9747 O   0  0  0  0  0  0  0  0  0  0  0  0
    6.8859  -11.9991   26.9184 C   0  0  0  0  0  0  0  0  0  0  0  0
    6.2710  -13.2333   26.8903 C   0  0  0  0  0  0  0  0  0  0  0  0
    6.4447  -14.1054   25.8356 C   0  0  0  0  0  0  0  0  0  0  0  0
    7.2483  -13.7771   24.7540 C   0  0  0  0  0  0  0  0  0  0  0  0
    7.4442  -14.7108   23.6265 C   0  0  0  0  0  0  0  0  0  0  0  0
    8.8377  -15.2778   23.5276 C   0  0  2  0  0  0  0  0  0  0  0  0
    8.8353  -16.0979   22.3207 N   0  0  0  0  0  0  0  0  0  0  0  0
    9.1409  -16.0680   24.7276 C   0  0  0  0  0  0  0  0  0  0  0  0
    8.7647  -17.2660   24.7727 O   0  0  0  0  0  0  0  0  0  0  0  0
    7.8588  -12.5422   24.7908 C   0  0  0  0  0  0  0  0  0  0  0  0
    7.6872  -11.6629   25.8479 C   0  0  0  0  0  0  0  0  0  0  0  0
    9.8240  -15.5585   25.8164 O   0  0  0  0  0  0  0  0  0  0  0  0
  2  1  1  6
  2  3  1  0
  3  4  1  0
  5  2  1  0
  6  5  2  0
  8  7  1  6
  8  9  1  0
  9  5  1  0
 10  8  1  0
 10 19  1  0
 11 10  2  0
 13 12  1  0
 14 13  2  0
 15 14  1  0
 16 22  1  0
 16 15  2  0
 17 16  1  0
 18 19  1  0
 18 17  1  1
 20 18  1  0
 21 20  2  0
 22 23  2  0
 23 13  1  0
 24 20  1  0
M  END
$$$$
