CAY.pdb
     RDKit          3D

 24 24  0  0  1  0  0  0  0  0999 V2000
    7.1450  -14.5234   18.8156 N   0  0  0  0  0  0  0  0  0  0  0  0
    8.1395  -14.1457   19.8027 C   0  0  1  0  0  0  0  0  0  0  0  0
    7.7578  -12.7994   20.3766 C   0  0  0  0  0  0  0  0  0  0  0  0
    8.9411  -12.2915   21.6531 S   0  0  0  0  0  0  0  0  0  0  0  0
    8.1467  -15.1995   20.8694 C   0  0  0  0  0  0  0  0  0  0  0  0
    7.0751  -15.7137   21.2896 O   0  0  0  0  0  0  0  0  0  0  0  0
   10.2022  -17.8624   21.8317 C   0  0  0  0  0  0  0  0  0  0  0  0
    9.3447  -16.7456   22.4047 C   0  0  2  0  0  0  0  0  0  0  0  0
    9.3509  -15.6693   21.4571 N   0  0  0  0  0  0  0  0  0  0  0  0
    9.7803  -16.3392   23.7504 C   0  0  0  0  0  0  0  0  0  0  0  0
   10.8376  -15.6585   23.8387 O   0  0  0  0  0  0  0  0  0  0  0  0
    5.8626  -10.9589   25.9428 O   0  0  0  0  0  0  0  0  0  0  0  0
    6.4480  -12.1913   26.2108 C   0  0  0  0  0  0  0  0  0  0  0  0
    5.7655  -13.3800   26.0577 C   0  0  0  0  0  0  0  0  0  0  0  0
    6.3588  -14.5959   26.3271 C   0  0  0  0  0  0  0  0  0  0  0  0
    7.6722  -14.6755   26.7652 C   0  0  0  0  0  0  0  0  0  0  0  0
    8.3090  -15.9744   27.0632 C   0  0  0  0  0  0  0  0  0  0  0  0
    9.5670  -16.2418   26.2762 C   0  0  2  0  0  0  0  0  0  0  0  0
    9.1130  -16.6480   24.9503 N   0  0  0  0  0  0  0  0  0  0  0  0
   10.3523  -17.2939   26.9337 C   0  0  0  0  0  0  0  0  0  0  0  0
   10.3439  -18.4502   26.4420 O   0  0  0  0  0  0  0  0  0  0  0  0
    8.3462  -13.4829   26.9155 C   0  0  0  0  0  0  0  0  0  0  0  0
    7.7545  -12.2593   26.6460 C   0  0  0  0  0  0  0  0  0  0  0  0
   11.1058  -17.0760   28.0724 O   0  0  0  0  0  0  0  0  0  0  0  0
  2  1  1  6
  2  3  1  0
  3  4  1  0
  5  2  1  0
  6  5  2  0
  8  7  1  6
  8  9  1  0
  9  5  1  0
 10  8  1  0
 10 19  1  0
 11 10  2  0
 13 12  1  0
 14 13  2  0
 15 14  1  0
 16 22  1  0
 16 15  2  0
 17 16  1  0
 18 19  1  0
 18 17  1  1
 20 18  1  0
 21 20  2  0
 22 23  2  0
 23 13  1  0
 24 20  1  0
M  END
$$$$
