CAY.pdb
     RDKit          3D

 24 24  0  0  1  0  0  0  0  0999 V2000
    7.7397  -14.9996   16.5079 N   0  0  0  0  0  0  0  0  0  0  0  0
    9.0327  -15.1147   17.1568 C   0  0  1  0  0  0  0  0  0  0  0  0
    9.5962  -13.7248   17.3521 C   0  0  0  0  0  0  0  0  0  0  0  0
    8.4605  -12.7082   18.3343 S   0  0  0  0  0  0  0  0  0  0  0  0
    8.8224  -15.7970   18.4754 C   0  0  0  0  0  0  0  0  0  0  0  0
    7.7526  -15.6496   19.1260 O   0  0  0  0  0  0  0  0  0  0  0  0
   10.6759  -18.3115   20.5116 C   0  0  0  0  0  0  0  0  0  0  0  0
    9.6065  -17.2451   20.3384 C   0  0  2  0  0  0  0  0  0  0  0  0
    9.8088  -16.6378   19.0552 N   0  0  0  0  0  0  0  0  0  0  0  0
    9.5970  -16.2763   21.4462 C   0  0  0  0  0  0  0  0  0  0  0  0
   10.5150  -15.4130   21.4718 O   0  0  0  0  0  0  0  0  0  0  0  0
    6.2405  -11.1395   27.9344 O   0  0  0  0  0  0  0  0  0  0  0  0
    6.4801  -12.0325   26.8959 C   0  0  0  0  0  0  0  0  0  0  0  0
    6.9248  -11.6198   25.6573 C   0  0  0  0  0  0  0  0  0  0  0  0
    7.1587  -12.5169   24.6357 C   0  0  0  0  0  0  0  0  0  0  0  0
    6.9559  -13.8775   24.8111 C   0  0  0  0  0  0  0  0  0  0  0  0
    7.1967  -14.8409   23.7178 C   0  0  0  0  0  0  0  0  0  0  0  0
    8.6398  -15.2476   23.5581 C   0  0  2  0  0  0  0  0  0  0  0  0
    8.6455  -16.2333   22.4822 N   0  0  0  0  0  0  0  0  0  0  0  0
    9.1422  -15.8083   24.8188 C   0  0  0  0  0  0  0  0  0  0  0  0
    9.7690  -15.0564   25.6067 O   0  0  0  0  0  0  0  0  0  0  0  0
    6.5114  -14.2806   26.0517 C   0  0  0  0  0  0  0  0  0  0  0  0
    6.2752  -13.3834   27.0808 C   0  0  0  0  0  0  0  0  0  0  0  0
    8.9591  -17.1286   25.1860 O   0  0  0  0  0  0  0  0  0  0  0  0
  2  1  1  1
  2  3  1  0
  3  4  1  0
  5  2  1  0
  6  5  2  0
  8  7  1  1
  8  9  1  0
  9  5  1  0
 10  8  1  0
 10 19  1  0
 11 10  2  0
 13 12  1  0
 14 13  2  0
 15 14  1  0
 16 22  1  0
 16 15  2  0
 17 16  1  0
 18 19  1  0
 18 17  1  1
 20 18  1  0
 21 20  2  0
 22 23  2  0
 23 13  1  0
 24 20  1  0
M  END
$$$$
