CAY.pdb
     RDKit          3D

 24 24  0  0  1  0  0  0  0  0999 V2000
    9.6947  -15.1488   17.2510 N   0  0  0  0  0  0  0  0  0  0  0  0
    9.1421  -14.1824   18.1820 C   0  0  1  0  0  0  0  0  0  0  0  0
    7.8201  -13.6919   17.6353 C   0  0  0  0  0  0  0  0  0  0  0  0
    7.1013  -12.4397   18.7321 S   0  0  0  0  0  0  0  0  0  0  0  0
    8.9531  -14.8740   19.4990 C   0  0  0  0  0  0  0  0  0  0  0  0
    8.5891  -14.2395   20.5257 O   0  0  0  0  0  0  0  0  0  0  0  0
    9.0538  -18.4170   20.6777 C   0  0  0  0  0  0  0  0  0  0  0  0
    8.9358  -16.9197   20.9122 C   0  0  2  0  0  0  0  0  0  0  0  0
    9.1724  -16.2679   19.6570 N   0  0  0  0  0  0  0  0  0  0  0  0
    9.8225  -16.4498   21.9887 C   0  0  0  0  0  0  0  0  0  0  0  0
   11.0237  -16.2113   21.6903 O   0  0  0  0  0  0  0  0  0  0  0  0
   10.5918  -15.3177   30.8236 O   0  0  0  0  0  0  0  0  0  0  0  0
   10.3364  -15.2237   29.4601 C   0  0  0  0  0  0  0  0  0  0  0  0
   10.9808  -16.0165   28.5335 C   0  0  0  0  0  0  0  0  0  0  0  0
   10.7176  -15.9128   27.1833 C   0  0  0  0  0  0  0  0  0  0  0  0
    9.7900  -15.0033   26.6978 C   0  0  0  0  0  0  0  0  0  0  0  0
    9.5110  -14.8827   25.2525 C   0  0  0  0  0  0  0  0  0  0  0  0
   10.3403  -15.7943   24.3839 C   0  0  2  0  0  0  0  0  0  0  0  0
    9.4399  -16.2439   23.3273 N   0  0  0  0  0  0  0  0  0  0  0  0
   10.8516  -16.9151   25.1830 C   0  0  0  0  0  0  0  0  0  0  0  0
   10.1295  -17.9333   25.3268 O   0  0  0  0  0  0  0  0  0  0  0  0
    9.1513  -14.2153   27.6307 C   0  0  0  0  0  0  0  0  0  0  0  0
    9.4124  -14.3159   28.9878 C   0  0  0  0  0  0  0  0  0  0  0  0
   12.0948  -16.9078   25.7881 O   0  0  0  0  0  0  0  0  0  0  0  0
  2  1  1  6
  2  3  1  0
  3  4  1  0
  5  2  1  0
  6  5  2  0
  8  7  1  6
  8  9  1  0
  9  5  1  0
 10  8  1  0
 10 19  1  0
 11 10  2  0
 13 12  1  0
 14 13  2  0
 15 14  1  0
 16 22  1  0
 16 15  2  0
 17 16  1  0
 18 19  1  0
 18 17  1  1
 20 18  1  0
 21 20  2  0
 22 23  2  0
 23 13  1  0
 24 20  1  0
M  END
$$$$
