CAY.pdb
     RDKit          3D

 24 24  0  0  1  0  0  0  0  0999 V2000
    6.2927  -19.6435   20.6828 N   0  0  0  0  0  0  0  0  0  0  0  0
    6.1056  -18.6895   21.7603 C   0  0  1  0  0  0  0  0  0  0  0  0
    6.3028  -19.4082   23.0763 C   0  0  0  0  0  0  0  0  0  0  0  0
    5.8410  -18.3364   24.4639 S   0  0  0  0  0  0  0  0  0  0  0  0
    7.1221  -17.6008   21.5875 C   0  0  0  0  0  0  0  0  0  0  0  0
    8.3089  -17.8602   21.2507 O   0  0  0  0  0  0  0  0  0  0  0  0
    7.0784  -13.8923   21.4411 C   0  0  0  0  0  0  0  0  0  0  0  0
    7.8016  -15.2103   21.6668 C   0  0  2  0  0  0  0  0  0  0  0  0
    6.8036  -16.2324   21.7925 N   0  0  0  0  0  0  0  0  0  0  0  0
    8.7247  -15.1538   22.8116 C   0  0  0  0  0  0  0  0  0  0  0  0
    9.7120  -14.3750   22.7248 O   0  0  0  0  0  0  0  0  0  0  0  0
    5.9145  -10.6399   26.6219 O   0  0  0  0  0  0  0  0  0  0  0  0
    6.5857  -11.8558   26.5568 C   0  0  0  0  0  0  0  0  0  0  0  0
    7.9621  -11.9400   26.5868 C   0  0  0  0  0  0  0  0  0  0  0  0
    8.6152  -13.1533   26.5215 C   0  0  0  0  0  0  0  0  0  0  0  0
    7.9132  -14.3452   26.4225 C   0  0  0  0  0  0  0  0  0  0  0  0
    8.6081  -15.6461   26.3437 C   0  0  0  0  0  0  0  0  0  0  0  0
    9.5015  -15.7984   25.1388 C   0  0  2  0  0  0  0  0  0  0  0  0
    8.5966  -15.8990   23.9985 N   0  0  0  0  0  0  0  0  0  0  0  0
   10.3357  -16.9979   25.2850 C   0  0  0  0  0  0  0  0  0  0  0  0
   10.1483  -17.9629   24.5024 O   0  0  0  0  0  0  0  0  0  0  0  0
    6.5386  -14.2514   26.3930 C   0  0  0  0  0  0  0  0  0  0  0  0
    5.8781  -13.0351   26.4584 C   0  0  0  0  0  0  0  0  0  0  0  0
   11.3234  -17.1202   26.2448 O   0  0  0  0  0  0  0  0  0  0  0  0
  2  1  1  6
  2  3  1  0
  3  4  1  0
  5  2  1  0
  6  5  2  0
  8  7  1  1
  8  9  1  0
  9  5  1  0
 10  8  1  0
 10 19  1  0
 11 10  2  0
 13 12  1  0
 14 13  2  0
 15 14  1  0
 16 22  1  0
 16 15  2  0
 17 16  1  0
 18 19  1  0
 18 17  1  1
 20 18  1  0
 21 20  2  0
 22 23  2  0
 23 13  1  0
 24 20  1  0
M  END
$$$$
