CAY.pdb
     RDKit          3D

 24 24  0  0  1  0  0  0  0  0999 V2000
    6.2323  -19.4817   20.4929 N   0  0  0  0  0  0  0  0  0  0  0  0
    5.8474  -18.4015   21.3824 C   0  0  1  0  0  0  0  0  0  0  0  0
    5.7673  -18.9463   22.7910 C   0  0  0  0  0  0  0  0  0  0  0  0
    4.3208  -20.0237   22.9770 S   0  0  0  0  0  0  0  0  0  0  0  0
    6.8935  -17.3321   21.2809 C   0  0  0  0  0  0  0  0  0  0  0  0
    8.1222  -17.6140   21.2970 O   0  0  0  0  0  0  0  0  0  0  0  0
    6.9261  -13.6505   20.6973 C   0  0  0  0  0  0  0  0  0  0  0  0
    7.5696  -14.9415   21.1770 C   0  0  2  0  0  0  0  0  0  0  0  0
    6.5577  -15.9576   21.1624 N   0  0  0  0  0  0  0  0  0  0  0  0
    8.2227  -14.7888   22.4869 C   0  0  0  0  0  0  0  0  0  0  0  0
    7.7474  -13.9295   23.2772 O   0  0  0  0  0  0  0  0  0  0  0  0
   10.8068  -14.8959   30.6076 O   0  0  0  0  0  0  0  0  0  0  0  0
   10.3552  -15.0323   29.2997 C   0  0  0  0  0  0  0  0  0  0  0  0
    9.9605  -13.9509   28.5400 C   0  0  0  0  0  0  0  0  0  0  0  0
    9.5145  -14.1007   27.2432 C   0  0  0  0  0  0  0  0  0  0  0  0
    9.4435  -15.3500   26.6454 C   0  0  0  0  0  0  0  0  0  0  0  0
    8.9587  -15.5164   25.2603 C   0  0  0  0  0  0  0  0  0  0  0  0
   10.0153  -15.3067   24.2054 C   0  0  2  0  0  0  0  0  0  0  0  0
    9.3369  -15.5243   22.9319 N   0  0  0  0  0  0  0  0  0  0  0  0
   11.1181  -16.2546   24.4089 C   0  0  0  0  0  0  0  0  0  0  0  0
   12.1583  -15.8551   24.9896 O   0  0  0  0  0  0  0  0  0  0  0  0
    9.8396  -16.4246   27.4119 C   0  0  0  0  0  0  0  0  0  0  0  0
   10.2884  -16.2790   28.7148 C   0  0  0  0  0  0  0  0  0  0  0  0
   11.0699  -17.5722   23.9926 O   0  0  0  0  0  0  0  0  0  0  0  0
  2  1  1  6
  2  3  1  0
  3  4  1  0
  5  2  1  0
  6  5  2  0
  8  7  1  1
  8  9  1  0
  9  5  1  0
 10  8  1  0
 10 19  1  0
 11 10  2  0
 13 12  1  0
 14 13  2  0
 15 14  1  0
 16 22  1  0
 16 15  2  0
 17 16  1  0
 18 19  1  0
 18 17  1  1
 20 18  1  0
 21 20  2  0
 22 23  2  0
 23 13  1  0
 24 20  1  0
M  END
$$$$
