CAY.pdb
     RDKit          3D

 24 24  0  0  1  0  0  0  0  0999 V2000
    6.2744  -19.1896   19.9376 N   0  0  0  0  0  0  0  0  0  0  0  0
    6.0811  -18.2535   21.0296 C   0  0  1  0  0  0  0  0  0  0  0  0
    6.1493  -19.0172   22.3332 C   0  0  0  0  0  0  0  0  0  0  0  0
    5.8124  -17.9176   23.7351 S   0  0  0  0  0  0  0  0  0  0  0  0
    7.1737  -17.2294   20.9515 C   0  0  0  0  0  0  0  0  0  0  0  0
    8.3511  -17.5507   20.6357 O   0  0  0  0  0  0  0  0  0  0  0  0
    7.4423  -13.5358   21.0269 C   0  0  0  0  0  0  0  0  0  0  0  0
    8.0228  -14.9166   21.2866 C   0  0  2  0  0  0  0  0  0  0  0  0
    6.9411  -15.8561   21.2268 N   0  0  0  0  0  0  0  0  0  0  0  0
    8.7787  -14.9783   22.5477 C   0  0  0  0  0  0  0  0  0  0  0  0
    9.8074  -14.2564   22.6452 O   0  0  0  0  0  0  0  0  0  0  0  0
    6.0478  -10.5647   26.9678 O   0  0  0  0  0  0  0  0  0  0  0  0
    6.5776  -11.8292   26.7359 C   0  0  0  0  0  0  0  0  0  0  0  0
    7.9264  -12.0947   26.8475 C   0  0  0  0  0  0  0  0  0  0  0  0
    8.4385  -13.3543   26.6147 C   0  0  0  0  0  0  0  0  0  0  0  0
    7.6158  -14.4119   26.2570 C   0  0  0  0  0  0  0  0  0  0  0  0
    8.1604  -15.7601   25.9984 C   0  0  0  0  0  0  0  0  0  0  0  0
    9.1998  -15.8089   24.9073 C   0  0  2  0  0  0  0  0  0  0  0  0
    8.4478  -15.7783   23.6572 N   0  0  0  0  0  0  0  0  0  0  0  0
   10.0010  -17.0326   25.0361 C   0  0  0  0  0  0  0  0  0  0  0  0
    9.9140  -17.9085   24.1395 O   0  0  0  0  0  0  0  0  0  0  0  0
    6.2697  -14.1373   26.1478 C   0  0  0  0  0  0  0  0  0  0  0  0
    5.7508  -12.8739   26.3808 C   0  0  0  0  0  0  0  0  0  0  0  0
   10.8520  -17.2714   26.0993 O   0  0  0  0  0  0  0  0  0  0  0  0
  2  1  1  6
  2  3  1  0
  3  4  1  0
  5  2  1  0
  6  5  2  0
  8  7  1  1
  8  9  1  0
  9  5  1  0
 10  8  1  0
 10 19  1  0
 11 10  2  0
 13 12  1  0
 14 13  2  0
 15 14  1  0
 16 22  1  0
 16 15  2  0
 17 16  1  0
 18 19  1  0
 18 17  1  1
 20 18  1  0
 21 20  2  0
 22 23  2  0
 23 13  1  0
 24 20  1  0
M  END
$$$$
