CAY.pdb
     RDKit          3D

 24 24  0  0  1  0  0  0  0  0999 V2000
    7.4148  -18.3353   18.3682 N   0  0  0  0  0  0  0  0  0  0  0  0
    6.7455  -17.3778   19.2292 C   0  0  1  0  0  0  0  0  0  0  0  0
    6.3023  -18.0918   20.4865 C   0  0  0  0  0  0  0  0  0  0  0  0
    7.7030  -18.9387   21.2666 S   0  0  0  0  0  0  0  0  0  0  0  0
    7.7255  -16.2889   19.5493 C   0  0  0  0  0  0  0  0  0  0  0  0
    8.9685  -16.4977   19.5226 O   0  0  0  0  0  0  0  0  0  0  0  0
    7.4970  -12.6757   20.4825 C   0  0  0  0  0  0  0  0  0  0  0  0
    8.2521  -13.9854   20.3233 C   0  0  2  0  0  0  0  0  0  0  0  0
    7.3082  -14.9769   19.8963 N   0  0  0  0  0  0  0  0  0  0  0  0
    8.9814  -14.3634   21.5444 C   0  0  0  0  0  0  0  0  0  0  0  0
   10.1582  -13.9314   21.6763 O   0  0  0  0  0  0  0  0  0  0  0  0
    5.6305  -11.0791   27.0648 O   0  0  0  0  0  0  0  0  0  0  0  0
    6.2120  -12.2194   26.5217 C   0  0  0  0  0  0  0  0  0  0  0  0
    5.5440  -13.4238   26.4492 C   0  0  0  0  0  0  0  0  0  0  0  0
    6.1332  -14.5475   25.9077 C   0  0  0  0  0  0  0  0  0  0  0  0
    7.4277  -14.5141   25.4110 C   0  0  0  0  0  0  0  0  0  0  0  0
    8.0658  -15.7166   24.8381 C   0  0  0  0  0  0  0  0  0  0  0  0
    9.1592  -15.4221   23.8427 C   0  0  2  0  0  0  0  0  0  0  0  0
    8.4731  -15.1694   22.5800 N   0  0  0  0  0  0  0  0  0  0  0  0
   10.0723  -16.5684   23.7514 C   0  0  0  0  0  0  0  0  0  0  0  0
   10.0127  -17.3087   22.7378 O   0  0  0  0  0  0  0  0  0  0  0  0
    8.0874  -13.3066   25.4879 C   0  0  0  0  0  0  0  0  0  0  0  0
    7.4997  -12.1754   26.0308 C   0  0  0  0  0  0  0  0  0  0  0  0
   11.0005  -16.8763   24.7289 O   0  0  0  0  0  0  0  0  0  0  0  0
  2  1  1  6
  2  3  1  0
  3  4  1  0
  5  2  1  0
  6  5  2  0
  8  7  1  1
  8  9  1  0
  9  5  1  0
 10  8  1  0
 10 19  1  0
 11 10  2  0
 13 12  1  0
 14 13  2  0
 15 14  1  0
 16 22  1  0
 16 15  2  0
 17 16  1  0
 18 19  1  0
 18 17  1  1
 20 18  1  0
 21 20  2  0
 22 23  2  0
 23 13  1  0
 24 20  1  0
M  END
$$$$
