CAY.pdb
     RDKit          3D

 24 24  0  0  1  0  0  0  0  0999 V2000
    5.5387  -18.7880   20.3088 N   0  0  0  0  0  0  0  0  0  0  0  0
    5.7606  -17.9109   21.4435 C   0  0  1  0  0  0  0  0  0  0  0  0
    6.0436  -18.7636   22.6601 C   0  0  0  0  0  0  0  0  0  0  0  0
    6.1802  -17.7315   24.1447 S   0  0  0  0  0  0  0  0  0  0  0  0
    6.9332  -17.0340   21.1200 C   0  0  0  0  0  0  0  0  0  0  0  0
    7.9867  -17.5087   20.6158 O   0  0  0  0  0  0  0  0  0  0  0  0
    7.6767  -13.4048   21.0087 C   0  0  0  0  0  0  0  0  0  0  0  0
    8.1081  -14.8454   21.2308 C   0  0  2  0  0  0  0  0  0  0  0  0
    6.9184  -15.6351   21.3627 N   0  0  0  0  0  0  0  0  0  0  0  0
    9.0290  -14.9851   22.3702 C   0  0  0  0  0  0  0  0  0  0  0  0
   10.1731  -14.4676   22.2602 O   0  0  0  0  0  0  0  0  0  0  0  0
    5.5348  -11.0479   26.6831 O   0  0  0  0  0  0  0  0  0  0  0  0
    6.3175  -12.1829   26.5026 C   0  0  0  0  0  0  0  0  0  0  0  0
    7.6952  -12.1296   26.4670 C   0  0  0  0  0  0  0  0  0  0  0  0
    8.4596  -13.2638   26.2873 C   0  0  0  0  0  0  0  0  0  0  0  0
    7.8732  -14.5112   26.1341 C   0  0  0  0  0  0  0  0  0  0  0  0
    8.6870  -15.7272   25.9329 C   0  0  0  0  0  0  0  0  0  0  0  0
    9.6121  -15.6629   24.7441 C   0  0  2  0  0  0  0  0  0  0  0  0
    8.7379  -15.6501   23.5759 N   0  0  0  0  0  0  0  0  0  0  0  0
   10.5083  -16.8261   24.7463 C   0  0  0  0  0  0  0  0  0  0  0  0
   11.3656  -16.9262   25.6594 O   0  0  0  0  0  0  0  0  0  0  0  0
    6.4963  -14.5548   26.1708 C   0  0  0  0  0  0  0  0  0  0  0  0
    5.7243  -13.4183   26.3512 C   0  0  0  0  0  0  0  0  0  0  0  0
   10.4561  -17.8233   23.7899 O   0  0  0  0  0  0  0  0  0  0  0  0
  2  1  1  6
  2  3  1  0
  3  4  1  0
  5  2  1  0
  6  5  2  0
  8  7  1  1
  8  9  1  0
  9  5  1  0
 10  8  1  0
 10 19  1  0
 11 10  2  0
 13 12  1  0
 14 13  2  0
 15 14  1  0
 16 22  1  0
 16 15  2  0
 17 16  1  0
 18 19  1  0
 18 17  1  1
 20 18  1  0
 21 20  2  0
 22 23  2  0
 23 13  1  0
 24 20  1  0
M  END
$$$$
