CAY.pdb
     RDKit          3D

 24 24  0  0  1  0  0  0  0  0999 V2000
    7.3419  -14.5175   16.7899 N   0  0  0  0  0  0  0  0  0  0  0  0
    8.2259  -14.1150   17.8683 C   0  0  1  0  0  0  0  0  0  0  0  0
    7.7220  -12.8079   18.4383 C   0  0  0  0  0  0  0  0  0  0  0  0
    8.6379  -12.3723   19.9414 S   0  0  0  0  0  0  0  0  0  0  0  0
    8.2009  -15.1966   18.9065 C   0  0  0  0  0  0  0  0  0  0  0  0
    7.1165  -15.7160   19.2854 O   0  0  0  0  0  0  0  0  0  0  0  0
    9.9382  -17.9472   20.0295 C   0  0  0  0  0  0  0  0  0  0  0  0
    9.3365  -16.6586   20.5665 C   0  0  2  0  0  0  0  0  0  0  0  0
    9.3874  -15.6881   19.5120 N   0  0  0  0  0  0  0  0  0  0  0  0
    9.9917  -16.2079   21.8049 C   0  0  0  0  0  0  0  0  0  0  0  0
   11.1407  -15.6997   21.7033 O   0  0  0  0  0  0  0  0  0  0  0  0
   10.8000  -14.3924   30.5742 O   0  0  0  0  0  0  0  0  0  0  0  0
   10.3589  -14.7040   29.2929 C   0  0  0  0  0  0  0  0  0  0  0  0
    9.8957  -13.7427   28.4192 C   0  0  0  0  0  0  0  0  0  0  0  0
    9.4610  -14.0660   27.1505 C   0  0  0  0  0  0  0  0  0  0  0  0
    9.4712  -15.3767   26.6974 C   0  0  0  0  0  0  0  0  0  0  0  0
    8.9989  -15.7288   25.3430 C   0  0  0  0  0  0  0  0  0  0  0  0
   10.0924  -15.8110   24.3083 C   0  0  2  0  0  0  0  0  0  0  0  0
    9.4406  -16.2973   23.0967 N   0  0  0  0  0  0  0  0  0  0  0  0
   11.1468  -16.7234   24.7684 C   0  0  0  0  0  0  0  0  0  0  0  0
   10.9507  -17.9620   24.6887 O   0  0  0  0  0  0  0  0  0  0  0  0
    9.9354  -16.3304   27.5772 C   0  0  0  0  0  0  0  0  0  0  0  0
   10.3731  -16.0105   28.8524 C   0  0  0  0  0  0  0  0  0  0  0  0
   12.3519  -16.2870   25.2871 O   0  0  0  0  0  0  0  0  0  0  0  0
  2  1  1  6
  2  3  1  0
  3  4  1  0
  5  2  1  0
  6  5  2  0
  8  7  1  6
  8  9  1  0
  9  5  1  0
 10  8  1  0
 10 19  1  0
 11 10  2  0
 13 12  1  0
 14 13  2  0
 15 14  1  0
 16 22  1  0
 16 15  2  0
 17 16  1  0
 18 19  1  0
 18 17  1  1
 20 18  1  0
 21 20  2  0
 22 23  2  0
 23 13  1  0
 24 20  1  0
M  END
$$$$
