CAY.pdb
     RDKit          3D

 24 24  0  0  1  0  0  0  0  0999 V2000
    6.3004  -19.5063   20.5266 N   0  0  0  0  0  0  0  0  0  0  0  0
    6.2258  -18.5416   21.6082 C   0  0  1  0  0  0  0  0  0  0  0  0
    6.5174  -19.2564   22.9087 C   0  0  0  0  0  0  0  0  0  0  0  0
    6.2719  -18.1422   24.3180 S   0  0  0  0  0  0  0  0  0  0  0  0
    7.2479  -17.4773   21.3417 C   0  0  0  0  0  0  0  0  0  0  0  0
    8.3977  -17.7660   20.9128 O   0  0  0  0  0  0  0  0  0  0  0  0
    7.3589  -13.7680   21.2591 C   0  0  0  0  0  0  0  0  0  0  0  0
    8.0188  -15.1179   21.4893 C   0  0  2  0  0  0  0  0  0  0  0  0
    6.9763  -16.1003   21.5566 N   0  0  0  0  0  0  0  0  0  0  0  0
    8.8965  -15.1183   22.6705 C   0  0  0  0  0  0  0  0  0  0  0  0
    9.9351  -14.4057   22.6237 O   0  0  0  0  0  0  0  0  0  0  0  0
    6.0166  -10.6528   26.7758 O   0  0  0  0  0  0  0  0  0  0  0  0
    6.6284  -11.8933   26.6342 C   0  0  0  0  0  0  0  0  0  0  0  0
    5.9070  -13.0667   26.5635 C   0  0  0  0  0  0  0  0  0  0  0  0
    6.5271  -14.2909   26.4228 C   0  0  0  0  0  0  0  0  0  0  0  0
    7.9079  -14.3947   26.3461 C   0  0  0  0  0  0  0  0  0  0  0  0
    8.5768  -15.7038   26.2040 C   0  0  0  0  0  0  0  0  0  0  0  0
    9.5244  -15.7909   25.0345 C   0  0  2  0  0  0  0  0  0  0  0  0
    8.6721  -15.8500   23.8515 N   0  0  0  0  0  0  0  0  0  0  0  0
   10.3676  -16.9860   25.1638 C   0  0  0  0  0  0  0  0  0  0  0  0
   10.2220  -17.9202   24.3362 O   0  0  0  0  0  0  0  0  0  0  0  0
    8.6205  -13.2173   26.4177 C   0  0  0  0  0  0  0  0  0  0  0  0
    8.0021  -11.9854   26.5589 C   0  0  0  0  0  0  0  0  0  0  0  0
   11.3199  -17.1366   26.1548 O   0  0  0  0  0  0  0  0  0  0  0  0
  2  1  1  6
  2  3  1  0
  3  4  1  0
  5  2  1  0
  6  5  2  0
  8  7  1  1
  8  9  1  0
  9  5  1  0
 10  8  1  0
 10 19  1  0
 11 10  2  0
 13 12  1  0
 14 13  2  0
 15 14  1  0
 16 22  1  0
 16 15  2  0
 17 16  1  0
 18 19  1  0
 18 17  1  1
 20 18  1  0
 21 20  2  0
 22 23  2  0
 23 13  1  0
 24 20  1  0
M  END
$$$$
