CAY.pdb
     RDKit          3D

 24 24  0  0  1  0  0  0  0  0999 V2000
    6.5887  -14.1512   18.3652 N   0  0  0  0  0  0  0  0  0  0  0  0
    7.8854  -14.1541   19.0169 C   0  0  1  0  0  0  0  0  0  0  0  0
    8.2293  -12.7337   19.4061 C   0  0  0  0  0  0  0  0  0  0  0  0
    9.8069  -12.6809   20.2983 S   0  0  0  0  0  0  0  0  0  0  0  0
    7.7850  -15.0316   20.2287 C   0  0  0  0  0  0  0  0  0  0  0  0
    6.7782  -14.9896   20.9863 O   0  0  0  0  0  0  0  0  0  0  0  0
    9.1493  -18.2073   21.2574 C   0  0  0  0  0  0  0  0  0  0  0  0
    8.6588  -16.8374   21.6977 C   0  0  2  0  0  0  0  0  0  0  0  0
    8.8101  -15.9478   20.5832 N   0  0  0  0  0  0  0  0  0  0  0  0
    9.3358  -16.3650   22.9160 C   0  0  0  0  0  0  0  0  0  0  0  0
   10.4536  -15.7990   22.7780 O   0  0  0  0  0  0  0  0  0  0  0  0
    5.9020  -10.7556   25.9700 O   0  0  0  0  0  0  0  0  0  0  0  0
    6.5173  -11.9971   26.0853 C   0  0  0  0  0  0  0  0  0  0  0  0
    5.8039  -13.1773   26.0679 C   0  0  0  0  0  0  0  0  0  0  0  0
    6.4274  -14.4025   26.1832 C   0  0  0  0  0  0  0  0  0  0  0  0
    7.8038  -14.5003   26.3221 C   0  0  0  0  0  0  0  0  0  0  0  0
    8.4751  -15.8093   26.4544 C   0  0  0  0  0  0  0  0  0  0  0  0
    9.5480  -16.0613   25.4255 C   0  0  2  0  0  0  0  0  0  0  0  0
    8.8378  -16.4928   24.2260 N   0  0  0  0  0  0  0  0  0  0  0  0
   10.4756  -17.0894   25.9139 C   0  0  0  0  0  0  0  0  0  0  0  0
   10.3512  -18.2656   25.4898 O   0  0  0  0  0  0  0  0  0  0  0  0
    8.5084  -13.3161   26.3387 C   0  0  0  0  0  0  0  0  0  0  0  0
    7.8865  -12.0832   26.2231 C   0  0  0  0  0  0  0  0  0  0  0  0
   11.4856  -16.8278   26.8213 O   0  0  0  0  0  0  0  0  0  0  0  0
  2  1  1  1
  2  3  1  0
  3  4  1  0
  5  2  1  0
  6  5  2  0
  8  7  1  6
  8  9  1  0
  9  5  1  0
 10  8  1  0
 10 19  1  0
 11 10  2  0
 13 12  1  0
 14 13  2  0
 15 14  1  0
 16 22  1  0
 16 15  2  0
 17 16  1  0
 18 19  1  0
 18 17  1  1
 20 18  1  0
 21 20  2  0
 22 23  2  0
 23 13  1  0
 24 20  1  0
M  END
$$$$
