WKK.pdb
     RDKit          3D

 33 34  0  0  1  0  0  0  0  0999 V2000
   24.6641  -18.6630  -17.3040 N   0  0  0  0  0  0  0  0  0  0  0  0
   23.4387  -18.8492  -16.5545 C   0  0  1  0  0  0  0  0  0  0  0  0
   22.2683  -18.4698  -17.4308 C   0  0  0  0  0  0  0  0  0  0  0  0
   22.1005  -16.9978  -17.3456 C   0  0  0  0  0  0  0  0  0  0  0  0
   22.6931  -16.0220  -18.1375 C   0  0  0  0  0  0  0  0  0  0  0  0
   22.2813  -14.8105  -17.7365 N   0  0  0  0  0  0  0  0  0  0  0  0
   21.4399  -14.9742  -16.7086 C   0  0  0  0  0  0  0  0  0  0  0  0
   20.7416  -14.0656  -15.9392 C   0  0  0  0  0  0  0  0  0  0  0  0
   19.9365  -14.5292  -14.9320 C   0  0  0  0  0  0  0  0  0  0  0  0
   19.7793  -15.8725  -14.6361 C   0  0  0  0  0  0  0  0  0  0  0  0
   20.4743  -16.7836  -15.4016 C   0  0  0  0  0  0  0  0  0  0  0  0
   21.2892  -16.3362  -16.4192 C   0  0  0  0  0  0  0  0  0  0  0  0
   23.3682  -20.2216  -16.0570 C   0  0  0  0  0  0  0  0  0  0  0  0
   23.8847  -21.1453  -16.7293 O   0  0  0  0  0  0  0  0  0  0  0  0
   22.7393  -20.5960  -14.8331 N   0  0  0  0  0  0  0  0  0  0  0  0
   22.6869  -21.9112  -14.2853 C   0  0  1  0  0  0  0  0  0  0  0  0
   23.7860  -22.2550  -13.3492 C   0  0  0  0  0  0  0  0  0  0  0  0
   24.5198  -21.0372  -12.8488 C   0  0  0  0  0  0  0  0  0  0  0  0
   25.5447  -21.3925  -11.7959 C   0  0  0  0  0  0  0  0  0  0  0  0
   26.2056  -20.1067  -11.3266 C   0  0  0  0  0  0  0  0  0  0  0  0
   27.2206  -20.3826  -10.3184 N   0  0  0  0  0  0  0  0  0  0  0  0
   21.3610  -22.0496  -13.5743 C   0  0  0  0  0  0  0  0  0  0  0  0
   21.1507  -21.4983  -12.4640 O   0  0  0  0  0  0  0  0  0  0  0  0
   20.2923  -22.8104  -14.1313 N   0  0  0  0  0  0  0  0  0  0  0  0
   19.7898  -24.0227  -13.5169 C   0  0  1  0  0  0  0  0  0  0  0  0
   20.8396  -25.1466  -13.6579 C   0  0  0  0  0  0  0  0  0  0  0  0
   20.2817  -26.3783  -13.0239 C   0  0  0  0  0  0  0  0  0  0  0  0
   21.1883  -27.5622  -12.9674 C   0  0  0  0  0  0  0  0  0  0  0  0
   20.5771  -28.7758  -12.3738 C   0  0  0  0  0  0  0  0  0  0  0  0
   21.3276  -29.9872  -12.4835 N   0  0  0  0  0  0  0  0  0  0  0  0
   19.4720  -23.7922  -12.0858 C   0  0  0  0  0  0  0  0  0  0  0  0
   20.4235  -23.2897  -11.1899 O   0  0  0  0  0  0  0  0  0  0  0  0
   18.3334  -24.0391  -11.6175 O   0  0  0  0  0  0  0  0  0  0  0  0
  2  1  1  6
  3  2  1  0
  3  4  1  0
  4  5  2  0
  5  6  1  0
  7  8  2  0
  7  6  1  0
  9  8  1  0
 10  9  2  0
 11 10  1  0
 11 12  2  0
 12  4  1  0
 12  7  1  0
 13  2  1  0
 14 13  2  0
 15 13  1  0
 16 17  1  1
 16 15  1  0
 18 17  1  0
 18 19  1  0
 20 19  1  0
 21 20  1  0
 22 16  1  0
 23 22  2  0
 24 22  1  0
 25 31  1  0
 25 24  1  0
 25 26  1  1
 27 26  1  0
 28 27  1  0
 29 28  1  0
 30 29  1  0
 31 32  1  0
 33 31  2  0
M  END
$$$$
