WKK.pdb
     RDKit          3D

 33 34  0  0  1  0  0  0  0  0999 V2000
   19.3344  -18.7166  -18.6471 N   0  0  0  0  0  0  0  0  0  0  0  0
   19.5960  -19.0985  -17.2746 C   0  0  1  0  0  0  0  0  0  0  0  0
   18.4182  -18.6903  -16.4214 C   0  0  0  0  0  0  0  0  0  0  0  0
   18.7850  -17.4362  -15.7179 C   0  0  0  0  0  0  0  0  0  0  0  0
   18.7823  -16.1410  -16.2208 C   0  0  0  0  0  0  0  0  0  0  0  0
   19.1804  -15.2897  -15.2643 N   0  0  0  0  0  0  0  0  0  0  0  0
   19.4405  -15.9963  -14.1578 C   0  0  0  0  0  0  0  0  0  0  0  0
   19.8745  -15.6142  -12.9045 C   0  0  0  0  0  0  0  0  0  0  0  0
   20.0584  -16.5745  -11.9446 C   0  0  0  0  0  0  0  0  0  0  0  0
   19.8318  -17.9233  -12.1595 C   0  0  0  0  0  0  0  0  0  0  0  0
   19.3982  -18.3098  -13.4091 C   0  0  0  0  0  0  0  0  0  0  0  0
   19.2076  -17.3581  -14.3877 C   0  0  0  0  0  0  0  0  0  0  0  0
   19.8909  -20.5285  -17.2080 C   0  0  0  0  0  0  0  0  0  0  0  0
   19.0508  -21.3492  -17.6468 O   0  0  0  0  0  0  0  0  0  0  0  0
   21.0933  -21.0714  -16.6668 N   0  0  0  0  0  0  0  0  0  0  0  0
   21.3504  -22.4504  -16.4119 C   0  0  1  0  0  0  0  0  0  0  0  0
   22.7666  -22.8707  -16.5545 C   0  0  0  0  0  0  0  0  0  0  0  0
   22.9581  -24.3455  -16.3095 C   0  0  0  0  0  0  0  0  0  0  0  0
   24.3931  -24.7689  -16.5263 C   0  0  0  0  0  0  0  0  0  0  0  0
   24.4719  -26.2771  -16.3548 C   0  0  0  0  0  0  0  0  0  0  0  0
   25.8426  -26.7463  -16.5097 N   0  0  0  0  0  0  0  0  0  0  0  0
   20.8793  -22.7433  -15.0067 C   0  0  0  0  0  0  0  0  0  0  0  0
   21.4589  -22.2532  -14.0044 O   0  0  0  0  0  0  0  0  0  0  0  0
   19.7582  -23.5872  -14.7569 N   0  0  0  0  0  0  0  0  0  0  0  0
   19.3275  -23.9431  -13.4200 C   0  0  1  0  0  0  0  0  0  0  0  0
   17.8450  -23.5522  -13.2339 C   0  0  0  0  0  0  0  0  0  0  0  0
   17.4404  -23.9324  -11.8476 C   0  0  0  0  0  0  0  0  0  0  0  0
   16.0127  -23.6923  -11.4856 C   0  0  0  0  0  0  0  0  0  0  0  0
   15.7019  -23.8905  -10.0493 C   0  0  0  0  0  0  0  0  0  0  0  0
   14.3579  -23.6217   -9.6442 N   0  0  0  0  0  0  0  0  0  0  0  0
   19.5103  -25.3960  -13.1798 C   0  0  0  0  0  0  0  0  0  0  0  0
   19.7880  -25.9044  -11.9051 O   0  0  0  0  0  0  0  0  0  0  0  0
   19.4234  -26.2323  -14.1124 O   0  0  0  0  0  0  0  0  0  0  0  0
  2  1  1  6
  3  2  1  0
  3  4  1  0
  4  5  2  0
  5  6  1  0
  7  8  2  0
  7  6  1  0
  9  8  1  0
 10  9  2  0
 11 10  1  0
 11 12  2  0
 12  4  1  0
 12  7  1  0
 13  2  1  0
 14 13  2  0
 15 13  1  0
 16 17  1  1
 16 15  1  0
 18 17  1  0
 18 19  1  0
 20 19  1  0
 21 20  1  0
 22 16  1  0
 23 22  2  0
 24 22  1  0
 25 31  1  0
 25 24  1  0
 25 26  1  6
 27 26  1  0
 28 27  1  0
 29 28  1  0
 30 29  1  0
 31 32  1  0
 33 31  2  0
M  END
$$$$
