WKK.pdb
     RDKit          3D

 33 34  0  0  1  0  0  0  0  0999 V2000
   28.2745  -21.5870  -10.5384 N   0  0  0  0  0  0  0  0  0  0  0  0
   27.0842  -20.8941  -10.0898 C   0  0  1  0  0  0  0  0  0  0  0  0
   27.4913  -19.5845   -9.4568 C   0  0  0  0  0  0  0  0  0  0  0  0
   28.4273  -19.8925   -8.3471 C   0  0  0  0  0  0  0  0  0  0  0  0
   29.7313  -20.3641   -8.4338 C   0  0  0  0  0  0  0  0  0  0  0  0
   30.2351  -20.5140   -7.2002 N   0  0  0  0  0  0  0  0  0  0  0  0
   29.2952  -20.1531   -6.3184 C   0  0  0  0  0  0  0  0  0  0  0  0
   29.2952  -20.1173   -4.9386 C   0  0  0  0  0  0  0  0  0  0  0  0
   28.1674  -19.6941   -4.2856 C   0  0  0  0  0  0  0  0  0  0  0  0
   27.0122  -19.2950   -4.9360 C   0  0  0  0  0  0  0  0  0  0  0  0
   27.0071  -19.3289   -6.3136 C   0  0  0  0  0  0  0  0  0  0  0  0
   28.1324  -19.7517   -6.9879 C   0  0  0  0  0  0  0  0  0  0  0  0
   26.1564  -20.7328  -11.2076 C   0  0  0  0  0  0  0  0  0  0  0  0
   26.2334  -19.7081  -11.9259 O   0  0  0  0  0  0  0  0  0  0  0  0
   25.1452  -21.6787  -11.5487 N   0  0  0  0  0  0  0  0  0  0  0  0
   24.3792  -21.6903  -12.7511 C   0  0  1  0  0  0  0  0  0  0  0  0
   24.1375  -23.0314  -13.3389 C   0  0  0  0  0  0  0  0  0  0  0  0
   25.3290  -23.5497  -14.1028 C   0  0  0  0  0  0  0  0  0  0  0  0
   25.0294  -24.8648  -14.7855 C   0  0  0  0  0  0  0  0  0  0  0  0
   26.2904  -25.3253  -15.4984 C   0  0  0  0  0  0  0  0  0  0  0  0
   26.0909  -26.6301  -16.1153 N   0  0  0  0  0  0  0  0  0  0  0  0
   23.0548  -21.0300  -12.4468 C   0  0  0  0  0  0  0  0  0  0  0  0
   22.5127  -21.1358  -11.3172 O   0  0  0  0  0  0  0  0  0  0  0  0
   22.3634  -20.2594  -13.4263 N   0  0  0  0  0  0  0  0  0  0  0  0
   21.1664  -19.5006  -13.1249 C   0  0  1  0  0  0  0  0  0  0  0  0
   21.0049  -18.3604  -14.1541 C   0  0  0  0  0  0  0  0  0  0  0  0
   19.8157  -17.5489  -13.7575 C   0  0  0  0  0  0  0  0  0  0  0  0
   19.4939  -16.3785  -14.6256 C   0  0  0  0  0  0  0  0  0  0  0  0
   18.3175  -15.5914  -14.1838 C   0  0  0  0  0  0  0  0  0  0  0  0
   17.0554  -16.2617  -14.2082 N   0  0  0  0  0  0  0  0  0  0  0  0
   19.9710  -20.3797  -13.1395 C   0  0  0  0  0  0  0  0  0  0  0  0
   18.9010  -20.1857  -12.2575 O   0  0  0  0  0  0  0  0  0  0  0  0
   19.8691  -21.3369  -13.9459 O   0  0  0  0  0  0  0  0  0  0  0  0
  2  1  1  6
  3  2  1  0
  3  4  1  0
  4  5  2  0
  5  6  1  0
  7  8  2  0
  7  6  1  0
  9  8  1  0
 10  9  2  0
 11 10  1  0
 11 12  2  0
 12  4  1  0
 12  7  1  0
 13  2  1  0
 14 13  2  0
 15 13  1  0
 16 17  1  1
 16 15  1  0
 18 17  1  0
 18 19  1  0
 20 19  1  0
 21 20  1  0
 22 16  1  0
 23 22  2  0
 24 22  1  0
 25 31  1  0
 25 24  1  0
 25 26  1  6
 27 26  1  0
 28 27  1  0
 29 28  1  0
 30 29  1  0
 31 32  1  0
 33 31  2  0
M  END
$$$$
