WKK.pdb
     RDKit          3D

 33 34  0  0  1  0  0  0  0  0999 V2000
   27.2898  -19.7403  -10.0483 N   0  0  0  0  0  0  0  0  0  0  0  0
   26.4340  -20.8986   -9.8934 C   0  0  1  0  0  0  0  0  0  0  0  0
   25.7390  -20.8164   -8.5548 C   0  0  0  0  0  0  0  0  0  0  0  0
   26.5701  -19.9652   -7.6675 C   0  0  0  0  0  0  0  0  0  0  0  0
   26.7270  -18.5853   -7.7075 C   0  0  0  0  0  0  0  0  0  0  0  0
   27.5649  -18.2026   -6.7330 N   0  0  0  0  0  0  0  0  0  0  0  0
   27.9543  -19.2945   -6.0641 C   0  0  0  0  0  0  0  0  0  0  0  0
   28.8002  -19.4584   -4.9858 C   0  0  0  0  0  0  0  0  0  0  0  0
   29.0185  -20.7207   -4.4995 C   0  0  0  0  0  0  0  0  0  0  0  0
   28.4335  -21.8568   -5.0322 C   0  0  0  0  0  0  0  0  0  0  0  0
   27.5881  -21.6984   -6.1089 C   0  0  0  0  0  0  0  0  0  0  0  0
   27.3563  -20.4363   -6.6120 C   0  0  0  0  0  0  0  0  0  0  0  0
   25.5086  -20.9828  -11.0216 C   0  0  0  0  0  0  0  0  0  0  0  0
   24.7286  -20.0277  -11.2480 O   0  0  0  0  0  0  0  0  0  0  0  0
   25.4261  -22.0993  -11.9049 N   0  0  0  0  0  0  0  0  0  0  0  0
   24.5492  -22.2214  -13.0224 C   0  0  1  0  0  0  0  0  0  0  0  0
   25.1449  -22.8366  -14.2345 C   0  0  0  0  0  0  0  0  0  0  0  0
   26.3174  -22.0510  -14.7634 C   0  0  0  0  0  0  0  0  0  0  0  0
   26.8510  -22.6370  -16.0508 C   0  0  0  0  0  0  0  0  0  0  0  0
   28.0135  -21.7754  -16.5162 C   0  0  0  0  0  0  0  0  0  0  0  0
   28.5783  -22.2915  -17.7562 N   0  0  0  0  0  0  0  0  0  0  0  0
   23.3623  -23.0420  -12.5751 C   0  0  0  0  0  0  0  0  0  0  0  0
   23.4940  -24.0088  -11.7821 O   0  0  0  0  0  0  0  0  0  0  0  0
   22.0431  -22.7558  -13.0324 N   0  0  0  0  0  0  0  0  0  0  0  0
   20.8682  -23.4145  -12.4984 C   0  0  1  0  0  0  0  0  0  0  0  0
   20.7733  -23.1500  -10.9797 C   0  0  0  0  0  0  0  0  0  0  0  0
   19.5680  -23.8647  -10.4635 C   0  0  0  0  0  0  0  0  0  0  0  0
   19.3312  -23.7856   -8.9923 C   0  0  0  0  0  0  0  0  0  0  0  0
   18.1902  -24.6002   -8.5094 C   0  0  0  0  0  0  0  0  0  0  0  0
   17.9290  -24.5634   -7.1047 N   0  0  0  0  0  0  0  0  0  0  0  0
   19.6418  -22.9339  -13.1817 C   0  0  0  0  0  0  0  0  0  0  0  0
   19.6823  -21.9152  -14.1413 O   0  0  0  0  0  0  0  0  0  0  0  0
   18.5134  -23.4222  -12.9268 O   0  0  0  0  0  0  0  0  0  0  0  0
  2  1  1  6
  3  2  1  0
  3  4  1  0
  4  5  2  0
  5  6  1  0
  7  8  2  0
  7  6  1  0
  9  8  1  0
 10  9  2  0
 11 10  1  0
 11 12  2  0
 12  4  1  0
 12  7  1  0
 13  2  1  0
 14 13  2  0
 15 13  1  0
 16 17  1  6
 16 15  1  0
 18 17  1  0
 18 19  1  0
 20 19  1  0
 21 20  1  0
 22 16  1  0
 23 22  2  0
 24 22  1  0
 25 31  1  0
 25 24  1  0
 25 26  1  1
 27 26  1  0
 28 27  1  0
 29 28  1  0
 30 29  1  0
 31 32  1  0
 33 31  2  0
M  END
$$$$
