WKK.pdb
     RDKit          3D

 33 34  0  0  1  0  0  0  0  0999 V2000
   23.3393  -21.4048  -15.9574 N   0  0  0  0  0  0  0  0  0  0  0  0
   23.2645  -22.5978  -15.1392 C   0  0  1  0  0  0  0  0  0  0  0  0
   24.4548  -22.6274  -14.2097 C   0  0  0  0  0  0  0  0  0  0  0  0
   25.6361  -23.0471  -15.0040 C   0  0  0  0  0  0  0  0  0  0  0  0
   26.6169  -22.2415  -15.5692 C   0  0  0  0  0  0  0  0  0  0  0  0
   27.5117  -23.0090  -16.2083 N   0  0  0  0  0  0  0  0  0  0  0  0
   27.1382  -24.2871  -16.0729 C   0  0  0  0  0  0  0  0  0  0  0  0
   27.7002  -25.4618  -16.5305 C   0  0  0  0  0  0  0  0  0  0  0  0
   27.0872  -26.6506  -16.2330 C   0  0  0  0  0  0  0  0  0  0  0  0
   25.9223  -26.7452  -15.4909 C   0  0  0  0  0  0  0  0  0  0  0  0
   25.3573  -25.5752  -15.0318 C   0  0  0  0  0  0  0  0  0  0  0  0
   25.9596  -24.3696  -15.3209 C   0  0  0  0  0  0  0  0  0  0  0  0
   21.9823  -22.6362  -14.4388 C   0  0  0  0  0  0  0  0  0  0  0  0
   21.5110  -21.5762  -13.9632 O   0  0  0  0  0  0  0  0  0  0  0  0
   21.2096  -23.8201  -14.2523 N   0  0  0  0  0  0  0  0  0  0  0  0
   19.8964  -23.8861  -13.7010 C   0  0  1  0  0  0  0  0  0  0  0  0
   18.7881  -23.7480  -14.6783 C   0  0  0  0  0  0  0  0  0  0  0  0
   18.4885  -22.3089  -15.0114 C   0  0  0  0  0  0  0  0  0  0  0  0
   17.3320  -22.1852  -15.9771 C   0  0  0  0  0  0  0  0  0  0  0  0
   17.1428  -20.7124  -16.3017 C   0  0  0  0  0  0  0  0  0  0  0  0
   16.0927  -20.5305  -17.2952 N   0  0  0  0  0  0  0  0  0  0  0  0
   19.7742  -25.2126  -12.9882 C   0  0  0  0  0  0  0  0  0  0  0  0
   20.1325  -26.2869  -13.5345 O   0  0  0  0  0  0  0  0  0  0  0  0
   19.2479  -25.3032  -11.6668 N   0  0  0  0  0  0  0  0  0  0  0  0
   19.0573  -26.5669  -10.9839 C   0  0  1  0  0  0  0  0  0  0  0  0
   18.5043  -26.3090   -9.5652 C   0  0  0  0  0  0  0  0  0  0  0  0
   19.5606  -25.6007   -8.7824 C   0  0  0  0  0  0  0  0  0  0  0  0
   19.1902  -25.1823   -7.3987 C   0  0  0  0  0  0  0  0  0  0  0  0
   18.0240  -24.2694   -7.3248 C   0  0  0  0  0  0  0  0  0  0  0  0
   17.7573  -23.6766   -6.0519 N   0  0  0  0  0  0  0  0  0  0  0  0
   18.1307  -27.4400  -11.7462 C   0  0  0  0  0  0  0  0  0  0  0  0
   17.1669  -26.9137  -12.6148 O   0  0  0  0  0  0  0  0  0  0  0  0
   18.1726  -28.6908  -11.6435 O   0  0  0  0  0  0  0  0  0  0  0  0
  2  1  1  1
  3  2  1  0
  3  4  1  0
  4  5  2  0
  5  6  1  0
  7  8  2  0
  7  6  1  0
  9  8  1  0
 10  9  2  0
 11 10  1  0
 11 12  2  0
 12  4  1  0
 12  7  1  0
 13  2  1  0
 14 13  2  0
 15 13  1  0
 16 17  1  6
 16 15  1  0
 18 17  1  0
 18 19  1  0
 20 19  1  0
 21 20  1  0
 22 16  1  0
 23 22  2  0
 24 22  1  0
 25 31  1  0
 25 24  1  0
 25 26  1  1
 27 26  1  0
 28 27  1  0
 29 28  1  0
 30 29  1  0
 31 32  1  0
 33 31  2  0
M  END
$$$$
