WKK.pdb
     RDKit          3D

 33 34  0  0  1  0  0  0  0  0999 V2000
   25.3481  -19.2622  -11.2873 N   0  0  0  0  0  0  0  0  0  0  0  0
   26.3004  -20.3176  -11.5651 C   0  0  1  0  0  0  0  0  0  0  0  0
   26.1215  -21.4173  -10.5451 C   0  0  0  0  0  0  0  0  0  0  0  0
   26.2791  -20.8128   -9.1990 C   0  0  0  0  0  0  0  0  0  0  0  0
   25.2891  -20.2981   -8.3710 C   0  0  0  0  0  0  0  0  0  0  0  0
   25.8452  -19.8445   -7.2384 N   0  0  0  0  0  0  0  0  0  0  0  0
   27.1657  -20.0507   -7.3095 C   0  0  0  0  0  0  0  0  0  0  0  0
   28.1878  -19.7738   -6.4242 C   0  0  0  0  0  0  0  0  0  0  0  0
   29.4723  -20.1032   -6.7695 C   0  0  0  0  0  0  0  0  0  0  0  0
   29.8107  -20.7052   -7.9694 C   0  0  0  0  0  0  0  0  0  0  0  0
   28.7937  -20.9837   -8.8567 C   0  0  0  0  0  0  0  0  0  0  0  0
   27.4953  -20.6597   -8.5269 C   0  0  0  0  0  0  0  0  0  0  0  0
   26.1410  -20.7757  -12.9438 C   0  0  0  0  0  0  0  0  0  0  0  0
   25.0168  -20.6913  -13.4924 O   0  0  0  0  0  0  0  0  0  0  0  0
   27.1964  -21.3253  -13.7297 N   0  0  0  0  0  0  0  0  0  0  0  0
   27.1647  -21.5493  -15.1373 C   0  0  1  0  0  0  0  0  0  0  0  0
   28.4878  -21.7427  -15.7810 C   0  0  0  0  0  0  0  0  0  0  0  0
   28.3847  -21.8974  -17.2767 C   0  0  0  0  0  0  0  0  0  0  0  0
   29.7404  -22.0961  -17.9154 C   0  0  0  0  0  0  0  0  0  0  0  0
   29.5494  -22.1520  -19.4223 C   0  0  0  0  0  0  0  0  0  0  0  0
   30.8313  -22.2750  -20.1039 N   0  0  0  0  0  0  0  0  0  0  0  0
   26.3062  -22.7687  -15.3793 C   0  0  0  0  0  0  0  0  0  0  0  0
   26.2998  -23.7368  -14.5771 O   0  0  0  0  0  0  0  0  0  0  0  0
   25.4670  -22.8739  -16.5265 N   0  0  0  0  0  0  0  0  0  0  0  0
   24.0670  -23.2377  -16.4428 C   0  0  1  0  0  0  0  0  0  0  0  0
   23.3293  -22.2435  -15.5195 C   0  0  0  0  0  0  0  0  0  0  0  0
   21.8874  -22.6308  -15.4861 C   0  0  0  0  0  0  0  0  0  0  0  0
   21.1985  -22.5044  -14.1684 C   0  0  0  0  0  0  0  0  0  0  0  0
   19.7848  -22.9516  -14.1694 C   0  0  0  0  0  0  0  0  0  0  0  0
   19.3192  -23.5982  -12.9829 N   0  0  0  0  0  0  0  0  0  0  0  0
   23.4460  -23.2456  -17.7906 C   0  0  0  0  0  0  0  0  0  0  0  0
   23.7987  -22.3109  -18.7715 O   0  0  0  0  0  0  0  0  0  0  0  0
   22.5759  -24.0934  -18.1082 O   0  0  0  0  0  0  0  0  0  0  0  0
  2  1  1  1
  3  2  1  0
  3  4  1  0
  4  5  2  0
  5  6  1  0
  7  8  2  0
  7  6  1  0
  9  8  1  0
 10  9  2  0
 11 10  1  0
 11 12  2  0
 12  4  1  0
 12  7  1  0
 13  2  1  0
 14 13  2  0
 15 13  1  0
 16 17  1  1
 16 15  1  0
 18 17  1  0
 18 19  1  0
 20 19  1  0
 21 20  1  0
 22 16  1  0
 23 22  2  0
 24 22  1  0
 25 31  1  0
 25 24  1  0
 25 26  1  1
 27 26  1  0
 28 27  1  0
 29 28  1  0
 30 29  1  0
 31 32  1  0
 33 31  2  0
M  END
$$$$
