WKK.pdb
     RDKit          3D

 33 34  0  0  1  0  0  0  0  0999 V2000
   26.0571  -19.2044  -11.3382 N   0  0  0  0  0  0  0  0  0  0  0  0
   26.0085  -20.6495  -11.4244 C   0  0  1  0  0  0  0  0  0  0  0  0
   25.4415  -21.1965  -10.1356 C   0  0  0  0  0  0  0  0  0  0  0  0
   26.1745  -20.5579   -9.0144 C   0  0  0  0  0  0  0  0  0  0  0  0
   25.6882  -19.6511   -8.0807 C   0  0  0  0  0  0  0  0  0  0  0  0
   26.6703  -19.3134   -7.2325 N   0  0  0  0  0  0  0  0  0  0  0  0
   27.7773  -19.9751   -7.5902 C   0  0  0  0  0  0  0  0  0  0  0  0
   29.0512  -19.9894   -7.0591 C   0  0  0  0  0  0  0  0  0  0  0  0
   30.0054  -20.7799   -7.6442 C   0  0  0  0  0  0  0  0  0  0  0  0
   29.7648  -21.5758   -8.7511 C   0  0  0  0  0  0  0  0  0  0  0  0
   28.4944  -21.5651   -9.2851 C   0  0  0  0  0  0  0  0  0  0  0  0
   27.5213  -20.7762   -8.7101 C   0  0  0  0  0  0  0  0  0  0  0  0
   25.2471  -21.0479  -12.6067 C   0  0  0  0  0  0  0  0  0  0  0  0
   24.1486  -20.4925  -12.8450 O   0  0  0  0  0  0  0  0  0  0  0  0
   25.6727  -22.0467  -13.5312 N   0  0  0  0  0  0  0  0  0  0  0  0
   24.9854  -22.4391  -14.7171 C   0  0  1  0  0  0  0  0  0  0  0  0
   25.7856  -23.2311  -15.6840 C   0  0  0  0  0  0  0  0  0  0  0  0
   25.8480  -22.5872  -17.0453 C   0  0  0  0  0  0  0  0  0  0  0  0
   27.0357  -21.6608  -17.1744 C   0  0  0  0  0  0  0  0  0  0  0  0
   26.9974  -21.0331  -18.5581 C   0  0  0  0  0  0  0  0  0  0  0  0
   28.0322  -20.0168  -18.6960 N   0  0  0  0  0  0  0  0  0  0  0  0
   23.7765  -23.2394  -14.2922 C   0  0  0  0  0  0  0  0  0  0  0  0
   23.6693  -23.6977  -13.1263 O   0  0  0  0  0  0  0  0  0  0  0  0
   22.7063  -23.5091  -15.1940 N   0  0  0  0  0  0  0  0  0  0  0  0
   21.3402  -23.7053  -14.7529 C   0  0  1  0  0  0  0  0  0  0  0  0
   20.8871  -22.4875  -13.9180 C   0  0  0  0  0  0  0  0  0  0  0  0
   19.4410  -22.6671  -13.5913 C   0  0  0  0  0  0  0  0  0  0  0  0
   19.0556  -22.4686  -12.1634 C   0  0  0  0  0  0  0  0  0  0  0  0
   17.6051  -22.6155  -11.8929 C   0  0  0  0  0  0  0  0  0  0  0  0
   17.1706  -22.3195  -10.5639 N   0  0  0  0  0  0  0  0  0  0  0  0
   20.4368  -23.8973  -15.9144 C   0  0  0  0  0  0  0  0  0  0  0  0
   19.4088  -24.8479  -15.9010 O   0  0  0  0  0  0  0  0  0  0  0  0
   20.5571  -23.2133  -16.9605 O   0  0  0  0  0  0  0  0  0  0  0  0
  2  1  1  1
  3  2  1  0
  3  4  1  0
  4  5  2  0
  5  6  1  0
  7  8  2  0
  7  6  1  0
  9  8  1  0
 10  9  2  0
 11 10  1  0
 11 12  2  0
 12  4  1  0
 12  7  1  0
 13  2  1  0
 14 13  2  0
 15 13  1  0
 16 17  1  6
 16 15  1  0
 18 17  1  0
 18 19  1  0
 20 19  1  0
 21 20  1  0
 22 16  1  0
 23 22  2  0
 24 22  1  0
 25 31  1  0
 25 24  1  0
 25 26  1  6
 27 26  1  0
 28 27  1  0
 29 28  1  0
 30 29  1  0
 31 32  1  0
 33 31  2  0
M  END
$$$$
