WKK.pdb
     RDKit          3D

 33 34  0  0  1  0  0  0  0  0999 V2000
   24.3952  -20.0975  -10.9793 N   0  0  0  0  0  0  0  0  0  0  0  0
   25.7593  -20.3256  -11.4100 C   0  0  1  0  0  0  0  0  0  0  0  0
   26.3734  -21.3960  -10.5389 C   0  0  0  0  0  0  0  0  0  0  0  0
   26.5638  -20.8201   -9.1846 C   0  0  0  0  0  0  0  0  0  0  0  0
   25.5928  -20.5304   -8.2339 C   0  0  0  0  0  0  0  0  0  0  0  0
   26.1768  -20.0200   -7.1401 N   0  0  0  0  0  0  0  0  0  0  0  0
   27.4968  -19.9711   -7.3555 C   0  0  0  0  0  0  0  0  0  0  0  0
   28.5414  -19.5377   -6.5642 C   0  0  0  0  0  0  0  0  0  0  0  0
   29.8188  -19.6070   -7.0550 C   0  0  0  0  0  0  0  0  0  0  0  0
   30.1286  -20.0922   -8.3141 C   0  0  0  0  0  0  0  0  0  0  0  0
   29.0891  -20.5262   -9.1080 C   0  0  0  0  0  0  0  0  0  0  0  0
   27.7973  -20.4643   -8.6314 C   0  0  0  0  0  0  0  0  0  0  0  0
   25.7784  -20.6564  -12.8335 C   0  0  0  0  0  0  0  0  0  0  0  0
   24.8123  -21.2815  -13.3312 O   0  0  0  0  0  0  0  0  0  0  0  0
   26.8418  -20.3119  -13.7190 N   0  0  0  0  0  0  0  0  0  0  0  0
   26.8546  -20.5096  -15.1309 C   0  0  1  0  0  0  0  0  0  0  0  0
   27.9620  -19.8399  -15.8573 C   0  0  0  0  0  0  0  0  0  0  0  0
   27.7211  -18.3636  -16.0423 C   0  0  0  0  0  0  0  0  0  0  0  0
   28.8368  -17.7061  -16.8222 C   0  0  0  0  0  0  0  0  0  0  0  0
   28.6016  -16.2045  -16.8091 C   0  0  0  0  0  0  0  0  0  0  0  0
   29.7071  -15.5003  -17.4452 N   0  0  0  0  0  0  0  0  0  0  0  0
   26.9224  -21.9988  -15.3758 C   0  0  0  0  0  0  0  0  0  0  0  0
   27.5212  -22.7682  -14.5817 O   0  0  0  0  0  0  0  0  0  0  0  0
   26.3109  -22.5954  -16.5166 N   0  0  0  0  0  0  0  0  0  0  0  0
   25.7728  -23.9407  -16.5040 C   0  0  1  0  0  0  0  0  0  0  0  0
   24.4571  -23.9631  -15.6956 C   0  0  0  0  0  0  0  0  0  0  0  0
   23.9036  -25.3487  -15.7574 C   0  0  0  0  0  0  0  0  0  0  0  0
   23.4653  -25.9447  -14.4614 C   0  0  0  0  0  0  0  0  0  0  0  0
   22.3711  -26.9381  -14.5814 C   0  0  0  0  0  0  0  0  0  0  0  0
   22.7469  -28.3146  -14.4991 N   0  0  0  0  0  0  0  0  0  0  0  0
   25.5349  -24.4231  -17.8870 C   0  0  0  0  0  0  0  0  0  0  0  0
   25.7782  -25.7511  -18.2578 O   0  0  0  0  0  0  0  0  0  0  0  0
   25.1042  -23.6581  -18.7847 O   0  0  0  0  0  0  0  0  0  0  0  0
  2  1  1  1
  3  2  1  0
  3  4  1  0
  4  5  2  0
  5  6  1  0
  7  8  2  0
  7  6  1  0
  9  8  1  0
 10  9  2  0
 11 10  1  0
 11 12  2  0
 12  4  1  0
 12  7  1  0
 13  2  1  0
 14 13  2  0
 15 13  1  0
 16 17  1  1
 16 15  1  0
 18 17  1  0
 18 19  1  0
 20 19  1  0
 21 20  1  0
 22 16  1  0
 23 22  2  0
 24 22  1  0
 25 31  1  0
 25 24  1  0
 25 26  1  1
 27 26  1  0
 28 27  1  0
 29 28  1  0
 30 29  1  0
 31 32  1  0
 33 31  2  0
M  END
$$$$
