WKK.pdb
     RDKit          3D

 33 34  0  0  1  0  0  0  0  0999 V2000
   26.4039  -22.1801  -11.8168 N   0  0  0  0  0  0  0  0  0  0  0  0
   25.8229  -21.0087  -11.1935 C   0  0  1  0  0  0  0  0  0  0  0  0
   26.8886  -19.9461  -11.0632 C   0  0  0  0  0  0  0  0  0  0  0  0
   27.9349  -20.4675  -10.1490 C   0  0  0  0  0  0  0  0  0  0  0  0
   29.1517  -21.0485  -10.4843 C   0  0  0  0  0  0  0  0  0  0  0  0
   29.8087  -21.3865   -9.3654 N   0  0  0  0  0  0  0  0  0  0  0  0
   29.0526  -21.0412   -8.3164 C   0  0  0  0  0  0  0  0  0  0  0  0
   29.2563  -21.1643   -6.9568 C   0  0  0  0  0  0  0  0  0  0  0  0
   28.2892  -20.7130   -6.0973 C   0  0  0  0  0  0  0  0  0  0  0  0
   27.1040  -20.1333   -6.5168 C   0  0  0  0  0  0  0  0  0  0  0  0
   26.8959  -20.0081   -7.8733 C   0  0  0  0  0  0  0  0  0  0  0  0
   27.8574  -20.4563   -8.7533 C   0  0  0  0  0  0  0  0  0  0  0  0
   24.6580  -20.5690  -11.9589 C   0  0  0  0  0  0  0  0  0  0  0  0
   24.6189  -19.3948  -12.3966 O   0  0  0  0  0  0  0  0  0  0  0  0
   23.5352  -21.3982  -12.2510 N   0  0  0  0  0  0  0  0  0  0  0  0
   22.6109  -21.2120  -13.3204 C   0  0  1  0  0  0  0  0  0  0  0  0
   23.1974  -21.2529  -14.6830 C   0  0  0  0  0  0  0  0  0  0  0  0
   22.1567  -21.1082  -15.7637 C   0  0  0  0  0  0  0  0  0  0  0  0
   22.7625  -21.2158  -17.1446 C   0  0  0  0  0  0  0  0  0  0  0  0
   21.6444  -21.0711  -18.1639 C   0  0  0  0  0  0  0  0  0  0  0  0
   22.1574  -21.2097  -19.5205 N   0  0  0  0  0  0  0  0  0  0  0  0
   21.5565  -22.2868  -13.1957 C   0  0  0  0  0  0  0  0  0  0  0  0
   21.7505  -23.4503  -13.6310 O   0  0  0  0  0  0  0  0  0  0  0  0
   20.2976  -22.0284  -12.5795 N   0  0  0  0  0  0  0  0  0  0  0  0
   19.3088  -23.0630  -12.3527 C   0  0  1  0  0  0  0  0  0  0  0  0
   18.0845  -22.4580  -11.6314 C   0  0  0  0  0  0  0  0  0  0  0  0
   17.1571  -23.5759  -11.2846 C   0  0  0  0  0  0  0  0  0  0  0  0
   15.9580  -23.2136  -10.4736 C   0  0  0  0  0  0  0  0  0  0  0  0
   15.0889  -24.3607  -10.1165 C   0  0  0  0  0  0  0  0  0  0  0  0
   13.8891  -24.0544   -9.4029 N   0  0  0  0  0  0  0  0  0  0  0  0
   18.8951  -23.6830  -13.6359 C   0  0  0  0  0  0  0  0  0  0  0  0
   18.5007  -22.9112  -14.7355 O   0  0  0  0  0  0  0  0  0  0  0  0
   18.8816  -24.9292  -13.7893 O   0  0  0  0  0  0  0  0  0  0  0  0
  2  1  1  6
  3  2  1  0
  3  4  1  0
  4  5  2  0
  5  6  1  0
  7  8  2  0
  7  6  1  0
  9  8  1  0
 10  9  2  0
 11 10  1  0
 11 12  2  0
 12  4  1  0
 12  7  1  0
 13  2  1  0
 14 13  2  0
 15 13  1  0
 16 17  1  6
 16 15  1  0
 18 17  1  0
 18 19  1  0
 20 19  1  0
 21 20  1  0
 22 16  1  0
 23 22  2  0
 24 22  1  0
 25 31  1  0
 25 24  1  0
 25 26  1  6
 27 26  1  0
 28 27  1  0
 29 28  1  0
 30 29  1  0
 31 32  1  0
 33 31  2  0
M  END
$$$$
