WKK.pdb
     RDKit          3D

 33 34  0  0  1  0  0  0  0  0999 V2000
   27.5200  -19.3469   -9.4763 N   0  0  0  0  0  0  0  0  0  0  0  0
   26.7296  -20.5521   -9.6204 C   0  0  1  0  0  0  0  0  0  0  0  0
   26.1868  -20.9445   -8.2665 C   0  0  0  0  0  0  0  0  0  0  0  0
   26.8879  -20.1264   -7.2459 C   0  0  0  0  0  0  0  0  0  0  0  0
   26.6378  -18.8075   -6.8874 C   0  0  0  0  0  0  0  0  0  0  0  0
   27.4936  -18.4366   -5.9241 N   0  0  0  0  0  0  0  0  0  0  0  0
   28.2897  -19.4768   -5.6492 C   0  0  0  0  0  0  0  0  0  0  0  0
   29.3264  -19.6280   -4.7506 C   0  0  0  0  0  0  0  0  0  0  0  0
   29.9768  -20.8322   -4.6843 C   0  0  0  0  0  0  0  0  0  0  0  0
   29.6519  -21.9209   -5.4753 C   0  0  0  0  0  0  0  0  0  0  0  0
   28.6174  -21.7750   -6.3740 C   0  0  0  0  0  0  0  0  0  0  0  0
   27.9513  -20.5711   -6.4551 C   0  0  0  0  0  0  0  0  0  0  0  0
   25.6872  -20.3417  -10.6230 C   0  0  0  0  0  0  0  0  0  0  0  0
   24.8223  -19.4543  -10.4320 O   0  0  0  0  0  0  0  0  0  0  0  0
   25.5792  -21.0904  -11.8318 N   0  0  0  0  0  0  0  0  0  0  0  0
   24.5972  -20.9044  -12.8485 C   0  0  1  0  0  0  0  0  0  0  0  0
   25.1147  -20.8970  -14.2395 C   0  0  0  0  0  0  0  0  0  0  0  0
   26.5438  -21.3679  -14.3259 C   0  0  0  0  0  0  0  0  0  0  0  0
   27.1019  -21.2149  -15.7225 C   0  0  0  0  0  0  0  0  0  0  0  0
   28.5539  -21.6639  -15.7032 C   0  0  0  0  0  0  0  0  0  0  0  0
   29.1262  -21.6285  -17.0426 N   0  0  0  0  0  0  0  0  0  0  0  0
   23.5792  -22.0105  -12.6980 C   0  0  0  0  0  0  0  0  0  0  0  0
   23.9285  -23.2120  -12.5751 O   0  0  0  0  0  0  0  0  0  0  0  0
   22.1799  -21.7397  -12.6889 N   0  0  0  0  0  0  0  0  0  0  0  0
   21.1819  -22.7770  -12.5232 C   0  0  1  0  0  0  0  0  0  0  0  0
   19.9353  -22.1878  -11.8273 C   0  0  0  0  0  0  0  0  0  0  0  0
   19.0312  -23.3208  -11.4684 C   0  0  0  0  0  0  0  0  0  0  0  0
   17.6781  -22.9518  -10.9586 C   0  0  0  0  0  0  0  0  0  0  0  0
   16.8804  -24.0944  -10.4518 C   0  0  0  0  0  0  0  0  0  0  0  0
   15.5906  -23.7857   -9.9190 N   0  0  0  0  0  0  0  0  0  0  0  0
   20.8102  -23.3612  -13.8356 C   0  0  0  0  0  0  0  0  0  0  0  0
   20.4535  -24.7085  -13.9696 O   0  0  0  0  0  0  0  0  0  0  0  0
   20.8002  -22.6696  -14.8836 O   0  0  0  0  0  0  0  0  0  0  0  0
  2  1  1  1
  3  2  1  0
  3  4  1  0
  4  5  2  0
  5  6  1  0
  7  8  2  0
  7  6  1  0
  9  8  1  0
 10  9  2  0
 11 10  1  0
 11 12  2  0
 12  4  1  0
 12  7  1  0
 13  2  1  0
 14 13  2  0
 15 13  1  0
 16 17  1  6
 16 15  1  0
 18 17  1  0
 18 19  1  0
 20 19  1  0
 21 20  1  0
 22 16  1  0
 23 22  2  0
 24 22  1  0
 25 31  1  0
 25 24  1  0
 25 26  1  6
 27 26  1  0
 28 27  1  0
 29 28  1  0
 30 29  1  0
 31 32  1  0
 33 31  2  0
M  END
$$$$
