WKK.pdb
     RDKit          3D

 33 34  0  0  1  0  0  0  0  0999 V2000
   25.4451  -20.2243  -16.5928 N   0  0  0  0  0  0  0  0  0  0  0  0
   24.2282  -19.8031  -15.9297 C   0  0  1  0  0  0  0  0  0  0  0  0
   23.1075  -19.7694  -16.9419 C   0  0  0  0  0  0  0  0  0  0  0  0
   23.2645  -18.5324  -17.7465 C   0  0  0  0  0  0  0  0  0  0  0  0
   24.1439  -18.3011  -18.7971 C   0  0  0  0  0  0  0  0  0  0  0  0
   23.9715  -17.0535  -19.2574 N   0  0  0  0  0  0  0  0  0  0  0  0
   23.0065  -16.4714  -18.5354 C   0  0  0  0  0  0  0  0  0  0  0  0
   22.4484  -15.2104  -18.5951 C   0  0  0  0  0  0  0  0  0  0  0  0
   21.4538  -14.8824  -17.7115 C   0  0  0  0  0  0  0  0  0  0  0  0
   20.9687  -15.7520  -16.7495 C   0  0  0  0  0  0  0  0  0  0  0  0
   21.5227  -17.0122  -16.6859 C   0  0  0  0  0  0  0  0  0  0  0  0
   22.5243  -17.3603  -17.5665 C   0  0  0  0  0  0  0  0  0  0  0  0
   23.9558  -20.6816  -14.7938 C   0  0  0  0  0  0  0  0  0  0  0  0
   24.0226  -21.9240  -14.9491 O   0  0  0  0  0  0  0  0  0  0  0  0
   23.6111  -20.2176  -13.4902 N   0  0  0  0  0  0  0  0  0  0  0  0
   23.3533  -21.0343  -12.3504 C   0  0  1  0  0  0  0  0  0  0  0  0
   23.9265  -20.5431  -11.0727 C   0  0  0  0  0  0  0  0  0  0  0  0
   25.3410  -20.0465  -11.2281 C   0  0  0  0  0  0  0  0  0  0  0  0
   26.2912  -21.1637  -11.5945 C   0  0  0  0  0  0  0  0  0  0  0  0
   27.6904  -20.5792  -11.6986 C   0  0  0  0  0  0  0  0  0  0  0  0
   28.6630  -21.6147  -12.0220 N   0  0  0  0  0  0  0  0  0  0  0  0
   21.8535  -21.1551  -12.2137 C   0  0  0  0  0  0  0  0  0  0  0  0
   21.2526  -20.7441  -11.1886 O   0  0  0  0  0  0  0  0  0  0  0  0
   21.0559  -21.7394  -13.2402 N   0  0  0  0  0  0  0  0  0  0  0  0
   19.6198  -21.8938  -13.1248 C   0  0  1  0  0  0  0  0  0  0  0  0
   19.0137  -22.1474  -14.5225 C   0  0  0  0  0  0  0  0  0  0  0  0
   17.5266  -22.1089  -14.3920 C   0  0  0  0  0  0  0  0  0  0  0  0
   16.7458  -22.4212  -15.6247 C   0  0  0  0  0  0  0  0  0  0  0  0
   15.2796  -22.2527  -15.4820 C   0  0  0  0  0  0  0  0  0  0  0  0
   14.4911  -22.5119  -16.6455 N   0  0  0  0  0  0  0  0  0  0  0  0
   19.2848  -23.0119  -12.2084 C   0  0  0  0  0  0  0  0  0  0  0  0
   18.2529  -22.9114  -11.2674 O   0  0  0  0  0  0  0  0  0  0  0  0
   19.9147  -24.0977  -12.2389 O   0  0  0  0  0  0  0  0  0  0  0  0
  2  1  1  6
  3  2  1  0
  3  4  1  0
  4  5  2  0
  5  6  1  0
  7  8  2  0
  7  6  1  0
  9  8  1  0
 10  9  2  0
 11 10  1  0
 11 12  2  0
 12  4  1  0
 12  7  1  0
 13  2  1  0
 14 13  2  0
 15 13  1  0
 16 17  1  1
 16 15  1  0
 18 17  1  0
 18 19  1  0
 20 19  1  0
 21 20  1  0
 22 16  1  0
 23 22  2  0
 24 22  1  0
 25 31  1  0
 25 24  1  0
 25 26  1  6
 27 26  1  0
 28 27  1  0
 29 28  1  0
 30 29  1  0
 31 32  1  0
 33 31  2  0
M  END
$$$$
