WKK.pdb
     RDKit          3D

 33 34  0  0  1  0  0  0  0  0999 V2000
   22.4332  -15.6658  -17.0672 N   0  0  0  0  0  0  0  0  0  0  0  0
   23.1333  -16.5855  -17.9401 C   0  0  1  0  0  0  0  0  0  0  0  0
   24.0087  -15.7933  -18.8823 C   0  0  0  0  0  0  0  0  0  0  0  0
   23.1472  -15.2879  -19.9798 C   0  0  0  0  0  0  0  0  0  0  0  0
   21.7606  -15.3206  -20.0630 C   0  0  0  0  0  0  0  0  0  0  0  0
   21.3692  -14.7619  -21.2174 N   0  0  0  0  0  0  0  0  0  0  0  0
   22.4618  -14.3689  -21.8831 C   0  0  0  0  0  0  0  0  0  0  0  0
   22.6189  -13.7462  -23.1049 C   0  0  0  0  0  0  0  0  0  0  0  0
   23.8841  -13.4569  -23.5444 C   0  0  0  0  0  0  0  0  0  0  0  0
   25.0296  -13.7560  -22.8267 C   0  0  0  0  0  0  0  0  0  0  0  0
   24.8780  -14.3776  -21.6062 C   0  0  0  0  0  0  0  0  0  0  0  0
   23.6131  -14.6765  -21.1474 C   0  0  0  0  0  0  0  0  0  0  0  0
   23.8757  -17.5573  -17.1396 C   0  0  0  0  0  0  0  0  0  0  0  0
   24.7163  -17.1493  -16.3037 O   0  0  0  0  0  0  0  0  0  0  0  0
   23.7098  -18.9698  -17.2428 N   0  0  0  0  0  0  0  0  0  0  0  0
   24.3451  -19.9506  -16.4260 C   0  0  1  0  0  0  0  0  0  0  0  0
   23.4303  -20.8002  -15.6236 C   0  0  0  0  0  0  0  0  0  0  0  0
   22.6773  -20.0133  -14.5817 C   0  0  0  0  0  0  0  0  0  0  0  0
   21.6657  -20.8692  -13.8541 C   0  0  0  0  0  0  0  0  0  0  0  0
   20.9085  -19.9812  -12.8802 C   0  0  0  0  0  0  0  0  0  0  0  0
   19.9496  -20.7588  -12.1065 N   0  0  0  0  0  0  0  0  0  0  0  0
   25.1732  -20.8264  -17.3369 C   0  0  0  0  0  0  0  0  0  0  0  0
   24.6954  -21.3110  -18.3942 O   0  0  0  0  0  0  0  0  0  0  0  0
   26.5306  -21.1408  -17.0372 N   0  0  0  0  0  0  0  0  0  0  0  0
   27.3499  -21.9739  -17.8941 C   0  0  1  0  0  0  0  0  0  0  0  0
   28.8222  -21.8972  -17.4342 C   0  0  0  0  0  0  0  0  0  0  0  0
   29.6676  -22.5234  -18.4940 C   0  0  0  0  0  0  0  0  0  0  0  0
   31.1415  -22.5060  -18.2611 C   0  0  0  0  0  0  0  0  0  0  0  0
   31.9490  -23.0051  -19.4002 C   0  0  0  0  0  0  0  0  0  0  0  0
   33.3691  -22.9288  -19.2577 N   0  0  0  0  0  0  0  0  0  0  0  0
   26.8754  -23.3796  -17.8675 C   0  0  0  0  0  0  0  0  0  0  0  0
   26.8762  -24.1810  -19.0156 O   0  0  0  0  0  0  0  0  0  0  0  0
   26.4521  -23.9104  -16.8111 O   0  0  0  0  0  0  0  0  0  0  0  0
  2  1  1  1
  3  2  1  0
  3  4  1  0
  4  5  2  0
  5  6  1  0
  7  8  2  0
  7  6  1  0
  9  8  1  0
 10  9  2  0
 11 10  1  0
 11 12  2  0
 12  4  1  0
 12  7  1  0
 13  2  1  0
 14 13  2  0
 15 13  1  0
 16 17  1  6
 16 15  1  0
 18 17  1  0
 18 19  1  0
 20 19  1  0
 21 20  1  0
 22 16  1  0
 23 22  2  0
 24 22  1  0
 25 31  1  0
 25 24  1  0
 25 26  1  1
 27 26  1  0
 28 27  1  0
 29 28  1  0
 30 29  1  0
 31 32  1  0
 33 31  2  0
M  END
$$$$
