FQS.pdb
     RDKit          3D

 27 27  0  0  1  0  0  0  0  0999 V2000
   24.9995  -11.1149  -17.8071 N   0  0  0  0  0  0  0  0  0  0  0  0
   24.8176  -10.0848  -16.8177 C   0  0  1  0  0  0  0  0  0  0  0  0
   26.1281   -9.2705  -16.6935 C   0  0  0  0  0  0  0  0  0  0  0  0
   27.1997  -10.2757  -16.4198 C   0  0  0  0  0  0  0  0  0  0  0  0
   28.1614  -10.6431  -17.3129 C   0  0  0  0  0  0  0  0  0  0  0  0
   29.1135  -11.6134  -16.9763 C   0  0  0  0  0  0  0  0  0  0  0  0
   29.1215  -12.2302  -15.7437 C   0  0  0  0  0  0  0  0  0  0  0  0
   28.1537  -11.8634  -14.8381 C   0  0  0  0  0  0  0  0  0  0  0  0
   27.2212  -10.9145  -15.1684 C   0  0  0  0  0  0  0  0  0  0  0  0
   23.6692   -9.2176  -16.9792 C   0  0  0  0  0  0  0  0  0  0  0  0
   23.4217   -8.8239  -18.1786 O   0  0  0  0  0  0  0  0  0  0  0  0
   18.5320   -8.8040  -13.6341 N   0  0  0  0  0  0  0  0  0  0  0  0
   18.7838   -9.8018  -14.6121 C   0  0  0  0  0  0  0  0  0  0  0  0
   18.0606  -10.8189  -14.6398 O   0  0  0  0  0  0  0  0  0  0  0  0
   19.8870   -9.6338  -15.5836 C   0  0  0  0  0  0  0  0  0  0  0  0
   20.5472   -8.3224  -15.3096 C   0  0  0  0  0  0  0  0  0  0  0  0
   21.6088   -7.9306  -16.3205 C   0  0  2  0  0  0  0  0  0  0  0  0
   22.7798   -8.7424  -15.9929 N   0  0  0  0  0  0  0  0  0  0  0  0
   21.8967   -6.5011  -16.3202 C   0  0  0  0  0  0  0  0  0  0  0  0
   22.4979   -5.9102  -15.3860 O   0  0  0  0  0  0  0  0  0  0  0  0
   21.4438   -4.2544  -19.7121 O   0  0  0  0  0  0  0  0  0  0  0  0
   22.3483   -3.7546  -18.7666 C   0  0  0  0  0  0  0  0  0  0  0  0
   21.8598   -4.2155  -17.4123 C   0  0  2  0  0  0  0  0  0  0  0  0
   21.5222   -5.6136  -17.3979 N   0  0  0  0  0  0  0  0  0  0  0  0
   20.7155   -3.3751  -17.0502 C   0  0  0  0  0  0  0  0  0  0  0  0
   20.8171   -1.9960  -16.9195 O   0  0  0  0  0  0  0  0  0  0  0  0
   19.5899   -3.9066  -16.8484 O   0  0  0  0  0  0  0  0  0  0  0  0
  2  1  1  6
  3  2  1  0
  4  9  2  0
  4  3  1  0
  5  4  1  0
  6  7  1  0
  6  5  2  0
  7  8  2  0
  8  9  1  0
 10 11  2  0
 10  2  1  0
 13 12  1  0
 14 13  2  0
 15 13  1  0
 17 16  1  1
 16 15  1  0
 17 18  1  0
 18 10  1  0
 19 17  1  0
 20 19  2  0
 22 21  1  0
 23 22  1  6
 23 24  1  0
 24 19  1  0
 25 26  1  0
 25 23  1  0
 27 25  2  0
M  END
$$$$
