FQS.pdb
     RDKit          3D

 27 27  0  0  1  0  0  0  0  0999 V2000
   28.9121  -21.2432   -9.1047 N   0  0  0  0  0  0  0  0  0  0  0  0
   27.5610  -20.7459   -9.0831 C   0  0  1  0  0  0  0  0  0  0  0  0
   27.5448  -19.3662   -8.3815 C   0  0  0  0  0  0  0  0  0  0  0  0
   28.0173  -19.6205   -6.9867 C   0  0  0  0  0  0  0  0  0  0  0  0
   28.8146  -20.6627   -6.6185 C   0  0  0  0  0  0  0  0  0  0  0  0
   29.1890  -20.8357   -5.2801 C   0  0  0  0  0  0  0  0  0  0  0  0
   28.7751  -19.9710   -4.2898 C   0  0  0  0  0  0  0  0  0  0  0  0
   27.9705  -18.9173   -4.6552 C   0  0  0  0  0  0  0  0  0  0  0  0
   27.6033  -18.7490   -5.9651 C   0  0  0  0  0  0  0  0  0  0  0  0
   26.8586  -20.7042  -10.3487 C   0  0  0  0  0  0  0  0  0  0  0  0
   27.5938  -20.7081  -11.4043 O   0  0  0  0  0  0  0  0  0  0  0  0
   25.3601  -24.5851  -13.2003 N   0  0  0  0  0  0  0  0  0  0  0  0
   24.8508  -23.6946  -14.1816 C   0  0  0  0  0  0  0  0  0  0  0  0
   24.4545  -24.1565  -15.2714 O   0  0  0  0  0  0  0  0  0  0  0  0
   24.7908  -22.2410  -13.9117 C   0  0  0  0  0  0  0  0  0  0  0  0
   25.2972  -22.0078  -12.5261 C   0  0  0  0  0  0  0  0  0  0  0  0
   24.9001  -20.6704  -11.9294 C   0  0  2  0  0  0  0  0  0  0  0  0
   25.4682  -20.6587  -10.5823 N   0  0  0  0  0  0  0  0  0  0  0  0
   23.4588  -20.4490  -11.9345 C   0  0  0  0  0  0  0  0  0  0  0  0
   22.6830  -20.8804  -11.0426 O   0  0  0  0  0  0  0  0  0  0  0  0
   21.7159  -18.9703  -15.1963 O   0  0  0  0  0  0  0  0  0  0  0  0
   20.8921  -18.6297  -14.1159 C   0  0  0  0  0  0  0  0  0  0  0  0
   21.3548  -19.4579  -12.9391 C   0  0  2  0  0  0  0  0  0  0  0  0
   22.7713  -19.7065  -12.9667 N   0  0  0  0  0  0  0  0  0  0  0  0
   20.5830  -20.7033  -12.9495 C   0  0  0  0  0  0  0  0  0  0  0  0
   19.2278  -20.7413  -12.6470 O   0  0  0  0  0  0  0  0  0  0  0  0
   21.1536  -21.7887  -13.2434 O   0  0  0  0  0  0  0  0  0  0  0  0
  2  1  1  6
  3  2  1  0
  4  9  2  0
  4  3  1  0
  5  4  1  0
  6  7  1  0
  6  5  2  0
  7  8  2  0
  8  9  1  0
 10 11  2  0
 10  2  1  0
 13 12  1  0
 14 13  2  0
 15 13  1  0
 17 16  1  1
 16 15  1  0
 17 18  1  0
 18 10  1  0
 19 17  1  0
 20 19  2  0
 22 21  1  0
 23 22  1  6
 23 24  1  0
 24 19  1  0
 25 26  1  0
 25 23  1  0
 27 25  2  0
M  END
$$$$
