FQS.pdb
     RDKit          3D

 27 27  0  0  1  0  0  0  0  0999 V2000
   25.0142  -20.3259   -7.2820 N   0  0  0  0  0  0  0  0  0  0  0  0
   26.0622  -20.1532   -8.2541 C   0  0  1  0  0  0  0  0  0  0  0  0
   27.2913  -20.9887   -7.8215 C   0  0  0  0  0  0  0  0  0  0  0  0
   27.7793  -20.3584   -6.5574 C   0  0  0  0  0  0  0  0  0  0  0  0
   27.7873  -20.9720   -5.3405 C   0  0  0  0  0  0  0  0  0  0  0  0
   28.2421  -20.2934   -4.2029 C   0  0  0  0  0  0  0  0  0  0  0  0
   28.6970  -18.9938   -4.2627 C   0  0  0  0  0  0  0  0  0  0  0  0
   28.6916  -18.3693   -5.4879 C   0  0  0  0  0  0  0  0  0  0  0  0
   28.2452  -19.0334   -6.6009 C   0  0  0  0  0  0  0  0  0  0  0  0
   25.7170  -20.3978   -9.6390 C   0  0  0  0  0  0  0  0  0  0  0  0
   24.8072  -21.2829   -9.8476 O   0  0  0  0  0  0  0  0  0  0  0  0
   27.0709  -16.7809  -14.4376 N   0  0  0  0  0  0  0  0  0  0  0  0
   27.6426  -18.0501  -14.7159 C   0  0  0  0  0  0  0  0  0  0  0  0
   28.5247  -18.1375  -15.5947 O   0  0  0  0  0  0  0  0  0  0  0  0
   27.1977  -19.2491  -13.9717 C   0  0  0  0  0  0  0  0  0  0  0  0
   26.1897  -18.8153  -12.9584 C   0  0  0  0  0  0  0  0  0  0  0  0
   25.6251  -19.9414  -12.1127 C   0  0  2  0  0  0  0  0  0  0  0  0
   26.2475  -19.7935  -10.7980 N   0  0  0  0  0  0  0  0  0  0  0  0
   25.8475  -21.2593  -12.6958 C   0  0  0  0  0  0  0  0  0  0  0  0
   26.9220  -21.9033  -12.5766 O   0  0  0  0  0  0  0  0  0  0  0  0
   22.8096  -23.1862  -14.5791 O   0  0  0  0  0  0  0  0  0  0  0  0
   23.8122  -24.0733  -14.1670 C   0  0  0  0  0  0  0  0  0  0  0  0
   25.0832  -23.2646  -14.0423 C   0  0  2  0  0  0  0  0  0  0  0  0
   24.8522  -21.9649  -13.4711 N   0  0  0  0  0  0  0  0  0  0  0  0
   25.6779  -23.1744  -15.3784 C   0  0  0  0  0  0  0  0  0  0  0  0
   26.1354  -24.2912  -16.0660 O   0  0  0  0  0  0  0  0  0  0  0  0
   25.7839  -22.0503  -15.9397 O   0  0  0  0  0  0  0  0  0  0  0  0
  2  1  1  1
  3  2  1  0
  4  9  2  0
  4  3  1  0
  5  4  1  0
  6  7  1  0
  6  5  2  0
  7  8  2  0
  8  9  1  0
 10 11  2  0
 10  2  1  0
 13 12  1  0
 14 13  2  0
 15 13  1  0
 17 16  1  6
 16 15  1  0
 17 18  1  0
 18 10  1  0
 19 17  1  0
 20 19  2  0
 22 21  1  0
 23 22  1  6
 23 24  1  0
 24 19  1  0
 25 26  1  0
 25 23  1  0
 27 25  2  0
M  END
$$$$
