FQS.pdb
     RDKit          3D

 27 27  0  0  1  0  0  0  0  0999 V2000
   28.8015  -20.5860  -12.0722 N   0  0  0  0  0  0  0  0  0  0  0  0
   27.5562  -21.0660  -11.5319 C   0  0  1  0  0  0  0  0  0  0  0  0
   27.5789  -20.8997   -9.9931 C   0  0  0  0  0  0  0  0  0  0  0  0
   28.9314  -21.3652   -9.5599 C   0  0  0  0  0  0  0  0  0  0  0  0
   29.4815  -21.1124   -8.3389 C   0  0  0  0  0  0  0  0  0  0  0  0
   30.7683  -21.5696   -8.0284 C   0  0  0  0  0  0  0  0  0  0  0  0
   31.5245  -22.2868   -8.9303 C   0  0  0  0  0  0  0  0  0  0  0  0
   30.9746  -22.5453  -10.1641 C   0  0  0  0  0  0  0  0  0  0  0  0
   29.7156  -22.0965  -10.4680 C   0  0  0  0  0  0  0  0  0  0  0  0
   26.3419  -20.5237  -12.1049 C   0  0  0  0  0  0  0  0  0  0  0  0
   26.4366  -19.3515  -12.6262 O   0  0  0  0  0  0  0  0  0  0  0  0
   25.3056  -21.0814  -16.9215 N   0  0  0  0  0  0  0  0  0  0  0  0
   26.2313  -20.4481  -16.0513 C   0  0  0  0  0  0  0  0  0  0  0  0
   27.3474  -20.1099  -16.4966 O   0  0  0  0  0  0  0  0  0  0  0  0
   25.8739  -20.1929  -14.6384 C   0  0  0  0  0  0  0  0  0  0  0  0
   24.4740  -20.6673  -14.4238 C   0  0  0  0  0  0  0  0  0  0  0  0
   23.9863  -20.5568  -12.9913 C   0  0  2  0  0  0  0  0  0  0  0  0
   25.0606  -21.1102  -12.1683 N   0  0  0  0  0  0  0  0  0  0  0  0
   22.7081  -21.2230  -12.7709 C   0  0  0  0  0  0  0  0  0  0  0  0
   22.5898  -22.4613  -12.5806 O   0  0  0  0  0  0  0  0  0  0  0  0
   19.3802  -19.4535  -11.2640 O   0  0  0  0  0  0  0  0  0  0  0  0
   19.0356  -20.2414  -12.3697 C   0  0  0  0  0  0  0  0  0  0  0  0
   20.1811  -21.2024  -12.5919 C   0  0  2  0  0  0  0  0  0  0  0  0
   21.4416  -20.5269  -12.7459 N   0  0  0  0  0  0  0  0  0  0  0  0
   19.8508  -22.0134  -13.7666 C   0  0  0  0  0  0  0  0  0  0  0  0
   18.8840  -23.0103  -13.7344 O   0  0  0  0  0  0  0  0  0  0  0  0
   20.4549  -21.8110  -14.8547 O   0  0  0  0  0  0  0  0  0  0  0  0
  2  1  1  6
  3  2  1  0
  4  9  2  0
  4  3  1  0
  5  4  1  0
  6  7  1  0
  6  5  2  0
  7  8  2  0
  8  9  1  0
 10 11  2  0
 10  2  1  0
 13 12  1  0
 14 13  2  0
 15 13  1  0
 17 16  1  6
 16 15  1  0
 17 18  1  0
 18 10  1  0
 19 17  1  0
 20 19  2  0
 22 21  1  0
 23 22  1  6
 23 24  1  0
 24 19  1  0
 25 26  1  0
 25 23  1  0
 27 25  2  0
M  END
$$$$
