FQS.pdb
     RDKit          3D

 27 27  0  0  1  0  0  0  0  0999 V2000
   27.8860  -21.7065  -10.0108 N   0  0  0  0  0  0  0  0  0  0  0  0
   26.7019  -20.8990   -9.8721 C   0  0  1  0  0  0  0  0  0  0  0  0
   27.0860  -19.5539   -9.2096 C   0  0  0  0  0  0  0  0  0  0  0  0
   27.4377  -19.8895   -7.7964 C   0  0  0  0  0  0  0  0  0  0  0  0
   26.5641  -20.3979   -6.8821 C   0  0  0  0  0  0  0  0  0  0  0  0
   26.9778  -20.6603   -5.5701 C   0  0  0  0  0  0  0  0  0  0  0  0
   28.2689  -20.4211   -5.1512 C   0  0  0  0  0  0  0  0  0  0  0  0
   29.1551  -19.9084   -6.0693 C   0  0  0  0  0  0  0  0  0  0  0  0
   28.7495  -19.6505   -7.3531 C   0  0  0  0  0  0  0  0  0  0  0  0
   25.9066  -20.6934  -11.0646 C   0  0  0  0  0  0  0  0  0  0  0  0
   26.5091  -20.1422  -12.0585 O   0  0  0  0  0  0  0  0  0  0  0  0
   24.5529  -23.6709  -15.2511 N   0  0  0  0  0  0  0  0  0  0  0  0
   25.2052  -23.9066  -14.0124 C   0  0  0  0  0  0  0  0  0  0  0  0
   25.6625  -25.0436  -13.7754 O   0  0  0  0  0  0  0  0  0  0  0  0
   25.3405  -22.8171  -13.0205 C   0  0  0  0  0  0  0  0  0  0  0  0
   24.6836  -21.5985  -13.5812 C   0  0  0  0  0  0  0  0  0  0  0  0
   23.8917  -20.7907  -12.5701 C   0  0  2  0  0  0  0  0  0  0  0  0
   24.5514  -21.0170  -11.2852 N   0  0  0  0  0  0  0  0  0  0  0  0
   22.4758  -21.1386  -12.5450 C   0  0  0  0  0  0  0  0  0  0  0  0
   21.9584  -21.8971  -11.6845 O   0  0  0  0  0  0  0  0  0  0  0  0
   20.1478  -17.4585  -12.4289 O   0  0  0  0  0  0  0  0  0  0  0  0
   21.1881  -18.3204  -12.7992 C   0  0  0  0  0  0  0  0  0  0  0  0
   20.5464  -19.6307  -13.1943 C   0  0  2  0  0  0  0  0  0  0  0  0
   21.5176  -20.6443  -13.5078 N   0  0  0  0  0  0  0  0  0  0  0  0
   19.6577  -19.3591  -14.3271 C   0  0  0  0  0  0  0  0  0  0  0  0
   18.2740  -19.3639  -14.2050 O   0  0  0  0  0  0  0  0  0  0  0  0
   20.1501  -19.1082  -15.4605 O   0  0  0  0  0  0  0  0  0  0  0  0
  2  1  1  6
  3  2  1  0
  4  9  2  0
  4  3  1  0
  5  4  1  0
  6  7  1  0
  6  5  2  0
  7  8  2  0
  8  9  1  0
 10 11  2  0
 10  2  1  0
 13 12  1  0
 14 13  2  0
 15 13  1  0
 17 16  1  6
 16 15  1  0
 17 18  1  0
 18 10  1  0
 19 17  1  0
 20 19  2  0
 22 21  1  0
 23 22  1  6
 23 24  1  0
 24 19  1  0
 25 26  1  0
 25 23  1  0
 27 25  2  0
M  END
$$$$
