FQS.pdb
     RDKit          3D

 27 27  0  0  1  0  0  0  0  0999 V2000
   22.0281  -11.2129  -20.8613 N   0  0  0  0  0  0  0  0  0  0  0  0
   22.5934  -10.8958  -19.5756 C   0  0  1  0  0  0  0  0  0  0  0  0
   24.0913  -10.5500  -19.7570 C   0  0  0  0  0  0  0  0  0  0  0  0
   24.7219  -11.7834  -20.3179 C   0  0  0  0  0  0  0  0  0  0  0  0
   24.9247  -12.9349  -19.6176 C   0  0  0  0  0  0  0  0  0  0  0  0
   25.5467  -14.0355  -20.2202 C   0  0  0  0  0  0  0  0  0  0  0  0
   25.9740  -14.0044  -21.5302 C   0  0  0  0  0  0  0  0  0  0  0  0
   25.7720  -12.8452  -22.2421 C   0  0  0  0  0  0  0  0  0  0  0  0
   25.1642  -11.7677  -21.6515 C   0  0  0  0  0  0  0  0  0  0  0  0
   21.9095   -9.8897  -18.7901 C   0  0  0  0  0  0  0  0  0  0  0  0
   21.6878   -8.7671  -19.3779 O   0  0  0  0  0  0  0  0  0  0  0  0
   18.2494  -11.6952  -15.1657 N   0  0  0  0  0  0  0  0  0  0  0  0
   17.8753  -11.2771  -16.4698 C   0  0  0  0  0  0  0  0  0  0  0  0
   17.0364  -11.9495  -17.1041 O   0  0  0  0  0  0  0  0  0  0  0  0
   18.4719  -10.0604  -17.0639 C   0  0  0  0  0  0  0  0  0  0  0  0
   19.5280   -9.5625  -16.1325 C   0  0  0  0  0  0  0  0  0  0  0  0
   20.7045   -8.8929  -16.8178 C   0  0  2  0  0  0  0  0  0  0  0  0
   21.4514   -9.9742  -17.4587 N   0  0  0  0  0  0  0  0  0  0  0  0
   21.5249   -8.1067  -15.9040 C   0  0  0  0  0  0  0  0  0  0  0  0
   22.6876   -8.4345  -15.5516 O   0  0  0  0  0  0  0  0  0  0  0  0
   23.9145   -4.7180  -14.5390 O   0  0  0  0  0  0  0  0  0  0  0  0
   23.1606   -5.5585  -15.3679 C   0  0  0  0  0  0  0  0  0  0  0  0
   21.9627   -6.0039  -14.5605 C   0  0  2  0  0  0  0  0  0  0  0  0
   21.0863   -6.8645  -15.3090 N   0  0  0  0  0  0  0  0  0  0  0  0
   21.2744   -4.7968  -14.0958 C   0  0  0  0  0  0  0  0  0  0  0  0
   21.5759   -4.1883  -12.8841 O   0  0  0  0  0  0  0  0  0  0  0  0
   20.3746   -4.2773  -14.8103 O   0  0  0  0  0  0  0  0  0  0  0  0
  2  1  1  6
  3  2  1  0
  4  9  2  0
  4  3  1  0
  5  4  1  0
  6  7  1  0
  6  5  2  0
  7  8  2  0
  8  9  1  0
 10 11  2  0
 10  2  1  0
 13 12  1  0
 14 13  2  0
 15 13  1  0
 17 16  1  1
 16 15  1  0
 17 18  1  0
 18 10  1  0
 19 17  1  0
 20 19  2  0
 22 21  1  0
 23 22  1  6
 23 24  1  0
 24 19  1  0
 25 26  1  0
 25 23  1  0
 27 25  2  0
M  END
$$$$
