FQS.pdb
     RDKit          3D

 27 27  0  0  1  0  0  0  0  0999 V2000
   23.8358   -9.8196  -18.1021 N   0  0  0  0  0  0  0  0  0  0  0  0
   23.3604   -9.2576  -16.8646 C   0  0  1  0  0  0  0  0  0  0  0  0
   24.4283   -8.2823  -16.3128 C   0  0  0  0  0  0  0  0  0  0  0  0
   25.6323   -9.1227  -16.0341 C   0  0  0  0  0  0  0  0  0  0  0  0
   25.7123  -10.0539  -15.0421 C   0  0  0  0  0  0  0  0  0  0  0  0
   26.8927  -10.7798  -14.8393 C   0  0  0  0  0  0  0  0  0  0  0  0
   28.0098  -10.5887  -15.6236 C   0  0  0  0  0  0  0  0  0  0  0  0
   27.9351   -9.6506  -16.6264 C   0  0  0  0  0  0  0  0  0  0  0  0
   26.7800   -8.9395  -16.8239 C   0  0  0  0  0  0  0  0  0  0  0  0
   22.0471   -8.6480  -16.8846 C   0  0  0  0  0  0  0  0  0  0  0  0
   21.6880   -8.1139  -17.9984 O   0  0  0  0  0  0  0  0  0  0  0  0
   17.1764  -10.9354  -15.8576 N   0  0  0  0  0  0  0  0  0  0  0  0
   16.5628   -9.6738  -15.6404 C   0  0  0  0  0  0  0  0  0  0  0  0
   15.3192   -9.5861  -15.7044 O   0  0  0  0  0  0  0  0  0  0  0  0
   17.3887   -8.4832  -15.3411 C   0  0  0  0  0  0  0  0  0  0  0  0
   18.8190   -8.9118  -15.3029 C   0  0  0  0  0  0  0  0  0  0  0  0
   19.7715   -7.9862  -16.0364 C   0  0  2  0  0  0  0  0  0  0  0  0
   21.1023   -8.5591  -15.8409 N   0  0  0  0  0  0  0  0  0  0  0  0
   19.6825   -6.6023  -15.5855 C   0  0  0  0  0  0  0  0  0  0  0  0
   20.0527   -6.2136  -14.4474 O   0  0  0  0  0  0  0  0  0  0  0  0
   18.6144   -3.5953  -18.1731 O   0  0  0  0  0  0  0  0  0  0  0  0
   19.3860   -3.1846  -17.0786 C   0  0  0  0  0  0  0  0  0  0  0  0
   19.1090   -4.1633  -15.9603 C   0  0  2  0  0  0  0  0  0  0  0  0
   19.1605   -5.5308  -16.4033 N   0  0  0  0  0  0  0  0  0  0  0  0
   17.8011   -3.8229  -15.3944 C   0  0  0  0  0  0  0  0  0  0  0  0
   17.5300   -2.5766  -14.8443 O   0  0  0  0  0  0  0  0  0  0  0  0
   16.8762   -4.6800  -15.4007 O   0  0  0  0  0  0  0  0  0  0  0  0
  2  1  1  6
  3  2  1  0
  4  9  2  0
  4  3  1  0
  5  4  1  0
  6  7  1  0
  6  5  2  0
  7  8  2  0
  8  9  1  0
 10 11  2  0
 10  2  1  0
 13 12  1  0
 14 13  2  0
 15 13  1  0
 17 16  1  1
 16 15  1  0
 17 18  1  0
 18 10  1  0
 19 17  1  0
 20 19  2  0
 22 21  1  0
 23 22  1  6
 23 24  1  0
 24 19  1  0
 25 26  1  0
 25 23  1  0
 27 25  2  0
M  END
$$$$
