FQS.pdb
     RDKit          3D

 27 27  0  0  1  0  0  0  0  0999 V2000
   27.0863  -20.7509  -16.9945 N   0  0  0  0  0  0  0  0  0  0  0  0
   26.7159  -20.0057  -15.8195 C   0  0  1  0  0  0  0  0  0  0  0  0
   26.2746  -18.5842  -16.2447 C   0  0  0  0  0  0  0  0  0  0  0  0
   27.5123  -17.9142  -16.7473 C   0  0  0  0  0  0  0  0  0  0  0  0
   28.5779  -17.5743  -15.9687 C   0  0  0  0  0  0  0  0  0  0  0  0
   29.6882  -16.9257  -16.5236 C   0  0  0  0  0  0  0  0  0  0  0  0
   29.7526  -16.6082  -17.8633 C   0  0  0  0  0  0  0  0  0  0  0  0
   28.6804  -16.9490  -18.6542 C   0  0  0  0  0  0  0  0  0  0  0  0
   27.5933  -17.5827  -18.1104 C   0  0  0  0  0  0  0  0  0  0  0  0
   25.7469  -20.6180  -14.9346 C   0  0  0  0  0  0  0  0  0  0  0  0
   25.0129  -21.5400  -15.4504 O   0  0  0  0  0  0  0  0  0  0  0  0
   25.4832  -20.4656   -8.7942 N   0  0  0  0  0  0  0  0  0  0  0  0
   26.5218  -20.9763   -9.6163 C   0  0  0  0  0  0  0  0  0  0  0  0
   27.6387  -21.2062   -9.1085 O   0  0  0  0  0  0  0  0  0  0  0  0
   26.2792  -21.2326  -11.0533 C   0  0  0  0  0  0  0  0  0  0  0  0
   24.8609  -20.8728  -11.3529 C   0  0  0  0  0  0  0  0  0  0  0  0
   24.4659  -21.0365  -12.8087 C   0  0  2  0  0  0  0  0  0  0  0  0
   25.4967  -20.3380  -13.5750 N   0  0  0  0  0  0  0  0  0  0  0  0
   23.1227  -20.5457  -13.0939 C   0  0  0  0  0  0  0  0  0  0  0  0
   22.8320  -19.3255  -13.1950 O   0  0  0  0  0  0  0  0  0  0  0  0
   20.6186  -22.5263  -15.2849 O   0  0  0  0  0  0  0  0  0  0  0  0
   20.2511  -21.2019  -15.0148 C   0  0  0  0  0  0  0  0  0  0  0  0
   20.6663  -20.9183  -13.5892 C   0  0  2  0  0  0  0  0  0  0  0  0
   21.9839  -21.4134  -13.2931 N   0  0  0  0  0  0  0  0  0  0  0  0
   19.6525  -21.5093  -12.7119 C   0  0  0  0  0  0  0  0  0  0  0  0
   18.3241  -21.1036  -12.7312 O   0  0  0  0  0  0  0  0  0  0  0  0
   19.9802  -22.4217  -11.9056 O   0  0  0  0  0  0  0  0  0  0  0  0
  2  1  1  6
  3  2  1  0
  4  9  2  0
  4  3  1  0
  5  4  1  0
  6  7  1  0
  6  5  2  0
  7  8  2  0
  8  9  1  0
 10 11  2  0
 10  2  1  0
 13 12  1  0
 14 13  2  0
 15 13  1  0
 17 16  1  1
 16 15  1  0
 17 18  1  0
 18 10  1  0
 19 17  1  0
 20 19  2  0
 22 21  1  0
 23 22  1  6
 23 24  1  0
 24 19  1  0
 25 26  1  0
 25 23  1  0
 27 25  2  0
M  END
$$$$
