FQS.pdb
     RDKit          3D

 27 27  0  0  1  0  0  0  0  0999 V2000
   18.2103  -10.8492  -15.6331 N   0  0  0  0  0  0  0  0  0  0  0  0
   19.3355   -9.9567  -15.7362 C   0  0  1  0  0  0  0  0  0  0  0  0
   19.7765   -9.8736  -17.2176 C   0  0  0  0  0  0  0  0  0  0  0  0
   20.2108  -11.2557  -17.5844 C   0  0  0  0  0  0  0  0  0  0  0  0
   21.4161  -11.8002  -17.2554 C   0  0  0  0  0  0  0  0  0  0  0  0
   21.7471  -13.0984  -17.6636 C   0  0  0  0  0  0  0  0  0  0  0  0
   20.8804  -13.8729  -18.4043 C   0  0  0  0  0  0  0  0  0  0  0  0
   19.6625  -13.3290  -18.7391 C   0  0  0  0  0  0  0  0  0  0  0  0
   19.3394  -12.0579  -18.3405 C   0  0  0  0  0  0  0  0  0  0  0  0
   19.1813   -8.6393  -15.1553 C   0  0  0  0  0  0  0  0  0  0  0  0
   18.0709   -8.0385  -15.4022 O   0  0  0  0  0  0  0  0  0  0  0  0
   19.8801   -7.0150   -9.6899 N   0  0  0  0  0  0  0  0  0  0  0  0
   19.6181   -5.7003  -10.1569 C   0  0  0  0  0  0  0  0  0  0  0  0
   19.4342   -4.7875   -9.3255 O   0  0  0  0  0  0  0  0  0  0  0  0
   19.5665   -5.4199  -11.6088 C   0  0  0  0  0  0  0  0  0  0  0  0
   19.7971   -6.7045  -12.3351 C   0  0  0  0  0  0  0  0  0  0  0  0
   19.7984   -6.5792  -13.8473 C   0  0  2  0  0  0  0  0  0  0  0  0
   20.0901   -7.9204  -14.3509 N   0  0  0  0  0  0  0  0  0  0  0  0
   20.7387   -5.5775  -14.3358 C   0  0  0  0  0  0  0  0  0  0  0  0
   21.9889   -5.6952  -14.2548 O   0  0  0  0  0  0  0  0  0  0  0  0
   19.4235   -2.3467  -16.4898 O   0  0  0  0  0  0  0  0  0  0  0  0
   20.7501   -2.7132  -16.7503 C   0  0  0  0  0  0  0  0  0  0  0  0
   21.2664   -3.3911  -15.5018 C   0  0  2  0  0  0  0  0  0  0  0  0
   20.3300   -4.3434  -14.9678 N   0  0  0  0  0  0  0  0  0  0  0  0
   21.5862   -2.3397  -14.5328 C   0  0  0  0  0  0  0  0  0  0  0  0
   22.5500   -1.3700  -14.7781 O   0  0  0  0  0  0  0  0  0  0  0  0
   20.9723   -2.2977  -13.4321 O   0  0  0  0  0  0  0  0  0  0  0  0
  2  1  1  6
  3  2  1  0
  4  9  2  0
  4  3  1  0
  5  4  1  0
  6  7  1  0
  6  5  2  0
  7  8  2  0
  8  9  1  0
 10 11  2  0
 10  2  1  0
 13 12  1  0
 14 13  2  0
 15 13  1  0
 17 16  1  1
 16 15  1  0
 17 18  1  0
 18 10  1  0
 19 17  1  0
 20 19  2  0
 22 21  1  0
 23 22  1  6
 23 24  1  0
 24 19  1  0
 25 26  1  0
 25 23  1  0
 27 25  2  0
M  END
$$$$
