FQS.pdb
     RDKit          3D

 27 27  0  0  1  0  0  0  0  0999 V2000
   28.8701  -21.1246   -9.2658 N   0  0  0  0  0  0  0  0  0  0  0  0
   27.4838  -20.7422   -9.3360 C   0  0  1  0  0  0  0  0  0  0  0  0
   27.3060  -19.3686   -8.6449 C   0  0  0  0  0  0  0  0  0  0  0  0
   27.6292  -19.6003   -7.2043 C   0  0  0  0  0  0  0  0  0  0  0  0
   26.9643  -20.4707   -6.3932 C   0  0  0  0  0  0  0  0  0  0  0  0
   27.3225  -20.6050   -5.0459 C   0  0  0  0  0  0  0  0  0  0  0  0
   28.3499  -19.8746   -4.4885 C   0  0  0  0  0  0  0  0  0  0  0  0
   29.0247  -18.9949   -5.3020 C   0  0  0  0  0  0  0  0  0  0  0  0
   28.6730  -18.8628   -6.6203 C   0  0  0  0  0  0  0  0  0  0  0  0
   26.8655  -20.7596  -10.6454 C   0  0  0  0  0  0  0  0  0  0  0  0
   27.4852  -20.1180  -11.5723 O   0  0  0  0  0  0  0  0  0  0  0  0
   24.2060  -25.3391  -13.2501 N   0  0  0  0  0  0  0  0  0  0  0  0
   23.9205  -24.4154  -14.2897 C   0  0  0  0  0  0  0  0  0  0  0  0
   23.3899  -24.8309  -15.3403 O   0  0  0  0  0  0  0  0  0  0  0  0
   24.2471  -22.9817  -14.1252 C   0  0  0  0  0  0  0  0  0  0  0  0
   24.7939  -22.7880  -12.7489 C   0  0  0  0  0  0  0  0  0  0  0  0
   25.1912  -21.3596  -12.4264 C   0  0  2  0  0  0  0  0  0  0  0  0
   25.6675  -21.3883  -11.0444 N   0  0  0  0  0  0  0  0  0  0  0  0
   24.1062  -20.4065  -12.6284 C   0  0  0  0  0  0  0  0  0  0  0  0
   23.2737  -20.0971  -11.7369 O   0  0  0  0  0  0  0  0  0  0  0  0
   23.7785  -18.4586  -16.1609 O   0  0  0  0  0  0  0  0  0  0  0  0
   23.0640  -17.7895  -15.1590 C   0  0  0  0  0  0  0  0  0  0  0  0
   22.7802  -18.8051  -14.0760 C   0  0  2  0  0  0  0  0  0  0  0  0
   23.8764  -19.7149  -13.8767 N   0  0  0  0  0  0  0  0  0  0  0  0
   21.5494  -19.5083  -14.4467 C   0  0  0  0  0  0  0  0  0  0  0  0
   20.3196  -18.8668  -14.5207 O   0  0  0  0  0  0  0  0  0  0  0  0
   21.5905  -20.7401  -14.7133 O   0  0  0  0  0  0  0  0  0  0  0  0
  2  1  1  6
  3  2  1  0
  4  9  2  0
  4  3  1  0
  5  4  1  0
  6  7  1  0
  6  5  2  0
  7  8  2  0
  8  9  1  0
 10 11  2  0
 10  2  1  0
 13 12  1  0
 14 13  2  0
 15 13  1  0
 17 16  1  1
 16 15  1  0
 17 18  1  0
 18 10  1  0
 19 17  1  0
 20 19  2  0
 22 21  1  0
 23 22  1  6
 23 24  1  0
 24 19  1  0
 25 26  1  0
 25 23  1  0
 27 25  2  0
M  END
$$$$
