FQS.pdb
     RDKit          3D

 27 27  0  0  1  0  0  0  0  0999 V2000
   28.7367  -20.8958   -9.0314 N   0  0  0  0  0  0  0  0  0  0  0  0
   27.3276  -20.6066   -8.9674 C   0  0  1  0  0  0  0  0  0  0  0  0
   27.1146  -19.3331   -8.1136 C   0  0  0  0  0  0  0  0  0  0  0  0
   27.6487  -19.6658   -6.7581 C   0  0  0  0  0  0  0  0  0  0  0  0
   27.1097  -20.5974   -5.9220 C   0  0  0  0  0  0  0  0  0  0  0  0
   27.6648  -20.8259   -4.6567 C   0  0  0  0  0  0  0  0  0  0  0  0
   28.7663  -20.1299   -4.2075 C   0  0  0  0  0  0  0  0  0  0  0  0
   29.3149  -19.1887   -5.0467 C   0  0  0  0  0  0  0  0  0  0  0  0
   28.7705  -18.9644   -6.2846 C   0  0  0  0  0  0  0  0  0  0  0  0
   26.6186  -20.5236  -10.2273 C   0  0  0  0  0  0  0  0  0  0  0  0
   27.0683  -19.6662  -11.0743 O   0  0  0  0  0  0  0  0  0  0  0  0
   24.7994  -24.7750  -13.7800 N   0  0  0  0  0  0  0  0  0  0  0  0
   24.9630  -23.6714  -14.6579 C   0  0  0  0  0  0  0  0  0  0  0  0
   25.0666  -23.8828  -15.8837 O   0  0  0  0  0  0  0  0  0  0  0  0
   25.0077  -22.2924  -14.1236 C   0  0  0  0  0  0  0  0  0  0  0  0
   24.8231  -22.3650  -12.6432 C   0  0  0  0  0  0  0  0  0  0  0  0
   24.8434  -21.0200  -11.9413 C   0  0  2  0  0  0  0  0  0  0  0  0
   25.4937  -21.2600  -10.6540 N   0  0  0  0  0  0  0  0  0  0  0  0
   23.5173  -20.4299  -11.8009 C   0  0  0  0  0  0  0  0  0  0  0  0
   23.2125  -19.6034  -10.9022 O   0  0  0  0  0  0  0  0  0  0  0  0
   21.6531  -17.8324  -14.7342 O   0  0  0  0  0  0  0  0  0  0  0  0
   22.5027  -18.8136  -14.2075 C   0  0  0  0  0  0  0  0  0  0  0  0
   21.6447  -19.7164  -13.3509 C   0  0  2  0  0  0  0  0  0  0  0  0
   22.4138  -20.7327  -12.6841 N   0  0  0  0  0  0  0  0  0  0  0  0
   20.6149  -20.2941  -14.2183 C   0  0  0  0  0  0  0  0  0  0  0  0
   19.3292  -19.7739  -14.2951 O   0  0  0  0  0  0  0  0  0  0  0  0
   20.8893  -21.2989  -14.9290 O   0  0  0  0  0  0  0  0  0  0  0  0
  2  1  1  6
  3  2  1  0
  4  9  2  0
  4  3  1  0
  5  4  1  0
  6  7  1  0
  6  5  2  0
  7  8  2  0
  8  9  1  0
 10 11  2  0
 10  2  1  0
 13 12  1  0
 14 13  2  0
 15 13  1  0
 17 16  1  1
 16 15  1  0
 17 18  1  0
 18 10  1  0
 19 17  1  0
 20 19  2  0
 22 21  1  0
 23 22  1  6
 23 24  1  0
 24 19  1  0
 25 26  1  0
 25 23  1  0
 27 25  2  0
M  END
$$$$
