FQS.pdb
     RDKit          3D

 27 27  0  0  1  0  0  0  0  0999 V2000
   27.6613  -18.8107  -16.0043 N   0  0  0  0  0  0  0  0  0  0  0  0
   26.6073  -18.3317  -15.1483 C   0  0  1  0  0  0  0  0  0  0  0  0
   25.6813  -17.3986  -15.9655 C   0  0  0  0  0  0  0  0  0  0  0  0
   26.4300  -16.1125  -16.1038 C   0  0  0  0  0  0  0  0  0  0  0  0
   26.6253  -15.2192  -15.0933 C   0  0  0  0  0  0  0  0  0  0  0  0
   27.3211  -14.0254  -15.3218 C   0  0  0  0  0  0  0  0  0  0  0  0
   27.8334  -13.7059  -16.5608 C   0  0  0  0  0  0  0  0  0  0  0  0
   27.6398  -14.6036  -17.5844 C   0  0  0  0  0  0  0  0  0  0  0  0
   26.9577  -15.7714  -17.3607 C   0  0  0  0  0  0  0  0  0  0  0  0
   25.8473  -19.3297  -14.4247 C   0  0  0  0  0  0  0  0  0  0  0  0
   25.6546  -20.4459  -15.0343 O   0  0  0  0  0  0  0  0  0  0  0  0
   26.0005  -22.6116  -11.1714 N   0  0  0  0  0  0  0  0  0  0  0  0
   26.8109  -21.5194  -10.7641 C   0  0  0  0  0  0  0  0  0  0  0  0
   28.0123  -21.7243  -10.4944 O   0  0  0  0  0  0  0  0  0  0  0  0
   26.2364  -20.1596  -10.6639 C   0  0  0  0  0  0  0  0  0  0  0  0
   24.7928  -20.2400  -11.0386 C   0  0  0  0  0  0  0  0  0  0  0  0
   24.5362  -20.3436  -12.5304 C   0  0  2  0  0  0  0  0  0  0  0  0
   25.2854  -19.2426  -13.1338 N   0  0  0  0  0  0  0  0  0  0  0  0
   23.1181  -20.3118  -12.8688 C   0  0  0  0  0  0  0  0  0  0  0  0
   22.3961  -19.2874  -12.7552 O   0  0  0  0  0  0  0  0  0  0  0  0
   21.4033  -23.4169  -14.8701 O   0  0  0  0  0  0  0  0  0  0  0  0
   20.7257  -22.1989  -15.0095 C   0  0  0  0  0  0  0  0  0  0  0  0
   21.0099  -21.3984  -13.7590 C   0  0  2  0  0  0  0  0  0  0  0  0
   22.3944  -21.4567  -13.3736 N   0  0  0  0  0  0  0  0  0  0  0  0
   20.1290  -21.9065  -12.7042 C   0  0  0  0  0  0  0  0  0  0  0  0
   18.7444  -21.8595  -12.8044 O   0  0  0  0  0  0  0  0  0  0  0  0
   20.6294  -22.4097  -11.6619 O   0  0  0  0  0  0  0  0  0  0  0  0
  2  1  1  6
  3  2  1  0
  4  9  2  0
  4  3  1  0
  5  4  1  0
  6  7  1  0
  6  5  2  0
  7  8  2  0
  8  9  1  0
 10 11  2  0
 10  2  1  0
 13 12  1  0
 14 13  2  0
 15 13  1  0
 17 16  1  1
 16 15  1  0
 17 18  1  0
 18 10  1  0
 19 17  1  0
 20 19  2  0
 22 21  1  0
 23 22  1  6
 23 24  1  0
 24 19  1  0
 25 26  1  0
 25 23  1  0
 27 25  2  0
M  END
$$$$
