FQS.pdb
     RDKit          3D

 27 27  0  0  1  0  0  0  0  0999 V2000
   23.1408   -7.0189  -15.0846 N   0  0  0  0  0  0  0  0  0  0  0  0
   21.7889   -7.3675  -14.7326 C   0  0  1  0  0  0  0  0  0  0  0  0
   21.8125   -8.6299  -13.8373 C   0  0  0  0  0  0  0  0  0  0  0  0
   22.2634   -9.7432  -14.7265 C   0  0  0  0  0  0  0  0  0  0  0  0
   23.3977  -10.4741  -14.5356 C   0  0  0  0  0  0  0  0  0  0  0  0
   23.7541  -11.4856  -15.4364 C   0  0  0  0  0  0  0  0  0  0  0  0
   22.9836  -11.7838  -16.5396 C   0  0  0  0  0  0  0  0  0  0  0  0
   21.8376  -11.0499  -16.7375 C   0  0  0  0  0  0  0  0  0  0  0  0
   21.4898  -10.0592  -15.8563 C   0  0  0  0  0  0  0  0  0  0  0  0
   20.9736   -6.3215  -14.1510 C   0  0  0  0  0  0  0  0  0  0  0  0
   21.5004   -5.6704  -13.1748 O   0  0  0  0  0  0  0  0  0  0  0  0
   17.0858   -2.6961  -16.8630 N   0  0  0  0  0  0  0  0  0  0  0  0
   16.8601   -2.2077  -15.5493 C   0  0  0  0  0  0  0  0  0  0  0  0
   16.1453   -1.1963  -15.3936 O   0  0  0  0  0  0  0  0  0  0  0  0
   17.4637   -2.8916  -14.3843 C   0  0  0  0  0  0  0  0  0  0  0  0
   18.2453   -4.0599  -14.8892 C   0  0  0  0  0  0  0  0  0  0  0  0
   18.9592   -4.8515  -13.8094 C   0  0  2  0  0  0  0  0  0  0  0  0
   19.6710   -5.9180  -14.5119 N   0  0  0  0  0  0  0  0  0  0  0  0
   18.0562   -5.3586  -12.7828 C   0  0  0  0  0  0  0  0  0  0  0  0
   17.3392   -6.3825  -12.9275 O   0  0  0  0  0  0  0  0  0  0  0  0
   16.4030   -5.2967   -8.2270 O   0  0  0  0  0  0  0  0  0  0  0  0
   17.2242   -4.6131   -9.1327 C   0  0  0  0  0  0  0  0  0  0  0  0
   16.9867   -5.2358  -10.4895 C   0  0  2  0  0  0  0  0  0  0  0  0
   17.8935   -4.7365  -11.4882 N   0  0  0  0  0  0  0  0  0  0  0  0
   15.5887   -4.9837  -10.8484 C   0  0  0  0  0  0  0  0  0  0  0  0
   14.5878   -5.9258  -10.6484 O   0  0  0  0  0  0  0  0  0  0  0  0
   15.2648   -3.8761  -11.3565 O   0  0  0  0  0  0  0  0  0  0  0  0
  2  1  1  1
  3  2  1  0
  4  9  2  0
  4  3  1  0
  5  4  1  0
  6  7  1  0
  6  5  2  0
  7  8  2  0
  8  9  1  0
 10 11  2  0
 10  2  1  0
 13 12  1  0
 14 13  2  0
 15 13  1  0
 17 16  1  6
 16 15  1  0
 17 18  1  0
 18 10  1  0
 19 17  1  0
 20 19  2  0
 22 21  1  0
 23 22  1  1
 23 24  1  0
 24 19  1  0
 25 26  1  0
 25 23  1  0
 27 25  2  0
M  END
$$$$
