FQS.pdb
     RDKit          3D

 27 27  0  0  1  0  0  0  0  0999 V2000
   25.1301  -20.6884   -8.2048 N   0  0  0  0  0  0  0  0  0  0  0  0
   26.1602  -20.2954   -9.1309 C   0  0  1  0  0  0  0  0  0  0  0  0
   27.4704  -21.0357   -8.7687 C   0  0  0  0  0  0  0  0  0  0  0  0
   27.8439  -20.5459   -7.4070 C   0  0  0  0  0  0  0  0  0  0  0  0
   28.8025  -21.1092   -6.6189 C   0  0  0  0  0  0  0  0  0  0  0  0
   29.0691  -20.5958   -5.3435 C   0  0  0  0  0  0  0  0  0  0  0  0
   28.3847  -19.5123   -4.8362 C   0  0  0  0  0  0  0  0  0  0  0  0
   27.4163  -18.9394   -5.6269 C   0  0  0  0  0  0  0  0  0  0  0  0
   27.1549  -19.4430   -6.8748 C   0  0  0  0  0  0  0  0  0  0  0  0
   25.8547  -20.4196  -10.5409 C   0  0  0  0  0  0  0  0  0  0  0  0
   24.9867  -21.3154  -10.8551 O   0  0  0  0  0  0  0  0  0  0  0  0
   27.9928  -17.1079  -15.3938 N   0  0  0  0  0  0  0  0  0  0  0  0
   28.2910  -18.4622  -15.0899 C   0  0  0  0  0  0  0  0  0  0  0  0
   29.2182  -19.0305  -15.7027 O   0  0  0  0  0  0  0  0  0  0  0  0
   27.5129  -19.1852  -14.0598 C   0  0  0  0  0  0  0  0  0  0  0  0
   26.4980  -18.2421  -13.5019 C   0  0  0  0  0  0  0  0  0  0  0  0
   25.5473  -18.8655  -12.4969 C   0  0  2  0  0  0  0  0  0  0  0  0
   26.3843  -19.6870  -11.6238 N   0  0  0  0  0  0  0  0  0  0  0  0
   24.4722  -19.6252  -13.1241 C   0  0  0  0  0  0  0  0  0  0  0  0
   23.2766  -19.5965  -12.7326 O   0  0  0  0  0  0  0  0  0  0  0  0
   25.6953  -23.2908  -13.9589 O   0  0  0  0  0  0  0  0  0  0  0  0
   24.4950  -22.7915  -13.4376 C   0  0  0  0  0  0  0  0  0  0  0  0
   23.9961  -21.7522  -14.4153 C   0  0  2  0  0  0  0  0  0  0  0  0
   24.6696  -20.4902  -14.2652 N   0  0  0  0  0  0  0  0  0  0  0  0
   22.5498  -21.6244  -14.2186 C   0  0  0  0  0  0  0  0  0  0  0  0
   21.9406  -20.4059  -13.9473 O   0  0  0  0  0  0  0  0  0  0  0  0
   21.8165  -22.6473  -14.2970 O   0  0  0  0  0  0  0  0  0  0  0  0
  2  1  1  1
  3  2  1  0
  4  9  2  0
  4  3  1  0
  5  4  1  0
  6  7  1  0
  6  5  2  0
  7  8  2  0
  8  9  1  0
 10 11  2  0
 10  2  1  0
 13 12  1  0
 14 13  2  0
 15 13  1  0
 17 16  1  6
 16 15  1  0
 17 18  1  0
 18 10  1  0
 19 17  1  0
 20 19  2  0
 22 21  1  0
 23 22  1  1
 23 24  1  0
 24 19  1  0
 25 26  1  0
 25 23  1  0
 27 25  2  0
M  END
$$$$
