RSN.pdb
     RDKit          3D

 26 25  0  0  1  0  0  0  0  0999 V2000
    7.0493  -12.0723   18.1768 N   0  0  0  0  0  0  0  0  0  0  0  0
    7.7965  -13.2146   18.6212 C   0  0  0  0  0  0  0  0  0  0  0  0
    8.4299  -13.1084   19.7242 N   0  0  0  0  0  0  0  0  0  0  0  0
    7.8393  -14.4181   17.8802 N   0  0  0  0  0  0  0  0  0  0  0  0
    6.9581  -15.5348   18.1223 C   0  0  0  0  0  0  0  0  0  0  0  0
    7.5561  -16.4810   19.1192 C   0  0  0  0  0  0  0  0  0  0  0  0
    9.0645  -16.6261   18.9244 C   0  0  0  0  0  0  0  0  0  0  0  0
    9.5019  -17.6583   19.9609 C   0  0  2  0  0  0  0  0  0  0  0  0
    8.3696  -18.3578   20.4956 N   0  0  0  0  0  0  0  0  0  0  0  0
   10.2399  -16.9328   21.0205 C   0  0  0  0  0  0  0  0  0  0  0  0
   11.3197  -16.3722   20.7370 O   0  0  0  0  0  0  0  0  0  0  0  0
    9.0993  -13.8103   20.0945 O   0  0  0  0  0  0  0  0  0  0  0  0
    8.8090  -17.2694   24.9675 C   0  0  0  0  0  0  0  0  0  0  0  0
    9.3711  -16.0867   24.5353 C   0  0  1  0  0  0  0  0  0  0  0  0
   10.3811  -16.2643   23.4323 N   0  0  0  0  0  0  0  0  0  0  0  0
    9.6817  -16.9072   22.3229 C   0  0  0  0  0  0  0  0  0  0  0  0
   11.4987  -17.1403   23.8015 O   0  0  0  0  0  0  0  0  0  0  0  0
   11.3428  -18.3784   23.6692 N   0  0  0  0  0  0  0  0  0  0  0  0
   15.3437  -15.1088   22.7417 C   0  0  0  0  0  0  0  0  0  0  0  0
   15.1151  -16.4773   22.9712 O   0  0  0  0  0  0  0  0  0  0  0  0
   14.8940  -17.2363   22.0046 C   0  0  0  0  0  0  0  0  0  0  0  0
   15.1343  -17.0211   24.3387 C   0  0  2  0  0  0  0  0  0  0  0  0
   13.7712  -17.5989   24.6528 N   0  0  0  0  0  0  0  0  0  0  0  0
   12.7288  -16.6602   24.2935 C   0  0  0  0  0  0  0  0  0  0  0  0
   13.6141  -17.9944   26.0705 O   0  0  0  0  0  0  0  0  0  0  0  0
   12.7240  -17.5758   26.8380 O   0  0  0  0  0  0  0  0  0  0  0  0
  2  1  1  0
  2  4  1  0
  3  2  2  0
  5  4  1  0
  5  6  1  0
  6  7  1  0
  7  8  1  0
  8  9  1  1
 10 11  2  0
 10  8  1  0
 12 13  1  0
 14 13  1  6
 14 15  1  0
 14 16  1  0
 15 10  1  0
 16 23  1  0
 17 16  2  0
 19 18  1  0
 20 19  2  0
 21 19  1  0
 22 21  1  6
 22 24  1  0
 23 22  1  0
 24 25  2  0
 24 26  1  0
M  END
$$$$
