RSN.pdb
     RDKit          3D

 26 25  0  0  1  0  0  0  0  0999 V2000
   15.0353  -15.6503   20.1771 N   0  0  0  0  0  0  0  0  0  0  0  0
   14.7190  -14.9314   18.9755 C   0  0  0  0  0  0  0  0  0  0  0  0
   15.5175  -14.0008   18.6213 N   0  0  0  0  0  0  0  0  0  0  0  0
   13.5735  -15.2297   18.2020 N   0  0  0  0  0  0  0  0  0  0  0  0
   12.4378  -14.3470   18.0866 C   0  0  0  0  0  0  0  0  0  0  0  0
   11.3820  -14.7009   19.0900 C   0  0  0  0  0  0  0  0  0  0  0  0
   10.1814  -15.3774   18.4303 C   0  0  0  0  0  0  0  0  0  0  0  0
    9.0488  -14.3580   18.5252 C   0  0  2  0  0  0  0  0  0  0  0  0
    9.2850  -13.2477   17.6484 N   0  0  0  0  0  0  0  0  0  0  0  0
    8.9648  -13.9234   19.9386 C   0  0  0  0  0  0  0  0  0  0  0  0
    9.6401  -12.9425   20.3161 O   0  0  0  0  0  0  0  0  0  0  0  0
   15.3449  -13.3343   17.8442 O   0  0  0  0  0  0  0  0  0  0  0  0
    5.9466  -15.6211   22.2303 C   0  0  0  0  0  0  0  0  0  0  0  0
    6.4584  -14.3686   22.4969 C   0  0  1  0  0  0  0  0  0  0  0  0
    7.9292  -14.2402   22.1993 N   0  0  0  0  0  0  0  0  0  0  0  0
    8.1128  -14.6480   20.8090 C   0  0  0  0  0  0  0  0  0  0  0  0
    8.7686  -15.1203   23.0201 O   0  0  0  0  0  0  0  0  0  0  0  0
    9.1329  -16.2140   22.5243 N   0  0  0  0  0  0  0  0  0  0  0  0
    6.9549  -18.3095   26.9564 C   0  0  0  0  0  0  0  0  0  0  0  0
    8.0749  -17.5742   26.5290 O   0  0  0  0  0  0  0  0  0  0  0  0
    9.1994  -17.8287   27.0085 C   0  0  0  0  0  0  0  0  0  0  0  0
    7.9326  -16.5092   25.5232 C   0  0  1  0  0  0  0  0  0  0  0  0
    9.2765  -15.8415   25.3268 N   0  0  0  0  0  0  0  0  0  0  0  0
    9.1814  -14.7972   24.3280 C   0  0  0  0  0  0  0  0  0  0  0  0
   10.3524  -16.7871   24.9535 O   0  0  0  0  0  0  0  0  0  0  0  0
   10.2107  -17.7776   24.2082 O   0  0  0  0  0  0  0  0  0  0  0  0
  2  1  1  0
  2  4  1  0
  3  2  2  0
  5  4  1  0
  5  6  1  0
  6  7  1  0
  7  8  1  0
  8  9  1  6
 10 11  2  0
 10  8  1  0
 12 13  1  0
 14 13  1  6
 14 15  1  0
 14 16  1  0
 15 10  1  0
 16 23  1  0
 17 16  2  0
 19 18  1  0
 20 19  2  0
 21 19  1  0
 22 21  1  1
 22 24  1  0
 23 22  1  0
 24 25  2  0
 24 26  1  0
M  END
$$$$
