RSN.pdb
     RDKit          3D

 26 25  0  0  1  0  0  0  0  0999 V2000
    8.8469  -13.2594   20.5048 N   0  0  0  0  0  0  0  0  0  0  0  0
    8.2543  -13.0493   19.2142 C   0  0  0  0  0  0  0  0  0  0  0  0
    7.2486  -12.2659   19.1510 N   0  0  0  0  0  0  0  0  0  0  0  0
    8.7526  -13.6758   18.0487 N   0  0  0  0  0  0  0  0  0  0  0  0
    9.6212  -14.8279   18.0725 C   0  0  0  0  0  0  0  0  0  0  0  0
    8.9900  -15.9573   18.8292 C   0  0  0  0  0  0  0  0  0  0  0  0
   10.0364  -16.8146   19.5394 C   0  0  0  0  0  0  0  0  0  0  0  0
    9.3161  -17.3974   20.7529 C   0  0  2  0  0  0  0  0  0  0  0  0
    7.8960  -17.4030   20.5508 N   0  0  0  0  0  0  0  0  0  0  0  0
    9.6928  -16.5749   21.9255 C   0  0  0  0  0  0  0  0  0  0  0  0
   10.7683  -15.9396   21.9046 O   0  0  0  0  0  0  0  0  0  0  0  0
    6.8122  -11.9300   18.2709 O   0  0  0  0  0  0  0  0  0  0  0  0
    6.9229  -16.1449   25.0597 C   0  0  0  0  0  0  0  0  0  0  0  0
    7.9973  -15.2976   24.8891 C   0  0  1  0  0  0  0  0  0  0  0  0
    9.2136  -15.9718   24.3110 N   0  0  0  0  0  0  0  0  0  0  0  0
    8.8065  -16.5454   23.0310 C   0  0  0  0  0  0  0  0  0  0  0  0
    9.7154  -17.0758   25.1368 O   0  0  0  0  0  0  0  0  0  0  0  0
    9.1131  -18.1750   25.0765 N   0  0  0  0  0  0  0  0  0  0  0  0
   13.9787  -17.2819   24.6976 C   0  0  0  0  0  0  0  0  0  0  0  0
   13.1961  -18.3031   25.2653 O   0  0  0  0  0  0  0  0  0  0  0  0
   12.8465  -19.2748   24.5633 C   0  0  0  0  0  0  0  0  0  0  0  0
   12.7865  -18.2359   26.6774 C   0  0  2  0  0  0  0  0  0  0  0  0
   11.2794  -18.1126   26.7424 N   0  0  0  0  0  0  0  0  0  0  0  0
   10.8330  -16.9605   25.9872 C   0  0  0  0  0  0  0  0  0  0  0  0
   10.7566  -18.0313   28.1249 O   0  0  0  0  0  0  0  0  0  0  0  0
   10.0180  -17.1252   28.5607 O   0  0  0  0  0  0  0  0  0  0  0  0
  2  1  1  0
  2  4  1  0
  3  2  2  0
  5  4  1  0
  5  6  1  0
  6  7  1  0
  7  8  1  0
  8  9  1  6
 10 11  2  0
 10  8  1  0
 12 13  1  0
 14 13  1  6
 14 15  1  0
 14 16  1  0
 15 10  1  0
 16 23  1  0
 17 16  2  0
 19 18  1  0
 20 19  2  0
 21 19  1  0
 22 21  1  6
 22 24  1  0
 23 22  1  0
 24 25  2  0
 24 26  1  0
M  END
$$$$
