RSN.pdb
     RDKit          3D

 26 25  0  0  1  0  0  0  0  0999 V2000
    7.4911  -13.0294   19.2791 N   0  0  0  0  0  0  0  0  0  0  0  0
    7.7581  -12.9347   17.8718 C   0  0  0  0  0  0  0  0  0  0  0  0
    6.8721  -12.3755   17.1429 N   0  0  0  0  0  0  0  0  0  0  0  0
    8.9504  -13.4343   17.2990 N   0  0  0  0  0  0  0  0  0  0  0  0
    9.1348  -14.8141   16.9191 C   0  0  0  0  0  0  0  0  0  0  0  0
    9.8759  -15.5667   17.9826 C   0  0  0  0  0  0  0  0  0  0  0  0
   11.1840  -14.8720   18.3574 C   0  0  0  0  0  0  0  0  0  0  0  0
   11.8323  -15.7802   19.3995 C   0  0  2  0  0  0  0  0  0  0  0  0
   11.3271  -17.1187   19.2967 N   0  0  0  0  0  0  0  0  0  0  0  0
   11.5492  -15.1954   20.7304 C   0  0  0  0  0  0  0  0  0  0  0  0
   12.0834  -14.1111   21.0462 O   0  0  0  0  0  0  0  0  0  0  0  0
    6.9198  -12.2925   16.1091 O   0  0  0  0  0  0  0  0  0  0  0  0
    8.5421  -16.9704   23.0934 C   0  0  0  0  0  0  0  0  0  0  0  0
    8.9030  -15.6412   23.1626 C   0  0  1  0  0  0  0  0  0  0  0  0
   10.3720  -15.4005   22.9340 N   0  0  0  0  0  0  0  0  0  0  0  0
   10.6754  -15.9001   21.5956 C   0  0  0  0  0  0  0  0  0  0  0  0
   11.2344  -16.1294   23.8708 O   0  0  0  0  0  0  0  0  0  0  0  0
   11.0886  -15.9075   25.0973 N   0  0  0  0  0  0  0  0  0  0  0  0
   15.0429  -17.6154   22.5671 C   0  0  0  0  0  0  0  0  0  0  0  0
   15.2305  -16.7283   23.6420 O   0  0  0  0  0  0  0  0  0  0  0  0
   16.2436  -15.9987   23.6701 C   0  0  0  0  0  0  0  0  0  0  0  0
   14.2446  -16.6530   24.7322 C   0  0  2  0  0  0  0  0  0  0  0  0
   13.1188  -17.6211   24.4390 N   0  0  0  0  0  0  0  0  0  0  0  0
   12.2104  -17.0595   23.4610 C   0  0  0  0  0  0  0  0  0  0  0  0
   12.3610  -18.0224   25.6455 O   0  0  0  0  0  0  0  0  0  0  0  0
   11.1710  -17.7274   25.8767 O   0  0  0  0  0  0  0  0  0  0  0  0
  2  1  1  0
  2  4  1  0
  3  2  2  0
  5  4  1  0
  5  6  1  0
  6  7  1  0
  7  8  1  0
  8  9  1  1
 10 11  2  0
 10  8  1  0
 12 13  1  0
 14 13  1  6
 14 15  1  0
 14 16  1  0
 15 10  1  0
 16 23  1  0
 17 16  2  0
 19 18  1  0
 20 19  2  0
 21 19  1  0
 22 21  1  6
 22 24  1  0
 23 22  1  0
 24 25  2  0
 24 26  1  0
M  END
$$$$
