RSN.pdb
     RDKit          3D

 26 25  0  0  1  0  0  0  0  0999 V2000
    8.8414  -13.2972   14.6592 N   0  0  0  0  0  0  0  0  0  0  0  0
    8.4906  -13.3360   16.0507 C   0  0  0  0  0  0  0  0  0  0  0  0
    9.4199  -13.1115   16.8964 N   0  0  0  0  0  0  0  0  0  0  0  0
    7.1730  -13.6089   16.4851 N   0  0  0  0  0  0  0  0  0  0  0  0
    6.7989  -13.7199   17.8744 C   0  0  0  0  0  0  0  0  0  0  0  0
    7.6010  -14.7841   18.5603 C   0  0  0  0  0  0  0  0  0  0  0  0
    7.2155  -14.9201   20.0324 C   0  0  0  0  0  0  0  0  0  0  0  0
    8.0590  -16.0786   20.5592 C   0  0  2  0  0  0  0  0  0  0  0  0
    7.2251  -17.1560   21.0076 N   0  0  0  0  0  0  0  0  0  0  0  0
    8.8969  -15.5485   21.6593 C   0  0  0  0  0  0  0  0  0  0  0  0
    9.7420  -14.6629   21.4099 O   0  0  0  0  0  0  0  0  0  0  0  0
    9.3058  -13.1487   17.9276 O   0  0  0  0  0  0  0  0  0  0  0  0
    7.7922  -16.5738   25.5255 C   0  0  0  0  0  0  0  0  0  0  0  0
    8.5079  -15.4295   25.2425 C   0  0  1  0  0  0  0  0  0  0  0  0
    9.4744  -15.5879   24.0984 N   0  0  0  0  0  0  0  0  0  0  0  0
    8.7003  -16.0759   22.9600 C   0  0  0  0  0  0  0  0  0  0  0  0
   10.5272  -16.5763   24.3579 O   0  0  0  0  0  0  0  0  0  0  0  0
   11.1769  -17.0133   23.3772 N   0  0  0  0  0  0  0  0  0  0  0  0
   13.7835  -16.7950   22.9459 C   0  0  0  0  0  0  0  0  0  0  0  0
   13.5603  -17.7078   23.9922 O   0  0  0  0  0  0  0  0  0  0  0  0
   13.6275  -18.9340   23.7659 C   0  0  0  0  0  0  0  0  0  0  0  0
   13.2485  -17.2305   25.3491 C   0  0  2  0  0  0  0  0  0  0  0  0
   11.9883  -17.9170   25.8299 N   0  0  0  0  0  0  0  0  0  0  0  0
   10.8403  -17.0536   25.6462 C   0  0  0  0  0  0  0  0  0  0  0  0
   12.0598  -18.3518   27.2430 O   0  0  0  0  0  0  0  0  0  0  0  0
   11.5423  -17.7505   28.2059 O   0  0  0  0  0  0  0  0  0  0  0  0
  2  1  1  0
  2  4  1  0
  3  2  2  0
  5  4  1  0
  5  6  1  0
  6  7  1  0
  7  8  1  0
  8  9  1  1
 10 11  2  0
 10  8  1  0
 12 13  1  0
 14 13  1  6
 14 15  1  0
 14 16  1  0
 15 10  1  0
 16 23  1  0
 17 16  2  0
 19 18  1  0
 20 19  2  0
 21 19  1  0
 22 21  1  6
 22 24  1  0
 23 22  1  0
 24 25  2  0
 24 26  1  0
M  END
$$$$
