RSN.pdb
     RDKit          3D

 26 25  0  0  1  0  0  0  0  0999 V2000
    8.8494  -12.9649   19.7365 N   0  0  0  0  0  0  0  0  0  0  0  0
    7.4964  -12.9433   19.2571 C   0  0  0  0  0  0  0  0  0  0  0  0
    7.1779  -12.0152   18.4409 N   0  0  0  0  0  0  0  0  0  0  0  0
    6.5416  -13.9049   19.6612 N   0  0  0  0  0  0  0  0  0  0  0  0
    6.8755  -15.0958   20.4046 C   0  0  0  0  0  0  0  0  0  0  0  0
    7.7824  -15.9854   19.6092 C   0  0  0  0  0  0  0  0  0  0  0  0
    9.0092  -16.4066   20.4165 C   0  0  0  0  0  0  0  0  0  0  0  0
    9.8299  -17.2770   19.4679 C   0  0  2  0  0  0  0  0  0  0  0  0
    8.9940  -18.2282   18.7943 N   0  0  0  0  0  0  0  0  0  0  0  0
   10.8718  -17.9495   20.2777 C   0  0  0  0  0  0  0  0  0  0  0  0
   10.7791  -19.1766   20.4932 O   0  0  0  0  0  0  0  0  0  0  0  0
    6.2297  -11.8750   18.0420 O   0  0  0  0  0  0  0  0  0  0  0  0
   13.7815  -15.5686   22.1874 C   0  0  0  0  0  0  0  0  0  0  0  0
   14.1469  -16.7405   21.5591 C   0  0  1  0  0  0  0  0  0  0  0  0
   13.0475  -17.7686   21.5095 N   0  0  0  0  0  0  0  0  0  0  0  0
   11.9387  -17.1620   20.7776 C   0  0  0  0  0  0  0  0  0  0  0  0
   12.5366  -18.1395   22.8340 O   0  0  0  0  0  0  0  0  0  0  0  0
   11.7039  -17.3742   23.3776 N   0  0  0  0  0  0  0  0  0  0  0  0
    9.6519  -21.1418   24.2106 C   0  0  0  0  0  0  0  0  0  0  0  0
   11.0253  -21.3167   23.9638 O   0  0  0  0  0  0  0  0  0  0  0  0
   11.4029  -21.7430   22.8525 C   0  0  0  0  0  0  0  0  0  0  0  0
   12.0192  -21.0020   25.0027 C   0  0  2  0  0  0  0  0  0  0  0  0
   12.4370  -19.5549   24.8554 N   0  0  0  0  0  0  0  0  0  0  0  0
   12.9340  -19.3055   23.5183 C   0  0  0  0  0  0  0  0  0  0  0  0
   13.4515  -19.1332   25.8473 O   0  0  0  0  0  0  0  0  0  0  0  0
   14.5757  -18.6681   25.5708 O   0  0  0  0  0  0  0  0  0  0  0  0
  2  1  1  0
  2  4  1  0
  3  2  2  0
  5  4  1  0
  5  6  1  0
  6  7  1  0
  7  8  1  0
  8  9  1  1
 10 11  2  0
 10  8  1  0
 12 13  1  0
 14 13  1  6
 14 15  1  0
 14 16  1  0
 15 10  1  0
 16 23  1  0
 17 16  2  0
 19 18  1  0
 20 19  2  0
 21 19  1  0
 22 21  1  6
 22 24  1  0
 23 22  1  0
 24 25  2  0
 24 26  1  0
M  END
$$$$
