RSN.pdb
     RDKit          3D

 26 25  0  0  1  0  0  0  0  0999 V2000
    8.5361  -13.0139   15.5755 N   0  0  0  0  0  0  0  0  0  0  0  0
    7.8981  -13.6372   16.7004 C   0  0  0  0  0  0  0  0  0  0  0  0
    7.4964  -12.8761   17.6429 N   0  0  0  0  0  0  0  0  0  0  0  0
    7.7123  -15.0368   16.7772 N   0  0  0  0  0  0  0  0  0  0  0  0
    7.9507  -15.8079   17.9734 C   0  0  0  0  0  0  0  0  0  0  0  0
    9.2998  -15.4983   18.5485 C   0  0  0  0  0  0  0  0  0  0  0  0
    9.1888  -14.7526   19.8774 C   0  0  0  0  0  0  0  0  0  0  0  0
    9.4344  -15.8116   20.9494 C   0  0  2  0  0  0  0  0  0  0  0  0
    8.9625  -17.0955   20.5178 N   0  0  0  0  0  0  0  0  0  0  0  0
    8.7388  -15.3640   22.1780 C   0  0  0  0  0  0  0  0  0  0  0  0
    8.4048  -14.1652   22.2873 O   0  0  0  0  0  0  0  0  0  0  0  0
    7.1736  -13.2035   18.5737 O   0  0  0  0  0  0  0  0  0  0  0  0
    7.1671  -18.2360   24.8987 C   0  0  0  0  0  0  0  0  0  0  0  0
    6.7137  -16.9576   24.6499 C   0  0  1  0  0  0  0  0  0  0  0  0
    7.8172  -15.9559   24.4328 N   0  0  0  0  0  0  0  0  0  0  0  0
    8.4806  -16.3267   23.1856 C   0  0  0  0  0  0  0  0  0  0  0  0
    8.8385  -15.9769   25.4859 O   0  0  0  0  0  0  0  0  0  0  0  0
    9.9831  -16.3945   25.1855 N   0  0  0  0  0  0  0  0  0  0  0  0
   11.3974  -13.9118   30.1222 C   0  0  0  0  0  0  0  0  0  0  0  0
   10.4061  -14.8993   29.9816 O   0  0  0  0  0  0  0  0  0  0  0  0
   10.4354  -15.9113   30.7127 C   0  0  0  0  0  0  0  0  0  0  0  0
    9.3364  -14.7501   28.9817 C   0  0  1  0  0  0  0  0  0  0  0  0
    9.6605  -15.6216   27.7875 N   0  0  0  0  0  0  0  0  0  0  0  0
    8.5962  -15.5534   26.8079 C   0  0  0  0  0  0  0  0  0  0  0  0
    9.9148  -17.0353   28.1447 O   0  0  0  0  0  0  0  0  0  0  0  0
    9.0658  -17.9488   28.1075 O   0  0  0  0  0  0  0  0  0  0  0  0
  2  1  1  0
  2  4  1  0
  3  2  2  0
  5  4  1  0
  5  6  1  0
  6  7  1  0
  7  8  1  0
  8  9  1  6
 10 11  2  0
 10  8  1  0
 12 13  1  0
 14 13  1  6
 14 15  1  0
 14 16  1  0
 15 10  1  0
 16 23  1  0
 17 16  2  0
 19 18  1  0
 20 19  2  0
 21 19  1  0
 22 21  1  6
 22 24  1  0
 23 22  1  0
 24 25  2  0
 24 26  1  0
M  END
$$$$
