RSN.pdb
     RDKit          3D

 26 25  0  0  1  0  0  0  0  0999 V2000
    8.4616  -12.6777   17.7879 N   0  0  0  0  0  0  0  0  0  0  0  0
    7.9020  -13.1831   19.0095 C   0  0  0  0  0  0  0  0  0  0  0  0
    6.6602  -12.9731   19.2169 N   0  0  0  0  0  0  0  0  0  0  0  0
    8.6802  -13.8888   19.9558 N   0  0  0  0  0  0  0  0  0  0  0  0
    9.6392  -14.9064   19.5991 C   0  0  0  0  0  0  0  0  0  0  0  0
    9.0661  -16.2761   19.8043 C   0  0  0  0  0  0  0  0  0  0  0  0
    7.7194  -16.2219   20.5239 C   0  0  0  0  0  0  0  0  0  0  0  0
    7.5198  -17.6216   21.1001 C   0  0  2  0  0  0  0  0  0  0  0  0
    6.6357  -18.3931   20.2752 N   0  0  0  0  0  0  0  0  0  0  0  0
    6.9799  -17.4610   22.4699 C   0  0  0  0  0  0  0  0  0  0  0  0
    5.9581  -16.7639   22.6448 O   0  0  0  0  0  0  0  0  0  0  0  0
    6.1265  -13.3278   20.0337 O   0  0  0  0  0  0  0  0  0  0  0  0
    7.9776  -20.1255   25.5219 C   0  0  0  0  0  0  0  0  0  0  0  0
    6.9132  -19.2495   25.4874 C   0  0  1  0  0  0  0  0  0  0  0  0
    7.2606  -17.8974   24.9224 N   0  0  0  0  0  0  0  0  0  0  0  0
    7.6546  -18.1124   23.5325 C   0  0  0  0  0  0  0  0  0  0  0  0
    8.3959  -17.2582   25.5972 O   0  0  0  0  0  0  0  0  0  0  0  0
    9.5403  -17.4316   25.1126 N   0  0  0  0  0  0  0  0  0  0  0  0
   10.4172  -13.9517   30.1400 C   0  0  0  0  0  0  0  0  0  0  0  0
   10.3444  -14.1251   28.7463 O   0  0  0  0  0  0  0  0  0  0  0  0
   11.3308  -13.8375   28.0366 C   0  0  0  0  0  0  0  0  0  0  0  0
    9.1175  -14.6416   28.1187 C   0  0  2  0  0  0  0  0  0  0  0  0
    9.4450  -15.9303   27.3958 N   0  0  0  0  0  0  0  0  0  0  0  0
    8.2621  -16.4653   26.7543 C   0  0  0  0  0  0  0  0  0  0  0  0
   10.0403  -16.9613   28.2755 O   0  0  0  0  0  0  0  0  0  0  0  0
    9.4230  -17.9262   28.7699 O   0  0  0  0  0  0  0  0  0  0  0  0
  2  1  1  0
  2  4  1  0
  3  2  2  0
  5  4  1  0
  5  6  1  0
  6  7  1  0
  7  8  1  0
  8  9  1  6
 10 11  2  0
 10  8  1  0
 12 13  1  0
 14 13  1  6
 14 15  1  0
 14 16  1  0
 15 10  1  0
 16 23  1  0
 17 16  2  0
 19 18  1  0
 20 19  2  0
 21 19  1  0
 22 21  1  6
 22 24  1  0
 23 22  1  0
 24 25  2  0
 24 26  1  0
M  END
$$$$
