RSN.pdb
     RDKit          3D

 26 25  0  0  1  0  0  0  0  0999 V2000
    8.2553  -13.2967   16.6050 N   0  0  0  0  0  0  0  0  0  0  0  0
    8.8382  -14.3687   17.3613 C   0  0  0  0  0  0  0  0  0  0  0  0
    9.1405  -15.4357   16.7294 N   0  0  0  0  0  0  0  0  0  0  0  0
    9.0765  -14.2636   18.7510 N   0  0  0  0  0  0  0  0  0  0  0  0
    8.2398  -13.5033   19.6478 C   0  0  0  0  0  0  0  0  0  0  0  0
    6.9766  -14.2474   19.9597 C   0  0  0  0  0  0  0  0  0  0  0  0
    6.7695  -14.4006   21.4657 C   0  0  0  0  0  0  0  0  0  0  0  0
    7.8610  -15.3662   21.9211 C   0  0  2  0  0  0  0  0  0  0  0  0
    7.7504  -16.6223   21.2375 N   0  0  0  0  0  0  0  0  0  0  0  0
    7.7186  -15.5325   23.3858 C   0  0  0  0  0  0  0  0  0  0  0  0
    7.6476  -14.5176   24.1108 O   0  0  0  0  0  0  0  0  0  0  0  0
    9.5822  -16.2730   17.1556 O   0  0  0  0  0  0  0  0  0  0  0  0
    7.7188  -19.4756   25.0273 C   0  0  0  0  0  0  0  0  0  0  0  0
    6.8577  -18.4800   25.4381 C   0  0  1  0  0  0  0  0  0  0  0  0
    7.4374  -17.0945   25.3262 N   0  0  0  0  0  0  0  0  0  0  0  0
    7.6689  -16.8503   23.9050 C   0  0  0  0  0  0  0  0  0  0  0  0
    8.7303  -16.9476   26.0040 O   0  0  0  0  0  0  0  0  0  0  0  0
    9.7718  -17.1184   25.3252 N   0  0  0  0  0  0  0  0  0  0  0  0
    9.0233  -13.1858   28.3704 C   0  0  0  0  0  0  0  0  0  0  0  0
   10.0067  -14.1168   27.9910 O   0  0  0  0  0  0  0  0  0  0  0  0
   10.6506  -13.9385   26.9361 C   0  0  0  0  0  0  0  0  0  0  0  0
   10.2825  -15.2973   28.8257 C   0  0  2  0  0  0  0  0  0  0  0  0
   10.1729  -16.5383   27.9663 N   0  0  0  0  0  0  0  0  0  0  0  0
    8.8561  -16.6262   27.3702 C   0  0  0  0  0  0  0  0  0  0  0  0
   10.4682  -17.7888   28.7012 O   0  0  0  0  0  0  0  0  0  0  0  0
    9.6780  -18.7445   28.8379 O   0  0  0  0  0  0  0  0  0  0  0  0
  2  1  1  0
  2  4  1  0
  3  2  2  0
  5  4  1  0
  5  6  1  0
  6  7  1  0
  7  8  1  0
  8  9  1  6
 10 11  2  0
 10  8  1  0
 12 13  1  0
 14 13  1  6
 14 15  1  0
 14 16  1  0
 15 10  1  0
 16 23  1  0
 17 16  2  0
 19 18  1  0
 20 19  2  0
 21 19  1  0
 22 21  1  6
 22 24  1  0
 23 22  1  0
 24 25  2  0
 24 26  1  0
M  END
$$$$
