RSN.pdb
     RDKit          3D

 26 25  0  0  1  0  0  0  0  0999 V2000
    7.7004  -12.2174   21.1236 N   0  0  0  0  0  0  0  0  0  0  0  0
    8.4220  -12.7714   20.0131 C   0  0  0  0  0  0  0  0  0  0  0  0
    9.3619  -12.0667   19.5139 N   0  0  0  0  0  0  0  0  0  0  0  0
    8.1182  -14.0458   19.4813 N   0  0  0  0  0  0  0  0  0  0  0  0
    6.9870  -14.8363   19.9032 C   0  0  0  0  0  0  0  0  0  0  0  0
    7.3396  -16.2924   19.9477 C   0  0  0  0  0  0  0  0  0  0  0  0
    8.1353  -16.6418   21.2043 C   0  0  0  0  0  0  0  0  0  0  0  0
    7.5949  -17.9974   21.6531 C   0  0  2  0  0  0  0  0  0  0  0  0
    6.4759  -18.3939   20.8481 N   0  0  0  0  0  0  0  0  0  0  0  0
    7.2176  -17.8705   23.0797 C   0  0  0  0  0  0  0  0  0  0  0  0
    6.2515  -17.1430   23.3927 O   0  0  0  0  0  0  0  0  0  0  0  0
    9.9104  -12.3208   18.6699 O   0  0  0  0  0  0  0  0  0  0  0  0
    6.5556  -20.3329   26.5673 C   0  0  0  0  0  0  0  0  0  0  0  0
    7.7394  -19.9027   26.0058 C   0  0  2  0  0  0  0  0  0  0  0  0
    7.6765  -18.4994   25.4625 N   0  0  0  0  0  0  0  0  0  0  0  0
    7.9783  -18.5881   24.0363 C   0  0  0  0  0  0  0  0  0  0  0  0
    8.6708  -17.5994   26.0574 O   0  0  0  0  0  0  0  0  0  0  0  0
    9.2356  -16.7690   25.3050 N   0  0  0  0  0  0  0  0  0  0  0  0
   10.2854  -13.2542   28.6140 C   0  0  0  0  0  0  0  0  0  0  0  0
    9.8425  -14.1216   27.5995 O   0  0  0  0  0  0  0  0  0  0  0  0
   10.2189  -13.9380   26.4232 C   0  0  0  0  0  0  0  0  0  0  0  0
    8.9405  -15.2417   27.9125 C   0  0  2  0  0  0  0  0  0  0  0  0
    9.7546  -16.5151   27.9936 N   0  0  0  0  0  0  0  0  0  0  0  0
    9.0180  -17.6236   27.4229 C   0  0  0  0  0  0  0  0  0  0  0  0
   10.1740  -16.8564   29.3715 O   0  0  0  0  0  0  0  0  0  0  0  0
    9.5323  -17.5816   30.1581 O   0  0  0  0  0  0  0  0  0  0  0  0
  2  1  1  0
  2  4  1  0
  3  2  2  0
  5  4  1  0
  5  6  1  0
  6  7  1  0
  7  8  1  0
  8  9  1  6
 10 11  2  0
 10  8  1  0
 12 13  1  0
 14 13  1  6
 14 15  1  0
 14 16  1  0
 15 10  1  0
 16 23  1  0
 17 16  2  0
 19 18  1  0
 20 19  2  0
 21 19  1  0
 22 21  1  6
 22 24  1  0
 23 22  1  0
 24 25  2  0
 24 26  1  0
M  END
$$$$
