RSN.pdb
     RDKit          3D

 26 25  0  0  1  0  0  0  0  0999 V2000
    9.5357  -16.1510   12.9696 N   0  0  0  0  0  0  0  0  0  0  0  0
    8.6424  -16.9568   13.7530 C   0  0  0  0  0  0  0  0  0  0  0  0
    7.6664  -17.5109   13.1452 N   0  0  0  0  0  0  0  0  0  0  0  0
    8.8220  -17.1413   15.1433 N   0  0  0  0  0  0  0  0  0  0  0  0
    9.4522  -16.1673   16.0016 C   0  0  0  0  0  0  0  0  0  0  0  0
    8.4353  -15.4652   16.8498 C   0  0  0  0  0  0  0  0  0  0  0  0
    9.0910  -14.4847   17.8208 C   0  0  0  0  0  0  0  0  0  0  0  0
    7.9385  -13.8974   18.6318 C   0  0  2  0  0  0  0  0  0  0  0  0
    7.4159  -12.7205   17.9998 N   0  0  0  0  0  0  0  0  0  0  0  0
    8.4599  -13.5988   19.9855 C   0  0  0  0  0  0  0  0  0  0  0  0
    9.0656  -12.5241   20.1824 O   0  0  0  0  0  0  0  0  0  0  0  0
    6.9562  -18.1205   13.5946 O   0  0  0  0  0  0  0  0  0  0  0  0
    6.6432  -14.9986   23.2543 C   0  0  0  0  0  0  0  0  0  0  0  0
    7.6288  -14.0341   23.2464 C   0  0  1  0  0  0  0  0  0  0  0  0
    8.7920  -14.3652   22.3490 N   0  0  0  0  0  0  0  0  0  0  0  0
    8.2459  -14.5566   21.0080 C   0  0  0  0  0  0  0  0  0  0  0  0
    9.4754  -15.6104   22.7167 O   0  0  0  0  0  0  0  0  0  0  0  0
    8.9935  -16.6905   22.2976 N   0  0  0  0  0  0  0  0  0  0  0  0
   12.6063  -16.5690   21.5537 C   0  0  0  0  0  0  0  0  0  0  0  0
   13.3757  -16.6000   22.7304 O   0  0  0  0  0  0  0  0  0  0  0  0
   14.6168  -16.4819   22.6592 C   0  0  0  0  0  0  0  0  0  0  0  0
   12.7313  -16.7702   24.0426 C   0  0  2  0  0  0  0  0  0  0  0  0
   11.2400  -16.9259   23.8369 N   0  0  0  0  0  0  0  0  0  0  0  0
   10.6382  -15.6496   23.5118 C   0  0  0  0  0  0  0  0  0  0  0  0
   10.5457  -17.5182   25.0022 O   0  0  0  0  0  0  0  0  0  0  0  0
    9.6536  -16.9553   25.6684 O   0  0  0  0  0  0  0  0  0  0  0  0
  2  1  1  0
  2  4  1  0
  3  2  2  0
  5  4  1  0
  5  6  1  0
  6  7  1  0
  7  8  1  0
  8  9  1  6
 10 11  2  0
 10  8  1  0
 12 13  1  0
 14 13  1  6
 14 15  1  0
 14 16  1  0
 15 10  1  0
 16 23  1  0
 17 16  2  0
 19 18  1  0
 20 19  2  0
 21 19  1  0
 22 21  1  6
 22 24  1  0
 23 22  1  0
 24 25  2  0
 24 26  1  0
M  END
$$$$
