RSN.pdb
     RDKit          3D

 26 25  0  0  1  0  0  0  0  0999 V2000
   17.2409  -16.3881   12.5718 N   0  0  0  0  0  0  0  0  0  0  0  0
   17.3373  -16.6551   11.1646 C   0  0  0  0  0  0  0  0  0  0  0  0
   18.2435  -16.0378   10.5111 N   0  0  0  0  0  0  0  0  0  0  0  0
   16.4723  -17.5635   10.5121 N   0  0  0  0  0  0  0  0  0  0  0  0
   15.4029  -18.2654   11.1801 C   0  0  0  0  0  0  0  0  0  0  0  0
   14.3847  -17.3040   11.7144 C   0  0  0  0  0  0  0  0  0  0  0  0
   13.2051  -18.0316   12.3573 C   0  0  0  0  0  0  0  0  0  0  0  0
   12.1866  -16.9382   12.6709 C   0  0  2  0  0  0  0  0  0  0  0  0
   12.5820  -15.6885   12.0886 N   0  0  0  0  0  0  0  0  0  0  0  0
   12.0854  -16.8406   14.1453 C   0  0  0  0  0  0  0  0  0  0  0  0
   12.9974  -16.2729   14.7829 O   0  0  0  0  0  0  0  0  0  0  0  0
   18.4084  -16.1329    9.4906 O   0  0  0  0  0  0  0  0  0  0  0  0
    8.9699  -18.9494   16.1898 C   0  0  0  0  0  0  0  0  0  0  0  0
    9.3303  -17.6557   16.5027 C   0  0  1  0  0  0  0  0  0  0  0  0
   10.7775  -17.3463   16.2232 N   0  0  0  0  0  0  0  0  0  0  0  0
   10.9458  -17.4021   14.7735 C   0  0  0  0  0  0  0  0  0  0  0  0
   11.7047  -18.3253   16.8017 O   0  0  0  0  0  0  0  0  0  0  0  0
   12.4892  -18.9215   16.0246 N   0  0  0  0  0  0  0  0  0  0  0  0
   15.5984  -18.1568   16.3490 C   0  0  0  0  0  0  0  0  0  0  0  0
   15.1172  -18.6142   17.5887 O   0  0  0  0  0  0  0  0  0  0  0  0
   15.5877  -19.6587   18.0857 C   0  0  0  0  0  0  0  0  0  0  0  0
   14.0656  -17.8733   18.3038 C   0  0  2  0  0  0  0  0  0  0  0  0
   13.0354  -18.8583   18.8127 N   0  0  0  0  0  0  0  0  0  0  0  0
   11.7551  -18.6246   18.1777 C   0  0  0  0  0  0  0  0  0  0  0  0
   12.8714  -18.8282   20.2835 O   0  0  0  0  0  0  0  0  0  0  0  0
   12.0385  -18.1322   20.8987 O   0  0  0  0  0  0  0  0  0  0  0  0
  2  1  1  0
  2  4  1  0
  3  2  2  0
  5  4  1  0
  5  6  1  0
  6  7  1  0
  7  8  1  0
  8  9  1  1
 10 11  2  0
 10  8  1  0
 12 13  1  0
 14 13  1  6
 14 15  1  0
 14 16  1  0
 15 10  1  0
 16 23  1  0
 17 16  2  0
 19 18  1  0
 20 19  2  0
 21 19  1  0
 22 21  1  6
 22 24  1  0
 23 22  1  0
 24 25  2  0
 24 26  1  0
M  END
$$$$
