RSN.pdb
     RDKit          3D

 26 25  0  0  1  0  0  0  0  0999 V2000
   11.6310  -16.7170   14.9790 N   0  0  0  0  0  0  0  0  0  0  0  0
   10.2156  -16.4796   14.9448 C   0  0  0  0  0  0  0  0  0  0  0  0
    9.7552  -15.8209   13.9532 N   0  0  0  0  0  0  0  0  0  0  0  0
    9.3510  -16.9503   15.9596 N   0  0  0  0  0  0  0  0  0  0  0  0
    8.0633  -16.3645   16.2445 C   0  0  0  0  0  0  0  0  0  0  0  0
    8.2063  -14.9253   16.6378 C   0  0  0  0  0  0  0  0  0  0  0  0
    8.9793  -14.7725   17.9468 C   0  0  0  0  0  0  0  0  0  0  0  0
    8.0290  -14.0336   18.8859 C   0  0  2  0  0  0  0  0  0  0  0  0
    7.7077  -12.7343   18.3702 N   0  0  0  0  0  0  0  0  0  0  0  0
    8.6961  -13.9427   20.2051 C   0  0  0  0  0  0  0  0  0  0  0  0
    9.5871  -13.0846   20.3801 O   0  0  0  0  0  0  0  0  0  0  0  0
    8.7531  -15.5928   13.8059 O   0  0  0  0  0  0  0  0  0  0  0  0
    7.5573  -16.7265   23.1775 C   0  0  0  0  0  0  0  0  0  0  0  0
    7.9798  -15.4542   23.5002 C   0  0  1  0  0  0  0  0  0  0  0  0
    8.9625  -14.8754   22.5166 N   0  0  0  0  0  0  0  0  0  0  0  0
    8.2893  -14.8434   21.2209 C   0  0  0  0  0  0  0  0  0  0  0  0
   10.1715  -15.6904   22.3530 O   0  0  0  0  0  0  0  0  0  0  0  0
   10.2461  -16.4345   21.3453 N   0  0  0  0  0  0  0  0  0  0  0  0
   15.1389  -17.1847   21.4502 C   0  0  0  0  0  0  0  0  0  0  0  0
   14.8060  -16.4569   22.6066 O   0  0  0  0  0  0  0  0  0  0  0  0
   15.5459  -16.5217   23.6104 C   0  0  0  0  0  0  0  0  0  0  0  0
   13.5949  -15.6214   22.6433 C   0  0  1  0  0  0  0  0  0  0  0  0
   12.4128  -16.4921   23.0109 N   0  0  0  0  0  0  0  0  0  0  0  0
   11.2440  -15.6764   23.2669 C   0  0  0  0  0  0  0  0  0  0  0  0
   12.6697  -17.3687   24.1756 O   0  0  0  0  0  0  0  0  0  0  0  0
   13.2615  -18.4661   24.1312 O   0  0  0  0  0  0  0  0  0  0  0  0
  2  1  1  0
  2  4  1  0
  3  2  2  0
  5  4  1  0
  5  6  1  0
  6  7  1  0
  7  8  1  0
  8  9  1  6
 10 11  2  0
 10  8  1  0
 12 13  1  0
 14 13  1  1
 14 15  1  0
 14 16  1  0
 15 10  1  0
 16 23  1  0
 17 16  2  0
 19 18  1  0
 20 19  2  0
 21 19  1  0
 22 21  1  6
 22 24  1  0
 23 22  1  0
 24 25  2  0
 24 26  1  0
M  END
$$$$
