EKQ.pdb
     RDKit          3D

 28 27  0  0  1  0  0  0  0  0999 V2000
   11.6261  -16.9979   18.4980 N   0  0  0  0  0  0  0  0  0  0  0  0
   11.5987  -17.7850   19.7171 C   0  0  1  0  0  0  0  0  0  0  0  0
   13.0209  -18.2592   19.9358 C   0  0  0  0  0  0  0  0  0  0  0  0
   13.8887  -17.8577   18.7426 C   0  0  0  0  0  0  0  0  0  0  0  0
   14.8530  -18.9251   18.4230 C   0  0  0  0  0  0  0  0  0  0  0  0
   15.5374  -19.4715   19.3168 O   0  0  0  0  0  0  0  0  0  0  0  0
   11.1437  -16.8883   20.8057 C   0  0  0  0  0  0  0  0  0  0  0  0
   11.9649  -16.2382   21.4967 O   0  0  0  0  0  0  0  0  0  0  0  0
   14.9996  -19.3260   17.1073 O   0  0  0  0  0  0  0  0  0  0  0  0
    9.7551  -16.7116   21.1316 N   0  0  0  0  0  0  0  0  0  0  0  0
    9.2920  -15.8069   22.1359 C   0  0  1  0  0  0  0  0  0  0  0  0
    8.1137  -14.9919   21.6147 C   0  0  0  0  0  0  0  0  0  0  0  0
    8.5461  -13.9320   20.6537 C   0  0  0  0  0  0  0  0  0  0  0  0
    7.5422  -13.7884   19.5367 C   0  0  0  0  0  0  0  0  0  0  0  0
    7.8979  -12.7630   18.5128 C   0  0  0  0  0  0  0  0  0  0  0  0
    6.8472  -12.7915   17.4886 N   0  0  0  0  0  0  0  0  0  0  0  0
    8.8815  -16.5001   23.3848 C   0  0  0  0  0  0  0  0  0  0  0  0
    8.2002  -17.5806   23.3337 O   0  0  0  0  0  0  0  0  0  0  0  0
   11.1150  -15.0825   29.1941 N   0  0  0  0  0  0  0  0  0  0  0  0
   10.2340  -16.1909   29.4469 C   0  0  0  0  0  0  0  0  0  0  0  0
   10.1952  -16.6059   30.6290 O   0  0  0  0  0  0  0  0  0  0  0  0
    9.4288  -16.7952   28.3620 C   0  0  0  0  0  0  0  0  0  0  0  0
    9.7179  -16.1758   27.0364 C   0  0  0  0  0  0  0  0  0  0  0  0
    8.8971  -16.7208   25.9085 C   0  0  2  0  0  0  0  0  0  0  0  0
    9.2217  -16.0016   24.6689 N   0  0  0  0  0  0  0  0  0  0  0  0
    7.4387  -16.6895   26.1491 C   0  0  0  0  0  0  0  0  0  0  0  0
    6.7034  -15.7736   25.6427 O   0  0  0  0  0  0  0  0  0  0  0  0
    6.7820  -17.6212   26.9151 O   0  0  0  0  0  0  0  0  0  0  0  0
  2  1  1  6
  2  3  1  0
  4  3  1  0
  5  4  1  0
  6  5  2  0
  7  2  1  0
  7 10  1  0
  8  7  2  0
  9  5  1  0
 11 10  1  0
 11 12  1  6
 13 12  1  0
 14 13  1  0
 15 14  1  0
 16 15  1  0
 17 11  1  0
 18 17  2  0
 20 19  1  0
 20 22  1  0
 21 20  2  0
 23 22  1  0
 24 23  1  1
 24 25  1  0
 25 17  1  0
 26 24  1  0
 27 26  2  0
 28 26  1  0
M  END
$$$$
