EKQ.pdb
     RDKit          3D

 28 27  0  0  1  0  0  0  0  0999 V2000
    8.2778  -15.4643   18.9257 N   0  0  0  0  0  0  0  0  0  0  0  0
    8.5404  -14.4641   19.9440 C   0  0  1  0  0  0  0  0  0  0  0  0
    7.7221  -13.2505   19.5532 C   0  0  0  0  0  0  0  0  0  0  0  0
    7.3727  -13.3199   18.0662 C   0  0  0  0  0  0  0  0  0  0  0  0
    8.5971  -13.4160   17.2519 C   0  0  0  0  0  0  0  0  0  0  0  0
    9.0817  -14.5255   16.9358 O   0  0  0  0  0  0  0  0  0  0  0  0
    8.0979  -15.0328   21.2390 C   0  0  0  0  0  0  0  0  0  0  0  0
    7.8644  -14.2942   22.2261 O   0  0  0  0  0  0  0  0  0  0  0  0
    9.2178  -12.2534   16.8323 O   0  0  0  0  0  0  0  0  0  0  0  0
    7.9125  -16.4438   21.4402 N   0  0  0  0  0  0  0  0  0  0  0  0
    7.5753  -17.0204   22.7033 C   0  0  1  0  0  0  0  0  0  0  0  0
    7.1683  -18.4793   22.5300 C   0  0  0  0  0  0  0  0  0  0  0  0
    6.8330  -19.1269   23.8347 C   0  0  0  0  0  0  0  0  0  0  0  0
    6.5171  -20.5885   23.6346 C   0  0  0  0  0  0  0  0  0  0  0  0
    6.0621  -21.2976   24.8661 C   0  0  0  0  0  0  0  0  0  0  0  0
    6.0074  -22.7288   24.5462 N   0  0  0  0  0  0  0  0  0  0  0  0
    8.6912  -16.9460   23.6821 C   0  0  0  0  0  0  0  0  0  0  0  0
    9.8759  -17.2864   23.3431 O   0  0  0  0  0  0  0  0  0  0  0  0
    9.2375  -13.0538   28.5292 N   0  0  0  0  0  0  0  0  0  0  0  0
   10.2095  -14.0575   28.8704 C   0  0  0  0  0  0  0  0  0  0  0  0
   11.0021  -13.7653   29.7963 O   0  0  0  0  0  0  0  0  0  0  0  0
   10.2578  -15.3538   28.1578 C   0  0  0  0  0  0  0  0  0  0  0  0
    9.2716  -15.4175   27.0407 C   0  0  0  0  0  0  0  0  0  0  0  0
    9.5835  -16.4488   26.0005 C   0  0  2  0  0  0  0  0  0  0  0  0
    8.4946  -16.5014   25.0151 N   0  0  0  0  0  0  0  0  0  0  0  0
    9.8450  -17.7987   26.5436 C   0  0  0  0  0  0  0  0  0  0  0  0
    8.8966  -18.6401   26.7124 O   0  0  0  0  0  0  0  0  0  0  0  0
   11.0974  -18.2382   26.8971 O   0  0  0  0  0  0  0  0  0  0  0  0
  2  1  1  6
  2  3  1  0
  4  3  1  0
  5  4  1  0
  6  5  2  0
  7  2  1  0
  7 10  1  0
  8  7  2  0
  9  5  1  0
 11 10  1  0
 11 12  1  6
 13 12  1  0
 14 13  1  0
 15 14  1  0
 16 15  1  0
 17 11  1  0
 18 17  2  0
 20 19  1  0
 20 22  1  0
 21 20  2  0
 23 22  1  0
 24 23  1  1
 24 25  1  0
 25 17  1  0
 26 24  1  0
 27 26  2  0
 28 26  1  0
M  END
$$$$
