EKQ.pdb
     RDKit          3D

 28 27  0  0  1  0  0  0  0  0999 V2000
    9.1264  -16.4136   18.6708 N   0  0  0  0  0  0  0  0  0  0  0  0
    9.2633  -17.2294   19.8634 C   0  0  1  0  0  0  0  0  0  0  0  0
   10.3955  -18.1945   19.5771 C   0  0  0  0  0  0  0  0  0  0  0  0
   10.0302  -19.0808   18.3859 C   0  0  0  0  0  0  0  0  0  0  0  0
   10.8906  -20.2765   18.3487 C   0  0  0  0  0  0  0  0  0  0  0  0
   10.4436  -21.3877   17.9865 O   0  0  0  0  0  0  0  0  0  0  0  0
    9.5893  -16.3147   20.9830 C   0  0  0  0  0  0  0  0  0  0  0  0
   10.6371  -15.6246   20.9729 O   0  0  0  0  0  0  0  0  0  0  0  0
   12.2172  -20.1613   18.7229 O   0  0  0  0  0  0  0  0  0  0  0  0
    8.7380  -16.1650   22.1313 N   0  0  0  0  0  0  0  0  0  0  0  0
    9.0260  -15.2774   23.2133 C   0  0  1  0  0  0  0  0  0  0  0  0
    7.7380  -14.6774   23.7658 C   0  0  0  0  0  0  0  0  0  0  0  0
    7.9980  -13.7356   24.8970 C   0  0  0  0  0  0  0  0  0  0  0  0
    6.6990  -13.2370   25.4801 C   0  0  0  0  0  0  0  0  0  0  0  0
    6.8557  -12.3245   26.6503 C   0  0  0  0  0  0  0  0  0  0  0  0
    5.5081  -11.9194   27.0667 N   0  0  0  0  0  0  0  0  0  0  0  0
    9.7588  -15.9445   24.3208 C   0  0  0  0  0  0  0  0  0  0  0  0
    9.3379  -17.0507   24.8041 O   0  0  0  0  0  0  0  0  0  0  0  0
   10.7225  -15.4919   31.0864 N   0  0  0  0  0  0  0  0  0  0  0  0
   10.6592  -14.9760   29.7454 C   0  0  0  0  0  0  0  0  0  0  0  0
    9.9663  -13.9442   29.5837 O   0  0  0  0  0  0  0  0  0  0  0  0
   11.3753  -15.6389   28.6326 C   0  0  0  0  0  0  0  0  0  0  0  0
   10.8528  -15.2200   27.3000 C   0  0  0  0  0  0  0  0  0  0  0  0
   11.5235  -15.8846   26.1375 C   0  0  2  0  0  0  0  0  0  0  0  0
   10.9390  -15.3924   24.8824 N   0  0  0  0  0  0  0  0  0  0  0  0
   11.4798  -17.3619   26.1752 C   0  0  0  0  0  0  0  0  0  0  0  0
   12.4163  -18.0386   26.7240 O   0  0  0  0  0  0  0  0  0  0  0  0
   10.4530  -18.0986   25.6373 O   0  0  0  0  0  0  0  0  0  0  0  0
  2  1  1  6
  2  3  1  0
  4  3  1  0
  5  4  1  0
  6  5  2  0
  7  2  1  0
  7 10  1  0
  8  7  2  0
  9  5  1  0
 11 10  1  0
 11 12  1  1
 13 12  1  0
 14 13  1  0
 15 14  1  0
 16 15  1  0
 17 11  1  0
 18 17  2  0
 20 19  1  0
 20 22  1  0
 21 20  2  0
 23 22  1  0
 24 23  1  1
 24 25  1  0
 25 17  1  0
 26 24  1  0
 27 26  2  0
 28 26  1  0
M  END
$$$$
