EKQ.pdb
     RDKit          3D

 28 27  0  0  1  0  0  0  0  0999 V2000
    9.5627  -15.2391   13.5767 N   0  0  0  0  0  0  0  0  0  0  0  0
    9.5638  -16.1528   14.7043 C   0  0  1  0  0  0  0  0  0  0  0  0
   10.6024  -17.2075   14.3817 C   0  0  0  0  0  0  0  0  0  0  0  0
   10.4365  -17.6701   12.9337 C   0  0  0  0  0  0  0  0  0  0  0  0
   11.4271  -18.7111   12.6074 C   0  0  0  0  0  0  0  0  0  0  0  0
   12.5326  -18.4194   12.0989 O   0  0  0  0  0  0  0  0  0  0  0  0
    9.9331  -15.3652   15.9042 C   0  0  0  0  0  0  0  0  0  0  0  0
   11.0960  -14.9187   16.0545 O   0  0  0  0  0  0  0  0  0  0  0  0
   11.1225  -20.0343   12.8709 O   0  0  0  0  0  0  0  0  0  0  0  0
    8.9959  -15.0697   16.9530 N   0  0  0  0  0  0  0  0  0  0  0  0
    9.3724  -14.4912   18.2040 C   0  0  1  0  0  0  0  0  0  0  0  0
    8.1571  -14.3555   19.1143 C   0  0  0  0  0  0  0  0  0  0  0  0
    8.4802  -13.6224   20.3761 C   0  0  0  0  0  0  0  0  0  0  0  0
    7.2553  -13.5050   21.2489 C   0  0  0  0  0  0  0  0  0  0  0  0
    7.4625  -12.7265   22.5048 C   0  0  0  0  0  0  0  0  0  0  0  0
    6.1696  -12.6694   23.1969 N   0  0  0  0  0  0  0  0  0  0  0  0
   10.4147  -15.2819   18.9092 C   0  0  0  0  0  0  0  0  0  0  0  0
   10.4646  -16.5527   18.7788 O   0  0  0  0  0  0  0  0  0  0  0  0
   15.9101  -13.2897   17.8966 N   0  0  0  0  0  0  0  0  0  0  0  0
   16.1876  -14.0935   19.0565 C   0  0  0  0  0  0  0  0  0  0  0  0
   17.3457  -14.0013   19.5270 O   0  0  0  0  0  0  0  0  0  0  0  0
   15.1545  -14.9741   19.6461 C   0  0  0  0  0  0  0  0  0  0  0  0
   13.7737  -14.4825   19.3702 C   0  0  0  0  0  0  0  0  0  0  0  0
   12.6909  -15.2864   20.0215 C   0  0  2  0  0  0  0  0  0  0  0  0
   11.3851  -14.6717   19.7453 N   0  0  0  0  0  0  0  0  0  0  0  0
   12.8676  -15.4755   21.4771 C   0  0  0  0  0  0  0  0  0  0  0  0
   12.2069  -14.7773   22.3208 O   0  0  0  0  0  0  0  0  0  0  0  0
   13.7333  -16.3949   22.0171 O   0  0  0  0  0  0  0  0  0  0  0  0
  2  1  1  6
  2  3  1  0
  4  3  1  0
  5  4  1  0
  6  5  2  0
  7  2  1  0
  7 10  1  0
  8  7  2  0
  9  5  1  0
 11 10  1  0
 11 12  1  1
 13 12  1  0
 14 13  1  0
 15 14  1  0
 16 15  1  0
 17 11  1  0
 18 17  2  0
 20 19  1  0
 20 22  1  0
 21 20  2  0
 23 22  1  0
 24 23  1  1
 24 25  1  0
 25 17  1  0
 26 24  1  0
 27 26  2  0
 28 26  1  0
M  END
$$$$
