EKQ.pdb
     RDKit          3D

 28 27  0  0  1  0  0  0  0  0999 V2000
   12.3277  -17.3296   19.2196 N   0  0  0  0  0  0  0  0  0  0  0  0
   12.7076  -16.6817   20.4615 C   0  0  1  0  0  0  0  0  0  0  0  0
   13.2951  -15.3422   20.0668 C   0  0  0  0  0  0  0  0  0  0  0  0
   13.9525  -15.4516   18.6906 C   0  0  0  0  0  0  0  0  0  0  0  0
   14.4939  -14.1467   18.2717 C   0  0  0  0  0  0  0  0  0  0  0  0
   15.6659  -13.8094   18.5517 O   0  0  0  0  0  0  0  0  0  0  0  0
   11.4739  -16.5258   21.2678 C   0  0  0  0  0  0  0  0  0  0  0  0
   10.9322  -15.4036   21.4145 O   0  0  0  0  0  0  0  0  0  0  0  0
   13.6856  -13.2828   17.5553 O   0  0  0  0  0  0  0  0  0  0  0  0
   10.8328  -17.6338   21.9212 N   0  0  0  0  0  0  0  0  0  0  0  0
    9.6101  -17.5160   22.6510 C   0  0  1  0  0  0  0  0  0  0  0  0
    9.0237  -18.8948   22.9319 C   0  0  0  0  0  0  0  0  0  0  0  0
    7.7076  -18.8120   23.6356 C   0  0  0  0  0  0  0  0  0  0  0  0
    7.1067  -20.1862   23.7983 C   0  0  0  0  0  0  0  0  0  0  0  0
    5.7430  -20.1977   24.4038 C   0  0  0  0  0  0  0  0  0  0  0  0
    5.2568  -21.5814   24.3492 N   0  0  0  0  0  0  0  0  0  0  0  0
    9.7801  -16.7948   23.9393 C   0  0  0  0  0  0  0  0  0  0  0  0
   10.8346  -16.9618   24.6425 O   0  0  0  0  0  0  0  0  0  0  0  0
    5.4962  -12.6826   25.9128 N   0  0  0  0  0  0  0  0  0  0  0  0
    6.8034  -12.1036   26.0697 C   0  0  0  0  0  0  0  0  0  0  0  0
    6.8402  -10.8617   26.2347 O   0  0  0  0  0  0  0  0  0  0  0  0
    8.0237  -12.9404   26.0339 C   0  0  0  0  0  0  0  0  0  0  0  0
    7.7047  -14.3969   25.9948 C   0  0  0  0  0  0  0  0  0  0  0  0
    8.8908  -15.2824   25.7668 C   0  0  2  0  0  0  0  0  0  0  0  0
    8.7956  -15.9033   24.4384 N   0  0  0  0  0  0  0  0  0  0  0  0
    9.0810  -16.3204   26.8022 C   0  0  0  0  0  0  0  0  0  0  0  0
   10.0460  -16.2524   27.6390 O   0  0  0  0  0  0  0  0  0  0  0  0
    8.2532  -17.4078   26.9390 O   0  0  0  0  0  0  0  0  0  0  0  0
  2  1  1  6
  2  3  1  0
  4  3  1  0
  5  4  1  0
  6  5  2  0
  7  2  1  0
  7 10  1  0
  8  7  2  0
  9  5  1  0
 11 10  1  0
 11 12  1  1
 13 12  1  0
 14 13  1  0
 15 14  1  0
 16 15  1  0
 17 11  1  0
 18 17  2  0
 20 19  1  0
 20 22  1  0
 21 20  2  0
 23 22  1  0
 24 23  1  1
 24 25  1  0
 25 17  1  0
 26 24  1  0
 27 26  2  0
 28 26  1  0
M  END
$$$$
