EKQ.pdb
     RDKit          3D

 28 27  0  0  1  0  0  0  0  0999 V2000
    8.8510  -18.7431   17.0090 N   0  0  0  0  0  0  0  0  0  0  0  0
   10.2148  -18.2930   17.2186 C   0  0  1  0  0  0  0  0  0  0  0  0
   10.5847  -17.5021   15.9805 C   0  0  0  0  0  0  0  0  0  0  0  0
    9.3771  -17.4085   15.0472 C   0  0  0  0  0  0  0  0  0  0  0  0
    9.7101  -16.6174   13.8495 C   0  0  0  0  0  0  0  0  0  0  0  0
   10.2830  -17.1374   12.8660 O   0  0  0  0  0  0  0  0  0  0  0  0
   10.2127  -17.4446   18.4338 C   0  0  0  0  0  0  0  0  0  0  0  0
   11.2686  -16.9159   18.8577 O   0  0  0  0  0  0  0  0  0  0  0  0
    9.3803  -15.2745   13.8183 O   0  0  0  0  0  0  0  0  0  0  0  0
    9.0191  -17.1802   19.1894 N   0  0  0  0  0  0  0  0  0  0  0  0
    9.0120  -16.4541   20.4199 C   0  0  1  0  0  0  0  0  0  0  0  0
    7.5982  -15.9948   20.7581 C   0  0  0  0  0  0  0  0  0  0  0  0
    7.0284  -15.1071   19.6992 C   0  0  0  0  0  0  0  0  0  0  0  0
    7.7661  -13.7919   19.6573 C   0  0  0  0  0  0  0  0  0  0  0  0
    7.2337  -12.8149   18.6630 C   0  0  0  0  0  0  0  0  0  0  0  0
    8.0343  -11.5912   18.7870 N   0  0  0  0  0  0  0  0  0  0  0  0
    9.5432  -17.2503   21.5569 C   0  0  0  0  0  0  0  0  0  0  0  0
    9.4155  -18.5222   21.5744 O   0  0  0  0  0  0  0  0  0  0  0  0
   14.8625  -18.9776   23.4228 N   0  0  0  0  0  0  0  0  0  0  0  0
   13.8632  -19.8138   22.8139 C   0  0  0  0  0  0  0  0  0  0  0  0
   14.2791  -20.8647   22.2721 O   0  0  0  0  0  0  0  0  0  0  0  0
   12.4316  -19.4388   22.8338 C   0  0  0  0  0  0  0  0  0  0  0  0
   12.2312  -17.9763   22.6209 C   0  0  0  0  0  0  0  0  0  0  0  0
   11.1761  -17.3651   23.4904 C   0  0  2  0  0  0  0  0  0  0  0  0
   10.2049  -16.6442   22.6559 N   0  0  0  0  0  0  0  0  0  0  0  0
   11.7015  -16.4737   24.5464 C   0  0  0  0  0  0  0  0  0  0  0  0
   11.7435  -15.2059   24.3828 O   0  0  0  0  0  0  0  0  0  0  0  0
   12.1707  -16.9316   25.7533 O   0  0  0  0  0  0  0  0  0  0  0  0
  2  1  1  6
  2  3  1  0
  4  3  1  0
  5  4  1  0
  6  5  2  0
  7  2  1  0
  7 10  1  0
  8  7  2  0
  9  5  1  0
 11 10  1  0
 11 12  1  1
 13 12  1  0
 14 13  1  0
 15 14  1  0
 16 15  1  0
 17 11  1  0
 18 17  2  0
 20 19  1  0
 20 22  1  0
 21 20  2  0
 23 22  1  0
 24 23  1  6
 24 25  1  0
 25 17  1  0
 26 24  1  0
 27 26  2  0
 28 26  1  0
M  END
$$$$
