EKQ.pdb
     RDKit          3D

 28 27  0  0  1  0  0  0  0  0999 V2000
   11.3899  -14.2951   18.5424 N   0  0  0  0  0  0  0  0  0  0  0  0
   12.2320  -15.2145   19.2854 C   0  0  1  0  0  0  0  0  0  0  0  0
   13.4741  -14.4306   19.6566 C   0  0  0  0  0  0  0  0  0  0  0  0
   14.6831  -14.9931   18.9082 C   0  0  0  0  0  0  0  0  0  0  0  0
   15.9231  -14.3427   19.3671 C   0  0  0  0  0  0  0  0  0  0  0  0
   16.4963  -14.7053   20.4186 O   0  0  0  0  0  0  0  0  0  0  0  0
   11.4679  -15.6353   20.4835 C   0  0  0  0  0  0  0  0  0  0  0  0
   10.7328  -14.8274   21.1009 O   0  0  0  0  0  0  0  0  0  0  0  0
   16.4584  -13.3117   18.6163 O   0  0  0  0  0  0  0  0  0  0  0  0
   11.5220  -16.9741   21.0035 N   0  0  0  0  0  0  0  0  0  0  0  0
   10.7640  -17.4099   22.1336 C   0  0  1  0  0  0  0  0  0  0  0  0
   10.4404  -18.8950   22.0159 C   0  0  0  0  0  0  0  0  0  0  0  0
    9.6408  -19.3888   23.1782 C   0  0  0  0  0  0  0  0  0  0  0  0
    9.2899  -20.8451   22.9991 C   0  0  0  0  0  0  0  0  0  0  0  0
    8.5614  -21.4524   24.1510 C   0  0  0  0  0  0  0  0  0  0  0  0
    8.1583  -22.8037   23.7443 N   0  0  0  0  0  0  0  0  0  0  0  0
   11.4681  -17.1724   23.4207 C   0  0  0  0  0  0  0  0  0  0  0  0
   12.7379  -17.2981   23.4989 O   0  0  0  0  0  0  0  0  0  0  0  0
    9.5967  -15.3001   29.4279 N   0  0  0  0  0  0  0  0  0  0  0  0
    9.8452  -14.3282   28.3974 C   0  0  0  0  0  0  0  0  0  0  0  0
    9.6515  -13.1302   28.7110 O   0  0  0  0  0  0  0  0  0  0  0  0
   10.3010  -14.7367   27.0498 C   0  0  0  0  0  0  0  0  0  0  0  0
   10.4512  -16.2159   26.9324 C   0  0  0  0  0  0  0  0  0  0  0  0
   11.4438  -16.6553   25.9006 C   0  0  2  0  0  0  0  0  0  0  0  0
   10.7736  -16.8016   24.6011 N   0  0  0  0  0  0  0  0  0  0  0  0
   12.1663  -17.8985   26.2444 C   0  0  0  0  0  0  0  0  0  0  0  0
   11.5659  -19.0275   26.2721 O   0  0  0  0  0  0  0  0  0  0  0  0
   13.5048  -17.9311   26.5508 O   0  0  0  0  0  0  0  0  0  0  0  0
  2  1  1  6
  2  3  1  0
  4  3  1  0
  5  4  1  0
  6  5  2  0
  7  2  1  0
  7 10  1  0
  8  7  2  0
  9  5  1  0
 11 10  1  0
 11 12  1  6
 13 12  1  0
 14 13  1  0
 15 14  1  0
 16 15  1  0
 17 11  1  0
 18 17  2  0
 20 19  1  0
 20 22  1  0
 21 20  2  0
 23 22  1  0
 24 23  1  1
 24 25  1  0
 25 17  1  0
 26 24  1  0
 27 26  2  0
 28 26  1  0
M  END
$$$$
