EKQ.pdb
     RDKit          3D

 28 27  0  0  1  0  0  0  0  0999 V2000
   13.1294  -17.8203   19.5110 N   0  0  0  0  0  0  0  0  0  0  0  0
   13.7050  -18.3430   20.7365 C   0  0  1  0  0  0  0  0  0  0  0  0
   14.9314  -17.4971   21.0117 C   0  0  0  0  0  0  0  0  0  0  0  0
   15.9816  -17.7415   19.9275 C   0  0  0  0  0  0  0  0  0  0  0  0
   17.2294  -17.0256   20.2464 C   0  0  0  0  0  0  0  0  0  0  0  0
   17.6140  -16.0528   19.5597 O   0  0  0  0  0  0  0  0  0  0  0  0
   12.6823  -18.1921   21.7984 C   0  0  0  0  0  0  0  0  0  0  0  0
   12.0594  -17.1136   21.9506 O   0  0  0  0  0  0  0  0  0  0  0  0
   17.9855  -17.4422   21.3271 O   0  0  0  0  0  0  0  0  0  0  0  0
   12.3471  -19.2556   22.7050 N   0  0  0  0  0  0  0  0  0  0  0  0
   11.2977  -19.1646   23.6704 C   0  0  1  0  0  0  0  0  0  0  0  0
   10.9260  -20.5510   24.1839 C   0  0  0  0  0  0  0  0  0  0  0  0
    9.4928  -20.8820   23.9184 C   0  0  0  0  0  0  0  0  0  0  0  0
    9.3670  -21.7365   22.6815 C   0  0  0  0  0  0  0  0  0  0  0  0
    7.9661  -22.1057   22.3242 C   0  0  0  0  0  0  0  0  0  0  0  0
    8.0334  -22.9512   21.1265 N   0  0  0  0  0  0  0  0  0  0  0  0
   11.6581  -18.3045   24.8276 C   0  0  0  0  0  0  0  0  0  0  0  0
   12.8729  -18.2135   25.2154 O   0  0  0  0  0  0  0  0  0  0  0  0
    9.2756  -12.5385   28.9606 N   0  0  0  0  0  0  0  0  0  0  0  0
    9.1778  -13.6313   28.0306 C   0  0  0  0  0  0  0  0  0  0  0  0
    8.1217  -13.6904   27.3583 O   0  0  0  0  0  0  0  0  0  0  0  0
   10.2697  -14.6206   27.8901 C   0  0  0  0  0  0  0  0  0  0  0  0
   10.0181  -15.5801   26.7764 C   0  0  0  0  0  0  0  0  0  0  0  0
   11.0335  -16.6753   26.6644 C   0  0  2  0  0  0  0  0  0  0  0  0
   10.6858  -17.5583   25.5424 N   0  0  0  0  0  0  0  0  0  0  0  0
   11.2107  -17.4672   27.9002 C   0  0  0  0  0  0  0  0  0  0  0  0
   10.5440  -18.5401   28.1008 O   0  0  0  0  0  0  0  0  0  0  0  0
   12.0855  -17.1171   28.8996 O   0  0  0  0  0  0  0  0  0  0  0  0
  2  1  1  6
  2  3  1  0
  4  3  1  0
  5  4  1  0
  6  5  2  0
  7  2  1  0
  7 10  1  0
  8  7  2  0
  9  5  1  0
 11 10  1  0
 11 12  1  1
 13 12  1  0
 14 13  1  0
 15 14  1  0
 16 15  1  0
 17 11  1  0
 18 17  2  0
 20 19  1  0
 20 22  1  0
 21 20  2  0
 23 22  1  0
 24 23  1  1
 24 25  1  0
 25 17  1  0
 26 24  1  0
 27 26  2  0
 28 26  1  0
M  END
$$$$
