EKQ.pdb
     RDKit          3D

 28 27  0  0  1  0  0  0  0  0999 V2000
   12.8346  -22.6195   17.3500 N   0  0  0  0  0  0  0  0  0  0  0  0
   12.0834  -23.3412   18.3606 C   0  0  1  0  0  0  0  0  0  0  0  0
   13.0042  -24.4368   18.8574 C   0  0  0  0  0  0  0  0  0  0  0  0
   14.4285  -23.8956   18.9867 C   0  0  0  0  0  0  0  0  0  0  0  0
   15.3354  -24.9429   19.4887 C   0  0  0  0  0  0  0  0  0  0  0  0
   15.6958  -25.8943   18.7602 O   0  0  0  0  0  0  0  0  0  0  0  0
   11.7514  -22.3728   19.4323 C   0  0  0  0  0  0  0  0  0  0  0  0
   12.5507  -21.4603   19.7525 O   0  0  0  0  0  0  0  0  0  0  0  0
   15.7933  -24.8668   20.7917 O   0  0  0  0  0  0  0  0  0  0  0  0
   10.5124  -22.4197   20.1593 N   0  0  0  0  0  0  0  0  0  0  0  0
   10.1844  -21.5127   21.2134 C   0  0  1  0  0  0  0  0  0  0  0  0
    8.6730  -21.4347   21.3966 C   0  0  0  0  0  0  0  0  0  0  0  0
    7.9871  -20.9023   20.1800 C   0  0  0  0  0  0  0  0  0  0  0  0
    6.4902  -20.9167   20.3671 C   0  0  0  0  0  0  0  0  0  0  0  0
    5.7162  -20.3876   19.2062 C   0  0  0  0  0  0  0  0  0  0  0  0
    4.2929  -20.5254   19.5360 N   0  0  0  0  0  0  0  0  0  0  0  0
   10.8063  -21.8922   22.5088 C   0  0  0  0  0  0  0  0  0  0  0  0
   11.1697  -23.0986   22.7257 O   0  0  0  0  0  0  0  0  0  0  0  0
   16.1647  -20.5416   23.1769 N   0  0  0  0  0  0  0  0  0  0  0  0
   15.8338  -21.5113   24.1863 C   0  0  0  0  0  0  0  0  0  0  0  0
   16.7159  -22.3645   24.4414 O   0  0  0  0  0  0  0  0  0  0  0  0
   14.5226  -21.4894   24.8723 C   0  0  0  0  0  0  0  0  0  0  0  0
   13.3943  -21.2770   23.9203 C   0  0  0  0  0  0  0  0  0  0  0  0
   12.0558  -21.1235   24.5742 C   0  0  2  0  0  0  0  0  0  0  0  0
   11.0208  -20.9481   23.5459 N   0  0  0  0  0  0  0  0  0  0  0  0
   11.9850  -20.0250   25.5612 C   0  0  0  0  0  0  0  0  0  0  0  0
   12.6641  -20.0629   26.6444 O   0  0  0  0  0  0  0  0  0  0  0  0
   11.2039  -18.9083   25.3899 O   0  0  0  0  0  0  0  0  0  0  0  0
  2  1  1  6
  2  3  1  0
  4  3  1  0
  5  4  1  0
  6  5  2  0
  7  2  1  0
  7 10  1  0
  8  7  2  0
  9  5  1  0
 11 10  1  0
 11 12  1  1
 13 12  1  0
 14 13  1  0
 15 14  1  0
 16 15  1  0
 17 11  1  0
 18 17  2  0
 20 19  1  0
 20 22  1  0
 21 20  2  0
 23 22  1  0
 24 23  1  6
 24 25  1  0
 25 17  1  0
 26 24  1  0
 27 26  2  0
 28 26  1  0
M  END
$$$$
