EKQ.pdb
     RDKit          3D

 28 27  0  0  1  0  0  0  0  0999 V2000
   12.1476  -20.2783   16.4564 N   0  0  0  0  0  0  0  0  0  0  0  0
   12.0917  -21.4629   17.2931 C   0  0  1  0  0  0  0  0  0  0  0  0
   13.5013  -21.6740   17.8067 C   0  0  0  0  0  0  0  0  0  0  0  0
   14.4675  -21.7980   16.6281 C   0  0  0  0  0  0  0  0  0  0  0  0
   15.8197  -22.1409   17.1026 C   0  0  0  0  0  0  0  0  0  0  0  0
   16.7082  -21.2676   17.2195 O   0  0  0  0  0  0  0  0  0  0  0  0
   11.1418  -21.1756   18.3938 C   0  0  0  0  0  0  0  0  0  0  0  0
   10.7778  -20.0018   18.6468 O   0  0  0  0  0  0  0  0  0  0  0  0
   16.1057  -23.4556   17.4233 O   0  0  0  0  0  0  0  0  0  0  0  0
   10.5885  -22.2084   19.2262 N   0  0  0  0  0  0  0  0  0  0  0  0
    9.6893  -21.9504   20.3062 C   0  0  1  0  0  0  0  0  0  0  0  0
    8.7004  -23.1004   20.4608 C   0  0  0  0  0  0  0  0  0  0  0  0
    7.2918  -22.6161   20.5843 C   0  0  0  0  0  0  0  0  0  0  0  0
    6.3394  -23.7807   20.6970 C   0  0  0  0  0  0  0  0  0  0  0  0
    4.8978  -23.3989   20.7456 C   0  0  0  0  0  0  0  0  0  0  0  0
    4.1210  -24.6437   20.7714 N   0  0  0  0  0  0  0  0  0  0  0  0
   10.3926  -21.7447   21.5992 C   0  0  0  0  0  0  0  0  0  0  0  0
    9.7405  -21.4110   22.6470 O   0  0  0  0  0  0  0  0  0  0  0  0
   14.4339  -25.3772   24.1513 N   0  0  0  0  0  0  0  0  0  0  0  0
   14.5401  -24.2411   25.0269 C   0  0  0  0  0  0  0  0  0  0  0  0
   15.2525  -24.3955   26.0465 O   0  0  0  0  0  0  0  0  0  0  0  0
   13.8404  -22.9719   24.7269 C   0  0  0  0  0  0  0  0  0  0  0  0
   13.0891  -23.0355   23.4401 C   0  0  0  0  0  0  0  0  0  0  0  0
   12.5010  -21.7291   23.0038 C   0  0  2  0  0  0  0  0  0  0  0  0
   11.7964  -21.9066   21.7265 N   0  0  0  0  0  0  0  0  0  0  0  0
   13.4816  -20.6279   22.8962 C   0  0  0  0  0  0  0  0  0  0  0  0
   14.2284  -20.3071   23.8838 O   0  0  0  0  0  0  0  0  0  0  0  0
   13.6592  -19.8871   21.7534 O   0  0  0  0  0  0  0  0  0  0  0  0
  2  1  1  6
  2  3  1  0
  4  3  1  0
  5  4  1  0
  6  5  2  0
  7  2  1  0
  7 10  1  0
  8  7  2  0
  9  5  1  0
 11 10  1  0
 11 12  1  1
 13 12  1  0
 14 13  1  0
 15 14  1  0
 16 15  1  0
 17 11  1  0
 18 17  2  0
 20 19  1  0
 20 22  1  0
 21 20  2  0
 23 22  1  0
 24 23  1  6
 24 25  1  0
 25 17  1  0
 26 24  1  0
 27 26  2  0
 28 26  1  0
M  END
$$$$
