EKQ.pdb
     RDKit          3D

 28 27  0  0  1  0  0  0  0  0999 V2000
    9.5980  -13.3793   19.1395 N   0  0  0  0  0  0  0  0  0  0  0  0
    9.6389  -14.8300   19.1496 C   0  0  1  0  0  0  0  0  0  0  0  0
   11.0840  -15.2053   18.8924 C   0  0  0  0  0  0  0  0  0  0  0  0
   11.9902  -14.0129   19.2007 C   0  0  0  0  0  0  0  0  0  0  0  0
   13.3991  -14.3525   18.9342 C   0  0  0  0  0  0  0  0  0  0  0  0
   13.7071  -15.3045   18.1828 O   0  0  0  0  0  0  0  0  0  0  0  0
    9.1860  -15.2703   20.4904 C   0  0  0  0  0  0  0  0  0  0  0  0
    9.3671  -14.5534   21.5041 O   0  0  0  0  0  0  0  0  0  0  0  0
   14.3956  -13.6003   19.5294 O   0  0  0  0  0  0  0  0  0  0  0  0
    8.5222  -16.5263   20.7078 N   0  0  0  0  0  0  0  0  0  0  0  0
    7.9860  -16.9241   21.9710 C   0  0  1  0  0  0  0  0  0  0  0  0
    7.3768  -18.3182   21.8748 C   0  0  0  0  0  0  0  0  0  0  0  0
    6.7905  -18.7653   23.1749 C   0  0  0  0  0  0  0  0  0  0  0  0
    6.1323  -20.1142   23.0231 C   0  0  0  0  0  0  0  0  0  0  0  0
    5.4254  -20.5990   24.2445 C   0  0  0  0  0  0  0  0  0  0  0  0
    4.7895  -21.8756   23.8985 N   0  0  0  0  0  0  0  0  0  0  0  0
    9.0057  -16.9192   23.0523 C   0  0  0  0  0  0  0  0  0  0  0  0
   10.2103  -17.2721   22.8102 O   0  0  0  0  0  0  0  0  0  0  0  0
    8.6202  -13.6109   28.4400 N   0  0  0  0  0  0  0  0  0  0  0  0
    9.7307  -14.4890   28.6934 C   0  0  0  0  0  0  0  0  0  0  0  0
   10.2444  -14.4132   29.8342 O   0  0  0  0  0  0  0  0  0  0  0  0
   10.2261  -15.4204   27.6553 C   0  0  0  0  0  0  0  0  0  0  0  0
    9.3229  -15.4714   26.4695 C   0  0  0  0  0  0  0  0  0  0  0  0
    9.6934  -16.5098   25.4560 C   0  0  2  0  0  0  0  0  0  0  0  0
    8.6927  -16.5291   24.3801 N   0  0  0  0  0  0  0  0  0  0  0  0
    9.8679  -17.8676   26.0143 C   0  0  0  0  0  0  0  0  0  0  0  0
    8.8985  -18.7016   26.0431 O   0  0  0  0  0  0  0  0  0  0  0  0
   11.0569  -18.3226   26.5295 O   0  0  0  0  0  0  0  0  0  0  0  0
  2  1  1  1
  2  3  1  0
  4  3  1  0
  5  4  1  0
  6  5  2  0
  7  2  1  0
  7 10  1  0
  8  7  2  0
  9  5  1  0
 11 10  1  0
 11 12  1  6
 13 12  1  0
 14 13  1  0
 15 14  1  0
 16 15  1  0
 17 11  1  0
 18 17  2  0
 20 19  1  0
 20 22  1  0
 21 20  2  0
 23 22  1  0
 24 23  1  1
 24 25  1  0
 25 17  1  0
 26 24  1  0
 27 26  2  0
 28 26  1  0
M  END
$$$$
