EKQ.pdb
     RDKit          3D

 28 27  0  0  1  0  0  0  0  0999 V2000
   11.4928  -17.3180   19.7230 N   0  0  0  0  0  0  0  0  0  0  0  0
   12.1843  -17.8234   20.8947 C   0  0  1  0  0  0  0  0  0  0  0  0
   13.3835  -16.9185   21.0901 C   0  0  0  0  0  0  0  0  0  0  0  0
   14.6627  -17.6679   20.7155 C   0  0  0  0  0  0  0  0  0  0  0  0
   15.8492  -16.8490   21.0208 C   0  0  0  0  0  0  0  0  0  0  0  0
   16.4977  -17.0136   22.0781 O   0  0  0  0  0  0  0  0  0  0  0  0
   11.2377  -17.7363   22.0318 C   0  0  0  0  0  0  0  0  0  0  0  0
   10.5611  -16.6994   22.2347 O   0  0  0  0  0  0  0  0  0  0  0  0
   16.2482  -15.8814   20.1165 O   0  0  0  0  0  0  0  0  0  0  0  0
   11.0405  -18.8179   22.9574 N   0  0  0  0  0  0  0  0  0  0  0  0
   10.1042  -18.7693   24.0357 C   0  0  1  0  0  0  0  0  0  0  0  0
    9.4053  -20.1149   24.1939 C   0  0  0  0  0  0  0  0  0  0  0  0
    8.3572  -20.0809   25.2590 C   0  0  0  0  0  0  0  0  0  0  0  0
    7.5935  -21.3815   25.2922 C   0  0  0  0  0  0  0  0  0  0  0  0
    6.4384  -21.3970   26.2366 C   0  0  0  0  0  0  0  0  0  0  0  0
    5.8120  -22.7201   26.1325 N   0  0  0  0  0  0  0  0  0  0  0  0
   10.7392  -18.4030   25.3285 C   0  0  0  0  0  0  0  0  0  0  0  0
   11.8444  -18.9386   25.6837 O   0  0  0  0  0  0  0  0  0  0  0  0
    9.6809  -12.3333   28.3553 N   0  0  0  0  0  0  0  0  0  0  0  0
    9.2003  -13.6085   27.8953 C   0  0  0  0  0  0  0  0  0  0  0  0
    7.9643  -13.7966   27.9842 O   0  0  0  0  0  0  0  0  0  0  0  0
   10.1259  -14.6283   27.3532 C   0  0  0  0  0  0  0  0  0  0  0  0
   10.0255  -15.9236   28.0856 C   0  0  0  0  0  0  0  0  0  0  0  0
   10.8017  -17.0445   27.4659 C   0  0  2  0  0  0  0  0  0  0  0  0
   10.1566  -17.4581   26.2120 N   0  0  0  0  0  0  0  0  0  0  0  0
   10.9912  -18.2133   28.3512 C   0  0  0  0  0  0  0  0  0  0  0  0
   11.9181  -18.2335   29.2324 O   0  0  0  0  0  0  0  0  0  0  0  0
   10.2027  -19.3365   28.2943 O   0  0  0  0  0  0  0  0  0  0  0  0
  2  1  1  6
  2  3  1  0
  4  3  1  0
  5  4  1  0
  6  5  2  0
  7  2  1  0
  7 10  1  0
  8  7  2  0
  9  5  1  0
 11 10  1  0
 11 12  1  1
 13 12  1  0
 14 13  1  0
 15 14  1  0
 16 15  1  0
 17 11  1  0
 18 17  2  0
 20 19  1  0
 20 22  1  0
 21 20  2  0
 23 22  1  0
 24 23  1  1
 24 25  1  0
 25 17  1  0
 26 24  1  0
 27 26  2  0
 28 26  1  0
M  END
$$$$
