FRE.pdb
     RDKit          3D

 32 32  0  0  1  0  0  0  0  0999 V2000
    8.1436  -15.5252   25.9491 N   0  0  0  0  0  0  0  0  0  0  0  0
    6.8665  -15.9587   25.4119 C   0  0  1  0  0  0  0  0  0  0  0  0
    6.0279  -14.6855   25.2499 C   0  0  0  0  0  0  0  0  0  0  0  0
    6.6374  -13.5917   26.0134 C   0  0  0  0  0  0  0  0  0  0  0  0
    5.8294  -12.7502   26.7462 C   0  0  0  0  0  0  0  0  0  0  0  0
    6.3535  -11.6938   27.4909 C   0  0  0  0  0  0  0  0  0  0  0  0
    7.6949  -11.4773   27.5031 C   0  0  0  0  0  0  0  0  0  0  0  0
    8.5411  -12.3061   26.7757 C   0  0  0  0  0  0  0  0  0  0  0  0
    7.9957  -13.3508   26.0423 C   0  0  0  0  0  0  0  0  0  0  0  0
    7.1208  -16.5922   24.1066 C   0  0  0  0  0  0  0  0  0  0  0  0
    6.4818  -17.6215   23.7348 O   0  0  0  0  0  0  0  0  0  0  0  0
    8.8676  -12.0605   17.7377 N   0  0  0  0  0  0  0  0  0  0  0  0
    8.3790  -13.3583   17.4439 C   0  0  0  0  0  0  0  0  0  0  0  0
    8.1133  -13.6269   16.1883 N   0  0  0  0  0  0  0  0  0  0  0  0
    8.1787  -14.3386   18.4465 N   0  0  0  0  0  0  0  0  0  0  0  0
    7.3237  -14.0293   19.5369 C   0  0  0  0  0  0  0  0  0  0  0  0
    7.8094  -14.5765   20.8623 C   0  0  0  0  0  0  0  0  0  0  0  0
    7.8701  -16.0616   20.7184 C   0  0  0  0  0  0  0  0  0  0  0  0
    8.3775  -16.7776   21.9400 C   0  0  2  0  0  0  0  0  0  0  0  0
    8.0840  -16.1138   23.1721 N   0  0  0  0  0  0  0  0  0  0  0  0
    9.8275  -17.1216   21.8148 C   0  0  0  0  0  0  0  0  0  0  0  0
   10.2823  -17.6974   20.7927 O   0  0  0  0  0  0  0  0  0  0  0  0
    8.3503  -12.9901   15.4226 N   0  0  0  0  0  0  0  0  0  0  0  0
   10.7340  -16.8047   22.8542 C   0  0  1  0  0  0  0  0  0  0  0  0
   12.1896  -17.0016   22.6335 C   0  0  0  0  0  0  0  0  0  0  0  0
   12.8074  -15.7038   22.2585 C   0  0  0  0  0  0  0  0  0  0  0  0
   12.5173  -15.3580   20.8271 C   0  0  0  0  0  0  0  0  0  0  0  0
   13.4243  -14.2582   20.3548 O   0  0  0  0  0  0  0  0  0  0  0  0
   13.2615  -13.1086   20.8057 C   0  0  0  0  0  0  0  0  0  0  0  0
   12.7510  -17.5557   23.8547 O   0  0  0  0  0  0  0  0  0  0  0  0
   12.0483  -17.8196   24.8703 O   0  0  0  0  0  0  0  0  0  0  0  0
   14.4066  -14.5352   19.4443 O   0  0  0  0  0  0  0  0  0  0  0  0
  2  1  1  6
  2  3  1  0
  3  4  1  0
  4  5  2  0
  5  6  1  0
  7  6  2  0
  8  7  1  0
  9  8  2  0
  9  4  1  0
 10 11  2  0
 10  2  1  0
 13 15  1  0
 13 12  1  0
 14 13  2  0
 16 17  1  0
 16 15  1  0
 17 18  1  0
 19 18  1  6
 19 20  1  0
 19 21  1  0
 20 10  1  0
 21 22  2  0
 21 23  1  0
 23 24  1  0
 24 29  1  0
 24 25  1  6
 26 25  1  0
 27 26  1  0
 28 27  2  0
 29 30  2  0
 29 32  1  0
 31 27  1  0
M  END
$$$$
