FRE.pdb
     RDKit          3D

 32 32  0  0  1  0  0  0  0  0999 V2000
    6.3905  -18.0863   26.2883 N   0  0  0  0  0  0  0  0  0  0  0  0
    6.5078  -16.6679   26.0023 C   0  0  1  0  0  0  0  0  0  0  0  0
    7.3026  -16.0708   27.1696 C   0  0  0  0  0  0  0  0  0  0  0  0
    7.2991  -14.6075   27.0727 C   0  0  0  0  0  0  0  0  0  0  0  0
    6.0959  -13.9367   27.0554 C   0  0  0  0  0  0  0  0  0  0  0  0
    6.0318  -12.5464   26.9647 C   0  0  0  0  0  0  0  0  0  0  0  0
    7.1788  -11.8217   26.8907 C   0  0  0  0  0  0  0  0  0  0  0  0
    8.4113  -12.4643   26.9055 C   0  0  0  0  0  0  0  0  0  0  0  0
    8.4491  -13.8489   26.9965 C   0  0  0  0  0  0  0  0  0  0  0  0
    7.2450  -16.5254   24.7350 C   0  0  0  0  0  0  0  0  0  0  0  0
    8.1809  -17.3200   24.4210 O   0  0  0  0  0  0  0  0  0  0  0  0
    9.2123  -12.3394   18.1832 N   0  0  0  0  0  0  0  0  0  0  0  0
    8.7986  -13.5289   17.5328 C   0  0  0  0  0  0  0  0  0  0  0  0
    9.4282  -13.8575   16.4306 N   0  0  0  0  0  0  0  0  0  0  0  0
    7.7530  -14.3431   18.0331 N   0  0  0  0  0  0  0  0  0  0  0  0
    7.1228  -13.9676   19.2486 C   0  0  0  0  0  0  0  0  0  0  0  0
    8.0403  -14.0284   20.4513 C   0  0  0  0  0  0  0  0  0  0  0  0
    7.1759  -14.2982   21.6387 C   0  0  0  0  0  0  0  0  0  0  0  0
    7.7049  -15.3682   22.5539 C   0  0  2  0  0  0  0  0  0  0  0  0
    6.9758  -15.5065   23.7763 N   0  0  0  0  0  0  0  0  0  0  0  0
    9.1746  -15.2177   22.7865 C   0  0  0  0  0  0  0  0  0  0  0  0
    9.6286  -14.3921   23.6203 O   0  0  0  0  0  0  0  0  0  0  0  0
    9.2198  -14.7119   15.9063 N   0  0  0  0  0  0  0  0  0  0  0  0
   10.1011  -16.0086   22.0666 C   0  0  2  0  0  0  0  0  0  0  0  0
   11.5536  -15.8494   22.3335 C   0  0  0  0  0  0  0  0  0  0  0  0
   12.0445  -17.0308   23.0885 C   0  0  0  0  0  0  0  0  0  0  0  0
   13.5066  -16.9046   23.4033 C   0  0  0  0  0  0  0  0  0  0  0  0
   13.9960  -18.1200   24.1373 O   0  0  0  0  0  0  0  0  0  0  0  0
   14.5628  -19.0236   23.4943 C   0  0  0  0  0  0  0  0  0  0  0  0
   12.2232  -15.6866   21.0534 O   0  0  0  0  0  0  0  0  0  0  0  0
   11.7188  -16.0802   19.9646 O   0  0  0  0  0  0  0  0  0  0  0  0
   13.8125  -18.2135   25.4894 O   0  0  0  0  0  0  0  0  0  0  0  0
  2  1  1  1
  2  3  1  0
  3  4  1  0
  4  5  2  0
  5  6  1  0
  7  6  2  0
  8  7  1  0
  9  8  2  0
  9  4  1  0
 10 11  2  0
 10  2  1  0
 13 15  1  0
 13 12  1  0
 14 13  2  0
 16 17  1  0
 16 15  1  0
 17 18  1  0
 19 18  1  1
 19 20  1  0
 19 21  1  0
 20 10  1  0
 21 22  2  0
 21 23  1  0
 23 24  1  0
 24 29  1  0
 24 25  1  6
 26 25  1  0
 27 26  1  0
 28 27  2  0
 29 30  2  0
 29 32  1  0
 31 27  1  0
M  END
$$$$
