FRE.pdb
     RDKit          3D

 32 32  0  0  1  0  0  0  0  0999 V2000
    5.6311  -16.5385   25.4897 N   0  0  0  0  0  0  0  0  0  0  0  0
    6.7094  -16.2766   24.5537 C   0  0  1  0  0  0  0  0  0  0  0  0
    7.7341  -15.4341   25.3225 C   0  0  0  0  0  0  0  0  0  0  0  0
    7.2045  -14.0829   25.5334 C   0  0  0  0  0  0  0  0  0  0  0  0
    6.3215  -13.8595   26.5670 C   0  0  0  0  0  0  0  0  0  0  0  0
    5.7858  -12.5958   26.8147 C   0  0  0  0  0  0  0  0  0  0  0  0
    6.1355  -11.5480   26.0234 C   0  0  0  0  0  0  0  0  0  0  0  0
    7.0240  -11.7357   24.9710 C   0  0  0  0  0  0  0  0  0  0  0  0
    7.5435  -13.0027   24.7445 C   0  0  0  0  0  0  0  0  0  0  0  0
    7.2842  -17.5736   24.1574 C   0  0  0  0  0  0  0  0  0  0  0  0
    6.6477  -18.6571   24.3208 O   0  0  0  0  0  0  0  0  0  0  0  0
    8.3211  -11.9456   19.0954 N   0  0  0  0  0  0  0  0  0  0  0  0
    7.9652  -13.2013   18.5426 C   0  0  0  0  0  0  0  0  0  0  0  0
    8.5202  -13.5311   17.4014 N   0  0  0  0  0  0  0  0  0  0  0  0
    7.0521  -14.0785   19.1775 N   0  0  0  0  0  0  0  0  0  0  0  0
    7.2205  -14.3482   20.5612 C   0  0  0  0  0  0  0  0  0  0  0  0
    8.2264  -15.4428   20.8476 C   0  0  0  0  0  0  0  0  0  0  0  0
    8.2686  -15.6110   22.3308 C   0  0  0  0  0  0  0  0  0  0  0  0
    9.2046  -16.6906   22.8008 C   0  0  2  0  0  0  0  0  0  0  0  0
    8.5743  -17.7180   23.5703 N   0  0  0  0  0  0  0  0  0  0  0  0
   10.4013  -16.1200   23.4927 C   0  0  0  0  0  0  0  0  0  0  0  0
   10.3970  -14.9524   23.9614 O   0  0  0  0  0  0  0  0  0  0  0  0
    8.3640  -14.4365   16.9497 N   0  0  0  0  0  0  0  0  0  0  0  0
   11.5812  -16.8874   23.6388 C   0  0  2  0  0  0  0  0  0  0  0  0
   12.8058  -16.2414   24.1767 C   0  0  0  0  0  0  0  0  0  0  0  0
   13.3454  -17.0656   25.2886 C   0  0  0  0  0  0  0  0  0  0  0  0
   12.2496  -17.8108   25.9932 C   0  0  0  0  0  0  0  0  0  0  0  0
   12.8237  -18.7832   26.9834 O   0  0  0  0  0  0  0  0  0  0  0  0
   13.1777  -19.9090   26.5852 C   0  0  0  0  0  0  0  0  0  0  0  0
   13.7484  -16.0975   23.0793 O   0  0  0  0  0  0  0  0  0  0  0  0
   14.8646  -15.5215   23.2099 O   0  0  0  0  0  0  0  0  0  0  0  0
   12.9474  -18.4189   28.2959 O   0  0  0  0  0  0  0  0  0  0  0  0
  2  1  1  1
  2  3  1  0
  3  4  1  0
  4  5  2  0
  5  6  1  0
  7  6  2  0
  8  7  1  0
  9  8  2  0
  9  4  1  0
 10 11  2  0
 10  2  1  0
 13 15  1  0
 13 12  1  0
 14 13  2  0
 16 17  1  0
 16 15  1  0
 17 18  1  0
 19 18  1  1
 19 20  1  0
 19 21  1  0
 20 10  1  0
 21 22  2  0
 21 23  1  0
 23 24  1  0
 24 29  1  0
 24 25  1  1
 26 25  1  0
 27 26  1  0
 28 27  2  0
 29 30  2  0
 29 32  1  0
 31 27  1  0
M  END
$$$$
