FRE.pdb
     RDKit          3D

 32 32  0  0  1  0  0  0  0  0999 V2000
    6.5333  -18.1140   27.0116 N   0  0  0  0  0  0  0  0  0  0  0  0
    6.6400  -16.8117   26.3790 C   0  0  1  0  0  0  0  0  0  0  0  0
    7.4167  -15.9310   27.3649 C   0  0  0  0  0  0  0  0  0  0  0  0
    7.2603  -14.5202   26.9964 C   0  0  0  0  0  0  0  0  0  0  0  0
    5.9943  -13.9846   26.9045 C   0  0  0  0  0  0  0  0  0  0  0  0
    5.7854  -12.6498   26.5582 C   0  0  0  0  0  0  0  0  0  0  0  0
    6.8496  -11.8448   26.3021 C   0  0  0  0  0  0  0  0  0  0  0  0
    8.1418  -12.3505   26.3851 C   0  0  0  0  0  0  0  0  0  0  0  0
    8.3241  -13.6822   26.7315 C   0  0  0  0  0  0  0  0  0  0  0  0
    7.3890  -16.9835   25.1224 C   0  0  0  0  0  0  0  0  0  0  0  0
    8.2741  -17.8817   24.9971 O   0  0  0  0  0  0  0  0  0  0  0  0
    9.2540  -13.1693   17.6814 N   0  0  0  0  0  0  0  0  0  0  0  0
    8.3185  -12.9846   18.7301 C   0  0  0  0  0  0  0  0  0  0  0  0
    8.0501  -11.7501   19.0812 N   0  0  0  0  0  0  0  0  0  0  0  0
    7.6884  -14.0710   19.3850 N   0  0  0  0  0  0  0  0  0  0  0  0
    8.4087  -15.2857   19.5307 C   0  0  0  0  0  0  0  0  0  0  0  0
    7.6221  -16.3776   20.2244 C   0  0  0  0  0  0  0  0  0  0  0  0
    7.1651  -15.8153   21.5301 C   0  0  0  0  0  0  0  0  0  0  0  0
    7.8665  -16.3941   22.7282 C   0  0  2  0  0  0  0  0  0  0  0  0
    7.1877  -16.1740   23.9674 N   0  0  0  0  0  0  0  0  0  0  0  0
    9.2997  -15.9705   22.7858 C   0  0  0  0  0  0  0  0  0  0  0  0
    9.6248  -14.7678   22.9610 O   0  0  0  0  0  0  0  0  0  0  0  0
    7.4457  -11.5178   19.8742 N   0  0  0  0  0  0  0  0  0  0  0  0
   10.3370  -16.9224   22.6433 C   0  0  1  0  0  0  0  0  0  0  0  0
   11.6972  -16.5943   23.1416 C   0  0  0  0  0  0  0  0  0  0  0  0
   12.3013  -17.8077   23.7496 C   0  0  0  0  0  0  0  0  0  0  0  0
   13.7079  -17.5450   24.2027 C   0  0  0  0  0  0  0  0  0  0  0  0
   14.3051  -18.7796   24.8149 O   0  0  0  0  0  0  0  0  0  0  0  0
   13.5448  -19.6406   25.2964 C   0  0  0  0  0  0  0  0  0  0  0  0
   12.4696  -16.0883   22.0187 O   0  0  0  0  0  0  0  0  0  0  0  0
   13.4427  -15.2963   22.1617 O   0  0  0  0  0  0  0  0  0  0  0  0
   15.6636  -18.9365   24.8332 O   0  0  0  0  0  0  0  0  0  0  0  0
  2  1  1  1
  2  3  1  0
  3  4  1  0
  4  5  2  0
  5  6  1  0
  7  6  2  0
  8  7  1  0
  9  8  2  0
  9  4  1  0
 10 11  2  0
 10  2  1  0
 13 15  1  0
 13 12  1  0
 14 13  2  0
 16 17  1  0
 16 15  1  0
 17 18  1  0
 19 18  1  6
 19 20  1  0
 19 21  1  0
 20 10  1  0
 21 22  2  0
 21 23  1  0
 23 24  1  0
 24 29  1  0
 24 25  1  6
 26 25  1  0
 27 26  1  0
 28 27  2  0
 29 30  2  0
 29 32  1  0
 31 27  1  0
M  END
$$$$
