FRE.pdb
     RDKit          3D

 32 32  0  0  1  0  0  0  0  0999 V2000
    6.4915  -17.1033   26.4742 N   0  0  0  0  0  0  0  0  0  0  0  0
    6.8000  -15.9734   25.6165 C   0  0  1  0  0  0  0  0  0  0  0  0
    7.7187  -15.0629   26.4397 C   0  0  0  0  0  0  0  0  0  0  0  0
    7.0130  -13.8218   26.7751 C   0  0  0  0  0  0  0  0  0  0  0  0
    7.6658  -12.8519   27.5037 C   0  0  0  0  0  0  0  0  0  0  0  0
    7.0447  -11.6524   27.8514 C   0  0  0  0  0  0  0  0  0  0  0  0
    5.7618  -11.4212   27.4680 C   0  0  0  0  0  0  0  0  0  0  0  0
    5.0715  -12.3771   26.7318 C   0  0  0  0  0  0  0  0  0  0  0  0
    5.7112  -13.5629   26.3979 C   0  0  0  0  0  0  0  0  0  0  0  0
    7.4983  -16.4906   24.4272 C   0  0  0  0  0  0  0  0  0  0  0  0
    8.2039  -17.5420   24.4791 O   0  0  0  0  0  0  0  0  0  0  0  0
   10.5531  -13.5464   17.5586 N   0  0  0  0  0  0  0  0  0  0  0  0
    9.4562  -13.1864   18.3809 C   0  0  0  0  0  0  0  0  0  0  0  0
    9.5873  -12.1071   19.1139 N   0  0  0  0  0  0  0  0  0  0  0  0
    8.2603  -13.9442   18.4253 N   0  0  0  0  0  0  0  0  0  0  0  0
    7.3125  -13.6573   19.4427 C   0  0  0  0  0  0  0  0  0  0  0  0
    7.7507  -14.1011   20.8222 C   0  0  0  0  0  0  0  0  0  0  0  0
    7.9538  -15.5790   20.7543 C   0  0  0  0  0  0  0  0  0  0  0  0
    8.3183  -16.2106   22.0698 C   0  0  2  0  0  0  0  0  0  0  0  0
    7.4420  -15.8682   23.1468 N   0  0  0  0  0  0  0  0  0  0  0  0
    9.7548  -15.9774   22.4142 C   0  0  0  0  0  0  0  0  0  0  0  0
   10.1170  -14.9791   23.0889 O   0  0  0  0  0  0  0  0  0  0  0  0
    8.9094  -11.8390   19.8327 N   0  0  0  0  0  0  0  0  0  0  0  0
   10.7534  -16.8834   21.9848 C   0  0  1  0  0  0  0  0  0  0  0  0
   12.1784  -16.5883   22.2825 C   0  0  0  0  0  0  0  0  0  0  0  0
   12.7552  -17.7074   23.0710 C   0  0  0  0  0  0  0  0  0  0  0  0
   12.1541  -17.7697   24.4449 C   0  0  0  0  0  0  0  0  0  0  0  0
   12.7013  -18.9414   25.2084 O   0  0  0  0  0  0  0  0  0  0  0  0
   12.1197  -19.3072   26.2473 C   0  0  0  0  0  0  0  0  0  0  0  0
   12.8622  -16.3867   21.0155 O   0  0  0  0  0  0  0  0  0  0  0  0
   14.0811  -16.0646   20.9419 O   0  0  0  0  0  0  0  0  0  0  0  0
   13.8206  -19.5825   24.7536 O   0  0  0  0  0  0  0  0  0  0  0  0
  2  1  1  1
  2  3  1  0
  3  4  1  0
  4  5  2  0
  5  6  1  0
  7  6  2  0
  8  7  1  0
  9  8  2  0
  9  4  1  0
 10 11  2  0
 10  2  1  0
 13 15  1  0
 13 12  1  0
 14 13  2  0
 16 17  1  0
 16 15  1  0
 17 18  1  0
 19 18  1  6
 19 20  1  0
 19 21  1  0
 20 10  1  0
 21 22  2  0
 21 23  1  0
 23 24  1  0
 24 29  1  0
 24 25  1  6
 26 25  1  0
 27 26  1  0
 28 27  2  0
 29 30  2  0
 29 32  1  0
 31 27  1  0
M  END
$$$$
