FRE.pdb
     RDKit          3D

 32 32  0  0  1  0  0  0  0  0999 V2000
    6.0189  -17.9760   25.4914 N   0  0  0  0  0  0  0  0  0  0  0  0
    6.2698  -16.5571   25.3143 C   0  0  1  0  0  0  0  0  0  0  0  0
    6.7155  -16.0375   26.6862 C   0  0  0  0  0  0  0  0  0  0  0  0
    6.7583  -14.5716   26.6694 C   0  0  0  0  0  0  0  0  0  0  0  0
    7.9775  -13.9329   26.7269 C   0  0  0  0  0  0  0  0  0  0  0  0
    8.0788  -12.5419   26.7143 C   0  0  0  0  0  0  0  0  0  0  0  0
    6.9531  -11.7842   26.6437 C   0  0  0  0  0  0  0  0  0  0  0  0
    5.7054  -12.3939   26.5843 C   0  0  0  0  0  0  0  0  0  0  0  0
    5.6304  -13.7799   26.5983 C   0  0  0  0  0  0  0  0  0  0  0  0
    7.3474  -16.4130   24.3204 C   0  0  0  0  0  0  0  0  0  0  0  0
    8.3289  -17.2139   24.2876 O   0  0  0  0  0  0  0  0  0  0  0  0
    9.7074  -14.5087   17.6275 N   0  0  0  0  0  0  0  0  0  0  0  0
    8.5151  -13.9216   17.1347 C   0  0  0  0  0  0  0  0  0  0  0  0
    8.2400  -14.1024   15.8655 N   0  0  0  0  0  0  0  0  0  0  0  0
    7.6434  -13.1683   17.9586 N   0  0  0  0  0  0  0  0  0  0  0  0
    7.9606  -13.0313   19.3357 C   0  0  0  0  0  0  0  0  0  0  0  0
    8.0211  -14.3494   20.0780 C   0  0  0  0  0  0  0  0  0  0  0  0
    8.3157  -14.0260   21.5058 C   0  0  0  0  0  0  0  0  0  0  0  0
    8.4458  -15.2320   22.3952 C   0  0  2  0  0  0  0  0  0  0  0  0
    7.3781  -15.3853   23.3341 N   0  0  0  0  0  0  0  0  0  0  0  0
    9.7883  -15.2905   23.0516 C   0  0  0  0  0  0  0  0  0  0  0  0
   10.0774  -14.5511   24.0277 O   0  0  0  0  0  0  0  0  0  0  0  0
    7.4228  -13.6863   15.4103 N   0  0  0  0  0  0  0  0  0  0  0  0
   10.7777  -16.1888   22.5861 C   0  0  2  0  0  0  0  0  0  0  0  0
   12.1095  -16.2067   23.2436 C   0  0  0  0  0  0  0  0  0  0  0  0
   12.2433  -17.4513   24.0436 C   0  0  0  0  0  0  0  0  0  0  0  0
   13.5938  -17.5365   24.6930 C   0  0  0  0  0  0  0  0  0  0  0  0
   13.7463  -18.8384   25.4261 O   0  0  0  0  0  0  0  0  0  0  0  0
   13.2347  -18.9565   26.5555 C   0  0  0  0  0  0  0  0  0  0  0  0
   13.1183  -16.1007   22.2022 O   0  0  0  0  0  0  0  0  0  0  0  0
   12.8732  -16.3445   20.9875 O   0  0  0  0  0  0  0  0  0  0  0  0
   14.4394  -19.8647   24.8456 O   0  0  0  0  0  0  0  0  0  0  0  0
  2  1  1  1
  2  3  1  0
  3  4  1  0
  4  5  2  0
  5  6  1  0
  7  6  2  0
  8  7  1  0
  9  8  2  0
  9  4  1  0
 10 11  2  0
 10  2  1  0
 13 15  1  0
 13 12  1  0
 14 13  2  0
 16 17  1  0
 16 15  1  0
 17 18  1  0
 19 18  1  1
 19 20  1  0
 19 21  1  0
 20 10  1  0
 21 22  2  0
 21 23  1  0
 23 24  1  0
 24 29  1  0
 24 25  1  1
 26 25  1  0
 27 26  1  0
 28 27  2  0
 29 30  2  0
 29 32  1  0
 31 27  1  0
M  END
$$$$
