FRE.pdb
     RDKit          3D

 32 32  0  0  1  0  0  0  0  0999 V2000
    8.0524  -16.6711   26.8793 N   0  0  0  0  0  0  0  0  0  0  0  0
    6.8311  -16.6864   26.0948 C   0  0  1  0  0  0  0  0  0  0  0  0
    5.9026  -15.6555   26.7475 C   0  0  0  0  0  0  0  0  0  0  0  0
    6.5890  -14.3630   26.8433 C   0  0  0  0  0  0  0  0  0  0  0  0
    7.7689  -14.2779   27.5494 C   0  0  0  0  0  0  0  0  0  0  0  0
    8.4647  -13.0755   27.6740 C   0  0  0  0  0  0  0  0  0  0  0  0
    7.9775  -11.9504   27.0884 C   0  0  0  0  0  0  0  0  0  0  0  0
    6.7897  -11.9982   26.3679 C   0  0  0  0  0  0  0  0  0  0  0  0
    6.1154  -13.2066   26.2582 C   0  0  0  0  0  0  0  0  0  0  0  0
    7.1766  -16.2885   24.7193 C   0  0  0  0  0  0  0  0  0  0  0  0
    6.2824  -16.0865   23.8444 O   0  0  0  0  0  0  0  0  0  0  0  0
    9.2110  -12.3522   18.7990 N   0  0  0  0  0  0  0  0  0  0  0  0
    8.5728  -13.4470   18.1641 C   0  0  0  0  0  0  0  0  0  0  0  0
    8.9915  -13.7691   16.9640 N   0  0  0  0  0  0  0  0  0  0  0  0
    7.5262  -14.1764   18.7797 N   0  0  0  0  0  0  0  0  0  0  0  0
    7.2936  -13.9890   20.1677 C   0  0  0  0  0  0  0  0  0  0  0  0
    8.5372  -14.1431   21.0171 C   0  0  0  0  0  0  0  0  0  0  0  0
    8.0831  -14.5895   22.3678 C   0  0  0  0  0  0  0  0  0  0  0  0
    8.8430  -15.7671   22.9140 C   0  0  2  0  0  0  0  0  0  0  0  0
    8.5139  -16.1011   24.2650 N   0  0  0  0  0  0  0  0  0  0  0  0
   10.3170  -15.6133   22.7129 C   0  0  0  0  0  0  0  0  0  0  0  0
   10.9825  -14.7543   23.3470 O   0  0  0  0  0  0  0  0  0  0  0  0
    8.5858  -14.5375   16.4226 N   0  0  0  0  0  0  0  0  0  0  0  0
   11.0073  -16.4392   21.7943 C   0  0  2  0  0  0  0  0  0  0  0  0
   12.4271  -16.7881   22.0561 C   0  0  0  0  0  0  0  0  0  0  0  0
   12.7762  -18.0179   21.2995 C   0  0  0  0  0  0  0  0  0  0  0  0
   14.2414  -18.3247   21.4084 C   0  0  0  0  0  0  0  0  0  0  0  0
   14.5757  -19.5803   20.6554 O   0  0  0  0  0  0  0  0  0  0  0  0
   13.6480  -20.3199   20.2766 C   0  0  0  0  0  0  0  0  0  0  0  0
   13.2411  -15.6462   21.6726 O   0  0  0  0  0  0  0  0  0  0  0  0
   14.3093  -15.3379   22.2715 O   0  0  0  0  0  0  0  0  0  0  0  0
   15.8836  -19.8883   20.4000 O   0  0  0  0  0  0  0  0  0  0  0  0
  2  1  1  1
  2  3  1  0
  3  4  1  0
  4  5  2  0
  5  6  1  0
  7  6  2  0
  8  7  1  0
  9  8  2  0
  9  4  1  0
 10 11  2  0
 10  2  1  0
 13 15  1  0
 13 12  1  0
 14 13  2  0
 16 17  1  0
 16 15  1  0
 17 18  1  0
 19 18  1  1
 19 20  1  0
 19 21  1  0
 20 10  1  0
 21 22  2  0
 21 23  1  0
 23 24  1  0
 24 29  1  0
 24 25  1  1
 26 25  1  0
 27 26  1  0
 28 27  2  0
 29 30  2  0
 29 32  1  0
 31 27  1  0
M  END
$$$$
