FRE.pdb
     RDKit          3D

 32 32  0  0  1  0  0  0  0  0999 V2000
    9.4410  -17.5654   26.7849 N   0  0  0  0  0  0  0  0  0  0  0  0
    9.5443  -16.5130   25.7903 C   0  0  1  0  0  0  0  0  0  0  0  0
   10.6642  -15.5862   26.2778 C   0  0  0  0  0  0  0  0  0  0  0  0
   10.1832  -14.7797   27.4042 C   0  0  0  0  0  0  0  0  0  0  0  0
   10.8281  -14.8667   28.6185 C   0  0  0  0  0  0  0  0  0  0  0  0
   10.4147  -14.1236   29.7241 C   0  0  0  0  0  0  0  0  0  0  0  0
    9.3491  -13.2877   29.6148 C   0  0  0  0  0  0  0  0  0  0  0  0
    8.6738  -13.1740   28.4051 C   0  0  0  0  0  0  0  0  0  0  0  0
    9.1041  -13.9239   27.3192 C   0  0  0  0  0  0  0  0  0  0  0  0
    9.9015  -17.1420   24.5072 C   0  0  0  0  0  0  0  0  0  0  0  0
   10.5683  -18.2187   24.4610 O   0  0  0  0  0  0  0  0  0  0  0  0
    9.5328  -13.4578   18.0484 N   0  0  0  0  0  0  0  0  0  0  0  0
    8.3474  -13.1038   18.7401 C   0  0  0  0  0  0  0  0  0  0  0  0
    8.1659  -11.8321   19.0032 N   0  0  0  0  0  0  0  0  0  0  0  0
    7.3864  -14.0645   19.1399 N   0  0  0  0  0  0  0  0  0  0  0  0
    7.8286  -15.3766   19.4542 C   0  0  0  0  0  0  0  0  0  0  0  0
    8.8581  -15.4201   20.5633 C   0  0  0  0  0  0  0  0  0  0  0  0
    9.1561  -16.8611   20.8173 C   0  0  0  0  0  0  0  0  0  0  0  0
   10.0524  -17.1044   22.0005 C   0  0  2  0  0  0  0  0  0  0  0  0
    9.5368  -16.6070   23.2381 N   0  0  0  0  0  0  0  0  0  0  0  0
   11.4483  -16.6349   21.7404 C   0  0  0  0  0  0  0  0  0  0  0  0
   11.7355  -15.4105   21.7031 O   0  0  0  0  0  0  0  0  0  0  0  0
    7.3569  -11.4835   19.5249 N   0  0  0  0  0  0  0  0  0  0  0  0
   12.4922  -17.5662   21.5274 C   0  0  1  0  0  0  0  0  0  0  0  0
   13.8845  -17.0732   21.3707 C   0  0  0  0  0  0  0  0  0  0  0  0
   14.8316  -18.1599   21.7300 C   0  0  0  0  0  0  0  0  0  0  0  0
   14.7379  -18.5012   23.1885 C   0  0  0  0  0  0  0  0  0  0  0  0
   15.6844  -19.6154   23.5323 O   0  0  0  0  0  0  0  0  0  0  0  0
   16.3306  -20.1599   22.6173 C   0  0  0  0  0  0  0  0  0  0  0  0
   14.0431  -16.6254   19.9967 O   0  0  0  0  0  0  0  0  0  0  0  0
   13.1177  -16.7073   19.1413 O   0  0  0  0  0  0  0  0  0  0  0  0
   15.8200  -20.0106   24.8346 O   0  0  0  0  0  0  0  0  0  0  0  0
  2  1  1  1
  2  3  1  0
  3  4  1  0
  4  5  2  0
  5  6  1  0
  7  6  2  0
  8  7  1  0
  9  8  2  0
  9  4  1  0
 10 11  2  0
 10  2  1  0
 13 15  1  0
 13 12  1  0
 14 13  2  0
 16 17  1  0
 16 15  1  0
 17 18  1  0
 19 18  1  6
 19 20  1  0
 19 21  1  0
 20 10  1  0
 21 22  2  0
 21 23  1  0
 23 24  1  0
 24 29  1  0
 24 25  1  6
 26 25  1  0
 27 26  1  0
 28 27  2  0
 29 30  2  0
 29 32  1  0
 31 27  1  0
M  END
$$$$
