FRE.pdb
     RDKit          3D

 32 32  0  0  1  0  0  0  0  0999 V2000
    7.4578  -17.8227   27.1460 N   0  0  0  0  0  0  0  0  0  0  0  0
    6.8746  -17.0812   26.0426 C   0  0  1  0  0  0  0  0  0  0  0  0
    6.4519  -15.7279   26.6262 C   0  0  0  0  0  0  0  0  0  0  0  0
    7.6155  -15.0599   27.2184 C   0  0  0  0  0  0  0  0  0  0  0  0
    7.9938  -13.8222   26.7463 C   0  0  0  0  0  0  0  0  0  0  0  0
    9.0915  -13.1404   27.2713 C   0  0  0  0  0  0  0  0  0  0  0  0
    9.8160  -13.7001   28.2753 C   0  0  0  0  0  0  0  0  0  0  0  0
    9.4639  -14.9478   28.7769 C   0  0  0  0  0  0  0  0  0  0  0  0
    8.3674  -15.6066   28.2381 C   0  0  0  0  0  0  0  0  0  0  0  0
    7.9173  -16.9103   25.0163 C   0  0  0  0  0  0  0  0  0  0  0  0
    8.7721  -17.8166   24.7841 O   0  0  0  0  0  0  0  0  0  0  0  0
    8.3385  -15.0814   18.3164 N   0  0  0  0  0  0  0  0  0  0  0  0
    8.2005  -13.6730   18.3975 C   0  0  0  0  0  0  0  0  0  0  0  0
    8.5575  -12.9758   17.3460 N   0  0  0  0  0  0  0  0  0  0  0  0
    7.7011  -13.0249   19.5537 N   0  0  0  0  0  0  0  0  0  0  0  0
    7.0006  -13.7985   20.5163 C   0  0  0  0  0  0  0  0  0  0  0  0
    7.7698  -15.0113   20.9955 C   0  0  0  0  0  0  0  0  0  0  0  0
    8.6251  -14.5568   22.1320 C   0  0  0  0  0  0  0  0  0  0  0  0
    8.9635  -15.6404   23.1188 C   0  0  2  0  0  0  0  0  0  0  0  0
    8.0513  -15.7395   24.2156 N   0  0  0  0  0  0  0  0  0  0  0  0
   10.3854  -15.5483   23.5728 C   0  0  0  0  0  0  0  0  0  0  0  0
   10.8697  -14.4717   24.0082 O   0  0  0  0  0  0  0  0  0  0  0  0
    8.4897  -11.9549   17.3082 N   0  0  0  0  0  0  0  0  0  0  0  0
   11.2308  -16.6819   23.5234 C   0  0  2  0  0  0  0  0  0  0  0  0
   12.6417  -16.5558   23.9704 C   0  0  0  0  0  0  0  0  0  0  0  0
   12.9994  -17.7355   24.7994 C   0  0  0  0  0  0  0  0  0  0  0  0
   12.1056  -17.8464   26.0000 C   0  0  0  0  0  0  0  0  0  0  0  0
   12.4755  -19.0454   26.8253 O   0  0  0  0  0  0  0  0  0  0  0  0
   12.9031  -20.0636   26.2494 C   0  0  0  0  0  0  0  0  0  0  0  0
   13.4725  -16.4341   22.7836 O   0  0  0  0  0  0  0  0  0  0  0  0
   14.7101  -16.1891   22.8394 O   0  0  0  0  0  0  0  0  0  0  0  0
   12.3376  -18.9995   28.1853 O   0  0  0  0  0  0  0  0  0  0  0  0
  2  1  1  1
  2  3  1  0
  3  4  1  0
  4  5  2  0
  5  6  1  0
  7  6  2  0
  8  7  1  0
  9  8  2  0
  9  4  1  0
 10 11  2  0
 10  2  1  0
 13 15  1  0
 13 12  1  0
 14 13  2  0
 16 17  1  0
 16 15  1  0
 17 18  1  0
 19 18  1  1
 19 20  1  0
 19 21  1  0
 20 10  1  0
 21 22  2  0
 21 23  1  0
 23 24  1  0
 24 29  1  0
 24 25  1  1
 26 25  1  0
 27 26  1  0
 28 27  2  0
 29 30  2  0
 29 32  1  0
 31 27  1  0
M  END
$$$$
