FRE.pdb
     RDKit          3D

 32 32  0  0  1  0  0  0  0  0999 V2000
    6.6304  -16.5696   26.1297 N   0  0  0  0  0  0  0  0  0  0  0  0
    7.0775  -15.7107   25.0482 C   0  0  1  0  0  0  0  0  0  0  0  0
    8.0450  -14.7063   25.6854 C   0  0  0  0  0  0  0  0  0  0  0  0
    7.2903  -13.5819   26.2483 C   0  0  0  0  0  0  0  0  0  0  0  0
    7.7097  -13.0146   27.4316 C   0  0  0  0  0  0  0  0  0  0  0  0
    7.0313  -11.9437   28.0132 C   0  0  0  0  0  0  0  0  0  0  0  0
    5.9258  -11.4365   27.4075 C   0  0  0  0  0  0  0  0  0  0  0  0
    5.4731  -11.9835   26.2125 C   0  0  0  0  0  0  0  0  0  0  0  0
    6.1653  -13.0488   25.6532 C   0  0  0  0  0  0  0  0  0  0  0  0
    7.7701  -16.5564   24.0609 C   0  0  0  0  0  0  0  0  0  0  0  0
    8.4714  -17.5501   24.4168 O   0  0  0  0  0  0  0  0  0  0  0  0
    7.9147  -13.7912   16.0772 N   0  0  0  0  0  0  0  0  0  0  0  0
    8.6407  -13.8374   17.2937 C   0  0  0  0  0  0  0  0  0  0  0  0
    8.4454  -12.8585   18.1440 N   0  0  0  0  0  0  0  0  0  0  0  0
    9.5435  -14.8852   17.5993 N   0  0  0  0  0  0  0  0  0  0  0  0
    9.0591  -16.0107   18.3164 C   0  0  0  0  0  0  0  0  0  0  0  0
    8.4158  -15.6554   19.6400 C   0  0  0  0  0  0  0  0  0  0  0  0
    8.0243  -16.9428   20.2875 C   0  0  0  0  0  0  0  0  0  0  0  0
    8.4876  -17.0806   21.7118 C   0  0  2  0  0  0  0  0  0  0  0  0
    7.7126  -16.3353   22.6546 N   0  0  0  0  0  0  0  0  0  0  0  0
    9.9523  -16.8089   21.8439 C   0  0  0  0  0  0  0  0  0  0  0  0
   10.3937  -15.6426   22.0111 O   0  0  0  0  0  0  0  0  0  0  0  0
    8.0661  -11.9492   17.8656 N   0  0  0  0  0  0  0  0  0  0  0  0
   10.8885  -17.8683   21.7832 C   0  0  1  0  0  0  0  0  0  0  0  0
   12.2970  -17.6165   22.1820 C   0  0  0  0  0  0  0  0  0  0  0  0
   12.8217  -18.8058   22.9012 C   0  0  0  0  0  0  0  0  0  0  0  0
   14.2466  -18.5989   23.3248 C   0  0  0  0  0  0  0  0  0  0  0  0
   14.7667  -19.8125   24.0405 O   0  0  0  0  0  0  0  0  0  0  0  0
   15.0349  -19.7267   25.2537 C   0  0  0  0  0  0  0  0  0  0  0  0
   13.0509  -17.3152   20.9761 O   0  0  0  0  0  0  0  0  0  0  0  0
   12.6899  -17.7050   19.8304 O   0  0  0  0  0  0  0  0  0  0  0  0
   14.9358  -20.9828   23.3531 O   0  0  0  0  0  0  0  0  0  0  0  0
  2  1  1  1
  2  3  1  0
  3  4  1  0
  4  5  2  0
  5  6  1  0
  7  6  2  0
  8  7  1  0
  9  8  2  0
  9  4  1  0
 10 11  2  0
 10  2  1  0
 13 15  1  0
 13 12  1  0
 14 13  2  0
 16 17  1  0
 16 15  1  0
 17 18  1  0
 19 18  1  6
 19 20  1  0
 19 21  1  0
 20 10  1  0
 21 22  2  0
 21 23  1  0
 23 24  1  0
 24 29  1  0
 24 25  1  6
 26 25  1  0
 27 26  1  0
 28 27  2  0
 29 30  2  0
 29 32  1  0
 31 27  1  0
M  END
$$$$
