FRE.pdb
     RDKit          3D

 32 32  0  0  1  0  0  0  0  0999 V2000
    6.5066  -16.1794   26.0724 N   0  0  0  0  0  0  0  0  0  0  0  0
    7.0434  -15.3938   24.9760 C   0  0  1  0  0  0  0  0  0  0  0  0
    7.9684  -14.3547   25.6206 C   0  0  0  0  0  0  0  0  0  0  0  0
    7.1659  -13.3352   26.3042 C   0  0  0  0  0  0  0  0  0  0  0  0
    6.2588  -12.5942   25.5788 C   0  0  0  0  0  0  0  0  0  0  0  0
    5.4692  -11.6117   26.1758 C   0  0  0  0  0  0  0  0  0  0  0  0
    5.5872  -11.3684   27.5074 C   0  0  0  0  0  0  0  0  0  0  0  0
    6.4919  -12.0964   28.2714 C   0  0  0  0  0  0  0  0  0  0  0  0
    7.2667  -13.0690   27.6544 C   0  0  0  0  0  0  0  0  0  0  0  0
    7.8019  -16.3044   24.1012 C   0  0  0  0  0  0  0  0  0  0  0  0
    8.3986  -17.3222   24.5637 O   0  0  0  0  0  0  0  0  0  0  0  0
    9.5711  -12.9994   18.6482 N   0  0  0  0  0  0  0  0  0  0  0  0
    8.5346  -13.5367   17.8444 C   0  0  0  0  0  0  0  0  0  0  0  0
    8.6740  -13.4378   16.5443 N   0  0  0  0  0  0  0  0  0  0  0  0
    7.3889  -14.1581   18.3990 N   0  0  0  0  0  0  0  0  0  0  0  0
    7.4334  -14.5771   19.7548 C   0  0  0  0  0  0  0  0  0  0  0  0
    8.8378  -14.7961   20.2759 C   0  0  0  0  0  0  0  0  0  0  0  0
    8.9968  -16.2670   20.4789 C   0  0  0  0  0  0  0  0  0  0  0  0
    8.9873  -16.6932   21.9214 C   0  0  2  0  0  0  0  0  0  0  0  0
    7.9271  -16.1234   22.6935 N   0  0  0  0  0  0  0  0  0  0  0  0
   10.3234  -16.4955   22.5635 C   0  0  0  0  0  0  0  0  0  0  0  0
   10.7963  -15.3464   22.7606 O   0  0  0  0  0  0  0  0  0  0  0  0
    7.9759  -13.7897   15.8832 N   0  0  0  0  0  0  0  0  0  0  0  0
   11.0975  -17.6082   22.9698 C   0  0  2  0  0  0  0  0  0  0  0  0
   12.4068  -17.3790   23.6326 C   0  0  0  0  0  0  0  0  0  0  0  0
   12.5623  -18.3405   24.7542 C   0  0  0  0  0  0  0  0  0  0  0  0
   11.4798  -18.1598   25.7780 C   0  0  0  0  0  0  0  0  0  0  0  0
   11.6164  -19.1750   26.8763 O   0  0  0  0  0  0  0  0  0  0  0  0
   11.4715  -20.3813   26.6022 C   0  0  0  0  0  0  0  0  0  0  0  0
   13.4442  -17.5238   22.6245 O   0  0  0  0  0  0  0  0  0  0  0  0
   13.2036  -17.9206   21.4500 O   0  0  0  0  0  0  0  0  0  0  0  0
   11.8956  -18.7610   28.1496 O   0  0  0  0  0  0  0  0  0  0  0  0
  2  1  1  1
  2  3  1  0
  3  4  1  0
  4  5  2  0
  5  6  1  0
  7  6  2  0
  8  7  1  0
  9  8  2  0
  9  4  1  0
 10 11  2  0
 10  2  1  0
 13 15  1  0
 13 12  1  0
 14 13  2  0
 16 17  1  0
 16 15  1  0
 17 18  1  0
 19 18  1  6
 19 20  1  0
 19 21  1  0
 20 10  1  0
 21 22  2  0
 21 23  1  0
 23 24  1  0
 24 29  1  0
 24 25  1  1
 26 25  1  0
 27 26  1  0
 28 27  2  0
 29 30  2  0
 29 32  1  0
 31 27  1  0
M  END
$$$$
