FRE.pdb
     RDKit          3D

 32 32  0  0  1  0  0  0  0  0999 V2000
    6.5420  -16.1497   25.9951 N   0  0  0  0  0  0  0  0  0  0  0  0
    7.2303  -15.3315   25.0132 C   0  0  1  0  0  0  0  0  0  0  0  0
    8.0834  -14.3433   25.8173 C   0  0  0  0  0  0  0  0  0  0  0  0
    7.2448  -13.2365   26.2891 C   0  0  0  0  0  0  0  0  0  0  0  0
    6.3839  -12.6207   25.4074 C   0  0  0  0  0  0  0  0  0  0  0  0
    5.5632  -11.5636   25.8002 C   0  0  0  0  0  0  0  0  0  0  0  0
    5.6035  -11.1192   27.0837 C   0  0  0  0  0  0  0  0  0  0  0  0
    6.4599  -11.7164   28.0013 C   0  0  0  0  0  0  0  0  0  0  0  0
    7.2670  -12.7668   27.5864 C   0  0  0  0  0  0  0  0  0  0  0  0
    8.0784  -16.2221   24.2025 C   0  0  0  0  0  0  0  0  0  0  0  0
    8.5250  -17.3135   24.6664 O   0  0  0  0  0  0  0  0  0  0  0  0
    7.9517  -14.2896   16.2313 N   0  0  0  0  0  0  0  0  0  0  0  0
    8.6622  -13.9024   17.3951 C   0  0  0  0  0  0  0  0  0  0  0  0
    8.8518  -12.6183   17.5803 N   0  0  0  0  0  0  0  0  0  0  0  0
    9.1554  -14.8439   18.3314 N   0  0  0  0  0  0  0  0  0  0  0  0
    8.3843  -16.0065   18.5952 C   0  0  0  0  0  0  0  0  0  0  0  0
    8.1647  -16.2666   20.0704 C   0  0  0  0  0  0  0  0  0  0  0  0
    9.5164  -16.4206   20.6860 C   0  0  0  0  0  0  0  0  0  0  0  0
    9.4926  -16.6521   22.1720 C   0  0  2  0  0  0  0  0  0  0  0  0
    8.4605  -15.9398   22.8593 N   0  0  0  0  0  0  0  0  0  0  0  0
   10.8380  -16.4298   22.7862 C   0  0  0  0  0  0  0  0  0  0  0  0
   11.1857  -15.3013   23.2207 O   0  0  0  0  0  0  0  0  0  0  0  0
    9.3604  -12.2431   18.3858 N   0  0  0  0  0  0  0  0  0  0  0  0
   11.7634  -17.4947   22.8952 C   0  0  2  0  0  0  0  0  0  0  0  0
   13.1063  -17.2335   23.4736 C   0  0  0  0  0  0  0  0  0  0  0  0
   13.7345  -18.5247   23.8543 C   0  0  0  0  0  0  0  0  0  0  0  0
   15.1579  -18.3288   24.2884 C   0  0  0  0  0  0  0  0  0  0  0  0
   15.7780  -19.6410   24.6746 O   0  0  0  0  0  0  0  0  0  0  0  0
   15.0399  -20.6314   24.8345 C   0  0  0  0  0  0  0  0  0  0  0  0
   13.8812  -16.5060   22.4818 O   0  0  0  0  0  0  0  0  0  0  0  0
   14.8082  -15.7065   22.7924 O   0  0  0  0  0  0  0  0  0  0  0  0
   17.1326  -19.7258   24.8429 O   0  0  0  0  0  0  0  0  0  0  0  0
  2  1  1  1
  2  3  1  0
  3  4  1  0
  4  5  2  0
  5  6  1  0
  7  6  2  0
  8  7  1  0
  9  8  2  0
  9  4  1  0
 10 11  2  0
 10  2  1  0
 13 15  1  0
 13 12  1  0
 14 13  2  0
 16 17  1  0
 16 15  1  0
 17 18  1  0
 19 18  1  6
 19 20  1  0
 19 21  1  0
 20 10  1  0
 21 22  2  0
 21 23  1  0
 23 24  1  0
 24 29  1  0
 24 25  1  6
 26 25  1  0
 27 26  1  0
 28 27  2  0
 29 30  2  0
 29 32  1  0
 31 27  1  0
M  END
$$$$
