FRE.pdb
     RDKit          3D

 32 32  0  0  1  0  0  0  0  0999 V2000
    8.0864  -18.2923   26.7301 N   0  0  0  0  0  0  0  0  0  0  0  0
    8.4741  -16.9753   26.2583 C   0  0  1  0  0  0  0  0  0  0  0  0
    9.9155  -16.7675   26.7381 C   0  0  0  0  0  0  0  0  0  0  0  0
    9.9734  -15.6163   27.6448 C   0  0  0  0  0  0  0  0  0  0  0  0
   10.4729  -15.7860   28.9174 C   0  0  0  0  0  0  0  0  0  0  0  0
   10.5518  -14.7274   29.8222 C   0  0  0  0  0  0  0  0  0  0  0  0
   10.1283  -13.4905   29.4519 C   0  0  0  0  0  0  0  0  0  0  0  0
    9.6184  -13.2817   28.1758 C   0  0  0  0  0  0  0  0  0  0  0  0
    9.5500  -14.3509   27.2932 C   0  0  0  0  0  0  0  0  0  0  0  0
    8.4048  -16.9877   24.7870 C   0  0  0  0  0  0  0  0  0  0  0  0
    8.7926  -17.9894   24.1146 O   0  0  0  0  0  0  0  0  0  0  0  0
    8.0016  -15.1984   18.0250 N   0  0  0  0  0  0  0  0  0  0  0  0
    8.0770  -13.7873   17.9148 C   0  0  0  0  0  0  0  0  0  0  0  0
    8.9593  -13.2993   17.0765 N   0  0  0  0  0  0  0  0  0  0  0  0
    7.2457  -12.9219   18.6673 N   0  0  0  0  0  0  0  0  0  0  0  0
    7.0670  -13.1858   20.0508 C   0  0  0  0  0  0  0  0  0  0  0  0
    7.9735  -14.2758   20.5822 C   0  0  0  0  0  0  0  0  0  0  0  0
    7.5502  -14.5392   21.9898 C   0  0  0  0  0  0  0  0  0  0  0  0
    8.2954  -15.6632   22.6558 C   0  0  2  0  0  0  0  0  0  0  0  0
    7.9079  -15.9005   24.0117 N   0  0  0  0  0  0  0  0  0  0  0  0
    9.7755  -15.5059   22.5104 C   0  0  0  0  0  0  0  0  0  0  0  0
   10.4863  -15.0620   23.4487 O   0  0  0  0  0  0  0  0  0  0  0  0
    9.1149  -12.2945   16.9574 N   0  0  0  0  0  0  0  0  0  0  0  0
   10.4202  -15.8564   21.3004 C   0  0  2  0  0  0  0  0  0  0  0  0
   11.9025  -15.9457   21.2668 C   0  0  0  0  0  0  0  0  0  0  0  0
   12.3570  -16.9229   22.2893 C   0  0  0  0  0  0  0  0  0  0  0  0
   13.8440  -17.1179   22.2306 C   0  0  0  0  0  0  0  0  0  0  0  0
   14.2838  -18.1362   23.2431 O   0  0  0  0  0  0  0  0  0  0  0  0
   13.4259  -18.6702   23.9712 C   0  0  0  0  0  0  0  0  0  0  0  0
   12.2922  -16.3255   19.9187 O   0  0  0  0  0  0  0  0  0  0  0  0
   11.4834  -16.8326   19.0920 O   0  0  0  0  0  0  0  0  0  0  0  0
   15.6090  -18.4576   23.3478 O   0  0  0  0  0  0  0  0  0  0  0  0
  2  1  1  1
  2  3  1  0
  3  4  1  0
  4  5  2  0
  5  6  1  0
  7  6  2  0
  8  7  1  0
  9  8  2  0
  9  4  1  0
 10 11  2  0
 10  2  1  0
 13 15  1  0
 13 12  1  0
 14 13  2  0
 16 17  1  0
 16 15  1  0
 17 18  1  0
 19 18  1  1
 19 20  1  0
 19 21  1  0
 20 10  1  0
 21 22  2  0
 21 23  1  0
 23 24  1  0
 24 29  1  0
 24 25  1  6
 26 25  1  0
 27 26  1  0
 28 27  2  0
 29 30  2  0
 29 32  1  0
 31 27  1  0
M  END
$$$$
