FRE.pdb
     RDKit          3D

 32 32  0  0  1  0  0  0  0  0999 V2000
    8.3851  -15.4499   25.8583 N   0  0  0  0  0  0  0  0  0  0  0  0
    7.1510  -16.1681   25.5965 C   0  0  1  0  0  0  0  0  0  0  0  0
    6.1035  -15.5531   26.5321 C   0  0  0  0  0  0  0  0  0  0  0  0
    6.2559  -14.0946   26.5539 C   0  0  0  0  0  0  0  0  0  0  0  0
    7.2626  -13.5117   25.8160 C   0  0  0  0  0  0  0  0  0  0  0  0
    7.4547  -12.1303   25.7989 C   0  0  0  0  0  0  0  0  0  0  0  0
    6.6345  -11.3262   26.5248 C   0  0  0  0  0  0  0  0  0  0  0  0
    5.6078  -11.8790   27.2814 C   0  0  0  0  0  0  0  0  0  0  0  0
    5.4367  -13.2564   27.2822 C   0  0  0  0  0  0  0  0  0  0  0  0
    6.7931  -15.9450   24.1852 C   0  0  0  0  0  0  0  0  0  0  0  0
    5.7166  -16.4003   23.6956 O   0  0  0  0  0  0  0  0  0  0  0  0
    7.6668  -13.0168   16.4888 N   0  0  0  0  0  0  0  0  0  0  0  0
    8.7193  -13.8024   17.0218 C   0  0  0  0  0  0  0  0  0  0  0  0
    9.6031  -14.2717   16.1745 N   0  0  0  0  0  0  0  0  0  0  0  0
    8.8318  -14.0818   18.4059 N   0  0  0  0  0  0  0  0  0  0  0  0
    7.9223  -13.4583   19.3002 C   0  0  0  0  0  0  0  0  0  0  0  0
    8.1632  -13.8101   20.7529 C   0  0  0  0  0  0  0  0  0  0  0  0
    8.0806  -15.2976   20.8547 C   0  0  0  0  0  0  0  0  0  0  0  0
    8.3655  -15.8366   22.2298 C   0  0  2  0  0  0  0  0  0  0  0  0
    7.6069  -15.2158   23.2710 N   0  0  0  0  0  0  0  0  0  0  0  0
    9.8313  -15.8443   22.5261 C   0  0  0  0  0  0  0  0  0  0  0  0
   10.3305  -15.0915   23.4019 O   0  0  0  0  0  0  0  0  0  0  0  0
   10.4035  -14.8399   16.4656 N   0  0  0  0  0  0  0  0  0  0  0  0
   10.7028  -16.7079   21.8211 C   0  0  2  0  0  0  0  0  0  0  0  0
   12.1686  -16.5898   22.0306 C   0  0  0  0  0  0  0  0  0  0  0  0
   12.6928  -17.8769   22.5556 C   0  0  0  0  0  0  0  0  0  0  0  0
   12.6236  -17.9203   24.0543 C   0  0  0  0  0  0  0  0  0  0  0  0
   13.1579  -19.2255   24.5704 O   0  0  0  0  0  0  0  0  0  0  0  0
   13.5141  -20.0952   23.7531 C   0  0  0  0  0  0  0  0  0  0  0  0
   12.7686  -16.2189   20.7595 O   0  0  0  0  0  0  0  0  0  0  0  0
   13.9991  -15.9636   20.6346 O   0  0  0  0  0  0  0  0  0  0  0  0
   13.2438  -19.4357   25.9191 O   0  0  0  0  0  0  0  0  0  0  0  0
  2  1  1  1
  2  3  1  0
  3  4  1  0
  4  5  2  0
  5  6  1  0
  7  6  2  0
  8  7  1  0
  9  8  2  0
  9  4  1  0
 10 11  2  0
 10  2  1  0
 13 15  1  0
 13 12  1  0
 14 13  2  0
 16 17  1  0
 16 15  1  0
 17 18  1  0
 19 18  1  6
 19 20  1  0
 19 21  1  0
 20 10  1  0
 21 22  2  0
 21 23  1  0
 23 24  1  0
 24 29  1  0
 24 25  1  6
 26 25  1  0
 27 26  1  0
 28 27  2  0
 29 30  2  0
 29 32  1  0
 31 27  1  0
M  END
$$$$
