FRE.pdb
     RDKit          3D

 32 32  0  0  1  0  0  0  0  0999 V2000
    7.0753  -16.6107   25.5249 N   0  0  0  0  0  0  0  0  0  0  0  0
    7.1719  -15.4087   24.7167 C   0  0  1  0  0  0  0  0  0  0  0  0
    8.2421  -14.5394   25.3874 C   0  0  0  0  0  0  0  0  0  0  0  0
    7.5983  -13.5049   26.2035 C   0  0  0  0  0  0  0  0  0  0  0  0
    6.6566  -12.6813   25.6267 C   0  0  0  0  0  0  0  0  0  0  0  0
    6.0123  -11.6807   26.3540 C   0  0  0  0  0  0  0  0  0  0  0  0
    6.3117  -11.5023   27.6673 C   0  0  0  0  0  0  0  0  0  0  0  0
    7.2569  -12.3145   28.2831 C   0  0  0  0  0  0  0  0  0  0  0  0
    7.8845  -13.3034   27.5383 C   0  0  0  0  0  0  0  0  0  0  0  0
    7.5915  -15.8108   23.3632 C   0  0  0  0  0  0  0  0  0  0  0  0
    7.8031  -17.0253   23.0694 O   0  0  0  0  0  0  0  0  0  0  0  0
    7.7401  -13.2941   14.3439 N   0  0  0  0  0  0  0  0  0  0  0  0
    7.7394  -14.0695   15.5304 C   0  0  0  0  0  0  0  0  0  0  0  0
    8.0707  -15.3333   15.4189 N   0  0  0  0  0  0  0  0  0  0  0  0
    7.3991  -13.5247   16.7928 N   0  0  0  0  0  0  0  0  0  0  0  0
    8.4351  -13.3035   17.7381 C   0  0  0  0  0  0  0  0  0  0  0  0
    8.6825  -14.4836   18.6536 C   0  0  0  0  0  0  0  0  0  0  0  0
    7.9960  -14.1783   19.9441 C   0  0  0  0  0  0  0  0  0  0  0  0
    8.0441  -15.2988   20.9464 C   0  0  2  0  0  0  0  0  0  0  0  0
    7.7908  -14.8911   22.2934 N   0  0  0  0  0  0  0  0  0  0  0  0
    9.3049  -16.0939   20.8243 C   0  0  0  0  0  0  0  0  0  0  0  0
    9.5064  -16.8642   19.8501 O   0  0  0  0  0  0  0  0  0  0  0  0
    8.0989  -15.9720   16.2185 N   0  0  0  0  0  0  0  0  0  0  0  0
   10.3135  -15.9987   21.8122 C   0  0  1  0  0  0  0  0  0  0  0  0
   11.5078  -16.8768   21.7178 C   0  0  0  0  0  0  0  0  0  0  0  0
   12.2072  -16.6148   20.4337 C   0  0  0  0  0  0  0  0  0  0  0  0
   12.8946  -15.2807   20.4523 C   0  0  0  0  0  0  0  0  0  0  0  0
   13.8442  -15.1593   19.2951 O   0  0  0  0  0  0  0  0  0  0  0  0
   14.3730  -14.0556   19.0639 C   0  0  0  0  0  0  0  0  0  0  0  0
   12.3458  -16.6095   22.8753 O   0  0  0  0  0  0  0  0  0  0  0  0
   12.0928  -15.6899   23.7031 O   0  0  0  0  0  0  0  0  0  0  0  0
   14.1103  -16.2546   18.5203 O   0  0  0  0  0  0  0  0  0  0  0  0
  2  1  1  1
  2  3  1  0
  3  4  1  0
  4  5  2  0
  5  6  1  0
  7  6  2  0
  8  7  1  0
  9  8  2  0
  9  4  1  0
 10 11  2  0
 10  2  1  0
 13 15  1  0
 13 12  1  0
 14 13  2  0
 16 17  1  0
 16 15  1  0
 17 18  1  0
 19 18  1  6
 19 20  1  0
 19 21  1  0
 20 10  1  0
 21 22  2  0
 21 23  1  0
 23 24  1  0
 24 29  1  0
 24 25  1  6
 26 25  1  0
 27 26  1  0
 28 27  2  0
 29 30  2  0
 29 32  1  0
 31 27  1  0
M  END
$$$$
