YEL.pdb
     RDKit          3D

 30 30  0  0  1  0  0  0  0  0999 V2000
   10.3427  -13.6424  -10.4993 O   0  0  0  0  0  0  0  0  0  0  0  0
   11.4193  -12.7580  -10.3940 C   0  0  0  0  0  0  0  0  0  0  0  0
   12.7062  -13.2345  -10.4496 C   0  0  0  0  0  0  0  0  0  0  0  0
   13.8069  -12.3813  -10.3480 C   0  0  0  0  0  0  0  0  0  0  0  0
   13.6322  -11.0238  -10.1875 C   0  0  0  0  0  0  0  0  0  0  0  0
   14.7670  -10.0699  -10.0739 C   0  0  0  0  0  0  0  0  0  0  0  0
   15.3523   -9.7351  -11.4306 C   0  0  2  0  0  0  0  0  0  0  0  0
   16.5056  -10.5977  -11.6271 N   0  0  0  0  0  0  0  0  0  0  0  0
   15.8339   -8.3382  -11.3935 C   0  0  0  0  0  0  0  0  0  0  0  0
   16.9084   -8.1298  -10.7367 O   0  0  0  0  0  0  0  0  0  0  0  0
   12.3272  -10.5562  -10.1330 C   0  0  0  0  0  0  0  0  0  0  0  0
   11.2443  -11.3983  -10.2332 C   0  0  0  0  0  0  0  0  0  0  0  0
   15.2210   -7.2399  -12.0084 N   0  0  0  0  0  0  0  0  0  0  0  0
   15.5717   -5.8754  -11.7244 C   0  0  1  0  0  0  0  0  0  0  0  0
   15.9960   -5.1768  -12.9665 C   0  0  0  0  0  0  0  0  0  0  0  0
   16.3995   -3.7510  -12.8639 C   0  0  0  0  0  0  0  0  0  0  0  0
   16.7305   -3.0028  -14.0504 C   0  0  0  0  0  0  0  0  0  0  0  0
   15.9199   -2.6401  -14.9042 O   0  0  0  0  0  0  0  0  0  0  0  0
   14.6441   -5.1483  -10.8574 C   0  0  0  0  0  0  0  0  0  0  0  0
   13.3735   -5.2202  -10.9784 O   0  0  0  0  0  0  0  0  0  0  0  0
   18.0751   -2.6380  -14.2899 O   0  0  0  0  0  0  0  0  0  0  0  0
   13.1745   -1.7972   -6.5523 C   0  0  0  0  0  0  0  0  0  0  0  0
   13.2145   -3.2835   -6.6144 C   0  0  2  0  0  0  0  0  0  0  0  0
   13.4654   -3.8162   -5.1999 C   0  0  0  0  0  0  0  0  0  0  0  0
   14.2489   -3.8897   -7.4882 C   0  0  0  0  0  0  0  0  0  0  0  0
   14.1936   -3.5625   -8.9392 C   0  0  2  0  0  0  0  0  0  0  0  0
   15.0976   -4.2924   -9.7862 N   0  0  0  0  0  0  0  0  0  0  0  0
   14.4419   -2.1060   -9.0936 C   0  0  0  0  0  0  0  0  0  0  0  0
   13.5000   -1.2849   -8.8655 O   0  0  0  0  0  0  0  0  0  0  0  0
   15.6530   -1.5664   -9.4767 O   0  0  0  0  0  0  0  0  0  0  0  0
  2  1  1  0
  3  2  2  0
  4  3  1  0
  5  4  2  0
  5 11  1  0
  6  5  1  0
  7  8  1  1
  7  6  1  0
  9  7  1  0
  9 13  1  0
 10  9  2  0
 11 12  2  0
 12  2  1  0
 14 13  1  0
 14 15  1  6
 15 16  1  0
 16 17  1  0
 17 18  2  0
 17 21  1  0
 19 14  1  0
 20 19  2  0
 23 22  1  1
 23 24  1  0
 25 23  1  0
 26 25  1  1
 26 28  1  0
 26 27  1  0
 27 19  1  0
 28 30  1  0
 29 28  2  0
M  END
$$$$
