YEL.pdb
     RDKit          3D

 30 30  0  0  1  0  0  0  0  0999 V2000
   26.0918  -32.5255   -4.5792 O   0  0  0  0  0  0  0  0  0  0  0  0
   26.0827  -32.3012   -3.2001 C   0  0  0  0  0  0  0  0  0  0  0  0
   27.0001  -32.9327   -2.3966 C   0  0  0  0  0  0  0  0  0  0  0  0
   27.0215  -32.7333   -1.0147 C   0  0  0  0  0  0  0  0  0  0  0  0
   26.1144  -31.8892   -0.4116 C   0  0  0  0  0  0  0  0  0  0  0  0
   26.0916  -31.6401    1.0541 C   0  0  0  0  0  0  0  0  0  0  0  0
   25.3259  -32.7197    1.7915 C   0  0  2  0  0  0  0  0  0  0  0  0
   23.9118  -32.4091    1.6628 N   0  0  0  0  0  0  0  0  0  0  0  0
   25.6778  -32.6380    3.2247 C   0  0  0  0  0  0  0  0  0  0  0  0
   25.0551  -31.7585    3.9088 O   0  0  0  0  0  0  0  0  0  0  0  0
   25.1935  -31.2580   -1.2351 C   0  0  0  0  0  0  0  0  0  0  0  0
   25.1740  -31.4557   -2.5961 C   0  0  0  0  0  0  0  0  0  0  0  0
   26.6225  -33.4316    3.8865 N   0  0  0  0  0  0  0  0  0  0  0  0
   26.8719  -33.3538    5.2997 C   0  0  1  0  0  0  0  0  0  0  0  0
   26.3252  -34.5506    5.9922 C   0  0  0  0  0  0  0  0  0  0  0  0
   26.4341  -34.6128    7.4723 C   0  0  0  0  0  0  0  0  0  0  0  0
   25.8551  -35.7156    8.1973 C   0  0  0  0  0  0  0  0  0  0  0  0
   26.3625  -36.2569    9.1808 O   0  0  0  0  0  0  0  0  0  0  0  0
   28.2224  -32.9436    5.6848 C   0  0  0  0  0  0  0  0  0  0  0  0
   29.2741  -33.3504    5.0824 O   0  0  0  0  0  0  0  0  0  0  0  0
   24.6124  -36.2457    7.7809 O   0  0  0  0  0  0  0  0  0  0  0  0
   32.3982  -31.0314    8.4758 C   0  0  0  0  0  0  0  0  0  0  0  0
   31.2098  -30.1490    8.6309 C   0  0  2  0  0  0  0  0  0  0  0  0
   31.1848  -29.6270   10.0712 C   0  0  0  0  0  0  0  0  0  0  0  0
   29.8829  -30.7615    8.3761 C   0  0  0  0  0  0  0  0  0  0  0  0
   29.7925  -31.7604    7.2762 C   0  0  2  0  0  0  0  0  0  0  0  0
   28.4714  -32.0354    6.7798 N   0  0  0  0  0  0  0  0  0  0  0  0
   30.4139  -33.0244    7.7484 C   0  0  0  0  0  0  0  0  0  0  0  0
   29.7618  -33.7875    8.5268 O   0  0  0  0  0  0  0  0  0  0  0  0
   31.6811  -33.4405    7.3934 O   0  0  0  0  0  0  0  0  0  0  0  0
  2  1  1  0
  3  2  2  0
  4  3  1  0
  5  4  2  0
  5 11  1  0
  6  5  1  0
  7  8  1  1
  7  6  1  0
  9  7  1  0
  9 13  1  0
 10  9  2  0
 11 12  2  0
 12  2  1  0
 14 13  1  0
 14 15  1  1
 15 16  1  0
 16 17  1  0
 17 18  2  0
 17 21  1  0
 19 14  1  0
 20 19  2  0
 23 22  1  1
 23 24  1  0
 25 23  1  0
 26 25  1  1
 26 28  1  0
 26 27  1  0
 27 19  1  0
 28 30  1  0
 29 28  2  0
M  END
$$$$
