YEL.pdb
     RDKit          3D

 30 30  0  0  1  0  0  0  0  0999 V2000
   29.9555  -17.2691  -19.5523 O   0  0  0  0  0  0  0  0  0  0  0  0
   29.3519  -17.4049  -18.2995 C   0  0  0  0  0  0  0  0  0  0  0  0
   29.6558  -18.4833  -17.5052 C   0  0  0  0  0  0  0  0  0  0  0  0
   29.0727  -18.6526  -16.2477 C   0  0  0  0  0  0  0  0  0  0  0  0
   28.1671  -17.7340  -15.7628 C   0  0  0  0  0  0  0  0  0  0  0  0
   27.5163  -17.8643  -14.4324 C   0  0  0  0  0  0  0  0  0  0  0  0
   27.4625  -19.3082  -13.9767 C   0  0  2  0  0  0  0  0  0  0  0  0
   26.6946  -20.0442  -14.9673 N   0  0  0  0  0  0  0  0  0  0  0  0
   26.7209  -19.3616  -12.6992 C   0  0  0  0  0  0  0  0  0  0  0  0
   26.7175  -18.2910  -12.0043 O   0  0  0  0  0  0  0  0  0  0  0  0
   27.8694  -16.6497  -16.5755 C   0  0  0  0  0  0  0  0  0  0  0  0
   28.4448  -16.4848  -17.8138 C   0  0  0  0  0  0  0  0  0  0  0  0
   26.0318  -20.4705  -12.1937 N   0  0  0  0  0  0  0  0  0  0  0  0
   25.2891  -20.4483  -10.9634 C   0  0  1  0  0  0  0  0  0  0  0  0
   23.9331  -21.0247  -11.1626 C   0  0  0  0  0  0  0  0  0  0  0  0
   23.0527  -20.4041  -12.1855 C   0  0  0  0  0  0  0  0  0  0  0  0
   21.6919  -20.8525  -12.3408 C   0  0  0  0  0  0  0  0  0  0  0  0
   21.1641  -21.1447  -13.4150 O   0  0  0  0  0  0  0  0  0  0  0  0
   26.0150  -20.8968   -9.7750 C   0  0  0  0  0  0  0  0  0  0  0  0
   26.6057  -22.0283   -9.7034 O   0  0  0  0  0  0  0  0  0  0  0  0
   20.8672  -20.9801  -11.1997 O   0  0  0  0  0  0  0  0  0  0  0  0
   27.4225  -20.0705   -4.3240 C   0  0  0  0  0  0  0  0  0  0  0  0
   28.3513  -19.9307   -5.4783 C   0  0  2  0  0  0  0  0  0  0  0  0
   29.3759  -18.8427   -5.1405 C   0  0  0  0  0  0  0  0  0  0  0  0
   27.7484  -19.5588   -6.7818 C   0  0  0  0  0  0  0  0  0  0  0  0
   26.8077  -20.5323   -7.4009 C   0  0  2  0  0  0  0  0  0  0  0  0
   26.1255  -20.0856   -8.5852 N   0  0  0  0  0  0  0  0  0  0  0  0
   25.8075  -20.9240   -6.3748 C   0  0  0  0  0  0  0  0  0  0  0  0
   26.1960  -21.5077   -5.3156 O   0  0  0  0  0  0  0  0  0  0  0  0
   24.4517  -20.6935   -6.4917 O   0  0  0  0  0  0  0  0  0  0  0  0
  2  1  1  0
  3  2  2  0
  4  3  1  0
  5  4  2  0
  5 11  1  0
  6  5  1  0
  7  8  1  6
  7  6  1  0
  9  7  1  0
  9 13  1  0
 10  9  2  0
 11 12  2  0
 12  2  1  0
 14 13  1  0
 14 15  1  6
 15 16  1  0
 16 17  1  0
 17 18  2  0
 17 21  1  0
 19 14  1  0
 20 19  2  0
 23 22  1  1
 23 24  1  0
 25 23  1  0
 26 25  1  1
 26 28  1  0
 26 27  1  0
 27 19  1  0
 28 30  1  0
 29 28  2  0
M  END
$$$$
