YEL.pdb
     RDKit          3D

 30 30  0  0  1  0  0  0  0  0999 V2000
   32.0679  -16.3342  -18.8149 O   0  0  0  0  0  0  0  0  0  0  0  0
   30.7809  -16.4396  -18.2813 C   0  0  0  0  0  0  0  0  0  0  0  0
   30.4145  -17.5703  -17.5930 C   0  0  0  0  0  0  0  0  0  0  0  0
   29.1376  -17.7114  -17.0458 C   0  0  0  0  0  0  0  0  0  0  0  0
   28.1995  -16.7111  -17.1817 C   0  0  0  0  0  0  0  0  0  0  0  0
   26.8262  -16.8082  -16.6200 C   0  0  0  0  0  0  0  0  0  0  0  0
   25.8668  -17.4517  -17.6001 C   0  0  2  0  0  0  0  0  0  0  0  0
   25.5640  -16.4612  -18.6199 N   0  0  0  0  0  0  0  0  0  0  0  0
   24.6118  -17.7598  -16.8827 C   0  0  0  0  0  0  0  0  0  0  0  0
   23.9231  -16.7573  -16.4958 O   0  0  0  0  0  0  0  0  0  0  0  0
   28.5830  -15.5749  -17.8791 C   0  0  0  0  0  0  0  0  0  0  0  0
   29.8413  -15.4377  -18.4174 C   0  0  0  0  0  0  0  0  0  0  0  0
   24.1210  -19.0392  -16.5955 N   0  0  0  0  0  0  0  0  0  0  0  0
   22.9294  -19.2767  -15.8279 C   0  0  1  0  0  0  0  0  0  0  0  0
   21.7512  -19.4160  -16.7241 C   0  0  0  0  0  0  0  0  0  0  0  0
   20.4162  -19.6032  -16.1002 C   0  0  0  0  0  0  0  0  0  0  0  0
   19.7950  -18.5227  -15.3765 C   0  0  0  0  0  0  0  0  0  0  0  0
   19.7052  -17.3627  -15.7814 O   0  0  0  0  0  0  0  0  0  0  0  0
   23.0498  -20.2675  -14.7581 C   0  0  0  0  0  0  0  0  0  0  0  0
   23.4300  -21.4711  -14.9608 O   0  0  0  0  0  0  0  0  0  0  0  0
   19.2345  -18.7708  -14.1026 O   0  0  0  0  0  0  0  0  0  0  0  0
   25.7784  -21.9062  -11.8540 C   0  0  0  0  0  0  0  0  0  0  0  0
   25.1631  -20.6150  -11.4431 C   0  0  2  0  0  0  0  0  0  0  0  0
   25.8376  -20.1531  -10.1472 C   0  0  0  0  0  0  0  0  0  0  0  0
   23.7022  -20.6214  -11.1847 C   0  0  0  0  0  0  0  0  0  0  0  0
   22.8080  -20.9389  -12.3316 C   0  0  2  0  0  0  0  0  0  0  0  0
   22.7519  -19.9561  -13.3796 N   0  0  0  0  0  0  0  0  0  0  0  0
   21.4402  -21.1702  -11.8000 C   0  0  0  0  0  0  0  0  0  0  0  0
   21.2483  -22.0979  -10.9539 O   0  0  0  0  0  0  0  0  0  0  0  0
   20.3343  -20.4311  -12.1683 O   0  0  0  0  0  0  0  0  0  0  0  0
  2  1  1  0
  3  2  2  0
  4  3  1  0
  5  4  2  0
  5 11  1  0
  6  5  1  0
  7  8  1  6
  7  6  1  0
  9  7  1  0
  9 13  1  0
 10  9  2  0
 11 12  2  0
 12  2  1  0
 14 13  1  0
 14 15  1  6
 15 16  1  0
 16 17  1  0
 17 18  2  0
 17 21  1  0
 19 14  1  0
 20 19  2  0
 23 22  1  1
 23 24  1  0
 25 23  1  0
 26 25  1  1
 26 28  1  0
 26 27  1  0
 27 19  1  0
 28 30  1  0
 29 28  2  0
M  END
$$$$
