YEL.pdb
     RDKit          3D

 30 30  0  0  1  0  0  0  0  0999 V2000
   17.6098  -24.0752   -8.8409 O   0  0  0  0  0  0  0  0  0  0  0  0
   17.6191  -24.6640   -7.5738 C   0  0  0  0  0  0  0  0  0  0  0  0
   16.4458  -25.1101   -7.0163 C   0  0  0  0  0  0  0  0  0  0  0  0
   16.4160  -25.7035   -5.7526 C   0  0  0  0  0  0  0  0  0  0  0  0
   17.5736  -25.8602   -5.0215 C   0  0  0  0  0  0  0  0  0  0  0  0
   17.6001  -26.4844   -3.6723 C   0  0  0  0  0  0  0  0  0  0  0  0
   18.7467  -27.4650   -3.5337 C   0  0  2  0  0  0  0  0  0  0  0  0
   18.6051  -28.4464   -4.5965 N   0  0  0  0  0  0  0  0  0  0  0  0
   18.5969  -28.1709   -2.2439 C   0  0  0  0  0  0  0  0  0  0  0  0
   18.2027  -27.4640   -1.2569 O   0  0  0  0  0  0  0  0  0  0  0  0
   18.7513  -25.4052   -5.5966 C   0  0  0  0  0  0  0  0  0  0  0  0
   18.7786  -24.8209   -6.8415 C   0  0  0  0  0  0  0  0  0  0  0  0
   18.8469  -29.5295   -2.0155 N   0  0  0  0  0  0  0  0  0  0  0  0
   18.8746  -30.1206   -0.7058 C   0  0  1  0  0  0  0  0  0  0  0  0
   19.1184  -31.5844   -0.7996 C   0  0  0  0  0  0  0  0  0  0  0  0
   19.0743  -32.3823    0.4524 C   0  0  0  0  0  0  0  0  0  0  0  0
   18.0941  -33.4265    0.6139 C   0  0  0  0  0  0  0  0  0  0  0  0
   17.8890  -34.0455    1.6590 O   0  0  0  0  0  0  0  0  0  0  0  0
   19.6522  -29.3980    0.3010 C   0  0  0  0  0  0  0  0  0  0  0  0
   20.6734  -28.6843    0.0144 O   0  0  0  0  0  0  0  0  0  0  0  0
   17.2870  -33.7986   -0.4856 O   0  0  0  0  0  0  0  0  0  0  0  0
   20.7184  -26.5770    4.5799 C   0  0  0  0  0  0  0  0  0  0  0  0
   20.1009  -26.0551    3.3305 C   0  0  2  0  0  0  0  0  0  0  0  0
   18.9588  -25.1103    3.7183 C   0  0  0  0  0  0  0  0  0  0  0  0
   19.5281  -27.0563    2.3975 C   0  0  0  0  0  0  0  0  0  0  0  0
   19.8474  -28.4876    2.6527 C   0  0  2  0  0  0  0  0  0  0  0  0
   19.3182  -29.4313    1.7057 N   0  0  0  0  0  0  0  0  0  0  0  0
   19.3637  -28.8328    4.0143 C   0  0  0  0  0  0  0  0  0  0  0  0
   19.8520  -28.2315    5.0209 O   0  0  0  0  0  0  0  0  0  0  0  0
   18.3971  -29.7838    4.2714 O   0  0  0  0  0  0  0  0  0  0  0  0
  2  1  1  0
  3  2  2  0
  4  3  1  0
  5  4  2  0
  5 11  1  0
  6  5  1  0
  7  8  1  6
  7  6  1  0
  9  7  1  0
  9 13  1  0
 10  9  2  0
 11 12  2  0
 12  2  1  0
 14 13  1  0
 14 15  1  6
 15 16  1  0
 16 17  1  0
 17 18  2  0
 17 21  1  0
 19 14  1  0
 20 19  2  0
 23 22  1  1
 23 24  1  0
 25 23  1  0
 26 25  1  6
 26 28  1  0
 26 27  1  0
 27 19  1  0
 28 30  1  0
 29 28  2  0
M  END
$$$$
