YEL.pdb
     RDKit          3D

 30 30  0  0  1  0  0  0  0  0999 V2000
   23.4911    0.8143  -14.4328 O   0  0  0  0  0  0  0  0  0  0  0  0
   23.0667   -0.4885  -14.7061 C   0  0  0  0  0  0  0  0  0  0  0  0
   22.2914   -1.1626  -13.7947 C   0  0  0  0  0  0  0  0  0  0  0  0
   21.8486   -2.4653  -14.0331 C   0  0  0  0  0  0  0  0  0  0  0  0
   22.1797   -3.1182  -15.2006 C   0  0  0  0  0  0  0  0  0  0  0  0
   21.7362   -4.5041  -15.5062 C   0  0  0  0  0  0  0  0  0  0  0  0
   20.5317   -4.5144  -16.4252 C   0  0  2  0  0  0  0  0  0  0  0  0
   19.3910   -4.0631  -15.6455 N   0  0  0  0  0  0  0  0  0  0  0  0
   20.2751   -5.9114  -16.8341 C   0  0  0  0  0  0  0  0  0  0  0  0
   19.5196   -6.5943  -16.0646 O   0  0  0  0  0  0  0  0  0  0  0  0
   22.9632   -2.4257  -16.1123 C   0  0  0  0  0  0  0  0  0  0  0  0
   23.3984   -1.1426  -15.8756 C   0  0  0  0  0  0  0  0  0  0  0  0
   20.7829   -6.5407  -17.9771 N   0  0  0  0  0  0  0  0  0  0  0  0
   20.4250   -7.8755  -18.3716 C   0  0  1  0  0  0  0  0  0  0  0  0
   20.3568   -7.9806  -19.8532 C   0  0  0  0  0  0  0  0  0  0  0  0
   19.4013   -7.1005  -20.5735 C   0  0  0  0  0  0  0  0  0  0  0  0
   19.2876   -7.1726  -22.0084 C   0  0  0  0  0  0  0  0  0  0  0  0
   19.9550   -6.5084  -22.8028 O   0  0  0  0  0  0  0  0  0  0  0  0
   21.1301   -8.9535  -17.6779 C   0  0  0  0  0  0  0  0  0  0  0  0
   22.3762   -8.9049  -17.3966 O   0  0  0  0  0  0  0  0  0  0  0  0
   18.3519   -8.0597  -22.5880 O   0  0  0  0  0  0  0  0  0  0  0  0
   23.5792  -10.8683  -14.5854 C   0  0  0  0  0  0  0  0  0  0  0  0
   22.5058   -9.8402  -14.5114 C   0  0  2  0  0  0  0  0  0  0  0  0
   22.4468   -9.3110  -13.0747 C   0  0  0  0  0  0  0  0  0  0  0  0
   21.1325  -10.2793  -14.8609 C   0  0  0  0  0  0  0  0  0  0  0  0
   20.9492  -10.9726  -16.1653 C   0  0  2  0  0  0  0  0  0  0  0  0
   20.4646  -10.1615  -17.2491 N   0  0  0  0  0  0  0  0  0  0  0  0
   20.0243  -12.1159  -15.9543 C   0  0  0  0  0  0  0  0  0  0  0  0
   18.7706  -11.9261  -16.0291 O   0  0  0  0  0  0  0  0  0  0  0  0
   20.4392  -13.4024  -15.6759 O   0  0  0  0  0  0  0  0  0  0  0  0
  2  1  1  0
  3  2  2  0
  4  3  1  0
  5  4  2  0
  5 11  1  0
  6  5  1  0
  7  8  1  1
  7  6  1  0
  9  7  1  0
  9 13  1  0
 10  9  2  0
 11 12  2  0
 12  2  1  0
 14 13  1  0
 14 15  1  6
 15 16  1  0
 16 17  1  0
 17 18  2  0
 17 21  1  0
 19 14  1  0
 20 19  2  0
 23 22  1  1
 23 24  1  0
 25 23  1  0
 26 25  1  1
 26 28  1  0
 26 27  1  0
 27 19  1  0
 28 30  1  0
 29 28  2  0
M  END
$$$$
