YEL.pdb
     RDKit          3D

 30 30  0  0  1  0  0  0  0  0999 V2000
   29.6655  -19.5689   -5.9021 O   0  0  0  0  0  0  0  0  0  0  0  0
   28.7843  -19.8993   -6.9349 C   0  0  0  0  0  0  0  0  0  0  0  0
   27.4852  -19.4555   -6.8962 C   0  0  0  0  0  0  0  0  0  0  0  0
   26.5762  -19.7655   -7.9099 C   0  0  0  0  0  0  0  0  0  0  0  0
   26.9598  -20.5327   -8.9884 C   0  0  0  0  0  0  0  0  0  0  0  0
   26.0344  -20.8929  -10.0950 C   0  0  0  0  0  0  0  0  0  0  0  0
   26.7540  -20.9521  -11.4270 C   0  0  2  0  0  0  0  0  0  0  0  0
   27.5622  -19.7487  -11.5338 N   0  0  0  0  0  0  0  0  0  0  0  0
   25.7399  -20.9121  -12.5015 C   0  0  0  0  0  0  0  0  0  0  0  0
   25.1446  -19.7962  -12.6736 O   0  0  0  0  0  0  0  0  0  0  0  0
   28.2747  -20.9742   -9.0147 C   0  0  0  0  0  0  0  0  0  0  0  0
   29.1686  -20.6679   -8.0152 C   0  0  0  0  0  0  0  0  0  0  0  0
   25.3815  -21.9787  -13.3348 N   0  0  0  0  0  0  0  0  0  0  0  0
   24.4051  -21.8709  -14.3839 C   0  0  1  0  0  0  0  0  0  0  0  0
   24.7384  -22.7917  -15.5027 C   0  0  0  0  0  0  0  0  0  0  0  0
   24.4405  -24.2368  -15.3315 C   0  0  0  0  0  0  0  0  0  0  0  0
   25.5075  -25.2053  -15.3501 C   0  0  0  0  0  0  0  0  0  0  0  0
   25.7075  -26.0509  -14.4768 O   0  0  0  0  0  0  0  0  0  0  0  0
   23.0074  -21.8564  -13.9517 C   0  0  0  0  0  0  0  0  0  0  0  0
   22.6019  -22.4244  -12.8806 O   0  0  0  0  0  0  0  0  0  0  0  0
   26.4149  -25.2196  -16.4341 O   0  0  0  0  0  0  0  0  0  0  0  0
   19.4868  -17.0903  -13.3723 C   0  0  0  0  0  0  0  0  0  0  0  0
   19.6743  -18.5502  -13.1527 C   0  0  2  0  0  0  0  0  0  0  0  0
   19.7672  -18.8002  -11.6439 C   0  0  0  0  0  0  0  0  0  0  0  0
   20.8760  -19.1704  -13.7627 C   0  0  0  0  0  0  0  0  0  0  0  0
   20.8045  -20.6212  -14.0879 C   0  0  2  0  0  0  0  0  0  0  0  0
   21.9725  -21.1883  -14.7056 N   0  0  0  0  0  0  0  0  0  0  0  0
   19.6273  -20.8395  -14.9675 C   0  0  0  0  0  0  0  0  0  0  0  0
   19.7988  -20.9637  -16.2199 O   0  0  0  0  0  0  0  0  0  0  0  0
   18.3274  -20.9194  -14.5107 O   0  0  0  0  0  0  0  0  0  0  0  0
  2  1  1  0
  3  2  2  0
  4  3  1  0
  5  4  2  0
  5 11  1  0
  6  5  1  0
  7  8  1  6
  7  6  1  0
  9  7  1  0
  9 13  1  0
 10  9  2  0
 11 12  2  0
 12  2  1  0
 14 13  1  0
 14 15  1  6
 15 16  1  0
 16 17  1  0
 17 18  2  0
 17 21  1  0
 19 14  1  0
 20 19  2  0
 23 22  1  1
 23 24  1  0
 25 23  1  0
 26 25  1  6
 26 28  1  0
 26 27  1  0
 27 19  1  0
 28 30  1  0
 29 28  2  0
M  END
$$$$
