YEL.pdb
     RDKit          3D

 30 30  0  0  1  0  0  0  0  0999 V2000
   29.4471  -18.6736   -2.7773 O   0  0  0  0  0  0  0  0  0  0  0  0
   28.9446  -19.0807   -4.0159 C   0  0  0  0  0  0  0  0  0  0  0  0
   28.1503  -18.2313   -4.7465 C   0  0  0  0  0  0  0  0  0  0  0  0
   27.6301  -18.6031   -5.9878 C   0  0  0  0  0  0  0  0  0  0  0  0
   27.9013  -19.8447   -6.5208 C   0  0  0  0  0  0  0  0  0  0  0  0
   27.3742  -20.2927   -7.8370 C   0  0  0  0  0  0  0  0  0  0  0  0
   25.8821  -20.5497   -7.7822 C   0  0  2  0  0  0  0  0  0  0  0  0
   25.6795  -21.7411   -6.9746 N   0  0  0  0  0  0  0  0  0  0  0  0
   25.4146  -20.8476   -9.1523 C   0  0  0  0  0  0  0  0  0  0  0  0
   25.7887  -21.9640   -9.6452 O   0  0  0  0  0  0  0  0  0  0  0  0
   28.7048  -20.6925   -5.7724 C   0  0  0  0  0  0  0  0  0  0  0  0
   29.2162  -20.3244   -4.5498 C   0  0  0  0  0  0  0  0  0  0  0  0
   24.6079  -20.0216   -9.9443 N   0  0  0  0  0  0  0  0  0  0  0  0
   24.1638  -20.3779  -11.2640 C   0  0  1  0  0  0  0  0  0  0  0  0
   22.6886  -20.2294  -11.3754 C   0  0  0  0  0  0  0  0  0  0  0  0
   22.0547  -20.5102  -12.6891 C   0  0  0  0  0  0  0  0  0  0  0  0
   20.6388  -20.3107  -12.8696 C   0  0  0  0  0  0  0  0  0  0  0  0
   19.8683  -19.8996  -12.0007 O   0  0  0  0  0  0  0  0  0  0  0  0
   24.9545  -19.8344  -12.3686 C   0  0  0  0  0  0  0  0  0  0  0  0
   25.4649  -18.6624  -12.3513 O   0  0  0  0  0  0  0  0  0  0  0  0
   20.0506  -20.5966  -14.1229 O   0  0  0  0  0  0  0  0  0  0  0  0
   29.0754  -21.1884  -16.7176 C   0  0  0  0  0  0  0  0  0  0  0  0
   27.9539  -20.3338  -16.2414 C   0  0  2  0  0  0  0  0  0  0  0  0
   28.5225  -18.9613  -15.8665 C   0  0  0  0  0  0  0  0  0  0  0  0
   27.1968  -20.8187  -15.0614 C   0  0  0  0  0  0  0  0  0  0  0  0
   25.9809  -20.0545  -14.6698 C   0  0  2  0  0  0  0  0  0  0  0  0
   25.2258  -20.5896  -13.5694 N   0  0  0  0  0  0  0  0  0  0  0  0
   25.1018  -19.9433  -15.8621 C   0  0  0  0  0  0  0  0  0  0  0  0
   24.2543  -20.8590  -16.1001 O   0  0  0  0  0  0  0  0  0  0  0  0
   25.1399  -18.8898  -16.7529 O   0  0  0  0  0  0  0  0  0  0  0  0
  2  1  1  0
  3  2  2  0
  4  3  1  0
  5  4  2  0
  5 11  1  0
  6  5  1  0
  7  8  1  1
  7  6  1  0
  9  7  1  0
  9 13  1  0
 10  9  2  0
 11 12  2  0
 12  2  1  0
 14 13  1  0
 14 15  1  6
 15 16  1  0
 16 17  1  0
 17 18  2  0
 17 21  1  0
 19 14  1  0
 20 19  2  0
 23 22  1  1
 23 24  1  0
 25 23  1  0
 26 25  1  6
 26 28  1  0
 26 27  1  0
 27 19  1  0
 28 30  1  0
 29 28  2  0
M  END
$$$$
