YEL.pdb
     RDKit          3D

 30 30  0  0  1  0  0  0  0  0999 V2000
   18.1917  -20.3361  -15.6348 O   0  0  0  0  0  0  0  0  0  0  0  0
   18.4888  -18.9885  -15.8532 C   0  0  0  0  0  0  0  0  0  0  0  0
   19.1254  -18.6050  -17.0082 C   0  0  0  0  0  0  0  0  0  0  0  0
   19.4385  -17.2679  -17.2612 C   0  0  0  0  0  0  0  0  0  0  0  0
   19.1148  -16.2853  -16.3509 C   0  0  0  0  0  0  0  0  0  0  0  0
   19.4241  -14.8473  -16.5685 C   0  0  0  0  0  0  0  0  0  0  0  0
   18.1800  -14.0555  -16.9160 C   0  0  2  0  0  0  0  0  0  0  0  0
   17.7439  -14.4938  -18.2314 N   0  0  0  0  0  0  0  0  0  0  0  0
   18.5538  -12.6290  -17.0160 C   0  0  0  0  0  0  0  0  0  0  0  0
   19.3576  -12.3217  -17.9587 O   0  0  0  0  0  0  0  0  0  0  0  0
   18.4721  -16.6865  -15.1888 C   0  0  0  0  0  0  0  0  0  0  0  0
   18.1646  -18.0041  -14.9414 C   0  0  0  0  0  0  0  0  0  0  0  0
   18.1079  -11.6008  -16.1768 N   0  0  0  0  0  0  0  0  0  0  0  0
   18.5246  -10.2319  -16.3110 C   0  0  1  0  0  0  0  0  0  0  0  0
   17.3538   -9.3196  -16.2233 C   0  0  0  0  0  0  0  0  0  0  0  0
   16.0678   -9.8774  -15.7320 C   0  0  0  0  0  0  0  0  0  0  0  0
   14.9276   -9.0163  -15.5436 C   0  0  0  0  0  0  0  0  0  0  0  0
   14.9078   -7.8090  -15.7875 O   0  0  0  0  0  0  0  0  0  0  0  0
   19.7040   -9.8479  -15.5350 C   0  0  0  0  0  0  0  0  0  0  0  0
   19.8190  -10.0735  -14.2819 O   0  0  0  0  0  0  0  0  0  0  0  0
   13.7219   -9.5587  -15.0429 O   0  0  0  0  0  0  0  0  0  0  0  0
   25.6870   -9.8550  -15.5941 C   0  0  0  0  0  0  0  0  0  0  0  0
   24.3736   -9.4843  -15.0005 C   0  0  2  0  0  0  0  0  0  0  0  0
   23.8265  -10.7016  -14.2480 C   0  0  0  0  0  0  0  0  0  0  0  0
   23.3115   -9.0517  -15.9416 C   0  0  0  0  0  0  0  0  0  0  0  0
   21.9736   -8.7443  -15.3659 C   0  0  2  0  0  0  0  0  0  0  0  0
   20.8398   -9.1853  -16.1323 N   0  0  0  0  0  0  0  0  0  0  0  0
   21.8867   -7.2759  -15.1586 C   0  0  0  0  0  0  0  0  0  0  0  0
   21.6092   -6.5222  -16.1427 O   0  0  0  0  0  0  0  0  0  0  0  0
   22.0906   -6.6551  -13.9429 O   0  0  0  0  0  0  0  0  0  0  0  0
  2  1  1  0
  3  2  2  0
  4  3  1  0
  5  4  2  0
  5 11  1  0
  6  5  1  0
  7  8  1  6
  7  6  1  0
  9  7  1  0
  9 13  1  0
 10  9  2  0
 11 12  2  0
 12  2  1  0
 14 13  1  0
 14 15  1  1
 15 16  1  0
 16 17  1  0
 17 18  2  0
 17 21  1  0
 19 14  1  0
 20 19  2  0
 23 22  1  6
 23 24  1  0
 25 23  1  0
 26 25  1  6
 26 28  1  0
 26 27  1  0
 27 19  1  0
 28 30  1  0
 29 28  2  0
M  END
$$$$
