LAN.pdb
     RDKit          3D

 22 21  0  0  1  0  0  0  0  0999 V2000
    8.0919  -12.7319   20.8034 C   0  0  0  0  0  0  0  0  0  0  0  0
    8.0767  -13.9607   19.8791 C   0  0  2  0  0  0  0  0  0  0  0  0
    6.7515  -13.9377   19.1571 C   0  0  0  0  0  0  0  0  0  0  0  0
    8.2991  -15.1422   20.7391 C   0  0  0  0  0  0  0  0  0  0  0  0
    9.5370  -15.1931   21.5490 C   0  0  2  0  0  0  0  0  0  0  0  0
   10.6339  -14.4330   21.0021 N   0  0  0  0  0  0  0  0  0  0  0  0
   10.0296  -16.5435   21.8886 C   0  0  0  0  0  0  0  0  0  0  0  0
    9.2513  -17.4337   22.3520 O   0  0  0  0  0  0  0  0  0  0  0  0
   12.9527  -18.5992   21.0276 C   0  0  0  0  0  0  0  0  0  0  0  0
   11.7883  -18.3223   22.0036 C   0  0  2  0  0  0  0  0  0  0  0  0
   11.4013  -16.9535   21.7238 N   0  0  0  0  0  0  0  0  0  0  0  0
   12.2215  -18.5427   23.3880 C   0  0  0  0  0  0  0  0  0  0  0  0
   12.7367  -19.6643   23.7215 O   0  0  0  0  0  0  0  0  0  0  0  0
   13.3190  -14.4565   25.2029 N   0  0  0  0  0  0  0  0  0  0  0  0
   13.7274  -15.6956   25.8125 C   0  0  0  0  0  0  0  0  0  0  0  0
   14.9449  -15.9901   25.7148 O   0  0  0  0  0  0  0  0  0  0  0  0
   12.7207  -16.5197   26.4948 C   0  0  0  0  0  0  0  0  0  0  0  0
   12.5220  -17.8542   25.8093 C   0  0  2  0  0  0  0  0  0  0  0  0
   12.1237  -17.5957   24.4425 N   0  0  0  0  0  0  0  0  0  0  0  0
   11.4567  -18.6440   26.5071 C   0  0  0  0  0  0  0  0  0  0  0  0
   10.2447  -18.8871   25.8924 O   0  0  0  0  0  0  0  0  0  0  0  0
   11.6719  -19.0840   27.6547 O   0  0  0  0  0  0  0  0  0  0  0  0
  2  4  1  0
  2  1  1  1
  3  2  1  0
  4  5  1  0
  5  6  1  6
  7  5  1  0
  7  8  2  0
 10  9  1  6
 10 11  1  0
 10 12  1  0
 11  7  1  0
 12 13  2  0
 12 19  1  0
 14 15  1  0
 15 16  2  0
 18 17  1  1
 17 15  1  0
 18 20  1  0
 19 18  1  0
 20 22  2  0
 20 21  1  0
M  END
$$$$
