LAN.pdb
     RDKit          3D

 22 21  0  0  1  0  0  0  0  0999 V2000
    9.4589  -12.7065   20.1659 C   0  0  0  0  0  0  0  0  0  0  0  0
    8.1884  -13.3622   19.5997 C   0  0  2  0  0  0  0  0  0  0  0  0
    7.4704  -12.2947   18.8105 C   0  0  0  0  0  0  0  0  0  0  0  0
    7.4363  -13.8981   20.7539 C   0  0  0  0  0  0  0  0  0  0  0  0
    8.0872  -14.9286   21.5936 C   0  0  2  0  0  0  0  0  0  0  0  0
    8.6874  -16.0074   20.8480 N   0  0  0  0  0  0  0  0  0  0  0  0
    7.2512  -15.5103   22.6633 C   0  0  0  0  0  0  0  0  0  0  0  0
    6.6276  -14.7738   23.4890 O   0  0  0  0  0  0  0  0  0  0  0  0
    5.5512  -18.6857   23.2828 C   0  0  0  0  0  0  0  0  0  0  0  0
    6.1906  -17.4181   23.8904 C   0  0  2  0  0  0  0  0  0  0  0  0
    7.0762  -16.9282   22.8525 N   0  0  0  0  0  0  0  0  0  0  0  0
    6.8759  -17.7457   25.1458 C   0  0  0  0  0  0  0  0  0  0  0  0
    6.2221  -18.2809   26.1054 O   0  0  0  0  0  0  0  0  0  0  0  0
    8.0540  -21.7262   27.3893 N   0  0  0  0  0  0  0  0  0  0  0  0
    8.3617  -20.3225   27.4812 C   0  0  0  0  0  0  0  0  0  0  0  0
    8.1240  -19.7708   28.5847 O   0  0  0  0  0  0  0  0  0  0  0  0
    8.9211  -19.6375   26.3081 C   0  0  0  0  0  0  0  0  0  0  0  0
    8.9809  -18.1379   26.5029 C   0  0  2  0  0  0  0  0  0  0  0  0
    8.2521  -17.5200   25.4164 N   0  0  0  0  0  0  0  0  0  0  0  0
   10.4038  -17.6681   26.4909 C   0  0  0  0  0  0  0  0  0  0  0  0
   11.0308  -17.3535   25.3018 O   0  0  0  0  0  0  0  0  0  0  0  0
   11.0239  -17.5619   27.5685 O   0  0  0  0  0  0  0  0  0  0  0  0
  2  4  1  0
  2  1  1  1
  3  2  1  0
  4  5  1  0
  5  6  1  6
  7  5  1  0
  7  8  2  0
 10  9  1  6
 10 11  1  0
 10 12  1  0
 11  7  1  0
 12 13  2  0
 12 19  1  0
 14 15  1  0
 15 16  2  0
 18 17  1  6
 17 15  1  0
 18 20  1  0
 19 18  1  0
 20 22  2  0
 20 21  1  0
M  END
$$$$
