LAN.pdb
     RDKit          3D

 22 21  0  0  1  0  0  0  0  0999 V2000
    6.4098  -12.3976   24.1009 C   0  0  0  0  0  0  0  0  0  0  0  0
    6.0700  -13.1548   25.3954 C   0  0  2  0  0  0  0  0  0  0  0  0
    6.1149  -12.1389   26.5106 C   0  0  0  0  0  0  0  0  0  0  0  0
    7.0493  -14.2557   25.5133 C   0  0  0  0  0  0  0  0  0  0  0  0
    6.9415  -15.3901   24.5687 C   0  0  2  0  0  0  0  0  0  0  0  0
    5.7612  -16.1994   24.7477 N   0  0  0  0  0  0  0  0  0  0  0  0
    8.1142  -16.2853   24.5005 C   0  0  0  0  0  0  0  0  0  0  0  0
    8.2012  -17.3178   25.2350 O   0  0  0  0  0  0  0  0  0  0  0  0
   11.3603  -16.3578   22.6266 C   0  0  0  0  0  0  0  0  0  0  0  0
   10.3937  -16.9283   23.6873 C   0  0  2  0  0  0  0  0  0  0  0  0
    9.2295  -16.0676   23.6141 N   0  0  0  0  0  0  0  0  0  0  0  0
   11.0363  -16.9421   25.0063 C   0  0  0  0  0  0  0  0  0  0  0  0
   12.1294  -17.5840   25.1736 O   0  0  0  0  0  0  0  0  0  0  0  0
   10.5827  -14.4098   30.6677 N   0  0  0  0  0  0  0  0  0  0  0  0
   11.1748  -15.2794   29.6843 C   0  0  0  0  0  0  0  0  0  0  0  0
   12.0621  -16.0666   30.0985 O   0  0  0  0  0  0  0  0  0  0  0  0
   10.7168  -15.1953   28.2910 C   0  0  0  0  0  0  0  0  0  0  0  0
   11.1466  -16.3987   27.4800 C   0  0  2  0  0  0  0  0  0  0  0  0
   10.5477  -16.2860   26.1677 N   0  0  0  0  0  0  0  0  0  0  0  0
   10.6863  -17.6625   28.1406 C   0  0  0  0  0  0  0  0  0  0  0  0
   11.5364  -18.3781   28.9599 O   0  0  0  0  0  0  0  0  0  0  0  0
    9.5225  -18.0680   27.9452 O   0  0  0  0  0  0  0  0  0  0  0  0
  2  4  1  0
  2  1  1  6
  3  2  1  0
  4  5  1  0
  5  6  1  1
  7  5  1  0
  7  8  2  0
 10  9  1  6
 10 11  1  0
 10 12  1  0
 11  7  1  0
 12 13  2  0
 12 19  1  0
 14 15  1  0
 15 16  2  0
 18 17  1  1
 17 15  1  0
 18 20  1  0
 19 18  1  0
 20 22  2  0
 20 21  1  0
M  END
$$$$
