LAN.pdb
     RDKit          3D

 22 21  0  0  1  0  0  0  0  0999 V2000
    9.6524  -12.8805   19.9508 C   0  0  0  0  0  0  0  0  0  0  0  0
    8.1633  -13.2315   19.7961 C   0  0  2  0  0  0  0  0  0  0  0  0
    7.4703  -11.9695   19.3431 C   0  0  0  0  0  0  0  0  0  0  0  0
    7.7127  -13.7573   21.1020 C   0  0  0  0  0  0  0  0  0  0  0  0
    8.3552  -14.9864   21.6190 C   0  0  2  0  0  0  0  0  0  0  0  0
    8.4854  -16.0413   20.6442 N   0  0  0  0  0  0  0  0  0  0  0  0
    7.7621  -15.5562   22.8457 C   0  0  0  0  0  0  0  0  0  0  0  0
    7.6271  -14.8603   23.8995 O   0  0  0  0  0  0  0  0  0  0  0  0
    5.5672  -18.3190   23.7469 C   0  0  0  0  0  0  0  0  0  0  0  0
    6.7272  -17.3997   24.1878 C   0  0  2  0  0  0  0  0  0  0  0  0
    7.2963  -16.9164   22.9452 N   0  0  0  0  0  0  0  0  0  0  0  0
    7.6769  -18.1437   25.0228 C   0  0  0  0  0  0  0  0  0  0  0  0
    7.2676  -18.7282   26.0838 O   0  0  0  0  0  0  0  0  0  0  0  0
    9.1166  -20.8574   23.8401 N   0  0  0  0  0  0  0  0  0  0  0  0
   10.5359  -20.6152   23.8595 C   0  0  0  0  0  0  0  0  0  0  0  0
   11.2310  -21.3122   23.0787 O   0  0  0  0  0  0  0  0  0  0  0  0
   11.0719  -19.5932   24.7685 C   0  0  0  0  0  0  0  0  0  0  0  0
    9.9909  -18.9807   25.6327 C   0  0  2  0  0  0  0  0  0  0  0  0
    9.0658  -18.2886   24.7616 N   0  0  0  0  0  0  0  0  0  0  0  0
   10.5900  -18.0132   26.6075 C   0  0  0  0  0  0  0  0  0  0  0  0
   10.3939  -16.6545   26.4609 O   0  0  0  0  0  0  0  0  0  0  0  0
   11.2719  -18.4445   27.5593 O   0  0  0  0  0  0  0  0  0  0  0  0
  2  4  1  0
  2  1  1  1
  3  2  1  0
  4  5  1  0
  5  6  1  6
  7  5  1  0
  7  8  2  0
 10  9  1  6
 10 11  1  0
 10 12  1  0
 11  7  1  0
 12 13  2  0
 12 19  1  0
 14 15  1  0
 15 16  2  0
 18 17  1  6
 17 15  1  0
 18 20  1  0
 19 18  1  0
 20 22  2  0
 20 21  1  0
M  END
$$$$
