LAN.pdb
     RDKit          3D

 22 21  0  0  1  0  0  0  0  0999 V2000
    9.6764  -13.0634   20.2377 C   0  0  0  0  0  0  0  0  0  0  0  0
    8.2200  -13.3761   19.8561 C   0  0  2  0  0  0  0  0  0  0  0  0
    7.6235  -12.0860   19.3483 C   0  0  0  0  0  0  0  0  0  0  0  0
    7.5736  -13.9301   21.0645 C   0  0  0  0  0  0  0  0  0  0  0  0
    8.1069  -15.1919   21.6252 C   0  0  2  0  0  0  0  0  0  0  0  0
    8.3904  -16.2049   20.6386 N   0  0  0  0  0  0  0  0  0  0  0  0
    7.3084  -15.8047   22.7061 C   0  0  0  0  0  0  0  0  0  0  0  0
    7.0143  -15.1578   23.7588 O   0  0  0  0  0  0  0  0  0  0  0  0
    5.1898  -18.7902   23.2126 C   0  0  0  0  0  0  0  0  0  0  0  0
    6.1339  -17.7226   23.8074 C   0  0  2  0  0  0  0  0  0  0  0  0
    6.8069  -17.1548   22.6557 N   0  0  0  0  0  0  0  0  0  0  0  0
    7.0445  -18.3346   24.7816 C   0  0  0  0  0  0  0  0  0  0  0  0
    6.5739  -18.8605   25.8478 O   0  0  0  0  0  0  0  0  0  0  0  0
   11.9427  -21.3142   25.8410 N   0  0  0  0  0  0  0  0  0  0  0  0
   11.6311  -19.9084   25.8579 C   0  0  0  0  0  0  0  0  0  0  0  0
   12.2594  -19.2082   26.6907 O   0  0  0  0  0  0  0  0  0  0  0  0
   10.6225  -19.3910   24.9234 C   0  0  0  0  0  0  0  0  0  0  0  0
    9.3310  -19.0318   25.6258 C   0  0  2  0  0  0  0  0  0  0  0  0
    8.4578  -18.4067   24.6561 N   0  0  0  0  0  0  0  0  0  0  0  0
    9.5989  -18.0820   26.7534 C   0  0  0  0  0  0  0  0  0  0  0  0
    9.7715  -16.7337   26.5117 O   0  0  0  0  0  0  0  0  0  0  0  0
    9.6657  -18.5186   27.9204 O   0  0  0  0  0  0  0  0  0  0  0  0
  2  4  1  0
  2  1  1  1
  3  2  1  0
  4  5  1  0
  5  6  1  6
  7  5  1  0
  7  8  2  0
 10  9  1  6
 10 11  1  0
 10 12  1  0
 11  7  1  0
 12 13  2  0
 12 19  1  0
 14 15  1  0
 15 16  2  0
 18 17  1  6
 17 15  1  0
 18 20  1  0
 19 18  1  0
 20 22  2  0
 20 21  1  0
M  END
$$$$
