LAN.pdb
     RDKit          3D

 22 21  0  0  1  0  0  0  0  0999 V2000
    9.5577  -12.5537   19.3923 C   0  0  0  0  0  0  0  0  0  0  0  0
    8.1551  -13.1838   19.3993 C   0  0  2  0  0  0  0  0  0  0  0  0
    7.1810  -12.0648   19.1219 C   0  0  0  0  0  0  0  0  0  0  0  0
    7.9919  -13.8431   20.7122 C   0  0  0  0  0  0  0  0  0  0  0  0
    8.9668  -14.8893   21.0940 C   0  0  2  0  0  0  0  0  0  0  0  0
    9.0975  -15.9560   20.1322 N   0  0  0  0  0  0  0  0  0  0  0  0
    8.7786  -15.4880   22.4310 C   0  0  0  0  0  0  0  0  0  0  0  0
    8.6147  -14.7646   23.4620 O   0  0  0  0  0  0  0  0  0  0  0  0
    7.6850  -18.6754   23.8175 C   0  0  0  0  0  0  0  0  0  0  0  0
    8.5587  -17.4171   24.0124 C   0  0  2  0  0  0  0  0  0  0  0  0
    8.7635  -16.9091   22.6702 N   0  0  0  0  0  0  0  0  0  0  0  0
    9.8025  -17.7642   24.7091 C   0  0  0  0  0  0  0  0  0  0  0  0
   10.4920  -18.7668   24.3164 O   0  0  0  0  0  0  0  0  0  0  0  0
   12.1989  -18.8680   29.1072 N   0  0  0  0  0  0  0  0  0  0  0  0
   10.8247  -18.4566   29.2345 C   0  0  0  0  0  0  0  0  0  0  0  0
   10.2680  -18.7051   30.3330 O   0  0  0  0  0  0  0  0  0  0  0  0
   10.1734  -17.7877   28.1002 C   0  0  0  0  0  0  0  0  0  0  0  0
   11.0847  -17.6998   26.8951 C   0  0  2  0  0  0  0  0  0  0  0  0
   10.3439  -17.0697   25.8238 N   0  0  0  0  0  0  0  0  0  0  0  0
   11.5215  -19.0694   26.4723 C   0  0  0  0  0  0  0  0  0  0  0  0
   10.6383  -20.1301   26.5023 O   0  0  0  0  0  0  0  0  0  0  0  0
   12.6958  -19.2480   26.0902 O   0  0  0  0  0  0  0  0  0  0  0  0
  2  4  1  0
  2  1  1  1
  3  2  1  0
  4  5  1  0
  5  6  1  6
  7  5  1  0
  7  8  2  0
 10  9  1  6
 10 11  1  0
 10 12  1  0
 11  7  1  0
 12 13  2  0
 12 19  1  0
 14 15  1  0
 15 16  2  0
 18 17  1  1
 17 15  1  0
 18 20  1  0
 19 18  1  0
 20 22  2  0
 20 21  1  0
M  END
$$$$
