LAN.pdb
     RDKit          3D

 22 21  0  0  1  0  0  0  0  0999 V2000
    7.2243  -18.7178   17.1099 C   0  0  0  0  0  0  0  0  0  0  0  0
    8.4902  -19.0110   16.2876 C   0  0  2  0  0  0  0  0  0  0  0  0
    8.9376  -20.4007   16.6705 C   0  0  0  0  0  0  0  0  0  0  0  0
    9.4564  -17.9361   16.5971 C   0  0  0  0  0  0  0  0  0  0  0  0
    9.0102  -16.5326   16.4499 C   0  0  2  0  0  0  0  0  0  0  0  0
    8.5998  -16.1789   15.1133 N   0  0  0  0  0  0  0  0  0  0  0  0
    9.9509  -15.5031   16.9361 C   0  0  0  0  0  0  0  0  0  0  0  0
   10.2303  -14.4801   16.2372 O   0  0  0  0  0  0  0  0  0  0  0  0
   10.0568  -13.3432   18.7856 C   0  0  0  0  0  0  0  0  0  0  0  0
   11.2019  -14.3794   18.7917 C   0  0  2  0  0  0  0  0  0  0  0  0
   10.6123  -15.5715   18.2147 N   0  0  0  0  0  0  0  0  0  0  0  0
   11.7075  -14.5710   20.1557 C   0  0  0  0  0  0  0  0  0  0  0  0
   12.2859  -13.6043   20.7604 O   0  0  0  0  0  0  0  0  0  0  0  0
    9.5813  -17.0176   23.4763 N   0  0  0  0  0  0  0  0  0  0  0  0
   10.9184  -16.4875   23.5473 C   0  0  0  0  0  0  0  0  0  0  0  0
   11.0725  -15.4562   24.2481 O   0  0  0  0  0  0  0  0  0  0  0  0
   11.9944  -17.1680   22.8143 C   0  0  0  0  0  0  0  0  0  0  0  0
   12.6486  -16.2594   21.7960 C   0  0  2  0  0  0  0  0  0  0  0  0
   11.6156  -15.7731   20.9071 N   0  0  0  0  0  0  0  0  0  0  0  0
   13.6787  -17.0137   21.0116 C   0  0  0  0  0  0  0  0  0  0  0  0
   15.0141  -16.6727   21.0935 O   0  0  0  0  0  0  0  0  0  0  0  0
   13.3214  -17.9583   20.2788 O   0  0  0  0  0  0  0  0  0  0  0  0
  2  4  1  0
  2  1  1  1
  3  2  1  0
  4  5  1  0
  5  6  1  6
  7  5  1  0
  7  8  2  0
 10  9  1  1
 10 11  1  0
 10 12  1  0
 11  7  1  0
 12 13  2  0
 12 19  1  0
 14 15  1  0
 15 16  2  0
 18 17  1  1
 17 15  1  0
 18 20  1  0
 19 18  1  0
 20 22  2  0
 20 21  1  0
M  END
$$$$
