LAN.pdb
     RDKit          3D

 22 21  0  0  1  0  0  0  0  0999 V2000
    7.5772  -11.7994   20.0970 C   0  0  0  0  0  0  0  0  0  0  0  0
    7.9808  -12.8294   19.0289 C   0  0  2  0  0  0  0  0  0  0  0  0
    6.7360  -13.1279   18.2293 C   0  0  0  0  0  0  0  0  0  0  0  0
    8.5532  -13.9863   19.7491 C   0  0  0  0  0  0  0  0  0  0  0  0
    9.9918  -14.2815   19.5645 C   0  0  2  0  0  0  0  0  0  0  0  0
   10.4148  -14.3264   18.1864 N   0  0  0  0  0  0  0  0  0  0  0  0
   10.4936  -15.4922   20.2455 C   0  0  0  0  0  0  0  0  0  0  0  0
   10.2253  -15.7236   21.4651 O   0  0  0  0  0  0  0  0  0  0  0  0
   12.0204  -18.7195   19.2575 C   0  0  0  0  0  0  0  0  0  0  0  0
   11.7664  -17.6467   20.3389 C   0  0  2  0  0  0  0  0  0  0  0  0
   11.3082  -16.4886   19.5970 N   0  0  0  0  0  0  0  0  0  0  0  0
   12.9887  -17.4062   21.1141 C   0  0  0  0  0  0  0  0  0  0  0  0
   13.5649  -18.3797   21.7098 O   0  0  0  0  0  0  0  0  0  0  0  0
   16.7343  -15.5558   19.4211 N   0  0  0  0  0  0  0  0  0  0  0  0
   15.6781  -14.7548   19.9838 C   0  0  0  0  0  0  0  0  0  0  0  0
   14.9451  -14.1447   19.1659 O   0  0  0  0  0  0  0  0  0  0  0  0
   15.5256  -14.7009   21.4439 C   0  0  0  0  0  0  0  0  0  0  0  0
   14.8693  -15.9500   21.9913 C   0  0  2  0  0  0  0  0  0  0  0  0
   13.6264  -16.1473   21.2773 N   0  0  0  0  0  0  0  0  0  0  0  0
   14.5934  -15.7935   23.4558 C   0  0  0  0  0  0  0  0  0  0  0  0
   15.6312  -15.7195   24.3633 O   0  0  0  0  0  0  0  0  0  0  0  0
   13.4126  -15.7299   23.8542 O   0  0  0  0  0  0  0  0  0  0  0  0
  2  4  1  0
  2  1  1  1
  3  2  1  0
  4  5  1  0
  5  6  1  6
  7  5  1  0
  7  8  2  0
 10  9  1  6
 10 11  1  0
 10 12  1  0
 11  7  1  0
 12 13  2  0
 12 19  1  0
 14 15  1  0
 15 16  2  0
 18 17  1  6
 17 15  1  0
 18 20  1  0
 19 18  1  0
 20 22  2  0
 20 21  1  0
M  END
$$$$
