LAN.pdb
     RDKit          3D

 22 21  0  0  1  0  0  0  0  0999 V2000
    9.0369  -13.1584   19.0064 C   0  0  0  0  0  0  0  0  0  0  0  0
    7.6136  -13.3951   19.5383 C   0  0  2  0  0  0  0  0  0  0  0  0
    6.8079  -12.1749   19.1644 C   0  0  0  0  0  0  0  0  0  0  0  0
    7.7380  -13.6406   20.9906 C   0  0  0  0  0  0  0  0  0  0  0  0
    8.4652  -14.8510   21.4342 C   0  0  2  0  0  0  0  0  0  0  0  0
    8.0286  -16.0700   20.7989 N   0  0  0  0  0  0  0  0  0  0  0  0
    8.5109  -15.0766   22.8931 C   0  0  0  0  0  0  0  0  0  0  0  0
    8.9978  -14.2078   23.6813 O   0  0  0  0  0  0  0  0  0  0  0  0
    6.9364  -17.2827   25.3752 C   0  0  0  0  0  0  0  0  0  0  0  0
    8.1687  -16.4502   24.9587 C   0  0  2  0  0  0  0  0  0  0  0  0
    8.0164  -16.2721   23.5281 N   0  0  0  0  0  0  0  0  0  0  0  0
    9.4040  -17.1442   25.3396 C   0  0  0  0  0  0  0  0  0  0  0  0
    9.6446  -17.3823   26.5726 O   0  0  0  0  0  0  0  0  0  0  0  0
   12.4743  -19.9604   21.7394 N   0  0  0  0  0  0  0  0  0  0  0  0
   11.5010  -19.4043   22.6432 C   0  0  0  0  0  0  0  0  0  0  0  0
   10.5436  -18.7830   22.1179 O   0  0  0  0  0  0  0  0  0  0  0  0
   11.6820  -19.5924   24.0889 C   0  0  0  0  0  0  0  0  0  0  0  0
   11.6143  -18.2823   24.8434 C   0  0  2  0  0  0  0  0  0  0  0  0
   10.4042  -17.5997   24.4394 N   0  0  0  0  0  0  0  0  0  0  0  0
   12.8067  -17.4340   24.5208 C   0  0  0  0  0  0  0  0  0  0  0  0
   12.6605  -16.2498   23.8263 O   0  0  0  0  0  0  0  0  0  0  0  0
   13.9407  -17.8057   24.8855 O   0  0  0  0  0  0  0  0  0  0  0  0
  2  4  1  0
  2  1  1  1
  3  2  1  0
  4  5  1  0
  5  6  1  6
  7  5  1  0
  7  8  2  0
 10  9  1  6
 10 11  1  0
 10 12  1  0
 11  7  1  0
 12 13  2  0
 12 19  1  0
 14 15  1  0
 15 16  2  0
 18 17  1  6
 17 15  1  0
 18 20  1  0
 19 18  1  0
 20 22  2  0
 20 21  1  0
M  END
$$$$
