LAN.pdb
     RDKit          3D

 22 21  0  0  1  0  0  0  0  0999 V2000
    8.6150  -12.1087   18.8006 C   0  0  0  0  0  0  0  0  0  0  0  0
    7.7049  -13.2912   19.1718 C   0  0  2  0  0  0  0  0  0  0  0  0
    6.4149  -12.6958   19.6811 C   0  0  0  0  0  0  0  0  0  0  0  0
    8.4478  -14.1068   20.1556 C   0  0  0  0  0  0  0  0  0  0  0  0
    9.7488  -14.6813   19.7457 C   0  0  2  0  0  0  0  0  0  0  0  0
    9.7106  -15.4024   18.4972 N   0  0  0  0  0  0  0  0  0  0  0  0
   10.4254  -15.5258   20.7509 C   0  0  0  0  0  0  0  0  0  0  0  0
   10.5910  -15.1272   21.9454 O   0  0  0  0  0  0  0  0  0  0  0  0
   11.5741  -19.0504   21.0314 C   0  0  0  0  0  0  0  0  0  0  0  0
   11.6555  -17.5780   21.4899 C   0  0  2  0  0  0  0  0  0  0  0  0
   10.9395  -16.8418   20.4666 N   0  0  0  0  0  0  0  0  0  0  0  0
   13.0564  -17.1689   21.6411 C   0  0  0  0  0  0  0  0  0  0  0  0
   13.8553  -17.8838   22.3380 O   0  0  0  0  0  0  0  0  0  0  0  0
   14.8965  -16.1107   18.5028 N   0  0  0  0  0  0  0  0  0  0  0  0
   15.2214  -14.7645   18.8977 C   0  0  0  0  0  0  0  0  0  0  0  0
   15.4275  -13.9452   17.9678 O   0  0  0  0  0  0  0  0  0  0  0  0
   15.2905  -14.4389   20.3286 C   0  0  0  0  0  0  0  0  0  0  0  0
   15.0385  -15.6516   21.1982 C   0  0  2  0  0  0  0  0  0  0  0  0
   13.6426  -16.0092   21.0669 N   0  0  0  0  0  0  0  0  0  0  0  0
   15.3491  -15.3384   22.6303 C   0  0  0  0  0  0  0  0  0  0  0  0
   16.6486  -15.1041   23.0333 O   0  0  0  0  0  0  0  0  0  0  0  0
   14.4210  -15.2899   23.4629 O   0  0  0  0  0  0  0  0  0  0  0  0
  2  4  1  0
  2  1  1  1
  3  2  1  0
  4  5  1  0
  5  6  1  6
  7  5  1  0
  7  8  2  0
 10  9  1  6
 10 11  1  0
 10 12  1  0
 11  7  1  0
 12 13  2  0
 12 19  1  0
 14 15  1  0
 15 16  2  0
 18 17  1  6
 17 15  1  0
 18 20  1  0
 19 18  1  0
 20 22  2  0
 20 21  1  0
M  END
$$$$
