LAN.pdb
     RDKit          3D

 22 21  0  0  1  0  0  0  0  0999 V2000
    9.3614  -12.9290   19.0774 C   0  0  0  0  0  0  0  0  0  0  0  0
    7.9611  -13.5599   19.1534 C   0  0  2  0  0  0  0  0  0  0  0  0
    6.9847  -12.4882   18.7341 C   0  0  0  0  0  0  0  0  0  0  0  0
    7.7917  -14.0530   20.5366 C   0  0  0  0  0  0  0  0  0  0  0  0
    8.7096  -15.1093   21.0186 C   0  0  2  0  0  0  0  0  0  0  0  0
    8.8520  -16.2263   20.1173 N   0  0  0  0  0  0  0  0  0  0  0  0
    8.4339  -15.6344   22.3712 C   0  0  0  0  0  0  0  0  0  0  0  0
    8.1765  -14.8571   23.3421 O   0  0  0  0  0  0  0  0  0  0  0  0
    8.1735  -19.0139   23.9710 C   0  0  0  0  0  0  0  0  0  0  0  0
    8.1787  -17.4718   24.0533 C   0  0  2  0  0  0  0  0  0  0  0  0
    8.4320  -17.0391   22.6930 N   0  0  0  0  0  0  0  0  0  0  0  0
    9.1886  -17.0171   25.0157 C   0  0  0  0  0  0  0  0  0  0  0  0
   10.4083  -16.9020   24.6500 O   0  0  0  0  0  0  0  0  0  0  0  0
    9.9221  -13.7892   30.0829 N   0  0  0  0  0  0  0  0  0  0  0  0
   10.3865  -14.2786   28.8108 C   0  0  0  0  0  0  0  0  0  0  0  0
   11.6143  -14.1484   28.5780 O   0  0  0  0  0  0  0  0  0  0  0  0
    9.4205  -14.8854   27.8851 C   0  0  0  0  0  0  0  0  0  0  0  0
    9.9437  -16.1716   27.2833 C   0  0  2  0  0  0  0  0  0  0  0  0
    8.9393  -16.6757   26.3720 N   0  0  0  0  0  0  0  0  0  0  0  0
   10.2045  -17.1812   28.3595 C   0  0  0  0  0  0  0  0  0  0  0  0
    9.3569  -18.2567   28.5355 O   0  0  0  0  0  0  0  0  0  0  0  0
   11.1985  -17.0442   29.1012 O   0  0  0  0  0  0  0  0  0  0  0  0
  2  4  1  0
  2  1  1  1
  3  2  1  0
  4  5  1  0
  5  6  1  6
  7  5  1  0
  7  8  2  0
 10  9  1  6
 10 11  1  0
 10 12  1  0
 11  7  1  0
 12 13  2  0
 12 19  1  0
 14 15  1  0
 15 16  2  0
 18 17  1  1
 17 15  1  0
 18 20  1  0
 19 18  1  0
 20 22  2  0
 20 21  1  0
M  END
$$$$
