LAN.pdb
     RDKit          3D

 22 21  0  0  1  0  0  0  0  0999 V2000
    6.7738  -12.1044   24.7342 C   0  0  0  0  0  0  0  0  0  0  0  0
    6.1505  -13.1627   25.6594 C   0  0  2  0  0  0  0  0  0  0  0  0
    5.9979  -12.5125   27.0129 C   0  0  0  0  0  0  0  0  0  0  0  0
    7.0483  -14.3365   25.6279 C   0  0  0  0  0  0  0  0  0  0  0  0
    6.9036  -15.2964   24.5107 C   0  0  2  0  0  0  0  0  0  0  0  0
    5.7392  -16.1424   24.6041 N   0  0  0  0  0  0  0  0  0  0  0  0
    8.0782  -16.1491   24.2376 C   0  0  0  0  0  0  0  0  0  0  0  0
    8.2059  -17.2912   24.7783 O   0  0  0  0  0  0  0  0  0  0  0  0
   11.1826  -15.9255   22.1528 C   0  0  0  0  0  0  0  0  0  0  0  0
   10.3662  -16.5531   23.3037 C   0  0  2  0  0  0  0  0  0  0  0  0
    9.1501  -15.7656   23.3540 N   0  0  0  0  0  0  0  0  0  0  0  0
   11.1399  -16.5258   24.5501 C   0  0  0  0  0  0  0  0  0  0  0  0
   12.2623  -17.1348   24.6145 O   0  0  0  0  0  0  0  0  0  0  0  0
   10.3074  -16.1260   29.7107 N   0  0  0  0  0  0  0  0  0  0  0  0
   11.0782  -15.0065   29.2352 C   0  0  0  0  0  0  0  0  0  0  0  0
   11.7363  -14.3755   30.0997 O   0  0  0  0  0  0  0  0  0  0  0  0
   11.0492  -14.6781   27.8036 C   0  0  0  0  0  0  0  0  0  0  0  0
   11.5538  -15.8214   26.9499 C   0  0  2  0  0  0  0  0  0  0  0  0
   10.7533  -15.8624   25.7453 N   0  0  0  0  0  0  0  0  0  0  0  0
   11.4249  -17.1186   27.6888 C   0  0  0  0  0  0  0  0  0  0  0  0
   12.3759  -17.4984   28.6148 O   0  0  0  0  0  0  0  0  0  0  0  0
   10.4468  -17.8594   27.4617 O   0  0  0  0  0  0  0  0  0  0  0  0
  2  4  1  0
  2  1  1  6
  3  2  1  0
  4  5  1  0
  5  6  1  1
  7  5  1  0
  7  8  2  0
 10  9  1  6
 10 11  1  0
 10 12  1  0
 11  7  1  0
 12 13  2  0
 12 19  1  0
 14 15  1  0
 15 16  2  0
 18 17  1  1
 17 15  1  0
 18 20  1  0
 19 18  1  0
 20 22  2  0
 20 21  1  0
M  END
$$$$
