GRS.pdb
     RDKit          3D

 22 21  0  0  1  0  0  0  0  0999 V2000
   18.7587  -10.9933  -15.1856 N   0  0  0  0  0  0  0  0  0  0  0  0
   19.1811  -10.0922  -14.1618 C   0  0  0  0  0  0  0  0  0  0  0  0
   18.1321   -9.1737  -13.7020 C   0  0  0  0  0  0  0  0  0  0  0  0
   17.1436   -8.8074  -14.3886 O   0  0  0  0  0  0  0  0  0  0  0  0
   13.8385   -5.5610   -8.3712 N   0  0  0  0  0  0  0  0  0  0  0  0
   13.4638   -6.8739   -7.9830 C   0  0  0  0  0  0  0  0  0  0  0  0
   12.2484   -7.1277   -7.6713 N   0  0  0  0  0  0  0  0  0  0  0  0
   14.4141   -7.9375   -7.9280 N   0  0  0  0  0  0  0  0  0  0  0  0
   15.7866   -7.7763   -8.3221 C   0  0  0  0  0  0  0  0  0  0  0  0
   15.8805   -7.8140   -9.8205 C   0  0  0  0  0  0  0  0  0  0  0  0
   17.2977   -7.7123  -10.3189 C   0  0  0  0  0  0  0  0  0  0  0  0
   17.2881   -7.7398  -11.8431 C   0  0  2  0  0  0  0  0  0  0  0  0
   18.2597   -8.6617  -12.3590 N   0  0  0  0  0  0  0  0  0  0  0  0
   17.6001   -6.3823  -12.3463 C   0  0  0  0  0  0  0  0  0  0  0  0
   18.6531   -5.8006  -12.0171 O   0  0  0  0  0  0  0  0  0  0  0  0
   11.9168   -8.0636   -7.3638 O   0  0  0  0  0  0  0  0  0  0  0  0
   14.7591   -4.3669  -14.7234 C   0  0  0  0  0  0  0  0  0  0  0  0
   16.1076   -4.1083  -14.9457 C   0  0  1  0  0  0  0  0  0  0  0  0
   16.9351   -4.3747  -13.7022 N   0  0  0  0  0  0  0  0  0  0  0  0
   16.6746   -5.7195  -13.2307 C   0  0  0  0  0  0  0  0  0  0  0  0
   16.6909   -3.3785  -12.6514 O   0  0  0  0  0  0  0  0  0  0  0  0
   17.1006   -2.0412  -12.7639 O   0  0  0  0  0  0  0  0  0  0  0  0
  1  2  1  0
  2  3  1  0
  3 13  1  0
  4  3  2  0
  6  8  1  0
  6  5  1  0
  7  6  2  0
  9 10  1  0
  9  8  1  0
 11 10  1  0
 12 11  1  1
 12 14  1  0
 13 12  1  0
 14 19  1  0
 14 15  2  0
 16 17  1  0
 18 17  1  6
 18 20  1  0
 19 18  1  0
 20 21  1  0
 22 20  2  0
M  END
$$$$
