GRS.pdb
     RDKit          3D

 22 21  0  0  1  0  0  0  0  0999 V2000
   16.4270  -12.8698  -14.0745 N   0  0  0  0  0  0  0  0  0  0  0  0
   17.3726  -12.0092  -13.4391 C   0  0  0  0  0  0  0  0  0  0  0  0
   16.9387  -10.6099  -13.3427 C   0  0  0  0  0  0  0  0  0  0  0  0
   16.2335  -10.0138  -14.1972 O   0  0  0  0  0  0  0  0  0  0  0  0
   13.6451   -5.9344   -7.7197 N   0  0  0  0  0  0  0  0  0  0  0  0
   13.3548   -7.3213   -7.6358 C   0  0  0  0  0  0  0  0  0  0  0  0
   12.1783   -7.7116   -7.3161 N   0  0  0  0  0  0  0  0  0  0  0  0
   14.3488   -8.3109   -7.9007 N   0  0  0  0  0  0  0  0  0  0  0  0
   15.6422   -7.9907   -8.4387 C   0  0  0  0  0  0  0  0  0  0  0  0
   15.7076   -8.4353   -9.8717 C   0  0  0  0  0  0  0  0  0  0  0  0
   17.0207   -8.0991  -10.5274 C   0  0  0  0  0  0  0  0  0  0  0  0
   16.9601   -8.5113  -11.9938 C   0  0  2  0  0  0  0  0  0  0  0  0
   17.3616   -9.8774  -12.1736 N   0  0  0  0  0  0  0  0  0  0  0  0
   17.8681   -7.6379  -12.7724 C   0  0  0  0  0  0  0  0  0  0  0  0
   19.0967   -7.6333  -12.5579 O   0  0  0  0  0  0  0  0  0  0  0  0
   11.9135   -8.7107   -7.2070 O   0  0  0  0  0  0  0  0  0  0  0  0
   16.6344   -5.9400  -16.4045 C   0  0  0  0  0  0  0  0  0  0  0  0
   17.9593   -6.1760  -16.0526 C   0  0  1  0  0  0  0  0  0  0  0  0
   18.1944   -5.9196  -14.5758 N   0  0  0  0  0  0  0  0  0  0  0  0
   17.3270   -6.7780  -13.7951 C   0  0  0  0  0  0  0  0  0  0  0  0
   18.0119   -4.5057  -14.2240 O   0  0  0  0  0  0  0  0  0  0  0  0
   18.8130   -3.4827  -14.7536 O   0  0  0  0  0  0  0  0  0  0  0  0
  1  2  1  0
  2  3  1  0
  3 13  1  0
  4  3  2  0
  6  8  1  0
  6  5  1  0
  7  6  2  0
  9 10  1  0
  9  8  1  0
 11 10  1  0
 12 11  1  1
 12 14  1  0
 13 12  1  0
 14 19  1  0
 14 15  2  0
 16 17  1  0
 18 17  1  1
 18 20  1  0
 19 18  1  0
 20 21  1  0
 22 20  2  0
M  END
$$$$
