GRS.pdb
     RDKit          3D

 22 21  0  0  1  0  0  0  0  0999 V2000
   29.4983  -12.6326  -16.5375 N   0  0  0  0  0  0  0  0  0  0  0  0
   28.3468  -12.5298  -15.6996 C   0  0  0  0  0  0  0  0  0  0  0  0
   27.1784  -11.9324  -16.3579 C   0  0  0  0  0  0  0  0  0  0  0  0
   27.1967  -11.3612  -17.4787 O   0  0  0  0  0  0  0  0  0  0  0  0
   18.6418  -14.6426  -16.6489 N   0  0  0  0  0  0  0  0  0  0  0  0
   18.8672  -13.4942  -17.4521 C   0  0  0  0  0  0  0  0  0  0  0  0
   17.9444  -13.0634  -18.2276 N   0  0  0  0  0  0  0  0  0  0  0  0
   20.1101  -12.7930  -17.4225 N   0  0  0  0  0  0  0  0  0  0  0  0
   21.2161  -13.2033  -16.6018 C   0  0  0  0  0  0  0  0  0  0  0  0
   22.3770  -12.2795  -16.8353 C   0  0  0  0  0  0  0  0  0  0  0  0
   23.5787  -12.6300  -15.9986 C   0  0  0  0  0  0  0  0  0  0  0  0
   24.7006  -11.6456  -16.3093 C   0  0  2  0  0  0  0  0  0  0  0  0
   25.9221  -12.0154  -15.6528 N   0  0  0  0  0  0  0  0  0  0  0  0
   24.2951  -10.2989  -15.8453 C   0  0  0  0  0  0  0  0  0  0  0  0
   24.3282   -9.9985  -14.6353 O   0  0  0  0  0  0  0  0  0  0  0  0
   18.0634  -12.2545  -18.8694 O   0  0  0  0  0  0  0  0  0  0  0  0
   23.3869   -7.2144  -18.6534 C   0  0  0  0  0  0  0  0  0  0  0  0
   23.9458   -6.9733  -17.4026 C   0  0  1  0  0  0  0  0  0  0  0  0
   23.4699   -7.9868  -16.3786 N   0  0  0  0  0  0  0  0  0  0  0  0
   23.8547   -9.3169  -16.8045 C   0  0  0  0  0  0  0  0  0  0  0  0
   22.0240   -7.8946  -16.1397 O   0  0  0  0  0  0  0  0  0  0  0  0
   21.4539   -6.9240  -15.3020 O   0  0  0  0  0  0  0  0  0  0  0  0
  1  2  1  0
  2  3  1  0
  3 13  1  0
  4  3  2  0
  6  8  1  0
  6  5  1  0
  7  6  2  0
  9 10  1  0
  9  8  1  0
 11 10  1  0
 12 11  1  1
 12 14  1  0
 13 12  1  0
 14 19  1  0
 14 15  2  0
 16 17  1  0
 18 17  1  1
 18 20  1  0
 19 18  1  0
 20 21  1  0
 22 20  2  0
M  END
$$$$
