GRS.pdb
     RDKit          3D

 22 21  0  0  1  0  0  0  0  0999 V2000
   19.2406  -11.2253  -15.7901 N   0  0  0  0  0  0  0  0  0  0  0  0
   18.6592  -11.5621  -14.5303 C   0  0  0  0  0  0  0  0  0  0  0  0
   17.6609  -10.5967  -14.0541 C   0  0  0  0  0  0  0  0  0  0  0  0
   16.6159  -10.2747  -14.6764 O   0  0  0  0  0  0  0  0  0  0  0  0
   15.9471   -5.8064   -7.9822 N   0  0  0  0  0  0  0  0  0  0  0  0
   14.6184   -6.3054   -8.0006 C   0  0  0  0  0  0  0  0  0  0  0  0
   13.6440   -5.5461   -7.6651 N   0  0  0  0  0  0  0  0  0  0  0  0
   14.3291   -7.6486   -8.3875 N   0  0  0  0  0  0  0  0  0  0  0  0
   15.3480   -8.5810   -8.7846 C   0  0  0  0  0  0  0  0  0  0  0  0
   15.7042   -8.3437  -10.2241 C   0  0  0  0  0  0  0  0  0  0  0  0
   16.7592   -9.2925  -10.7280 C   0  0  0  0  0  0  0  0  0  0  0  0
   16.9641   -9.0558  -12.2200 C   0  0  2  0  0  0  0  0  0  0  0  0
   17.9123   -9.9797  -12.7741 N   0  0  0  0  0  0  0  0  0  0  0  0
   17.4652   -7.6764  -12.4193 C   0  0  0  0  0  0  0  0  0  0  0  0
   18.5531   -7.3106  -11.9313 O   0  0  0  0  0  0  0  0  0  0  0  0
   12.6466   -5.8348   -7.7134 O   0  0  0  0  0  0  0  0  0  0  0  0
   17.3467   -3.7213  -15.1432 C   0  0  0  0  0  0  0  0  0  0  0  0
   16.9039   -5.0114  -14.8701 C   0  0  1  0  0  0  0  0  0  0  0  0
   17.1690   -5.3939  -13.4260 N   0  0  0  0  0  0  0  0  0  0  0  0
   16.6861   -6.7390  -13.1889 C   0  0  0  0  0  0  0  0  0  0  0  0
   16.5792   -4.4355  -12.4827 O   0  0  0  0  0  0  0  0  0  0  0  0
   17.2393   -3.2652  -12.0782 O   0  0  0  0  0  0  0  0  0  0  0  0
  1  2  1  0
  2  3  1  0
  3 13  1  0
  4  3  2  0
  6  8  1  0
  6  5  1  0
  7  6  2  0
  9 10  1  0
  9  8  1  0
 11 10  1  0
 12 11  1  1
 12 14  1  0
 13 12  1  0
 14 19  1  0
 14 15  2  0
 16 17  1  0
 18 17  1  6
 18 20  1  0
 19 18  1  0
 20 21  1  0
 22 20  2  0
M  END
$$$$
