GRS.pdb
     RDKit          3D

 22 21  0  0  1  0  0  0  0  0999 V2000
   23.8955  -18.5695  -17.6663 N   0  0  0  0  0  0  0  0  0  0  0  0
   23.2121  -18.1053  -16.5018 C   0  0  0  0  0  0  0  0  0  0  0  0
   22.6048  -19.1734  -15.6981 C   0  0  0  0  0  0  0  0  0  0  0  0
   22.5067  -20.3760  -16.0543 O   0  0  0  0  0  0  0  0  0  0  0  0
   18.7698  -21.4695   -9.8293 N   0  0  0  0  0  0  0  0  0  0  0  0
   19.7981  -21.9824   -8.9960 C   0  0  0  0  0  0  0  0  0  0  0  0
   19.5818  -23.0175   -8.2746 N   0  0  0  0  0  0  0  0  0  0  0  0
   21.0865  -21.3711   -8.9356 N   0  0  0  0  0  0  0  0  0  0  0  0
   21.4342  -20.2098   -9.7074 C   0  0  0  0  0  0  0  0  0  0  0  0
   21.3599  -20.5450  -11.1694 C   0  0  0  0  0  0  0  0  0  0  0  0
   21.7880  -19.4029  -12.0522 C   0  0  0  0  0  0  0  0  0  0  0  0
   21.5862  -19.8027  -13.5094 C   0  0  2  0  0  0  0  0  0  0  0  0
   22.0861  -18.7986  -14.4048 N   0  0  0  0  0  0  0  0  0  0  0  0
   20.1378  -19.9879  -13.7566 C   0  0  0  0  0  0  0  0  0  0  0  0
   19.3448  -19.0281  -13.6829 O   0  0  0  0  0  0  0  0  0  0  0  0
   20.3219  -23.5052   -7.7317 O   0  0  0  0  0  0  0  0  0  0  0  0
   16.7049  -22.9453  -15.5272 C   0  0  0  0  0  0  0  0  0  0  0  0
   18.0491  -22.6845  -15.2817 C   0  0  1  0  0  0  0  0  0  0  0  0
   18.2221  -21.5023  -14.3465 N   0  0  0  0  0  0  0  0  0  0  0  0
   19.6326  -21.2968  -14.0879 C   0  0  0  0  0  0  0  0  0  0  0  0
   17.4641  -21.6678  -13.0997 O   0  0  0  0  0  0  0  0  0  0  0  0
   16.2403  -21.0230  -12.8648 O   0  0  0  0  0  0  0  0  0  0  0  0
  1  2  1  0
  2  3  1  0
  3 13  1  0
  4  3  2  0
  6  8  1  0
  6  5  1  0
  7  6  2  0
  9 10  1  0
  9  8  1  0
 11 10  1  0
 12 11  1  1
 12 14  1  0
 13 12  1  0
 14 19  1  0
 14 15  2  0
 16 17  1  0
 18 17  1  6
 18 20  1  0
 19 18  1  0
 20 21  1  0
 22 20  2  0
M  END
$$$$
