GRS.pdb
     RDKit          3D

 22 21  0  0  1  0  0  0  0  0999 V2000
   26.4731  -25.9816  -16.7133 N   0  0  0  0  0  0  0  0  0  0  0  0
   26.8353  -24.6135  -16.5243 C   0  0  0  0  0  0  0  0  0  0  0  0
   25.9212  -23.8669  -15.6512 C   0  0  0  0  0  0  0  0  0  0  0  0
   24.7154  -24.1636  -15.4486 O   0  0  0  0  0  0  0  0  0  0  0  0
   21.8853  -21.4002  -12.0045 N   0  0  0  0  0  0  0  0  0  0  0  0
   22.3524  -20.6444  -10.8976 C   0  0  0  0  0  0  0  0  0  0  0  0
   21.5193  -20.0364  -10.1395 N   0  0  0  0  0  0  0  0  0  0  0  0
   23.7439  -20.5387  -10.5978 N   0  0  0  0  0  0  0  0  0  0  0  0
   24.7493  -21.2967  -11.2905 C   0  0  0  0  0  0  0  0  0  0  0  0
   25.5240  -20.3828  -12.1959 C   0  0  0  0  0  0  0  0  0  0  0  0
   26.4560  -21.1258  -13.1159 C   0  0  0  0  0  0  0  0  0  0  0  0
   25.6289  -21.9166  -14.1231 C   0  0  2  0  0  0  0  0  0  0  0  0
   26.4622  -22.7082  -14.9826 N   0  0  0  0  0  0  0  0  0  0  0  0
   24.8506  -20.9668  -14.9512 C   0  0  0  0  0  0  0  0  0  0  0  0
   25.3954  -19.9757  -15.4767 O   0  0  0  0  0  0  0  0  0  0  0  0
   21.8010  -19.4510   -9.3280 O   0  0  0  0  0  0  0  0  0  0  0  0
   20.6135  -21.3810  -15.3765 C   0  0  0  0  0  0  0  0  0  0  0  0
   21.4088  -21.0228  -16.4600 C   0  0  1  0  0  0  0  0  0  0  0  0
   22.6695  -20.3085  -16.0097 N   0  0  0  0  0  0  0  0  0  0  0  0
   23.4408  -21.1881  -15.1553 C   0  0  0  0  0  0  0  0  0  0  0  0
   22.3749  -19.0330  -15.3445 O   0  0  0  0  0  0  0  0  0  0  0  0
   22.3787  -18.8867  -13.9490 O   0  0  0  0  0  0  0  0  0  0  0  0
  1  2  1  0
  2  3  1  0
  3 13  1  0
  4  3  2  0
  6  8  1  0
  6  5  1  0
  7  6  2  0
  9 10  1  0
  9  8  1  0
 11 10  1  0
 12 11  1  1
 12 14  1  0
 13 12  1  0
 14 19  1  0
 14 15  2  0
 16 17  1  0
 18 17  1  6
 18 20  1  0
 19 18  1  0
 20 21  1  0
 22 20  2  0
M  END
$$$$
