GRS.pdb
     RDKit          3D

 22 21  0  0  1  0  0  0  0  0999 V2000
   27.7533  -21.4409  -10.2274 N   0  0  0  0  0  0  0  0  0  0  0  0
   26.4283  -21.0008  -10.5262 C   0  0  0  0  0  0  0  0  0  0  0  0
   26.0825  -21.0665  -11.9516 C   0  0  0  0  0  0  0  0  0  0  0  0
   26.9105  -21.0110  -12.8971 O   0  0  0  0  0  0  0  0  0  0  0  0
   19.6272  -24.5051  -11.8615 N   0  0  0  0  0  0  0  0  0  0  0  0
   19.4985  -23.2098  -12.4276 C   0  0  0  0  0  0  0  0  0  0  0  0
   18.5499  -22.4372  -12.0511 N   0  0  0  0  0  0  0  0  0  0  0  0
   20.4078  -22.7332  -13.4194 N   0  0  0  0  0  0  0  0  0  0  0  0
   21.3227  -23.5955  -14.1154 C   0  0  0  0  0  0  0  0  0  0  0  0
   22.7244  -23.0930  -13.9202 C   0  0  0  0  0  0  0  0  0  0  0  0
   22.7929  -21.5955  -13.7796 C   0  0  0  0  0  0  0  0  0  0  0  0
   24.2530  -21.1787  -13.6441 C   0  0  2  0  0  0  0  0  0  0  0  0
   24.6830  -21.2051  -12.2750 N   0  0  0  0  0  0  0  0  0  0  0  0
   24.4064  -19.8022  -14.1687 C   0  0  0  0  0  0  0  0  0  0  0  0
   23.9828  -18.8191  -13.5288 O   0  0  0  0  0  0  0  0  0  0  0  0
   18.3842  -21.4924  -12.4514 O   0  0  0  0  0  0  0  0  0  0  0  0
   27.3584  -18.8898  -16.7875 C   0  0  0  0  0  0  0  0  0  0  0  0
   26.6473  -17.8996  -16.1177 C   0  0  1  0  0  0  0  0  0  0  0  0
   25.1784  -18.2594  -15.9949 N   0  0  0  0  0  0  0  0  0  0  0  0
   25.0550  -19.5914  -15.4388 C   0  0  0  0  0  0  0  0  0  0  0  0
   24.4714  -18.1429  -17.2766 O   0  0  0  0  0  0  0  0  0  0  0  0
   24.3918  -16.9386  -17.9923 O   0  0  0  0  0  0  0  0  0  0  0  0
  1  2  1  0
  2  3  1  0
  3 13  1  0
  4  3  2  0
  6  8  1  0
  6  5  1  0
  7  6  2  0
  9 10  1  0
  9  8  1  0
 11 10  1  0
 12 11  1  1
 12 14  1  0
 13 12  1  0
 14 19  1  0
 14 15  2  0
 16 17  1  0
 18 17  1  1
 18 20  1  0
 19 18  1  0
 20 21  1  0
 22 20  2  0
M  END
$$$$
