GRS.pdb
     RDKit          3D

 22 21  0  0  1  0  0  0  0  0999 V2000
   21.0790  -21.8146  -13.4838 N   0  0  0  0  0  0  0  0  0  0  0  0
   21.7442  -21.3630  -14.6637 C   0  0  0  0  0  0  0  0  0  0  0  0
   22.8675  -20.4532  -14.4069 C   0  0  0  0  0  0  0  0  0  0  0  0
   22.7600  -19.2177  -14.1947 O   0  0  0  0  0  0  0  0  0  0  0  0
   23.4209  -20.6146   -9.9530 N   0  0  0  0  0  0  0  0  0  0  0  0
   24.6758  -20.7029   -9.2955 C   0  0  0  0  0  0  0  0  0  0  0  0
   24.7245  -20.8847   -8.0294 N   0  0  0  0  0  0  0  0  0  0  0  0
   25.9052  -20.5937  -10.0125 N   0  0  0  0  0  0  0  0  0  0  0  0
   25.9681  -20.2108  -11.3961 C   0  0  0  0  0  0  0  0  0  0  0  0
   26.3861  -21.3947  -12.2203 C   0  0  0  0  0  0  0  0  0  0  0  0
   26.5269  -21.0666  -13.6830 C   0  0  0  0  0  0  0  0  0  0  0  0
   25.3345  -20.2214  -14.1164 C   0  0  2  0  0  0  0  0  0  0  0  0
   24.1876  -21.0359  -14.4010 N   0  0  0  0  0  0  0  0  0  0  0  0
   25.7028  -19.4680  -15.3371 C   0  0  0  0  0  0  0  0  0  0  0  0
   25.7761  -20.0352  -16.4454 O   0  0  0  0  0  0  0  0  0  0  0  0
   25.6112  -20.9822   -7.4958 O   0  0  0  0  0  0  0  0  0  0  0  0
   26.9782  -15.5454  -14.9703 C   0  0  0  0  0  0  0  0  0  0  0  0
   26.1629  -15.7879  -16.0709 C   0  0  1  0  0  0  0  0  0  0  0  0
   26.1578  -17.2588  -16.4432 N   0  0  0  0  0  0  0  0  0  0  0  0
   25.9818  -18.0565  -15.2469 C   0  0  0  0  0  0  0  0  0  0  0  0
   27.3688  -17.6477  -17.1770 O   0  0  0  0  0  0  0  0  0  0  0  0
   27.6573  -17.1786  -18.4675 O   0  0  0  0  0  0  0  0  0  0  0  0
  1  2  1  0
  2  3  1  0
  3 13  1  0
  4  3  2  0
  6  8  1  0
  6  5  1  0
  7  6  2  0
  9 10  1  0
  9  8  1  0
 11 10  1  0
 12 11  1  6
 12 14  1  0
 13 12  1  0
 14 19  1  0
 14 15  2  0
 16 17  1  0
 18 17  1  6
 18 20  1  0
 19 18  1  0
 20 21  1  0
 22 20  2  0
M  END
$$$$
