GRS.pdb
     RDKit          3D

 22 21  0  0  1  0  0  0  0  0999 V2000
   15.0839   -6.4626   -7.3601 N   0  0  0  0  0  0  0  0  0  0  0  0
   15.4338   -5.8379   -8.5954 C   0  0  0  0  0  0  0  0  0  0  0  0
   16.2425   -6.6806   -9.4849 C   0  0  0  0  0  0  0  0  0  0  0  0
   17.0695   -7.5475   -9.1008 O   0  0  0  0  0  0  0  0  0  0  0  0
   16.1804  -11.9283  -11.6879 N   0  0  0  0  0  0  0  0  0  0  0  0
   14.8386  -11.9166  -12.1507 C   0  0  0  0  0  0  0  0  0  0  0  0
   14.0264  -12.8358  -11.7847 N   0  0  0  0  0  0  0  0  0  0  0  0
   14.3580  -10.8963  -13.0255 N   0  0  0  0  0  0  0  0  0  0  0  0
   14.4870   -9.4953  -12.7326 C   0  0  0  0  0  0  0  0  0  0  0  0
   15.7238   -8.9614  -13.3965 C   0  0  0  0  0  0  0  0  0  0  0  0
   15.9423   -7.4956  -13.1301 C   0  0  0  0  0  0  0  0  0  0  0  0
   16.7379   -7.3417  -11.8389 C   0  0  2  0  0  0  0  0  0  0  0  0
   16.0633   -6.4874  -10.9036 N   0  0  0  0  0  0  0  0  0  0  0  0
   18.0586   -6.7534  -12.1601 C   0  0  0  0  0  0  0  0  0  0  0  0
   18.2571   -5.5261  -12.0615 O   0  0  0  0  0  0  0  0  0  0  0  0
   13.0211  -12.8535  -12.0480 O   0  0  0  0  0  0  0  0  0  0  0  0
   22.5993   -7.6844  -13.7546 C   0  0  0  0  0  0  0  0  0  0  0  0
   21.3252   -8.1601  -13.4626 C   0  0  2  0  0  0  0  0  0  0  0  0
   20.4327   -7.0582  -12.9228 N   0  0  0  0  0  0  0  0  0  0  0  0
   19.1341   -7.6097  -12.5939 C   0  0  0  0  0  0  0  0  0  0  0  0
   20.3186   -5.9313  -13.8573 O   0  0  0  0  0  0  0  0  0  0  0  0
   21.0454   -4.7411  -13.7026 O   0  0  0  0  0  0  0  0  0  0  0  0
  1  2  1  0
  2  3  1  0
  3 13  1  0
  4  3  2  0
  6  8  1  0
  6  5  1  0
  7  6  2  0
  9 10  1  0
  9  8  1  0
 11 10  1  0
 12 11  1  6
 12 14  1  0
 13 12  1  0
 14 19  1  0
 14 15  2  0
 16 17  1  0
 18 17  1  1
 18 20  1  0
 19 18  1  0
 20 21  1  0
 22 20  2  0
M  END
$$$$
