GRS.pdb
     RDKit          3D

 22 21  0  0  1  0  0  0  0  0999 V2000
   17.3815  -13.7178  -12.8293 N   0  0  0  0  0  0  0  0  0  0  0  0
   17.3055  -12.6609  -11.8724 C   0  0  0  0  0  0  0  0  0  0  0  0
   16.7713  -11.4034  -12.4100 C   0  0  0  0  0  0  0  0  0  0  0  0
   16.4196  -11.2223  -13.6043 O   0  0  0  0  0  0  0  0  0  0  0  0
   11.6169   -7.4282   -6.9770 N   0  0  0  0  0  0  0  0  0  0  0  0
   11.3964   -8.6416   -7.6797 C   0  0  0  0  0  0  0  0  0  0  0  0
   10.3800   -9.3681   -7.4007 N   0  0  0  0  0  0  0  0  0  0  0  0
   12.2859   -9.0849   -8.7042 N   0  0  0  0  0  0  0  0  0  0  0  0
   13.4688   -8.3586   -9.0761 C   0  0  0  0  0  0  0  0  0  0  0  0
   14.1321   -9.0491  -10.2331 C   0  0  0  0  0  0  0  0  0  0  0  0
   15.3958   -8.3610  -10.6765 C   0  0  0  0  0  0  0  0  0  0  0  0
   15.9653   -9.1026  -11.8806 C   0  0  2  0  0  0  0  0  0  0  0  0
   16.6467  -10.3024  -11.4857 N   0  0  0  0  0  0  0  0  0  0  0  0
   16.9232   -8.2141  -12.5781 C   0  0  0  0  0  0  0  0  0  0  0  0
   18.0180   -7.9160  -12.0605 O   0  0  0  0  0  0  0  0  0  0  0  0
   10.1664  -10.2662   -7.8783 O   0  0  0  0  0  0  0  0  0  0  0  0
   17.4972   -8.2874  -16.4941 C   0  0  0  0  0  0  0  0  0  0  0  0
   17.2947   -6.9750  -16.0800 C   0  0  2  0  0  0  0  0  0  0  0  0
   17.5145   -6.8253  -14.5862 N   0  0  0  0  0  0  0  0  0  0  0  0
   16.5885   -7.6836  -13.8760 C   0  0  0  0  0  0  0  0  0  0  0  0
   17.3997   -5.4287  -14.1475 O   0  0  0  0  0  0  0  0  0  0  0  0
   18.3709   -4.4593  -14.4403 O   0  0  0  0  0  0  0  0  0  0  0  0
  1  2  1  0
  2  3  1  0
  3 13  1  0
  4  3  2  0
  6  8  1  0
  6  5  1  0
  7  6  2  0
  9 10  1  0
  9  8  1  0
 11 10  1  0
 12 11  1  1
 12 14  1  0
 13 12  1  0
 14 19  1  0
 14 15  2  0
 16 17  1  0
 18 17  1  6
 18 20  1  0
 19 18  1  0
 20 21  1  0
 22 20  2  0
M  END
$$$$
