GRS.pdb
     RDKit          3D

 22 21  0  0  1  0  0  0  0  0999 V2000
   28.5696  -22.3685  -17.0266 N   0  0  0  0  0  0  0  0  0  0  0  0
   28.1195  -21.3380  -16.1468 C   0  0  0  0  0  0  0  0  0  0  0  0
   26.9927  -21.7304  -15.2914 C   0  0  0  0  0  0  0  0  0  0  0  0
   26.2789  -22.7520  -15.4640 O   0  0  0  0  0  0  0  0  0  0  0  0
   22.0474  -19.8822   -9.3610 N   0  0  0  0  0  0  0  0  0  0  0  0
   22.6802  -20.8443   -8.5311 C   0  0  0  0  0  0  0  0  0  0  0  0
   22.0046  -21.4631   -7.6372 N   0  0  0  0  0  0  0  0  0  0  0  0
   24.0684  -21.1489   -8.6635 N   0  0  0  0  0  0  0  0  0  0  0  0
   24.9344  -20.4540   -9.5759 C   0  0  0  0  0  0  0  0  0  0  0  0
   24.8448  -21.0952  -10.9310 C   0  0  0  0  0  0  0  0  0  0  0  0
   25.8033  -20.4948  -11.9249 C   0  0  0  0  0  0  0  0  0  0  0  0
   25.6387  -21.2079  -13.2623 C   0  0  2  0  0  0  0  0  0  0  0  0
   26.6948  -20.8687  -14.1731 N   0  0  0  0  0  0  0  0  0  0  0  0
   24.3435  -20.8084  -13.8591 C   0  0  0  0  0  0  0  0  0  0  0  0
   24.0972  -19.6143  -14.1215 O   0  0  0  0  0  0  0  0  0  0  0  0
   22.4127  -22.1716   -6.9954 O   0  0  0  0  0  0  0  0  0  0  0  0
   20.0108  -22.3971  -15.5123 C   0  0  0  0  0  0  0  0  0  0  0  0
   21.2656  -22.7022  -14.9953 C   0  0  1  0  0  0  0  0  0  0  0  0
   22.0662  -21.4460  -14.7069 N   0  0  0  0  0  0  0  0  0  0  0  0
   23.3491  -21.8129  -14.1428 C   0  0  0  0  0  0  0  0  0  0  0  0
   21.3398  -20.5155  -13.8336 O   0  0  0  0  0  0  0  0  0  0  0  0
   20.5907  -19.4377  -14.3296 O   0  0  0  0  0  0  0  0  0  0  0  0
  1  2  1  0
  2  3  1  0
  3 13  1  0
  4  3  2  0
  6  8  1  0
  6  5  1  0
  7  6  2  0
  9 10  1  0
  9  8  1  0
 11 10  1  0
 12 11  1  1
 12 14  1  0
 13 12  1  0
 14 19  1  0
 14 15  2  0
 16 17  1  0
 18 17  1  6
 18 20  1  0
 19 18  1  0
 20 21  1  0
 22 20  2  0
M  END
$$$$
