GRS.pdb
     RDKit          3D

 22 21  0  0  1  0  0  0  0  0999 V2000
   25.9968  -17.5576  -17.8993 N   0  0  0  0  0  0  0  0  0  0  0  0
   25.6045  -18.1309  -16.6519 C   0  0  0  0  0  0  0  0  0  0  0  0
   24.1663  -18.4063  -16.5452 C   0  0  0  0  0  0  0  0  0  0  0  0
   23.3289  -18.2315  -17.4677 O   0  0  0  0  0  0  0  0  0  0  0  0
   18.4690  -20.9637  -11.1645 N   0  0  0  0  0  0  0  0  0  0  0  0
   18.1169  -21.8405  -12.2237 C   0  0  0  0  0  0  0  0  0  0  0  0
   16.8978  -22.1971  -12.3821 N   0  0  0  0  0  0  0  0  0  0  0  0
   19.0946  -22.3458  -13.1327 N   0  0  0  0  0  0  0  0  0  0  0  0
   20.4789  -21.9638  -13.0787 C   0  0  0  0  0  0  0  0  0  0  0  0
   20.7331  -20.8757  -14.0821 C   0  0  0  0  0  0  0  0  0  0  0  0
   22.1721  -20.4334  -14.1109 C   0  0  0  0  0  0  0  0  0  0  0  0
   22.3220  -19.3068  -15.1269 C   0  0  2  0  0  0  0  0  0  0  0  0
   23.6942  -18.9153  -15.2802 N   0  0  0  0  0  0  0  0  0  0  0  0
   21.5388  -18.1387  -14.6624 C   0  0  0  0  0  0  0  0  0  0  0  0
   21.7788  -17.5992  -13.5639 O   0  0  0  0  0  0  0  0  0  0  0  0
   16.5855  -22.8722  -13.1082 O   0  0  0  0  0  0  0  0  0  0  0  0
   18.8175  -14.3835  -15.8803 C   0  0  0  0  0  0  0  0  0  0  0  0
   19.5051  -15.5344  -16.2513 C   0  0  2  0  0  0  0  0  0  0  0  0
   19.7137  -16.4607  -15.0679 N   0  0  0  0  0  0  0  0  0  0  0  0
   20.4816  -17.6142  -15.4902 C   0  0  0  0  0  0  0  0  0  0  0  0
   18.4443  -16.8570  -14.4452 O   0  0  0  0  0  0  0  0  0  0  0  0
   17.9170  -16.2081  -13.3183 O   0  0  0  0  0  0  0  0  0  0  0  0
  1  2  1  0
  2  3  1  0
  3 13  1  0
  4  3  2  0
  6  8  1  0
  6  5  1  0
  7  6  2  0
  9 10  1  0
  9  8  1  0
 11 10  1  0
 12 11  1  1
 12 14  1  0
 13 12  1  0
 14 19  1  0
 14 15  2  0
 16 17  1  0
 18 17  1  1
 18 20  1  0
 19 18  1  0
 20 21  1  0
 22 20  2  0
M  END
$$$$
