GRS.pdb
     RDKit          3D

 22 21  0  0  1  0  0  0  0  0999 V2000
   19.2980  -19.5366  -16.1111 N   0  0  0  0  0  0  0  0  0  0  0  0
   20.3173  -20.5343  -16.0477 C   0  0  0  0  0  0  0  0  0  0  0  0
   21.6778  -19.9944  -15.9338 C   0  0  0  0  0  0  0  0  0  0  0  0
   21.9919  -18.7893  -16.1122 O   0  0  0  0  0  0  0  0  0  0  0  0
   26.9489  -20.1778  -10.6964 N   0  0  0  0  0  0  0  0  0  0  0  0
   25.7786  -20.8398  -10.2414 C   0  0  0  0  0  0  0  0  0  0  0  0
   25.2492  -20.5095   -9.1237 N   0  0  0  0  0  0  0  0  0  0  0  0
   25.1632  -21.8788  -11.0023 N   0  0  0  0  0  0  0  0  0  0  0  0
   25.4938  -22.1376  -12.3767 C   0  0  0  0  0  0  0  0  0  0  0  0
   24.6536  -21.2630  -13.2624 C   0  0  0  0  0  0  0  0  0  0  0  0
   24.9485  -21.4601  -14.7258 C   0  0  0  0  0  0  0  0  0  0  0  0
   24.0889  -20.4970  -15.5367 C   0  0  2  0  0  0  0  0  0  0  0  0
   22.7216  -20.9298  -15.5908 N   0  0  0  0  0  0  0  0  0  0  0  0
   24.6245  -20.4256  -16.9156 C   0  0  0  0  0  0  0  0  0  0  0  0
   24.4671  -21.3687  -17.7164 O   0  0  0  0  0  0  0  0  0  0  0  0
   24.3468  -20.8933   -8.7789 O   0  0  0  0  0  0  0  0  0  0  0  0
   24.3395  -18.1355  -20.3230 C   0  0  0  0  0  0  0  0  0  0  0  0
   25.2610  -17.8546  -19.3196 C   0  0  2  0  0  0  0  0  0  0  0  0
   25.8160  -19.1262  -18.7054 N   0  0  0  0  0  0  0  0  0  0  0  0
   25.3397  -19.2491  -17.3428 C   0  0  0  0  0  0  0  0  0  0  0  0
   27.2820  -19.1779  -18.7705 O   0  0  0  0  0  0  0  0  0  0  0  0
   27.9735  -19.7627  -19.8422 O   0  0  0  0  0  0  0  0  0  0  0  0
  1  2  1  0
  2  3  1  0
  3 13  1  0
  4  3  2  0
  6  8  1  0
  6  5  1  0
  7  6  2  0
  9 10  1  0
  9  8  1  0
 11 10  1  0
 12 11  1  1
 12 14  1  0
 13 12  1  0
 14 19  1  0
 14 15  2  0
 16 17  1  0
 18 17  1  6
 18 20  1  0
 19 18  1  0
 20 21  1  0
 22 20  2  0
M  END
$$$$
