GRS.pdb
     RDKit          3D

 22 21  0  0  1  0  0  0  0  0999 V2000
   25.9904  -23.0616  -15.4653 N   0  0  0  0  0  0  0  0  0  0  0  0
   25.6142  -22.0128  -14.5726 C   0  0  0  0  0  0  0  0  0  0  0  0
   24.2044  -22.0503  -14.1645 C   0  0  0  0  0  0  0  0  0  0  0  0
   23.3340  -22.8179  -14.6503 O   0  0  0  0  0  0  0  0  0  0  0  0
   21.0707  -22.6161   -7.2054 N   0  0  0  0  0  0  0  0  0  0  0  0
   20.5130  -21.4752   -7.8396 C   0  0  0  0  0  0  0  0  0  0  0  0
   19.2591  -21.2369   -7.7424 N   0  0  0  0  0  0  0  0  0  0  0  0
   21.3185  -20.5705   -8.5945 N   0  0  0  0  0  0  0  0  0  0  0  0
   22.6874  -20.8451   -8.9351 C   0  0  0  0  0  0  0  0  0  0  0  0
   22.7513  -21.3903  -10.3329 C   0  0  0  0  0  0  0  0  0  0  0  0
   22.2669  -20.4071  -11.3653 C   0  0  0  0  0  0  0  0  0  0  0  0
   22.4229  -21.0272  -12.7492 C   0  0  2  0  0  0  0  0  0  0  0  0
   23.8036  -21.1312  -13.1268 N   0  0  0  0  0  0  0  0  0  0  0  0
   21.7185  -20.1757  -13.7351 C   0  0  0  0  0  0  0  0  0  0  0  0
   22.2090  -19.0948  -14.1182 O   0  0  0  0  0  0  0  0  0  0  0  0
   18.7951  -20.4125   -8.1732 O   0  0  0  0  0  0  0  0  0  0  0  0
   18.1646  -21.5948  -15.5743 C   0  0  0  0  0  0  0  0  0  0  0  0
   19.0819  -20.7988  -16.2526 C   0  0  1  0  0  0  0  0  0  0  0  0
   19.7897  -19.8433  -15.3101 N   0  0  0  0  0  0  0  0  0  0  0  0
   20.4456  -20.5994  -14.2628 C   0  0  0  0  0  0  0  0  0  0  0  0
   18.8769  -18.8353  -14.7561 O   0  0  0  0  0  0  0  0  0  0  0  0
   18.2538  -17.8592  -15.5484 O   0  0  0  0  0  0  0  0  0  0  0  0
  1  2  1  0
  2  3  1  0
  3 13  1  0
  4  3  2  0
  6  8  1  0
  6  5  1  0
  7  6  2  0
  9 10  1  0
  9  8  1  0
 11 10  1  0
 12 11  1  1
 12 14  1  0
 13 12  1  0
 14 19  1  0
 14 15  2  0
 16 17  1  0
 18 17  1  6
 18 20  1  0
 19 18  1  0
 20 21  1  0
 22 20  2  0
M  END
$$$$
