GRS.pdb
     RDKit          3D

 22 21  0  0  1  0  0  0  0  0999 V2000
   26.4429  -24.9521  -16.5623 N   0  0  0  0  0  0  0  0  0  0  0  0
   25.8714  -23.9932  -15.6722 C   0  0  0  0  0  0  0  0  0  0  0  0
   24.4354  -23.7667  -15.8774 C   0  0  0  0  0  0  0  0  0  0  0  0
   23.7470  -24.2893  -16.7917 O   0  0  0  0  0  0  0  0  0  0  0  0
   17.5691  -23.7283  -10.5264 N   0  0  0  0  0  0  0  0  0  0  0  0
   18.6530  -24.4672  -11.0686 C   0  0  0  0  0  0  0  0  0  0  0  0
   19.0297  -25.5555  -10.5101 N   0  0  0  0  0  0  0  0  0  0  0  0
   19.3477  -24.0283  -12.2358 N   0  0  0  0  0  0  0  0  0  0  0  0
   19.4170  -22.6474  -12.6274 C   0  0  0  0  0  0  0  0  0  0  0  0
   20.1945  -22.5329  -13.9072 C   0  0  0  0  0  0  0  0  0  0  0  0
   21.6663  -22.7897  -13.7205 C   0  0  0  0  0  0  0  0  0  0  0  0
   22.3697  -22.6290  -15.0634 C   0  0  2  0  0  0  0  0  0  0  0  0
   23.7793  -22.8748  -14.9520 N   0  0  0  0  0  0  0  0  0  0  0  0
   22.1609  -21.2452  -15.5483 C   0  0  0  0  0  0  0  0  0  0  0  0
   22.5104  -20.2638  -14.8626 O   0  0  0  0  0  0  0  0  0  0  0  0
   19.7686  -26.1754  -10.8978 O   0  0  0  0  0  0  0  0  0  0  0  0
   20.5529  -18.4884  -19.2586 C   0  0  0  0  0  0  0  0  0  0  0  0
   20.6347  -19.7497  -18.6777 C   0  0  2  0  0  0  0  0  0  0  0  0
   21.2532  -19.6831  -17.2938 N   0  0  0  0  0  0  0  0  0  0  0  0
   21.5442  -21.0252  -16.8326 C   0  0  0  0  0  0  0  0  0  0  0  0
   20.4016  -18.9588  -16.3417 O   0  0  0  0  0  0  0  0  0  0  0  0
   20.5711  -17.5952  -16.0575 O   0  0  0  0  0  0  0  0  0  0  0  0
  1  2  1  0
  2  3  1  0
  3 13  1  0
  4  3  2  0
  6  8  1  0
  6  5  1  0
  7  6  2  0
  9 10  1  0
  9  8  1  0
 11 10  1  0
 12 11  1  1
 12 14  1  0
 13 12  1  0
 14 19  1  0
 14 15  2  0
 16 17  1  0
 18 17  1  6
 18 20  1  0
 19 18  1  0
 20 21  1  0
 22 20  2  0
M  END
$$$$
