GRS.pdb
     RDKit          3D

 22 21  0  0  1  0  0  0  0  0999 V2000
   26.2783  -11.9366  -16.0050 N   0  0  0  0  0  0  0  0  0  0  0  0
   24.9331  -11.9054  -15.5274 C   0  0  0  0  0  0  0  0  0  0  0  0
   24.1635  -10.7402  -15.9806 C   0  0  0  0  0  0  0  0  0  0  0  0
   24.3627  -10.1194  -17.0566 O   0  0  0  0  0  0  0  0  0  0  0  0
   16.1631  -12.4072  -15.7349 N   0  0  0  0  0  0  0  0  0  0  0  0
   17.0343  -12.5764  -16.8427 C   0  0  0  0  0  0  0  0  0  0  0  0
   16.6846  -13.3183  -17.8255 N   0  0  0  0  0  0  0  0  0  0  0  0
   18.3086  -11.9356  -16.8969 N   0  0  0  0  0  0  0  0  0  0  0  0
   18.8030  -11.0954  -15.8411 C   0  0  0  0  0  0  0  0  0  0  0  0
   20.1875  -10.6271  -16.1866 C   0  0  0  0  0  0  0  0  0  0  0  0
   20.7401   -9.6500  -15.1831 C   0  0  0  0  0  0  0  0  0  0  0  0
   22.1702   -9.2958  -15.5748 C   0  0  2  0  0  0  0  0  0  0  0  0
   23.1023  -10.2856  -15.1149 N   0  0  0  0  0  0  0  0  0  0  0  0
   22.5203   -7.9897  -14.9707 C   0  0  0  0  0  0  0  0  0  0  0  0
   22.7810   -7.8926  -13.7550 O   0  0  0  0  0  0  0  0  0  0  0  0
   17.2523  -13.4357  -18.6882 O   0  0  0  0  0  0  0  0  0  0  0  0
   23.2359   -3.2173  -15.8189 C   0  0  0  0  0  0  0  0  0  0  0  0
   22.9496   -4.4800  -16.3272 C   0  0  2  0  0  0  0  0  0  0  0  0
   22.8270   -5.5087  -15.2187 N   0  0  0  0  0  0  0  0  0  0  0  0
   22.5612   -6.8097  -15.7978 C   0  0  0  0  0  0  0  0  0  0  0  0
   21.8046   -5.1391  -14.2317 O   0  0  0  0  0  0  0  0  0  0  0  0
   20.4409   -5.4157  -14.4123 O   0  0  0  0  0  0  0  0  0  0  0  0
  1  2  1  0
  2  3  1  0
  3 13  1  0
  4  3  2  0
  6  8  1  0
  6  5  1  0
  7  6  2  0
  9 10  1  0
  9  8  1  0
 11 10  1  0
 12 11  1  1
 12 14  1  0
 13 12  1  0
 14 19  1  0
 14 15  2  0
 16 17  1  0
 18 17  1  6
 18 20  1  0
 19 18  1  0
 20 21  1  0
 22 20  2  0
M  END
$$$$
