SGW.pdb
     RDKit          3D

 25 26  0  0  1  0  0  0  0  0999 V2000
    7.2740  -19.4222   24.1385 O   0  0  0  0  0  0  0  0  0  0  0  0
    6.3252  -19.4911   23.1450 C   0  0  0  0  0  0  0  0  0  0  0  0
    6.9624  -19.0017   21.8603 C   0  0  2  0  0  0  0  0  0  0  0  0
    8.0766  -19.8292   21.4755 N   0  0  0  0  0  0  0  0  0  0  0  0
    7.3792  -17.5883   21.9835 C   0  0  0  0  0  0  0  0  0  0  0  0
    6.5024  -16.6810   22.1454 O   0  0  0  0  0  0  0  0  0  0  0  0
    8.7571  -17.2554   21.9196 N   0  0  0  0  0  0  0  0  0  0  0  0
    9.2493  -15.9077   22.0223 C   0  0  0  0  0  0  0  0  0  0  0  0
    9.7673  -15.6456   23.3713 C   0  0  0  0  0  0  0  0  0  0  0  0
   10.5567  -14.6518   23.5866 O   0  0  0  0  0  0  0  0  0  0  0  0
    9.4155  -16.4621   24.4648 N   0  0  0  0  0  0  0  0  0  0  0  0
   10.1710  -16.3086   25.7248 C   0  0  1  0  0  0  0  0  0  0  0  0
    9.1832  -16.1460   26.8793 C   0  0  0  0  0  0  0  0  0  0  0  0
    7.9412  -15.5387   26.3490 C   0  0  0  0  0  0  0  0  0  0  0  0
    6.8771  -16.1536   25.6949 C   0  0  0  0  0  0  0  0  0  0  0  0
    5.9427  -15.2434   25.3735 N   0  0  0  0  0  0  0  0  0  0  0  0
    6.3626  -14.0342   25.8003 C   0  0  0  0  0  0  0  0  0  0  0  0
    5.8125  -12.7713   25.7392 C   0  0  0  0  0  0  0  0  0  0  0  0
    6.4602  -11.6738   26.2647 C   0  0  0  0  0  0  0  0  0  0  0  0
    7.6891  -11.8527   26.8644 C   0  0  0  0  0  0  0  0  0  0  0  0
    8.2507  -13.0926   26.9353 C   0  0  0  0  0  0  0  0  0  0  0  0
    7.5921  -14.1950   26.4038 C   0  0  0  0  0  0  0  0  0  0  0  0
   10.9084  -17.5644   25.9655 C   0  0  0  0  0  0  0  0  0  0  0  0
   10.7450  -18.5755   25.2477 O   0  0  0  0  0  0  0  0  0  0  0  0
   11.8127  -17.6588   27.0048 O   0  0  0  0  0  0  0  0  0  0  0  0
  2  1  1  0
  3  2  1  0
  3  4  1  1
  5  3  1  0
  5  6  2  0
  7  5  1  0
  8  7  1  0
  8  9  1  0
  9 11  1  0
  9 10  2  0
 11 12  1  0
 12 13  1  1
 13 14  1  0
 14 15  2  0
 14 22  1  0
 15 16  1  0
 16 17  1  0
 17 18  2  0
 19 18  1  0
 20 19  2  0
 21 22  2  0
 21 20  1  0
 22 17  1  0
 23 25  1  0
 23 12  1  0
 24 23  2  0
M  END
$$$$
