SGW.pdb
     RDKit          3D

 25 26  0  0  1  0  0  0  0  0999 V2000
    5.8185  -21.4737   20.9436 O   0  0  0  0  0  0  0  0  0  0  0  0
    6.0834  -20.2050   20.4831 C   0  0  0  0  0  0  0  0  0  0  0  0
    6.9150  -19.4949   21.5319 C   0  0  2  0  0  0  0  0  0  0  0  0
    6.1210  -19.1309   22.6771 N   0  0  0  0  0  0  0  0  0  0  0  0
    7.5824  -18.3058   20.9596 C   0  0  0  0  0  0  0  0  0  0  0  0
    7.5239  -18.0876   19.7077 O   0  0  0  0  0  0  0  0  0  0  0  0
    8.2842  -17.4163   21.8139 N   0  0  0  0  0  0  0  0  0  0  0  0
    8.9577  -16.2358   21.3428 C   0  0  0  0  0  0  0  0  0  0  0  0
    9.5276  -15.4803   22.4660 C   0  0  0  0  0  0  0  0  0  0  0  0
   10.3370  -14.5024   22.2521 O   0  0  0  0  0  0  0  0  0  0  0  0
    9.2053  -15.7944   23.8015 N   0  0  0  0  0  0  0  0  0  0  0  0
   10.2717  -15.7020   24.8194 C   0  0  1  0  0  0  0  0  0  0  0  0
    9.6302  -15.5599   26.1990 C   0  0  0  0  0  0  0  0  0  0  0  0
    8.2316  -15.1078   26.0193 C   0  0  0  0  0  0  0  0  0  0  0  0
    7.0934  -15.8669   25.7615 C   0  0  0  0  0  0  0  0  0  0  0  0
    6.0166  -15.0693   25.6656 N   0  0  0  0  0  0  0  0  0  0  0  0
    6.4143  -13.7937   25.8543 C   0  0  0  0  0  0  0  0  0  0  0  0
    5.7421  -12.5899   25.8646 C   0  0  0  0  0  0  0  0  0  0  0  0
    6.3967  -11.3976   26.0878 C   0  0  0  0  0  0  0  0  0  0  0  0
    7.7584  -11.4187   26.3049 C   0  0  0  0  0  0  0  0  0  0  0  0
    8.4421  -12.5978   26.2989 C   0  0  0  0  0  0  0  0  0  0  0  0
    7.7758  -13.7965   26.0736 C   0  0  0  0  0  0  0  0  0  0  0  0
   11.0087  -16.9808   24.8192 C   0  0  0  0  0  0  0  0  0  0  0  0
   10.6299  -17.9626   24.1433 O   0  0  0  0  0  0  0  0  0  0  0  0
   12.1539  -17.1306   25.5760 O   0  0  0  0  0  0  0  0  0  0  0  0
  2  1  1  0
  3  2  1  0
  3  4  1  1
  5  3  1  0
  5  6  2  0
  7  5  1  0
  8  7  1  0
  8  9  1  0
  9 11  1  0
  9 10  2  0
 11 12  1  0
 12 13  1  1
 13 14  1  0
 14 15  2  0
 14 22  1  0
 15 16  1  0
 16 17  1  0
 17 18  2  0
 19 18  1  0
 20 19  2  0
 21 22  2  0
 21 20  1  0
 22 17  1  0
 23 25  1  0
 23 12  1  0
 24 23  2  0
M  END
$$$$
