SGW.pdb
     RDKit          3D

 25 26  0  0  1  0  0  0  0  0999 V2000
    7.5520  -16.6667   15.9939 O   0  0  0  0  0  0  0  0  0  0  0  0
    8.8300  -16.7146   16.5001 C   0  0  0  0  0  0  0  0  0  0  0  0
    8.8922  -17.8551   17.4958 C   0  0  2  0  0  0  0  0  0  0  0  0
    8.4778  -19.0989   16.8996 N   0  0  0  0  0  0  0  0  0  0  0  0
    8.0800  -17.5538   18.6942 C   0  0  0  0  0  0  0  0  0  0  0  0
    6.8304  -17.7915   18.6888 O   0  0  0  0  0  0  0  0  0  0  0  0
    8.7032  -17.0004   19.8427 N   0  0  0  0  0  0  0  0  0  0  0  0
    7.9791  -16.6089   21.0223 C   0  0  0  0  0  0  0  0  0  0  0  0
    8.8878  -16.0326   22.0219 C   0  0  0  0  0  0  0  0  0  0  0  0
    9.8052  -15.2014   21.6689 O   0  0  0  0  0  0  0  0  0  0  0  0
    8.7821  -16.3629   23.3879 N   0  0  0  0  0  0  0  0  0  0  0  0
    9.7359  -15.7471   24.3328 C   0  0  1  0  0  0  0  0  0  0  0  0
    9.1786  -15.8685   25.7505 C   0  0  0  0  0  0  0  0  0  0  0  0
    7.8681  -15.1809   25.7975 C   0  0  0  0  0  0  0  0  0  0  0  0
    6.5927  -15.7176   25.6432 C   0  0  0  0  0  0  0  0  0  0  0  0
    5.6667  -14.7506   25.7541 N   0  0  0  0  0  0  0  0  0  0  0  0
    6.2993  -13.5801   25.9793 C   0  0  0  0  0  0  0  0  0  0  0  0
    5.8519  -12.2898   26.1694 C   0  0  0  0  0  0  0  0  0  0  0  0
    6.7253  -11.2460   26.3874 C   0  0  0  0  0  0  0  0  0  0  0  0
    8.0789  -11.5079   26.4139 C   0  0  0  0  0  0  0  0  0  0  0  0
    8.5423  -12.7761   26.2282 C   0  0  0  0  0  0  0  0  0  0  0  0
    7.6562  -13.8242   26.0093 C   0  0  0  0  0  0  0  0  0  0  0  0
   10.9833  -16.5352   24.2939 C   0  0  0  0  0  0  0  0  0  0  0  0
   11.0422  -17.6535   23.7368 O   0  0  0  0  0  0  0  0  0  0  0  0
   12.1368  -16.0524   24.8796 O   0  0  0  0  0  0  0  0  0  0  0  0
  2  1  1  0
  3  2  1  0
  3  4  1  6
  5  3  1  0
  5  6  2  0
  7  5  1  0
  8  7  1  0
  8  9  1  0
  9 11  1  0
  9 10  2  0
 11 12  1  0
 12 13  1  1
 13 14  1  0
 14 15  2  0
 14 22  1  0
 15 16  1  0
 16 17  1  0
 17 18  2  0
 19 18  1  0
 20 19  2  0
 21 22  2  0
 21 20  1  0
 22 17  1  0
 23 25  1  0
 23 12  1  0
 24 23  2  0
M  END
$$$$
