SGW.pdb
     RDKit          3D

 25 26  0  0  1  0  0  0  0  0999 V2000
    5.0716  -18.7995   20.6862 O   0  0  0  0  0  0  0  0  0  0  0  0
    6.0357  -19.7412   20.4111 C   0  0  0  0  0  0  0  0  0  0  0  0
    7.1833  -19.5261   21.3768 C   0  0  2  0  0  0  0  0  0  0  0  0
    6.7184  -19.4363   22.7370 N   0  0  0  0  0  0  0  0  0  0  0  0
    7.9625  -18.3238   21.0105 C   0  0  0  0  0  0  0  0  0  0  0  0
    8.6800  -18.3295   19.9602 O   0  0  0  0  0  0  0  0  0  0  0  0
    7.9030  -17.1712   21.8362 N   0  0  0  0  0  0  0  0  0  0  0  0
    8.6413  -15.9669   21.5649 C   0  0  0  0  0  0  0  0  0  0  0  0
    9.4267  -15.5640   22.7388 C   0  0  0  0  0  0  0  0  0  0  0  0
   10.3156  -14.6378   22.6439 O   0  0  0  0  0  0  0  0  0  0  0  0
    9.2302  -16.1683   23.9968 N   0  0  0  0  0  0  0  0  0  0  0  0
   10.1912  -15.8651   25.0768 C   0  0  1  0  0  0  0  0  0  0  0  0
    9.4398  -15.7989   26.4058 C   0  0  0  0  0  0  0  0  0  0  0  0
    8.0821  -15.2668   26.1485 C   0  0  0  0  0  0  0  0  0  0  0  0
    6.9214  -15.9577   25.8110 C   0  0  0  0  0  0  0  0  0  0  0  0
    5.8985  -15.0997   25.6620 N   0  0  0  0  0  0  0  0  0  0  0  0
    6.3540  -13.8508   25.8934 C   0  0  0  0  0  0  0  0  0  0  0  0
    5.7501  -12.6113   25.8809 C   0  0  0  0  0  0  0  0  0  0  0  0
    6.4550  -11.4603   26.1610 C   0  0  0  0  0  0  0  0  0  0  0  0
    7.7975  -11.5604   26.4597 C   0  0  0  0  0  0  0  0  0  0  0  0
    8.4139  -12.7759   26.4775 C   0  0  0  0  0  0  0  0  0  0  0  0
    7.6972  -13.9327   26.1946 C   0  0  0  0  0  0  0  0  0  0  0  0
   11.1340  -16.9965   25.1736 C   0  0  0  0  0  0  0  0  0  0  0  0
   11.0100  -18.0232   24.4701 O   0  0  0  0  0  0  0  0  0  0  0  0
   12.1951  -16.9520   26.0562 O   0  0  0  0  0  0  0  0  0  0  0  0
  2  1  1  0
  3  2  1  0
  3  4  1  1
  5  3  1  0
  5  6  2  0
  7  5  1  0
  8  7  1  0
  8  9  1  0
  9 11  1  0
  9 10  2  0
 11 12  1  0
 12 13  1  1
 13 14  1  0
 14 15  2  0
 14 22  1  0
 15 16  1  0
 16 17  1  0
 17 18  2  0
 19 18  1  0
 20 19  2  0
 21 22  2  0
 21 20  1  0
 22 17  1  0
 23 25  1  0
 23 12  1  0
 24 23  2  0
M  END
$$$$
