SGW.pdb
     RDKit          3D

 25 26  0  0  1  0  0  0  0  0999 V2000
    5.1939  -19.1138   21.2074 O   0  0  0  0  0  0  0  0  0  0  0  0
    5.7663  -17.8691   21.0842 C   0  0  0  0  0  0  0  0  0  0  0  0
    7.1305  -18.0466   20.4491 C   0  0  2  0  0  0  0  0  0  0  0  0
    7.7503  -19.2779   20.8662 N   0  0  0  0  0  0  0  0  0  0  0  0
    8.0059  -16.8931   20.7491 C   0  0  0  0  0  0  0  0  0  0  0  0
    7.6408  -15.7190   20.4231 O   0  0  0  0  0  0  0  0  0  0  0  0
    9.2489  -17.1066   21.3995 N   0  0  0  0  0  0  0  0  0  0  0  0
   10.1994  -16.0564   21.6501 C   0  0  0  0  0  0  0  0  0  0  0  0
   10.3998  -15.8713   23.0932 C   0  0  0  0  0  0  0  0  0  0  0  0
   11.2865  -15.0463   23.5294 O   0  0  0  0  0  0  0  0  0  0  0  0
    9.6309  -16.5795   24.0385 N   0  0  0  0  0  0  0  0  0  0  0  0
    9.9520  -16.4101   25.4703 C   0  0  1  0  0  0  0  0  0  0  0  0
    8.6531  -16.4214   26.2751 C   0  0  0  0  0  0  0  0  0  0  0  0
    7.7370  -15.4117   25.6973 C   0  0  0  0  0  0  0  0  0  0  0  0
    6.9009  -15.5216   24.5895 C   0  0  0  0  0  0  0  0  0  0  0  0
    6.2330  -14.3719   24.3974 N   0  0  0  0  0  0  0  0  0  0  0  0
    6.6072  -13.4978   25.3549 C   0  0  0  0  0  0  0  0  0  0  0  0
    6.2468  -12.1966   25.6344 C   0  0  0  0  0  0  0  0  0  0  0  0
    6.7883  -11.5086   26.6990 C   0  0  0  0  0  0  0  0  0  0  0  0
    7.7135  -12.1455   27.4991 C   0  0  0  0  0  0  0  0  0  0  0  0
    8.0837  -13.4314   27.2404 C   0  0  0  0  0  0  0  0  0  0  0  0
    7.5334  -14.1196   26.1655 C   0  0  0  0  0  0  0  0  0  0  0  0
   10.7329  -17.5864   25.9006 C   0  0  0  0  0  0  0  0  0  0  0  0
   10.9790  -18.5367   25.1257 O   0  0  0  0  0  0  0  0  0  0  0  0
   11.2209  -17.6713   27.1896 O   0  0  0  0  0  0  0  0  0  0  0  0
  2  1  1  0
  3  2  1  0
  3  4  1  1
  5  3  1  0
  5  6  2  0
  7  5  1  0
  8  7  1  0
  8  9  1  0
  9 11  1  0
  9 10  2  0
 11 12  1  0
 12 13  1  1
 13 14  1  0
 14 15  2  0
 14 22  1  0
 15 16  1  0
 16 17  1  0
 17 18  2  0
 19 18  1  0
 20 19  2  0
 21 22  2  0
 21 20  1  0
 22 17  1  0
 23 25  1  0
 23 12  1  0
 24 23  2  0
M  END
$$$$
