SGW.pdb
     RDKit          3D

 25 26  0  0  1  0  0  0  0  0999 V2000
    6.4880  -18.8417   18.2509 O   0  0  0  0  0  0  0  0  0  0  0  0
    7.6664  -19.4384   18.6347 C   0  0  0  0  0  0  0  0  0  0  0  0
    7.9261  -19.0654   20.0802 C   0  0  2  0  0  0  0  0  0  0  0  0
    6.7766  -19.3276   20.9073 N   0  0  0  0  0  0  0  0  0  0  0  0
    8.3396  -17.6501   20.1935 C   0  0  0  0  0  0  0  0  0  0  0  0
    9.3732  -17.2406   19.5754 O   0  0  0  0  0  0  0  0  0  0  0  0
    7.5779  -16.7589   20.9930 N   0  0  0  0  0  0  0  0  0  0  0  0
    7.8437  -15.3476   21.0741 C   0  0  0  0  0  0  0  0  0  0  0  0
    8.6612  -15.0404   22.2550 C   0  0  0  0  0  0  0  0  0  0  0  0
    9.1823  -13.8727   22.4032 O   0  0  0  0  0  0  0  0  0  0  0  0
    8.8944  -16.0030   23.2577 N   0  0  0  0  0  0  0  0  0  0  0  0
    9.8848  -15.6930   24.3088 C   0  0  1  0  0  0  0  0  0  0  0  0
    9.2591  -15.9651   25.6761 C   0  0  0  0  0  0  0  0  0  0  0  0
    7.9539  -15.2686   25.7393 C   0  0  0  0  0  0  0  0  0  0  0  0
    6.6728  -15.7982   25.6105 C   0  0  0  0  0  0  0  0  0  0  0  0
    5.7550  -14.8244   25.7290 N   0  0  0  0  0  0  0  0  0  0  0  0
    6.3986  -13.6563   25.9343 C   0  0  0  0  0  0  0  0  0  0  0  0
    5.9626  -12.3617   26.1215 C   0  0  0  0  0  0  0  0  0  0  0  0
    6.8462  -11.3218   26.3166 C   0  0  0  0  0  0  0  0  0  0  0  0
    8.1984  -11.5923   26.3227 C   0  0  0  0  0  0  0  0  0  0  0  0
    8.6505  -12.8650   26.1395 C   0  0  0  0  0  0  0  0  0  0  0  0
    7.7542  -13.9090   25.9438 C   0  0  0  0  0  0  0  0  0  0  0  0
   11.0124  -16.6334   24.1588 C   0  0  0  0  0  0  0  0  0  0  0  0
   10.9836  -17.5752   23.3363 O   0  0  0  0  0  0  0  0  0  0  0  0
   12.1474  -16.4972   24.9336 O   0  0  0  0  0  0  0  0  0  0  0  0
  2  1  1  0
  3  2  1  0
  3  4  1  1
  5  3  1  0
  5  6  2  0
  7  5  1  0
  8  7  1  0
  8  9  1  0
  9 11  1  0
  9 10  2  0
 11 12  1  0
 12 13  1  1
 13 14  1  0
 14 15  2  0
 14 22  1  0
 15 16  1  0
 16 17  1  0
 17 18  2  0
 19 18  1  0
 20 19  2  0
 21 22  2  0
 21 20  1  0
 22 17  1  0
 23 25  1  0
 23 12  1  0
 24 23  2  0
M  END
$$$$
