SGW.pdb
     RDKit          3D

 25 26  0  0  1  0  0  0  0  0999 V2000
    5.9827  -19.1838   20.5538 O   0  0  0  0  0  0  0  0  0  0  0  0
    6.9157  -19.6345   19.6493 C   0  0  0  0  0  0  0  0  0  0  0  0
    8.2902  -19.3680   20.2287 C   0  0  2  0  0  0  0  0  0  0  0  0
    8.4197  -19.9174   21.5537 N   0  0  0  0  0  0  0  0  0  0  0  0
    8.5893  -17.9198   20.2320 C   0  0  0  0  0  0  0  0  0  0  0  0
    8.5470  -17.2617   19.1443 O   0  0  0  0  0  0  0  0  0  0  0  0
    8.9221  -17.2753   21.4516 N   0  0  0  0  0  0  0  0  0  0  0  0
    9.1664  -15.8616   21.5564 C   0  0  0  0  0  0  0  0  0  0  0  0
    9.5539  -15.5019   22.9266 C   0  0  0  0  0  0  0  0  0  0  0  0
    9.9193  -14.3002   23.2083 O   0  0  0  0  0  0  0  0  0  0  0  0
    9.5327  -16.4503   23.9689 N   0  0  0  0  0  0  0  0  0  0  0  0
   10.2271  -16.1200   25.2301 C   0  0  1  0  0  0  0  0  0  0  0  0
    9.2608  -16.3218   26.3965 C   0  0  0  0  0  0  0  0  0  0  0  0
    7.9856  -15.6441   26.0690 C   0  0  0  0  0  0  0  0  0  0  0  0
    6.8417  -16.1720   25.4765 C   0  0  0  0  0  0  0  0  0  0  0  0
    5.9026  -15.2193   25.3524 N   0  0  0  0  0  0  0  0  0  0  0  0
    6.3977  -14.0670   25.8503 C   0  0  0  0  0  0  0  0  0  0  0  0
    5.8778  -12.7963   25.9773 C   0  0  0  0  0  0  0  0  0  0  0  0
    6.6068  -11.7689   26.5368 C   0  0  0  0  0  0  0  0  0  0  0  0
    7.8877  -12.0274   26.9774 C   0  0  0  0  0  0  0  0  0  0  0  0
    8.4207  -13.2765   26.8614 C   0  0  0  0  0  0  0  0  0  0  0  0
    7.6800  -14.3081   26.2967 C   0  0  0  0  0  0  0  0  0  0  0  0
   11.3242  -17.0910   25.4096 C   0  0  0  0  0  0  0  0  0  0  0  0
   12.1292  -17.0108   26.3634 O   0  0  0  0  0  0  0  0  0  0  0  0
   11.4942  -18.1304   24.5165 O   0  0  0  0  0  0  0  0  0  0  0  0
  2  1  1  0
  3  2  1  0
  3  4  1  1
  5  3  1  0
  5  6  2  0
  7  5  1  0
  8  7  1  0
  8  9  1  0
  9 11  1  0
  9 10  2  0
 11 12  1  0
 12 13  1  1
 13 14  1  0
 14 15  2  0
 14 22  1  0
 15 16  1  0
 16 17  1  0
 17 18  2  0
 19 18  1  0
 20 19  2  0
 21 22  2  0
 21 20  1  0
 22 17  1  0
 23 25  1  0
 23 12  1  0
 24 23  2  0
M  END
$$$$
