SGW.pdb
     RDKit          3D

 25 26  0  0  1  0  0  0  0  0999 V2000
    8.0288  -20.3316   20.3212 O   0  0  0  0  0  0  0  0  0  0  0  0
    8.1289  -19.9988   18.9904 C   0  0  0  0  0  0  0  0  0  0  0  0
    8.9322  -18.7177   18.8917 C   0  0  2  0  0  0  0  0  0  0  0  0
   10.2679  -18.8921   19.4012 N   0  0  0  0  0  0  0  0  0  0  0  0
    8.2464  -17.6101   19.5916 C   0  0  0  0  0  0  0  0  0  0  0  0
    7.1215  -17.1934   19.1686 O   0  0  0  0  0  0  0  0  0  0  0  0
    8.8509  -17.0201   20.7318 N   0  0  0  0  0  0  0  0  0  0  0  0
    8.2189  -15.9955   21.5191 C   0  0  0  0  0  0  0  0  0  0  0  0
    9.0830  -15.5919   22.6360 C   0  0  0  0  0  0  0  0  0  0  0  0
   10.0537  -14.7680   22.4467 O   0  0  0  0  0  0  0  0  0  0  0  0
    8.8758  -16.0842   23.9403 N   0  0  0  0  0  0  0  0  0  0  0  0
    9.9845  -15.9832   24.9110 C   0  0  1  0  0  0  0  0  0  0  0  0
    9.4211  -15.5548   26.2653 C   0  0  0  0  0  0  0  0  0  0  0  0
    8.0314  -15.0844   26.0651 C   0  0  0  0  0  0  0  0  0  0  0  0
    6.8952  -15.8235   25.7468 C   0  0  0  0  0  0  0  0  0  0  0  0
    5.8273  -15.0138   25.6526 N   0  0  0  0  0  0  0  0  0  0  0  0
    6.2289  -13.7499   25.9018 C   0  0  0  0  0  0  0  0  0  0  0  0
    5.5653  -12.5418   25.9406 C   0  0  0  0  0  0  0  0  0  0  0  0
    6.2221  -11.3645   26.2279 C   0  0  0  0  0  0  0  0  0  0  0  0
    7.5770  -11.4053   26.4812 C   0  0  0  0  0  0  0  0  0  0  0  0
    8.2521  -12.5889   26.4480 C   0  0  0  0  0  0  0  0  0  0  0  0
    7.5837  -13.7725   26.1580 C   0  0  0  0  0  0  0  0  0  0  0  0
   10.5521  -17.3338   25.0910 C   0  0  0  0  0  0  0  0  0  0  0  0
    9.9727  -18.3571   24.6652 O   0  0  0  0  0  0  0  0  0  0  0  0
   11.7565  -17.5074   25.7437 O   0  0  0  0  0  0  0  0  0  0  0  0
  2  1  1  0
  3  2  1  0
  3  4  1  1
  5  3  1  0
  5  6  2  0
  7  5  1  0
  8  7  1  0
  8  9  1  0
  9 11  1  0
  9 10  2  0
 11 12  1  0
 12 13  1  1
 13 14  1  0
 14 15  2  0
 14 22  1  0
 15 16  1  0
 16 17  1  0
 17 18  2  0
 19 18  1  0
 20 19  2  0
 21 22  2  0
 21 20  1  0
 22 17  1  0
 23 25  1  0
 23 12  1  0
 24 23  2  0
M  END
$$$$
