SGW.pdb
     RDKit          3D

 25 26  0  0  1  0  0  0  0  0999 V2000
    9.1923  -14.5419   16.9215 O   0  0  0  0  0  0  0  0  0  0  0  0
    7.9414  -13.9811   17.0336 C   0  0  0  0  0  0  0  0  0  0  0  0
    7.7655  -13.5218   18.4668 C   0  0  2  0  0  0  0  0  0  0  0  0
    8.8537  -12.6773   18.8874 N   0  0  0  0  0  0  0  0  0  0  0  0
    7.6195  -14.6781   19.3770 C   0  0  0  0  0  0  0  0  0  0  0  0
    6.6813  -15.5166   19.1907 O   0  0  0  0  0  0  0  0  0  0  0  0
    8.5296  -14.8426   20.4533 N   0  0  0  0  0  0  0  0  0  0  0  0
    8.4438  -15.9205   21.4019 C   0  0  0  0  0  0  0  0  0  0  0  0
    9.1876  -15.5952   22.6259 C   0  0  0  0  0  0  0  0  0  0  0  0
   10.0827  -14.6701   22.6203 O   0  0  0  0  0  0  0  0  0  0  0  0
    8.9435  -16.2747   23.8363 N   0  0  0  0  0  0  0  0  0  0  0  0
    9.7838  -15.9454   25.0056 C   0  0  1  0  0  0  0  0  0  0  0  0
    8.9420  -16.0754   26.2743 C   0  0  0  0  0  0  0  0  0  0  0  0
    7.6931  -15.3023   26.0872 C   0  0  0  0  0  0  0  0  0  0  0  0
    6.4267  -15.7588   25.7316 C   0  0  0  0  0  0  0  0  0  0  0  0
    5.5650  -14.7303   25.6666 N   0  0  0  0  0  0  0  0  0  0  0  0
    6.2314  -13.5974   25.9716 C   0  0  0  0  0  0  0  0  0  0  0  0
    5.8498  -12.2752   26.0586 C   0  0  0  0  0  0  0  0  0  0  0  0
    6.7455  -11.2846   26.3995 C   0  0  0  0  0  0  0  0  0  0  0  0
    8.0544  -11.6336   26.6579 C   0  0  0  0  0  0  0  0  0  0  0  0
    8.4525  -12.9347   26.5775 C   0  0  0  0  0  0  0  0  0  0  0  0
    7.5441  -13.9288   26.2337 C   0  0  0  0  0  0  0  0  0  0  0  0
   10.8521  -16.9600   25.0945 C   0  0  0  0  0  0  0  0  0  0  0  0
   10.8354  -18.0009   24.4012 O   0  0  0  0  0  0  0  0  0  0  0  0
   11.9156  -16.7852   25.9578 O   0  0  0  0  0  0  0  0  0  0  0  0
  2  1  1  0
  3  2  1  0
  3  4  1  1
  5  3  1  0
  5  6  2  0
  7  5  1  0
  8  7  1  0
  8  9  1  0
  9 11  1  0
  9 10  2  0
 11 12  1  0
 12 13  1  1
 13 14  1  0
 14 15  2  0
 14 22  1  0
 15 16  1  0
 16 17  1  0
 17 18  2  0
 19 18  1  0
 20 19  2  0
 21 22  2  0
 21 20  1  0
 22 17  1  0
 23 25  1  0
 23 12  1  0
 24 23  2  0
M  END
$$$$
