SGW.pdb
     RDKit          3D

 25 26  0  0  1  0  0  0  0  0999 V2000
    6.7808  -14.1820   18.3566 O   0  0  0  0  0  0  0  0  0  0  0  0
    7.3082  -13.0513   18.9357 C   0  0  0  0  0  0  0  0  0  0  0  0
    8.6746  -13.4061   19.4862 C   0  0  2  0  0  0  0  0  0  0  0  0
    9.5132  -13.9973   18.4755 N   0  0  0  0  0  0  0  0  0  0  0  0
    8.5552  -14.3026   20.6562 C   0  0  0  0  0  0  0  0  0  0  0  0
    7.9242  -13.9141   21.6902 O   0  0  0  0  0  0  0  0  0  0  0  0
    9.1474  -15.5915   20.6153 N   0  0  0  0  0  0  0  0  0  0  0  0
    8.9421  -16.5872   21.6330 C   0  0  0  0  0  0  0  0  0  0  0  0
    9.6838  -16.2430   22.8530 C   0  0  0  0  0  0  0  0  0  0  0  0
   10.8698  -15.7482   22.7791 O   0  0  0  0  0  0  0  0  0  0  0  0
    9.1241  -16.4358   24.1320 N   0  0  0  0  0  0  0  0  0  0  0  0
    9.9822  -16.2101   25.3129 C   0  0  1  0  0  0  0  0  0  0  0  0
    9.0947  -16.0149   26.5415 C   0  0  0  0  0  0  0  0  0  0  0  0
    7.8690  -15.2973   26.1227 C   0  0  0  0  0  0  0  0  0  0  0  0
    6.7063  -15.8104   25.5542 C   0  0  0  0  0  0  0  0  0  0  0  0
    5.8289  -14.8202   25.3206 N   0  0  0  0  0  0  0  0  0  0  0  0
    6.3835  -13.6574   25.7220 C   0  0  0  0  0  0  0  0  0  0  0  0
    5.9391  -12.3521   25.7191 C   0  0  0  0  0  0  0  0  0  0  0  0
    6.7185  -11.3214   26.1988 C   0  0  0  0  0  0  0  0  0  0  0  0
    7.9731  -11.6121   26.6918 C   0  0  0  0  0  0  0  0  0  0  0  0
    8.4317  -12.8956   26.7039 C   0  0  0  0  0  0  0  0  0  0  0  0
    7.6406  -13.9303   26.2191 C   0  0  0  0  0  0  0  0  0  0  0  0
   10.7674  -17.4387   25.5425 C   0  0  0  0  0  0  0  0  0  0  0  0
   10.5703  -18.4828   24.8826 O   0  0  0  0  0  0  0  0  0  0  0  0
   11.7561  -17.4697   26.5060 O   0  0  0  0  0  0  0  0  0  0  0  0
  2  1  1  0
  3  2  1  0
  3  4  1  6
  5  3  1  0
  5  6  2  0
  7  5  1  0
  8  7  1  0
  8  9  1  0
  9 11  1  0
  9 10  2  0
 11 12  1  0
 12 13  1  1
 13 14  1  0
 14 15  2  0
 14 22  1  0
 15 16  1  0
 16 17  1  0
 17 18  2  0
 19 18  1  0
 20 19  2  0
 21 22  2  0
 21 20  1  0
 22 17  1  0
 23 25  1  0
 23 12  1  0
 24 23  2  0
M  END
$$$$
