SGW.pdb
     RDKit          3D

 25 26  0  0  1  0  0  0  0  0999 V2000
    6.6859  -19.5834   18.4872 O   0  0  0  0  0  0  0  0  0  0  0  0
    8.0318  -19.7855   18.6856 C   0  0  0  0  0  0  0  0  0  0  0  0
    8.3634  -19.3486   20.0981 C   0  0  2  0  0  0  0  0  0  0  0  0
    7.3951  -19.8412   21.0436 N   0  0  0  0  0  0  0  0  0  0  0  0
    8.4740  -17.8763   20.1824 C   0  0  0  0  0  0  0  0  0  0  0  0
    9.4035  -17.2740   19.5569 O   0  0  0  0  0  0  0  0  0  0  0  0
    7.5399  -17.1465   20.9626 N   0  0  0  0  0  0  0  0  0  0  0  0
    7.5131  -15.7096   21.0221 C   0  0  0  0  0  0  0  0  0  0  0  0
    8.4554  -15.2143   22.0340 C   0  0  0  0  0  0  0  0  0  0  0  0
    8.9982  -14.0538   21.9091 O   0  0  0  0  0  0  0  0  0  0  0  0
    8.7882  -15.9837   23.1670 N   0  0  0  0  0  0  0  0  0  0  0  0
    9.8121  -15.4590   24.0933 C   0  0  1  0  0  0  0  0  0  0  0  0
    9.3400  -15.6771   25.5302 C   0  0  0  0  0  0  0  0  0  0  0  0
    7.9745  -15.1199   25.6627 C   0  0  0  0  0  0  0  0  0  0  0  0
    6.7501  -15.7781   25.5858 C   0  0  0  0  0  0  0  0  0  0  0  0
    5.7435  -14.9055   25.7594 N   0  0  0  0  0  0  0  0  0  0  0  0
    6.2723  -13.6789   25.9505 C   0  0  0  0  0  0  0  0  0  0  0  0
    5.7147  -12.4380   26.1749 C   0  0  0  0  0  0  0  0  0  0  0  0
    6.4947  -11.3140   26.3430 C   0  0  0  0  0  0  0  0  0  0  0  0
    7.8664  -11.4432   26.2834 C   0  0  0  0  0  0  0  0  0  0  0  0
    8.4380  -12.6606   26.0625 C   0  0  0  0  0  0  0  0  0  0  0  0
    7.6457  -13.7900   25.8943 C   0  0  0  0  0  0  0  0  0  0  0  0
   11.0361  -16.2649   23.9175 C   0  0  0  0  0  0  0  0  0  0  0  0
   11.0501  -17.3032   23.2205 O   0  0  0  0  0  0  0  0  0  0  0  0
   12.2171  -15.8889   24.5264 O   0  0  0  0  0  0  0  0  0  0  0  0
  2  1  1  0
  3  2  1  0
  3  4  1  1
  5  3  1  0
  5  6  2  0
  7  5  1  0
  8  7  1  0
  8  9  1  0
  9 11  1  0
  9 10  2  0
 11 12  1  0
 12 13  1  1
 13 14  1  0
 14 15  2  0
 14 22  1  0
 15 16  1  0
 16 17  1  0
 17 18  2  0
 19 18  1  0
 20 19  2  0
 21 22  2  0
 21 20  1  0
 22 17  1  0
 23 25  1  0
 23 12  1  0
 24 23  2  0
M  END
$$$$
