SGW.pdb
     RDKit          3D

 25 26  0  0  1  0  0  0  0  0999 V2000
    7.9807  -18.1418   18.4131 O   0  0  0  0  0  0  0  0  0  0  0  0
    7.6172  -18.5580   19.6727 C   0  0  0  0  0  0  0  0  0  0  0  0
    7.1066  -17.3497   20.4312 C   0  0  2  0  0  0  0  0  0  0  0  0
    6.0385  -16.6941   19.7216 N   0  0  0  0  0  0  0  0  0  0  0  0
    8.2055  -16.4014   20.7138 C   0  0  0  0  0  0  0  0  0  0  0  0
    8.1547  -15.2170   20.2524 O   0  0  0  0  0  0  0  0  0  0  0  0
    9.3102  -16.8220   21.4989 N   0  0  0  0  0  0  0  0  0  0  0  0
   10.3929  -15.9503   21.8692 C   0  0  0  0  0  0  0  0  0  0  0  0
   10.4920  -15.8376   23.3302 C   0  0  0  0  0  0  0  0  0  0  0  0
   11.3814  -15.0783   23.8683 O   0  0  0  0  0  0  0  0  0  0  0  0
    9.6210  -16.5457   24.1825 N   0  0  0  0  0  0  0  0  0  0  0  0
    9.8368  -16.4495   25.6406 C   0  0  1  0  0  0  0  0  0  0  0  0
    8.4837  -16.5131   26.3479 C   0  0  0  0  0  0  0  0  0  0  0  0
    7.6040  -15.4732   25.7671 C   0  0  0  0  0  0  0  0  0  0  0  0
    6.7008  -15.5807   24.7130 C   0  0  0  0  0  0  0  0  0  0  0  0
    6.0993  -14.3991   24.4962 N   0  0  0  0  0  0  0  0  0  0  0  0
    6.5834  -13.5063   25.3847 C   0  0  0  0  0  0  0  0  0  0  0  0
    6.3249  -12.1714   25.6137 C   0  0  0  0  0  0  0  0  0  0  0  0
    6.9697  -11.4701   26.6099 C   0  0  0  0  0  0  0  0  0  0  0  0
    7.8954  -12.1281   27.3920 C   0  0  0  0  0  0  0  0  0  0  0  0
    8.1659  -13.4474   27.1824 C   0  0  0  0  0  0  0  0  0  0  0  0
    7.5118  -14.1488   26.1765 C   0  0  0  0  0  0  0  0  0  0  0  0
   10.5981  -17.6409   26.0643 C   0  0  0  0  0  0  0  0  0  0  0  0
   10.8910  -18.5575   25.2654 O   0  0  0  0  0  0  0  0  0  0  0  0
   11.0146  -17.7782   27.3737 O   0  0  0  0  0  0  0  0  0  0  0  0
  2  1  1  0
  3  2  1  0
  3  4  1  6
  5  3  1  0
  5  6  2  0
  7  5  1  0
  8  7  1  0
  8  9  1  0
  9 11  1  0
  9 10  2  0
 11 12  1  0
 12 13  1  1
 13 14  1  0
 14 15  2  0
 14 22  1  0
 15 16  1  0
 16 17  1  0
 17 18  2  0
 19 18  1  0
 20 19  2  0
 21 22  2  0
 21 20  1  0
 22 17  1  0
 23 25  1  0
 23 12  1  0
 24 23  2  0
M  END
$$$$
