WYK.pdb
     RDKit          3D

 36 38  0  0  1  0  0  0  0  0999 V2000
   28.4295  -20.8198  -14.9622 N   0  0  0  0  0  0  0  0  0  0  0  0
   27.2101  -20.0894  -14.6845 C   0  0  1  0  0  0  0  0  0  0  0  0
   26.5026  -19.8301  -15.9818 C   0  0  0  0  0  0  0  0  0  0  0  0
   27.1137  -18.6431  -16.6300 C   0  0  0  0  0  0  0  0  0  0  0  0
   27.8797  -18.5753  -17.7861 C   0  0  0  0  0  0  0  0  0  0  0  0
   28.2277  -17.2870  -18.0145 N   0  0  0  0  0  0  0  0  0  0  0  0
   27.7178  -16.5037  -17.0493 C   0  0  0  0  0  0  0  0  0  0  0  0
   27.7851  -15.1468  -16.8309 C   0  0  0  0  0  0  0  0  0  0  0  0
   27.1463  -14.6027  -15.7238 C   0  0  0  0  0  0  0  0  0  0  0  0
   26.4466  -15.4011  -14.8419 C   0  0  0  0  0  0  0  0  0  0  0  0
   26.3968  -16.7546  -15.0865 C   0  0  0  0  0  0  0  0  0  0  0  0
   27.0280  -17.3366  -16.1906 C   0  0  0  0  0  0  0  0  0  0  0  0
   26.3550  -20.8199  -13.7144 C   0  0  0  0  0  0  0  0  0  0  0  0
   26.2140  -22.0591  -13.8720 O   0  0  0  0  0  0  0  0  0  0  0  0
   29.6082  -21.3464   -7.5305 O   0  0  0  0  0  0  0  0  0  0  0  0
   28.4224  -21.0695   -8.1944 C   0  0  0  0  0  0  0  0  0  0  0  0
   27.5055  -20.1468   -7.7389 C   0  0  0  0  0  0  0  0  0  0  0  0
   26.3405  -19.9057   -8.4338 C   0  0  0  0  0  0  0  0  0  0  0  0
   26.0437  -20.5731   -9.6074 C   0  0  0  0  0  0  0  0  0  0  0  0
   24.7903  -20.3174  -10.3610 C   0  0  0  0  0  0  0  0  0  0  0  0
   24.8289  -20.9349  -11.7375 C   0  0  2  0  0  0  0  0  0  0  0  0
   25.6989  -20.2089  -12.6375 N   0  0  0  0  0  0  0  0  0  0  0  0
   23.4298  -20.8845  -12.2791 C   0  0  0  0  0  0  0  0  0  0  0  0
   23.0061  -19.8208  -12.8379 O   0  0  0  0  0  0  0  0  0  0  0  0
   26.9584  -21.4925  -10.0608 C   0  0  0  0  0  0  0  0  0  0  0  0
   28.1369  -21.7399   -9.3627 C   0  0  0  0  0  0  0  0  0  0  0  0
   22.5612  -21.9815  -12.1907 N   0  0  0  0  0  0  0  0  0  0  0  0
   21.2316  -21.9018  -12.7364 C   0  0  1  0  0  0  0  0  0  0  0  0
   20.6018  -23.2734  -12.8929 C   0  0  0  0  0  0  0  0  0  0  0  0
   19.2157  -23.1982  -13.4818 C   0  0  0  0  0  0  0  0  0  0  0  0
   18.6840  -24.5854  -13.6677 C   0  0  0  0  0  0  0  0  0  0  0  0
   17.3402  -24.6127  -14.3647 C   0  0  0  0  0  0  0  0  0  0  0  0
   16.8293  -25.9349  -14.5469 N   0  0  0  0  0  0  0  0  0  0  0  0
   20.3840  -20.9815  -11.9738 C   0  0  0  0  0  0  0  0  0  0  0  0
   19.4285  -20.2086  -12.6111 O   0  0  0  0  0  0  0  0  0  0  0  0
   20.5056  -20.8745  -10.7316 O   0  0  0  0  0  0  0  0  0  0  0  0
  2  1  1  6
  2  3  1  0
  3  4  1  0
  4  5  2  0
  5  6  1  0
  7  6  1  0
  8  7  2  0
  9  8  1  0
 10 11  1  0
 10  9  2  0
 11 12  2  0
 12  4  1  0
 12  7  1  0
 13 14  2  0
 13  2  1  0
 15 16  1  0
 16 26  2  0
 17 16  1  0
 17 18  2  0
 18 19  1  0
 19 25  2  0
 19 20  1  0
 21 20  1  1
 21 22  1  0
 22 13  1  0
 23 27  1  0
 23 21  1  0
 24 23  2  0
 26 25  1  0
 28 27  1  0
 28 34  1  0
 29 30  1  0
 28 29  1  1
 31 30  1  0
 32 31  1  0
 33 32  1  0
 34 35  1  0
 36 34  2  0
M  END
$$$$
