WYK.pdb
     RDKit          3D

 36 38  0  0  1  0  0  0  0  0999 V2000
   22.5393  -18.6320  -18.6594 N   0  0  0  0  0  0  0  0  0  0  0  0
   21.5625  -18.0657  -17.7525 C   0  0  1  0  0  0  0  0  0  0  0  0
   20.2624  -17.9129  -18.4855 C   0  0  0  0  0  0  0  0  0  0  0  0
   20.3369  -16.7035  -19.3426 C   0  0  0  0  0  0  0  0  0  0  0  0
   20.1098  -15.3763  -19.0040 C   0  0  0  0  0  0  0  0  0  0  0  0
   20.2931  -14.6002  -20.0981 N   0  0  0  0  0  0  0  0  0  0  0  0
   20.6330  -15.3698  -21.1456 C   0  0  0  0  0  0  0  0  0  0  0  0
   20.9205  -15.0682  -22.4571 C   0  0  0  0  0  0  0  0  0  0  0  0
   21.2464  -16.0934  -23.3361 C   0  0  0  0  0  0  0  0  0  0  0  0
   21.2862  -17.4069  -22.9144 C   0  0  0  0  0  0  0  0  0  0  0  0
   20.9940  -17.6778  -21.5969 C   0  0  0  0  0  0  0  0  0  0  0  0
   20.6618  -16.6711  -20.6846 C   0  0  0  0  0  0  0  0  0  0  0  0
   21.4228  -18.8938  -16.5275 C   0  0  0  0  0  0  0  0  0  0  0  0
   21.4772  -20.1434  -16.6534 O   0  0  0  0  0  0  0  0  0  0  0  0
   21.1337  -21.7130   -8.1846 O   0  0  0  0  0  0  0  0  0  0  0  0
   21.1732  -20.8933   -9.3027 C   0  0  0  0  0  0  0  0  0  0  0  0
   20.1500  -20.0334   -9.6389 C   0  0  0  0  0  0  0  0  0  0  0  0
   20.2351  -19.2380  -10.7606 C   0  0  0  0  0  0  0  0  0  0  0  0
   21.3408  -19.2679  -11.5898 C   0  0  0  0  0  0  0  0  0  0  0  0
   21.4386  -18.4128  -12.7996 C   0  0  0  0  0  0  0  0  0  0  0  0
   21.1511  -19.1914  -14.0601 C   0  0  2  0  0  0  0  0  0  0  0  0
   21.2346  -18.3637  -15.2441 N   0  0  0  0  0  0  0  0  0  0  0  0
   19.7499  -19.7162  -13.9402 C   0  0  0  0  0  0  0  0  0  0  0  0
   18.7633  -18.9410  -14.1615 O   0  0  0  0  0  0  0  0  0  0  0  0
   22.3604  -20.1252  -11.2537 C   0  0  0  0  0  0  0  0  0  0  0  0
   22.2794  -20.9310  -10.1216 C   0  0  0  0  0  0  0  0  0  0  0  0
   19.4850  -21.0474  -13.5889 N   0  0  0  0  0  0  0  0  0  0  0  0
   18.1291  -21.4950  -13.4065 C   0  0  1  0  0  0  0  0  0  0  0  0
   17.9480  -22.9390  -13.8362 C   0  0  0  0  0  0  0  0  0  0  0  0
   16.5155  -23.3934  -13.7117 C   0  0  0  0  0  0  0  0  0  0  0  0
   16.4200  -24.8341  -14.1077 C   0  0  0  0  0  0  0  0  0  0  0  0
   15.0103  -25.3784  -14.0147 C   0  0  0  0  0  0  0  0  0  0  0  0
   14.9354  -26.7857  -14.2511 N   0  0  0  0  0  0  0  0  0  0  0  0
   17.6551  -21.2548  -12.0411 C   0  0  0  0  0  0  0  0  0  0  0  0
   16.4669  -20.5817  -11.8138 O   0  0  0  0  0  0  0  0  0  0  0  0
   18.3135  -21.6523  -11.0522 O   0  0  0  0  0  0  0  0  0  0  0  0
  2  1  1  6
  2  3  1  0
  3  4  1  0
  4  5  2  0
  5  6  1  0
  7  6  1  0
  8  7  2  0
  9  8  1  0
 10 11  1  0
 10  9  2  0
 11 12  2  0
 12  4  1  0
 12  7  1  0
 13 14  2  0
 13  2  1  0
 15 16  1  0
 16 26  2  0
 17 16  1  0
 17 18  2  0
 18 19  1  0
 19 25  2  0
 19 20  1  0
 21 20  1  1
 21 22  1  0
 22 13  1  0
 23 27  1  0
 23 21  1  0
 24 23  2  0
 26 25  1  0
 28 27  1  0
 28 34  1  0
 29 30  1  0
 28 29  1  1
 31 30  1  0
 32 31  1  0
 33 32  1  0
 34 35  1  0
 36 34  2  0
M  END
$$$$
