WYK.pdb
     RDKit          3D

 36 38  0  0  1  0  0  0  0  0999 V2000
   26.9190  -19.4178  -11.2246 N   0  0  0  0  0  0  0  0  0  0  0  0
   26.1257  -20.6166  -11.4015 C   0  0  1  0  0  0  0  0  0  0  0  0
   25.9455  -21.2717  -10.0639 C   0  0  0  0  0  0  0  0  0  0  0  0
   27.1552  -21.0194   -9.2418 C   0  0  0  0  0  0  0  0  0  0  0  0
   27.3301  -20.1241   -8.1950 C   0  0  0  0  0  0  0  0  0  0  0  0
   28.5961  -20.2286   -7.7268 N   0  0  0  0  0  0  0  0  0  0  0  0
   29.2614  -21.1614   -8.4285 C   0  0  0  0  0  0  0  0  0  0  0  0
   30.5517  -21.6322   -8.3456 C   0  0  0  0  0  0  0  0  0  0  0  0
   30.9728  -22.6233   -9.2232 C   0  0  0  0  0  0  0  0  0  0  0  0
   30.1181  -23.1416  -10.1748 C   0  0  0  0  0  0  0  0  0  0  0  0
   28.8335  -22.6510  -10.2337 C   0  0  0  0  0  0  0  0  0  0  0  0
   28.3756  -21.6538   -9.3665 C   0  0  0  0  0  0  0  0  0  0  0  0
   24.8283  -20.3109  -12.0566 C   0  0  0  0  0  0  0  0  0  0  0  0
   24.1052  -19.4207  -11.5417 O   0  0  0  0  0  0  0  0  0  0  0  0
   17.9059  -19.8616  -17.4816 O   0  0  0  0  0  0  0  0  0  0  0  0
   19.1690  -20.0334  -16.9353 C   0  0  0  0  0  0  0  0  0  0  0  0
   19.8740  -19.0101  -16.3391 C   0  0  0  0  0  0  0  0  0  0  0  0
   21.1269  -19.2297  -15.8099 C   0  0  0  0  0  0  0  0  0  0  0  0
   21.7256  -20.4749  -15.8536 C   0  0  0  0  0  0  0  0  0  0  0  0
   23.0752  -20.7179  -15.2846 C   0  0  0  0  0  0  0  0  0  0  0  0
   23.0567  -20.7070  -13.7756 C   0  0  2  0  0  0  0  0  0  0  0  0
   24.3660  -20.9555  -13.2117 N   0  0  0  0  0  0  0  0  0  0  0  0
   22.1315  -21.8065  -13.3413 C   0  0  0  0  0  0  0  0  0  0  0  0
   22.4420  -23.0209  -13.5694 O   0  0  0  0  0  0  0  0  0  0  0  0
   21.0220  -21.4944  -16.4479 C   0  0  0  0  0  0  0  0  0  0  0  0
   19.7559  -21.2780  -16.9841 C   0  0  0  0  0  0  0  0  0  0  0  0
   20.9218  -21.5405  -12.6845 N   0  0  0  0  0  0  0  0  0  0  0  0
   20.0377  -22.6180  -12.3250 C   0  0  1  0  0  0  0  0  0  0  0  0
   19.7882  -22.6690  -10.8291 C   0  0  0  0  0  0  0  0  0  0  0  0
   18.9267  -23.8428  -10.4365 C   0  0  0  0  0  0  0  0  0  0  0  0
   18.7834  -23.8715   -8.9465 C   0  0  0  0  0  0  0  0  0  0  0  0
   18.0279  -25.0863   -8.4507 C   0  0  0  0  0  0  0  0  0  0  0  0
   17.7437  -25.0377   -7.0510 N   0  0  0  0  0  0  0  0  0  0  0  0
   18.7934  -22.5829  -13.0980 C   0  0  0  0  0  0  0  0  0  0  0  0
   18.3426  -23.7105  -13.7627 O   0  0  0  0  0  0  0  0  0  0  0  0
   18.1126  -21.5341  -13.1741 O   0  0  0  0  0  0  0  0  0  0  0  0
  2  1  1  1
  2  3  1  0
  3  4  1  0
  4  5  2  0
  5  6  1  0
  7  6  1  0
  8  7  2  0
  9  8  1  0
 10 11  1  0
 10  9  2  0
 11 12  2  0
 12  4  1  0
 12  7  1  0
 13 14  2  0
 13  2  1  0
 15 16  1  0
 16 26  2  0
 17 16  1  0
 17 18  2  0
 18 19  1  0
 19 25  2  0
 19 20  1  0
 21 20  1  6
 21 22  1  0
 22 13  1  0
 23 27  1  0
 23 21  1  0
 24 23  2  0
 26 25  1  0
 28 27  1  0
 28 34  1  0
 29 30  1  0
 28 29  1  1
 31 30  1  0
 32 31  1  0
 33 32  1  0
 34 35  1  0
 36 34  2  0
M  END
$$$$
