WYK.pdb
     RDKit          3D

 36 38  0  0  1  0  0  0  0  0999 V2000
   26.3988  -15.3308  -18.3974 N   0  0  0  0  0  0  0  0  0  0  0  0
   25.7185  -14.0545  -18.4727 C   0  0  1  0  0  0  0  0  0  0  0  0
   26.1498  -13.3568  -19.7290 C   0  0  0  0  0  0  0  0  0  0  0  0
   27.5679  -12.9441  -19.5831 C   0  0  0  0  0  0  0  0  0  0  0  0
   28.7046  -13.5043  -20.1506 C   0  0  0  0  0  0  0  0  0  0  0  0
   29.7927  -12.8053  -19.7501 N   0  0  0  0  0  0  0  0  0  0  0  0
   29.4126  -11.8043  -18.9385 C   0  0  0  0  0  0  0  0  0  0  0  0
   30.1260  -10.8291  -18.2801 C   0  0  0  0  0  0  0  0  0  0  0  0
   29.4505   -9.9063  -17.4914 C   0  0  0  0  0  0  0  0  0  0  0  0
   28.0775   -9.9531  -17.3589 C   0  0  0  0  0  0  0  0  0  0  0  0
   27.3910  -10.9398  -18.0294 C   0  0  0  0  0  0  0  0  0  0  0  0
   28.0382  -11.8850  -18.8317 C   0  0  0  0  0  0  0  0  0  0  0  0
   24.2448  -14.2259  -18.4029 C   0  0  0  0  0  0  0  0  0  0  0  0
   23.7369  -15.2004  -19.0133 O   0  0  0  0  0  0  0  0  0  0  0  0
   22.0087  -19.6063  -15.7286 O   0  0  0  0  0  0  0  0  0  0  0  0
   21.8356  -18.2417  -15.9063 C   0  0  0  0  0  0  0  0  0  0  0  0
   20.8063  -17.7068  -16.6506 C   0  0  0  0  0  0  0  0  0  0  0  0
   20.6755  -16.3433  -16.7985 C   0  0  0  0  0  0  0  0  0  0  0  0
   21.5632  -15.4608  -16.2118 C   0  0  0  0  0  0  0  0  0  0  0  0
   21.4272  -13.9906  -16.3671 C   0  0  0  0  0  0  0  0  0  0  0  0
   21.9524  -13.5176  -17.7005 C   0  0  2  0  0  0  0  0  0  0  0  0
   23.3915  -13.3665  -17.6980 N   0  0  0  0  0  0  0  0  0  0  0  0
   21.3305  -12.1773  -17.9653 C   0  0  0  0  0  0  0  0  0  0  0  0
   21.8716  -11.1249  -17.4933 O   0  0  0  0  0  0  0  0  0  0  0  0
   22.5887  -15.9950  -15.4698 C   0  0  0  0  0  0  0  0  0  0  0  0
   22.7255  -17.3717  -15.3173 C   0  0  0  0  0  0  0  0  0  0  0  0
   20.1596  -12.0409  -18.7243 N   0  0  0  0  0  0  0  0  0  0  0  0
   19.6836  -10.7349  -19.0981 C   0  0  1  0  0  0  0  0  0  0  0  0
   19.0792  -10.7307  -20.4899 C   0  0  0  0  0  0  0  0  0  0  0  0
   18.5961   -9.3610  -20.8954 C   0  0  0  0  0  0  0  0  0  0  0  0
   17.9579   -9.4444  -22.2472 C   0  0  0  0  0  0  0  0  0  0  0  0
   17.4725   -8.1025  -22.7532 C   0  0  0  0  0  0  0  0  0  0  0  0
   16.7300   -8.1970  -23.9706 N   0  0  0  0  0  0  0  0  0  0  0  0
   18.7750  -10.1777  -18.0927 C   0  0  0  0  0  0  0  0  0  0  0  0
   18.6706   -8.8086  -17.9160 O   0  0  0  0  0  0  0  0  0  0  0  0
   18.0748  -10.9267  -17.3728 O   0  0  0  0  0  0  0  0  0  0  0  0
  2  1  1  6
  2  3  1  0
  3  4  1  0
  4  5  2  0
  5  6  1  0
  7  6  1  0
  8  7  2  0
  9  8  1  0
 10 11  1  0
 10  9  2  0
 11 12  2  0
 12  4  1  0
 12  7  1  0
 13 14  2  0
 13  2  1  0
 15 16  1  0
 16 26  2  0
 17 16  1  0
 17 18  2  0
 18 19  1  0
 19 25  2  0
 19 20  1  0
 21 20  1  1
 21 22  1  0
 22 13  1  0
 23 27  1  0
 23 21  1  0
 24 23  2  0
 26 25  1  0
 28 27  1  0
 28 34  1  0
 29 30  1  0
 28 29  1  6
 31 30  1  0
 32 31  1  0
 33 32  1  0
 34 35  1  0
 36 34  2  0
M  END
$$$$
