WYK.pdb
     RDKit          3D

 36 38  0  0  1  0  0  0  0  0999 V2000
   22.6920  -30.5582  -16.7362 N   0  0  0  0  0  0  0  0  0  0  0  0
   21.9507  -29.4021  -16.2764 C   0  0  1  0  0  0  0  0  0  0  0  0
   20.9187  -29.0551  -17.3086 C   0  0  0  0  0  0  0  0  0  0  0  0
   21.6021  -28.4703  -18.4892 C   0  0  0  0  0  0  0  0  0  0  0  0
   22.2298  -29.1168  -19.5456 C   0  0  0  0  0  0  0  0  0  0  0  0
   22.7168  -28.1926  -20.4068 N   0  0  0  0  0  0  0  0  0  0  0  0
   22.4319  -26.9599  -19.9547 C   0  0  0  0  0  0  0  0  0  0  0  0
   22.7040  -25.7077  -20.4562 C   0  0  0  0  0  0  0  0  0  0  0  0
   22.2770  -24.5862  -19.7564 C   0  0  0  0  0  0  0  0  0  0  0  0
   21.5854  -24.7091  -18.5684 C   0  0  0  0  0  0  0  0  0  0  0  0
   21.3279  -25.9744  -18.0917 C   0  0  0  0  0  0  0  0  0  0  0  0
   21.7427  -27.1253  -18.7696 C   0  0  0  0  0  0  0  0  0  0  0  0
   21.3492  -29.6457  -14.9405 C   0  0  0  0  0  0  0  0  0  0  0  0
   21.0272  -30.8249  -14.6470 O   0  0  0  0  0  0  0  0  0  0  0  0
   18.4267  -28.8839   -6.6538 O   0  0  0  0  0  0  0  0  0  0  0  0
   19.0533  -28.6695   -7.8723 C   0  0  0  0  0  0  0  0  0  0  0  0
   20.0653  -29.4756   -8.3475 C   0  0  0  0  0  0  0  0  0  0  0  0
   20.6577  -29.2223   -9.5653 C   0  0  0  0  0  0  0  0  0  0  0  0
   20.2662  -28.1582  -10.3560 C   0  0  0  0  0  0  0  0  0  0  0  0
   20.9005  -27.8804  -11.6693 C   0  0  0  0  0  0  0  0  0  0  0  0
   20.5032  -28.8993  -12.7094 C   0  0  2  0  0  0  0  0  0  0  0  0
   21.1211  -28.6398  -13.9919 N   0  0  0  0  0  0  0  0  0  0  0  0
   19.0135  -28.8051  -12.8677 C   0  0  0  0  0  0  0  0  0  0  0  0
   18.4900  -27.7241  -13.2927 O   0  0  0  0  0  0  0  0  0  0  0  0
   19.2573  -27.3553   -9.8816 C   0  0  0  0  0  0  0  0  0  0  0  0
   18.6554  -27.6067   -8.6519 C   0  0  0  0  0  0  0  0  0  0  0  0
   18.1664  -29.8793  -12.5604 N   0  0  0  0  0  0  0  0  0  0  0  0
   16.7439  -29.7590  -12.7447 C   0  0  1  0  0  0  0  0  0  0  0  0
   16.1833  -30.8991  -13.5744 C   0  0  0  0  0  0  0  0  0  0  0  0
   16.9160  -31.0640  -14.8820 C   0  0  0  0  0  0  0  0  0  0  0  0
   16.3823  -32.2662  -15.5971 C   0  0  0  0  0  0  0  0  0  0  0  0
   17.1441  -32.5828  -16.8667 C   0  0  0  0  0  0  0  0  0  0  0  0
   17.6497  -31.4183  -17.5229 N   0  0  0  0  0  0  0  0  0  0  0  0
   16.0410  -29.5980  -11.4692 C   0  0  0  0  0  0  0  0  0  0  0  0
   15.3446  -28.4349  -11.1883 O   0  0  0  0  0  0  0  0  0  0  0  0
   16.0551  -30.5071  -10.6075 O   0  0  0  0  0  0  0  0  0  0  0  0
  2  1  1  6
  2  3  1  0
  3  4  1  0
  4  5  2  0
  5  6  1  0
  7  6  1  0
  8  7  2  0
  9  8  1  0
 10 11  1  0
 10  9  2  0
 11 12  2  0
 12  4  1  0
 12  7  1  0
 13 14  2  0
 13  2  1  0
 15 16  1  0
 16 26  2  0
 17 16  1  0
 17 18  2  0
 18 19  1  0
 19 25  2  0
 19 20  1  0
 21 20  1  1
 21 22  1  0
 22 13  1  0
 23 27  1  0
 23 21  1  0
 24 23  2  0
 26 25  1  0
 28 27  1  0
 28 34  1  0
 29 30  1  0
 28 29  1  1
 31 30  1  0
 32 31  1  0
 33 32  1  0
 34 35  1  0
 36 34  2  0
M  END
$$$$
