WYK.pdb
     RDKit          3D

 36 38  0  0  1  0  0  0  0  0999 V2000
   24.5416  -20.0218  -10.3290 N   0  0  0  0  0  0  0  0  0  0  0  0
   25.9533  -20.1857  -10.6077 C   0  0  1  0  0  0  0  0  0  0  0  0
   26.4527  -21.3838   -9.8554 C   0  0  0  0  0  0  0  0  0  0  0  0
   26.4443  -21.0739   -8.4040 C   0  0  0  0  0  0  0  0  0  0  0  0
   25.3697  -21.0275   -7.5258 C   0  0  0  0  0  0  0  0  0  0  0  0
   25.8189  -20.7074   -6.2894 N   0  0  0  0  0  0  0  0  0  0  0  0
   27.1517  -20.5412   -6.3223 C   0  0  0  0  0  0  0  0  0  0  0  0
   28.0650  -20.2153   -5.3460 C   0  0  0  0  0  0  0  0  0  0  0  0
   29.4097  -20.1106   -5.6789 C   0  0  0  0  0  0  0  0  0  0  0  0
   29.8421  -20.3283   -6.9714 C   0  0  0  0  0  0  0  0  0  0  0  0
   28.9054  -20.6528   -7.9263 C   0  0  0  0  0  0  0  0  0  0  0  0
   27.5440  -20.7667   -7.6269 C   0  0  0  0  0  0  0  0  0  0  0  0
   26.2040  -20.2944  -12.0675 C   0  0  0  0  0  0  0  0  0  0  0  0
   25.3088  -20.8147  -12.7804 O   0  0  0  0  0  0  0  0  0  0  0  0
   24.6644  -14.8162  -17.3072 O   0  0  0  0  0  0  0  0  0  0  0  0
   25.5175  -15.6813  -16.6384 C   0  0  0  0  0  0  0  0  0  0  0  0
   26.2456  -16.6609  -17.2786 C   0  0  0  0  0  0  0  0  0  0  0  0
   27.0808  -17.4971  -16.5707 C   0  0  0  0  0  0  0  0  0  0  0  0
   27.2232  -17.3907  -15.1998 C   0  0  0  0  0  0  0  0  0  0  0  0
   28.1220  -18.2885  -14.4314 C   0  0  0  0  0  0  0  0  0  0  0  0
   27.4601  -19.6079  -14.1172 C   0  0  2  0  0  0  0  0  0  0  0  0
   27.3770  -19.8516  -12.6933 N   0  0  0  0  0  0  0  0  0  0  0  0
   28.3063  -20.6809  -14.7384 C   0  0  0  0  0  0  0  0  0  0  0  0
   29.0183  -21.4332  -13.9965 O   0  0  0  0  0  0  0  0  0  0  0  0
   26.4972  -16.4138  -14.5625 C   0  0  0  0  0  0  0  0  0  0  0  0
   25.6519  -15.5663  -15.2730 C   0  0  0  0  0  0  0  0  0  0  0  0
   28.3410  -20.8874  -16.1247 N   0  0  0  0  0  0  0  0  0  0  0  0
   29.0179  -22.0337  -16.6721 C   0  0  1  0  0  0  0  0  0  0  0  0
   28.4440  -23.3349  -16.1428 C   0  0  0  0  0  0  0  0  0  0  0  0
   29.0631  -24.5398  -16.8052 C   0  0  0  0  0  0  0  0  0  0  0  0
   28.3310  -25.7712  -16.3699 C   0  0  0  0  0  0  0  0  0  0  0  0
   29.0058  -27.0487  -16.8225 C   0  0  0  0  0  0  0  0  0  0  0  0
   28.3598  -28.2271  -16.3366 N   0  0  0  0  0  0  0  0  0  0  0  0
   29.0575  -21.9952  -18.1363 C   0  0  0  0  0  0  0  0  0  0  0  0
   30.1832  -22.4153  -18.8240 O   0  0  0  0  0  0  0  0  0  0  0  0
   28.0758  -21.5821  -18.7958 O   0  0  0  0  0  0  0  0  0  0  0  0
  2  1  1  6
  2  3  1  0
  3  4  1  0
  4  5  2  0
  5  6  1  0
  7  6  1  0
  8  7  2  0
  9  8  1  0
 10 11  1  0
 10  9  2  0
 11 12  2  0
 12  4  1  0
 12  7  1  0
 13 14  2  0
 13  2  1  0
 15 16  1  0
 16 26  2  0
 17 16  1  0
 17 18  2  0
 18 19  1  0
 19 25  2  0
 19 20  1  0
 21 20  1  1
 21 22  1  0
 22 13  1  0
 23 27  1  0
 23 21  1  0
 24 23  2  0
 26 25  1  0
 28 27  1  0
 28 34  1  0
 29 30  1  0
 28 29  1  6
 31 30  1  0
 32 31  1  0
 33 32  1  0
 34 35  1  0
 36 34  2  0
M  END
$$$$
