WYK.pdb
     RDKit          3D

 36 38  0  0  1  0  0  0  0  0999 V2000
   27.5297  -21.2557   -8.0617 N   0  0  0  0  0  0  0  0  0  0  0  0
   26.1520  -20.8468   -8.2408 C   0  0  1  0  0  0  0  0  0  0  0  0
   25.8419  -19.7654   -7.2481 C   0  0  0  0  0  0  0  0  0  0  0  0
   27.1174  -19.2377   -6.7029 C   0  0  0  0  0  0  0  0  0  0  0  0
   27.8687  -18.1514   -7.1312 C   0  0  0  0  0  0  0  0  0  0  0  0
   28.9612  -18.0267   -6.3414 N   0  0  0  0  0  0  0  0  0  0  0  0
   28.9559  -18.9929   -5.4077 C   0  0  0  0  0  0  0  0  0  0  0  0
   29.8288  -19.2948   -4.3877 C   0  0  0  0  0  0  0  0  0  0  0  0
   29.5609  -20.3780   -3.5602 C   0  0  0  0  0  0  0  0  0  0  0  0
   28.4347  -21.1539   -3.7455 C   0  0  0  0  0  0  0  0  0  0  0  0
   27.5801  -20.8275   -4.7739 C   0  0  0  0  0  0  0  0  0  0  0  0
   27.8183  -19.7445   -5.6262 C   0  0  0  0  0  0  0  0  0  0  0  0
   25.8965  -20.4160   -9.6390 C   0  0  0  0  0  0  0  0  0  0  0  0
   24.9206  -19.6522   -9.8497 O   0  0  0  0  0  0  0  0  0  0  0  0
   27.5359  -17.5276  -17.7686 O   0  0  0  0  0  0  0  0  0  0  0  0
   27.6503  -18.1585  -16.5388 C   0  0  0  0  0  0  0  0  0  0  0  0
   28.1193  -19.4468  -16.3973 C   0  0  0  0  0  0  0  0  0  0  0  0
   28.2150  -20.0314  -15.1535 C   0  0  0  0  0  0  0  0  0  0  0  0
   27.8479  -19.3571  -14.0039 C   0  0  0  0  0  0  0  0  0  0  0  0
   27.9492  -19.9816  -12.6608 C   0  0  0  0  0  0  0  0  0  0  0  0
   26.5923  -20.1710  -12.0278 C   0  0  2  0  0  0  0  0  0  0  0  0
   26.6785  -20.8108  -10.7327 N   0  0  0  0  0  0  0  0  0  0  0  0
   25.8002  -21.0548  -12.9469 C   0  0  0  0  0  0  0  0  0  0  0  0
   26.0332  -22.3070  -12.9762 O   0  0  0  0  0  0  0  0  0  0  0  0
   27.3806  -18.0730  -14.1459 C   0  0  0  0  0  0  0  0  0  0  0  0
   27.2819  -17.4776  -15.4002 C   0  0  0  0  0  0  0  0  0  0  0  0
   24.7993  -20.5439  -13.7853 N   0  0  0  0  0  0  0  0  0  0  0  0
   24.0602  -21.4223  -14.6538 C   0  0  1  0  0  0  0  0  0  0  0  0
   22.5767  -21.1034  -14.6505 C   0  0  0  0  0  0  0  0  0  0  0  0
   21.8052  -21.9792  -15.6053 C   0  0  0  0  0  0  0  0  0  0  0  0
   20.3606  -21.5872  -15.5749 C   0  0  0  0  0  0  0  0  0  0  0  0
   19.4922  -22.4699  -16.4462 C   0  0  0  0  0  0  0  0  0  0  0  0
   18.1292  -22.0433  -16.4950 N   0  0  0  0  0  0  0  0  0  0  0  0
   24.6225  -21.4508  -16.0065 C   0  0  0  0  0  0  0  0  0  0  0  0
   25.0451  -22.6421  -16.5711 O   0  0  0  0  0  0  0  0  0  0  0  0
   24.7329  -20.4001  -16.6797 O   0  0  0  0  0  0  0  0  0  0  0  0
  2  1  1  6
  2  3  1  0
  3  4  1  0
  4  5  2  0
  5  6  1  0
  7  6  1  0
  8  7  2  0
  9  8  1  0
 10 11  1  0
 10  9  2  0
 11 12  2  0
 12  4  1  0
 12  7  1  0
 13 14  2  0
 13  2  1  0
 15 16  1  0
 16 26  2  0
 17 16  1  0
 17 18  2  0
 18 19  1  0
 19 25  2  0
 19 20  1  0
 21 20  1  6
 21 22  1  0
 22 13  1  0
 23 27  1  0
 23 21  1  0
 24 23  2  0
 26 25  1  0
 28 27  1  0
 28 34  1  0
 29 30  1  0
 28 29  1  6
 31 30  1  0
 32 31  1  0
 33 32  1  0
 34 35  1  0
 36 34  2  0
M  END
$$$$
