WYK.pdb
     RDKit          3D

 36 38  0  0  1  0  0  0  0  0999 V2000
   27.9108  -21.1258  -16.1488 N   0  0  0  0  0  0  0  0  0  0  0  0
   26.9338  -20.2362  -15.5560 C   0  0  1  0  0  0  0  0  0  0  0  0
   25.9481  -19.8362  -16.6140 C   0  0  0  0  0  0  0  0  0  0  0  0
   26.5685  -18.8005  -17.4774 C   0  0  0  0  0  0  0  0  0  0  0  0
   26.8835  -18.8621  -18.8282 C   0  0  0  0  0  0  0  0  0  0  0  0
   27.4337  -17.6857  -19.2110 N   0  0  0  0  0  0  0  0  0  0  0  0
   27.4921  -16.8514  -18.1595 C   0  0  0  0  0  0  0  0  0  0  0  0
   27.9574  -15.5630  -18.0289 C   0  0  0  0  0  0  0  0  0  0  0  0
   27.8894  -14.9364  -16.7909 C   0  0  0  0  0  0  0  0  0  0  0  0
   27.3632  -15.5856  -15.6925 C   0  0  0  0  0  0  0  0  0  0  0  0
   26.9056  -16.8736  -15.8538 C   0  0  0  0  0  0  0  0  0  0  0  0
   26.9585  -17.5351  -17.0849 C   0  0  0  0  0  0  0  0  0  0  0  0
   26.2747  -20.8662  -14.3836 C   0  0  0  0  0  0  0  0  0  0  0  0
   25.8582  -22.0459  -14.5070 O   0  0  0  0  0  0  0  0  0  0  0  0
   31.1722  -21.9431   -9.9063 O   0  0  0  0  0  0  0  0  0  0  0  0
   29.8435  -21.5845  -10.0781 C   0  0  0  0  0  0  0  0  0  0  0  0
   28.8181  -22.1246   -9.3321 C   0  0  0  0  0  0  0  0  0  0  0  0
   27.5127  -21.7362   -9.5395 C   0  0  0  0  0  0  0  0  0  0  0  0
   27.1779  -20.7964  -10.4963 C   0  0  0  0  0  0  0  0  0  0  0  0
   25.7731  -20.3734  -10.7241 C   0  0  0  0  0  0  0  0  0  0  0  0
   25.2806  -20.7807  -12.0913 C   0  0  2  0  0  0  0  0  0  0  0  0
   26.0913  -20.2231  -13.1522 N   0  0  0  0  0  0  0  0  0  0  0  0
   23.8824  -20.2518  -12.2282 C   0  0  0  0  0  0  0  0  0  0  0  0
   23.6427  -19.3023  -13.0432 O   0  0  0  0  0  0  0  0  0  0  0  0
   28.2007  -20.2583  -11.2393 C   0  0  0  0  0  0  0  0  0  0  0  0
   29.5213  -20.6472  -11.0339 C   0  0  0  0  0  0  0  0  0  0  0  0
   22.8167  -20.7731  -11.4810 N   0  0  0  0  0  0  0  0  0  0  0  0
   21.5108  -20.9053  -12.0720 C   0  0  1  0  0  0  0  0  0  0  0  0
   21.5479  -21.7284  -13.3462 C   0  0  0  0  0  0  0  0  0  0  0  0
   20.2036  -21.7816  -14.0274 C   0  0  0  0  0  0  0  0  0  0  0  0
   20.3254  -22.5678  -15.2957 C   0  0  0  0  0  0  0  0  0  0  0  0
   19.0149  -22.6837  -16.0451 C   0  0  0  0  0  0  0  0  0  0  0  0
   19.1251  -23.4358  -17.2553 N   0  0  0  0  0  0  0  0  0  0  0  0
   20.5261  -21.4081  -11.1105 C   0  0  0  0  0  0  0  0  0  0  0  0
   19.1741  -21.1766  -11.2974 O   0  0  0  0  0  0  0  0  0  0  0  0
   20.8858  -22.0568  -10.1009 O   0  0  0  0  0  0  0  0  0  0  0  0
  2  1  1  6
  2  3  1  0
  3  4  1  0
  4  5  2  0
  5  6  1  0
  7  6  1  0
  8  7  2  0
  9  8  1  0
 10 11  1  0
 10  9  2  0
 11 12  2  0
 12  4  1  0
 12  7  1  0
 13 14  2  0
 13  2  1  0
 15 16  1  0
 16 26  2  0
 17 16  1  0
 17 18  2  0
 18 19  1  0
 19 25  2  0
 19 20  1  0
 21 20  1  1
 21 22  1  0
 22 13  1  0
 23 27  1  0
 23 21  1  0
 24 23  2  0
 26 25  1  0
 28 27  1  0
 28 34  1  0
 29 30  1  0
 28 29  1  6
 31 30  1  0
 32 31  1  0
 33 32  1  0
 34 35  1  0
 36 34  2  0
M  END
$$$$
