WYK.pdb
     RDKit          3D

 36 38  0  0  1  0  0  0  0  0999 V2000
   25.7247  -23.5969  -14.5608 N   0  0  0  0  0  0  0  0  0  0  0  0
   24.6436  -22.6792  -14.2668 C   0  0  1  0  0  0  0  0  0  0  0  0
   25.1657  -21.2767  -14.3719 C   0  0  0  0  0  0  0  0  0  0  0  0
   26.1492  -21.0505  -13.2836 C   0  0  0  0  0  0  0  0  0  0  0  0
   27.5358  -21.1032  -13.3331 C   0  0  0  0  0  0  0  0  0  0  0  0
   28.0357  -20.8260  -12.1058 N   0  0  0  0  0  0  0  0  0  0  0  0
   27.0270  -20.5926  -11.2496 C   0  0  0  0  0  0  0  0  0  0  0  0
   27.0082  -20.2743   -9.9110 C   0  0  0  0  0  0  0  0  0  0  0  0
   25.7888  -20.0871   -9.2725 C   0  0  0  0  0  0  0  0  0  0  0  0
   24.5986  -20.2152   -9.9594 C   0  0  0  0  0  0  0  0  0  0  0  0
   24.6490  -20.5342  -11.2973 C   0  0  0  0  0  0  0  0  0  0  0  0
   25.8583  -20.7299  -11.9721 C   0  0  0  0  0  0  0  0  0  0  0  0
   23.4809  -22.9143  -15.1606 C   0  0  0  0  0  0  0  0  0  0  0  0
   23.6026  -22.6126  -16.3749 O   0  0  0  0  0  0  0  0  0  0  0  0
   16.9732  -26.1902  -19.7871 O   0  0  0  0  0  0  0  0  0  0  0  0
   17.9605  -25.9610  -18.8404 C   0  0  0  0  0  0  0  0  0  0  0  0
   17.8169  -26.2947  -17.5109 C   0  0  0  0  0  0  0  0  0  0  0  0
   18.8268  -26.0471  -16.6070 C   0  0  0  0  0  0  0  0  0  0  0  0
   20.0171  -25.4586  -16.9913 C   0  0  0  0  0  0  0  0  0  0  0  0
   21.1092  -25.1897  -16.0221 C   0  0  0  0  0  0  0  0  0  0  0  0
   21.1663  -23.7326  -15.6332 C   0  0  2  0  0  0  0  0  0  0  0  0
   22.2606  -23.4513  -14.7292 N   0  0  0  0  0  0  0  0  0  0  0  0
   19.8754  -23.4148  -14.9362 C   0  0  0  0  0  0  0  0  0  0  0  0
   18.7672  -23.6755  -15.5083 O   0  0  0  0  0  0  0  0  0  0  0  0
   20.1594  -25.1265  -18.3169 C   0  0  0  0  0  0  0  0  0  0  0  0
   19.1423  -25.3744  -19.2341 C   0  0  0  0  0  0  0  0  0  0  0  0
   19.8457  -22.8337  -13.6606 N   0  0  0  0  0  0  0  0  0  0  0  0
   18.5947  -22.6586  -12.9705 C   0  0  1  0  0  0  0  0  0  0  0  0
   18.7217  -22.9521  -11.4872 C   0  0  0  0  0  0  0  0  0  0  0  0
   17.9915  -24.2110  -11.0926 C   0  0  0  0  0  0  0  0  0  0  0  0
   18.1452  -24.4278   -9.6192 C   0  0  0  0  0  0  0  0  0  0  0  0
   17.3849  -25.6380   -9.1194 C   0  0  0  0  0  0  0  0  0  0  0  0
   17.6016  -25.9032   -7.7320 N   0  0  0  0  0  0  0  0  0  0  0  0
   18.0083  -21.3414  -13.2313 C   0  0  0  0  0  0  0  0  0  0  0  0
   18.5710  -20.4902  -14.1668 O   0  0  0  0  0  0  0  0  0  0  0  0
   16.9874  -20.9581  -12.6146 O   0  0  0  0  0  0  0  0  0  0  0  0
  2  1  1  6
  2  3  1  0
  3  4  1  0
  4  5  2  0
  5  6  1  0
  7  6  1  0
  8  7  2  0
  9  8  1  0
 10 11  1  0
 10  9  2  0
 11 12  2  0
 12  4  1  0
 12  7  1  0
 13 14  2  0
 13  2  1  0
 15 16  1  0
 16 26  2  0
 17 16  1  0
 17 18  2  0
 18 19  1  0
 19 25  2  0
 19 20  1  0
 21 20  1  1
 21 22  1  0
 22 13  1  0
 23 27  1  0
 23 21  1  0
 24 23  2  0
 26 25  1  0
 28 27  1  0
 28 34  1  0
 29 30  1  0
 28 29  1  1
 31 30  1  0
 32 31  1  0
 33 32  1  0
 34 35  1  0
 36 34  2  0
M  END
$$$$
