WYK.pdb
     RDKit          3D

 36 38  0  0  1  0  0  0  0  0999 V2000
   24.2412  -19.9401  -18.9340 N   0  0  0  0  0  0  0  0  0  0  0  0
   23.0158  -19.4723  -18.3200 C   0  0  1  0  0  0  0  0  0  0  0  0
   21.8615  -19.8759  -19.1893 C   0  0  0  0  0  0  0  0  0  0  0  0
   21.8972  -19.0697  -20.4349 C   0  0  0  0  0  0  0  0  0  0  0  0
   22.4386  -19.3943  -21.6716 C   0  0  0  0  0  0  0  0  0  0  0  0
   22.2438  -18.3633  -22.5272 N   0  0  0  0  0  0  0  0  0  0  0  0
   21.5930  -17.3708  -21.8974 C   0  0  0  0  0  0  0  0  0  0  0  0
   21.1671  -16.1327  -22.3207 C   0  0  0  0  0  0  0  0  0  0  0  0
   20.5050  -15.2985  -21.4287 C   0  0  0  0  0  0  0  0  0  0  0  0
   20.2686  -15.6924  -20.1273 C   0  0  0  0  0  0  0  0  0  0  0  0
   20.7062  -16.9363  -19.7328 C   0  0  0  0  0  0  0  0  0  0  0  0
   21.3759  -17.8019  -20.6036 C   0  0  0  0  0  0  0  0  0  0  0  0
   22.8801  -19.9845  -16.9325 C   0  0  0  0  0  0  0  0  0  0  0  0
   23.2156  -21.1755  -16.7103 O   0  0  0  0  0  0  0  0  0  0  0  0
   21.8671  -20.7915   -8.2253 O   0  0  0  0  0  0  0  0  0  0  0  0
   21.9451  -20.2604   -9.5041 C   0  0  0  0  0  0  0  0  0  0  0  0
   20.8860  -19.6289  -10.1200 C   0  0  0  0  0  0  0  0  0  0  0  0
   21.0119  -19.1167  -11.3927 C   0  0  0  0  0  0  0  0  0  0  0  0
   22.1953  -19.2132  -12.1006 C   0  0  0  0  0  0  0  0  0  0  0  0
   22.3372  -18.6628  -13.4722 C   0  0  0  0  0  0  0  0  0  0  0  0
   22.2682  -19.7466  -14.5202 C   0  0  2  0  0  0  0  0  0  0  0  0
   22.4014  -19.2189  -15.8610 N   0  0  0  0  0  0  0  0  0  0  0  0
   20.9200  -20.3941  -14.3920 C   0  0  0  0  0  0  0  0  0  0  0  0
   19.9010  -19.8430  -14.9223 O   0  0  0  0  0  0  0  0  0  0  0  0
   23.2505  -19.8427  -11.4858 C   0  0  0  0  0  0  0  0  0  0  0  0
   23.1287  -20.3620  -10.2002 C   0  0  0  0  0  0  0  0  0  0  0  0
   20.7402  -21.6002  -13.7002 N   0  0  0  0  0  0  0  0  0  0  0  0
   19.4389  -22.2116  -13.6311 C   0  0  1  0  0  0  0  0  0  0  0  0
   19.5280  -23.6997  -13.3481 C   0  0  0  0  0  0  0  0  0  0  0  0
   20.2110  -24.4502  -14.4635 C   0  0  0  0  0  0  0  0  0  0  0  0
   20.2492  -25.9080  -14.1246 C   0  0  0  0  0  0  0  0  0  0  0  0
   20.8988  -26.7471  -15.2046 C   0  0  0  0  0  0  0  0  0  0  0  0
   20.3192  -26.5468  -16.4954 N   0  0  0  0  0  0  0  0  0  0  0  0
   18.5592  -21.5153  -12.6887 C   0  0  0  0  0  0  0  0  0  0  0  0
   17.2771  -21.1472  -13.0590 O   0  0  0  0  0  0  0  0  0  0  0  0
   18.9476  -21.2387  -11.5302 O   0  0  0  0  0  0  0  0  0  0  0  0
  2  1  1  6
  2  3  1  0
  3  4  1  0
  4  5  2  0
  5  6  1  0
  7  6  1  0
  8  7  2  0
  9  8  1  0
 10 11  1  0
 10  9  2  0
 11 12  2  0
 12  4  1  0
 12  7  1  0
 13 14  2  0
 13  2  1  0
 15 16  1  0
 16 26  2  0
 17 16  1  0
 17 18  2  0
 18 19  1  0
 19 25  2  0
 19 20  1  0
 21 20  1  1
 21 22  1  0
 22 13  1  0
 23 27  1  0
 23 21  1  0
 24 23  2  0
 26 25  1  0
 28 27  1  0
 28 34  1  0
 29 30  1  0
 28 29  1  1
 31 30  1  0
 32 31  1  0
 33 32  1  0
 34 35  1  0
 36 34  2  0
M  END
$$$$
