WYK.pdb
     RDKit          3D

 36 38  0  0  1  0  0  0  0  0999 V2000
   41.3111   -5.2015  -14.4012 N   0  0  0  0  0  0  0  0  0  0  0  0
   41.7394   -6.5479  -14.0831 C   0  0  1  0  0  0  0  0  0  0  0  0
   43.2259   -6.6325  -14.2680 C   0  0  0  0  0  0  0  0  0  0  0  0
   43.5256   -6.6554  -15.7214 C   0  0  0  0  0  0  0  0  0  0  0  0
   43.5991   -5.5962  -16.6161 C   0  0  0  0  0  0  0  0  0  0  0  0
   43.9042   -6.0728  -17.8460 N   0  0  0  0  0  0  0  0  0  0  0  0
   44.0343   -7.4089  -17.7929 C   0  0  0  0  0  0  0  0  0  0  0  0
   44.3321   -8.3458  -18.7558 C   0  0  0  0  0  0  0  0  0  0  0  0
   44.4001   -9.6876  -18.4026 C   0  0  0  0  0  0  0  0  0  0  0  0
   44.1740  -10.0940  -17.1032 C   0  0  0  0  0  0  0  0  0  0  0  0
   43.8784   -9.1342  -16.1620 C   0  0  0  0  0  0  0  0  0  0  0  0
   43.8015   -7.7749  -16.4819 C   0  0  0  0  0  0  0  0  0  0  0  0
   41.3210   -6.9352  -12.7117 C   0  0  0  0  0  0  0  0  0  0  0  0
   40.9735   -6.0202  -11.9228 O   0  0  0  0  0  0  0  0  0  0  0  0
   38.0185  -11.2623   -5.8264 O   0  0  0  0  0  0  0  0  0  0  0  0
   38.4032  -10.8456   -7.0921 C   0  0  0  0  0  0  0  0  0  0  0  0
   39.0171  -11.6792   -8.0020 C   0  0  0  0  0  0  0  0  0  0  0  0
   39.3810  -11.2190   -9.2485 C   0  0  0  0  0  0  0  0  0  0  0  0
   39.1483   -9.9129   -9.6369 C   0  0  0  0  0  0  0  0  0  0  0  0
   39.5377   -9.4113  -10.9789 C   0  0  0  0  0  0  0  0  0  0  0  0
   40.8180   -8.6138  -10.9285 C   0  0  2  0  0  0  0  0  0  0  0  0
   41.2916   -8.2574  -12.2486 N   0  0  0  0  0  0  0  0  0  0  0  0
   41.8489   -9.4825  -10.2682 C   0  0  0  0  0  0  0  0  0  0  0  0
   42.4679  -10.3608  -10.9527 O   0  0  0  0  0  0  0  0  0  0  0  0
   38.5361   -9.0828   -8.7293 C   0  0  0  0  0  0  0  0  0  0  0  0
   38.1664   -9.5426   -7.4686 C   0  0  0  0  0  0  0  0  0  0  0  0
   42.1589   -9.3594   -8.9064 N   0  0  0  0  0  0  0  0  0  0  0  0
   43.1503  -10.2135   -8.3065 C   0  0  1  0  0  0  0  0  0  0  0  0
   43.4184   -9.8391   -6.8607 C   0  0  0  0  0  0  0  0  0  0  0  0
   44.5350  -10.6555   -6.2602 C   0  0  0  0  0  0  0  0  0  0  0  0
   44.7399  -10.2376   -4.8372 C   0  0  0  0  0  0  0  0  0  0  0  0
   45.9716  -10.8582   -4.2125 C   0  0  0  0  0  0  0  0  0  0  0  0
   46.1130  -10.5494   -2.8244 N   0  0  0  0  0  0  0  0  0  0  0  0
   42.8151  -11.6312   -8.4637 C   0  0  0  0  0  0  0  0  0  0  0  0
   43.7766  -12.5446   -8.8609 O   0  0  0  0  0  0  0  0  0  0  0  0
   41.6540  -12.0461   -8.2427 O   0  0  0  0  0  0  0  0  0  0  0  0
  2  1  1  1
  2  3  1  0
  3  4  1  0
  4  5  2  0
  5  6  1  0
  7  6  1  0
  8  7  2  0
  9  8  1  0
 10 11  1  0
 10  9  2  0
 11 12  2  0
 12  4  1  0
 12  7  1  0
 13 14  2  0
 13  2  1  0
 15 16  1  0
 16 26  2  0
 17 16  1  0
 17 18  2  0
 18 19  1  0
 19 25  2  0
 19 20  1  0
 21 20  1  6
 21 22  1  0
 22 13  1  0
 23 27  1  0
 23 21  1  0
 24 23  2  0
 26 25  1  0
 28 27  1  0
 28 34  1  0
 29 30  1  0
 28 29  1  1
 31 30  1  0
 32 31  1  0
 33 32  1  0
 34 35  1  0
 36 34  2  0
M  END
$$$$
