WYK.pdb
     RDKit          3D

 36 38  0  0  1  0  0  0  0  0999 V2000
   25.5702  -18.0969  -17.7062 N   0  0  0  0  0  0  0  0  0  0  0  0
   24.9918  -19.4198  -17.5932 C   0  0  1  0  0  0  0  0  0  0  0  0
   26.0749  -20.4349  -17.8112 C   0  0  0  0  0  0  0  0  0  0  0  0
   26.5405  -20.3417  -19.2173 C   0  0  0  0  0  0  0  0  0  0  0  0
   27.6730  -19.7183  -19.7241 C   0  0  0  0  0  0  0  0  0  0  0  0
   27.7088  -19.8842  -21.0673 N   0  0  0  0  0  0  0  0  0  0  0  0
   26.6396  -20.5949  -21.4631 C   0  0  0  0  0  0  0  0  0  0  0  0
   26.2237  -21.0225  -22.7032 C   0  0  0  0  0  0  0  0  0  0  0  0
   25.0495  -21.7569  -22.8120 C   0  0  0  0  0  0  0  0  0  0  0  0
   24.2957  -22.0634  -21.6972 C   0  0  0  0  0  0  0  0  0  0  0  0
   24.7369  -21.6222  -20.4704 C   0  0  0  0  0  0  0  0  0  0  0  0
   25.9137  -20.8808  -20.3237 C   0  0  0  0  0  0  0  0  0  0  0  0
   24.3095  -19.5983  -16.2861 C   0  0  0  0  0  0  0  0  0  0  0  0
   24.8262  -19.0593  -15.2749 O   0  0  0  0  0  0  0  0  0  0  0  0
   18.7814  -19.1903   -9.7204 O   0  0  0  0  0  0  0  0  0  0  0  0
   19.4825  -19.1548  -10.9165 C   0  0  0  0  0  0  0  0  0  0  0  0
   18.8863  -19.3608  -12.1419 C   0  0  0  0  0  0  0  0  0  0  0  0
   19.6252  -19.3156  -13.3039 C   0  0  0  0  0  0  0  0  0  0  0  0
   20.9844  -19.0639  -13.2908 C   0  0  0  0  0  0  0  0  0  0  0  0
   21.7858  -19.0134  -14.5396 C   0  0  0  0  0  0  0  0  0  0  0  0
   22.3937  -20.3549  -14.8692 C   0  0  2  0  0  0  0  0  0  0  0  0
   23.1268  -20.3305  -16.1165 N   0  0  0  0  0  0  0  0  0  0  0  0
   21.2593  -21.3293  -14.9992 C   0  0  0  0  0  0  0  0  0  0  0  0
   20.9197  -21.7541  -16.1514 O   0  0  0  0  0  0  0  0  0  0  0  0
   21.5778  -18.8585  -12.0688 C   0  0  0  0  0  0  0  0  0  0  0  0
   20.8360  -18.9031  -10.8919 C   0  0  0  0  0  0  0  0  0  0  0  0
   20.5510  -21.7950  -13.8825 N   0  0  0  0  0  0  0  0  0  0  0  0
   20.4315  -23.2079  -13.6348 C   0  0  1  0  0  0  0  0  0  0  0  0
   21.7863  -23.8656  -13.4492 C   0  0  0  0  0  0  0  0  0  0  0  0
   22.0422  -24.9391  -14.4768 C   0  0  0  0  0  0  0  0  0  0  0  0
   23.5183  -25.0805  -14.6837 C   0  0  0  0  0  0  0  0  0  0  0  0
   23.8777  -26.2376  -15.5916 C   0  0  0  0  0  0  0  0  0  0  0  0
   25.2840  -26.3601  -15.8146 N   0  0  0  0  0  0  0  0  0  0  0  0
   19.5163  -23.4913  -12.5263 C   0  0  0  0  0  0  0  0  0  0  0  0
   19.0551  -24.7772  -12.3019 O   0  0  0  0  0  0  0  0  0  0  0  0
   19.1322  -22.5781  -11.7596 O   0  0  0  0  0  0  0  0  0  0  0  0
  2  1  1  1
  2  3  1  0
  3  4  1  0
  4  5  2  0
  5  6  1  0
  7  6  1  0
  8  7  2  0
  9  8  1  0
 10 11  1  0
 10  9  2  0
 11 12  2  0
 12  4  1  0
 12  7  1  0
 13 14  2  0
 13  2  1  0
 15 16  1  0
 16 26  2  0
 17 16  1  0
 17 18  2  0
 18 19  1  0
 19 25  2  0
 19 20  1  0
 21 20  1  6
 21 22  1  0
 22 13  1  0
 23 27  1  0
 23 21  1  0
 24 23  2  0
 26 25  1  0
 28 27  1  0
 28 34  1  0
 29 30  1  0
 28 29  1  1
 31 30  1  0
 32 31  1  0
 33 32  1  0
 34 35  1  0
 36 34  2  0
M  END
$$$$
