WYK.pdb
     RDKit          3D

 36 38  0  0  1  0  0  0  0  0999 V2000
   27.9980  -18.9036   -8.3789 N   0  0  0  0  0  0  0  0  0  0  0  0
   27.3452  -20.1907   -8.5004 C   0  0  1  0  0  0  0  0  0  0  0  0
   26.5015  -20.4154   -7.2803 C   0  0  0  0  0  0  0  0  0  0  0  0
   27.1606  -19.7688   -6.1184 C   0  0  0  0  0  0  0  0  0  0  0  0
   27.2152  -18.4230   -5.7811 C   0  0  0  0  0  0  0  0  0  0  0  0
   27.9197  -18.2799   -4.6339 N   0  0  0  0  0  0  0  0  0  0  0  0
   28.3311  -19.4843   -4.2035 C   0  0  0  0  0  0  0  0  0  0  0  0
   29.0667  -19.8700   -3.1064 C   0  0  0  0  0  0  0  0  0  0  0  0
   29.3464  -21.2170   -2.9132 C   0  0  0  0  0  0  0  0  0  0  0  0
   28.8984  -22.1718   -3.8033 C   0  0  0  0  0  0  0  0  0  0  0  0
   28.1650  -21.7559   -4.8913 C   0  0  0  0  0  0  0  0  0  0  0  0
   27.8648  -20.4087   -5.1172 C   0  0  0  0  0  0  0  0  0  0  0  0
   26.5536  -20.2757   -9.7542 C   0  0  0  0  0  0  0  0  0  0  0  0
   25.4179  -19.7370   -9.7699 O   0  0  0  0  0  0  0  0  0  0  0  0
   26.7205  -18.7096  -18.4120 O   0  0  0  0  0  0  0  0  0  0  0  0
   27.0095  -19.1374  -17.1248 C   0  0  0  0  0  0  0  0  0  0  0  0
   27.3332  -18.2723  -16.1017 C   0  0  0  0  0  0  0  0  0  0  0  0
   27.6127  -18.7451  -14.8382 C   0  0  0  0  0  0  0  0  0  0  0  0
   27.5809  -20.0956  -14.5448 C   0  0  0  0  0  0  0  0  0  0  0  0
   27.8806  -20.6111  -13.1851 C   0  0  0  0  0  0  0  0  0  0  0  0
   26.7156  -20.4207  -12.2448 C   0  0  2  0  0  0  0  0  0  0  0  0
   26.9988  -20.9196  -10.9164 N   0  0  0  0  0  0  0  0  0  0  0  0
   25.5634  -21.1975  -12.8127 C   0  0  0  0  0  0  0  0  0  0  0  0
   25.6410  -22.4657  -12.9064 O   0  0  0  0  0  0  0  0  0  0  0  0
   27.2580  -20.9571  -15.5651 C   0  0  0  0  0  0  0  0  0  0  0  0
   26.9748  -20.4847  -16.8434 C   0  0  0  0  0  0  0  0  0  0  0  0
   24.3892  -20.5681  -13.2494 N   0  0  0  0  0  0  0  0  0  0  0  0
   23.2804  -21.3505  -13.7294 C   0  0  1  0  0  0  0  0  0  0  0  0
   21.9513  -20.8085  -13.2373 C   0  0  0  0  0  0  0  0  0  0  0  0
   20.7855  -21.6263  -13.7335 C   0  0  0  0  0  0  0  0  0  0  0  0
   19.5142  -21.0500  -13.1922 C   0  0  0  0  0  0  0  0  0  0  0  0
   18.2862  -21.8239  -13.6231 C   0  0  0  0  0  0  0  0  0  0  0  0
   17.0749  -21.3098  -13.0658 N   0  0  0  0  0  0  0  0  0  0  0  0
   23.3149  -21.5082  -15.1857 C   0  0  0  0  0  0  0  0  0  0  0  0
   23.1763  -22.7581  -15.7645 O   0  0  0  0  0  0  0  0  0  0  0  0
   23.4703  -20.5176  -15.9366 O   0  0  0  0  0  0  0  0  0  0  0  0
  2  1  1  1
  2  3  1  0
  3  4  1  0
  4  5  2  0
  5  6  1  0
  7  6  1  0
  8  7  2  0
  9  8  1  0
 10 11  1  0
 10  9  2  0
 11 12  2  0
 12  4  1  0
 12  7  1  0
 13 14  2  0
 13  2  1  0
 15 16  1  0
 16 26  2  0
 17 16  1  0
 17 18  2  0
 18 19  1  0
 19 25  2  0
 19 20  1  0
 21 20  1  6
 21 22  1  0
 22 13  1  0
 23 27  1  0
 23 21  1  0
 24 23  2  0
 26 25  1  0
 28 27  1  0
 28 34  1  0
 29 30  1  0
 28 29  1  6
 31 30  1  0
 32 31  1  0
 33 32  1  0
 34 35  1  0
 36 34  2  0
M  END
$$$$
