WYK.pdb
     RDKit          3D

 36 38  0  0  1  0  0  0  0  0999 V2000
   27.2680  -24.0103  -16.9440 N   0  0  0  0  0  0  0  0  0  0  0  0
   26.3299  -22.9069  -16.9323 C   0  0  1  0  0  0  0  0  0  0  0  0
   25.4004  -23.0579  -18.1003 C   0  0  0  0  0  0  0  0  0  0  0  0
   26.1430  -22.7407  -19.3455 C   0  0  0  0  0  0  0  0  0  0  0  0
   26.7814  -23.6031  -20.2268 C   0  0  0  0  0  0  0  0  0  0  0  0
   27.3296  -22.8841  -21.2345 N   0  0  0  0  0  0  0  0  0  0  0  0
   27.0746  -21.5782  -21.0480 C   0  0  0  0  0  0  0  0  0  0  0  0
   27.4080  -20.4599  -21.7770 C   0  0  0  0  0  0  0  0  0  0  0  0
   26.9989  -19.2093  -21.3314 C   0  0  0  0  0  0  0  0  0  0  0  0
   26.2646  -19.0723  -20.1709 C   0  0  0  0  0  0  0  0  0  0  0  0
   25.9461  -20.2089  -19.4630 C   0  0  0  0  0  0  0  0  0  0  0  0
   26.3412  -21.4835  -19.8817 C   0  0  0  0  0  0  0  0  0  0  0  0
   25.6012  -22.8345  -15.6401 C   0  0  0  0  0  0  0  0  0  0  0  0
   25.1927  -23.9106  -15.1347 O   0  0  0  0  0  0  0  0  0  0  0  0
   22.0551  -20.1521   -8.0197 O   0  0  0  0  0  0  0  0  0  0  0  0
   22.7601  -20.2047   -9.2129 C   0  0  0  0  0  0  0  0  0  0  0  0
   22.2756  -19.6853  -10.3940 C   0  0  0  0  0  0  0  0  0  0  0  0
   23.0135  -19.7615  -11.5549 C   0  0  0  0  0  0  0  0  0  0  0  0
   24.2607  -20.3568  -11.5848 C   0  0  0  0  0  0  0  0  0  0  0  0
   25.0609  -20.4415  -12.8325 C   0  0  0  0  0  0  0  0  0  0  0  0
   24.6242  -21.5964  -13.7003 C   0  0  2  0  0  0  0  0  0  0  0  0
   25.3442  -21.6397  -14.9548 N   0  0  0  0  0  0  0  0  0  0  0  0
   23.1652  -21.3974  -13.9919 C   0  0  0  0  0  0  0  0  0  0  0  0
   22.8047  -20.5243  -14.8469 O   0  0  0  0  0  0  0  0  0  0  0  0
   24.7430  -20.8741  -10.4069 C   0  0  0  0  0  0  0  0  0  0  0  0
   24.0016  -20.7998   -9.2313 C   0  0  0  0  0  0  0  0  0  0  0  0
   22.1719  -22.1489  -13.3482 N   0  0  0  0  0  0  0  0  0  0  0  0
   20.7823  -21.9285  -13.6523 C   0  0  1  0  0  0  0  0  0  0  0  0
   20.1046  -23.1930  -14.1466 C   0  0  0  0  0  0  0  0  0  0  0  0
   19.2484  -23.8319  -13.0824 C   0  0  0  0  0  0  0  0  0  0  0  0
   19.7163  -25.2352  -12.8511 C   0  0  0  0  0  0  0  0  0  0  0  0
   18.8202  -26.0067  -11.9055 C   0  0  0  0  0  0  0  0  0  0  0  0
   19.1870  -27.3823  -11.7818 N   0  0  0  0  0  0  0  0  0  0  0  0
   20.0693  -21.3153  -12.5287 C   0  0  0  0  0  0  0  0  0  0  0  0
   19.2848  -20.1906  -12.7190 O   0  0  0  0  0  0  0  0  0  0  0  0
   20.1543  -21.7943  -11.3743 O   0  0  0  0  0  0  0  0  0  0  0  0
  2  1  1  1
  2  3  1  0
  3  4  1  0
  4  5  2  0
  5  6  1  0
  7  6  1  0
  8  7  2  0
  9  8  1  0
 10 11  1  0
 10  9  2  0
 11 12  2  0
 12  4  1  0
 12  7  1  0
 13 14  2  0
 13  2  1  0
 15 16  1  0
 16 26  2  0
 17 16  1  0
 17 18  2  0
 18 19  1  0
 19 25  2  0
 19 20  1  0
 21 20  1  1
 21 22  1  0
 22 13  1  0
 23 27  1  0
 23 21  1  0
 24 23  2  0
 26 25  1  0
 28 27  1  0
 28 34  1  0
 29 30  1  0
 28 29  1  1
 31 30  1  0
 32 31  1  0
 33 32  1  0
 34 35  1  0
 36 34  2  0
M  END
$$$$
