KFL.pdb
     RDKit          3D

 29 29  0  0  1  0  0  0  0  0999 V2000
    9.1097  -18.1758   19.6965 N   0  0  0  0  0  0  0  0  0  0  0  0
   10.2148  -17.2847   19.9749 C   0  0  1  0  0  0  0  0  0  0  0  0
   10.5553  -16.5166   18.7474 C   0  0  0  0  0  0  0  0  0  0  0  0
   10.2591  -17.3285   17.5220 C   0  0  0  0  0  0  0  0  0  0  0  0
   11.4857  -17.9422   16.8825 C   0  0  0  0  0  0  0  0  0  0  0  0
   11.1179  -18.6578   15.5884 C   0  0  0  0  0  0  0  0  0  0  0  0
   12.2333  -19.3613   15.0132 N   0  0  0  0  0  0  0  0  0  0  0  0
    9.9371  -16.4083   21.1426 C   0  0  0  0  0  0  0  0  0  0  0  0
   10.8251  -15.5944   21.5227 O   0  0  0  0  0  0  0  0  0  0  0  0
    8.7292  -16.4065   21.8861 N   0  0  0  0  0  0  0  0  0  0  0  0
    8.5385  -15.5927   23.0698 C   0  0  1  0  0  0  0  0  0  0  0  0
    7.0712  -15.3896   23.3818 C   0  0  0  0  0  0  0  0  0  0  0  0
    6.8777  -14.3090   24.3627 C   0  0  0  0  0  0  0  0  0  0  0  0
    6.0777  -14.5115   25.4717 C   0  0  0  0  0  0  0  0  0  0  0  0
    5.9076  -13.4862   26.3817 C   0  0  0  0  0  0  0  0  0  0  0  0
    6.5079  -12.2490   26.2341 C   0  0  0  0  0  0  0  0  0  0  0  0
    7.3024  -12.0664   25.1208 C   0  0  0  0  0  0  0  0  0  0  0  0
    7.4850  -13.0866   24.1948 C   0  0  0  0  0  0  0  0  0  0  0  0
    9.1418  -16.2877   24.2181 C   0  0  0  0  0  0  0  0  0  0  0  0
    9.8367  -17.3057   24.0423 O   0  0  0  0  0  0  0  0  0  0  0  0
   10.0182  -13.5638   29.5774 C   0  0  0  0  0  0  0  0  0  0  0  0
   10.6197  -14.6241   28.6437 C   0  0  2  0  0  0  0  0  0  0  0  0
   12.0263  -14.2342   28.3198 C   0  0  0  0  0  0  0  0  0  0  0  0
    9.7261  -14.6857   27.4535 C   0  0  0  0  0  0  0  0  0  0  0  0
    9.9524  -15.8755   26.5533 C   0  0  2  0  0  0  0  0  0  0  0  0
    8.9336  -15.8010   25.5243 N   0  0  0  0  0  0  0  0  0  0  0  0
    9.8462  -17.1733   27.2271 C   0  0  0  0  0  0  0  0  0  0  0  0
    8.6046  -17.7804   27.3255 O   0  0  0  0  0  0  0  0  0  0  0  0
   10.8413  -17.7655   27.7244 O   0  0  0  0  0  0  0  0  0  0  0  0
  2  3  1  0
  2  1  1  6
  4  3  1  0
  4  5  1  0
  6  5  1  0
  6  7  1  0
  8  2  1  0
  9  8  2  0
 10  8  1  0
 11 10  1  0
 11 12  1  1
 12 13  1  0
 13 14  2  0
 14 15  1  0
 16 15  2  0
 17 16  1  0
 18 13  1  0
 18 17  2  0
 19 11  1  0
 19 20  2  0
 22 21  1  1
 22 24  1  0
 23 22  1  0
 25 24  1  1
 25 26  1  0
 26 19  1  0
 27 25  1  0
 28 27  1  0
 29 27  2  0
M  END
$$$$
