KFL.pdb
     RDKit          3D

 29 29  0  0  1  0  0  0  0  0999 V2000
   11.2562  -16.7781   19.4006 N   0  0  0  0  0  0  0  0  0  0  0  0
   11.1081  -17.5276   20.6291 C   0  0  1  0  0  0  0  0  0  0  0  0
   12.3662  -18.2678   20.9146 C   0  0  0  0  0  0  0  0  0  0  0  0
   12.3504  -19.6076   20.2412 C   0  0  0  0  0  0  0  0  0  0  0  0
   12.6260  -19.5491   18.7543 C   0  0  0  0  0  0  0  0  0  0  0  0
   12.7565  -20.9524   18.1748 C   0  0  0  0  0  0  0  0  0  0  0  0
   14.1012  -21.4576   18.2558 N   0  0  0  0  0  0  0  0  0  0  0  0
   10.6834  -16.6594   21.7581 C   0  0  0  0  0  0  0  0  0  0  0  0
   11.4483  -15.7281   22.1362 O   0  0  0  0  0  0  0  0  0  0  0  0
    9.4611  -16.7895   22.4659 N   0  0  0  0  0  0  0  0  0  0  0  0
    9.0762  -15.8927   23.5370 C   0  0  1  0  0  0  0  0  0  0  0  0
    7.6102  -15.5230   23.4611 C   0  0  0  0  0  0  0  0  0  0  0  0
    7.2750  -14.4642   24.4274 C   0  0  0  0  0  0  0  0  0  0  0  0
    6.5361  -14.7621   25.5571 C   0  0  0  0  0  0  0  0  0  0  0  0
    6.2309  -13.7558   26.4530 C   0  0  0  0  0  0  0  0  0  0  0  0
    6.6352  -12.4457   26.2710 C   0  0  0  0  0  0  0  0  0  0  0  0
    7.3717  -12.1684   25.1376 C   0  0  0  0  0  0  0  0  0  0  0  0
    7.6881  -13.1681   24.2254 C   0  0  0  0  0  0  0  0  0  0  0  0
    9.2928  -16.5774   24.8215 C   0  0  0  0  0  0  0  0  0  0  0  0
    9.0302  -17.7887   24.9402 O   0  0  0  0  0  0  0  0  0  0  0  0
   11.7600  -13.8578   27.6791 C   0  0  0  0  0  0  0  0  0  0  0  0
   10.2481  -14.0845   27.8233 C   0  0  2  0  0  0  0  0  0  0  0  0
    9.7073  -13.0958   28.8059 C   0  0  0  0  0  0  0  0  0  0  0  0
   10.0783  -15.5028   28.2456 C   0  0  0  0  0  0  0  0  0  0  0  0
   10.2429  -16.5162   27.1397 C   0  0  2  0  0  0  0  0  0  0  0  0
    9.7997  -15.8612   25.9245 N   0  0  0  0  0  0  0  0  0  0  0  0
    9.4635  -17.7444   27.3229 C   0  0  0  0  0  0  0  0  0  0  0  0
    8.2839  -17.9045   26.6139 O   0  0  0  0  0  0  0  0  0  0  0  0
    9.8213  -18.6678   28.1025 O   0  0  0  0  0  0  0  0  0  0  0  0
  2  3  1  0
  2  1  1  6
  4  3  1  0
  4  5  1  0
  6  5  1  0
  6  7  1  0
  8  2  1  0
  9  8  2  0
 10  8  1  0
 11 10  1  0
 11 12  1  6
 12 13  1  0
 13 14  2  0
 14 15  1  0
 16 15  2  0
 17 16  1  0
 18 13  1  0
 18 17  2  0
 19 11  1  0
 19 20  2  0
 22 21  1  1
 22 24  1  0
 23 22  1  0
 25 24  1  1
 25 26  1  0
 26 19  1  0
 27 25  1  0
 28 27  1  0
 29 27  2  0
M  END
$$$$
