KFL.pdb
     RDKit          3D

 29 29  0  0  1  0  0  0  0  0999 V2000
   10.0011  -17.0324   19.6277 N   0  0  0  0  0  0  0  0  0  0  0  0
    9.0652  -17.4032   20.6666 C   0  0  1  0  0  0  0  0  0  0  0  0
    9.2624  -18.8330   21.0262 C   0  0  0  0  0  0  0  0  0  0  0  0
   10.5756  -19.3297   20.4993 C   0  0  0  0  0  0  0  0  0  0  0  0
   10.4653  -20.5904   19.6695 C   0  0  0  0  0  0  0  0  0  0  0  0
   11.8473  -21.1102   19.2929 C   0  0  0  0  0  0  0  0  0  0  0  0
   12.0589  -22.4678   19.7196 N   0  0  0  0  0  0  0  0  0  0  0  0
    9.1564  -16.4974   21.8413 C   0  0  0  0  0  0  0  0  0  0  0  0
   10.2799  -16.0135   22.1561 O   0  0  0  0  0  0  0  0  0  0  0  0
    8.0621  -16.1192   22.6607 N   0  0  0  0  0  0  0  0  0  0  0  0
    8.2034  -15.2295   23.7957 C   0  0  1  0  0  0  0  0  0  0  0  0
    6.8742  -14.6397   24.2163 C   0  0  0  0  0  0  0  0  0  0  0  0
    7.0407  -13.6777   25.3181 C   0  0  0  0  0  0  0  0  0  0  0  0
    7.7053  -12.4845   25.1051 C   0  0  0  0  0  0  0  0  0  0  0  0
    7.8521  -11.5937   26.1507 C   0  0  0  0  0  0  0  0  0  0  0  0
    7.3588  -11.8422   27.4186 C   0  0  0  0  0  0  0  0  0  0  0  0
    6.6985  -13.0384   27.6113 C   0  0  0  0  0  0  0  0  0  0  0  0
    6.5414  -13.9466   26.5711 C   0  0  0  0  0  0  0  0  0  0  0  0
    8.7234  -16.0026   24.9347 C   0  0  0  0  0  0  0  0  0  0  0  0
    8.1079  -17.0023   25.3492 O   0  0  0  0  0  0  0  0  0  0  0  0
   12.6418  -17.8815   24.6706 C   0  0  0  0  0  0  0  0  0  0  0  0
   12.5236  -16.3734   24.9350 C   0  0  2  0  0  0  0  0  0  0  0  0
   13.8483  -15.7348   24.6655 C   0  0  0  0  0  0  0  0  0  0  0  0
   12.0669  -16.2328   26.3459 C   0  0  0  0  0  0  0  0  0  0  0  0
   10.5861  -16.4348   26.5547 C   0  0  2  0  0  0  0  0  0  0  0  0
    9.9238  -15.6118   25.5615 N   0  0  0  0  0  0  0  0  0  0  0  0
   10.1037  -16.0474   27.8838 C   0  0  0  0  0  0  0  0  0  0  0  0
    9.4064  -14.8585   28.0262 O   0  0  0  0  0  0  0  0  0  0  0  0
   10.2965  -16.7529   28.9102 O   0  0  0  0  0  0  0  0  0  0  0  0
  2  3  1  0
  2  1  1  6
  4  3  1  0
  4  5  1  0
  6  5  1  0
  6  7  1  0
  8  2  1  0
  9  8  2  0
 10  8  1  0
 11 10  1  0
 11 12  1  1
 12 13  1  0
 13 14  2  0
 14 15  1  0
 16 15  2  0
 17 16  1  0
 18 13  1  0
 18 17  2  0
 19 11  1  0
 19 20  2  0
 22 21  1  1
 22 24  1  0
 23 22  1  0
 25 24  1  1
 25 26  1  0
 26 19  1  0
 27 25  1  0
 28 27  1  0
 29 27  2  0
M  END
$$$$
