KFL.pdb
     RDKit          3D

 29 29  0  0  1  0  0  0  0  0999 V2000
    9.2013  -19.0306   21.1380 N   0  0  0  0  0  0  0  0  0  0  0  0
   10.1250  -17.9612   20.8280 C   0  0  1  0  0  0  0  0  0  0  0  0
   10.0148  -17.6114   19.3864 C   0  0  0  0  0  0  0  0  0  0  0  0
    9.6215  -18.8154   18.5835 C   0  0  0  0  0  0  0  0  0  0  0  0
    9.5573  -18.5633   17.0928 C   0  0  0  0  0  0  0  0  0  0  0  0
    8.8473  -19.7093   16.3824 C   0  0  0  0  0  0  0  0  0  0  0  0
    8.8581  -19.5598   14.9516 N   0  0  0  0  0  0  0  0  0  0  0  0
    9.9320  -16.7885   21.7202 C   0  0  0  0  0  0  0  0  0  0  0  0
   10.6533  -15.7653   21.5519 O   0  0  0  0  0  0  0  0  0  0  0  0
    8.9827  -16.7169   22.7716 N   0  0  0  0  0  0  0  0  0  0  0  0
    8.7685  -15.5162   23.5540 C   0  0  1  0  0  0  0  0  0  0  0  0
    7.3591  -15.4465   24.1019 C   0  0  0  0  0  0  0  0  0  0  0  0
    7.1183  -14.1716   24.7976 C   0  0  0  0  0  0  0  0  0  0  0  0
    6.3744  -14.1445   25.9624 C   0  0  0  0  0  0  0  0  0  0  0  0
    6.1586  -12.9391   26.6017 C   0  0  0  0  0  0  0  0  0  0  0  0
    6.6585  -11.7408   26.1252 C   0  0  0  0  0  0  0  0  0  0  0  0
    7.3984  -11.7885   24.9614 C   0  0  0  0  0  0  0  0  0  0  0  0
    7.6256  -12.9921   24.3048 C   0  0  0  0  0  0  0  0  0  0  0  0
    9.6881  -15.5355   24.7027 C   0  0  0  0  0  0  0  0  0  0  0  0
   10.6827  -14.7868   24.7243 O   0  0  0  0  0  0  0  0  0  0  0  0
    8.7911  -13.6660   28.9984 C   0  0  0  0  0  0  0  0  0  0  0  0
   10.0100  -14.4926   28.5635 C   0  0  2  0  0  0  0  0  0  0  0  0
   10.7671  -13.7217   27.5301 C   0  0  0  0  0  0  0  0  0  0  0  0
    9.4764  -15.7926   28.0694 C   0  0  0  0  0  0  0  0  0  0  0  0
   10.2850  -16.4301   26.9663 C   0  0  2  0  0  0  0  0  0  0  0  0
    9.4445  -16.4047   25.7851 N   0  0  0  0  0  0  0  0  0  0  0  0
   10.6826  -17.8163   27.2307 C   0  0  0  0  0  0  0  0  0  0  0  0
    9.8993  -18.8467   26.7363 O   0  0  0  0  0  0  0  0  0  0  0  0
   11.7129  -18.1144   27.8926 O   0  0  0  0  0  0  0  0  0  0  0  0
  2  3  1  0
  2  1  1  1
  4  3  1  0
  4  5  1  0
  6  5  1  0
  6  7  1  0
  8  2  1  0
  9  8  2  0
 10  8  1  0
 11 10  1  0
 11 12  1  1
 12 13  1  0
 13 14  2  0
 14 15  1  0
 16 15  2  0
 17 16  1  0
 18 13  1  0
 18 17  2  0
 19 11  1  0
 19 20  2  0
 22 21  1  6
 22 24  1  0
 23 22  1  0
 25 24  1  1
 25 26  1  0
 26 19  1  0
 27 25  1  0
 28 27  1  0
 29 27  2  0
M  END
$$$$
