KFL.pdb
     RDKit          3D

 29 29  0  0  1  0  0  0  0  0999 V2000
   11.0056  -17.1437   19.2806 N   0  0  0  0  0  0  0  0  0  0  0  0
   10.7021  -17.8226   20.5215 C   0  0  1  0  0  0  0  0  0  0  0  0
   11.8399  -18.7039   20.8973 C   0  0  0  0  0  0  0  0  0  0  0  0
   11.8684  -19.9235   20.0252 C   0  0  0  0  0  0  0  0  0  0  0  0
   12.9189  -20.9372   20.4239 C   0  0  0  0  0  0  0  0  0  0  0  0
   12.8988  -22.1337   19.4805 C   0  0  0  0  0  0  0  0  0  0  0  0
   13.9346  -23.0865   19.7790 N   0  0  0  0  0  0  0  0  0  0  0  0
   10.3356  -16.8667   21.5989 C   0  0  0  0  0  0  0  0  0  0  0  0
   11.0593  -15.8488   21.7871 O   0  0  0  0  0  0  0  0  0  0  0  0
    9.2137  -17.0021   22.4561 N   0  0  0  0  0  0  0  0  0  0  0  0
    8.9206  -16.0611   23.5182 C   0  0  1  0  0  0  0  0  0  0  0  0
    7.4655  -15.6436   23.5135 C   0  0  0  0  0  0  0  0  0  0  0  0
    7.2041  -14.6043   24.5228 C   0  0  0  0  0  0  0  0  0  0  0  0
    7.6088  -13.3014   24.3005 C   0  0  0  0  0  0  0  0  0  0  0  0
    7.3550  -12.3393   25.2588 C   0  0  0  0  0  0  0  0  0  0  0  0
    6.7059  -12.6214   26.4470 C   0  0  0  0  0  0  0  0  0  0  0  0
    6.3097  -13.9275   26.6504 C   0  0  0  0  0  0  0  0  0  0  0  0
    6.5567  -14.9085   25.6975 C   0  0  0  0  0  0  0  0  0  0  0  0
    9.1881  -16.7141   24.8095 C   0  0  0  0  0  0  0  0  0  0  0  0
    9.1392  -17.9542   24.9088 O   0  0  0  0  0  0  0  0  0  0  0  0
   11.6734  -13.9588   27.4441 C   0  0  0  0  0  0  0  0  0  0  0  0
   10.1912  -14.0665   27.8308 C   0  0  2  0  0  0  0  0  0  0  0  0
    9.9113  -13.0926   28.9301 C   0  0  0  0  0  0  0  0  0  0  0  0
    9.9642  -15.4872   28.2170 C   0  0  0  0  0  0  0  0  0  0  0  0
   10.1690  -16.4858   27.1044 C   0  0  2  0  0  0  0  0  0  0  0  0
    9.5015  -15.9346   25.9412 N   0  0  0  0  0  0  0  0  0  0  0  0
    9.6175  -17.8167   27.3763 C   0  0  0  0  0  0  0  0  0  0  0  0
    8.4171  -18.1805   26.7876 O   0  0  0  0  0  0  0  0  0  0  0  0
   10.1910  -18.6507   28.1272 O   0  0  0  0  0  0  0  0  0  0  0  0
  2  3  1  0
  2  1  1  6
  4  3  1  0
  4  5  1  0
  6  5  1  0
  6  7  1  0
  8  2  1  0
  9  8  2  0
 10  8  1  0
 11 10  1  0
 11 12  1  1
 12 13  1  0
 13 14  2  0
 14 15  1  0
 16 15  2  0
 17 16  1  0
 18 13  1  0
 18 17  2  0
 19 11  1  0
 19 20  2  0
 22 21  1  1
 22 24  1  0
 23 22  1  0
 25 24  1  1
 25 26  1  0
 26 19  1  0
 27 25  1  0
 28 27  1  0
 29 27  2  0
M  END
$$$$
