KFL.pdb
     RDKit          3D

 29 29  0  0  1  0  0  0  0  0999 V2000
   11.4887  -16.7202   19.2597 N   0  0  0  0  0  0  0  0  0  0  0  0
   10.9228  -17.4742   20.3571 C   0  0  1  0  0  0  0  0  0  0  0  0
   11.8847  -18.5242   20.7871 C   0  0  0  0  0  0  0  0  0  0  0  0
   12.0419  -19.5614   19.7155 C   0  0  0  0  0  0  0  0  0  0  0  0
   12.8737  -20.7540   20.1348 C   0  0  0  0  0  0  0  0  0  0  0  0
   13.0584  -21.7186   18.9697 C   0  0  0  0  0  0  0  0  0  0  0  0
   13.8738  -22.8516   19.3182 N   0  0  0  0  0  0  0  0  0  0  0  0
   10.4996  -16.5903   21.4744 C   0  0  0  0  0  0  0  0  0  0  0  0
   11.1966  -15.5734   21.7489 O   0  0  0  0  0  0  0  0  0  0  0  0
    9.3502  -16.7953   22.2799 N   0  0  0  0  0  0  0  0  0  0  0  0
    9.0145  -15.9386   23.3993 C   0  0  1  0  0  0  0  0  0  0  0  0
    7.5275  -15.6643   23.4710 C   0  0  0  0  0  0  0  0  0  0  0  0
    7.2225  -14.6280   24.4711 C   0  0  0  0  0  0  0  0  0  0  0  0
    6.6220  -14.9717   25.6679 C   0  0  0  0  0  0  0  0  0  0  0  0
    6.3432  -13.9859   26.5946 C   0  0  0  0  0  0  0  0  0  0  0  0
    6.6404  -12.6524   26.3792 C   0  0  0  0  0  0  0  0  0  0  0  0
    7.2394  -12.3294   25.1788 C   0  0  0  0  0  0  0  0  0  0  0  0
    7.5273  -13.3079   24.2347 C   0  0  0  0  0  0  0  0  0  0  0  0
    9.3976  -16.6232   24.6443 C   0  0  0  0  0  0  0  0  0  0  0  0
    9.4795  -17.8651   24.6790 O   0  0  0  0  0  0  0  0  0  0  0  0
   10.3329  -13.5802   29.5164 C   0  0  0  0  0  0  0  0  0  0  0  0
   10.8078  -14.4463   28.3406 C   0  0  2  0  0  0  0  0  0  0  0  0
   11.0222  -13.5644   27.1525 C   0  0  0  0  0  0  0  0  0  0  0  0
    9.7571  -15.4822   28.1358 C   0  0  0  0  0  0  0  0  0  0  0  0
   10.0650  -16.4907   27.0562 C   0  0  2  0  0  0  0  0  0  0  0  0
    9.6737  -15.8722   25.8046 N   0  0  0  0  0  0  0  0  0  0  0  0
    9.3507  -17.7635   27.1953 C   0  0  0  0  0  0  0  0  0  0  0  0
    9.9774  -18.8198   27.8367 O   0  0  0  0  0  0  0  0  0  0  0  0
    8.1836  -17.9408   26.7541 O   0  0  0  0  0  0  0  0  0  0  0  0
  2  3  1  0
  2  1  1  6
  4  3  1  0
  4  5  1  0
  6  5  1  0
  6  7  1  0
  8  2  1  0
  9  8  2  0
 10  8  1  0
 11 10  1  0
 11 12  1  1
 12 13  1  0
 13 14  2  0
 14 15  1  0
 16 15  2  0
 17 16  1  0
 18 13  1  0
 18 17  2  0
 19 11  1  0
 19 20  2  0
 22 21  1  1
 22 24  1  0
 23 22  1  0
 25 24  1  1
 25 26  1  0
 26 19  1  0
 27 25  1  0
 28 27  1  0
 29 27  2  0
M  END
$$$$
