KFL.pdb
     RDKit          3D

 29 29  0  0  1  0  0  0  0  0999 V2000
    6.5790  -18.5368   20.2442 N   0  0  0  0  0  0  0  0  0  0  0  0
    6.9551  -18.9323   21.5839 C   0  0  1  0  0  0  0  0  0  0  0  0
    7.9487  -20.0371   21.5156 C   0  0  0  0  0  0  0  0  0  0  0  0
    7.4305  -21.1561   20.6623 C   0  0  0  0  0  0  0  0  0  0  0  0
    8.2706  -22.4132   20.7240 C   0  0  0  0  0  0  0  0  0  0  0  0
    7.7363  -23.4664   19.7611 C   0  0  0  0  0  0  0  0  0  0  0  0
    8.5871  -24.6241   19.6855 N   0  0  0  0  0  0  0  0  0  0  0  0
    7.4344  -17.7773   22.3869 C   0  0  0  0  0  0  0  0  0  0  0  0
    8.4295  -17.1164   21.9763 O   0  0  0  0  0  0  0  0  0  0  0  0
    6.8556  -17.3413   23.6063 N   0  0  0  0  0  0  0  0  0  0  0  0
    7.3857  -16.2319   24.3730 C   0  0  1  0  0  0  0  0  0  0  0  0
    6.3393  -15.6288   25.2858 C   0  0  0  0  0  0  0  0  0  0  0  0
    6.8422  -14.4127   25.9456 C   0  0  0  0  0  0  0  0  0  0  0  0
    7.4184  -14.4895   27.1998 C   0  0  0  0  0  0  0  0  0  0  0  0
    7.8849  -13.3379   27.8037 C   0  0  0  0  0  0  0  0  0  0  0  0
    7.8018  -12.0940   27.2049 C   0  0  0  0  0  0  0  0  0  0  0  0
    7.2235  -12.0380   25.9533 C   0  0  0  0  0  0  0  0  0  0  0  0
    6.7487  -13.1861   25.3305 C   0  0  0  0  0  0  0  0  0  0  0  0
    8.4786  -16.7301   25.2232 C   0  0  0  0  0  0  0  0  0  0  0  0
    8.3238  -17.7587   25.9074 O   0  0  0  0  0  0  0  0  0  0  0  0
   12.3997  -17.5836   23.5335 C   0  0  0  0  0  0  0  0  0  0  0  0
   12.1246  -16.0955   23.7938 C   0  0  2  0  0  0  0  0  0  0  0  0
   13.2004  -15.2883   23.1407 C   0  0  0  0  0  0  0  0  0  0  0  0
   12.0704  -15.9350   25.2738 C   0  0  0  0  0  0  0  0  0  0  0  0
   10.8762  -16.5769   25.9364 C   0  0  2  0  0  0  0  0  0  0  0  0
    9.7077  -16.0416   25.2652 N   0  0  0  0  0  0  0  0  0  0  0  0
   10.7605  -16.3029   27.3721 C   0  0  0  0  0  0  0  0  0  0  0  0
   11.5861  -16.9805   28.2547 O   0  0  0  0  0  0  0  0  0  0  0  0
    9.9374  -15.4725   27.8424 O   0  0  0  0  0  0  0  0  0  0  0  0
  2  3  1  0
  2  1  1  6
  4  3  1  0
  4  5  1  0
  6  5  1  0
  6  7  1  0
  8  2  1  0
  9  8  2  0
 10  8  1  0
 11 10  1  0
 11 12  1  1
 12 13  1  0
 13 14  2  0
 14 15  1  0
 16 15  2  0
 17 16  1  0
 18 13  1  0
 18 17  2  0
 19 11  1  0
 19 20  2  0
 22 21  1  1
 22 24  1  0
 23 22  1  0
 25 24  1  6
 25 26  1  0
 26 19  1  0
 27 25  1  0
 28 27  1  0
 29 27  2  0
M  END
$$$$
