KFL.pdb
     RDKit          3D

 29 29  0  0  1  0  0  0  0  0999 V2000
   11.0356  -17.1232   19.4550 N   0  0  0  0  0  0  0  0  0  0  0  0
   10.9003  -17.8111   20.7205 C   0  0  1  0  0  0  0  0  0  0  0  0
   12.1551  -18.5514   21.0205 C   0  0  0  0  0  0  0  0  0  0  0  0
   11.9207  -20.0308   20.9494 C   0  0  0  0  0  0  0  0  0  0  0  0
   12.9986  -20.7867   20.2032 C   0  0  0  0  0  0  0  0  0  0  0  0
   12.6838  -22.2771   20.1653 C   0  0  0  0  0  0  0  0  0  0  0  0
   13.7155  -23.0403   19.5149 N   0  0  0  0  0  0  0  0  0  0  0  0
   10.5043  -16.8849   21.8132 C   0  0  0  0  0  0  0  0  0  0  0  0
   11.3451  -16.0435   22.2380 O   0  0  0  0  0  0  0  0  0  0  0  0
    9.2303  -16.8634   22.4362 N   0  0  0  0  0  0  0  0  0  0  0  0
    8.8982  -15.9490   23.5102 C   0  0  1  0  0  0  0  0  0  0  0  0
    7.4398  -15.5449   23.4734 C   0  0  0  0  0  0  0  0  0  0  0  0
    7.1506  -14.4953   24.4642 C   0  0  0  0  0  0  0  0  0  0  0  0
    6.3883  -14.7838   25.5808 C   0  0  0  0  0  0  0  0  0  0  0  0
    6.1271  -13.7864   26.5001 C   0  0  0  0  0  0  0  0  0  0  0  0
    6.5985  -12.4943   26.3547 C   0  0  0  0  0  0  0  0  0  0  0  0
    7.3573  -12.2260   25.2339 C   0  0  0  0  0  0  0  0  0  0  0  0
    7.6302  -13.2170   24.2985 C   0  0  0  0  0  0  0  0  0  0  0  0
    9.1356  -16.6284   24.7938 C   0  0  0  0  0  0  0  0  0  0  0  0
    9.1397  -17.8719   24.8555 O   0  0  0  0  0  0  0  0  0  0  0  0
   11.6420  -14.1022   27.6534 C   0  0  0  0  0  0  0  0  0  0  0  0
   10.1178  -14.0373   27.8287 C   0  0  2  0  0  0  0  0  0  0  0  0
    9.7952  -12.9674   28.8220 C   0  0  0  0  0  0  0  0  0  0  0  0
    9.6896  -15.3990   28.2547 C   0  0  0  0  0  0  0  0  0  0  0  0
    9.8287  -16.4659   27.1967 C   0  0  2  0  0  0  0  0  0  0  0  0
    9.3597  -15.8703   25.9607 N   0  0  0  0  0  0  0  0  0  0  0  0
    9.0519  -17.6817   27.4571 C   0  0  0  0  0  0  0  0  0  0  0  0
    7.8728  -17.8889   26.7596 O   0  0  0  0  0  0  0  0  0  0  0  0
    9.4117  -18.5532   28.2935 O   0  0  0  0  0  0  0  0  0  0  0  0
  2  3  1  0
  2  1  1  6
  4  3  1  0
  4  5  1  0
  6  5  1  0
  6  7  1  0
  8  2  1  0
  9  8  2  0
 10  8  1  0
 11 10  1  0
 11 12  1  6
 12 13  1  0
 13 14  2  0
 14 15  1  0
 16 15  2  0
 17 16  1  0
 18 13  1  0
 18 17  2  0
 19 11  1  0
 19 20  2  0
 22 21  1  1
 22 24  1  0
 23 22  1  0
 25 24  1  1
 25 26  1  0
 26 19  1  0
 27 25  1  0
 28 27  1  0
 29 27  2  0
M  END
$$$$
