KFL.pdb
     RDKit          3D

 29 29  0  0  1  0  0  0  0  0999 V2000
   11.4336  -16.6163   19.2584 N   0  0  0  0  0  0  0  0  0  0  0  0
   11.1252  -17.3339   20.4761 C   0  0  1  0  0  0  0  0  0  0  0  0
   12.3066  -18.1357   20.8934 C   0  0  0  0  0  0  0  0  0  0  0  0
   12.4860  -19.3160   19.9859 C   0  0  0  0  0  0  0  0  0  0  0  0
   11.4790  -20.4223   20.2136 C   0  0  0  0  0  0  0  0  0  0  0  0
   11.7479  -21.5964   19.2802 C   0  0  0  0  0  0  0  0  0  0  0  0
   10.7062  -22.5876   19.3296 N   0  0  0  0  0  0  0  0  0  0  0  0
   10.6417  -16.4234   21.5466 C   0  0  0  0  0  0  0  0  0  0  0  0
   11.4148  -15.5243   21.9817 O   0  0  0  0  0  0  0  0  0  0  0  0
    9.3531  -16.4780   22.1369 N   0  0  0  0  0  0  0  0  0  0  0  0
    8.9349  -15.5758   23.1909 C   0  0  1  0  0  0  0  0  0  0  0  0
    7.4695  -15.2147   23.0729 C   0  0  0  0  0  0  0  0  0  0  0  0
    7.0513  -14.3151   24.1606 C   0  0  0  0  0  0  0  0  0  0  0  0
    7.4749  -12.9994   24.1767 C   0  0  0  0  0  0  0  0  0  0  0  0
    7.0725  -12.1696   25.2052 C   0  0  0  0  0  0  0  0  0  0  0  0
    6.2542  -12.5986   26.2344 C   0  0  0  0  0  0  0  0  0  0  0  0
    5.8419  -13.9150   26.2006 C   0  0  0  0  0  0  0  0  0  0  0  0
    6.2369  -14.7641   25.1738 C   0  0  0  0  0  0  0  0  0  0  0  0
    9.1203  -16.2503   24.4856 C   0  0  0  0  0  0  0  0  0  0  0  0
    9.1612  -17.4932   24.5466 O   0  0  0  0  0  0  0  0  0  0  0  0
   11.3624  -15.2984   29.3943 C   0  0  0  0  0  0  0  0  0  0  0  0
   10.5987  -14.3059   28.5054 C   0  0  2  0  0  0  0  0  0  0  0  0
   10.2455  -13.1049   29.3228 C   0  0  0  0  0  0  0  0  0  0  0  0
    9.4150  -15.0426   27.9809 C   0  0  0  0  0  0  0  0  0  0  0  0
    9.7261  -16.0591   26.9098 C   0  0  2  0  0  0  0  0  0  0  0  0
    9.2526  -15.4883   25.6639 N   0  0  0  0  0  0  0  0  0  0  0  0
    9.0816  -17.3613   27.1054 C   0  0  0  0  0  0  0  0  0  0  0  0
    7.8939  -17.6300   26.4444 O   0  0  0  0  0  0  0  0  0  0  0  0
    9.5634  -18.2537   27.8536 O   0  0  0  0  0  0  0  0  0  0  0  0
  2  3  1  0
  2  1  1  6
  4  3  1  0
  4  5  1  0
  6  5  1  0
  6  7  1  0
  8  2  1  0
  9  8  2  0
 10  8  1  0
 11 10  1  0
 11 12  1  6
 12 13  1  0
 13 14  2  0
 14 15  1  0
 16 15  2  0
 17 16  1  0
 18 13  1  0
 18 17  2  0
 19 11  1  0
 19 20  2  0
 22 21  1  1
 22 24  1  0
 23 22  1  0
 25 24  1  1
 25 26  1  0
 26 19  1  0
 27 25  1  0
 28 27  1  0
 29 27  2  0
M  END
$$$$
