KFL.pdb
     RDKit          3D

 29 29  0  0  1  0  0  0  0  0999 V2000
   10.0044  -18.6840   20.3456 N   0  0  0  0  0  0  0  0  0  0  0  0
   11.1132  -17.9195   20.8740 C   0  0  1  0  0  0  0  0  0  0  0  0
   11.7825  -17.1846   19.7674 C   0  0  0  0  0  0  0  0  0  0  0  0
   11.7805  -18.0086   18.5144 C   0  0  0  0  0  0  0  0  0  0  0  0
   13.0972  -17.9927   17.7688 C   0  0  0  0  0  0  0  0  0  0  0  0
   13.0052  -18.8236   16.4947 C   0  0  0  0  0  0  0  0  0  0  0  0
   14.2081  -18.7586   15.7082 N   0  0  0  0  0  0  0  0  0  0  0  0
   10.6893  -17.0260   21.9833 C   0  0  0  0  0  0  0  0  0  0  0  0
   11.5452  -16.2690   22.5215 O   0  0  0  0  0  0  0  0  0  0  0  0
    9.3719  -16.9475   22.5032 N   0  0  0  0  0  0  0  0  0  0  0  0
    9.0045  -16.0437   23.5746 C   0  0  1  0  0  0  0  0  0  0  0  0
    7.5304  -15.7012   23.5402 C   0  0  0  0  0  0  0  0  0  0  0  0
    7.2213  -14.5778   24.4399 C   0  0  0  0  0  0  0  0  0  0  0  0
    7.6779  -13.3063   24.1472 C   0  0  0  0  0  0  0  0  0  0  0  0
    7.3782  -12.2641   25.0030 C   0  0  0  0  0  0  0  0  0  0  0  0
    6.6324  -12.4345   26.1552 C   0  0  0  0  0  0  0  0  0  0  0  0
    6.1857  -13.7108   26.4300 C   0  0  0  0  0  0  0  0  0  0  0  0
    6.4776  -14.7713   25.5805 C   0  0  0  0  0  0  0  0  0  0  0  0
    9.2734  -16.7075   24.8601 C   0  0  0  0  0  0  0  0  0  0  0  0
    9.2838  -17.9502   24.9357 O   0  0  0  0  0  0  0  0  0  0  0  0
   11.7083  -14.0517   27.2486 C   0  0  0  0  0  0  0  0  0  0  0  0
   10.2486  -14.0476   27.7253 C   0  0  2  0  0  0  0  0  0  0  0  0
   10.0759  -12.9532   28.7293 C   0  0  0  0  0  0  0  0  0  0  0  0
    9.9853  -15.4083   28.2713 C   0  0  0  0  0  0  0  0  0  0  0  0
   10.0110  -16.5167   27.2476 C   0  0  2  0  0  0  0  0  0  0  0  0
    9.5209  -15.9354   26.0130 N   0  0  0  0  0  0  0  0  0  0  0  0
    9.1764  -17.6734   27.5865 C   0  0  0  0  0  0  0  0  0  0  0  0
    9.6547  -18.6052   28.4937 O   0  0  0  0  0  0  0  0  0  0  0  0
    8.0349  -17.8593   27.0858 O   0  0  0  0  0  0  0  0  0  0  0  0
  2  3  1  0
  2  1  1  6
  4  3  1  0
  4  5  1  0
  6  5  1  0
  6  7  1  0
  8  2  1  0
  9  8  2  0
 10  8  1  0
 11 10  1  0
 11 12  1  6
 12 13  1  0
 13 14  2  0
 14 15  1  0
 16 15  2  0
 17 16  1  0
 18 13  1  0
 18 17  2  0
 19 11  1  0
 19 20  2  0
 22 21  1  1
 22 24  1  0
 23 22  1  0
 25 24  1  1
 25 26  1  0
 26 19  1  0
 27 25  1  0
 28 27  1  0
 29 27  2  0
M  END
$$$$
