KFL.pdb
     RDKit          3D

 29 29  0  0  1  0  0  0  0  0999 V2000
    8.4999  -18.7109   21.1306 N   0  0  0  0  0  0  0  0  0  0  0  0
    9.7601  -18.1383   20.7100 C   0  0  1  0  0  0  0  0  0  0  0  0
    9.7644  -17.9779   19.2312 C   0  0  0  0  0  0  0  0  0  0  0  0
    9.3744  -19.2628   18.5635 C   0  0  0  0  0  0  0  0  0  0  0  0
    9.3718  -19.1913   17.0519 C   0  0  0  0  0  0  0  0  0  0  0  0
   10.6844  -19.7186   16.4852 C   0  0  0  0  0  0  0  0  0  0  0  0
   10.6694  -19.8004   15.0489 N   0  0  0  0  0  0  0  0  0  0  0  0
   10.0573  -16.8705   21.4264 C   0  0  0  0  0  0  0  0  0  0  0  0
   11.1336  -16.2606   21.1715 O   0  0  0  0  0  0  0  0  0  0  0  0
    9.2144  -16.2704   22.3966 N   0  0  0  0  0  0  0  0  0  0  0  0
    9.4467  -14.9400   22.9216 C   0  0  1  0  0  0  0  0  0  0  0  0
    8.2200  -14.0625   22.7918 C   0  0  0  0  0  0  0  0  0  0  0  0
    7.8559  -13.8578   21.3802 C   0  0  0  0  0  0  0  0  0  0  0  0
    6.9724  -14.7196   20.7577 C   0  0  0  0  0  0  0  0  0  0  0  0
    6.6421  -14.5120   19.4325 C   0  0  0  0  0  0  0  0  0  0  0  0
    7.1608  -13.4682   18.6880 C   0  0  0  0  0  0  0  0  0  0  0  0
    8.0409  -12.6189   19.3270 C   0  0  0  0  0  0  0  0  0  0  0  0
    8.3845  -12.8123   20.6596 C   0  0  0  0  0  0  0  0  0  0  0  0
    9.7607  -15.0504   24.3550 C   0  0  0  0  0  0  0  0  0  0  0  0
   10.7770  -14.5017   24.8199 O   0  0  0  0  0  0  0  0  0  0  0  0
    8.8175  -12.8208   27.5762 C   0  0  0  0  0  0  0  0  0  0  0  0
    7.7461  -13.5270   26.7327 C   0  0  2  0  0  0  0  0  0  0  0  0
    6.4266  -12.8725   26.9893 C   0  0  0  0  0  0  0  0  0  0  0  0
    7.7883  -14.9636   27.1243 C   0  0  0  0  0  0  0  0  0  0  0  0
    9.0109  -15.7122   26.6529 C   0  0  2  0  0  0  0  0  0  0  0  0
    8.9086  -15.7803   25.2082 N   0  0  0  0  0  0  0  0  0  0  0  0
    9.1272  -17.0750   27.1808 C   0  0  0  0  0  0  0  0  0  0  0  0
    9.6054  -17.2590   28.4682 O   0  0  0  0  0  0  0  0  0  0  0  0
    8.8094  -18.0940   26.5107 O   0  0  0  0  0  0  0  0  0  0  0  0
  2  3  1  0
  2  1  1  1
  4  3  1  0
  4  5  1  0
  6  5  1  0
  6  7  1  0
  8  2  1  0
  9  8  2  0
 10  8  1  0
 11 10  1  0
 11 12  1  1
 12 13  1  0
 13 14  2  0
 14 15  1  0
 16 15  2  0
 17 16  1  0
 18 13  1  0
 18 17  2  0
 19 11  1  0
 19 20  2  0
 22 21  1  1
 22 24  1  0
 23 22  1  0
 25 24  1  1
 25 26  1  0
 26 19  1  0
 27 25  1  0
 28 27  1  0
 29 27  2  0
M  END
$$$$
