KFL.pdb
     RDKit          3D

 29 29  0  0  1  0  0  0  0  0999 V2000
    9.2509  -19.0842   20.3046 N   0  0  0  0  0  0  0  0  0  0  0  0
   10.2600  -18.0482   20.2692 C   0  0  1  0  0  0  0  0  0  0  0  0
   10.3863  -17.5243   18.8828 C   0  0  0  0  0  0  0  0  0  0  0  0
   11.2766  -18.4126   18.0660 C   0  0  0  0  0  0  0  0  0  0  0  0
   11.5564  -17.8869   16.6748 C   0  0  0  0  0  0  0  0  0  0  0  0
   12.4234  -18.8663   15.8929 C   0  0  0  0  0  0  0  0  0  0  0  0
   13.8200  -18.7421   16.2150 N   0  0  0  0  0  0  0  0  0  0  0  0
    9.9890  -16.9787   21.2650 C   0  0  0  0  0  0  0  0  0  0  0  0
   10.8308  -16.0482   21.4093 O   0  0  0  0  0  0  0  0  0  0  0  0
    8.8362  -16.9108   22.0887 N   0  0  0  0  0  0  0  0  0  0  0  0
    8.6030  -15.8280   23.0230 C   0  0  1  0  0  0  0  0  0  0  0  0
    7.1272  -15.5317   23.1829 C   0  0  0  0  0  0  0  0  0  0  0  0
    6.9076  -14.3588   24.0450 C   0  0  0  0  0  0  0  0  0  0  0  0
    7.3884  -13.1188   23.6680 C   0  0  0  0  0  0  0  0  0  0  0  0
    7.1729  -12.0292   24.4895 C   0  0  0  0  0  0  0  0  0  0  0  0
    6.4894  -12.1211   25.6883 C   0  0  0  0  0  0  0  0  0  0  0  0
    6.0173  -13.3671   26.0471 C   0  0  0  0  0  0  0  0  0  0  0  0
    6.2247  -14.4743   25.2331 C   0  0  0  0  0  0  0  0  0  0  0  0
    9.1181  -16.2286   24.3420 C   0  0  0  0  0  0  0  0  0  0  0  0
    9.0828  -17.4222   24.6945 O   0  0  0  0  0  0  0  0  0  0  0  0
    9.8199  -13.3442   29.5724 C   0  0  0  0  0  0  0  0  0  0  0  0
   10.2732  -14.6143   28.8379 C   0  0  2  0  0  0  0  0  0  0  0  0
   11.7341  -14.8145   29.0846 C   0  0  0  0  0  0  0  0  0  0  0  0
    9.9306  -14.4097   27.4027 C   0  0  0  0  0  0  0  0  0  0  0  0
   10.2009  -15.5976   26.5122 C   0  0  2  0  0  0  0  0  0  0  0  0
    9.6546  -15.2587   25.2126 N   0  0  0  0  0  0  0  0  0  0  0  0
    9.5873  -16.8484   26.9686 C   0  0  0  0  0  0  0  0  0  0  0  0
    8.2057  -16.9504   26.9921 O   0  0  0  0  0  0  0  0  0  0  0  0
   10.2656  -17.8423   27.3433 O   0  0  0  0  0  0  0  0  0  0  0  0
  2  3  1  0
  2  1  1  6
  4  3  1  0
  4  5  1  0
  6  5  1  0
  6  7  1  0
  8  2  1  0
  9  8  2  0
 10  8  1  0
 11 10  1  0
 11 12  1  1
 12 13  1  0
 13 14  2  0
 14 15  1  0
 16 15  2  0
 17 16  1  0
 18 13  1  0
 18 17  2  0
 19 11  1  0
 19 20  2  0
 22 21  1  1
 22 24  1  0
 23 22  1  0
 25 24  1  1
 25 26  1  0
 26 19  1  0
 27 25  1  0
 28 27  1  0
 29 27  2  0
M  END
$$$$
