KFL.pdb
     RDKit          3D

 29 29  0  0  1  0  0  0  0  0999 V2000
    9.1510  -18.8875   20.4971 N   0  0  0  0  0  0  0  0  0  0  0  0
   10.1560  -17.8471   20.5180 C   0  0  1  0  0  0  0  0  0  0  0  0
   10.1749  -17.1477   19.2054 C   0  0  0  0  0  0  0  0  0  0  0  0
   10.8502  -17.9957   18.1693 C   0  0  0  0  0  0  0  0  0  0  0  0
   11.4001  -17.2104   16.9984 C   0  0  0  0  0  0  0  0  0  0  0  0
   11.8909  -18.1490   15.9029 C   0  0  0  0  0  0  0  0  0  0  0  0
   12.1765  -17.4575   14.6740 N   0  0  0  0  0  0  0  0  0  0  0  0
    9.9651  -16.9175   21.6617 C   0  0  0  0  0  0  0  0  0  0  0  0
   10.8061  -15.9935   21.8472 O   0  0  0  0  0  0  0  0  0  0  0  0
    8.8917  -16.9796   22.5869 N   0  0  0  0  0  0  0  0  0  0  0  0
    8.7719  -16.0726   23.7106 C   0  0  1  0  0  0  0  0  0  0  0  0
    7.3776  -16.0891   24.2999 C   0  0  0  0  0  0  0  0  0  0  0  0
    7.0358  -14.7896   24.9011 C   0  0  0  0  0  0  0  0  0  0  0  0
    6.2853  -14.7355   26.0607 C   0  0  0  0  0  0  0  0  0  0  0  0
    5.9741  -13.5072   26.6108 C   0  0  0  0  0  0  0  0  0  0  0  0
    6.3834  -12.3116   26.0487 C   0  0  0  0  0  0  0  0  0  0  0  0
    7.1315  -12.3864   24.8916 C   0  0  0  0  0  0  0  0  0  0  0  0
    7.4541  -13.6133   24.3241 C   0  0  0  0  0  0  0  0  0  0  0  0
    9.7018  -16.5079   24.7649 C   0  0  0  0  0  0  0  0  0  0  0  0
   10.4805  -17.4581   24.5630 O   0  0  0  0  0  0  0  0  0  0  0  0
   12.1877  -13.7879   26.7763 C   0  0  0  0  0  0  0  0  0  0  0  0
   10.7871  -13.7911   27.4059 C   0  0  2  0  0  0  0  0  0  0  0  0
   10.6836  -12.6358   28.3493 C   0  0  0  0  0  0  0  0  0  0  0  0
   10.6300  -15.1180   28.0645 C   0  0  0  0  0  0  0  0  0  0  0  0
   10.5407  -16.2884   27.1161 C   0  0  2  0  0  0  0  0  0  0  0  0
    9.7131  -15.8478   26.0101 N   0  0  0  0  0  0  0  0  0  0  0  0
    9.9448  -17.4949   27.6979 C   0  0  0  0  0  0  0  0  0  0  0  0
    8.6522  -17.8453   27.3423 O   0  0  0  0  0  0  0  0  0  0  0  0
   10.5604  -18.2331   28.5131 O   0  0  0  0  0  0  0  0  0  0  0  0
  2  3  1  0
  2  1  1  6
  4  3  1  0
  4  5  1  0
  6  5  1  0
  6  7  1  0
  8  2  1  0
  9  8  2  0
 10  8  1  0
 11 10  1  0
 11 12  1  1
 12 13  1  0
 13 14  2  0
 14 15  1  0
 16 15  2  0
 17 16  1  0
 18 13  1  0
 18 17  2  0
 19 11  1  0
 19 20  2  0
 22 21  1  1
 22 24  1  0
 23 22  1  0
 25 24  1  1
 25 26  1  0
 26 19  1  0
 27 25  1  0
 28 27  1  0
 29 27  2  0
M  END
$$$$
