CDP.pdb
     RDKit          3D

 22 22  0  0  1  0  0  0  0  0999 V2000
   22.2353   -3.3357  -15.9398 N   0  0  0  0  0  0  0  0  0  0  0  0
   21.4141   -4.1967  -15.1552 C   0  0  1  0  0  0  0  0  0  0  0  0
   19.9865   -3.6615  -15.2209 C   0  0  0  0  0  0  0  0  0  0  0  0
   19.8417   -2.1630  -14.2252 S   0  0  0  0  0  0  0  0  0  0  0  0
   21.3484   -5.5639  -15.8049 C   0  0  0  0  0  0  0  0  0  0  0  0
   21.5849   -5.5570  -17.0327 O   0  0  0  0  0  0  0  0  0  0  0  0
   21.0453   -6.6800  -15.0343 N   0  0  0  0  0  0  0  0  0  0  0  0
   21.1290   -8.0419  -15.5211 C   0  0  1  0  0  0  0  0  0  0  0  0
   22.2256   -8.6772  -14.6659 C   0  0  0  0  0  0  0  0  0  0  0  0
   22.6062  -10.0401  -14.9891 C   0  0  0  0  0  0  0  0  0  0  0  0
   22.1347  -10.7893  -15.8332 O   0  0  0  0  0  0  0  0  0  0  0  0
   19.8004   -8.6367  -15.3303 C   0  0  0  0  0  0  0  0  0  0  0  0
   19.2589   -8.6170  -14.1498 O   0  0  0  0  0  0  0  0  0  0  0  0
   23.6700  -10.5795  -14.2233 O   0  0  0  0  0  0  0  0  0  0  0  0
   18.9767   -9.2559  -16.3028 N   0  0  0  0  0  0  0  0  0  0  0  0
   19.3739   -9.3231  -17.7235 C   0  0  0  0  0  0  0  0  0  0  0  0
   18.0434   -9.6648  -18.4202 C   0  0  0  0  0  0  0  0  0  0  0  0
   17.5312  -10.6874  -17.4382 C   0  0  0  0  0  0  0  0  0  0  0  0
   17.7584   -9.9596  -16.0925 C   0  0  1  0  0  0  0  0  0  0  0  0
   17.8976  -11.0520  -15.0818 C   0  0  0  0  0  0  0  0  0  0  0  0
   16.9015  -11.4163  -14.4374 O   0  0  0  0  0  0  0  0  0  0  0  0
   19.1152  -11.6497  -14.8652 O   0  0  0  0  0  0  0  0  0  0  0  0
  2  1  1  6
  2  5  1  0
  2  3  1  0
  4  3  1  0
  5  6  2  0
  7  5  1  0
  7  8  1  0
  8 12  1  0
  8  9  1  1
 10  9  1  0
 10 11  2  0
 12 13  2  0
 12 15  1  0
 14 10  1  0
 15 16  1  0
 15 19  1  0
 16 17  1  0
 17 18  1  0
 19 18  1  0
 19 20  1  1
 20 22  1  0
 21 20  2  0
M  END
$$$$
