CDP.pdb
     RDKit          3D

 22 22  0  0  1  0  0  0  0  0999 V2000
   13.9413   -8.4167   -8.5977 N   0  0  0  0  0  0  0  0  0  0  0  0
   14.6103   -7.3559   -9.2746 C   0  0  1  0  0  0  0  0  0  0  0  0
   15.1290   -6.3858   -8.2169 C   0  0  0  0  0  0  0  0  0  0  0  0
   13.7500   -5.4990   -7.4621 S   0  0  0  0  0  0  0  0  0  0  0  0
   15.8532   -7.8933   -9.9542 C   0  0  0  0  0  0  0  0  0  0  0  0
   16.3535   -8.8898   -9.3881 O   0  0  0  0  0  0  0  0  0  0  0  0
   16.3326   -7.2762  -11.1035 N   0  0  0  0  0  0  0  0  0  0  0  0
   17.3020   -7.8778  -11.9962 C   0  0  1  0  0  0  0  0  0  0  0  0
   16.4500   -8.5786  -13.0548 C   0  0  0  0  0  0  0  0  0  0  0  0
   17.0971   -9.6117  -13.8427 C   0  0  0  0  0  0  0  0  0  0  0  0
   16.9421   -9.8864  -15.0245 O   0  0  0  0  0  0  0  0  0  0  0  0
   18.1255   -6.7811  -12.5198 C   0  0  0  0  0  0  0  0  0  0  0  0
   17.5442   -5.7327  -13.0199 O   0  0  0  0  0  0  0  0  0  0  0  0
   18.0384  -10.4141  -13.1502 O   0  0  0  0  0  0  0  0  0  0  0  0
   19.5394   -6.6942  -12.5530 N   0  0  0  0  0  0  0  0  0  0  0  0
   20.3930   -7.7407  -11.9559 C   0  0  0  0  0  0  0  0  0  0  0  0
   21.7559   -7.0311  -11.8494 C   0  0  0  0  0  0  0  0  0  0  0  0
   21.7525   -6.3350  -13.1865 C   0  0  0  0  0  0  0  0  0  0  0  0
   20.3370   -5.7118  -13.2030 C   0  0  1  0  0  0  0  0  0  0  0  0
   19.9962   -5.5669  -14.6511 C   0  0  0  0  0  0  0  0  0  0  0  0
   20.2739   -4.5102  -15.2397 O   0  0  0  0  0  0  0  0  0  0  0  0
   19.3811   -6.5918  -15.3280 O   0  0  0  0  0  0  0  0  0  0  0  0
  2  1  1  1
  2  5  1  0
  2  3  1  0
  4  3  1  0
  5  6  2  0
  7  5  1  0
  7  8  1  0
  8 12  1  0
  8  9  1  6
 10  9  1  0
 10 11  2  0
 12 13  2  0
 12 15  1  0
 14 10  1  0
 15 16  1  0
 15 19  1  0
 16 17  1  0
 17 18  1  0
 19 18  1  0
 19 20  1  6
 20 22  1  0
 21 20  2  0
M  END
$$$$
