CDP.pdb
     RDKit          3D

 22 22  0  0  1  0  0  0  0  0999 V2000
   18.5730  -15.8613  -17.8641 N   0  0  0  0  0  0  0  0  0  0  0  0
   18.7113  -14.9507  -16.7765 C   0  0  1  0  0  0  0  0  0  0  0  0
   19.7300  -15.5405  -15.8053 C   0  0  0  0  0  0  0  0  0  0  0  0
   18.9878  -16.9029  -14.8829 S   0  0  0  0  0  0  0  0  0  0  0  0
   19.3422  -13.6647  -17.2703 C   0  0  0  0  0  0  0  0  0  0  0  0
   19.7921  -13.7318  -18.4351 O   0  0  0  0  0  0  0  0  0  0  0  0
   19.3785  -12.5509  -16.4399 N   0  0  0  0  0  0  0  0  0  0  0  0
   19.6142  -11.2016  -16.9118 C   0  0  1  0  0  0  0  0  0  0  0  0
   18.4444  -10.9271  -17.8572 C   0  0  0  0  0  0  0  0  0  0  0  0
   18.3720   -9.6034  -18.4480 C   0  0  0  0  0  0  0  0  0  0  0  0
   19.2131   -9.0103  -19.1090 O   0  0  0  0  0  0  0  0  0  0  0  0
   19.6382  -10.3409  -15.7228 C   0  0  0  0  0  0  0  0  0  0  0  0
   18.6428  -10.3806  -14.8893 O   0  0  0  0  0  0  0  0  0  0  0  0
   17.1614   -8.8985  -18.2310 O   0  0  0  0  0  0  0  0  0  0  0  0
   20.6491   -9.4294  -15.3290 N   0  0  0  0  0  0  0  0  0  0  0  0
   21.9012   -9.2832  -16.0979 C   0  0  0  0  0  0  0  0  0  0  0  0
   22.8172   -8.5535  -15.0975 C   0  0  0  0  0  0  0  0  0  0  0  0
   21.8152   -7.5680  -14.5523 C   0  0  0  0  0  0  0  0  0  0  0  0
   20.6072   -8.4891  -14.2622 C   0  0  1  0  0  0  0  0  0  0  0  0
   19.4126   -7.5939  -14.3373 C   0  0  0  0  0  0  0  0  0  0  0  0
   18.8348   -7.4389  -15.4247 O   0  0  0  0  0  0  0  0  0  0  0  0
   18.9552   -6.9469  -13.2152 O   0  0  0  0  0  0  0  0  0  0  0  0
  2  1  1  6
  2  5  1  0
  2  3  1  0
  4  3  1  0
  5  6  2  0
  7  5  1  0
  7  8  1  0
  8 12  1  0
  8  9  1  6
 10  9  1  0
 10 11  2  0
 12 13  2  0
 12 15  1  0
 14 10  1  0
 15 16  1  0
 15 19  1  0
 16 17  1  0
 17 18  1  0
 19 18  1  0
 19 20  1  6
 20 22  1  0
 21 20  2  0
M  END
$$$$
