CDP.pdb
     RDKit          3D

 22 22  0  0  1  0  0  0  0  0999 V2000
   25.5327  -22.3209  -11.5954 N   0  0  0  0  0  0  0  0  0  0  0  0
   25.3041  -20.9319  -11.8176 C   0  0  1  0  0  0  0  0  0  0  0  0
   26.3756  -20.1582  -11.0544 C   0  0  0  0  0  0  0  0  0  0  0  0
   25.8374  -19.8689   -9.3560 S   0  0  0  0  0  0  0  0  0  0  0  0
   25.5515  -20.6051  -13.2762 C   0  0  0  0  0  0  0  0  0  0  0  0
   26.5648  -21.1574  -13.7578 O   0  0  0  0  0  0  0  0  0  0  0  0
   24.6814  -19.7566  -13.9503 N   0  0  0  0  0  0  0  0  0  0  0  0
   24.6481  -19.6165  -15.3918 C   0  0  1  0  0  0  0  0  0  0  0  0
   23.1682  -19.4048  -15.7122 C   0  0  0  0  0  0  0  0  0  0  0  0
   22.2934  -20.5545  -15.5728 C   0  0  0  0  0  0  0  0  0  0  0  0
   21.1383  -20.5965  -15.1725 O   0  0  0  0  0  0  0  0  0  0  0  0
   25.5024  -18.4687  -15.7203 C   0  0  0  0  0  0  0  0  0  0  0  0
   25.2215  -17.3036  -15.2198 O   0  0  0  0  0  0  0  0  0  0  0  0
   22.8513  -21.8013  -15.9517 O   0  0  0  0  0  0  0  0  0  0  0  0
   26.6556  -18.4500  -16.5436 N   0  0  0  0  0  0  0  0  0  0  0  0
   27.2357  -19.6927  -17.0907 C   0  0  0  0  0  0  0  0  0  0  0  0
   28.6423  -19.2362  -17.5213 C   0  0  0  0  0  0  0  0  0  0  0  0
   28.2709  -17.9094  -18.1330 C   0  0  0  0  0  0  0  0  0  0  0  0
   27.3545  -17.3141  -17.0384 C   0  0  1  0  0  0  0  0  0  0  0  0
   26.4572  -16.3626  -17.7621 C   0  0  0  0  0  0  0  0  0  0  0  0
   25.3766  -16.7700  -18.2164 O   0  0  0  0  0  0  0  0  0  0  0  0
   26.8218  -15.0482  -17.9249 O   0  0  0  0  0  0  0  0  0  0  0  0
  2  1  1  6
  2  5  1  0
  2  3  1  0
  4  3  1  0
  5  6  2  0
  7  5  1  0
  7  8  1  0
  8 12  1  0
  8  9  1  1
 10  9  1  0
 10 11  2  0
 12 13  2  0
 12 15  1  0
 14 10  1  0
 15 16  1  0
 15 19  1  0
 16 17  1  0
 17 18  1  0
 19 18  1  0
 19 20  1  6
 20 22  1  0
 21 20  2  0
M  END
$$$$
