CDP.pdb
     RDKit          3D

 22 22  0  0  1  0  0  0  0  0999 V2000
   15.8992  -12.6084  -14.3377 N   0  0  0  0  0  0  0  0  0  0  0  0
   15.1733  -11.3920  -14.1810 C   0  0  1  0  0  0  0  0  0  0  0  0
   13.7825  -11.7461  -13.6622 C   0  0  0  0  0  0  0  0  0  0  0  0
   12.8410  -12.5948  -14.9472 S   0  0  0  0  0  0  0  0  0  0  0  0
   15.8025  -10.5656  -13.0778 C   0  0  0  0  0  0  0  0  0  0  0  0
   16.2289  -11.2403  -12.1152 O   0  0  0  0  0  0  0  0  0  0  0  0
   15.8621   -9.1825  -13.2004 N   0  0  0  0  0  0  0  0  0  0  0  0
   16.5026   -8.3150  -12.2330 C   0  0  1  0  0  0  0  0  0  0  0  0
   17.3961   -7.4077  -13.0792 C   0  0  0  0  0  0  0  0  0  0  0  0
   18.7309   -7.8924  -13.3790 C   0  0  0  0  0  0  0  0  0  0  0  0
   19.4999   -8.5177  -12.6622 O   0  0  0  0  0  0  0  0  0  0  0  0
   15.4263   -7.6076  -11.5285 C   0  0  0  0  0  0  0  0  0  0  0  0
   14.4369   -7.1147  -12.2106 O   0  0  0  0  0  0  0  0  0  0  0  0
   19.2123   -7.6030  -14.6805 O   0  0  0  0  0  0  0  0  0  0  0  0
   15.3015   -7.3793  -10.1356 N   0  0  0  0  0  0  0  0  0  0  0  0
   16.3039   -7.8843   -9.1761 C   0  0  0  0  0  0  0  0  0  0  0  0
   15.5537   -7.7835   -7.8346 C   0  0  0  0  0  0  0  0  0  0  0  0
   14.9023   -6.4399   -8.0413 C   0  0  0  0  0  0  0  0  0  0  0  0
   14.3194   -6.5986   -9.4650 C   0  0  1  0  0  0  0  0  0  0  0  0
   14.2316   -5.2070  -10.0033 C   0  0  0  0  0  0  0  0  0  0  0  0
   13.2078   -4.5369   -9.7959 O   0  0  0  0  0  0  0  0  0  0  0  0
   15.2725   -4.6709  -10.7217 O   0  0  0  0  0  0  0  0  0  0  0  0
  2  1  1  1
  2  5  1  0
  2  3  1  0
  4  3  1  0
  5  6  2  0
  7  5  1  0
  7  8  1  0
  8 12  1  0
  8  9  1  6
 10  9  1  0
 10 11  2  0
 12 13  2  0
 12 15  1  0
 14 10  1  0
 15 16  1  0
 15 19  1  0
 16 17  1  0
 17 18  1  0
 19 18  1  0
 19 20  1  6
 20 22  1  0
 21 20  2  0
M  END
$$$$
