CDP.pdb
     RDKit          3D

 22 22  0  0  1  0  0  0  0  0999 V2000
   17.2248  -13.6144  -15.3250 N   0  0  0  0  0  0  0  0  0  0  0  0
   17.0092  -12.2707  -15.7480 C   0  0  1  0  0  0  0  0  0  0  0  0
   16.0155  -11.6343  -14.7802 C   0  0  0  0  0  0  0  0  0  0  0  0
   14.3533  -12.2606  -15.1003 S   0  0  0  0  0  0  0  0  0  0  0  0
   18.2866  -11.4744  -15.5752 C   0  0  0  0  0  0  0  0  0  0  0  0
   18.9772  -11.8250  -14.5934 O   0  0  0  0  0  0  0  0  0  0  0  0
   18.5928  -10.4583  -16.4725 N   0  0  0  0  0  0  0  0  0  0  0  0
   19.8595   -9.7556  -16.4920 C   0  0  1  0  0  0  0  0  0  0  0  0
   20.1075   -9.4742  -17.9742 C   0  0  0  0  0  0  0  0  0  0  0  0
   21.4813   -9.5449  -18.4370 C   0  0  0  0  0  0  0  0  0  0  0  0
   22.4928   -9.8098  -17.8022 O   0  0  0  0  0  0  0  0  0  0  0  0
   19.6811   -8.5491  -15.6748 C   0  0  0  0  0  0  0  0  0  0  0  0
   18.5553   -7.9039  -15.7315 O   0  0  0  0  0  0  0  0  0  0  0  0
   21.6816   -9.2698  -19.8130 O   0  0  0  0  0  0  0  0  0  0  0  0
   20.6080   -7.9599  -14.7795 N   0  0  0  0  0  0  0  0  0  0  0  0
   21.9326   -8.5629  -14.5298 C   0  0  0  0  0  0  0  0  0  0  0  0
   22.3742   -7.8588  -13.2329 C   0  0  0  0  0  0  0  0  0  0  0  0
   21.9186   -6.4617  -13.5689 C   0  0  0  0  0  0  0  0  0  0  0  0
   20.4848   -6.7239  -14.0862 C   0  0  1  0  0  0  0  0  0  0  0  0
   20.1910   -5.5815  -15.0043 C   0  0  0  0  0  0  0  0  0  0  0  0
   19.4192   -4.6837  -14.6321 O   0  0  0  0  0  0  0  0  0  0  0  0
   20.7680   -5.5222  -16.2494 O   0  0  0  0  0  0  0  0  0  0  0  0
  2  1  1  1
  2  5  1  0
  2  3  1  0
  4  3  1  0
  5  6  2  0
  7  5  1  0
  7  8  1  0
  8 12  1  0
  8  9  1  6
 10  9  1  0
 10 11  2  0
 12 13  2  0
 12 15  1  0
 14 10  1  0
 15 16  1  0
 15 19  1  0
 16 17  1  0
 17 18  1  0
 19 18  1  0
 19 20  1  6
 20 22  1  0
 21 20  2  0
M  END
$$$$
