CDP.pdb
     RDKit          3D

 22 22  0  0  1  0  0  0  0  0999 V2000
   13.7559   -8.3093   -8.6860 N   0  0  0  0  0  0  0  0  0  0  0  0
   14.7625   -7.4257   -9.1729 C   0  0  1  0  0  0  0  0  0  0  0  0
   15.3127   -6.6483   -7.9804 C   0  0  0  0  0  0  0  0  0  0  0  0
   14.0274   -5.5868   -7.2884 S   0  0  0  0  0  0  0  0  0  0  0  0
   15.9372   -8.2318   -9.6887 C   0  0  0  0  0  0  0  0  0  0  0  0
   16.0060   -9.3894   -9.2208 O   0  0  0  0  0  0  0  0  0  0  0  0
   16.8171   -7.6623  -10.6013 N   0  0  0  0  0  0  0  0  0  0  0  0
   17.4196   -8.3888  -11.7004 C   0  0  1  0  0  0  0  0  0  0  0  0
   16.2273   -8.8727  -12.5261 C   0  0  0  0  0  0  0  0  0  0  0  0
   16.4659   -9.9682  -13.4478 C   0  0  0  0  0  0  0  0  0  0  0  0
   16.9854  -11.0543  -13.2316 O   0  0  0  0  0  0  0  0  0  0  0  0
   18.2890   -7.4377  -12.4037 C   0  0  0  0  0  0  0  0  0  0  0  0
   17.8017   -6.2976  -12.7908 O   0  0  0  0  0  0  0  0  0  0  0  0
   16.0394   -9.7530  -14.7824 O   0  0  0  0  0  0  0  0  0  0  0  0
   19.6589   -7.5901  -12.7322 N   0  0  0  0  0  0  0  0  0  0  0  0
   20.4302   -8.7740  -12.3031 C   0  0  0  0  0  0  0  0  0  0  0  0
   21.8846   -8.3060  -12.4978 C   0  0  0  0  0  0  0  0  0  0  0  0
   21.7192   -7.6007  -13.8197 C   0  0  0  0  0  0  0  0  0  0  0  0
   20.4567   -6.7474  -13.5551 C   0  0  1  0  0  0  0  0  0  0  0  0
   19.8505   -6.5269  -14.9034 C   0  0  0  0  0  0  0  0  0  0  0  0
   19.0546   -7.3637  -15.3579 O   0  0  0  0  0  0  0  0  0  0  0  0
   20.1688   -5.4094  -15.6361 O   0  0  0  0  0  0  0  0  0  0  0  0
  2  1  1  1
  2  5  1  0
  2  3  1  0
  4  3  1  0
  5  6  2  0
  7  5  1  0
  7  8  1  0
  8 12  1  0
  8  9  1  6
 10  9  1  0
 10 11  2  0
 12 13  2  0
 12 15  1  0
 14 10  1  0
 15 16  1  0
 15 19  1  0
 16 17  1  0
 17 18  1  0
 19 18  1  0
 19 20  1  6
 20 22  1  0
 21 20  2  0
M  END
$$$$
