CDP.pdb
     RDKit          3D

 22 22  0  0  1  0  0  0  0  0999 V2000
   17.0359  -14.2364  -17.7389 N   0  0  0  0  0  0  0  0  0  0  0  0
   16.9180  -12.8921  -17.2807 C   0  0  1  0  0  0  0  0  0  0  0  0
   16.1927  -12.9222  -15.9383 C   0  0  0  0  0  0  0  0  0  0  0  0
   16.1251  -11.2614  -15.2348 S   0  0  0  0  0  0  0  0  0  0  0  0
   18.2945  -12.3412  -16.9682 C   0  0  0  0  0  0  0  0  0  0  0  0
   19.0215  -13.1239  -16.3183 O   0  0  0  0  0  0  0  0  0  0  0  0
   18.6424  -11.0674  -17.4014 N   0  0  0  0  0  0  0  0  0  0  0  0
   19.9446  -10.4706  -17.1849 C   0  0  1  0  0  0  0  0  0  0  0  0
   20.4819  -10.2253  -18.5951 C   0  0  0  0  0  0  0  0  0  0  0  0
   21.7951   -9.6166  -18.7028 C   0  0  0  0  0  0  0  0  0  0  0  0
   22.1024   -8.5331  -19.1799 O   0  0  0  0  0  0  0  0  0  0  0  0
   19.7193   -9.2454  -16.4082 C   0  0  0  0  0  0  0  0  0  0  0  0
   18.7462   -8.4520  -16.7408 O   0  0  0  0  0  0  0  0  0  0  0  0
   22.8711  -10.3802  -18.1848 O   0  0  0  0  0  0  0  0  0  0  0  0
   20.4455   -8.7830  -15.2827 N   0  0  0  0  0  0  0  0  0  0  0  0
   21.5767   -9.5500  -14.7235 C   0  0  0  0  0  0  0  0  0  0  0  0
   21.7473   -8.9144  -13.3310 C   0  0  0  0  0  0  0  0  0  0  0  0
   21.5670   -7.4691  -13.7195 C   0  0  0  0  0  0  0  0  0  0  0  0
   20.2964   -7.5450  -14.5981 C   0  0  1  0  0  0  0  0  0  0  0  0
   20.3918   -6.3698  -15.5167 C   0  0  0  0  0  0  0  0  0  0  0  0
   20.9352   -6.5048  -16.6243 O   0  0  0  0  0  0  0  0  0  0  0  0
   19.8839   -5.1497  -15.1422 O   0  0  0  0  0  0  0  0  0  0  0  0
  2  1  1  1
  2  5  1  0
  2  3  1  0
  4  3  1  0
  5  6  2  0
  7  5  1  0
  7  8  1  0
  8 12  1  0
  8  9  1  6
 10  9  1  0
 10 11  2  0
 12 13  2  0
 12 15  1  0
 14 10  1  0
 15 16  1  0
 15 19  1  0
 16 17  1  0
 17 18  1  0
 19 18  1  0
 19 20  1  6
 20 22  1  0
 21 20  2  0
M  END
$$$$
