CDP.pdb
     RDKit          3D

 22 22  0  0  1  0  0  0  0  0999 V2000
   20.9828  -19.3096  -18.7296 N   0  0  0  0  0  0  0  0  0  0  0  0
   21.1708  -19.0130  -17.3484 C   0  0  1  0  0  0  0  0  0  0  0  0
   20.0325  -19.6717  -16.5741 C   0  0  0  0  0  0  0  0  0  0  0  0
   20.1423  -19.2381  -14.8255 S   0  0  0  0  0  0  0  0  0  0  0  0
   22.4280  -19.6964  -16.8504 C   0  0  0  0  0  0  0  0  0  0  0  0
   22.5695  -20.8680  -17.2638 O   0  0  0  0  0  0  0  0  0  0  0  0
   23.2982  -19.0125  -16.0098 N   0  0  0  0  0  0  0  0  0  0  0  0
   24.5152  -19.5854  -15.4718 C   0  0  1  0  0  0  0  0  0  0  0  0
   25.5152  -18.4292  -15.4979 C   0  0  0  0  0  0  0  0  0  0  0  0
   26.2496  -18.2216  -16.7326 C   0  0  0  0  0  0  0  0  0  0  0  0
   26.7174  -17.1850  -17.1828 O   0  0  0  0  0  0  0  0  0  0  0  0
   24.1905  -20.0663  -14.1233 C   0  0  0  0  0  0  0  0  0  0  0  0
   23.4684  -19.3230  -13.3402 O   0  0  0  0  0  0  0  0  0  0  0  0
   26.4543  -19.3769  -17.5280 O   0  0  0  0  0  0  0  0  0  0  0  0
   24.5659  -21.2941  -13.5237 N   0  0  0  0  0  0  0  0  0  0  0  0
   25.3454  -22.3086  -14.2611 C   0  0  0  0  0  0  0  0  0  0  0  0
   25.1360  -23.5704  -13.4030 C   0  0  0  0  0  0  0  0  0  0  0  0
   25.2800  -22.9424  -12.0401 C   0  0  0  0  0  0  0  0  0  0  0  0
   24.3644  -21.7033  -12.1763 C   0  0  1  0  0  0  0  0  0  0  0  0
   24.9037  -20.7152  -11.1930 C   0  0  0  0  0  0  0  0  0  0  0  0
   25.7319  -19.8711  -11.5694 O   0  0  0  0  0  0  0  0  0  0  0  0
   24.4889  -20.7378   -9.8837 O   0  0  0  0  0  0  0  0  0  0  0  0
  2  1  1  6
  2  5  1  0
  2  3  1  0
  4  3  1  0
  5  6  2  0
  7  5  1  0
  7  8  1  0
  8 12  1  0
  8  9  1  1
 10  9  1  0
 10 11  2  0
 12 13  2  0
 12 15  1  0
 14 10  1  0
 15 16  1  0
 15 19  1  0
 16 17  1  0
 17 18  1  0
 19 18  1  0
 19 20  1  1
 20 22  1  0
 21 20  2  0
M  END
$$$$
