CDP.pdb
     RDKit          3D

 22 22  0  0  1  0  0  0  0  0999 V2000
   19.5221  -13.2597  -17.6414 N   0  0  0  0  0  0  0  0  0  0  0  0
   19.2949  -12.4029  -16.5254 C   0  0  1  0  0  0  0  0  0  0  0  0
   20.1838  -12.8852  -15.3826 C   0  0  0  0  0  0  0  0  0  0  0  0
   19.3133  -14.1275  -14.4044 S   0  0  0  0  0  0  0  0  0  0  0  0
   19.7949  -11.0093  -16.8472 C   0  0  0  0  0  0  0  0  0  0  0  0
   20.7906  -10.9867  -17.6033 O   0  0  0  0  0  0  0  0  0  0  0  0
   19.1483   -9.9030  -16.3092 N   0  0  0  0  0  0  0  0  0  0  0  0
   19.4418   -8.5356  -16.6872 C   0  0  1  0  0  0  0  0  0  0  0  0
   18.0765   -7.8475  -16.6887 C   0  0  0  0  0  0  0  0  0  0  0  0
   18.0581   -6.4218  -16.9602 C   0  0  0  0  0  0  0  0  0  0  0  0
   17.5126   -5.5270  -16.3295 O   0  0  0  0  0  0  0  0  0  0  0  0
   20.3743   -8.0144  -15.6802 C   0  0  0  0  0  0  0  0  0  0  0  0
   20.1243   -8.2103  -14.4208 O   0  0  0  0  0  0  0  0  0  0  0  0
   18.7690   -6.0063  -18.1141 O   0  0  0  0  0  0  0  0  0  0  0  0
   21.5762   -7.2958  -15.8969 N   0  0  0  0  0  0  0  0  0  0  0  0
   22.0841   -7.0302  -17.2578 C   0  0  0  0  0  0  0  0  0  0  0  0
   23.5492   -6.6376  -16.9902 C   0  0  0  0  0  0  0  0  0  0  0  0
   23.3316   -5.7686  -15.7778 C   0  0  0  0  0  0  0  0  0  0  0  0
   22.3991   -6.6610  -14.9255 C   0  0  1  0  0  0  0  0  0  0  0  0
   21.6343   -5.7082  -14.0645 C   0  0  0  0  0  0  0  0  0  0  0  0
   22.1194   -5.3403  -12.9831 O   0  0  0  0  0  0  0  0  0  0  0  0
   20.4053   -5.2418  -14.4630 O   0  0  0  0  0  0  0  0  0  0  0  0
  2  1  1  6
  2  5  1  0
  2  3  1  0
  4  3  1  0
  5  6  2  0
  7  5  1  0
  7  8  1  0
  8 12  1  0
  8  9  1  1
 10  9  1  0
 10 11  2  0
 12 13  2  0
 12 15  1  0
 14 10  1  0
 15 16  1  0
 15 19  1  0
 16 17  1  0
 17 18  1  0
 19 18  1  0
 19 20  1  1
 20 22  1  0
 21 20  2  0
M  END
$$$$
