CDP.pdb
     RDKit          3D

 22 22  0  0  1  0  0  0  0  0999 V2000
   23.4974  -13.4439  -16.0328 N   0  0  0  0  0  0  0  0  0  0  0  0
   24.0705  -12.1684  -16.3077 C   0  0  1  0  0  0  0  0  0  0  0  0
   24.8919  -12.2958  -17.5876 C   0  0  0  0  0  0  0  0  0  0  0  0
   26.2909  -13.4035  -17.3166 S   0  0  0  0  0  0  0  0  0  0  0  0
   22.9715  -11.1818  -16.6460 C   0  0  0  0  0  0  0  0  0  0  0  0
   22.1667  -11.5918  -17.5109 O   0  0  0  0  0  0  0  0  0  0  0  0
   22.9305   -9.9486  -16.0066 N   0  0  0  0  0  0  0  0  0  0  0  0
   21.7921   -9.0539  -16.0542 C   0  0  1  0  0  0  0  0  0  0  0  0
   20.6887   -9.8143  -15.3181 C   0  0  0  0  0  0  0  0  0  0  0  0
   19.4037   -9.1513  -15.1919 C   0  0  0  0  0  0  0  0  0  0  0  0
   18.7988   -8.8358  -14.1767 O   0  0  0  0  0  0  0  0  0  0  0  0
   22.2083   -7.8118  -15.3916 C   0  0  0  0  0  0  0  0  0  0  0  0
   22.6980   -7.8660  -14.1897 O   0  0  0  0  0  0  0  0  0  0  0  0
   18.7588   -8.8231  -16.4108 O   0  0  0  0  0  0  0  0  0  0  0  0
   22.1565   -6.4923  -15.9052 N   0  0  0  0  0  0  0  0  0  0  0  0
   21.5837   -6.2017  -17.2349 C   0  0  0  0  0  0  0  0  0  0  0  0
   22.1236   -4.7882  -17.5228 C   0  0  0  0  0  0  0  0  0  0  0  0
   21.9233   -4.1876  -16.1547 C   0  0  0  0  0  0  0  0  0  0  0  0
   22.5256   -5.2860  -15.2476 C   0  0  1  0  0  0  0  0  0  0  0  0
   21.8369   -5.1200  -13.9314 C   0  0  0  0  0  0  0  0  0  0  0  0
   20.8245   -5.7939  -13.6842 O   0  0  0  0  0  0  0  0  0  0  0  0
   22.3169   -4.2304  -13.0013 O   0  0  0  0  0  0  0  0  0  0  0  0
  2  1  1  6
  2  5  1  0
  2  3  1  0
  4  3  1  0
  5  6  2  0
  7  5  1  0
  7  8  1  0
  8 12  1  0
  8  9  1  1
 10  9  1  0
 10 11  2  0
 12 13  2  0
 12 15  1  0
 14 10  1  0
 15 16  1  0
 15 19  1  0
 16 17  1  0
 17 18  1  0
 19 18  1  0
 19 20  1  1
 20 22  1  0
 21 20  2  0
M  END
$$$$
