CDP.pdb
     RDKit          3D

 22 22  0  0  1  0  0  0  0  0999 V2000
   19.0277  -12.5315  -16.2465 N   0  0  0  0  0  0  0  0  0  0  0  0
   19.7913  -11.6638  -17.0801 C   0  0  1  0  0  0  0  0  0  0  0  0
   19.2694  -11.8140  -18.5063 C   0  0  0  0  0  0  0  0  0  0  0  0
   19.9943  -13.2752  -19.2791 S   0  0  0  0  0  0  0  0  0  0  0  0
   19.5039  -10.2231  -16.7093 C   0  0  0  0  0  0  0  0  0  0  0  0
   18.3197  -10.0109  -16.3682 O   0  0  0  0  0  0  0  0  0  0  0  0
   20.5220   -9.2791  -16.7689 N   0  0  0  0  0  0  0  0  0  0  0  0
   20.3593   -7.8931  -16.3798 C   0  0  1  0  0  0  0  0  0  0  0  0
   21.2480   -7.7455  -15.1445 C   0  0  0  0  0  0  0  0  0  0  0  0
   20.6627   -8.1042  -13.8657 C   0  0  0  0  0  0  0  0  0  0  0  0
   21.2243   -8.3973  -12.8193 O   0  0  0  0  0  0  0  0  0  0  0  0
   20.7885   -7.0835  -17.5268 C   0  0  0  0  0  0  0  0  0  0  0  0
   21.8998   -7.3772  -18.1317 O   0  0  0  0  0  0  0  0  0  0  0  0
   19.2460   -8.1176  -13.8199 O   0  0  0  0  0  0  0  0  0  0  0  0
   20.1251   -5.9726  -18.1043 N   0  0  0  0  0  0  0  0  0  0  0  0
   18.8451   -5.4703  -17.5659 C   0  0  0  0  0  0  0  0  0  0  0  0
   18.3241   -4.5953  -18.7213 C   0  0  0  0  0  0  0  0  0  0  0  0
   19.6213   -3.9279  -19.1011 C   0  0  0  0  0  0  0  0  0  0  0  0
   20.5814   -5.1390  -19.1629 C   0  0  1  0  0  0  0  0  0  0  0  0
   21.9377   -4.5700  -18.8970 C   0  0  0  0  0  0  0  0  0  0  0  0
   22.4683   -4.7515  -17.7898 O   0  0  0  0  0  0  0  0  0  0  0  0
   22.5944   -3.8521  -19.8667 O   0  0  0  0  0  0  0  0  0  0  0  0
  2  1  1  1
  2  5  1  0
  2  3  1  0
  4  3  1  0
  5  6  2  0
  7  5  1  0
  7  8  1  0
  8 12  1  0
  8  9  1  1
 10  9  1  0
 10 11  2  0
 12 13  2  0
 12 15  1  0
 14 10  1  0
 15 16  1  0
 15 19  1  0
 16 17  1  0
 17 18  1  0
 19 18  1  0
 19 20  1  1
 20 22  1  0
 21 20  2  0
M  END
$$$$
