CDP.pdb
     RDKit          3D

 22 22  0  0  1  0  0  0  0  0999 V2000
   20.2272  -13.1194  -16.8966 N   0  0  0  0  0  0  0  0  0  0  0  0
   19.7006  -11.8049  -17.0572 C   0  0  1  0  0  0  0  0  0  0  0  0
   18.2179  -11.9377  -17.3929 C   0  0  0  0  0  0  0  0  0  0  0  0
   18.0168  -12.4518  -19.1114 S   0  0  0  0  0  0  0  0  0  0  0  0
   19.7361  -11.0795  -15.7275 C   0  0  0  0  0  0  0  0  0  0  0  0
   19.6556  -11.8333  -14.7330 O   0  0  0  0  0  0  0  0  0  0  0  0
   19.8499   -9.6947  -15.6999 N   0  0  0  0  0  0  0  0  0  0  0  0
   19.9044   -8.9150  -14.4802 C   0  0  1  0  0  0  0  0  0  0  0  0
   20.7361   -7.6889  -14.8577 C   0  0  0  0  0  0  0  0  0  0  0  0
   20.9616   -6.7009  -13.8187 C   0  0  0  0  0  0  0  0  0  0  0  0
   20.6415   -6.7405  -12.6388 O   0  0  0  0  0  0  0  0  0  0  0  0
   18.5153   -8.6081  -14.1175 C   0  0  0  0  0  0  0  0  0  0  0  0
   17.7062   -8.1553  -15.0271 O   0  0  0  0  0  0  0  0  0  0  0  0
   21.6466   -5.5279  -14.2238 O   0  0  0  0  0  0  0  0  0  0  0  0
   17.8953   -8.7495  -12.8512 N   0  0  0  0  0  0  0  0  0  0  0  0
   18.6296   -9.2806  -11.6854 C   0  0  0  0  0  0  0  0  0  0  0  0
   17.4884   -9.6445  -10.7171 C   0  0  0  0  0  0  0  0  0  0  0  0
   16.6181   -8.4320  -10.9288 C   0  0  0  0  0  0  0  0  0  0  0  0
   16.5850   -8.3453  -12.4727 C   0  0  1  0  0  0  0  0  0  0  0  0
   16.3231   -6.9046  -12.7727 C   0  0  0  0  0  0  0  0  0  0  0  0
   17.2639   -6.1742  -13.1213 O   0  0  0  0  0  0  0  0  0  0  0  0
   15.0542   -6.3900  -12.6647 O   0  0  0  0  0  0  0  0  0  0  0  0
  2  1  1  1
  2  5  1  0
  2  3  1  0
  4  3  1  0
  5  6  2  0
  7  5  1  0
  7  8  1  0
  8 12  1  0
  8  9  1  6
 10  9  1  0
 10 11  2  0
 12 13  2  0
 12 15  1  0
 14 10  1  0
 15 16  1  0
 15 19  1  0
 16 17  1  0
 17 18  1  0
 19 18  1  0
 19 20  1  1
 20 22  1  0
 21 20  2  0
M  END
$$$$
