DSE.pdb
     RDKit          3D

 24 23  0  0  1  0  0  0  0  0999 V2000
   24.2974   -6.5253  -20.2279 N   0  0  0  0  0  0  0  0  0  0  0  0
   23.8204   -6.1540  -18.9339 C   0  0  1  0  0  0  0  0  0  0  0  0
   22.7847   -5.0343  -19.0070 C   0  0  0  0  0  0  0  0  0  0  0  0
   23.3844   -3.7861  -19.4952 C   0  0  0  0  0  0  0  0  0  0  0  0
   24.3949   -3.3157  -18.8929 O   0  0  0  0  0  0  0  0  0  0  0  0
   23.2553   -7.3517  -18.2614 C   0  0  0  0  0  0  0  0  0  0  0  0
   22.5668   -8.1697  -18.9299 O   0  0  0  0  0  0  0  0  0  0  0  0
   22.8252   -3.1694  -20.5938 O   0  0  0  0  0  0  0  0  0  0  0  0
   23.3124  -10.1753  -14.2891 O   0  0  0  0  0  0  0  0  0  0  0  0
   23.6729   -9.0080  -14.9271 C   0  0  0  0  0  0  0  0  0  0  0  0
   22.9799   -8.7995  -16.2332 C   0  0  2  0  0  0  0  0  0  0  0  0
   23.4686   -7.6052  -16.8785 N   0  0  0  0  0  0  0  0  0  0  0  0
   21.5187   -8.6891  -16.0217 C   0  0  0  0  0  0  0  0  0  0  0  0
   20.9572   -7.6121  -15.7566 O   0  0  0  0  0  0  0  0  0  0  0  0
   20.7304   -9.8604  -16.1261 N   0  0  0  0  0  0  0  0  0  0  0  0
   19.2886   -9.8357  -15.8384 C   0  0  1  0  0  0  0  0  0  0  0  0
   18.7625  -11.1837  -16.2625 C   0  0  0  0  0  0  0  0  0  0  0  0
   17.3135  -11.3907  -15.9767 C   0  0  0  0  0  0  0  0  0  0  0  0
   16.8068  -12.7141  -16.3823 C   0  0  0  0  0  0  0  0  0  0  0  0
   17.3068  -13.4580  -17.2467 O   0  0  0  0  0  0  0  0  0  0  0  0
   19.1417   -9.6144  -14.3859 C   0  0  0  0  0  0  0  0  0  0  0  0
   18.1903   -8.9393  -13.9021 O   0  0  0  0  0  0  0  0  0  0  0  0
   15.6562  -13.1725  -15.7321 O   0  0  0  0  0  0  0  0  0  0  0  0
   20.0448  -10.1380  -13.4685 O   0  0  0  0  0  0  0  0  0  0  0  0
  2  1  1  6
  2  3  1  0
  3  4  1  0
  4  8  1  0
  5  4  2  0
  6 12  1  0
  6  2  1  0
  7  6  2  0
  9 10  1  0
 11 10  1  1
 11 13  1  0
 11 12  1  0
 13 14  2  0
 15 13  1  0
 15 16  1  0
 16 17  1  1
 16 21  1  0
 18 17  1  0
 19 18  1  0
 20 19  2  0
 21 22  2  0
 21 24  1  0
 23 19  1  0
M  END
$$$$
