DSE.pdb
     RDKit          3D

 24 23  0  0  1  0  0  0  0  0999 V2000
   16.9417  -11.6525  -14.5756 N   0  0  0  0  0  0  0  0  0  0  0  0
   18.0333  -11.6935  -15.4956 C   0  0  1  0  0  0  0  0  0  0  0  0
   17.6775  -12.4556  -16.7701 C   0  0  0  0  0  0  0  0  0  0  0  0
   17.3219  -13.8493  -16.4747 C   0  0  0  0  0  0  0  0  0  0  0  0
   18.1088  -14.5450  -15.7664 O   0  0  0  0  0  0  0  0  0  0  0  0
   18.4554  -10.3051  -15.8121 C   0  0  0  0  0  0  0  0  0  0  0  0
   19.4046  -10.1158  -16.6203 O   0  0  0  0  0  0  0  0  0  0  0  0
   16.1419  -14.3518  -16.9799 O   0  0  0  0  0  0  0  0  0  0  0  0
   17.5498   -5.5344  -15.2530 O   0  0  0  0  0  0  0  0  0  0  0  0
   17.1917   -6.8525  -15.0686 C   0  0  0  0  0  0  0  0  0  0  0  0
   18.2307   -7.8252  -15.5201 C   0  0  2  0  0  0  0  0  0  0  0  0
   17.8177   -9.1763  -15.2278 N   0  0  0  0  0  0  0  0  0  0  0  0
   19.5190   -7.5416  -14.8480 C   0  0  0  0  0  0  0  0  0  0  0  0
   19.8026   -7.9869  -13.7225 O   0  0  0  0  0  0  0  0  0  0  0  0
   20.4658   -6.7291  -15.5171 N   0  0  0  0  0  0  0  0  0  0  0  0
   21.7648   -6.4123  -14.9050 C   0  0  1  0  0  0  0  0  0  0  0  0
   22.7765   -6.5036  -16.0192 C   0  0  0  0  0  0  0  0  0  0  0  0
   24.1653   -6.1420  -15.6136 C   0  0  0  0  0  0  0  0  0  0  0  0
   25.1541   -6.2524  -16.7011 C   0  0  0  0  0  0  0  0  0  0  0  0
   25.8876   -5.3383  -17.1218 O   0  0  0  0  0  0  0  0  0  0  0  0
   21.6625   -5.0444  -14.3584 C   0  0  0  0  0  0  0  0  0  0  0  0
   22.4083   -4.6368  -13.4243 O   0  0  0  0  0  0  0  0  0  0  0  0
   25.2761   -7.5036  -17.3146 O   0  0  0  0  0  0  0  0  0  0  0  0
   20.7375   -4.1275  -14.8431 O   0  0  0  0  0  0  0  0  0  0  0  0
  2  1  1  1
  2  3  1  0
  3  4  1  0
  4  8  1  0
  5  4  2  0
  6 12  1  0
  6  2  1  0
  7  6  2  0
  9 10  1  0
 11 10  1  1
 11 13  1  0
 11 12  1  0
 13 14  2  0
 15 13  1  0
 15 16  1  0
 16 17  1  6
 16 21  1  0
 18 17  1  0
 19 18  1  0
 20 19  2  0
 21 22  2  0
 21 24  1  0
 23 19  1  0
M  END
$$$$
