DSE.pdb
     RDKit          3D

 24 23  0  0  1  0  0  0  0  0999 V2000
   15.6729  -12.6618  -15.8996 N   0  0  0  0  0  0  0  0  0  0  0  0
   16.9531  -12.4613  -15.2993 C   0  0  1  0  0  0  0  0  0  0  0  0
   17.8680  -13.6692  -15.4890 C   0  0  0  0  0  0  0  0  0  0  0  0
   17.2693  -14.8841  -14.9219 C   0  0  0  0  0  0  0  0  0  0  0  0
   16.9422  -15.8271  -15.7021 O   0  0  0  0  0  0  0  0  0  0  0  0
   17.5715  -11.2370  -15.8690 C   0  0  0  0  0  0  0  0  0  0  0  0
   18.7650  -10.9531  -15.5772 O   0  0  0  0  0  0  0  0  0  0  0  0
   17.0843  -14.9553  -13.5578 O   0  0  0  0  0  0  0  0  0  0  0  0
   17.1036   -7.4410  -18.9017 O   0  0  0  0  0  0  0  0  0  0  0  0
   16.5607   -8.5566  -18.3014 C   0  0  0  0  0  0  0  0  0  0  0  0
   17.4131   -9.1293  -17.2174 C   0  0  2  0  0  0  0  0  0  0  0  0
   16.8542  -10.3702  -16.7388 N   0  0  0  0  0  0  0  0  0  0  0  0
   17.5248   -8.1681  -16.0969 C   0  0  0  0  0  0  0  0  0  0  0  0
   16.7079   -8.1292  -15.1605 O   0  0  0  0  0  0  0  0  0  0  0  0
   18.6077   -7.2564  -16.0940 N   0  0  0  0  0  0  0  0  0  0  0  0
   18.7806   -6.2832  -15.0053 C   0  0  1  0  0  0  0  0  0  0  0  0
   20.2436   -6.3282  -14.6431 C   0  0  0  0  0  0  0  0  0  0  0  0
   20.6396   -5.3586  -13.5815 C   0  0  0  0  0  0  0  0  0  0  0  0
   22.0757   -5.3870  -13.2508 C   0  0  0  0  0  0  0  0  0  0  0  0
   22.6499   -6.2383  -12.5464 O   0  0  0  0  0  0  0  0  0  0  0  0
   18.3805   -4.9650  -15.5368 C   0  0  0  0  0  0  0  0  0  0  0  0
   18.4228   -4.6970  -16.7703 O   0  0  0  0  0  0  0  0  0  0  0  0
   22.8627   -4.3590  -13.7804 O   0  0  0  0  0  0  0  0  0  0  0  0
   17.9340   -3.9435  -14.7070 O   0  0  0  0  0  0  0  0  0  0  0  0
  2  1  1  6
  2  3  1  0
  3  4  1  0
  4  8  1  0
  5  4  2  0
  6 12  1  0
  6  2  1  0
  7  6  2  0
  9 10  1  0
 11 10  1  6
 11 13  1  0
 11 12  1  0
 13 14  2  0
 15 13  1  0
 15 16  1  0
 16 17  1  6
 16 21  1  0
 18 17  1  0
 19 18  1  0
 20 19  2  0
 21 22  2  0
 21 24  1  0
 23 19  1  0
M  END
$$$$
