DSE.pdb
     RDKit          3D

 24 23  0  0  1  0  0  0  0  0999 V2000
   13.8261  -12.5681  -13.2071 N   0  0  0  0  0  0  0  0  0  0  0  0
   14.7410  -12.4179  -12.1209 C   0  0  1  0  0  0  0  0  0  0  0  0
   15.9548  -13.3331  -12.2660 C   0  0  0  0  0  0  0  0  0  0  0  0
   15.5856  -14.7409  -12.0715 C   0  0  0  0  0  0  0  0  0  0  0  0
   14.3729  -15.0305  -11.8470 O   0  0  0  0  0  0  0  0  0  0  0  0
   15.1607  -10.9960  -12.0312 C   0  0  0  0  0  0  0  0  0  0  0  0
   15.7001  -10.4457  -13.0295 O   0  0  0  0  0  0  0  0  0  0  0  0
   16.5741  -15.6991  -12.1403 O   0  0  0  0  0  0  0  0  0  0  0  0
   14.1675   -8.7952   -8.6388 O   0  0  0  0  0  0  0  0  0  0  0  0
   14.2724   -8.1491   -9.8517 C   0  0  0  0  0  0  0  0  0  0  0  0
   15.2132   -8.8102  -10.8043 C   0  0  2  0  0  0  0  0  0  0  0  0
   14.9716  -10.2319  -10.8469 N   0  0  0  0  0  0  0  0  0  0  0  0
   16.6132   -8.5547  -10.3959 C   0  0  0  0  0  0  0  0  0  0  0  0
   17.2384   -9.3085   -9.6301 O   0  0  0  0  0  0  0  0  0  0  0  0
   17.2648   -7.4035  -10.9000 N   0  0  0  0  0  0  0  0  0  0  0  0
   18.6539   -7.0922  -10.5315 C   0  0  1  0  0  0  0  0  0  0  0  0
   19.3346   -6.6766  -11.8111 C   0  0  0  0  0  0  0  0  0  0  0  0
   20.7509   -6.2437  -11.6362 C   0  0  0  0  0  0  0  0  0  0  0  0
   21.3659   -5.7000  -12.8604 C   0  0  0  0  0  0  0  0  0  0  0  0
   21.0345   -5.9691  -14.0301 O   0  0  0  0  0  0  0  0  0  0  0  0
   18.6036   -5.9930   -9.5469 C   0  0  0  0  0  0  0  0  0  0  0  0
   19.4978   -5.8361   -8.6689 O   0  0  0  0  0  0  0  0  0  0  0  0
   22.4203   -4.7974  -12.6862 O   0  0  0  0  0  0  0  0  0  0  0  0
   17.5666   -5.0679   -9.5318 O   0  0  0  0  0  0  0  0  0  0  0  0
  2  1  1  6
  2  3  1  0
  3  4  1  0
  4  8  1  0
  5  4  2  0
  6 12  1  0
  6  2  1  0
  7  6  2  0
  9 10  1  0
 11 10  1  1
 11 13  1  0
 11 12  1  0
 13 14  2  0
 15 13  1  0
 15 16  1  0
 16 17  1  6
 16 21  1  0
 18 17  1  0
 19 18  1  0
 20 19  2  0
 21 22  2  0
 21 24  1  0
 23 19  1  0
M  END
$$$$
