DSE.pdb
     RDKit          3D

 24 23  0  0  1  0  0  0  0  0999 V2000
   20.8162  -13.8309  -16.5368 N   0  0  0  0  0  0  0  0  0  0  0  0
   20.1437  -12.5789  -16.6781 C   0  0  1  0  0  0  0  0  0  0  0  0
   18.6937  -12.6531  -16.2048 C   0  0  0  0  0  0  0  0  0  0  0  0
   17.9435  -13.6739  -16.9472 C   0  0  0  0  0  0  0  0  0  0  0  0
   18.2472  -13.8984  -18.1565 O   0  0  0  0  0  0  0  0  0  0  0  0
   20.8907  -11.5378  -15.9271 C   0  0  0  0  0  0  0  0  0  0  0  0
   20.3989  -11.0679  -14.8653 O   0  0  0  0  0  0  0  0  0  0  0  0
   16.9332  -14.3528  -16.3003 O   0  0  0  0  0  0  0  0  0  0  0  0
   24.9650  -11.2806  -15.4777 O   0  0  0  0  0  0  0  0  0  0  0  0
   24.3498  -10.1477  -15.9653 C   0  0  0  0  0  0  0  0  0  0  0  0
   22.8968  -10.0633  -15.6319 C   0  0  2  0  0  0  0  0  0  0  0  0
   22.1512  -11.0522  -16.3718 N   0  0  0  0  0  0  0  0  0  0  0  0
   22.3806   -8.7118  -15.9465 C   0  0  0  0  0  0  0  0  0  0  0  0
   21.9173   -8.4115  -17.0604 O   0  0  0  0  0  0  0  0  0  0  0  0
   22.4171   -7.7220  -14.9350 N   0  0  0  0  0  0  0  0  0  0  0  0
   21.9082   -6.3643  -15.1797 C   0  0  1  0  0  0  0  0  0  0  0  0
   20.4308   -6.5203  -15.4375 C   0  0  0  0  0  0  0  0  0  0  0  0
   19.6838   -5.2313  -15.5057 C   0  0  0  0  0  0  0  0  0  0  0  0
   18.2347   -5.3904  -15.7233 C   0  0  0  0  0  0  0  0  0  0  0  0
   17.4649   -6.1002  -15.0495 O   0  0  0  0  0  0  0  0  0  0  0  0
   22.1790   -5.5755  -13.9612 C   0  0  0  0  0  0  0  0  0  0  0  0
   22.3089   -6.1150  -12.8267 O   0  0  0  0  0  0  0  0  0  0  0  0
   17.6771   -4.6745  -16.7879 O   0  0  0  0  0  0  0  0  0  0  0  0
   22.3061   -4.1920  -13.9955 O   0  0  0  0  0  0  0  0  0  0  0  0
  2  1  1  1
  2  3  1  0
  3  4  1  0
  4  8  1  0
  5  4  2  0
  6 12  1  0
  6  2  1  0
  7  6  2  0
  9 10  1  0
 11 10  1  6
 11 13  1  0
 11 12  1  0
 13 14  2  0
 15 13  1  0
 15 16  1  0
 16 17  1  1
 16 21  1  0
 18 17  1  0
 19 18  1  0
 20 19  2  0
 21 22  2  0
 21 24  1  0
 23 19  1  0
M  END
$$$$
