DSE.pdb
     RDKit          3D

 24 23  0  0  1  0  0  0  0  0999 V2000
   18.8898   -8.9615  -13.3747 N   0  0  0  0  0  0  0  0  0  0  0  0
   19.3159   -9.3709  -14.6749 C   0  0  1  0  0  0  0  0  0  0  0  0
   18.1821   -9.3017  -15.6954 C   0  0  0  0  0  0  0  0  0  0  0  0
   17.0735  -10.1881  -15.3197 C   0  0  0  0  0  0  0  0  0  0  0  0
   17.3249  -11.3973  -15.0377 O   0  0  0  0  0  0  0  0  0  0  0  0
   20.4605   -8.5254  -15.1005 C   0  0  0  0  0  0  0  0  0  0  0  0
   20.4282   -7.2841  -14.8813 O   0  0  0  0  0  0  0  0  0  0  0  0
   15.7959   -9.6716  -15.2872 O   0  0  0  0  0  0  0  0  0  0  0  0
   24.4706   -9.8024  -15.5103 O   0  0  0  0  0  0  0  0  0  0  0  0
   23.8717   -9.1325  -16.5553 C   0  0  0  0  0  0  0  0  0  0  0  0
   22.7287   -8.2675  -16.1371 C   0  0  2  0  0  0  0  0  0  0  0  0
   21.5984   -9.0768  -15.7513 N   0  0  0  0  0  0  0  0  0  0  0  0
   22.3409   -7.3661  -17.2457 C   0  0  0  0  0  0  0  0  0  0  0  0
   21.6980   -7.7560  -18.2357 O   0  0  0  0  0  0  0  0  0  0  0  0
   22.7191   -6.0038  -17.1729 N   0  0  0  0  0  0  0  0  0  0  0  0
   22.3388   -5.0509  -18.2262 C   0  0  1  0  0  0  0  0  0  0  0  0
   21.4534   -4.0307  -17.5562 C   0  0  0  0  0  0  0  0  0  0  0  0
   21.0538   -2.8964  -18.4381 C   0  0  0  0  0  0  0  0  0  0  0  0
   20.1522   -1.9254  -17.7925 C   0  0  0  0  0  0  0  0  0  0  0  0
   19.0198   -1.5968  -18.1925 O   0  0  0  0  0  0  0  0  0  0  0  0
   23.5876   -4.4517  -18.7379 C   0  0  0  0  0  0  0  0  0  0  0  0
   24.6464   -4.4158  -18.0504 O   0  0  0  0  0  0  0  0  0  0  0  0
   20.6173   -1.3191  -16.6207 O   0  0  0  0  0  0  0  0  0  0  0  0
   23.6670   -3.8927  -20.0078 O   0  0  0  0  0  0  0  0  0  0  0  0
  2  1  1  1
  2  3  1  0
  3  4  1  0
  4  8  1  0
  5  4  2  0
  6 12  1  0
  6  2  1  0
  7  6  2  0
  9 10  1  0
 11 10  1  6
 11 13  1  0
 11 12  1  0
 13 14  2  0
 15 13  1  0
 15 16  1  0
 16 17  1  1
 16 21  1  0
 18 17  1  0
 19 18  1  0
 20 19  2  0
 21 22  2  0
 21 24  1  0
 23 19  1  0
M  END
$$$$
