DSE.pdb
     RDKit          3D

 24 23  0  0  1  0  0  0  0  0999 V2000
   15.6662  -11.0254  -16.3386 N   0  0  0  0  0  0  0  0  0  0  0  0
   16.4964  -10.7501  -15.2097 C   0  0  1  0  0  0  0  0  0  0  0  0
   17.5115  -11.8638  -14.9625 C   0  0  0  0  0  0  0  0  0  0  0  0
   16.8479  -13.1052  -14.5447 C   0  0  0  0  0  0  0  0  0  0  0  0
   15.9885  -13.0572  -13.6151 O   0  0  0  0  0  0  0  0  0  0  0  0
   17.1816   -9.4485  -15.4154 C   0  0  0  0  0  0  0  0  0  0  0  0
   17.9452   -9.3010  -16.4080 O   0  0  0  0  0  0  0  0  0  0  0  0
   17.1844  -14.2811  -15.1804 O   0  0  0  0  0  0  0  0  0  0  0  0
   17.3685   -4.7382  -14.1944 O   0  0  0  0  0  0  0  0  0  0  0  0
   16.8306   -5.9985  -14.0473 C   0  0  0  0  0  0  0  0  0  0  0  0
   17.5963   -7.0645  -14.7594 C   0  0  2  0  0  0  0  0  0  0  0  0
   17.0016   -8.3572  -14.5215 N   0  0  0  0  0  0  0  0  0  0  0  0
   19.0040   -7.0717  -14.3010 C   0  0  0  0  0  0  0  0  0  0  0  0
   19.3706   -7.6519  -13.2644 O   0  0  0  0  0  0  0  0  0  0  0  0
   19.9711   -6.3888  -15.0772 N   0  0  0  0  0  0  0  0  0  0  0  0
   21.3902   -6.3824  -14.6921 C   0  0  1  0  0  0  0  0  0  0  0  0
   22.1659   -6.3428  -15.9845 C   0  0  0  0  0  0  0  0  0  0  0  0
   23.6405   -6.2089  -15.8073 C   0  0  0  0  0  0  0  0  0  0  0  0
   24.3966   -6.1972  -17.0726 C   0  0  0  0  0  0  0  0  0  0  0  0
   23.9389   -6.4471  -18.2034 O   0  0  0  0  0  0  0  0  0  0  0  0
   21.6105   -5.1725  -13.8750 C   0  0  0  0  0  0  0  0  0  0  0  0
   20.9201   -4.1256  -14.0250 O   0  0  0  0  0  0  0  0  0  0  0  0
   25.7552   -5.8746  -16.9896 O   0  0  0  0  0  0  0  0  0  0  0  0
   22.5924   -5.1186  -12.8930 O   0  0  0  0  0  0  0  0  0  0  0  0
  2  1  1  6
  2  3  1  0
  3  4  1  0
  4  8  1  0
  5  4  2  0
  6 12  1  0
  6  2  1  0
  7  6  2  0
  9 10  1  0
 11 10  1  1
 11 13  1  0
 11 12  1  0
 13 14  2  0
 15 13  1  0
 15 16  1  0
 16 17  1  6
 16 21  1  0
 18 17  1  0
 19 18  1  0
 20 19  2  0
 21 22  2  0
 21 24  1  0
 23 19  1  0
M  END
$$$$
