DSE.pdb
     RDKit          3D

 24 23  0  0  1  0  0  0  0  0999 V2000
   18.3089  -14.0713  -15.6955 N   0  0  0  0  0  0  0  0  0  0  0  0
   18.0731  -12.8668  -16.4257 C   0  0  1  0  0  0  0  0  0  0  0  0
   16.5872  -12.5208  -16.4918 C   0  0  0  0  0  0  0  0  0  0  0  0
   15.8286  -13.5654  -17.1914 C   0  0  0  0  0  0  0  0  0  0  0  0
   16.0009  -13.7169  -18.4373 O   0  0  0  0  0  0  0  0  0  0  0  0
   18.8445  -11.7611  -15.8026 C   0  0  0  0  0  0  0  0  0  0  0  0
   18.5984  -11.4293  -14.6112 O   0  0  0  0  0  0  0  0  0  0  0  0
   14.9540  -14.3455  -16.4657 O   0  0  0  0  0  0  0  0  0  0  0  0
   22.9062   -9.3758  -15.4146 O   0  0  0  0  0  0  0  0  0  0  0  0
   22.0913  -10.3607  -15.9296 C   0  0  0  0  0  0  0  0  0  0  0  0
   20.6393  -10.0133  -15.9021 C   0  0  2  0  0  0  0  0  0  0  0  0
   19.8583  -11.0611  -16.5131 N   0  0  0  0  0  0  0  0  0  0  0  0
   20.4080   -8.7378  -16.6173 C   0  0  0  0  0  0  0  0  0  0  0  0
   20.4172   -8.6511  -17.8574 O   0  0  0  0  0  0  0  0  0  0  0  0
   20.1665   -7.5697  -15.8549 N   0  0  0  0  0  0  0  0  0  0  0  0
   19.9036   -6.2772  -16.5049 C   0  0  1  0  0  0  0  0  0  0  0  0
   18.9439   -5.5494  -15.5977 C   0  0  0  0  0  0  0  0  0  0  0  0
   18.6013   -4.1709  -16.0518 C   0  0  0  0  0  0  0  0  0  0  0  0
   17.6241   -3.4824  -15.1894 C   0  0  0  0  0  0  0  0  0  0  0  0
   17.1021   -3.9445  -14.1576 O   0  0  0  0  0  0  0  0  0  0  0  0
   21.1996   -5.5786  -16.6172 C   0  0  0  0  0  0  0  0  0  0  0  0
   22.1747   -5.8461  -15.8604 O   0  0  0  0  0  0  0  0  0  0  0  0
   17.2517   -2.1890  -15.5702 O   0  0  0  0  0  0  0  0  0  0  0  0
   21.4186   -4.5856  -17.5645 O   0  0  0  0  0  0  0  0  0  0  0  0
  2  1  1  1
  2  3  1  0
  3  4  1  0
  4  8  1  0
  5  4  2  0
  6 12  1  0
  6  2  1  0
  7  6  2  0
  9 10  1  0
 11 10  1  6
 11 13  1  0
 11 12  1  0
 13 14  2  0
 15 13  1  0
 15 16  1  0
 16 17  1  1
 16 21  1  0
 18 17  1  0
 19 18  1  0
 20 19  2  0
 21 22  2  0
 21 24  1  0
 23 19  1  0
M  END
$$$$
