DSE.pdb
     RDKit          3D

 24 23  0  0  1  0  0  0  0  0999 V2000
   16.9429  -13.4857  -16.0402 N   0  0  0  0  0  0  0  0  0  0  0  0
   16.1376  -12.4496  -15.4767 C   0  0  1  0  0  0  0  0  0  0  0  0
   15.9860  -12.6028  -13.9649 C   0  0  0  0  0  0  0  0  0  0  0  0
   15.3120  -13.8617  -13.6229 C   0  0  0  0  0  0  0  0  0  0  0  0
   15.8847  -14.6672  -12.8304 O   0  0  0  0  0  0  0  0  0  0  0  0
   16.7326  -11.1317  -15.8159 C   0  0  0  0  0  0  0  0  0  0  0  0
   17.9830  -11.0320  -15.9449 O   0  0  0  0  0  0  0  0  0  0  0  0
   14.0773  -14.1224  -14.1775 O   0  0  0  0  0  0  0  0  0  0  0  0
   14.8721   -8.3795  -18.2606 O   0  0  0  0  0  0  0  0  0  0  0  0
   15.3924   -7.8855  -17.0839 C   0  0  0  0  0  0  0  0  0  0  0  0
   16.4749   -8.7345  -16.5034 C   0  0  2  0  0  0  0  0  0  0  0  0
   15.9303   -9.9722  -16.0007 N   0  0  0  0  0  0  0  0  0  0  0  0
   17.1577   -8.0093  -15.4080 C   0  0  0  0  0  0  0  0  0  0  0  0
   16.8018   -8.0961  -14.2200 O   0  0  0  0  0  0  0  0  0  0  0  0
   18.2616   -7.1834  -15.7295 N   0  0  0  0  0  0  0  0  0  0  0  0
   19.0364   -6.5055  -14.6795 C   0  0  1  0  0  0  0  0  0  0  0  0
   20.4421   -6.3948  -15.2137 C   0  0  0  0  0  0  0  0  0  0  0  0
   21.3926   -5.7077  -14.2927 C   0  0  0  0  0  0  0  0  0  0  0  0
   22.7428   -5.5238  -14.8546 C   0  0  0  0  0  0  0  0  0  0  0  0
   23.4819   -4.5368  -14.6809 O   0  0  0  0  0  0  0  0  0  0  0  0
   18.4158   -5.1820  -14.4712 C   0  0  0  0  0  0  0  0  0  0  0  0
   17.7650   -4.5946  -15.3803 O   0  0  0  0  0  0  0  0  0  0  0  0
   23.2353   -6.5580  -15.6575 O   0  0  0  0  0  0  0  0  0  0  0  0
   18.5138   -4.5077  -13.2599 O   0  0  0  0  0  0  0  0  0  0  0  0
  2  1  1  1
  2  3  1  0
  3  4  1  0
  4  8  1  0
  5  4  2  0
  6 12  1  0
  6  2  1  0
  7  6  2  0
  9 10  1  0
 11 10  1  1
 11 13  1  0
 11 12  1  0
 13 14  2  0
 15 13  1  0
 15 16  1  0
 16 17  1  6
 16 21  1  0
 18 17  1  0
 19 18  1  0
 20 19  2  0
 21 22  2  0
 21 24  1  0
 23 19  1  0
M  END
$$$$
