DSE.pdb
     RDKit          3D

 24 23  0  0  1  0  0  0  0  0999 V2000
   15.6046  -11.6567  -16.0199 N   0  0  0  0  0  0  0  0  0  0  0  0
   16.4769  -11.3481  -14.9320 C   0  0  1  0  0  0  0  0  0  0  0  0
   17.5575  -12.4110  -14.7475 C   0  0  0  0  0  0  0  0  0  0  0  0
   16.9851  -13.6726  -14.2608 C   0  0  0  0  0  0  0  0  0  0  0  0
   17.6647  -14.7361  -14.3708 O   0  0  0  0  0  0  0  0  0  0  0  0
   17.0848  -10.0122  -15.1596 C   0  0  0  0  0  0  0  0  0  0  0  0
   17.6549   -9.7707  -16.2582 O   0  0  0  0  0  0  0  0  0  0  0  0
   15.7258  -13.6545  -13.7005 O   0  0  0  0  0  0  0  0  0  0  0  0
   15.3703   -6.5543  -13.9693 O   0  0  0  0  0  0  0  0  0  0  0  0
   16.6945   -6.6726  -13.6059 C   0  0  0  0  0  0  0  0  0  0  0  0
   17.4631   -7.6388  -14.4456 C   0  0  2  0  0  0  0  0  0  0  0  0
   17.0433   -8.9914  -14.1704 N   0  0  0  0  0  0  0  0  0  0  0  0
   18.9130   -7.5031  -14.1789 C   0  0  0  0  0  0  0  0  0  0  0  0
   19.4939   -8.1381  -13.2818 O   0  0  0  0  0  0  0  0  0  0  0  0
   19.6671   -6.6124  -14.9802 N   0  0  0  0  0  0  0  0  0  0  0  0
   21.1281   -6.5168  -14.8440 C   0  0  1  0  0  0  0  0  0  0  0  0
   21.6361   -6.0552  -16.1865 C   0  0  0  0  0  0  0  0  0  0  0  0
   23.1008   -5.7774  -16.2222 C   0  0  0  0  0  0  0  0  0  0  0  0
   23.5713   -5.2101  -17.4987 C   0  0  0  0  0  0  0  0  0  0  0  0
   23.0548   -5.3914  -18.6171 O   0  0  0  0  0  0  0  0  0  0  0  0
   21.3990   -5.5308  -13.7788 C   0  0  0  0  0  0  0  0  0  0  0  0
   20.6298   -4.5541  -13.5562 O   0  0  0  0  0  0  0  0  0  0  0  0
   24.7047   -4.3922  -17.4429 O   0  0  0  0  0  0  0  0  0  0  0  0
   22.5182   -5.6231  -12.9602 O   0  0  0  0  0  0  0  0  0  0  0  0
  2  1  1  6
  2  3  1  0
  3  4  1  0
  4  8  1  0
  5  4  2  0
  6 12  1  0
  6  2  1  0
  7  6  2  0
  9 10  1  0
 11 10  1  1
 11 13  1  0
 11 12  1  0
 13 14  2  0
 15 13  1  0
 15 16  1  0
 16 17  1  6
 16 21  1  0
 18 17  1  0
 19 18  1  0
 20 19  2  0
 21 22  2  0
 21 24  1  0
 23 19  1  0
M  END
$$$$
