DSE.pdb
     RDKit          3D

 24 23  0  0  1  0  0  0  0  0999 V2000
   14.3271  -12.1803  -14.3575 N   0  0  0  0  0  0  0  0  0  0  0  0
   15.3582  -12.1330  -13.3705 C   0  0  1  0  0  0  0  0  0  0  0  0
   16.6885  -12.6548  -13.9090 C   0  0  0  0  0  0  0  0  0  0  0  0
   16.6388  -14.1048  -14.1349 C   0  0  0  0  0  0  0  0  0  0  0  0
   16.1469  -14.5392  -15.2186 O   0  0  0  0  0  0  0  0  0  0  0  0
   15.4988  -10.7381  -12.8801 C   0  0  0  0  0  0  0  0  0  0  0  0
   15.6786   -9.8056  -13.7096 O   0  0  0  0  0  0  0  0  0  0  0  0
   17.1302  -14.9434  -13.1574 O   0  0  0  0  0  0  0  0  0  0  0  0
   14.3458   -7.6816   -9.3395 O   0  0  0  0  0  0  0  0  0  0  0  0
   14.4249   -8.9499   -9.8733 C   0  0  0  0  0  0  0  0  0  0  0  0
   15.3719   -9.0591  -11.0226 C   0  0  2  0  0  0  0  0  0  0  0  0
   15.4366  -10.4206  -11.4953 N   0  0  0  0  0  0  0  0  0  0  0  0
   16.7218   -8.6091  -10.6136 C   0  0  0  0  0  0  0  0  0  0  0  0
   17.4616   -9.2850   -9.8778 O   0  0  0  0  0  0  0  0  0  0  0  0
   17.1872   -7.3566  -11.0813 N   0  0  0  0  0  0  0  0  0  0  0  0
   18.5210   -6.8558  -10.7172 C   0  0  1  0  0  0  0  0  0  0  0  0
   19.2383   -6.6136  -12.0212 C   0  0  0  0  0  0  0  0  0  0  0  0
   20.5738   -5.9670  -11.8722 C   0  0  0  0  0  0  0  0  0  0  0  0
   21.3004   -5.7949  -13.1430 C   0  0  0  0  0  0  0  0  0  0  0  0
   20.9549   -6.2424  -14.2524 O   0  0  0  0  0  0  0  0  0  0  0  0
   18.3203   -5.6079   -9.9538 C   0  0  0  0  0  0  0  0  0  0  0  0
   17.2908   -4.8906  -10.0977 O   0  0  0  0  0  0  0  0  0  0  0  0
   22.4890   -5.0591  -13.0924 O   0  0  0  0  0  0  0  0  0  0  0  0
   19.2556   -5.1526   -9.0323 O   0  0  0  0  0  0  0  0  0  0  0  0
  2  1  1  6
  2  3  1  0
  3  4  1  0
  4  8  1  0
  5  4  2  0
  6 12  1  0
  6  2  1  0
  7  6  2  0
  9 10  1  0
 11 10  1  1
 11 13  1  0
 11 12  1  0
 13 14  2  0
 15 13  1  0
 15 16  1  0
 16 17  1  6
 16 21  1  0
 18 17  1  0
 19 18  1  0
 20 19  2  0
 21 22  2  0
 21 24  1  0
 23 19  1  0
M  END
$$$$
