DSE.pdb
     RDKit          3D

 24 23  0  0  1  0  0  0  0  0999 V2000
   13.2865   -8.8366   -9.4594 N   0  0  0  0  0  0  0  0  0  0  0  0
   14.6595   -9.0641   -9.7799 C   0  0  1  0  0  0  0  0  0  0  0  0
   14.8216  -10.0829  -10.9058 C   0  0  0  0  0  0  0  0  0  0  0  0
   14.4417  -11.4302  -10.4627 C   0  0  0  0  0  0  0  0  0  0  0  0
   13.6887  -11.5526   -9.4513 O   0  0  0  0  0  0  0  0  0  0  0  0
   15.2952   -7.7718  -10.1429 C   0  0  0  0  0  0  0  0  0  0  0  0
   14.7314   -7.0190  -10.9828 O   0  0  0  0  0  0  0  0  0  0  0  0
   14.9191  -12.5162  -11.1647 O   0  0  0  0  0  0  0  0  0  0  0  0
   17.8572   -3.9730   -9.2028 O   0  0  0  0  0  0  0  0  0  0  0  0
   17.2167   -5.1494   -8.8780 C   0  0  0  0  0  0  0  0  0  0  0  0
   17.2003   -6.1494   -9.9866 C   0  0  2  0  0  0  0  0  0  0  0  0
   16.5276   -7.3552   -9.5684 N   0  0  0  0  0  0  0  0  0  0  0  0
   18.5845   -6.4700  -10.4029 C   0  0  0  0  0  0  0  0  0  0  0  0
   19.3466   -7.1739   -9.7179 O   0  0  0  0  0  0  0  0  0  0  0  0
   19.0574   -5.9521  -11.6326 N   0  0  0  0  0  0  0  0  0  0  0  0
   20.4246   -6.2272  -12.0990 C   0  0  1  0  0  0  0  0  0  0  0  0
   20.2771   -7.1612  -13.2735 C   0  0  0  0  0  0  0  0  0  0  0  0
   21.5647   -7.5136  -13.9384 C   0  0  0  0  0  0  0  0  0  0  0  0
   21.4104   -8.3829  -15.1186 C   0  0  0  0  0  0  0  0  0  0  0  0
   20.9968   -8.0321  -16.2395 O   0  0  0  0  0  0  0  0  0  0  0  0
   21.0163   -4.9322  -12.4902 C   0  0  0  0  0  0  0  0  0  0  0  0
   20.3056   -3.9313  -12.7874 O   0  0  0  0  0  0  0  0  0  0  0  0
   21.7630   -9.7271  -14.9591 O   0  0  0  0  0  0  0  0  0  0  0  0
   22.3915   -4.7426  -12.5532 O   0  0  0  0  0  0  0  0  0  0  0  0
  2  1  1  6
  2  3  1  0
  3  4  1  0
  4  8  1  0
  5  4  2  0
  6 12  1  0
  6  2  1  0
  7  6  2  0
  9 10  1  0
 11 10  1  1
 11 13  1  0
 11 12  1  0
 13 14  2  0
 15 13  1  0
 15 16  1  0
 16 17  1  6
 16 21  1  0
 18 17  1  0
 19 18  1  0
 20 19  2  0
 21 22  2  0
 21 24  1  0
 23 19  1  0
M  END
$$$$
