DSE.pdb
     RDKit          3D

 24 23  0  0  1  0  0  0  0  0999 V2000
   26.2942  -35.4157   -2.6450 N   0  0  0  0  0  0  0  0  0  0  0  0
   26.9182  -34.2826   -2.0397 C   0  0  1  0  0  0  0  0  0  0  0  0
   26.0618  -33.0246   -2.1649 C   0  0  0  0  0  0  0  0  0  0  0  0
   26.0542  -32.5214   -3.5442 C   0  0  0  0  0  0  0  0  0  0  0  0
   26.6718  -33.1739   -4.4375 O   0  0  0  0  0  0  0  0  0  0  0  0
   27.2022  -34.5873   -0.6141 C   0  0  0  0  0  0  0  0  0  0  0  0
   26.3039  -35.1140    0.0971 O   0  0  0  0  0  0  0  0  0  0  0  0
   25.3739  -31.3543   -3.8185 O   0  0  0  0  0  0  0  0  0  0  0  0
   30.9946  -35.2817    1.0013 O   0  0  0  0  0  0  0  0  0  0  0  0
   30.1872  -34.3811    1.6621 C   0  0  0  0  0  0  0  0  0  0  0  0
   28.7328  -34.5536    1.3714 C   0  0  2  0  0  0  0  0  0  0  0  0
   28.4639  -34.3014   -0.0234 N   0  0  0  0  0  0  0  0  0  0  0  0
   27.9340  -33.6294    2.2078 C   0  0  0  0  0  0  0  0  0  0  0  0
   27.4825  -32.5537    1.7782 O   0  0  0  0  0  0  0  0  0  0  0  0
   27.6749  -33.9879    3.5526 N   0  0  0  0  0  0  0  0  0  0  0  0
   26.8871  -33.1144    4.4351 C   0  0  1  0  0  0  0  0  0  0  0  0
   26.1903  -34.0334    5.4064 C   0  0  0  0  0  0  0  0  0  0  0  0
   25.3202  -33.3317    6.3935 C   0  0  0  0  0  0  0  0  0  0  0  0
   24.7779  -34.2112    7.4447 C   0  0  0  0  0  0  0  0  0  0  0  0
   24.9356  -35.4439    7.5238 O   0  0  0  0  0  0  0  0  0  0  0  0
   27.8397  -32.2112    5.1111 C   0  0  0  0  0  0  0  0  0  0  0  0
   29.0479  -32.5276    5.2988 O   0  0  0  0  0  0  0  0  0  0  0  0
   24.0155  -33.5986    8.4448 O   0  0  0  0  0  0  0  0  0  0  0  0
   27.4585  -30.9595    5.5795 O   0  0  0  0  0  0  0  0  0  0  0  0
  2  1  1  1
  2  3  1  0
  3  4  1  0
  4  8  1  0
  5  4  2  0
  6 12  1  0
  6  2  1  0
  7  6  2  0
  9 10  1  0
 11 10  1  6
 11 13  1  0
 11 12  1  0
 13 14  2  0
 15 13  1  0
 15 16  1  0
 16 17  1  1
 16 21  1  0
 18 17  1  0
 19 18  1  0
 20 19  2  0
 21 22  2  0
 21 24  1  0
 23 19  1  0
M  END
$$$$
