DSE.pdb
     RDKit          3D

 24 23  0  0  1  0  0  0  0  0999 V2000
   25.3350  -11.0232  -16.3219 N   0  0  0  0  0  0  0  0  0  0  0  0
   24.6075  -10.0453  -17.0663 C   0  0  1  0  0  0  0  0  0  0  0  0
   24.0696  -10.6109  -18.3788 C   0  0  0  0  0  0  0  0  0  0  0  0
   25.1590  -11.0991  -19.2337 C   0  0  0  0  0  0  0  0  0  0  0  0
   26.2142  -10.4055  -19.3367 O   0  0  0  0  0  0  0  0  0  0  0  0
   23.5013   -9.5184  -16.2267 C   0  0  0  0  0  0  0  0  0  0  0  0
   22.7589  -10.3251  -15.6037 O   0  0  0  0  0  0  0  0  0  0  0  0
   24.9942  -12.2972  -19.8950 O   0  0  0  0  0  0  0  0  0  0  0  0
   22.7687   -5.3313  -15.8123 O   0  0  0  0  0  0  0  0  0  0  0  0
   22.5456   -6.2284  -14.7901 C   0  0  0  0  0  0  0  0  0  0  0  0
   22.2029   -7.6029  -15.2623 C   0  0  2  0  0  0  0  0  0  0  0  0
   23.2528   -8.1237  -16.1035 N   0  0  0  0  0  0  0  0  0  0  0  0
   20.9277   -7.5790  -16.0142 C   0  0  0  0  0  0  0  0  0  0  0  0
   20.8781   -7.4538  -17.2500 O   0  0  0  0  0  0  0  0  0  0  0  0
   19.7157   -7.7041  -15.2934 N   0  0  0  0  0  0  0  0  0  0  0  0
   18.4141   -7.6203  -15.9723 C   0  0  1  0  0  0  0  0  0  0  0  0
   17.4131   -8.2173  -15.0156 C   0  0  0  0  0  0  0  0  0  0  0  0
   15.9998   -8.1417  -15.4853 C   0  0  0  0  0  0  0  0  0  0  0  0
   15.3198   -9.4479  -15.5493 C   0  0  0  0  0  0  0  0  0  0  0  0
   15.7941  -10.5408  -15.1872 O   0  0  0  0  0  0  0  0  0  0  0  0
   18.1521   -6.1900  -16.2290 C   0  0  0  0  0  0  0  0  0  0  0  0
   18.6441   -5.2771  -15.5082 O   0  0  0  0  0  0  0  0  0  0  0  0
   14.0200   -9.4548  -16.0661 O   0  0  0  0  0  0  0  0  0  0  0  0
   17.3476   -5.7682  -17.2807 O   0  0  0  0  0  0  0  0  0  0  0  0
  2  1  1  1
  2  3  1  0
  3  4  1  0
  4  8  1  0
  5  4  2  0
  6 12  1  0
  6  2  1  0
  7  6  2  0
  9 10  1  0
 11 10  1  6
 11 13  1  0
 11 12  1  0
 13 14  2  0
 15 13  1  0
 15 16  1  0
 16 17  1  1
 16 21  1  0
 18 17  1  0
 19 18  1  0
 20 19  2  0
 21 22  2  0
 21 24  1  0
 23 19  1  0
M  END
$$$$
