DSE.pdb
     RDKit          3D

 24 23  0  0  1  0  0  0  0  0999 V2000
   17.0223  -14.0046  -15.4208 N   0  0  0  0  0  0  0  0  0  0  0  0
   16.9041  -12.7658  -16.1216 C   0  0  1  0  0  0  0  0  0  0  0  0
   15.7434  -11.9225  -15.5985 C   0  0  0  0  0  0  0  0  0  0  0  0
   14.4572  -12.5981  -15.8108 C   0  0  0  0  0  0  0  0  0  0  0  0
   13.6021  -12.5947  -14.8760 O   0  0  0  0  0  0  0  0  0  0  0  0
   18.1856  -12.0224  -16.0154 C   0  0  0  0  0  0  0  0  0  0  0  0
   18.5783  -11.6243  -14.8852 O   0  0  0  0  0  0  0  0  0  0  0  0
   14.2255  -13.2132  -17.0224 O   0  0  0  0  0  0  0  0  0  0  0  0
   21.5798  -12.9657  -18.0002 O   0  0  0  0  0  0  0  0  0  0  0  0
   21.1843  -11.6537  -18.1482 C   0  0  0  0  0  0  0  0  0  0  0  0
   20.3040  -11.1644  -17.0459 C   0  0  2  0  0  0  0  0  0  0  0  0
   18.9877  -11.7446  -17.1563 N   0  0  0  0  0  0  0  0  0  0  0  0
   20.2033   -9.6881  -17.0928 C   0  0  0  0  0  0  0  0  0  0  0  0
   19.3958   -9.0922  -17.8266 O   0  0  0  0  0  0  0  0  0  0  0  0
   21.0635   -8.9255  -16.2667 N   0  0  0  0  0  0  0  0  0  0  0  0
   20.9874   -7.4572  -16.2384 C   0  0  1  0  0  0  0  0  0  0  0  0
   21.5395   -7.0436  -14.8976 C   0  0  0  0  0  0  0  0  0  0  0  0
   21.6329   -5.5678  -14.7050 C   0  0  0  0  0  0  0  0  0  0  0  0
   22.0636   -5.1668  -13.3536 C   0  0  0  0  0  0  0  0  0  0  0  0
   22.2334   -3.9999  -12.9534 O   0  0  0  0  0  0  0  0  0  0  0  0
   21.8140   -6.9602  -17.3564 C   0  0  0  0  0  0  0  0  0  0  0  0
   21.6382   -5.8181  -17.8659 O   0  0  0  0  0  0  0  0  0  0  0  0
   22.3025   -6.1976  -12.4387 O   0  0  0  0  0  0  0  0  0  0  0  0
   22.8339   -7.7239  -17.9113 O   0  0  0  0  0  0  0  0  0  0  0  0
  2  1  1  1
  2  3  1  0
  3  4  1  0
  4  8  1  0
  5  4  2  0
  6 12  1  0
  6  2  1  0
  7  6  2  0
  9 10  1  0
 11 10  1  6
 11 13  1  0
 11 12  1  0
 13 14  2  0
 15 13  1  0
 15 16  1  0
 16 17  1  1
 16 21  1  0
 18 17  1  0
 19 18  1  0
 20 19  2  0
 21 22  2  0
 21 24  1  0
 23 19  1  0
M  END
$$$$
