DSE.pdb
     RDKit          3D

 24 23  0  0  1  0  0  0  0  0999 V2000
   18.4808  -11.5233  -14.7993 N   0  0  0  0  0  0  0  0  0  0  0  0
   18.5435  -10.6861  -15.9547 C   0  0  1  0  0  0  0  0  0  0  0  0
   17.1763  -10.1111  -16.3179 C   0  0  0  0  0  0  0  0  0  0  0  0
   16.2340  -11.1739  -16.6899 C   0  0  0  0  0  0  0  0  0  0  0  0
   16.6614  -12.1682  -17.3484 O   0  0  0  0  0  0  0  0  0  0  0  0
   19.5261   -9.5985  -15.7149 C   0  0  0  0  0  0  0  0  0  0  0  0
   19.1888   -8.6019  -15.0198 O   0  0  0  0  0  0  0  0  0  0  0  0
   14.9151  -11.0515  -16.3084 O   0  0  0  0  0  0  0  0  0  0  0  0
   24.2045   -8.2422  -15.9859 O   0  0  0  0  0  0  0  0  0  0  0  0
   23.2047   -9.1563  -16.2399 C   0  0  0  0  0  0  0  0  0  0  0  0
   21.8343   -8.6457  -15.9384 C   0  0  2  0  0  0  0  0  0  0  0  0
   20.8433   -9.6472  -16.2486 N   0  0  0  0  0  0  0  0  0  0  0  0
   21.5650   -7.4188  -16.7221 C   0  0  0  0  0  0  0  0  0  0  0  0
   21.2586   -7.4442  -17.9267 O   0  0  0  0  0  0  0  0  0  0  0  0
   21.6609   -6.1658  -16.0702 N   0  0  0  0  0  0  0  0  0  0  0  0
   21.3592   -4.9136  -16.7795 C   0  0  1  0  0  0  0  0  0  0  0  0
   20.1558   -4.3282  -16.0847 C   0  0  0  0  0  0  0  0  0  0  0  0
   19.7478   -2.9881  -16.5962 C   0  0  0  0  0  0  0  0  0  0  0  0
   18.5925   -2.4047  -15.8907 C   0  0  0  0  0  0  0  0  0  0  0  0
   18.4843   -1.2238  -15.5111 O   0  0  0  0  0  0  0  0  0  0  0  0
   22.5489   -4.0482  -16.6531 C   0  0  0  0  0  0  0  0  0  0  0  0
   23.4113   -4.2200  -15.7465 O   0  0  0  0  0  0  0  0  0  0  0  0
   17.5200   -3.2626  -15.6251 O   0  0  0  0  0  0  0  0  0  0  0  0
   22.7861   -2.9940  -17.5271 O   0  0  0  0  0  0  0  0  0  0  0  0
  2  1  1  1
  2  3  1  0
  3  4  1  0
  4  8  1  0
  5  4  2  0
  6 12  1  0
  6  2  1  0
  7  6  2  0
  9 10  1  0
 11 10  1  6
 11 13  1  0
 11 12  1  0
 13 14  2  0
 15 13  1  0
 15 16  1  0
 16 17  1  1
 16 21  1  0
 18 17  1  0
 19 18  1  0
 20 19  2  0
 21 22  2  0
 21 24  1  0
 23 19  1  0
M  END
$$$$
