DSE.pdb
     RDKit          3D

 24 23  0  0  1  0  0  0  0  0999 V2000
   23.6235   -5.1189  -20.4421 N   0  0  0  0  0  0  0  0  0  0  0  0
   23.4595   -4.9790  -19.0303 C   0  0  1  0  0  0  0  0  0  0  0  0
   22.6065   -3.7642  -18.6723 C   0  0  0  0  0  0  0  0  0  0  0  0
   23.3160   -2.5119  -18.9625 C   0  0  0  0  0  0  0  0  0  0  0  0
   24.3615   -2.2335  -18.3034 O   0  0  0  0  0  0  0  0  0  0  0  0
   22.8601   -6.2235  -18.4844 C   0  0  0  0  0  0  0  0  0  0  0  0
   21.9011   -6.7684  -19.0956 O   0  0  0  0  0  0  0  0  0  0  0  0
   22.8180   -1.6820  -19.9441 O   0  0  0  0  0  0  0  0  0  0  0  0
   24.9040   -9.1916  -16.3744 O   0  0  0  0  0  0  0  0  0  0  0  0
   23.7580   -8.6792  -15.8054 C   0  0  0  0  0  0  0  0  0  0  0  0
   22.8163   -8.0742  -16.7936 C   0  0  2  0  0  0  0  0  0  0  0  0
   23.3377   -6.8225  -17.2863 N   0  0  0  0  0  0  0  0  0  0  0  0
   21.4945   -7.8505  -16.1653 C   0  0  0  0  0  0  0  0  0  0  0  0
   21.1751   -6.7714  -15.6371 O   0  0  0  0  0  0  0  0  0  0  0  0
   20.5569   -8.9112  -16.1676 N   0  0  0  0  0  0  0  0  0  0  0  0
   19.2251   -8.7513  -15.5652 C   0  0  1  0  0  0  0  0  0  0  0  0
   18.5180  -10.0660  -15.7780 C   0  0  0  0  0  0  0  0  0  0  0  0
   17.1631  -10.1374  -15.1590 C   0  0  0  0  0  0  0  0  0  0  0  0
   16.5097  -11.4511  -15.2993 C   0  0  0  0  0  0  0  0  0  0  0  0
   16.9411  -12.4193  -15.9528 O   0  0  0  0  0  0  0  0  0  0  0  0
   19.4314   -8.4572  -14.1330 C   0  0  0  0  0  0  0  0  0  0  0  0
   18.6269   -7.7431  -13.4712 O   0  0  0  0  0  0  0  0  0  0  0  0
   15.2909  -11.6208  -14.6341 O   0  0  0  0  0  0  0  0  0  0  0  0
   20.5251   -8.9512  -13.4323 O   0  0  0  0  0  0  0  0  0  0  0  0
  2  1  1  6
  2  3  1  0
  3  4  1  0
  4  8  1  0
  5  4  2  0
  6 12  1  0
  6  2  1  0
  7  6  2  0
  9 10  1  0
 11 10  1  1
 11 13  1  0
 11 12  1  0
 13 14  2  0
 15 13  1  0
 15 16  1  0
 16 17  1  1
 16 21  1  0
 18 17  1  0
 19 18  1  0
 20 19  2  0
 21 22  2  0
 21 24  1  0
 23 19  1  0
M  END
$$$$
