DSE.pdb
     RDKit          3D

 24 23  0  0  1  0  0  0  0  0999 V2000
   16.2056  -10.7824  -14.7528 N   0  0  0  0  0  0  0  0  0  0  0  0
   16.8850  -10.0079  -15.7418 C   0  0  1  0  0  0  0  0  0  0  0  0
   15.9841   -8.9305  -16.3414 C   0  0  0  0  0  0  0  0  0  0  0  0
   14.8544   -9.5251  -17.0668 C   0  0  0  0  0  0  0  0  0  0  0  0
   13.6792   -9.1404  -16.7914 O   0  0  0  0  0  0  0  0  0  0  0  0
   18.0991   -9.4030  -15.1366 C   0  0  0  0  0  0  0  0  0  0  0  0
   17.9937   -8.7390  -14.0699 O   0  0  0  0  0  0  0  0  0  0  0  0
   15.1137  -10.4828  -18.0237 O   0  0  0  0  0  0  0  0  0  0  0  0
   22.9649   -9.2703  -15.0644 O   0  0  0  0  0  0  0  0  0  0  0  0
   21.7832   -9.7541  -15.5830 C   0  0  0  0  0  0  0  0  0  0  0  0
   20.5750   -9.0092  -15.1193 C   0  0  2  0  0  0  0  0  0  0  0  0
   19.3842   -9.5509  -15.7273 N   0  0  0  0  0  0  0  0  0  0  0  0
   20.7002   -7.5741  -15.4611 C   0  0  0  0  0  0  0  0  0  0  0  0
   20.4088   -7.1220  -16.5819 O   0  0  0  0  0  0  0  0  0  0  0  0
   21.1718   -6.6816  -14.4685 N   0  0  0  0  0  0  0  0  0  0  0  0
   21.3245   -5.2457  -14.7463 C   0  0  1  0  0  0  0  0  0  0  0  0
   19.9353   -4.6639  -14.6738 C   0  0  0  0  0  0  0  0  0  0  0  0
   19.8959   -3.1733  -14.6999 C   0  0  0  0  0  0  0  0  0  0  0  0
   18.5367   -2.6092  -14.6160 C   0  0  0  0  0  0  0  0  0  0  0  0
   18.1932   -1.6191  -13.9436 O   0  0  0  0  0  0  0  0  0  0  0  0
   22.2120   -4.6958  -13.7023 C   0  0  0  0  0  0  0  0  0  0  0  0
   22.6689   -3.5198  -13.7600 O   0  0  0  0  0  0  0  0  0  0  0  0
   17.5433   -3.2501  -15.3638 O   0  0  0  0  0  0  0  0  0  0  0  0
   22.5947   -5.4438  -12.5954 O   0  0  0  0  0  0  0  0  0  0  0  0
  2  1  1  1
  2  3  1  0
  3  4  1  0
  4  8  1  0
  5  4  2  0
  6 12  1  0
  6  2  1  0
  7  6  2  0
  9 10  1  0
 11 10  1  6
 11 13  1  0
 11 12  1  0
 13 14  2  0
 15 13  1  0
 15 16  1  0
 16 17  1  1
 16 21  1  0
 18 17  1  0
 19 18  1  0
 20 19  2  0
 21 22  2  0
 21 24  1  0
 23 19  1  0
M  END
$$$$
