MMC.pdb
     RDKit          3D

 23 22  0  0  1  0  0  0  0  0999 V2000
   26.2321  -15.8358  -16.3992 C   0  0  0  0  0  0  0  0  0  0  0  0
   27.2870  -16.4380  -17.7414 S   0  0  0  0  0  0  0  0  0  0  0  0
   27.8915  -18.0914  -17.2336 C   0  0  0  0  0  0  0  0  0  0  0  0
   27.6505  -18.2127  -15.7659 C   0  0  0  0  0  0  0  0  0  0  0  0
   28.1181  -19.5329  -15.1909 C   0  0  2  0  0  0  0  0  0  0  0  0
   28.8241  -20.2423  -16.2104 N   0  0  0  0  0  0  0  0  0  0  0  0
   26.9294  -20.2398  -14.6864 C   0  0  0  0  0  0  0  0  0  0  0  0
   26.4388  -21.1433  -15.4159 O   0  0  0  0  0  0  0  0  0  0  0  0
   24.6610  -20.8303   -8.5190 C   0  0  0  0  0  0  0  0  0  0  0  0
   26.3488  -21.3381   -8.9855 S   0  0  0  0  0  0  0  0  0  0  0  0
   26.5066  -21.3889  -10.8024 C   0  0  0  0  0  0  0  0  0  0  0  0
   25.2706  -20.7442  -11.3741 C   0  0  0  0  0  0  0  0  0  0  0  0
   25.2637  -20.7444  -12.8844 C   0  0  2  0  0  0  0  0  0  0  0  0
   26.3275  -19.9481  -13.4351 N   0  0  0  0  0  0  0  0  0  0  0  0
   23.9800  -20.2676  -13.4414 C   0  0  0  0  0  0  0  0  0  0  0  0
   23.6335  -19.0706  -13.2847 O   0  0  0  0  0  0  0  0  0  0  0  0
   23.0886  -21.1036  -14.1642 N   0  0  0  0  0  0  0  0  0  0  0  0
   21.8509  -20.6599  -14.7526 C   0  0  1  0  0  0  0  0  0  0  0  0
   21.6625  -21.3478  -16.1107 C   0  0  0  0  0  0  0  0  0  0  0  0
   23.1094  -21.0445  -17.1727 S   0  0  0  0  0  0  0  0  0  0  0  0
   20.6768  -20.9430  -13.9304 C   0  0  0  0  0  0  0  0  0  0  0  0
   19.4719  -20.3463  -14.2256 O   0  0  0  0  0  0  0  0  0  0  0  0
   20.7601  -21.7225  -12.9624 O   0  0  0  0  0  0  0  0  0  0  0  0
  2  1  1  0
  2  3  1  0
  4  3  1  0
  4  5  1  0
  5  7  1  0
  5  6  1  6
  7  8  2  0
  7 14  1  0
  9 10  1  0
 11 12  1  0
 11 10  1  0
 13 15  1  0
 13 12  1  1
 14 13  1  0
 15 16  2  0
 17 18  1  0
 17 15  1  0
 18 19  1  6
 19 20  1  0
 21 22  1  0
 21 18  1  0
 23 21  2  0
M  END
$$$$
