MMC.pdb
     RDKit          3D

 23 22  0  0  1  0  0  0  0  0999 V2000
   24.2384  -28.0884  -19.1856 C   0  0  0  0  0  0  0  0  0  0  0  0
   24.4235  -26.6213  -20.2297 S   0  0  0  0  0  0  0  0  0  0  0  0
   25.7894  -25.6337  -19.5115 C   0  0  0  0  0  0  0  0  0  0  0  0
   25.9095  -26.0319  -18.0783 C   0  0  0  0  0  0  0  0  0  0  0  0
   27.0041  -25.2892  -17.3416 C   0  0  2  0  0  0  0  0  0  0  0  0
   27.7279  -26.2293  -16.5459 N   0  0  0  0  0  0  0  0  0  0  0  0
   26.3625  -24.2175  -16.5627 C   0  0  0  0  0  0  0  0  0  0  0  0
   25.6919  -24.5578  -15.5508 O   0  0  0  0  0  0  0  0  0  0  0  0
   26.7334  -16.7312  -14.1531 C   0  0  0  0  0  0  0  0  0  0  0  0
   27.4153  -18.1417  -15.0856 S   0  0  0  0  0  0  0  0  0  0  0  0
   26.1935  -19.4950  -15.1541 C   0  0  0  0  0  0  0  0  0  0  0  0
   26.8192  -20.6193  -15.9382 C   0  0  0  0  0  0  0  0  0  0  0  0
   25.8926  -21.8017  -16.0939 C   0  0  2  0  0  0  0  0  0  0  0  0
   26.4684  -22.8437  -16.9012 N   0  0  0  0  0  0  0  0  0  0  0  0
   24.5874  -21.4212  -16.6747 C   0  0  0  0  0  0  0  0  0  0  0  0
   24.5249  -20.9994  -17.8561 O   0  0  0  0  0  0  0  0  0  0  0  0
   23.3643  -21.5061  -15.9588 N   0  0  0  0  0  0  0  0  0  0  0  0
   22.0876  -21.0798  -16.4722 C   0  0  1  0  0  0  0  0  0  0  0  0
   20.9696  -21.7873  -15.6961 C   0  0  0  0  0  0  0  0  0  0  0  0
   21.2562  -23.5849  -15.6837 S   0  0  0  0  0  0  0  0  0  0  0  0
   21.8692  -19.6384  -16.3757 C   0  0  0  0  0  0  0  0  0  0  0  0
   20.9646  -19.0238  -17.2117 O   0  0  0  0  0  0  0  0  0  0  0  0
   22.4978  -18.9617  -15.5400 O   0  0  0  0  0  0  0  0  0  0  0  0
  2  1  1  0
  2  3  1  0
  4  3  1  0
  4  5  1  0
  5  7  1  0
  5  6  1  1
  7  8  2  0
  7 14  1  0
  9 10  1  0
 11 12  1  0
 11 10  1  0
 13 15  1  0
 13 12  1  6
 14 13  1  0
 15 16  2  0
 17 18  1  0
 17 15  1  0
 18 19  1  1
 19 20  1  0
 21 22  1  0
 21 18  1  0
 23 21  2  0
M  END
$$$$
