MMC.pdb
     RDKit          3D

 23 22  0  0  1  0  0  0  0  0999 V2000
   23.6496  -21.8605  -15.8052 C   0  0  0  0  0  0  0  0  0  0  0  0
   23.4966  -20.1323  -15.2887 S   0  0  0  0  0  0  0  0  0  0  0  0
   25.1990  -19.4647  -15.1753 C   0  0  0  0  0  0  0  0  0  0  0  0
   26.0671  -20.3363  -16.0201 C   0  0  0  0  0  0  0  0  0  0  0  0
   27.5201  -19.9108  -16.0213 C   0  0  2  0  0  0  0  0  0  0  0  0
   27.6004  -18.5875  -16.5537 N   0  0  0  0  0  0  0  0  0  0  0  0
   28.2720  -20.9119  -16.7955 C   0  0  0  0  0  0  0  0  0  0  0  0
   28.4199  -20.6994  -18.0294 O   0  0  0  0  0  0  0  0  0  0  0  0
   33.5186  -24.6735  -15.2617 C   0  0  0  0  0  0  0  0  0  0  0  0
   32.2604  -25.8714  -15.8149 S   0  0  0  0  0  0  0  0  0  0  0  0
   31.0612  -25.0531  -16.9199 C   0  0  0  0  0  0  0  0  0  0  0  0
   30.4728  -23.8946  -16.1571 C   0  0  0  0  0  0  0  0  0  0  0  0
   29.5176  -23.0766  -16.9935 C   0  0  2  0  0  0  0  0  0  0  0  0
   28.8253  -22.0833  -16.2169 N   0  0  0  0  0  0  0  0  0  0  0  0
   28.5171  -23.9152  -17.6873 C   0  0  0  0  0  0  0  0  0  0  0  0
   27.3913  -24.1105  -17.1657 O   0  0  0  0  0  0  0  0  0  0  0  0
   28.7569  -24.5311  -18.9438 N   0  0  0  0  0  0  0  0  0  0  0  0
   27.7468  -24.7627  -19.9444 C   0  0  1  0  0  0  0  0  0  0  0  0
   27.0162  -23.4464  -20.2383 C   0  0  0  0  0  0  0  0  0  0  0  0
   25.6637  -23.7314  -21.4228 S   0  0  0  0  0  0  0  0  0  0  0  0
   28.2772  -25.2816  -21.2031 C   0  0  0  0  0  0  0  0  0  0  0  0
   27.4613  -25.9998  -22.0476 O   0  0  0  0  0  0  0  0  0  0  0  0
   29.4652  -25.0772  -21.5166 O   0  0  0  0  0  0  0  0  0  0  0  0
  2  1  1  0
  2  3  1  0
  4  3  1  0
  4  5  1  0
  5  7  1  0
  5  6  1  6
  7  8  2  0
  7 14  1  0
  9 10  1  0
 11 12  1  0
 11 10  1  0
 13 15  1  0
 13 12  1  1
 14 13  1  0
 15 16  2  0
 17 18  1  0
 17 15  1  0
 18 19  1  6
 19 20  1  0
 21 22  1  0
 21 18  1  0
 23 21  2  0
M  END
$$$$
