MMC.pdb
     RDKit          3D

 23 22  0  0  1  0  0  0  0  0999 V2000
  -35.7286   58.1678   23.5832 C   0  0  0  0  0  0  0  0  0  0  0  0
  -36.1663   56.5065   23.0130 S   0  0  0  0  0  0  0  0  0  0  0  0
  -34.6639   55.8055   22.2327 C   0  0  0  0  0  0  0  0  0  0  0  0
  -34.3263   56.6801   21.0718 C   0  0  0  0  0  0  0  0  0  0  0  0
  -32.9537   57.3103   21.1779 C   0  0  2  0  0  0  0  0  0  0  0  0
  -33.0857   58.5637   21.8508 N   0  0  0  0  0  0  0  0  0  0  0  0
  -32.4122   57.4199   19.8135 C   0  0  0  0  0  0  0  0  0  0  0  0
  -32.7049   58.4542   19.1546 O   0  0  0  0  0  0  0  0  0  0  0  0
  -30.5982   53.3150   23.5370 C   0  0  0  0  0  0  0  0  0  0  0  0
  -31.5014   54.8657   23.8590 S   0  0  0  0  0  0  0  0  0  0  0  0
  -31.5100   55.9068   22.3608 C   0  0  0  0  0  0  0  0  0  0  0  0
  -31.9020   55.0214   21.2065 C   0  0  0  0  0  0  0  0  0  0  0  0
  -31.0896   55.2975   19.9636 C   0  0  2  0  0  0  0  0  0  0  0  0
  -31.5897   56.4253   19.2241 N   0  0  0  0  0  0  0  0  0  0  0  0
  -31.0293   54.1293   19.0596 C   0  0  0  0  0  0  0  0  0  0  0  0
  -31.0269   54.2980   17.8150 O   0  0  0  0  0  0  0  0  0  0  0  0
  -30.9718   52.7892   19.5250 N   0  0  0  0  0  0  0  0  0  0  0  0
  -31.4099   51.6440   18.7689 C   0  0  1  0  0  0  0  0  0  0  0  0
  -31.1349   50.3699   19.5776 C   0  0  0  0  0  0  0  0  0  0  0  0
  -29.4738   49.7311   19.1949 S   0  0  0  0  0  0  0  0  0  0  0  0
  -32.8313   51.6732   18.4319 C   0  0  0  0  0  0  0  0  0  0  0  0
  -33.5433   52.8443   18.5607 O   0  0  0  0  0  0  0  0  0  0  0  0
  -33.4032   50.6430   18.0282 O   0  0  0  0  0  0  0  0  0  0  0  0
  2  1  1  0
  2  3  1  0
  4  3  1  0
  4  5  1  0
  5  7  1  0
  5  6  1  6
  7  8  2  0
  7 14  1  0
  9 10  1  0
 11 12  1  0
 11 10  1  0
 13 15  1  0
 13 12  1  1
 14 13  1  0
 15 16  2  0
 17 18  1  0
 17 15  1  0
 18 19  1  1
 19 20  1  0
 21 22  1  0
 21 18  1  0
 23 21  2  0
M  END
$$$$
