MMC.pdb
     RDKit          3D

 23 22  0  0  1  0  0  0  0  0999 V2000
   24.0078  -19.6012  -16.6470 C   0  0  0  0  0  0  0  0  0  0  0  0
   25.0579  -18.2317  -16.1005 S   0  0  0  0  0  0  0  0  0  0  0  0
   26.7712  -18.8777  -16.0324 C   0  0  0  0  0  0  0  0  0  0  0  0
   26.6737  -20.3590  -15.8810 C   0  0  0  0  0  0  0  0  0  0  0  0
   27.6183  -20.9163  -14.8372 C   0  0  2  0  0  0  0  0  0  0  0  0
   28.3334  -22.0093  -15.4162 N   0  0  0  0  0  0  0  0  0  0  0  0
   26.8101  -21.2869  -13.6640 C   0  0  0  0  0  0  0  0  0  0  0  0
   26.1359  -22.3498  -13.7365 O   0  0  0  0  0  0  0  0  0  0  0  0
   27.9637  -20.2637   -7.2598 C   0  0  0  0  0  0  0  0  0  0  0  0
   26.2130  -19.7843   -7.4308 S   0  0  0  0  0  0  0  0  0  0  0  0
   25.4916  -20.5694   -8.9113 C   0  0  0  0  0  0  0  0  0  0  0  0
   26.4047  -20.2583  -10.0688 C   0  0  0  0  0  0  0  0  0  0  0  0
   25.9058  -20.8378  -11.3712 C   0  0  2  0  0  0  0  0  0  0  0  0
   26.7624  -20.5084  -12.4788 N   0  0  0  0  0  0  0  0  0  0  0  0
   24.5304  -20.4004  -11.6916 C   0  0  0  0  0  0  0  0  0  0  0  0
   24.3448  -19.3668  -12.3806 O   0  0  0  0  0  0  0  0  0  0  0  0
   23.3725  -21.0972  -11.2564 N   0  0  0  0  0  0  0  0  0  0  0  0
   22.0794  -21.0019  -11.8841 C   0  0  1  0  0  0  0  0  0  0  0  0
   22.0249  -21.9654  -13.0764 C   0  0  0  0  0  0  0  0  0  0  0  0
   20.3439  -22.0049  -13.7737 S   0  0  0  0  0  0  0  0  0  0  0  0
   20.9690  -21.3194  -10.9892 C   0  0  0  0  0  0  0  0  0  0  0  0
   21.2176  -21.9000   -9.7660 O   0  0  0  0  0  0  0  0  0  0  0  0
   19.7970  -21.0674  -11.3273 O   0  0  0  0  0  0  0  0  0  0  0  0
  2  1  1  0
  2  3  1  0
  4  3  1  0
  4  5  1  0
  5  7  1  0
  5  6  1  6
  7  8  2  0
  7 14  1  0
  9 10  1  0
 11 12  1  0
 11 10  1  0
 13 15  1  0
 13 12  1  1
 14 13  1  0
 15 16  2  0
 17 18  1  0
 17 15  1  0
 18 19  1  6
 19 20  1  0
 21 22  1  0
 21 18  1  0
 23 21  2  0
M  END
$$$$
