MMC.pdb
     RDKit          3D

 23 22  0  0  1  0  0  0  0  0999 V2000
   27.9538  -11.5077  -14.9927 C   0  0  0  0  0  0  0  0  0  0  0  0
   28.2066  -13.2433  -15.4405 S   0  0  0  0  0  0  0  0  0  0  0  0
   26.5816  -14.0724  -15.2698 C   0  0  0  0  0  0  0  0  0  0  0  0
   25.5778  -13.2128  -15.9629 C   0  0  0  0  0  0  0  0  0  0  0  0
   24.1598  -13.7274  -15.8337 C   0  0  2  0  0  0  0  0  0  0  0  0
   24.0893  -15.0114  -16.4561 N   0  0  0  0  0  0  0  0  0  0  0  0
   23.2693  -12.7224  -16.4371 C   0  0  0  0  0  0  0  0  0  0  0  0
   23.1619  -12.7223  -17.6933 O   0  0  0  0  0  0  0  0  0  0  0  0
   17.4836  -12.8594  -16.2827 C   0  0  0  0  0  0  0  0  0  0  0  0
   17.4899  -11.0396  -16.1718 S   0  0  0  0  0  0  0  0  0  0  0  0
   19.1401  -10.3927  -16.6043 C   0  0  0  0  0  0  0  0  0  0  0  0
   20.1562  -11.3171  -15.9852 C   0  0  0  0  0  0  0  0  0  0  0  0
   21.5764  -10.8840  -16.2614 C   0  0  2  0  0  0  0  0  0  0  0  0
   22.5422  -11.7731  -15.6734 N   0  0  0  0  0  0  0  0  0  0  0  0
   21.8485   -9.5106  -15.7866 C   0  0  0  0  0  0  0  0  0  0  0  0
   21.9502   -9.2804  -14.5561 O   0  0  0  0  0  0  0  0  0  0  0  0
   22.0069   -8.4036  -16.6612 N   0  0  0  0  0  0  0  0  0  0  0  0
   22.2992   -7.0601  -16.2313 C   0  0  1  0  0  0  0  0  0  0  0  0
   23.0005   -6.3073  -17.3690 C   0  0  0  0  0  0  0  0  0  0  0  0
   24.6034   -7.0858  -17.7408 S   0  0  0  0  0  0  0  0  0  0  0  0
   21.1145   -6.2988  -15.8420 C   0  0  0  0  0  0  0  0  0  0  0  0
   21.2441   -5.1946  -15.0303 O   0  0  0  0  0  0  0  0  0  0  0  0
   19.9861   -6.6439  -16.2411 O   0  0  0  0  0  0  0  0  0  0  0  0
  2  1  1  0
  2  3  1  0
  4  3  1  0
  4  5  1  0
  5  7  1  0
  5  6  1  6
  7  8  2  0
  7 14  1  0
  9 10  1  0
 11 12  1  0
 11 10  1  0
 13 15  1  0
 13 12  1  1
 14 13  1  0
 15 16  2  0
 17 18  1  0
 17 15  1  0
 18 19  1  6
 19 20  1  0
 21 22  1  0
 21 18  1  0
 23 21  2  0
M  END
$$$$
