MMC.pdb
     RDKit          3D

 23 22  0  0  1  0  0  0  0  0999 V2000
   27.0286  -15.9860  -14.4588 C   0  0  0  0  0  0  0  0  0  0  0  0
   27.2587  -16.6401  -16.1310 S   0  0  0  0  0  0  0  0  0  0  0  0
   26.9879  -18.4494  -16.0297 C   0  0  0  0  0  0  0  0  0  0  0  0
   28.1359  -19.0207  -15.2665 C   0  0  0  0  0  0  0  0  0  0  0  0
   28.0787  -20.5285  -15.1413 C   0  0  2  0  0  0  0  0  0  0  0  0
   27.9480  -21.0835  -16.4513 N   0  0  0  0  0  0  0  0  0  0  0  0
   26.9604  -20.8541  -14.2413 C   0  0  0  0  0  0  0  0  0  0  0  0
   25.9903  -21.4944  -14.7296 O   0  0  0  0  0  0  0  0  0  0  0  0
   27.2048  -19.7250   -7.9572 C   0  0  0  0  0  0  0  0  0  0  0  0
   25.4532  -20.2309   -7.9732 S   0  0  0  0  0  0  0  0  0  0  0  0
   24.9795  -20.7909   -9.6437 C   0  0  0  0  0  0  0  0  0  0  0  0
   26.1508  -20.5201  -10.5520 C   0  0  0  0  0  0  0  0  0  0  0  0
   25.8428  -20.8231  -11.9992 C   0  0  2  0  0  0  0  0  0  0  0  0
   26.9337  -20.4817  -12.8724 N   0  0  0  0  0  0  0  0  0  0  0  0
   24.6250  -20.1311  -12.4723 C   0  0  0  0  0  0  0  0  0  0  0  0
   24.7215  -19.0388  -13.0847 O   0  0  0  0  0  0  0  0  0  0  0  0
   23.3149  -20.6401  -12.2717 N   0  0  0  0  0  0  0  0  0  0  0  0
   22.1695  -20.2799  -13.0676 C   0  0  1  0  0  0  0  0  0  0  0  0
   22.3978  -20.7331  -14.5151 C   0  0  0  0  0  0  0  0  0  0  0  0
   20.8996  -20.4409  -15.5069 S   0  0  0  0  0  0  0  0  0  0  0  0
   20.9193  -20.8707  -12.5958 C   0  0  0  0  0  0  0  0  0  0  0  0
   20.9174  -22.1410  -12.0656 O   0  0  0  0  0  0  0  0  0  0  0  0
   19.8535  -20.2303  -12.6708 O   0  0  0  0  0  0  0  0  0  0  0  0
  2  1  1  0
  2  3  1  0
  4  3  1  0
  4  5  1  0
  5  7  1  0
  5  6  1  6
  7  8  2  0
  7 14  1  0
  9 10  1  0
 11 12  1  0
 11 10  1  0
 13 15  1  0
 13 12  1  1
 14 13  1  0
 15 16  2  0
 17 18  1  0
 17 15  1  0
 18 19  1  6
 19 20  1  0
 21 22  1  0
 21 18  1  0
 23 21  2  0
M  END
$$$$
