MMC.pdb
     RDKit          3D

 23 22  0  0  1  0  0  0  0  0999 V2000
   33.9972  -24.7102  -24.2015 C   0  0  0  0  0  0  0  0  0  0  0  0
   32.3635  -23.9331  -24.2646 S   0  0  0  0  0  0  0  0  0  0  0  0
   31.4357  -24.5406  -22.8061 C   0  0  0  0  0  0  0  0  0  0  0  0
   32.4091  -24.6391  -21.6793 C   0  0  0  0  0  0  0  0  0  0  0  0
   32.0399  -25.6978  -20.6618 C   0  0  2  0  0  0  0  0  0  0  0  0
   31.6659  -25.0435  -19.4481 N   0  0  0  0  0  0  0  0  0  0  0  0
   33.1965  -26.5977  -20.5224 C   0  0  0  0  0  0  0  0  0  0  0  0
   33.2817  -27.5620  -21.3300 O   0  0  0  0  0  0  0  0  0  0  0  0
   39.4775  -23.8791  -20.3002 C   0  0  0  0  0  0  0  0  0  0  0  0
   38.6209  -24.9556  -19.1038 S   0  0  0  0  0  0  0  0  0  0  0  0
   37.1672  -25.7299  -19.8885 C   0  0  0  0  0  0  0  0  0  0  0  0
   36.5449  -26.6449  -18.8660 C   0  0  0  0  0  0  0  0  0  0  0  0
   35.3038  -27.3324  -19.3840 C   0  0  2  0  0  0  0  0  0  0  0  0
   34.1987  -26.4238  -19.5332 N   0  0  0  0  0  0  0  0  0  0  0  0
   34.8795  -28.4541  -18.5196 C   0  0  0  0  0  0  0  0  0  0  0  0
   34.5253  -28.2346  -17.3348 O   0  0  0  0  0  0  0  0  0  0  0  0
   34.8462  -29.8038  -18.9591 N   0  0  0  0  0  0  0  0  0  0  0  0
   34.3848  -30.9102  -18.1603 C   0  0  1  0  0  0  0  0  0  0  0  0
   32.9320  -30.6569  -17.7382 C   0  0  0  0  0  0  0  0  0  0  0  0
   32.3463  -32.0072  -16.6671 S   0  0  0  0  0  0  0  0  0  0  0  0
   34.4420  -32.1960  -18.8518 C   0  0  0  0  0  0  0  0  0  0  0  0
   34.3612  -33.3666  -18.1323 O   0  0  0  0  0  0  0  0  0  0  0  0
   34.5636  -32.2387  -20.0908 O   0  0  0  0  0  0  0  0  0  0  0  0
  2  1  1  0
  2  3  1  0
  4  3  1  0
  4  5  1  0
  5  7  1  0
  5  6  1  1
  7  8  2  0
  7 14  1  0
  9 10  1  0
 11 12  1  0
 11 10  1  0
 13 15  1  0
 13 12  1  1
 14 13  1  0
 15 16  2  0
 17 18  1  0
 17 15  1  0
 18 19  1  6
 19 20  1  0
 21 22  1  0
 21 18  1  0
 23 21  2  0
M  END
$$$$
