MMC.pdb
     RDKit          3D

 23 22  0  0  1  0  0  0  0  0999 V2000
   15.2548  -18.9608  -14.8138 C   0  0  0  0  0  0  0  0  0  0  0  0
   16.0741  -18.2745  -16.2748 S   0  0  0  0  0  0  0  0  0  0  0  0
   17.3649  -17.1268  -15.6633 C   0  0  0  0  0  0  0  0  0  0  0  0
   18.3638  -17.9493  -14.9200 C   0  0  0  0  0  0  0  0  0  0  0  0
   19.7346  -17.9492  -15.5629 C   0  0  2  0  0  0  0  0  0  0  0  0
   19.5712  -18.1395  -16.9694 N   0  0  0  0  0  0  0  0  0  0  0  0
   20.5292  -19.0006  -14.9071 C   0  0  0  0  0  0  0  0  0  0  0  0
   20.6040  -18.9713  -13.6489 O   0  0  0  0  0  0  0  0  0  0  0  0
   20.8263  -25.2647  -15.3515 C   0  0  0  0  0  0  0  0  0  0  0  0
   19.6474  -24.3058  -14.3442 S   0  0  0  0  0  0  0  0  0  0  0  0
   20.2748  -22.6113  -14.0916 C   0  0  0  0  0  0  0  0  0  0  0  0
   21.3995  -22.4030  -15.0722 C   0  0  0  0  0  0  0  0  0  0  0  0
   22.0059  -21.0234  -14.9726 C   0  0  2  0  0  0  0  0  0  0  0  0
   21.2006  -20.0250  -15.6234 N   0  0  0  0  0  0  0  0  0  0  0  0
   23.3724  -20.9673  -15.5341 C   0  0  0  0  0  0  0  0  0  0  0  0
   23.5377  -20.8080  -16.7689 O   0  0  0  0  0  0  0  0  0  0  0  0
   24.5437  -21.0854  -14.7405 N   0  0  0  0  0  0  0  0  0  0  0  0
   25.8875  -20.9974  -15.2520 C   0  0  1  0  0  0  0  0  0  0  0  0
   26.8463  -20.6747  -14.0990 C   0  0  0  0  0  0  0  0  0  0  0  0
   26.3727  -19.1034  -13.3114 S   0  0  0  0  0  0  0  0  0  0  0  0
   26.3489  -22.2227  -15.9004 C   0  0  0  0  0  0  0  0  0  0  0  0
   27.6108  -22.2765  -16.4475 O   0  0  0  0  0  0  0  0  0  0  0  0
   25.6055  -23.2204  -15.9608 O   0  0  0  0  0  0  0  0  0  0  0  0
  2  1  1  0
  2  3  1  0
  4  3  1  0
  4  5  1  0
  5  7  1  0
  5  6  1  6
  7  8  2  0
  7 14  1  0
  9 10  1  0
 11 12  1  0
 11 10  1  0
 13 15  1  0
 13 12  1  6
 14 13  1  0
 15 16  2  0
 17 18  1  0
 17 15  1  0
 18 19  1  1
 19 20  1  0
 21 22  1  0
 21 18  1  0
 23 21  2  0
M  END
$$$$
