MMC.pdb
     RDKit          3D

 23 22  0  0  1  0  0  0  0  0999 V2000
   24.4352  -27.3550  -17.8671 C   0  0  0  0  0  0  0  0  0  0  0  0
   23.1855  -26.6173  -18.9491 S   0  0  0  0  0  0  0  0  0  0  0  0
   23.7554  -24.9177  -19.3282 C   0  0  0  0  0  0  0  0  0  0  0  0
   23.6279  -24.1238  -18.0711 C   0  0  0  0  0  0  0  0  0  0  0  0
   23.9658  -22.6591  -18.2526 C   0  0  2  0  0  0  0  0  0  0  0  0
   25.3780  -22.5430  -18.4344 N   0  0  0  0  0  0  0  0  0  0  0  0
   23.4549  -21.9395  -17.0744 C   0  0  0  0  0  0  0  0  0  0  0  0
   24.2420  -21.7872  -16.1014 O   0  0  0  0  0  0  0  0  0  0  0  0
   20.3750  -16.6998  -17.3469 C   0  0  0  0  0  0  0  0  0  0  0  0
   22.1129  -16.7226  -16.7964 S   0  0  0  0  0  0  0  0  0  0  0  0
   22.6289  -18.4329  -16.4259 C   0  0  0  0  0  0  0  0  0  0  0  0
   21.3747  -19.2353  -16.1947 C   0  0  0  0  0  0  0  0  0  0  0  0
   21.6652  -20.6784  -15.8566 C   0  0  2  0  0  0  0  0  0  0  0  0
   22.1364  -21.4213  -16.9945 N   0  0  0  0  0  0  0  0  0  0  0  0
   20.4874  -21.3727  -15.2941 C   0  0  0  0  0  0  0  0  0  0  0  0
   19.5815  -21.7908  -16.0570 O   0  0  0  0  0  0  0  0  0  0  0  0
   20.3122  -21.6033  -13.9042 N   0  0  0  0  0  0  0  0  0  0  0  0
   19.1585  -22.2404  -13.3225 C   0  0  1  0  0  0  0  0  0  0  0  0
   19.3962  -22.4406  -11.8204 C   0  0  0  0  0  0  0  0  0  0  0  0
   18.0079  -23.3587  -11.0833 S   0  0  0  0  0  0  0  0  0  0  0  0
   17.9221  -21.4807  -13.4920 C   0  0  0  0  0  0  0  0  0  0  0  0
   16.7535  -22.1339  -13.8124 O   0  0  0  0  0  0  0  0  0  0  0  0
   17.9195  -20.2434  -13.3479 O   0  0  0  0  0  0  0  0  0  0  0  0
  2  1  1  0
  2  3  1  0
  4  3  1  0
  4  5  1  0
  5  7  1  0
  5  6  1  1
  7  8  2  0
  7 14  1  0
  9 10  1  0
 11 12  1  0
 11 10  1  0
 13 15  1  0
 13 12  1  6
 14 13  1  0
 15 16  2  0
 17 18  1  0
 17 15  1  0
 18 19  1  1
 19 20  1  0
 21 22  1  0
 21 18  1  0
 23 21  2  0
M  END
$$$$
