MMC.pdb
     RDKit          3D

 23 22  0  0  1  0  0  0  0  0999 V2000
   18.8229  -10.9199  -18.2490 C   0  0  0  0  0  0  0  0  0  0  0  0
   18.4830  -12.6646  -18.5912 S   0  0  0  0  0  0  0  0  0  0  0  0
   20.0801  -13.4288  -19.0629 C   0  0  0  0  0  0  0  0  0  0  0  0
   21.0172  -13.2225  -17.9201 C   0  0  0  0  0  0  0  0  0  0  0  0
   22.4294  -13.6818  -18.2152 C   0  0  2  0  0  0  0  0  0  0  0  0
   22.4387  -15.1100  -18.2528 N   0  0  0  0  0  0  0  0  0  0  0  0
   23.3052  -13.1067  -17.1812 C   0  0  0  0  0  0  0  0  0  0  0  0
   23.5486  -13.8154  -16.1673 O   0  0  0  0  0  0  0  0  0  0  0  0
   29.3428  -12.5238  -16.6612 C   0  0  0  0  0  0  0  0  0  0  0  0
   28.8303  -10.7879  -16.4423 S   0  0  0  0  0  0  0  0  0  0  0  0
   27.1521  -10.7165  -15.7301 C   0  0  0  0  0  0  0  0  0  0  0  0
   26.2060  -11.2660  -16.7659 C   0  0  0  0  0  0  0  0  0  0  0  0
   24.7728  -11.2824  -16.2897 C   0  0  2  0  0  0  0  0  0  0  0  0
   23.8744  -11.8108  -17.2810 N   0  0  0  0  0  0  0  0  0  0  0  0
   24.2976   -9.9410  -15.8889 C   0  0  0  0  0  0  0  0  0  0  0  0
   24.9804   -9.2432  -15.0988 O   0  0  0  0  0  0  0  0  0  0  0  0
   23.0816   -9.3762  -16.3559 N   0  0  0  0  0  0  0  0  0  0  0  0
   22.5909   -8.0743  -15.9825 C   0  0  1  0  0  0  0  0  0  0  0  0
   23.4076   -6.9992  -16.7105 C   0  0  0  0  0  0  0  0  0  0  0  0
   22.8075   -5.3417  -16.2562 S   0  0  0  0  0  0  0  0  0  0  0  0
   21.1794   -7.8676  -16.2983 C   0  0  0  0  0  0  0  0  0  0  0  0
   20.4955   -6.8170  -15.7296 O   0  0  0  0  0  0  0  0  0  0  0  0
   20.5907   -8.6378  -17.0803 O   0  0  0  0  0  0  0  0  0  0  0  0
  2  1  1  0
  2  3  1  0
  4  3  1  0
  4  5  1  0
  5  7  1  0
  5  6  1  1
  7  8  2  0
  7 14  1  0
  9 10  1  0
 11 12  1  0
 11 10  1  0
 13 15  1  0
 13 12  1  6
 14 13  1  0
 15 16  2  0
 17 18  1  0
 17 15  1  0
 18 19  1  6
 19 20  1  0
 21 22  1  0
 21 18  1  0
 23 21  2  0
M  END
$$$$
