MMC.pdb
     RDKit          3D

 23 22  0  0  1  0  0  0  0  0999 V2000
   22.0540  -19.6959   -8.8637 C   0  0  0  0  0  0  0  0  0  0  0  0
   23.1137  -20.6986   -7.7921 S   0  0  0  0  0  0  0  0  0  0  0  0
   24.5199  -21.2627   -8.8225 C   0  0  0  0  0  0  0  0  0  0  0  0
   24.6612  -20.2854   -9.9412 C   0  0  0  0  0  0  0  0  0  0  0  0
   25.7008  -20.6936  -10.9634 C   0  0  2  0  0  0  0  0  0  0  0  0
   26.9611  -20.8099  -10.3007 N   0  0  0  0  0  0  0  0  0  0  0  0
   25.6823  -19.6871  -12.0374 C   0  0  0  0  0  0  0  0  0  0  0  0
   25.9122  -18.4902  -11.7146 O   0  0  0  0  0  0  0  0  0  0  0  0
   28.2736  -16.8493  -18.5784 C   0  0  0  0  0  0  0  0  0  0  0  0
   28.2582  -18.0074  -17.1703 S   0  0  0  0  0  0  0  0  0  0  0  0
   26.6442  -17.9391  -16.3224 C   0  0  0  0  0  0  0  0  0  0  0  0
   26.6882  -18.9449  -15.2014 C   0  0  0  0  0  0  0  0  0  0  0  0
   25.3902  -19.0108  -14.4319 C   0  0  2  0  0  0  0  0  0  0  0  0
   25.4207  -20.0069  -13.3947 N   0  0  0  0  0  0  0  0  0  0  0  0
   24.2294  -19.2766  -15.3080 C   0  0  0  0  0  0  0  0  0  0  0  0
   24.1029  -20.3978  -15.8596 O   0  0  0  0  0  0  0  0  0  0  0  0
   23.2190  -18.3147  -15.5717 N   0  0  0  0  0  0  0  0  0  0  0  0
   22.0856  -18.5378  -16.4324 C   0  0  1  0  0  0  0  0  0  0  0  0
   20.9073  -17.6840  -15.9469 C   0  0  0  0  0  0  0  0  0  0  0  0
   20.4187  -18.1877  -14.2673 S   0  0  0  0  0  0  0  0  0  0  0  0
   22.3404  -18.2103  -17.8332 C   0  0  0  0  0  0  0  0  0  0  0  0
   21.9640  -19.0895  -18.8232 O   0  0  0  0  0  0  0  0  0  0  0  0
   22.8972  -17.1383  -18.1371 O   0  0  0  0  0  0  0  0  0  0  0  0
  2  1  1  0
  2  3  1  0
  4  3  1  0
  4  5  1  0
  5  7  1  0
  5  6  1  1
  7  8  2  0
  7 14  1  0
  9 10  1  0
 11 12  1  0
 11 10  1  0
 13 15  1  0
 13 12  1  6
 14 13  1  0
 15 16  2  0
 17 18  1  0
 17 15  1  0
 18 19  1  1
 19 20  1  0
 21 22  1  0
 21 18  1  0
 23 21  2  0
M  END
$$$$
