GFR.pdb
     RDKit          3D

 27 27  0  0  1  0  0  0  0  0999 V2000
    5.1138  -21.0465   24.7960 N   0  0  0  0  0  0  0  0  0  0  0  0
    6.4391  -20.4768   24.8760 C   0  0  0  0  0  0  0  0  0  0  0  0
    6.3904  -18.9868   24.7127 C   0  0  0  0  0  0  0  0  0  0  0  0
    5.9307  -18.5259   23.6372 O   0  0  0  0  0  0  0  0  0  0  0  0
    6.8424  -18.1129   25.7249 N   0  0  0  0  0  0  0  0  0  0  0  0
    6.9764  -16.6776   25.5075 C   0  0  1  0  0  0  0  0  0  0  0  0
    6.9908  -15.9315   26.7950 C   0  0  0  0  0  0  0  0  0  0  0  0
    7.0775  -14.4660   26.6105 C   0  0  0  0  0  0  0  0  0  0  0  0
    5.9095  -13.7174   26.5887 C   0  0  0  0  0  0  0  0  0  0  0  0
    5.9438  -12.3488   26.4317 C   0  0  0  0  0  0  0  0  0  0  0  0
    7.1305  -11.6877   26.2927 C   0  0  0  0  0  0  0  0  0  0  0  0
    8.2823  -12.4532   26.3173 C   0  0  0  0  0  0  0  0  0  0  0  0
    8.2700  -13.8130   26.4722 C   0  0  0  0  0  0  0  0  0  0  0  0
    8.1176  -16.3864   24.5998 C   0  0  0  0  0  0  0  0  0  0  0  0
    9.2021  -17.0098   24.7221 O   0  0  0  0  0  0  0  0  0  0  0  0
    7.5251  -12.4150   16.3125 N   0  0  0  0  0  0  0  0  0  0  0  0
    8.3379  -13.5909   16.3842 C   0  0  0  0  0  0  0  0  0  0  0  0
    8.6979  -14.1434   15.2865 N   0  0  0  0  0  0  0  0  0  0  0  0
    8.7482  -14.1526   17.6056 N   0  0  0  0  0  0  0  0  0  0  0  0
    8.2032  -13.6589   18.9047 C   0  0  0  0  0  0  0  0  0  0  0  0
    8.8218  -14.4660   19.9695 C   0  0  0  0  0  0  0  0  0  0  0  0
    8.2522  -14.6024   21.3074 C   0  0  0  0  0  0  0  0  0  0  0  0
    8.8640  -15.3635   22.3871 C   0  0  2  0  0  0  0  0  0  0  0  0
    8.0122  -15.4085   23.5842 N   0  0  0  0  0  0  0  0  0  0  0  0
   10.2609  -15.1403   22.7377 C   0  0  0  0  0  0  0  0  0  0  0  0
   10.4472  -14.4393   23.9925 O   0  0  0  0  0  0  0  0  0  0  0  0
   11.2835  -15.4511   22.1407 O   0  0  0  0  0  0  0  0  0  0  0  0
  2  1  1  0
  2  3  1  0
  3  4  2  0
  5  3  1  0
  5  6  1  0
  6 14  1  0
  6  7  1  1
  8  7  1  0
  9  8  2  0
 10  9  1  0
 11 10  2  0
 11 12  1  0
 12 13  2  0
 13  8  1  0
 14 15  2  0
 16 17  1  0
 17 18  2  0
 17 19  1  0
 19 20  1  0
 20 21  1  0
 21 22  1  0
 23 22  1  6
 23 25  1  0
 24 23  1  0
 24 14  1  0
 25 27  2  0
 25 26  1  0
M  END
$$$$
