GFR.pdb
     RDKit          3D

 27 27  0  0  1  0  0  0  0  0999 V2000
    4.2466  -19.1219   21.5073 N   0  0  0  0  0  0  0  0  0  0  0  0
    4.8077  -19.1347   22.8387 C   0  0  0  0  0  0  0  0  0  0  0  0
    5.5110  -17.8435   23.1339 C   0  0  0  0  0  0  0  0  0  0  0  0
    5.7091  -17.0482   22.1807 O   0  0  0  0  0  0  0  0  0  0  0  0
    5.9446  -17.5141   24.4362 N   0  0  0  0  0  0  0  0  0  0  0  0
    6.6632  -16.2790   24.7252 C   0  0  1  0  0  0  0  0  0  0  0  0
    6.1939  -15.6611   25.9950 C   0  0  0  0  0  0  0  0  0  0  0  0
    6.7919  -14.3307   26.2437 C   0  0  0  0  0  0  0  0  0  0  0  0
    6.0840  -13.1934   25.8824 C   0  0  0  0  0  0  0  0  0  0  0  0
    6.5971  -11.9343   26.1066 C   0  0  0  0  0  0  0  0  0  0  0  0
    7.8196  -11.7684   26.6919 C   0  0  0  0  0  0  0  0  0  0  0  0
    8.5080  -12.9153   27.0440 C   0  0  0  0  0  0  0  0  0  0  0  0
    8.0163  -14.1746   26.8302 C   0  0  0  0  0  0  0  0  0  0  0  0
    8.1323  -16.4906   24.6349 C   0  0  0  0  0  0  0  0  0  0  0  0
    8.6656  -17.4879   25.1832 O   0  0  0  0  0  0  0  0  0  0  0  0
    8.1748  -12.3463   19.5303 N   0  0  0  0  0  0  0  0  0  0  0  0
    8.1174  -13.6009   18.8437 C   0  0  0  0  0  0  0  0  0  0  0  0
    7.4575  -13.6591   17.7478 N   0  0  0  0  0  0  0  0  0  0  0  0
    8.7532  -14.7570   19.3279 N   0  0  0  0  0  0  0  0  0  0  0  0
   10.1029  -14.6883   19.9621 C   0  0  0  0  0  0  0  0  0  0  0  0
    9.8946  -14.4682   21.4029 C   0  0  0  0  0  0  0  0  0  0  0  0
   10.7776  -15.0074   22.4335 C   0  0  0  0  0  0  0  0  0  0  0  0
   10.3401  -15.8706   23.5211 C   0  0  2  0  0  0  0  0  0  0  0  0
    8.9596  -15.5823   23.9354 N   0  0  0  0  0  0  0  0  0  0  0  0
   11.2054  -16.0891   24.6734 C   0  0  0  0  0  0  0  0  0  0  0  0
   12.5061  -16.6325   24.3370 O   0  0  0  0  0  0  0  0  0  0  0  0
   11.0012  -15.8856   25.8632 O   0  0  0  0  0  0  0  0  0  0  0  0
  2  1  1  0
  2  3  1  0
  3  4  2  0
  5  3  1  0
  5  6  1  0
  6 14  1  0
  6  7  1  1
  8  7  1  0
  9  8  2  0
 10  9  1  0
 11 10  2  0
 11 12  1  0
 12 13  2  0
 13  8  1  0
 14 15  2  0
 16 17  1  0
 17 18  2  0
 17 19  1  0
 19 20  1  0
 20 21  1  0
 21 22  1  0
 23 22  1  1
 23 25  1  0
 24 23  1  0
 24 14  1  0
 25 27  2  0
 25 26  1  0
M  END
$$$$
