GFR.pdb
     RDKit          3D

 27 27  0  0  1  0  0  0  0  0999 V2000
    5.2160  -16.6413   21.2997 N   0  0  0  0  0  0  0  0  0  0  0  0
    5.3548  -16.8035   22.7287 C   0  0  0  0  0  0  0  0  0  0  0  0
    6.6822  -16.2866   23.1981 C   0  0  0  0  0  0  0  0  0  0  0  0
    7.5113  -15.9151   22.3293 O   0  0  0  0  0  0  0  0  0  0  0  0
    7.0081  -16.2122   24.5695 N   0  0  0  0  0  0  0  0  0  0  0  0
    8.3392  -15.8375   25.0311 C   0  0  1  0  0  0  0  0  0  0  0  0
    8.2891  -15.1973   26.3735 C   0  0  0  0  0  0  0  0  0  0  0  0
    7.7114  -13.8355   26.3411 C   0  0  0  0  0  0  0  0  0  0  0  0
    8.3939  -12.8276   25.6751 C   0  0  0  0  0  0  0  0  0  0  0  0
    7.8870  -11.5480   25.6091 C   0  0  0  0  0  0  0  0  0  0  0  0
    6.6960  -11.2334   26.1982 C   0  0  0  0  0  0  0  0  0  0  0  0
    6.0325  -12.2529   26.8566 C   0  0  0  0  0  0  0  0  0  0  0  0
    6.5185  -13.5301   26.9338 C   0  0  0  0  0  0  0  0  0  0  0  0
    9.2788  -16.9842   24.9166 C   0  0  0  0  0  0  0  0  0  0  0  0
    9.0929  -18.0280   25.5914 O   0  0  0  0  0  0  0  0  0  0  0  0
   14.9855  -19.4661   19.2454 N   0  0  0  0  0  0  0  0  0  0  0  0
   15.1895  -20.1884   20.4641 C   0  0  0  0  0  0  0  0  0  0  0  0
   16.3864  -20.3018   20.9051 N   0  0  0  0  0  0  0  0  0  0  0  0
   14.1318  -20.7710   21.1833 N   0  0  0  0  0  0  0  0  0  0  0  0
   12.8451  -20.0429   21.3905 C   0  0  0  0  0  0  0  0  0  0  0  0
   13.1406  -18.8696   22.2294 C   0  0  0  0  0  0  0  0  0  0  0  0
   12.1239  -17.9137   22.6600 C   0  0  0  0  0  0  0  0  0  0  0  0
   11.3882  -18.0054   23.9129 C   0  0  2  0  0  0  0  0  0  0  0  0
   10.3964  -16.9295   24.0523 N   0  0  0  0  0  0  0  0  0  0  0  0
   12.1009  -18.2354   25.1632 C   0  0  0  0  0  0  0  0  0  0  0  0
   12.5400  -19.6045   25.3461 O   0  0  0  0  0  0  0  0  0  0  0  0
   12.3796  -17.4582   26.0670 O   0  0  0  0  0  0  0  0  0  0  0  0
  2  1  1  0
  2  3  1  0
  3  4  2  0
  5  3  1  0
  5  6  1  0
  6 14  1  0
  6  7  1  1
  8  7  1  0
  9  8  2  0
 10  9  1  0
 11 10  2  0
 11 12  1  0
 12 13  2  0
 13  8  1  0
 14 15  2  0
 16 17  1  0
 17 18  2  0
 17 19  1  0
 19 20  1  0
 20 21  1  0
 21 22  1  0
 23 22  1  6
 23 25  1  0
 24 23  1  0
 24 14  1  0
 25 27  2  0
 25 26  1  0
M  END
$$$$
