GFR.pdb
     RDKit          3D

 27 27  0  0  1  0  0  0  0  0999 V2000
    6.7521  -18.7174   17.9005 N   0  0  0  0  0  0  0  0  0  0  0  0
    6.7296  -18.7336   19.3450 C   0  0  0  0  0  0  0  0  0  0  0  0
    7.8344  -17.8884   19.9056 C   0  0  0  0  0  0  0  0  0  0  0  0
    8.7745  -17.5611   19.1377 O   0  0  0  0  0  0  0  0  0  0  0  0
    7.8357  -17.4638   21.2517 N   0  0  0  0  0  0  0  0  0  0  0  0
    8.8410  -16.5466   21.7748 C   0  0  1  0  0  0  0  0  0  0  0  0
    8.2176  -15.4460   22.5588 C   0  0  0  0  0  0  0  0  0  0  0  0
    7.7082  -14.3488   21.7068 C   0  0  0  0  0  0  0  0  0  0  0  0
    6.4351  -14.4498   21.1642 C   0  0  0  0  0  0  0  0  0  0  0  0
    5.9158  -13.4464   20.3753 C   0  0  0  0  0  0  0  0  0  0  0  0
    6.6400  -12.3212   20.1035 C   0  0  0  0  0  0  0  0  0  0  0  0
    7.9063  -12.2412   20.6543 C   0  0  0  0  0  0  0  0  0  0  0  0
    8.4405  -13.2261   21.4403 C   0  0  0  0  0  0  0  0  0  0  0  0
    9.9162  -17.2910   22.4823 C   0  0  0  0  0  0  0  0  0  0  0  0
    9.6367  -18.0501   23.4441 O   0  0  0  0  0  0  0  0  0  0  0  0
   17.1496  -20.9409   19.6391 N   0  0  0  0  0  0  0  0  0  0  0  0
   17.4053  -20.8249   21.0426 C   0  0  0  0  0  0  0  0  0  0  0  0
   18.1566  -21.7035   21.5935 N   0  0  0  0  0  0  0  0  0  0  0  0
   16.8646  -19.7911   21.8262 N   0  0  0  0  0  0  0  0  0  0  0  0
   15.9166  -18.7955   21.2443 C   0  0  0  0  0  0  0  0  0  0  0  0
   14.7687  -18.7016   22.1615 C   0  0  0  0  0  0  0  0  0  0  0  0
   13.5492  -17.9615   21.8487 C   0  0  0  0  0  0  0  0  0  0  0  0
   12.3812  -17.8984   22.7154 C   0  0  2  0  0  0  0  0  0  0  0  0
   11.2697  -17.1645   22.0937 N   0  0  0  0  0  0  0  0  0  0  0  0
   12.5328  -17.5416   24.1204 C   0  0  0  0  0  0  0  0  0  0  0  0
   13.2270  -18.5401   24.9088 O   0  0  0  0  0  0  0  0  0  0  0  0
   12.1674  -16.5413   24.7242 O   0  0  0  0  0  0  0  0  0  0  0  0
  2  1  1  0
  2  3  1  0
  3  4  2  0
  5  3  1  0
  5  6  1  0
  6 14  1  0
  6  7  1  1
  8  7  1  0
  9  8  2  0
 10  9  1  0
 11 10  2  0
 11 12  1  0
 12 13  2  0
 13  8  1  0
 14 15  2  0
 16 17  1  0
 17 18  2  0
 17 19  1  0
 19 20  1  0
 20 21  1  0
 21 22  1  0
 23 22  1  6
 23 25  1  0
 24 23  1  0
 24 14  1  0
 25 27  2  0
 25 26  1  0
M  END
$$$$
