GFR.pdb
     RDKit          3D

 27 27  0  0  1  0  0  0  0  0999 V2000
    4.6321  -18.3570   21.0340 N   0  0  0  0  0  0  0  0  0  0  0  0
    5.1138  -18.6412   22.3662 C   0  0  0  0  0  0  0  0  0  0  0  0
    5.8846  -17.4774   22.9146 C   0  0  0  0  0  0  0  0  0  0  0  0
    6.4509  -16.7074   22.0979 O   0  0  0  0  0  0  0  0  0  0  0  0
    5.9824  -17.2381   24.3022 N   0  0  0  0  0  0  0  0  0  0  0  0
    6.7981  -16.1600   24.8478 C   0  0  1  0  0  0  0  0  0  0  0  0
    6.2951  -15.7162   26.1761 C   0  0  0  0  0  0  0  0  0  0  0  0
    6.9646  -14.4908   26.6655 C   0  0  0  0  0  0  0  0  0  0  0  0
    8.1507  -14.6066   27.3761 C   0  0  0  0  0  0  0  0  0  0  0  0
    8.8144  -13.4917   27.8400 C   0  0  0  0  0  0  0  0  0  0  0  0
    8.3237  -12.2377   27.6137 C   0  0  0  0  0  0  0  0  0  0  0  0
    7.1403  -12.1453   26.9035 C   0  0  0  0  0  0  0  0  0  0  0  0
    6.4657  -13.2397   26.4341 C   0  0  0  0  0  0  0  0  0  0  0  0
    8.2404  -16.5197   24.8103 C   0  0  0  0  0  0  0  0  0  0  0  0
    8.6514  -17.5587   25.3857 O   0  0  0  0  0  0  0  0  0  0  0  0
    6.8380  -15.1793   20.6748 N   0  0  0  0  0  0  0  0  0  0  0  0
    7.6259  -14.4704   19.7129 C   0  0  0  0  0  0  0  0  0  0  0  0
    7.0549  -14.0803   18.6351 N   0  0  0  0  0  0  0  0  0  0  0  0
    8.9894  -14.1927   19.9101 N   0  0  0  0  0  0  0  0  0  0  0  0
    9.5604  -14.0614   21.2832 C   0  0  0  0  0  0  0  0  0  0  0  0
   10.4101  -15.2414   21.5144 C   0  0  0  0  0  0  0  0  0  0  0  0
   11.1581  -15.4628   22.7490 C   0  0  0  0  0  0  0  0  0  0  0  0
   10.5964  -16.0526   23.9557 C   0  0  2  0  0  0  0  0  0  0  0  0
    9.1783  -15.7082   24.1316 N   0  0  0  0  0  0  0  0  0  0  0  0
   11.3232  -15.9688   25.2161 C   0  0  0  0  0  0  0  0  0  0  0  0
   12.6762  -16.4840   25.1498 O   0  0  0  0  0  0  0  0  0  0  0  0
   10.9677  -15.5355   26.3045 O   0  0  0  0  0  0  0  0  0  0  0  0
  2  1  1  0
  2  3  1  0
  3  4  2  0
  5  3  1  0
  5  6  1  0
  6 14  1  0
  6  7  1  1
  8  7  1  0
  9  8  2  0
 10  9  1  0
 11 10  2  0
 11 12  1  0
 12 13  2  0
 13  8  1  0
 14 15  2  0
 16 17  1  0
 17 18  2  0
 17 19  1  0
 19 20  1  0
 20 21  1  0
 21 22  1  0
 23 22  1  6
 23 25  1  0
 24 23  1  0
 24 14  1  0
 25 27  2  0
 25 26  1  0
M  END
$$$$
