GFR.pdb
     RDKit          3D

 27 27  0  0  1  0  0  0  0  0999 V2000
    4.2812  -17.7111   22.3913 N   0  0  0  0  0  0  0  0  0  0  0  0
    4.9476  -17.8752   23.6628 C   0  0  0  0  0  0  0  0  0  0  0  0
    6.1329  -16.9622   23.7660 C   0  0  0  0  0  0  0  0  0  0  0  0
    6.4816  -16.3296   22.7371 O   0  0  0  0  0  0  0  0  0  0  0  0
    6.8474  -16.8052   24.9731 N   0  0  0  0  0  0  0  0  0  0  0  0
    8.0107  -15.9328   25.0780 C   0  0  1  0  0  0  0  0  0  0  0  0
    8.1316  -15.3490   26.4415 C   0  0  0  0  0  0  0  0  0  0  0  0
    7.3468  -14.1056   26.6073 C   0  0  0  0  0  0  0  0  0  0  0  0
    7.9576  -12.8836   26.3650 C   0  0  0  0  0  0  0  0  0  0  0  0
    7.2615  -11.7015   26.4951 C   0  0  0  0  0  0  0  0  0  0  0  0
    5.9477  -11.6978   26.8669 C   0  0  0  0  0  0  0  0  0  0  0  0
    5.3586  -12.9268   27.1035 C   0  0  0  0  0  0  0  0  0  0  0  0
    6.0320  -14.1119   26.9799 C   0  0  0  0  0  0  0  0  0  0  0  0
    9.2311  -16.6198   24.5783 C   0  0  0  0  0  0  0  0  0  0  0  0
    9.5383  -17.7609   25.0060 O   0  0  0  0  0  0  0  0  0  0  0  0
    8.6111  -12.3449   19.0139 N   0  0  0  0  0  0  0  0  0  0  0  0
    8.3826  -13.6806   18.5532 C   0  0  0  0  0  0  0  0  0  0  0  0
    7.6746  -13.8421   17.4984 N   0  0  0  0  0  0  0  0  0  0  0  0
    8.9031  -14.8070   19.2133 N   0  0  0  0  0  0  0  0  0  0  0  0
    9.8237  -14.6622   20.3795 C   0  0  0  0  0  0  0  0  0  0  0  0
   10.3721  -15.9978   20.6678 C   0  0  0  0  0  0  0  0  0  0  0  0
   11.4455  -16.2347   21.6294 C   0  0  0  0  0  0  0  0  0  0  0  0
   11.2366  -16.6633   23.0049 C   0  0  2  0  0  0  0  0  0  0  0  0
   10.0702  -16.0111   23.6168 N   0  0  0  0  0  0  0  0  0  0  0  0
   12.3605  -16.7187   23.9312 C   0  0  0  0  0  0  0  0  0  0  0  0
   12.1303  -16.0151   25.1772 O   0  0  0  0  0  0  0  0  0  0  0  0
   13.4517  -17.2616   23.8162 O   0  0  0  0  0  0  0  0  0  0  0  0
  2  1  1  0
  2  3  1  0
  3  4  2  0
  5  3  1  0
  5  6  1  0
  6 14  1  0
  6  7  1  1
  8  7  1  0
  9  8  2  0
 10  9  1  0
 11 10  2  0
 11 12  1  0
 12 13  2  0
 13  8  1  0
 14 15  2  0
 16 17  1  0
 17 18  2  0
 17 19  1  0
 19 20  1  0
 20 21  1  0
 21 22  1  0
 23 22  1  6
 23 25  1  0
 24 23  1  0
 24 14  1  0
 25 27  2  0
 25 26  1  0
M  END
$$$$
