GFR.pdb
     RDKit          3D

 27 27  0  0  1  0  0  0  0  0999 V2000
    9.3221  -18.3007   20.1435 N   0  0  0  0  0  0  0  0  0  0  0  0
    8.2929  -17.2979   20.2937 C   0  0  0  0  0  0  0  0  0  0  0  0
    8.5864  -16.4024   21.4604 C   0  0  0  0  0  0  0  0  0  0  0  0
    9.7889  -16.1359   21.7117 O   0  0  0  0  0  0  0  0  0  0  0  0
    7.5567  -15.8659   22.2631 N   0  0  0  0  0  0  0  0  0  0  0  0
    7.8352  -15.0773   23.4572 C   0  0  1  0  0  0  0  0  0  0  0  0
    6.8628  -13.9614   23.6111 C   0  0  0  0  0  0  0  0  0  0  0  0
    7.0314  -13.2216   24.8813 C   0  0  0  0  0  0  0  0  0  0  0  0
    6.2247  -13.5437   25.9632 C   0  0  0  0  0  0  0  0  0  0  0  0
    6.3555  -12.8891   27.1687 C   0  0  0  0  0  0  0  0  0  0  0  0
    7.2846  -11.9023   27.3345 C   0  0  0  0  0  0  0  0  0  0  0  0
    8.0780  -11.5972   26.2433 C   0  0  0  0  0  0  0  0  0  0  0  0
    7.9642  -12.2351   25.0377 C   0  0  0  0  0  0  0  0  0  0  0  0
    7.9763  -15.9564   24.6482 C   0  0  0  0  0  0  0  0  0  0  0  0
    6.9891  -16.6016   25.0824 O   0  0  0  0  0  0  0  0  0  0  0  0
   13.4312  -18.7932   21.5409 N   0  0  0  0  0  0  0  0  0  0  0  0
   12.1374  -19.3876   21.6872 C   0  0  0  0  0  0  0  0  0  0  0  0
   11.5420  -19.8037   20.6326 N   0  0  0  0  0  0  0  0  0  0  0  0
   11.5067  -19.5270   22.9355 N   0  0  0  0  0  0  0  0  0  0  0  0
   12.1805  -19.0915   24.1944 C   0  0  0  0  0  0  0  0  0  0  0  0
   11.3785  -17.9929   24.7581 C   0  0  0  0  0  0  0  0  0  0  0  0
   10.3390  -18.1917   25.7644 C   0  0  0  0  0  0  0  0  0  0  0  0
    9.5120  -17.1266   26.3130 C   0  0  2  0  0  0  0  0  0  0  0  0
    9.2152  -16.0874   25.3167 N   0  0  0  0  0  0  0  0  0  0  0  0
    9.8374  -16.5428   27.6081 C   0  0  0  0  0  0  0  0  0  0  0  0
    9.9566  -15.0985   27.5885 O   0  0  0  0  0  0  0  0  0  0  0  0
   10.0222  -17.0809   28.6921 O   0  0  0  0  0  0  0  0  0  0  0  0
  2  1  1  0
  2  3  1  0
  3  4  2  0
  5  3  1  0
  5  6  1  0
  6 14  1  0
  6  7  1  1
  8  7  1  0
  9  8  2  0
 10  9  1  0
 11 10  2  0
 11 12  1  0
 12 13  2  0
 13  8  1  0
 14 15  2  0
 16 17  1  0
 17 18  2  0
 17 19  1  0
 19 20  1  0
 20 21  1  0
 21 22  1  0
 23 22  1  6
 23 25  1  0
 24 23  1  0
 24 14  1  0
 25 27  2  0
 25 26  1  0
M  END
$$$$
