GFR.pdb
     RDKit          3D

 27 27  0  0  1  0  0  0  0  0999 V2000
    9.3626  -16.6175   18.7511 N   0  0  0  0  0  0  0  0  0  0  0  0
    8.3295  -16.7426   19.7533 C   0  0  0  0  0  0  0  0  0  0  0  0
    8.6325  -15.8806   20.9426 C   0  0  0  0  0  0  0  0  0  0  0  0
    9.8386  -15.6930   21.2433 O   0  0  0  0  0  0  0  0  0  0  0  0
    7.6077  -15.2897   21.7128 N   0  0  0  0  0  0  0  0  0  0  0  0
    7.8770  -14.6233   22.9812 C   0  0  1  0  0  0  0  0  0  0  0  0
    6.7386  -13.7579   23.3933 C   0  0  0  0  0  0  0  0  0  0  0  0
    6.9692  -13.0809   24.6885 C   0  0  0  0  0  0  0  0  0  0  0  0
    6.2538  -13.4935   25.8035 C   0  0  0  0  0  0  0  0  0  0  0  0
    6.4454  -12.8997   27.0321 C   0  0  0  0  0  0  0  0  0  0  0  0
    7.3464  -11.8858   27.1890 C   0  0  0  0  0  0  0  0  0  0  0  0
    8.0485  -11.4903   26.0647 C   0  0  0  0  0  0  0  0  0  0  0  0
    7.8733  -12.0668   24.8358 C   0  0  0  0  0  0  0  0  0  0  0  0
    8.3248  -15.6028   24.0064 C   0  0  0  0  0  0  0  0  0  0  0  0
    7.6117  -16.5986   24.2882 O   0  0  0  0  0  0  0  0  0  0  0  0
   15.2179  -19.9450   23.7823 N   0  0  0  0  0  0  0  0  0  0  0  0
   14.0025  -20.5243   23.2968 C   0  0  0  0  0  0  0  0  0  0  0  0
   13.9970  -21.7758   23.0256 N   0  0  0  0  0  0  0  0  0  0  0  0
   12.8295  -19.7732   23.1096 N   0  0  0  0  0  0  0  0  0  0  0  0
   12.8006  -18.3054   23.3801 C   0  0  0  0  0  0  0  0  0  0  0  0
   11.5512  -18.0224   24.1059 C   0  0  0  0  0  0  0  0  0  0  0  0
   11.4162  -16.9453   25.0828 C   0  0  0  0  0  0  0  0  0  0  0  0
   10.1441  -16.4434   25.5821 C   0  0  2  0  0  0  0  0  0  0  0  0
    9.5545  -15.4396   24.6847 N   0  0  0  0  0  0  0  0  0  0  0  0
   10.0121  -16.0493   26.9790 C   0  0  0  0  0  0  0  0  0  0  0  0
   10.1131  -17.1528   27.9131 O   0  0  0  0  0  0  0  0  0  0  0  0
    9.8317  -14.9439   27.4732 O   0  0  0  0  0  0  0  0  0  0  0  0
  2  1  1  0
  2  3  1  0
  3  4  2  0
  5  3  1  0
  5  6  1  0
  6 14  1  0
  6  7  1  1
  8  7  1  0
  9  8  2  0
 10  9  1  0
 11 10  2  0
 11 12  1  0
 12 13  2  0
 13  8  1  0
 14 15  2  0
 16 17  1  0
 17 18  2  0
 17 19  1  0
 19 20  1  0
 20 21  1  0
 21 22  1  0
 23 22  1  6
 23 25  1  0
 24 23  1  0
 24 14  1  0
 25 27  2  0
 25 26  1  0
M  END
$$$$
