GFR.pdb
     RDKit          3D

 27 27  0  0  1  0  0  0  0  0999 V2000
    4.9573  -20.6334   23.1660 N   0  0  0  0  0  0  0  0  0  0  0  0
    5.5964  -20.2001   24.3871 C   0  0  0  0  0  0  0  0  0  0  0  0
    5.9638  -18.7480   24.3111 C   0  0  0  0  0  0  0  0  0  0  0  0
    5.8506  -18.1682   23.2014 O   0  0  0  0  0  0  0  0  0  0  0  0
    6.4245  -18.0377   25.4405 N   0  0  0  0  0  0  0  0  0  0  0  0
    6.9027  -16.6634   25.3505 C   0  0  1  0  0  0  0  0  0  0  0  0
    6.6702  -15.9224   26.6199 C   0  0  0  0  0  0  0  0  0  0  0  0
    6.9177  -14.4692   26.4922 C   0  0  0  0  0  0  0  0  0  0  0  0
    8.2028  -13.9830   26.6849 C   0  0  0  0  0  0  0  0  0  0  0  0
    8.4812  -12.6389   26.5637 C   0  0  0  0  0  0  0  0  0  0  0  0
    7.4987  -11.7441   26.2499 C   0  0  0  0  0  0  0  0  0  0  0  0
    6.2251  -12.2501   26.0621 C   0  0  0  0  0  0  0  0  0  0  0  0
    5.9278  -13.5811   26.1777 C   0  0  0  0  0  0  0  0  0  0  0  0
    8.3014  -16.6241   24.8472 C   0  0  0  0  0  0  0  0  0  0  0  0
    9.1638  -17.4157   25.3044 O   0  0  0  0  0  0  0  0  0  0  0  0
    8.3018  -14.0501   17.1645 N   0  0  0  0  0  0  0  0  0  0  0  0
    8.3916  -13.1856   18.3017 C   0  0  0  0  0  0  0  0  0  0  0  0
    8.4793  -11.9248   18.0955 N   0  0  0  0  0  0  0  0  0  0  0  0
    8.3875  -13.6698   19.6211 N   0  0  0  0  0  0  0  0  0  0  0  0
    8.1842  -15.1199   19.9113 C   0  0  0  0  0  0  0  0  0  0  0  0
    9.4000  -15.6018   20.5875 C   0  0  0  0  0  0  0  0  0  0  0  0
    9.8937  -15.0459   21.8446 C   0  0  0  0  0  0  0  0  0  0  0  0
    9.9551  -15.7805   23.1000 C   0  0  2  0  0  0  0  0  0  0  0  0
    8.6930  -15.7023   23.8494 N   0  0  0  0  0  0  0  0  0  0  0  0
   11.1059  -15.6262   23.9809 C   0  0  0  0  0  0  0  0  0  0  0  0
   12.3816  -15.8179   23.3203 O   0  0  0  0  0  0  0  0  0  0  0  0
   11.1553  -15.3632   25.1755 O   0  0  0  0  0  0  0  0  0  0  0  0
  2  1  1  0
  2  3  1  0
  3  4  2  0
  5  3  1  0
  5  6  1  0
  6 14  1  0
  6  7  1  1
  8  7  1  0
  9  8  2  0
 10  9  1  0
 11 10  2  0
 11 12  1  0
 12 13  2  0
 13  8  1  0
 14 15  2  0
 16 17  1  0
 17 18  2  0
 17 19  1  0
 19 20  1  0
 20 21  1  0
 21 22  1  0
 23 22  1  6
 23 25  1  0
 24 23  1  0
 24 14  1  0
 25 27  2  0
 25 26  1  0
M  END
$$$$
