GFR.pdb
     RDKit          3D

 27 27  0  0  1  0  0  0  0  0999 V2000
    9.6445  -13.8292   18.2846 N   0  0  0  0  0  0  0  0  0  0  0  0
    8.8490  -14.7049   19.1139 C   0  0  0  0  0  0  0  0  0  0  0  0
    8.9813  -14.3352   20.5613 C   0  0  0  0  0  0  0  0  0  0  0  0
   10.1112  -13.9731   20.9767 O   0  0  0  0  0  0  0  0  0  0  0  0
    7.8818  -14.3859   21.4450 N   0  0  0  0  0  0  0  0  0  0  0  0
    8.0191  -14.1125   22.8704 C   0  0  1  0  0  0  0  0  0  0  0  0
    6.8251  -13.4039   23.4058 C   0  0  0  0  0  0  0  0  0  0  0  0
    6.9284  -13.1136   24.8529 C   0  0  0  0  0  0  0  0  0  0  0  0
    6.1781  -13.8628   25.7478 C   0  0  0  0  0  0  0  0  0  0  0  0
    6.2525  -13.6351   27.1048 C   0  0  0  0  0  0  0  0  0  0  0  0
    7.0682  -12.6635   27.6098 C   0  0  0  0  0  0  0  0  0  0  0  0
    7.8071  -11.9286   26.7003 C   0  0  0  0  0  0  0  0  0  0  0  0
    7.7478  -12.1389   25.3492 C   0  0  0  0  0  0  0  0  0  0  0  0
    8.4017  -15.3451   23.6089 C   0  0  0  0  0  0  0  0  0  0  0  0
    7.6577  -16.3577   23.5840 O   0  0  0  0  0  0  0  0  0  0  0  0
   14.8317  -15.0537   20.4806 N   0  0  0  0  0  0  0  0  0  0  0  0
   13.4628  -15.2080   20.0922 C   0  0  0  0  0  0  0  0  0  0  0  0
   13.0803  -14.6601   18.9997 N   0  0  0  0  0  0  0  0  0  0  0  0
   12.5359  -15.9317   20.8619 N   0  0  0  0  0  0  0  0  0  0  0  0
   12.6202  -15.9551   22.3521 C   0  0  0  0  0  0  0  0  0  0  0  0
   11.5836  -16.8846   22.8308 C   0  0  0  0  0  0  0  0  0  0  0  0
   11.3136  -17.1270   24.2455 C   0  0  0  0  0  0  0  0  0  0  0  0
   10.1398  -16.6372   24.9538 C   0  0  2  0  0  0  0  0  0  0  0  0
    9.6029  -15.4084   24.3518 N   0  0  0  0  0  0  0  0  0  0  0  0
   10.1458  -16.5566   26.4090 C   0  0  0  0  0  0  0  0  0  0  0  0
   10.2426  -15.2047   26.9224 O   0  0  0  0  0  0  0  0  0  0  0  0
   10.0825  -17.4453   27.2486 O   0  0  0  0  0  0  0  0  0  0  0  0
  2  1  1  0
  2  3  1  0
  3  4  2  0
  5  3  1  0
  5  6  1  0
  6 14  1  0
  6  7  1  1
  8  7  1  0
  9  8  2  0
 10  9  1  0
 11 10  2  0
 11 12  1  0
 12 13  2  0
 13  8  1  0
 14 15  2  0
 16 17  1  0
 17 18  2  0
 17 19  1  0
 19 20  1  0
 20 21  1  0
 21 22  1  0
 23 22  1  6
 23 25  1  0
 24 23  1  0
 24 14  1  0
 25 27  2  0
 25 26  1  0
M  END
$$$$
