GFR.pdb
     RDKit          3D

 27 27  0  0  1  0  0  0  0  0999 V2000
    8.7871  -13.3774   18.1964 N   0  0  0  0  0  0  0  0  0  0  0  0
    8.0650  -14.2685   19.0751 C   0  0  0  0  0  0  0  0  0  0  0  0
    8.3586  -13.9549   20.5120 C   0  0  0  0  0  0  0  0  0  0  0  0
    9.5604  -13.8055   20.8495 O   0  0  0  0  0  0  0  0  0  0  0  0
    7.3301  -13.8275   21.4703 N   0  0  0  0  0  0  0  0  0  0  0  0
    7.6102  -13.6580   22.8909 C   0  0  1  0  0  0  0  0  0  0  0  0
    6.5160  -12.9183   23.5765 C   0  0  0  0  0  0  0  0  0  0  0  0
    6.8172  -12.6297   24.9961 C   0  0  0  0  0  0  0  0  0  0  0  0
    6.3720  -13.5081   25.9735 C   0  0  0  0  0  0  0  0  0  0  0  0
    6.6402  -13.2852   27.3066 C   0  0  0  0  0  0  0  0  0  0  0  0
    7.3533  -12.1913   27.7059 C   0  0  0  0  0  0  0  0  0  0  0  0
    7.7873  -11.3289   26.7153 C   0  0  0  0  0  0  0  0  0  0  0  0
    7.5317  -11.5320   25.3862 C   0  0  0  0  0  0  0  0  0  0  0  0
    7.9770  -14.9571   23.5143 C   0  0  0  0  0  0  0  0  0  0  0  0
    7.1661  -15.9173   23.5064 O   0  0  0  0  0  0  0  0  0  0  0  0
   13.3425  -20.8309   21.1399 N   0  0  0  0  0  0  0  0  0  0  0  0
   13.0219  -19.4361   21.1214 C   0  0  0  0  0  0  0  0  0  0  0  0
   13.0354  -18.8289   19.9940 N   0  0  0  0  0  0  0  0  0  0  0  0
   12.6974  -18.7199   22.2863 N   0  0  0  0  0  0  0  0  0  0  0  0
   11.7492  -19.2761   23.2963 C   0  0  0  0  0  0  0  0  0  0  0  0
   11.5044  -18.2180   24.2905 C   0  0  0  0  0  0  0  0  0  0  0  0
   10.8473  -16.9532   23.9719 C   0  0  0  0  0  0  0  0  0  0  0  0
    9.7020  -16.4176   24.6936 C   0  0  2  0  0  0  0  0  0  0  0  0
    9.2375  -15.1434   24.1270 N   0  0  0  0  0  0  0  0  0  0  0  0
    9.7096  -16.3794   26.1505 C   0  0  0  0  0  0  0  0  0  0  0  0
    9.6313  -15.0421   26.7038 O   0  0  0  0  0  0  0  0  0  0  0  0
    9.7713  -17.2927   26.9633 O   0  0  0  0  0  0  0  0  0  0  0  0
  2  1  1  0
  2  3  1  0
  3  4  2  0
  5  3  1  0
  5  6  1  0
  6 14  1  0
  6  7  1  1
  8  7  1  0
  9  8  2  0
 10  9  1  0
 11 10  2  0
 11 12  1  0
 12 13  2  0
 13  8  1  0
 14 15  2  0
 16 17  1  0
 17 18  2  0
 17 19  1  0
 19 20  1  0
 20 21  1  0
 21 22  1  0
 23 22  1  6
 23 25  1  0
 24 23  1  0
 24 14  1  0
 25 27  2  0
 25 26  1  0
M  END
$$$$
