GFR.pdb
     RDKit          3D

 27 27  0  0  1  0  0  0  0  0999 V2000
    4.9373  -21.1351   24.4580 N   0  0  0  0  0  0  0  0  0  0  0  0
    6.0049  -20.5716   25.2518 C   0  0  0  0  0  0  0  0  0  0  0  0
    6.1723  -19.1099   24.9606 C   0  0  0  0  0  0  0  0  0  0  0  0
    5.9095  -18.7059   23.7995 O   0  0  0  0  0  0  0  0  0  0  0  0
    6.6105  -18.2008   25.9474 N   0  0  0  0  0  0  0  0  0  0  0  0
    6.9745  -16.8256   25.6283 C   0  0  1  0  0  0  0  0  0  0  0  0
    6.8842  -15.9471   26.8260 C   0  0  0  0  0  0  0  0  0  0  0  0
    7.0656  -14.5143   26.5045 C   0  0  0  0  0  0  0  0  0  0  0  0
    8.3497  -13.9921   26.4460 C   0  0  0  0  0  0  0  0  0  0  0  0
    8.5659  -12.6665   26.1381 C   0  0  0  0  0  0  0  0  0  0  0  0
    7.5208  -11.8261   25.8811 C   0  0  0  0  0  0  0  0  0  0  0  0
    6.2495  -12.3673   25.9448 C   0  0  0  0  0  0  0  0  0  0  0  0
    6.0133  -13.6807   26.2487 C   0  0  0  0  0  0  0  0  0  0  0  0
    8.2761  -16.7780   24.9109 C   0  0  0  0  0  0  0  0  0  0  0  0
    9.2605  -17.4334   25.3363 O   0  0  0  0  0  0  0  0  0  0  0  0
    7.7950  -13.7161   17.5142 N   0  0  0  0  0  0  0  0  0  0  0  0
    8.5466  -12.9896   18.4919 C   0  0  0  0  0  0  0  0  0  0  0  0
    8.2148  -11.7755   18.7278 N   0  0  0  0  0  0  0  0  0  0  0  0
    9.6242  -13.5584   19.1924 N   0  0  0  0  0  0  0  0  0  0  0  0
    9.9387  -15.0131   19.0774 C   0  0  0  0  0  0  0  0  0  0  0  0
   10.2768  -15.4920   20.4280 C   0  0  0  0  0  0  0  0  0  0  0  0
    9.3224  -15.5179   21.5332 C   0  0  0  0  0  0  0  0  0  0  0  0
    9.5995  -16.0853   22.8450 C   0  0  2  0  0  0  0  0  0  0  0  0
    8.4377  -16.0002   23.7414 N   0  0  0  0  0  0  0  0  0  0  0  0
   10.8336  -15.7453   23.5419 C   0  0  0  0  0  0  0  0  0  0  0  0
   12.0215  -16.3302   22.9528 O   0  0  0  0  0  0  0  0  0  0  0  0
   11.0138  -15.0511   24.5340 O   0  0  0  0  0  0  0  0  0  0  0  0
  2  1  1  0
  2  3  1  0
  3  4  2  0
  5  3  1  0
  5  6  1  0
  6 14  1  0
  6  7  1  1
  8  7  1  0
  9  8  2  0
 10  9  1  0
 11 10  2  0
 11 12  1  0
 12 13  2  0
 13  8  1  0
 14 15  2  0
 16 17  1  0
 17 18  2  0
 17 19  1  0
 19 20  1  0
 20 21  1  0
 21 22  1  0
 23 22  1  6
 23 25  1  0
 24 23  1  0
 24 14  1  0
 25 27  2  0
 25 26  1  0
M  END
$$$$
