GFR.pdb
     RDKit          3D

 27 27  0  0  1  0  0  0  0  0999 V2000
    7.7166  -18.1865   19.7496 N   0  0  0  0  0  0  0  0  0  0  0  0
    6.7601  -17.8726   20.7859 C   0  0  0  0  0  0  0  0  0  0  0  0
    7.3593  -16.9475   21.8029 C   0  0  0  0  0  0  0  0  0  0  0  0
    8.5884  -16.6966   21.7204 O   0  0  0  0  0  0  0  0  0  0  0  0
    6.5826  -16.3668   22.8285 N   0  0  0  0  0  0  0  0  0  0  0  0
    7.1610  -15.4836   23.8339 C   0  0  1  0  0  0  0  0  0  0  0  0
    6.2378  -14.3666   24.1725 C   0  0  0  0  0  0  0  0  0  0  0  0
    6.7748  -13.4738   25.2230 C   0  0  0  0  0  0  0  0  0  0  0  0
    6.2096  -13.5044   26.4898 C   0  0  0  0  0  0  0  0  0  0  0  0
    6.6859  -12.6992   27.5016 C   0  0  0  0  0  0  0  0  0  0  0  0
    7.7301  -11.8459   27.2870 C   0  0  0  0  0  0  0  0  0  0  0  0
    8.2785  -11.8314   26.0173 C   0  0  0  0  0  0  0  0  0  0  0  0
    7.8204  -12.6228   24.9988 C   0  0  0  0  0  0  0  0  0  0  0  0
    7.6564  -16.2641   24.9986 C   0  0  0  0  0  0  0  0  0  0  0  0
    6.9395  -17.1569   25.5167 O   0  0  0  0  0  0  0  0  0  0  0  0
   11.9610  -22.4116   24.5363 N   0  0  0  0  0  0  0  0  0  0  0  0
   10.5917  -22.7345   24.7991 C   0  0  0  0  0  0  0  0  0  0  0  0
   10.3273  -23.8866   25.2915 N   0  0  0  0  0  0  0  0  0  0  0  0
    9.5405  -21.8392   24.5368 N   0  0  0  0  0  0  0  0  0  0  0  0
    9.7916  -20.5260   23.8727 C   0  0  0  0  0  0  0  0  0  0  0  0
    9.6846  -19.4873   24.9107 C   0  0  0  0  0  0  0  0  0  0  0  0
    9.8909  -18.0655   24.6483 C   0  0  0  0  0  0  0  0  0  0  0  0
    9.9853  -17.0445   25.6817 C   0  0  2  0  0  0  0  0  0  0  0  0
    8.9366  -16.0232   25.5481 N   0  0  0  0  0  0  0  0  0  0  0  0
   11.2746  -16.4431   25.9985 C   0  0  0  0  0  0  0  0  0  0  0  0
   11.6604  -15.3728   25.1007 O   0  0  0  0  0  0  0  0  0  0  0  0
   12.0671  -16.7025   26.8948 O   0  0  0  0  0  0  0  0  0  0  0  0
  2  1  1  0
  2  3  1  0
  3  4  2  0
  5  3  1  0
  5  6  1  0
  6 14  1  0
  6  7  1  1
  8  7  1  0
  9  8  2  0
 10  9  1  0
 11 10  2  0
 11 12  1  0
 12 13  2  0
 13  8  1  0
 14 15  2  0
 16 17  1  0
 17 18  2  0
 17 19  1  0
 19 20  1  0
 20 21  1  0
 21 22  1  0
 23 22  1  6
 23 25  1  0
 24 23  1  0
 24 14  1  0
 25 27  2  0
 25 26  1  0
M  END
$$$$
