QST.pdb
     RDKit          3D

 23 22  0  0  1  0  0  0  0  0999 V2000
   31.4310   -3.2196  -16.0242 N   0  0  0  0  0  0  0  0  0  0  0  0
   32.4590   -2.2611  -15.8175 C   0  0  0  0  0  0  0  0  0  0  0  0
   32.1293   -1.1120  -15.4707 O   0  0  0  0  0  0  0  0  0  0  0  0
   33.8596   -2.6277  -16.0147 C   0  0  0  0  0  0  0  0  0  0  0  0
   34.1335   -4.0349  -16.4487 C   0  0  0  0  0  0  0  0  0  0  0  0
   34.1381   -5.0194  -15.3403 C   0  0  2  0  0  0  0  0  0  0  0  0
   35.1959   -4.8293  -14.4193 N   0  0  0  0  0  0  0  0  0  0  0  0
   34.1842   -6.4284  -15.8209 C   0  0  0  0  0  0  0  0  0  0  0  0
   35.2412   -7.1071  -15.7653 O   0  0  0  0  0  0  0  0  0  0  0  0
   30.8015   -7.9717  -17.4214 O   0  0  0  0  0  0  0  0  0  0  0  0
   31.6475   -8.9442  -16.8928 C   0  0  0  0  0  0  0  0  0  0  0  0
   33.0926   -8.4270  -16.8699 C   0  0  2  0  0  0  0  0  0  0  0  0
   33.0399   -7.0844  -16.3681 N   0  0  0  0  0  0  0  0  0  0  0  0
   33.5969   -8.5235  -18.2454 C   0  0  0  0  0  0  0  0  0  0  0  0
   33.6229   -7.5808  -19.0733 O   0  0  0  0  0  0  0  0  0  0  0  0
   37.0198  -10.2170  -19.1913 C   0  0  0  0  0  0  0  0  0  0  0  0
   35.8838  -10.8897  -19.9019 C   0  0  1  0  0  0  0  0  0  0  0  0
   35.5113  -11.9992  -19.1417 O   0  0  0  0  0  0  0  0  0  0  0  0
   34.6617   -9.9764  -19.9957 C   0  0  2  0  0  0  0  0  0  0  0  0
   34.0966   -9.7839  -18.6777 N   0  0  0  0  0  0  0  0  0  0  0  0
   33.6693  -10.6884  -20.8284 C   0  0  0  0  0  0  0  0  0  0  0  0
   33.8695  -10.8228  -22.1893 O   0  0  0  0  0  0  0  0  0  0  0  0
   32.6529  -11.1648  -20.2914 O   0  0  0  0  0  0  0  0  0  0  0  0
  2  1  1  0
  2  3  2  0
  4  2  1  0
  5  4  1  0
  6  5  1  0
  6  7  1  1
  8  6  1  0
  8 13  1  0
  9  8  2  0
 10 11  1  0
 12 11  1  6
 12 13  1  0
 12 14  1  0
 14 15  2  0
 14 20  1  0
 17 16  1  1
 17 18  1  0
 19 21  1  0
 19 17  1  0
 19 20  1  1
 21 22  1  0
 23 21  2  0
M  END
$$$$
