QST.pdb
     RDKit          3D

 23 22  0  0  1  0  0  0  0  0999 V2000
   14.9716   -9.8528  -16.8073 N   0  0  0  0  0  0  0  0  0  0  0  0
   15.0733  -11.2381  -17.1058 C   0  0  0  0  0  0  0  0  0  0  0  0
   14.2413  -11.7327  -17.8884 O   0  0  0  0  0  0  0  0  0  0  0  0
   16.1280  -12.0475  -16.4997 C   0  0  0  0  0  0  0  0  0  0  0  0
   17.0865  -11.3374  -15.5940 C   0  0  0  0  0  0  0  0  0  0  0  0
   18.1609  -10.6045  -16.3056 C   0  0  2  0  0  0  0  0  0  0  0  0
   18.9748  -11.4360  -17.1114 N   0  0  0  0  0  0  0  0  0  0  0  0
   19.0440   -9.8375  -15.3836 C   0  0  0  0  0  0  0  0  0  0  0  0
   18.6413   -9.4540  -14.2559 O   0  0  0  0  0  0  0  0  0  0  0  0
   23.1027   -9.3819  -16.1970 O   0  0  0  0  0  0  0  0  0  0  0  0
   22.6159   -9.3666  -14.8917 C   0  0  0  0  0  0  0  0  0  0  0  0
   21.2250   -8.7180  -14.8577 C   0  0  2  0  0  0  0  0  0  0  0  0
   20.3881   -9.4962  -15.7244 N   0  0  0  0  0  0  0  0  0  0  0  0
   21.3971   -7.3274  -15.2960 C   0  0  0  0  0  0  0  0  0  0  0  0
   21.6089   -6.9633  -16.4781 O   0  0  0  0  0  0  0  0  0  0  0  0
   19.3014   -4.6291  -15.7479 C   0  0  0  0  0  0  0  0  0  0  0  0
   20.1734   -4.1852  -14.6118 C   0  0  1  0  0  0  0  0  0  0  0  0
   19.5260   -4.5326  -13.4253 O   0  0  0  0  0  0  0  0  0  0  0  0
   21.5185   -4.9112  -14.6208 C   0  0  2  0  0  0  0  0  0  0  0  0
   21.3184   -6.3090  -14.3050 N   0  0  0  0  0  0  0  0  0  0  0  0
   22.3305   -4.3027  -13.5459 C   0  0  0  0  0  0  0  0  0  0  0  0
   22.8930   -3.0523  -13.7204 O   0  0  0  0  0  0  0  0  0  0  0  0
   22.5018   -4.9275  -12.4836 O   0  0  0  0  0  0  0  0  0  0  0  0
  2  1  1  0
  2  3  2  0
  4  2  1  0
  5  4  1  0
  6  5  1  0
  6  7  1  1
  8  6  1  0
  8 13  1  0
  9  8  2  0
 10 11  1  0
 12 11  1  6
 12 13  1  0
 12 14  1  0
 14 15  2  0
 14 20  1  0
 17 16  1  6
 17 18  1  0
 19 21  1  0
 19 17  1  0
 19 20  1  1
 21 22  1  0
 23 21  2  0
M  END
$$$$
