QST.pdb
     RDKit          3D

 23 22  0  0  1  0  0  0  0  0999 V2000
   23.1484  -24.8138  -13.8803 N   0  0  0  0  0  0  0  0  0  0  0  0
   22.7240  -24.9261  -12.5291 C   0  0  0  0  0  0  0  0  0  0  0  0
   22.4037  -26.0521  -12.1060 O   0  0  0  0  0  0  0  0  0  0  0  0
   22.6661  -23.7431  -11.6736 C   0  0  0  0  0  0  0  0  0  0  0  0
   23.1024  -22.4471  -12.2848 C   0  0  0  0  0  0  0  0  0  0  0  0
   24.5110  -22.4405  -12.7471 C   0  0  2  0  0  0  0  0  0  0  0  0
   25.4529  -22.4257  -11.6908 N   0  0  0  0  0  0  0  0  0  0  0  0
   24.8131  -21.3023  -13.6590 C   0  0  0  0  0  0  0  0  0  0  0  0
   24.5579  -20.1147  -13.3342 O   0  0  0  0  0  0  0  0  0  0  0  0
   27.9347  -20.9452  -16.0780 O   0  0  0  0  0  0  0  0  0  0  0  0
   26.7474  -20.8331  -16.7983 C   0  0  0  0  0  0  0  0  0  0  0  0
   25.6046  -20.4106  -15.8647 C   0  0  2  0  0  0  0  0  0  0  0  0
   25.4053  -21.4925  -14.9444 N   0  0  0  0  0  0  0  0  0  0  0  0
   24.4410  -20.1399  -16.7181 C   0  0  0  0  0  0  0  0  0  0  0  0
   23.7598  -21.0125  -17.3093 O   0  0  0  0  0  0  0  0  0  0  0  0
   21.1989  -18.7098  -15.8129 C   0  0  0  0  0  0  0  0  0  0  0  0
   21.8676  -17.7247  -16.7242 C   0  0  1  0  0  0  0  0  0  0  0  0
   22.5821  -16.8313  -15.9248 O   0  0  0  0  0  0  0  0  0  0  0  0
   22.8755  -18.4094  -17.6471 C   0  0  2  0  0  0  0  0  0  0  0  0
   24.0515  -18.7821  -16.8910 N   0  0  0  0  0  0  0  0  0  0  0  0
   23.2701  -17.4039  -18.6563 C   0  0  0  0  0  0  0  0  0  0  0  0
   24.5281  -16.8328  -18.6160 O   0  0  0  0  0  0  0  0  0  0  0  0
   22.4585  -17.0779  -19.5413 O   0  0  0  0  0  0  0  0  0  0  0  0
  2  1  1  0
  2  3  2  0
  4  2  1  0
  5  4  1  0
  6  5  1  0
  6  7  1  1
  8  6  1  0
  8 13  1  0
  9  8  2  0
 10 11  1  0
 12 11  1  6
 12 13  1  0
 12 14  1  0
 14 15  2  0
 14 20  1  0
 17 16  1  1
 17 18  1  0
 19 21  1  0
 19 17  1  0
 19 20  1  1
 21 22  1  0
 23 21  2  0
M  END
$$$$
