QST.pdb
     RDKit          3D

 23 22  0  0  1  0  0  0  0  0999 V2000
   18.9997  -14.9749  -15.5656 N   0  0  0  0  0  0  0  0  0  0  0  0
   18.1692  -14.6089  -16.6586 C   0  0  0  0  0  0  0  0  0  0  0  0
   18.1257  -15.3691  -17.6433 O   0  0  0  0  0  0  0  0  0  0  0  0
   17.3969  -13.3693  -16.6151 C   0  0  0  0  0  0  0  0  0  0  0  0
   17.4617  -12.5788  -15.3446 C   0  0  0  0  0  0  0  0  0  0  0  0
   16.5695  -11.3950  -15.3228 C   0  0  2  0  0  0  0  0  0  0  0  0
   15.4581  -11.5082  -16.1919 N   0  0  0  0  0  0  0  0  0  0  0  0
   17.2849  -10.1280  -15.6411 C   0  0  0  0  0  0  0  0  0  0  0  0
   17.9982  -10.0172  -16.6706 O   0  0  0  0  0  0  0  0  0  0  0  0
   16.3009   -6.7552  -13.6206 O   0  0  0  0  0  0  0  0  0  0  0  0
   16.9100   -6.6124  -14.8654 C   0  0  0  0  0  0  0  0  0  0  0  0
   17.9031   -7.7594  -15.0988 C   0  0  2  0  0  0  0  0  0  0  0  0
   17.2026   -8.9753  -14.8022 N   0  0  0  0  0  0  0  0  0  0  0  0
   19.0507   -7.5096  -14.2178 C   0  0  0  0  0  0  0  0  0  0  0  0
   19.1616   -7.9272  -13.0396 O   0  0  0  0  0  0  0  0  0  0  0  0
   22.5080   -8.6104  -14.7473 C   0  0  0  0  0  0  0  0  0  0  0  0
   22.5265   -7.1113  -14.7745 C   0  0  1  0  0  0  0  0  0  0  0  0
   22.3820   -6.7138  -16.1045 O   0  0  0  0  0  0  0  0  0  0  0  0
   21.3495   -6.5220  -13.9973 C   0  0  2  0  0  0  0  0  0  0  0  0
   20.1242   -6.7330  -14.7373 N   0  0  0  0  0  0  0  0  0  0  0  0
   21.5938   -5.0669  -13.9063 C   0  0  0  0  0  0  0  0  0  0  0  0
   20.8360   -4.1851  -14.6535 O   0  0  0  0  0  0  0  0  0  0  0  0
   22.4880   -4.6453  -13.1507 O   0  0  0  0  0  0  0  0  0  0  0  0
  2  1  1  0
  2  3  2  0
  4  2  1  0
  5  4  1  0
  6  5  1  0
  6  7  1  6
  8  6  1  0
  8 13  1  0
  9  8  2  0
 10 11  1  0
 12 11  1  1
 12 13  1  0
 12 14  1  0
 14 15  2  0
 14 20  1  0
 17 16  1  6
 17 18  1  0
 19 21  1  0
 19 17  1  0
 19 20  1  6
 21 22  1  0
 23 21  2  0
M  END
$$$$
