QST.pdb
     RDKit          3D

 23 22  0  0  1  0  0  0  0  0999 V2000
   26.3872  -20.1550  -15.1403 N   0  0  0  0  0  0  0  0  0  0  0  0
   27.4891  -20.6586  -14.3983 C   0  0  0  0  0  0  0  0  0  0  0  0
   28.4825  -21.0677  -15.0271 O   0  0  0  0  0  0  0  0  0  0  0  0
   27.4412  -20.6929  -12.9384 C   0  0  0  0  0  0  0  0  0  0  0  0
   26.2428  -20.0726  -12.2884 C   0  0  0  0  0  0  0  0  0  0  0  0
   25.4237  -21.0228  -11.4985 C   0  0  2  0  0  0  0  0  0  0  0  0
   25.9828  -22.3206  -11.4182 N   0  0  0  0  0  0  0  0  0  0  0  0
   24.0298  -21.1450  -12.0089 C   0  0  0  0  0  0  0  0  0  0  0  0
   23.7770  -21.7210  -13.0975 O   0  0  0  0  0  0  0  0  0  0  0  0
   19.3098  -20.4588  -11.0394 O   0  0  0  0  0  0  0  0  0  0  0  0
   20.6388  -20.2787  -10.6621 C   0  0  0  0  0  0  0  0  0  0  0  0
   21.5711  -20.6967  -11.8077 C   0  0  2  0  0  0  0  0  0  0  0  0
   22.9091  -20.6192  -11.2969 N   0  0  0  0  0  0  0  0  0  0  0  0
   21.3103  -19.7759  -12.9211 C   0  0  0  0  0  0  0  0  0  0  0  0
   21.6626  -18.5721  -12.9610 O   0  0  0  0  0  0  0  0  0  0  0  0
   22.3934  -19.8286  -16.4592 C   0  0  0  0  0  0  0  0  0  0  0  0
   20.9090  -20.0397  -16.4461 C   0  0  1  0  0  0  0  0  0  0  0  0
   20.6810  -21.4163  -16.4244 O   0  0  0  0  0  0  0  0  0  0  0  0
   20.2710  -19.4569  -15.1853 C   0  0  2  0  0  0  0  0  0  0  0  0
   20.6023  -20.2848  -14.0459 N   0  0  0  0  0  0  0  0  0  0  0  0
   18.8083  -19.5125  -15.3916 C   0  0  0  0  0  0  0  0  0  0  0  0
   18.1990  -18.6616  -16.2944 O   0  0  0  0  0  0  0  0  0  0  0  0
   18.1324  -20.3327  -14.7445 O   0  0  0  0  0  0  0  0  0  0  0  0
  2  1  1  0
  2  3  2  0
  4  2  1  0
  5  4  1  0
  6  5  1  0
  6  7  1  6
  8  6  1  0
  8 13  1  0
  9  8  2  0
 10 11  1  0
 12 11  1  1
 12 13  1  0
 12 14  1  0
 14 15  2  0
 14 20  1  0
 17 16  1  1
 17 18  1  0
 19 21  1  0
 19 17  1  0
 19 20  1  1
 21 22  1  0
 23 21  2  0
M  END
$$$$
