QST.pdb
     RDKit          3D

 23 22  0  0  1  0  0  0  0  0999 V2000
   20.9588  -13.7592  -18.0426 N   0  0  0  0  0  0  0  0  0  0  0  0
   19.6211  -14.2361  -18.0036 C   0  0  0  0  0  0  0  0  0  0  0  0
   19.4316  -15.4619  -18.1070 O   0  0  0  0  0  0  0  0  0  0  0  0
   18.5090  -13.3009  -17.8502 C   0  0  0  0  0  0  0  0  0  0  0  0
   18.8519  -11.8430  -17.8312 C   0  0  0  0  0  0  0  0  0  0  0  0
   19.0832  -11.2938  -16.4737 C   0  0  2  0  0  0  0  0  0  0  0  0
   18.2026  -11.8143  -15.4954 N   0  0  0  0  0  0  0  0  0  0  0  0
   19.0028   -9.8072  -16.4317 C   0  0  0  0  0  0  0  0  0  0  0  0
   19.4006   -9.1005  -17.3925 O   0  0  0  0  0  0  0  0  0  0  0  0
   16.9402   -7.9753  -13.4095 O   0  0  0  0  0  0  0  0  0  0  0  0
   17.1458   -7.2622  -14.5885 C   0  0  0  0  0  0  0  0  0  0  0  0
   18.4813   -7.6726  -15.2243 C   0  0  2  0  0  0  0  0  0  0  0  0
   18.4736   -9.1044  -15.3069 N   0  0  0  0  0  0  0  0  0  0  0  0
   19.5415   -7.1369  -14.3614 C   0  0  0  0  0  0  0  0  0  0  0  0
   19.8949   -7.6274  -13.2617 O   0  0  0  0  0  0  0  0  0  0  0  0
   23.0338   -7.0881  -14.9419 C   0  0  0  0  0  0  0  0  0  0  0  0
   22.6322   -5.6437  -14.9170 C   0  0  1  0  0  0  0  0  0  0  0  0
   22.3400   -5.2667  -16.2286 O   0  0  0  0  0  0  0  0  0  0  0  0
   21.3632   -5.4288  -14.0926 C   0  0  2  0  0  0  0  0  0  0  0  0
   20.2247   -5.9693  -14.8034 N   0  0  0  0  0  0  0  0  0  0  0  0
   21.1848   -3.9664  -13.9712 C   0  0  0  0  0  0  0  0  0  0  0  0
   20.1847   -3.3254  -14.6777 O   0  0  0  0  0  0  0  0  0  0  0  0
   21.9438   -3.3197  -13.2270 O   0  0  0  0  0  0  0  0  0  0  0  0
  2  1  1  0
  2  3  2  0
  4  2  1  0
  5  4  1  0
  6  5  1  0
  6  7  1  1
  8  6  1  0
  8 13  1  0
  9  8  2  0
 10 11  1  0
 12 11  1  1
 12 13  1  0
 12 14  1  0
 14 15  2  0
 14 20  1  0
 17 16  1  6
 17 18  1  0
 19 21  1  0
 19 17  1  0
 19 20  1  6
 21 22  1  0
 23 21  2  0
M  END
$$$$
