QST.pdb
     RDKit          3D

 23 22  0  0  1  0  0  0  0  0999 V2000
   15.2150  -10.8889  -14.4389 N   0  0  0  0  0  0  0  0  0  0  0  0
   16.3806  -11.5412  -14.9230 C   0  0  0  0  0  0  0  0  0  0  0  0
   16.4639  -12.7752  -14.7826 O   0  0  0  0  0  0  0  0  0  0  0  0
   17.4452  -10.7708  -15.5618 C   0  0  0  0  0  0  0  0  0  0  0  0
   17.2782   -9.2826  -15.5873 C   0  0  0  0  0  0  0  0  0  0  0  0
   18.4559   -8.5509  -16.1125 C   0  0  2  0  0  0  0  0  0  0  0  0
   19.5737   -9.3827  -16.3614 N   0  0  0  0  0  0  0  0  0  0  0  0
   18.8892   -7.4398  -15.2204 C   0  0  0  0  0  0  0  0  0  0  0  0
   18.0685   -6.5997  -14.7715 O   0  0  0  0  0  0  0  0  0  0  0  0
   21.5910   -7.4133  -12.1384 O   0  0  0  0  0  0  0  0  0  0  0  0
   21.9390   -6.6619  -13.2588 C   0  0  0  0  0  0  0  0  0  0  0  0
   20.6734   -6.1845  -13.9846 C   0  0  2  0  0  0  0  0  0  0  0  0
   20.2508   -7.2659  -14.8266 N   0  0  0  0  0  0  0  0  0  0  0  0
   21.0434   -4.9710  -14.7236 C   0  0  0  0  0  0  0  0  0  0  0  0
   21.6774   -4.9494  -15.8065 O   0  0  0  0  0  0  0  0  0  0  0  0
   18.5129   -2.3573  -15.7553 C   0  0  0  0  0  0  0  0  0  0  0  0
   19.5462   -1.6811  -14.9048 C   0  0  1  0  0  0  0  0  0  0  0  0
   19.0579   -1.6480  -13.5978 O   0  0  0  0  0  0  0  0  0  0  0  0
   20.8544   -2.4712  -14.8777 C   0  0  2  0  0  0  0  0  0  0  0  0
   20.6543   -3.7183  -14.1718 N   0  0  0  0  0  0  0  0  0  0  0  0
   21.8217   -1.6543  -14.1146 C   0  0  0  0  0  0  0  0  0  0  0  0
   22.1560   -1.9996  -12.8188 O   0  0  0  0  0  0  0  0  0  0  0  0
   22.3311   -0.6538  -14.6510 O   0  0  0  0  0  0  0  0  0  0  0  0
  2  1  1  0
  2  3  2  0
  4  2  1  0
  5  4  1  0
  6  5  1  0
  6  7  1  1
  8  6  1  0
  8 13  1  0
  9  8  2  0
 10 11  1  0
 12 11  1  6
 12 13  1  0
 12 14  1  0
 14 15  2  0
 14 20  1  0
 17 16  1  6
 17 18  1  0
 19 21  1  0
 19 17  1  0
 19 20  1  1
 21 22  1  0
 23 21  2  0
M  END
$$$$
