QST.pdb
     RDKit          3D

 23 22  0  0  1  0  0  0  0  0999 V2000
   29.1321  -17.3028  -16.4824 N   0  0  0  0  0  0  0  0  0  0  0  0
   28.5886  -17.9238  -17.6389 C   0  0  0  0  0  0  0  0  0  0  0  0
   28.7310  -17.3508  -18.7347 O   0  0  0  0  0  0  0  0  0  0  0  0
   27.8812  -19.1974  -17.5284 C   0  0  0  0  0  0  0  0  0  0  0  0
   27.7560  -19.7822  -16.1552 C   0  0  0  0  0  0  0  0  0  0  0  0
   26.3658  -19.8291  -15.6423 C   0  0  2  0  0  0  0  0  0  0  0  0
   25.8648  -18.5649  -15.2499 N   0  0  0  0  0  0  0  0  0  0  0  0
   26.2041  -20.7713  -14.5002 C   0  0  0  0  0  0  0  0  0  0  0  0
   26.4980  -21.9892  -14.6067 O   0  0  0  0  0  0  0  0  0  0  0  0
   26.0886  -21.2821   -9.7571 O   0  0  0  0  0  0  0  0  0  0  0  0
   26.1828  -20.4887  -10.8984 C   0  0  0  0  0  0  0  0  0  0  0  0
   25.6130  -21.2407  -12.1093 C   0  0  2  0  0  0  0  0  0  0  0  0
   25.7099  -20.3493  -13.2286 N   0  0  0  0  0  0  0  0  0  0  0  0
   24.2339  -21.6093  -11.7661 C   0  0  0  0  0  0  0  0  0  0  0  0
   23.9052  -22.4208  -10.8671 O   0  0  0  0  0  0  0  0  0  0  0  0
   21.3636  -19.7722  -10.4156 C   0  0  0  0  0  0  0  0  0  0  0  0
   21.0184  -20.1251  -11.8314 C   0  0  1  0  0  0  0  0  0  0  0  0
   21.4057  -19.0536  -12.6374 O   0  0  0  0  0  0  0  0  0  0  0  0
   21.7950  -21.3521  -12.3086 C   0  0  2  0  0  0  0  0  0  0  0  0
   23.1841  -21.0002  -12.5093 N   0  0  0  0  0  0  0  0  0  0  0  0
   21.2174  -21.7316  -13.6154 C   0  0  0  0  0  0  0  0  0  0  0  0
   19.9375  -22.2481  -13.6878 O   0  0  0  0  0  0  0  0  0  0  0  0
   21.8952  -21.5813  -14.6479 O   0  0  0  0  0  0  0  0  0  0  0  0
  2  1  1  0
  2  3  2  0
  4  2  1  0
  5  4  1  0
  6  5  1  0
  6  7  1  1
  8  6  1  0
  8 13  1  0
  9  8  2  0
 10 11  1  0
 12 11  1  1
 12 13  1  0
 12 14  1  0
 14 15  2  0
 14 20  1  0
 17 16  1  1
 17 18  1  0
 19 21  1  0
 19 17  1  0
 19 20  1  6
 21 22  1  0
 23 21  2  0
M  END
$$$$
