QST.pdb
     RDKit          3D

 23 22  0  0  1  0  0  0  0  0999 V2000
   18.9142  -15.2069  -18.1350 N   0  0  0  0  0  0  0  0  0  0  0  0
   17.8244  -15.2036  -17.2235 C   0  0  0  0  0  0  0  0  0  0  0  0
   17.2177  -16.2731  -17.0299 O   0  0  0  0  0  0  0  0  0  0  0  0
   17.4359  -13.9703  -16.5431 C   0  0  0  0  0  0  0  0  0  0  0  0
   18.1857  -12.7289  -16.9174 C   0  0  0  0  0  0  0  0  0  0  0  0
   18.7217  -11.9740  -15.7595 C   0  0  2  0  0  0  0  0  0  0  0  0
   17.8801  -12.0099  -14.6221 N   0  0  0  0  0  0  0  0  0  0  0  0
   19.0094  -10.5490  -16.0835 C   0  0  0  0  0  0  0  0  0  0  0  0
   19.7909  -10.2323  -17.0162 O   0  0  0  0  0  0  0  0  0  0  0  0
   17.7566   -5.9237  -15.4693 O   0  0  0  0  0  0  0  0  0  0  0  0
   17.5986   -7.2510  -15.0763 C   0  0  0  0  0  0  0  0  0  0  0  0
   18.7605   -8.0991  -15.6120 C   0  0  2  0  0  0  0  0  0  0  0  0
   18.4191   -9.4690  -15.3594 N   0  0  0  0  0  0  0  0  0  0  0  0
   19.9687   -7.6525  -14.9074 C   0  0  0  0  0  0  0  0  0  0  0  0
   20.3756   -8.1074  -13.8109 O   0  0  0  0  0  0  0  0  0  0  0  0
   24.2662   -5.2958  -15.4914 C   0  0  0  0  0  0  0  0  0  0  0  0
   22.9508   -5.7546  -16.0456 C   0  0  1  0  0  0  0  0  0  0  0  0
   23.1921   -6.8997  -16.8060 O   0  0  0  0  0  0  0  0  0  0  0  0
   21.9802   -6.1486  -14.9325 C   0  0  2  0  0  0  0  0  0  0  0  0
   20.7421   -6.6223  -15.5123 N   0  0  0  0  0  0  0  0  0  0  0  0
   21.6949   -4.9153  -14.1691 C   0  0  0  0  0  0  0  0  0  0  0  0
   22.2831   -4.7075  -12.9358 O   0  0  0  0  0  0  0  0  0  0  0  0
   20.9205   -4.0675  -14.6483 O   0  0  0  0  0  0  0  0  0  0  0  0
  2  1  1  0
  2  3  2  0
  4  2  1  0
  5  4  1  0
  6  5  1  0
  6  7  1  1
  8  6  1  0
  8 13  1  0
  9  8  2  0
 10 11  1  0
 12 11  1  1
 12 13  1  0
 12 14  1  0
 14 15  2  0
 14 20  1  0
 17 16  1  1
 17 18  1  0
 19 21  1  0
 19 17  1  0
 19 20  1  6
 21 22  1  0
 23 21  2  0
M  END
$$$$
