QST.pdb
     RDKit          3D

 23 22  0  0  1  0  0  0  0  0999 V2000
   46.2001  -10.3863   -3.4927 N   0  0  0  0  0  0  0  0  0  0  0  0
   46.0038   -9.4309   -4.5257 C   0  0  0  0  0  0  0  0  0  0  0  0
   46.6884   -8.3916   -4.5020 O   0  0  0  0  0  0  0  0  0  0  0  0
   45.0190   -9.6737   -5.5773 C   0  0  0  0  0  0  0  0  0  0  0  0
   44.2632  -10.9650   -5.5080 C   0  0  0  0  0  0  0  0  0  0  0  0
   44.2369  -11.7195   -6.7839 C   0  0  2  0  0  0  0  0  0  0  0  0
   45.5222  -11.9579   -7.3266 N   0  0  0  0  0  0  0  0  0  0  0  0
   43.4039  -11.0592   -7.8271 C   0  0  0  0  0  0  0  0  0  0  0  0
   43.9241  -10.4019   -8.7642 O   0  0  0  0  0  0  0  0  0  0  0  0
   39.0713  -10.6164   -9.9031 O   0  0  0  0  0  0  0  0  0  0  0  0
   39.8519  -11.1802   -8.8962 C   0  0  0  0  0  0  0  0  0  0  0  0
   41.1692  -10.4046   -8.7566 C   0  0  2  0  0  0  0  0  0  0  0  0
   41.9778  -11.1341   -7.8233 N   0  0  0  0  0  0  0  0  0  0  0  0
   40.8170   -9.0536   -8.3023 C   0  0  0  0  0  0  0  0  0  0  0  0
   40.5413   -8.7379   -7.1194 O   0  0  0  0  0  0  0  0  0  0  0  0
   40.6883   -4.2819   -9.7389 C   0  0  0  0  0  0  0  0  0  0  0  0
   40.9071   -5.7252  -10.0811 C   0  0  1  0  0  0  0  0  0  0  0  0
   42.2761   -5.9057  -10.2833 O   0  0  0  0  0  0  0  0  0  0  0  0
   40.4963   -6.6428   -8.9298 C   0  0  2  0  0  0  0  0  0  0  0  0
   40.7847   -8.0174   -9.2773 N   0  0  0  0  0  0  0  0  0  0  0  0
   39.0329   -6.4977   -8.7797 C   0  0  0  0  0  0  0  0  0  0  0  0
   38.5113   -5.6586   -7.8132 O   0  0  0  0  0  0  0  0  0  0  0  0
   38.2767   -7.1384   -9.5320 O   0  0  0  0  0  0  0  0  0  0  0  0
  2  1  1  0
  2  3  2  0
  4  2  1  0
  5  4  1  0
  6  5  1  0
  6  7  1  6
  8  6  1  0
  8 13  1  0
  9  8  2  0
 10 11  1  0
 12 11  1  1
 12 13  1  0
 12 14  1  0
 14 15  2  0
 14 20  1  0
 17 16  1  1
 17 18  1  0
 19 21  1  0
 19 17  1  0
 19 20  1  6
 21 22  1  0
 23 21  2  0
M  END
$$$$
