KMV.pdb
     RDKit          3D

 25 24  0  0  1  0  0  0  0  0999 V2000
    7.1017  -15.6625   19.9600 N   0  0  0  0  0  0  0  0  0  0  0  0
    8.1639  -14.6500   20.0591 C   0  0  1  0  0  0  0  0  0  0  0  0
    7.6636  -13.3160   19.5493 C   0  0  0  0  0  0  0  0  0  0  0  0
    8.1291  -12.9764   18.1757 C   0  0  0  0  0  0  0  0  0  0  0  0
    7.4736  -13.7243   17.0643 C   0  0  0  0  0  0  0  0  0  0  0  0
    8.0432  -13.3775   15.7305 C   0  0  0  0  0  0  0  0  0  0  0  0
    7.4546  -14.1493   14.6886 N   0  0  0  0  0  0  0  0  0  0  0  0
    8.5321  -14.5495   21.4786 C   0  0  0  0  0  0  0  0  0  0  0  0
    9.7177  -14.1422   21.7411 O   0  0  0  0  0  0  0  0  0  0  0  0
    7.6439  -10.9785   27.0518 C   0  0  0  0  0  0  0  0  0  0  0  0
    6.5437  -12.3856   26.8527 S   0  0  0  0  0  0  0  0  0  0  0  0
    7.5469  -13.7660   26.1355 C   0  0  0  0  0  0  0  0  0  0  0  0
    7.0610  -14.0100   24.7358 C   0  0  0  0  0  0  0  0  0  0  0  0
    8.1270  -14.6881   23.9143 C   0  0  2  0  0  0  0  0  0  0  0  0
    7.6584  -14.8744   22.5420 N   0  0  0  0  0  0  0  0  0  0  0  0
    8.4626  -15.9975   24.5195 C   0  0  0  0  0  0  0  0  0  0  0  0
    7.6531  -16.9259   24.7273 O   0  0  0  0  0  0  0  0  0  0  0  0
   12.5508  -17.0227   25.1419 C   0  0  0  0  0  0  0  0  0  0  0  0
   11.5265  -18.0503   24.7233 C   0  0  2  0  0  0  0  0  0  0  0  0
   11.4993  -18.0557   23.2054 C   0  0  0  0  0  0  0  0  0  0  0  0
   10.2063  -17.6609   25.3035 C   0  0  2  0  0  0  0  0  0  0  0  0
    9.8139  -16.3058   24.9309 N   0  0  0  0  0  0  0  0  0  0  0  0
   10.2952  -17.6555   26.7835 C   0  0  0  0  0  0  0  0  0  0  0  0
   10.3767  -18.8582   27.4608 O   0  0  0  0  0  0  0  0  0  0  0  0
   10.3017  -16.6097   27.4807 O   0  0  0  0  0  0  0  0  0  0  0  0
  2  1  1  1
  2  3  1  0
  4  3  1  0
  5  4  1  0
  6  5  1  0
  7  6  1  0
  8  9  2  0
  8  2  1  0
 10 11  1  0
 11 12  1  0
 13 12  1  0
 14 13  1  1
 14 15  1  0
 15  8  1  0
 16 22  1  0
 16 14  1  0
 17 16  2  0
 19 18  1  6
 19 21  1  0
 20 19  1  0
 21 22  1  6
 21 23  1  0
 23 24  1  0
 25 23  2  0
M  END
$$$$
