KMV.pdb
     RDKit          3D

 25 24  0  0  1  0  0  0  0  0999 V2000
   12.3715  -19.0399   24.0055 N   0  0  0  0  0  0  0  0  0  0  0  0
   11.6460  -17.9076   23.4099 C   0  0  1  0  0  0  0  0  0  0  0  0
   11.0645  -18.3054   22.0708 C   0  0  0  0  0  0  0  0  0  0  0  0
   12.0846  -18.5523   21.0138 C   0  0  0  0  0  0  0  0  0  0  0  0
   12.1017  -17.5755   19.8869 C   0  0  0  0  0  0  0  0  0  0  0  0
   13.2071  -17.8390   18.9213 C   0  0  0  0  0  0  0  0  0  0  0  0
   12.7106  -18.1688   17.6281 N   0  0  0  0  0  0  0  0  0  0  0  0
   10.5726  -17.5436   24.3458 C   0  0  0  0  0  0  0  0  0  0  0  0
    9.9153  -18.5072   24.8749 O   0  0  0  0  0  0  0  0  0  0  0  0
    9.2774  -12.8586   28.9321 C   0  0  0  0  0  0  0  0  0  0  0  0
   10.7916  -13.5480   28.2526 S   0  0  0  0  0  0  0  0  0  0  0  0
   10.3362  -15.1208   27.3891 C   0  0  0  0  0  0  0  0  0  0  0  0
    9.2492  -14.8066   26.4019 C   0  0  0  0  0  0  0  0  0  0  0  0
    9.0311  -15.9667   25.4653 C   0  0  2  0  0  0  0  0  0  0  0  0
   10.2403  -16.2105   24.6805 N   0  0  0  0  0  0  0  0  0  0  0  0
    7.8918  -15.6717   24.5662 C   0  0  0  0  0  0  0  0  0  0  0  0
    6.7054  -15.5243   24.9281 O   0  0  0  0  0  0  0  0  0  0  0  0
    8.4976  -14.9400   20.3641 C   0  0  0  0  0  0  0  0  0  0  0  0
    7.4139  -14.2487   21.1565 C   0  0  2  0  0  0  0  0  0  0  0  0
    8.0104  -12.9591   21.6913 C   0  0  0  0  0  0  0  0  0  0  0  0
    6.9814  -15.1617   22.2568 C   0  0  2  0  0  0  0  0  0  0  0  0
    8.0835  -15.5274   23.1404 N   0  0  0  0  0  0  0  0  0  0  0  0
    6.4937  -16.4381   21.6815 C   0  0  0  0  0  0  0  0  0  0  0  0
    5.3155  -16.4477   20.9578 O   0  0  0  0  0  0  0  0  0  0  0  0
    7.0905  -17.5369   21.8091 O   0  0  0  0  0  0  0  0  0  0  0  0
  2  1  1  1
  2  3  1  0
  4  3  1  0
  5  4  1  0
  6  5  1  0
  7  6  1  0
  8  9  2  0
  8  2  1  0
 10 11  1  0
 11 12  1  0
 13 12  1  0
 14 13  1  1
 14 15  1  0
 15  8  1  0
 16 22  1  0
 16 14  1  0
 17 16  2  0
 19 18  1  1
 19 21  1  0
 20 19  1  0
 21 22  1  1
 21 23  1  0
 23 24  1  0
 25 23  2  0
M  END
$$$$
