KMV.pdb
     RDKit          3D

 25 24  0  0  1  0  0  0  0  0999 V2000
    7.3098  -15.9799   21.0474 N   0  0  0  0  0  0  0  0  0  0  0  0
    8.5326  -15.1675   20.9577 C   0  0  1  0  0  0  0  0  0  0  0  0
    8.2725  -13.9195   20.1425 C   0  0  0  0  0  0  0  0  0  0  0  0
    7.6440  -14.1787   18.8172 C   0  0  0  0  0  0  0  0  0  0  0  0
    8.3030  -13.5289   17.6476 C   0  0  0  0  0  0  0  0  0  0  0  0
    7.6139  -13.8373   16.3617 C   0  0  0  0  0  0  0  0  0  0  0  0
    8.1343  -13.0635   15.2855 N   0  0  0  0  0  0  0  0  0  0  0  0
    8.9142  -14.8106   22.3317 C   0  0  0  0  0  0  0  0  0  0  0  0
   10.0780  -14.3010   22.4948 O   0  0  0  0  0  0  0  0  0  0  0  0
    5.4049  -11.8180   26.9151 C   0  0  0  0  0  0  0  0  0  0  0  0
    7.1601  -11.4557   27.0487 S   0  0  0  0  0  0  0  0  0  0  0  0
    8.0718  -13.0171   26.6522 C   0  0  0  0  0  0  0  0  0  0  0  0
    7.6085  -13.4920   25.3051 C   0  0  0  0  0  0  0  0  0  0  0  0
    8.5431  -14.5419   24.7619 C   0  0  2  0  0  0  0  0  0  0  0  0
    8.0757  -14.9998   23.4545 N   0  0  0  0  0  0  0  0  0  0  0  0
    8.6121  -15.6814   25.7053 C   0  0  0  0  0  0  0  0  0  0  0  0
    8.7470  -15.5869   26.9436 O   0  0  0  0  0  0  0  0  0  0  0  0
    9.2727  -19.6989   24.3572 C   0  0  0  0  0  0  0  0  0  0  0  0
    8.3084  -19.4759   25.4976 C   0  0  2  0  0  0  0  0  0  0  0  0
    6.9122  -19.4649   24.9015 C   0  0  0  0  0  0  0  0  0  0  0  0
    8.6463  -18.1758   26.1511 C   0  0  2  0  0  0  0  0  0  0  0  0
    8.5241  -17.0460   25.2358 N   0  0  0  0  0  0  0  0  0  0  0  0
   10.0657  -18.1881   26.5791 C   0  0  0  0  0  0  0  0  0  0  0  0
   10.4449  -18.9870   27.6422 O   0  0  0  0  0  0  0  0  0  0  0  0
   10.9684  -17.5072   26.0304 O   0  0  0  0  0  0  0  0  0  0  0  0
  2  1  1  1
  2  3  1  0
  4  3  1  0
  5  4  1  0
  6  5  1  0
  7  6  1  0
  8  9  2  0
  8  2  1  0
 10 11  1  0
 11 12  1  0
 13 12  1  0
 14 13  1  1
 14 15  1  0
 15  8  1  0
 16 22  1  0
 16 14  1  0
 17 16  2  0
 19 18  1  6
 19 21  1  0
 20 19  1  0
 21 22  1  6
 21 23  1  0
 23 24  1  0
 25 23  2  0
M  END
$$$$
