KMV.pdb
     RDKit          3D

 25 24  0  0  1  0  0  0  0  0999 V2000
    8.7525  -15.8682   19.8752 N   0  0  0  0  0  0  0  0  0  0  0  0
    7.8188  -16.2202   20.9558 C   0  0  1  0  0  0  0  0  0  0  0  0
    7.6532  -17.7222   21.0350 C   0  0  0  0  0  0  0  0  0  0  0  0
    8.9185  -18.4846   20.8437 C   0  0  0  0  0  0  0  0  0  0  0  0
    8.7768  -19.9666   20.7557 C   0  0  0  0  0  0  0  0  0  0  0  0
   10.0820  -20.6513   20.5294 C   0  0  0  0  0  0  0  0  0  0  0  0
    9.9401  -22.0682   20.5206 N   0  0  0  0  0  0  0  0  0  0  0  0
    8.3924  -15.7022   22.2062 C   0  0  0  0  0  0  0  0  0  0  0  0
    9.6635  -15.5486   22.2393 O   0  0  0  0  0  0  0  0  0  0  0  0
    7.5574  -11.7743   27.5898 C   0  0  0  0  0  0  0  0  0  0  0  0
    6.2831  -11.9784   26.3390 S   0  0  0  0  0  0  0  0  0  0  0  0
    7.0189  -12.9818   24.9685 C   0  0  0  0  0  0  0  0  0  0  0  0
    7.3913  -14.3243   25.5287 C   0  0  0  0  0  0  0  0  0  0  0  0
    8.3201  -15.0518   24.5911 C   0  0  2  0  0  0  0  0  0  0  0  0
    7.6235  -15.3739   23.3467 N   0  0  0  0  0  0  0  0  0  0  0  0
    8.8069  -16.2922   25.2375 C   0  0  0  0  0  0  0  0  0  0  0  0
    8.1307  -17.3273   25.4153 O   0  0  0  0  0  0  0  0  0  0  0  0
   12.2149  -18.0550   24.4717 C   0  0  0  0  0  0  0  0  0  0  0  0
   12.1055  -17.8739   25.9668 C   0  0  2  0  0  0  0  0  0  0  0  0
   12.6362  -19.1441   26.6069 C   0  0  0  0  0  0  0  0  0  0  0  0
   10.6708  -17.6351   26.3074 C   0  0  2  0  0  0  0  0  0  0  0  0
   10.1622  -16.3950   25.7305 N   0  0  0  0  0  0  0  0  0  0  0  0
   10.5270  -17.4785   27.7747 C   0  0  0  0  0  0  0  0  0  0  0  0
   10.6658  -18.5865   28.5902 O   0  0  0  0  0  0  0  0  0  0  0  0
   10.2819  -16.3836   28.3412 O   0  0  0  0  0  0  0  0  0  0  0  0
  2  1  1  6
  2  3  1  0
  4  3  1  0
  5  4  1  0
  6  5  1  0
  7  6  1  0
  8  9  2  0
  8  2  1  0
 10 11  1  0
 11 12  1  0
 13 12  1  0
 14 13  1  1
 14 15  1  0
 15  8  1  0
 16 22  1  0
 16 14  1  0
 17 16  2  0
 19 18  1  6
 19 21  1  0
 20 19  1  0
 21 22  1  6
 21 23  1  0
 23 24  1  0
 25 23  2  0
M  END
$$$$
