KMV.pdb
     RDKit          3D

 25 24  0  0  1  0  0  0  0  0999 V2000
    6.8606  -15.6353   19.9412 N   0  0  0  0  0  0  0  0  0  0  0  0
    8.0954  -14.8416   19.8497 C   0  0  1  0  0  0  0  0  0  0  0  0
    7.8497  -13.5831   19.0463 C   0  0  0  0  0  0  0  0  0  0  0  0
    7.3834  -13.8319   17.6536 C   0  0  0  0  0  0  0  0  0  0  0  0
    8.3596  -13.5069   16.5740 C   0  0  0  0  0  0  0  0  0  0  0  0
    7.8159  -13.7811   15.2129 C   0  0  0  0  0  0  0  0  0  0  0  0
    8.7691  -13.4909   14.1955 N   0  0  0  0  0  0  0  0  0  0  0  0
    8.4918  -14.5018   21.2238 C   0  0  0  0  0  0  0  0  0  0  0  0
    9.6411  -13.9573   21.3763 O   0  0  0  0  0  0  0  0  0  0  0  0
    7.4495  -11.7094   28.2271 C   0  0  0  0  0  0  0  0  0  0  0  0
    6.5986  -12.4199   26.8124 S   0  0  0  0  0  0  0  0  0  0  0  0
    7.8397  -13.4256   25.8772 C   0  0  0  0  0  0  0  0  0  0  0  0
    7.2416  -13.7726   24.5443 C   0  0  0  0  0  0  0  0  0  0  0  0
    8.2448  -14.4973   23.6845 C   0  0  2  0  0  0  0  0  0  0  0  0
    7.6820  -14.7430   22.3577 N   0  0  0  0  0  0  0  0  0  0  0  0
    8.6141  -15.7800   24.3261 C   0  0  0  0  0  0  0  0  0  0  0  0
    7.8566  -16.7639   24.4621 O   0  0  0  0  0  0  0  0  0  0  0  0
   11.7178  -17.6919   23.2594 C   0  0  0  0  0  0  0  0  0  0  0  0
   11.7672  -17.6249   24.7672 C   0  0  2  0  0  0  0  0  0  0  0  0
   12.2599  -18.9755   25.2547 C   0  0  0  0  0  0  0  0  0  0  0  0
   10.3942  -17.3176   25.2689 C   0  0  2  0  0  0  0  0  0  0  0  0
    9.9391  -15.9915   24.8646 N   0  0  0  0  0  0  0  0  0  0  0  0
   10.3983  -17.3008   26.7515 C   0  0  0  0  0  0  0  0  0  0  0  0
   10.1414  -18.4709   27.4420 O   0  0  0  0  0  0  0  0  0  0  0  0
   10.6240  -16.2734   27.4394 O   0  0  0  0  0  0  0  0  0  0  0  0
  2  1  1  1
  2  3  1  0
  4  3  1  0
  5  4  1  0
  6  5  1  0
  7  6  1  0
  8  9  2  0
  8  2  1  0
 10 11  1  0
 11 12  1  0
 13 12  1  0
 14 13  1  1
 14 15  1  0
 15  8  1  0
 16 22  1  0
 16 14  1  0
 17 16  2  0
 19 18  1  6
 19 21  1  0
 20 19  1  0
 21 22  1  6
 21 23  1  0
 23 24  1  0
 25 23  2  0
M  END
$$$$
