KMV.pdb
     RDKit          3D

 25 24  0  0  1  0  0  0  0  0999 V2000
    8.3214  -12.8439   19.1599 N   0  0  0  0  0  0  0  0  0  0  0  0
    7.3935  -13.6707   19.9465 C   0  0  1  0  0  0  0  0  0  0  0  0
    7.2273  -15.0288   19.3004 C   0  0  0  0  0  0  0  0  0  0  0  0
    8.5085  -15.6680   18.8896 C   0  0  0  0  0  0  0  0  0  0  0  0
    8.3845  -16.9724   18.1774 C   0  0  0  0  0  0  0  0  0  0  0  0
    9.7058  -17.5173   17.7524 C   0  0  0  0  0  0  0  0  0  0  0  0
    9.5800  -18.8084   17.1649 N   0  0  0  0  0  0  0  0  0  0  0  0
    7.9744  -13.8109   21.2895 C   0  0  0  0  0  0  0  0  0  0  0  0
    9.2509  -13.8862   21.3625 O   0  0  0  0  0  0  0  0  0  0  0  0
    6.5135  -10.9196   27.1501 C   0  0  0  0  0  0  0  0  0  0  0  0
    6.5791  -12.6912   27.4447 S   0  0  0  0  0  0  0  0  0  0  0  0
    7.7170  -13.4141   26.1763 C   0  0  0  0  0  0  0  0  0  0  0  0
    7.0087  -13.3866   24.8525 C   0  0  0  0  0  0  0  0  0  0  0  0
    7.9051  -13.9090   23.7597 C   0  0  2  0  0  0  0  0  0  0  0  0
    7.2068  -13.8653   22.4759 N   0  0  0  0  0  0  0  0  0  0  0  0
    8.3102  -15.2989   24.0715 C   0  0  0  0  0  0  0  0  0  0  0  0
    7.5689  -16.3015   23.9961 O   0  0  0  0  0  0  0  0  0  0  0  0
   11.5767  -17.1141   22.8835 C   0  0  0  0  0  0  0  0  0  0  0  0
   11.4830  -17.2374   24.3856 C   0  0  2  0  0  0  0  0  0  0  0  0
   11.9232  -18.6457   24.7427 C   0  0  0  0  0  0  0  0  0  0  0  0
   10.0695  -16.9750   24.7912 C   0  0  2  0  0  0  0  0  0  0  0  0
    9.6549  -15.6055   24.5053 N   0  0  0  0  0  0  0  0  0  0  0  0
    9.9357  -17.1318   26.2594 C   0  0  0  0  0  0  0  0  0  0  0  0
    9.6728  -18.3835   26.7849 O   0  0  0  0  0  0  0  0  0  0  0  0
   10.0472  -16.1844   27.0778 O   0  0  0  0  0  0  0  0  0  0  0  0
  2  1  1  6
  2  3  1  0
  4  3  1  0
  5  4  1  0
  6  5  1  0
  7  6  1  0
  8  9  2  0
  8  2  1  0
 10 11  1  0
 11 12  1  0
 13 12  1  0
 14 13  1  1
 14 15  1  0
 15  8  1  0
 16 22  1  0
 16 14  1  0
 17 16  2  0
 19 18  1  6
 19 21  1  0
 20 19  1  0
 21 22  1  1
 21 23  1  0
 23 24  1  0
 25 23  2  0
M  END
$$$$
