KMV.pdb
     RDKit          3D

 25 24  0  0  1  0  0  0  0  0999 V2000
    8.7711  -15.1798   19.1565 N   0  0  0  0  0  0  0  0  0  0  0  0
    7.9639  -15.8434   20.1915 C   0  0  1  0  0  0  0  0  0  0  0  0
    8.0604  -17.3465   20.0459 C   0  0  0  0  0  0  0  0  0  0  0  0
    7.6429  -17.8562   18.7100 C   0  0  0  0  0  0  0  0  0  0  0  0
    7.5782  -19.3398   18.5721 C   0  0  0  0  0  0  0  0  0  0  0  0
    7.2057  -19.7681   17.1932 C   0  0  0  0  0  0  0  0  0  0  0  0
    7.1579  -21.1865   17.0761 N   0  0  0  0  0  0  0  0  0  0  0  0
    8.5001  -15.4202   21.4931 C   0  0  0  0  0  0  0  0  0  0  0  0
    9.7744  -15.3400   21.5952 O   0  0  0  0  0  0  0  0  0  0  0  0
    6.4964  -11.3993   26.4684 C   0  0  0  0  0  0  0  0  0  0  0  0
    6.7889  -13.0057   27.2192 S   0  0  0  0  0  0  0  0  0  0  0  0
    8.0200  -13.8894   26.1563 C   0  0  0  0  0  0  0  0  0  0  0  0
    7.3691  -14.1693   24.8323 C   0  0  0  0  0  0  0  0  0  0  0  0
    8.3462  -14.8196   23.8872 C   0  0  2  0  0  0  0  0  0  0  0  0
    7.6930  -15.1054   22.6107 N   0  0  0  0  0  0  0  0  0  0  0  0
    8.8594  -16.0723   24.4878 C   0  0  0  0  0  0  0  0  0  0  0  0
    8.1997  -17.1213   24.6446 O   0  0  0  0  0  0  0  0  0  0  0  0
   12.2989  -17.7103   23.5122 C   0  0  0  0  0  0  0  0  0  0  0  0
   12.2205  -17.5959   25.0159 C   0  0  2  0  0  0  0  0  0  0  0  0
   12.8293  -18.8632   25.5888 C   0  0  0  0  0  0  0  0  0  0  0  0
   10.7854  -17.4428   25.4012 C   0  0  2  0  0  0  0  0  0  0  0  0
   10.2236  -16.1718   24.9562 N   0  0  0  0  0  0  0  0  0  0  0  0
   10.6651  -17.4342   26.8789 C   0  0  0  0  0  0  0  0  0  0  0  0
   10.7036  -18.6325   27.5678 O   0  0  0  0  0  0  0  0  0  0  0  0
   10.5272  -16.3896   27.5641 O   0  0  0  0  0  0  0  0  0  0  0  0
  2  1  1  6
  2  3  1  0
  4  3  1  0
  5  4  1  0
  6  5  1  0
  7  6  1  0
  8  9  2  0
  8  2  1  0
 10 11  1  0
 11 12  1  0
 13 12  1  0
 14 13  1  1
 14 15  1  0
 15  8  1  0
 16 22  1  0
 16 14  1  0
 17 16  2  0
 19 18  1  6
 19 21  1  0
 20 19  1  0
 21 22  1  1
 21 23  1  0
 23 24  1  0
 25 23  2  0
M  END
$$$$
