KMV.pdb
     RDKit          3D

 25 24  0  0  1  0  0  0  0  0999 V2000
    8.0264  -12.8367   19.7695 N   0  0  0  0  0  0  0  0  0  0  0  0
    7.2050  -13.7490   20.5795 C   0  0  1  0  0  0  0  0  0  0  0  0
    6.9943  -15.0548   19.8443 C   0  0  0  0  0  0  0  0  0  0  0  0
    8.0903  -15.4037   18.8979 C   0  0  0  0  0  0  0  0  0  0  0  0
    7.8935  -16.6537   18.1086 C   0  0  0  0  0  0  0  0  0  0  0  0
    9.0763  -16.9860   17.2635 C   0  0  0  0  0  0  0  0  0  0  0  0
    8.8392  -18.1310   16.4508 N   0  0  0  0  0  0  0  0  0  0  0  0
    7.9310  -13.9811   21.8363 C   0  0  0  0  0  0  0  0  0  0  0  0
    9.2098  -13.9327   21.7829 O   0  0  0  0  0  0  0  0  0  0  0  0
    7.4840  -11.7013   28.1998 C   0  0  0  0  0  0  0  0  0  0  0  0
    6.2134  -11.9009   26.9446 S   0  0  0  0  0  0  0  0  0  0  0  0
    7.0641  -12.4159   25.3834 C   0  0  0  0  0  0  0  0  0  0  0  0
    7.3476  -13.8876   25.4767 C   0  0  0  0  0  0  0  0  0  0  0  0
    8.1239  -14.3562   24.2732 C   0  0  2  0  0  0  0  0  0  0  0  0
    7.2975  -14.2491   23.0719 N   0  0  0  0  0  0  0  0  0  0  0  0
    8.5510  -15.7601   24.4735 C   0  0  0  0  0  0  0  0  0  0  0  0
    7.8094  -16.7609   24.3807 O   0  0  0  0  0  0  0  0  0  0  0  0
   11.9902  -17.2416   23.1108 C   0  0  0  0  0  0  0  0  0  0  0  0
   11.8131  -17.6254   24.5605 C   0  0  2  0  0  0  0  0  0  0  0  0
   12.2764  -19.0646   24.6974 C   0  0  0  0  0  0  0  0  0  0  0  0
   10.3708  -17.4675   24.9154 C   0  0  2  0  0  0  0  0  0  0  0  0
    9.9203  -16.0839   24.8059 N   0  0  0  0  0  0  0  0  0  0  0  0
   10.1639  -17.8410   26.3352 C   0  0  0  0  0  0  0  0  0  0  0  0
   10.1457  -19.1781   26.6873 O   0  0  0  0  0  0  0  0  0  0  0  0
    9.9999  -17.0077   27.2617 O   0  0  0  0  0  0  0  0  0  0  0  0
  2  1  1  6
  2  3  1  0
  4  3  1  0
  5  4  1  0
  6  5  1  0
  7  6  1  0
  8  9  2  0
  8  2  1  0
 10 11  1  0
 11 12  1  0
 13 12  1  0
 14 13  1  1
 14 15  1  0
 15  8  1  0
 16 22  1  0
 16 14  1  0
 17 16  2  0
 19 18  1  6
 19 21  1  0
 20 19  1  0
 21 22  1  1
 21 23  1  0
 23 24  1  0
 25 23  2  0
M  END
$$$$
