KMV.pdb
     RDKit          3D

 25 24  0  0  1  0  0  0  0  0999 V2000
    5.7992  -18.5313   20.8648 N   0  0  0  0  0  0  0  0  0  0  0  0
    5.5292  -18.4904   22.3100 C   0  0  1  0  0  0  0  0  0  0  0  0
    5.6041  -19.8837   22.8955 C   0  0  0  0  0  0  0  0  0  0  0  0
    4.3873  -20.7094   22.6583 C   0  0  0  0  0  0  0  0  0  0  0  0
    4.4446  -22.1110   23.1647 C   0  0  0  0  0  0  0  0  0  0  0  0
    3.2207  -22.8910   22.8222 C   0  0  0  0  0  0  0  0  0  0  0  0
    3.3331  -24.2525   23.2240 N   0  0  0  0  0  0  0  0  0  0  0  0
    6.5524  -17.6257   22.9150 C   0  0  0  0  0  0  0  0  0  0  0  0
    7.7197  -17.6556   22.3886 O   0  0  0  0  0  0  0  0  0  0  0  0
    6.3203  -11.4522   25.7933 C   0  0  0  0  0  0  0  0  0  0  0  0
    7.1681  -12.5973   26.8888 S   0  0  0  0  0  0  0  0  0  0  0  0
    7.9334  -13.9051   25.8256 C   0  0  0  0  0  0  0  0  0  0  0  0
    6.8450  -14.8475   25.3989 C   0  0  0  0  0  0  0  0  0  0  0  0
    7.3956  -15.9200   24.4948 C   0  0  2  0  0  0  0  0  0  0  0  0
    6.3129  -16.7829   24.0249 N   0  0  0  0  0  0  0  0  0  0  0  0
    8.4019  -16.7206   25.2295 C   0  0  0  0  0  0  0  0  0  0  0  0
    8.1565  -17.4925   26.1804 O   0  0  0  0  0  0  0  0  0  0  0  0
   12.9506  -18.6824   25.2240 C   0  0  0  0  0  0  0  0  0  0  0  0
   11.9991  -17.7105   24.5680 C   0  0  2  0  0  0  0  0  0  0  0  0
   12.7144  -16.3737   24.4913 C   0  0  0  0  0  0  0  0  0  0  0  0
   10.7600  -17.6333   25.3987 C   0  0  2  0  0  0  0  0  0  0  0  0
    9.8036  -16.6608   24.8802 N   0  0  0  0  0  0  0  0  0  0  0  0
   11.1035  -17.1639   26.7624 C   0  0  0  0  0  0  0  0  0  0  0  0
   11.6232  -18.0621   27.6762 O   0  0  0  0  0  0  0  0  0  0  0  0
   10.9513  -15.9793   27.1542 O   0  0  0  0  0  0  0  0  0  0  0  0
  2  1  1  6
  2  3  1  0
  4  3  1  0
  5  4  1  0
  6  5  1  0
  7  6  1  0
  8  9  2  0
  8  2  1  0
 10 11  1  0
 11 12  1  0
 13 12  1  0
 14 13  1  1
 14 15  1  0
 15  8  1  0
 16 22  1  0
 16 14  1  0
 17 16  2  0
 19 18  1  1
 19 21  1  0
 20 19  1  0
 21 22  1  6
 21 23  1  0
 23 24  1  0
 25 23  2  0
M  END
$$$$
