KMV.pdb
     RDKit          3D

 25 24  0  0  1  0  0  0  0  0999 V2000
    8.0132  -17.0275   19.7987 N   0  0  0  0  0  0  0  0  0  0  0  0
    7.3338  -17.3964   21.0499 C   0  0  1  0  0  0  0  0  0  0  0  0
    7.5282  -18.8696   21.3357 C   0  0  0  0  0  0  0  0  0  0  0  0
    6.5751  -19.7598   20.6160 C   0  0  0  0  0  0  0  0  0  0  0  0
    5.2945  -20.0479   21.3240 C   0  0  0  0  0  0  0  0  0  0  0  0
    4.3291  -20.7997   20.4719 C   0  0  0  0  0  0  0  0  0  0  0  0
    3.0489  -20.9000   21.0874 N   0  0  0  0  0  0  0  0  0  0  0  0
    7.9312  -16.5847   22.1198 C   0  0  0  0  0  0  0  0  0  0  0  0
    9.2079  -16.4813   22.1231 O   0  0  0  0  0  0  0  0  0  0  0  0
    7.2841  -11.4546   28.0325 C   0  0  0  0  0  0  0  0  0  0  0  0
    6.3923  -12.4669   26.8452 S   0  0  0  0  0  0  0  0  0  0  0  0
    7.6472  -13.4908   25.9490 C   0  0  0  0  0  0  0  0  0  0  0  0
    6.9241  -14.3067   24.9164 C   0  0  0  0  0  0  0  0  0  0  0  0
    7.8923  -15.1665   24.1456 C   0  0  2  0  0  0  0  0  0  0  0  0
    7.1792  -15.9286   23.1217 N   0  0  0  0  0  0  0  0  0  0  0  0
    8.5866  -16.0877   25.0743 C   0  0  0  0  0  0  0  0  0  0  0  0
    8.0650  -17.0716   25.6401 O   0  0  0  0  0  0  0  0  0  0  0  0
   12.2631  -17.3680   24.2382 C   0  0  0  0  0  0  0  0  0  0  0  0
   12.1825  -16.9501   25.6870 C   0  0  2  0  0  0  0  0  0  0  0  0
   12.9892  -17.9591   26.4845 C   0  0  0  0  0  0  0  0  0  0  0  0
   10.7451  -16.9388   26.0934 C   0  0  2  0  0  0  0  0  0  0  0  0
    9.9817  -15.9028   25.4056 N   0  0  0  0  0  0  0  0  0  0  0  0
   10.6386  -16.6179   27.5370 C   0  0  0  0  0  0  0  0  0  0  0  0
   10.8085  -17.6256   28.4684 O   0  0  0  0  0  0  0  0  0  0  0  0
   10.3990  -15.4673   27.9826 O   0  0  0  0  0  0  0  0  0  0  0  0
  2  1  1  6
  2  3  1  0
  4  3  1  0
  5  4  1  0
  6  5  1  0
  7  6  1  0
  8  9  2  0
  8  2  1  0
 10 11  1  0
 11 12  1  0
 13 12  1  0
 14 13  1  1
 14 15  1  0
 15  8  1  0
 16 22  1  0
 16 14  1  0
 17 16  2  0
 19 18  1  6
 19 21  1  0
 20 19  1  0
 21 22  1  6
 21 23  1  0
 23 24  1  0
 25 23  2  0
M  END
$$$$
