KMV.pdb
     RDKit          3D

 25 24  0  0  1  0  0  0  0  0999 V2000
    7.8823  -15.2053   19.4820 N   0  0  0  0  0  0  0  0  0  0  0  0
    7.1243  -15.7687   20.6095 C   0  0  1  0  0  0  0  0  0  0  0  0
    7.0329  -17.2734   20.4781 C   0  0  0  0  0  0  0  0  0  0  0  0
    6.3454  -17.7352   19.2400 C   0  0  0  0  0  0  0  0  0  0  0  0
    5.3647  -18.8448   19.4171 C   0  0  0  0  0  0  0  0  0  0  0  0
    4.6660  -19.1956   18.1473 C   0  0  0  0  0  0  0  0  0  0  0  0
    5.5840  -19.5793   17.1285 N   0  0  0  0  0  0  0  0  0  0  0  0
    7.8456  -15.4055   21.8377 C   0  0  0  0  0  0  0  0  0  0  0  0
    9.1252  -15.4157   21.7814 O   0  0  0  0  0  0  0  0  0  0  0  0
    7.2338  -11.6121   27.5734 C   0  0  0  0  0  0  0  0  0  0  0  0
    5.9673  -11.9453   26.3427 S   0  0  0  0  0  0  0  0  0  0  0  0
    6.8067  -12.7385   24.8960 C   0  0  0  0  0  0  0  0  0  0  0  0
    7.2038  -14.1294   25.2992 C   0  0  0  0  0  0  0  0  0  0  0  0
    8.0350  -14.7775   24.2222 C   0  0  2  0  0  0  0  0  0  0  0  0
    7.2069  -15.0540   23.0494 N   0  0  0  0  0  0  0  0  0  0  0  0
    8.6229  -16.0352   24.7379 C   0  0  0  0  0  0  0  0  0  0  0  0
    8.0062  -17.1102   24.8936 O   0  0  0  0  0  0  0  0  0  0  0  0
   12.0003  -17.4152   23.3982 C   0  0  0  0  0  0  0  0  0  0  0  0
   12.0528  -17.4618   24.9067 C   0  0  2  0  0  0  0  0  0  0  0  0
   12.7264  -18.7683   25.2862 C   0  0  0  0  0  0  0  0  0  0  0  0
   10.6552  -17.3826   25.4280 C   0  0  2  0  0  0  0  0  0  0  0  0
   10.0169  -16.1085   25.1144 N   0  0  0  0  0  0  0  0  0  0  0  0
   10.6708  -17.4650   26.9082 C   0  0  0  0  0  0  0  0  0  0  0  0
   10.9228  -18.6814   27.5155 O   0  0  0  0  0  0  0  0  0  0  0  0
   10.4660  -16.4836   27.6663 O   0  0  0  0  0  0  0  0  0  0  0  0
  2  1  1  6
  2  3  1  0
  4  3  1  0
  5  4  1  0
  6  5  1  0
  7  6  1  0
  8  9  2  0
  8  2  1  0
 10 11  1  0
 11 12  1  0
 13 12  1  0
 14 13  1  1
 14 15  1  0
 15  8  1  0
 16 22  1  0
 16 14  1  0
 17 16  2  0
 19 18  1  6
 19 21  1  0
 20 19  1  0
 21 22  1  1
 21 23  1  0
 23 24  1  0
 25 23  2  0
M  END
$$$$
