KNI.pdb
     RDKit          3D

 26 25  0  0  1  0  0  0  0  0999 V2000
    9.0305  -15.4592   18.9379 N   0  0  0  0  0  0  0  0  0  0  0  0
    8.5487  -14.4192   19.7951 C   0  0  1  0  0  0  0  0  0  0  0  0
    7.4475  -13.5968   19.1974 C   0  0  0  0  0  0  0  0  0  0  0  0
    7.2584  -13.7470   17.7357 C   0  0  0  0  0  0  0  0  0  0  0  0
    8.4604  -13.5491   16.8758 C   0  0  0  0  0  0  0  0  0  0  0  0
    8.0542  -13.6925   15.3946 C   0  0  0  0  0  0  0  0  0  0  0  0
    9.2815  -13.5975   14.6284 N   0  0  0  0  0  0  0  0  0  0  0  0
    8.1070  -14.9433   21.1188 C   0  0  0  0  0  0  0  0  0  0  0  0
    7.3161  -14.2443   21.8388 O   0  0  0  0  0  0  0  0  0  0  0  0
    8.6776  -19.8922   21.0738 N   0  0  0  0  0  0  0  0  0  0  0  0
    7.9781  -19.0752   21.9831 C   0  0  0  0  0  0  0  0  0  0  0  0
    6.7199  -19.0956   21.9310 O   0  0  0  0  0  0  0  0  0  0  0  0
    8.5840  -18.1915   22.9982 C   0  0  0  0  0  0  0  0  0  0  0  0
    8.2793  -16.7419   22.8378 C   0  0  2  0  0  0  0  0  0  0  0  0
    8.5773  -16.2090   21.5458 N   0  0  0  0  0  0  0  0  0  0  0  0
    8.9513  -15.9755   23.9347 C   0  0  0  0  0  0  0  0  0  0  0  0
   10.1844  -15.7424   23.9038 O   0  0  0  0  0  0  0  0  0  0  0  0
    6.1550  -12.0083   25.8676 C   0  0  0  0  0  0  0  0  0  0  0  0
    7.2611  -12.9330   25.3986 C   0  0  0  0  0  0  0  0  0  0  0  0
    7.8770  -13.6862   26.5433 C   0  0  2  0  0  0  0  0  0  0  0  0
    8.4137  -12.7789   27.6125 C   0  0  0  0  0  0  0  0  0  0  0  0
    8.8765  -14.7317   26.1312 C   0  0  2  0  0  0  0  0  0  0  0  0
    8.2190  -15.4860   25.0469 N   0  0  0  0  0  0  0  0  0  0  0  0
    9.3067  -15.6288   27.2045 C   0  0  0  0  0  0  0  0  0  0  0  0
   10.4521  -15.3828   27.9764 O   0  0  0  0  0  0  0  0  0  0  0  0
    8.6735  -16.6706   27.4949 O   0  0  0  0  0  0  0  0  0  0  0  0
  2  3  1  0
  2  1  1  6
  4  5  1  0
  4  3  1  0
  6  7  1  0
  6  5  1  0
  8  2  1  0
  9  8  2  0
 10 11  1  0
 11 13  1  0
 12 11  2  0
 14 13  1  6
 14 15  1  0
 15  8  1  0
 16 14  1  0
 16 17  2  0
 18 19  1  0
 19 20  1  0
 20 22  1  0
 20 21  1  1
 22 23  1  6
 23 16  1  0
 24 22  1  0
 25 24  1  0
 26 24  2  0
M  END
$$$$
