KNI.pdb
     RDKit          3D

 26 25  0  0  1  0  0  0  0  0999 V2000
   10.2313  -18.4909   20.5141 N   0  0  0  0  0  0  0  0  0  0  0  0
    9.7239  -17.1814   20.2381 C   0  0  1  0  0  0  0  0  0  0  0  0
    9.0433  -17.0584   18.9084 C   0  0  0  0  0  0  0  0  0  0  0  0
    9.0126  -18.2925   18.0893 C   0  0  0  0  0  0  0  0  0  0  0  0
    8.2794  -18.2237   16.7927 C   0  0  0  0  0  0  0  0  0  0  0  0
    8.3585  -19.5954   16.0913 C   0  0  0  0  0  0  0  0  0  0  0  0
    7.5333  -19.4898   14.9037 N   0  0  0  0  0  0  0  0  0  0  0  0
    8.8034  -16.7000   21.3072 C   0  0  0  0  0  0  0  0  0  0  0  0
    8.2473  -15.5557   21.1888 O   0  0  0  0  0  0  0  0  0  0  0  0
    6.0535  -19.0533   22.1657 N   0  0  0  0  0  0  0  0  0  0  0  0
    6.3158  -19.1372   23.5470 C   0  0  0  0  0  0  0  0  0  0  0  0
    5.7841  -20.0868   24.1809 O   0  0  0  0  0  0  0  0  0  0  0  0
    7.1603  -18.2117   24.3270 C   0  0  0  0  0  0  0  0  0  0  0  0
    7.7758  -17.1040   23.5434 C   0  0  2  0  0  0  0  0  0  0  0  0
    8.5673  -17.5279   22.4316 N   0  0  0  0  0  0  0  0  0  0  0  0
    8.5377  -16.2108   24.4725 C   0  0  0  0  0  0  0  0  0  0  0  0
    9.7892  -16.2701   24.5510 O   0  0  0  0  0  0  0  0  0  0  0  0
    5.8101  -11.7912   25.9987 C   0  0  0  0  0  0  0  0  0  0  0  0
    6.9751  -12.6390   25.5274 C   0  0  0  0  0  0  0  0  0  0  0  0
    7.6385  -13.3546   26.6698 C   0  0  2  0  0  0  0  0  0  0  0  0
    8.2263  -12.4128   27.6807 C   0  0  0  0  0  0  0  0  0  0  0  0
    8.6140  -14.4199   26.2514 C   0  0  2  0  0  0  0  0  0  0  0  0
    7.8730  -15.2663   25.2967 N   0  0  0  0  0  0  0  0  0  0  0  0
    9.1567  -15.2226   27.3483 C   0  0  0  0  0  0  0  0  0  0  0  0
    8.5692  -16.4283   27.7600 O   0  0  0  0  0  0  0  0  0  0  0  0
   10.1802  -14.8763   27.9832 O   0  0  0  0  0  0  0  0  0  0  0  0
  2  3  1  0
  2  1  1  1
  4  5  1  0
  4  3  1  0
  6  7  1  0
  6  5  1  0
  8  2  1  0
  9  8  2  0
 10 11  1  0
 11 13  1  0
 12 11  2  0
 14 13  1  1
 14 15  1  0
 15  8  1  0
 16 14  1  0
 16 17  2  0
 18 19  1  0
 19 20  1  0
 20 22  1  0
 20 21  1  6
 22 23  1  6
 23 16  1  0
 24 22  1  0
 25 24  1  0
 26 24  2  0
M  END
$$$$
