KNI.pdb
     RDKit          3D

 26 25  0  0  1  0  0  0  0  0999 V2000
   10.2379  -15.1247   19.1229 N   0  0  0  0  0  0  0  0  0  0  0  0
    9.5365  -14.0177   19.6984 C   0  0  1  0  0  0  0  0  0  0  0  0
    8.6359  -13.3004   18.7389 C   0  0  0  0  0  0  0  0  0  0  0  0
    7.7388  -14.1641   17.9364 C   0  0  0  0  0  0  0  0  0  0  0  0
    7.2040  -13.5887   16.6690 C   0  0  0  0  0  0  0  0  0  0  0  0
    8.0524  -14.0945   15.4840 C   0  0  0  0  0  0  0  0  0  0  0  0
    7.4697  -13.5101   14.2918 N   0  0  0  0  0  0  0  0  0  0  0  0
    8.7534  -14.4153   20.9029 C   0  0  0  0  0  0  0  0  0  0  0  0
    8.0955  -13.5279   21.5453 O   0  0  0  0  0  0  0  0  0  0  0  0
    7.9674  -19.3472   20.6668 N   0  0  0  0  0  0  0  0  0  0  0  0
    7.3675  -18.3912   21.5094 C   0  0  0  0  0  0  0  0  0  0  0  0
    6.1646  -18.0939   21.2839 O   0  0  0  0  0  0  0  0  0  0  0  0
    8.0193  -17.7004   22.6391 C   0  0  0  0  0  0  0  0  0  0  0  0
    8.1190  -16.2201   22.5028 C   0  0  2  0  0  0  0  0  0  0  0  0
    8.7584  -15.7729   21.3057 N   0  0  0  0  0  0  0  0  0  0  0  0
    8.7621  -15.6569   23.7321 C   0  0  0  0  0  0  0  0  0  0  0  0
   10.0056  -15.4994   23.8012 O   0  0  0  0  0  0  0  0  0  0  0  0
    5.8582  -11.9346   26.0650 C   0  0  0  0  0  0  0  0  0  0  0  0
    7.0218  -12.7432   25.5259 C   0  0  0  0  0  0  0  0  0  0  0  0
    7.5654  -13.6894   26.5586 C   0  0  2  0  0  0  0  0  0  0  0  0
    8.0113  -12.9886   27.8094 C   0  0  0  0  0  0  0  0  0  0  0  0
    8.6067  -14.6421   26.0393 C   0  0  2  0  0  0  0  0  0  0  0  0
    7.9897  -15.2816   24.8615 N   0  0  0  0  0  0  0  0  0  0  0  0
    9.0565  -15.6474   27.0033 C   0  0  0  0  0  0  0  0  0  0  0  0
    8.4934  -16.9307   27.0695 O   0  0  0  0  0  0  0  0  0  0  0  0
    9.9731  -15.4169   27.8262 O   0  0  0  0  0  0  0  0  0  0  0  0
  2  3  1  0
  2  1  1  6
  4  5  1  0
  4  3  1  0
  6  7  1  0
  6  5  1  0
  8  2  1  0
  9  8  2  0
 10 11  1  0
 11 13  1  0
 12 11  2  0
 14 13  1  1
 14 15  1  0
 15  8  1  0
 16 14  1  0
 16 17  2  0
 18 19  1  0
 19 20  1  0
 20 22  1  0
 20 21  1  1
 22 23  1  6
 23 16  1  0
 24 22  1  0
 25 24  1  0
 26 24  2  0
M  END
$$$$
