KNI.pdb
     RDKit          3D

 26 25  0  0  1  0  0  0  0  0999 V2000
    9.1094  -17.8903   18.5870 N   0  0  0  0  0  0  0  0  0  0  0  0
    8.8466  -16.7266   19.3777 C   0  0  1  0  0  0  0  0  0  0  0  0
    8.0459  -15.6759   18.6699 C   0  0  0  0  0  0  0  0  0  0  0  0
    8.5483  -15.2814   17.3332 C   0  0  0  0  0  0  0  0  0  0  0  0
    7.8596  -14.1414   16.6627 C   0  0  0  0  0  0  0  0  0  0  0  0
    8.4927  -13.9109   15.2751 C   0  0  0  0  0  0  0  0  0  0  0  0
    7.7936  -12.7807   14.6950 N   0  0  0  0  0  0  0  0  0  0  0  0
    8.1815  -17.0643   20.6683 C   0  0  0  0  0  0  0  0  0  0  0  0
    7.3715  -18.0513   20.7180 O   0  0  0  0  0  0  0  0  0  0  0  0
    6.3622  -18.3305   25.4128 N   0  0  0  0  0  0  0  0  0  0  0  0
    7.6870  -18.2450   24.9424 C   0  0  0  0  0  0  0  0  0  0  0  0
    8.6115  -18.4123   25.7811 O   0  0  0  0  0  0  0  0  0  0  0  0
    8.0971  -17.9761   23.5503 C   0  0  0  0  0  0  0  0  0  0  0  0
    7.9148  -16.5683   23.0978 C   0  0  2  0  0  0  0  0  0  0  0  0
    8.4665  -16.2790   21.8118 N   0  0  0  0  0  0  0  0  0  0  0  0
    8.4303  -15.6428   24.1559 C   0  0  0  0  0  0  0  0  0  0  0  0
    9.6603  -15.5351   24.3825 O   0  0  0  0  0  0  0  0  0  0  0  0
    7.3422  -10.3212   25.8650 C   0  0  0  0  0  0  0  0  0  0  0  0
    7.2520  -11.5668   26.7244 C   0  0  0  0  0  0  0  0  0  0  0  0
    6.9335  -12.7847   25.9044 C   0  0  2  0  0  0  0  0  0  0  0  0
    5.6256  -13.4153   26.2867 C   0  0  0  0  0  0  0  0  0  0  0  0
    8.0488  -13.7908   25.8298 C   0  0  2  0  0  0  0  0  0  0  0  0
    7.5477  -14.8551   24.9393 N   0  0  0  0  0  0  0  0  0  0  0  0
    8.4668  -14.3430   27.1192 C   0  0  0  0  0  0  0  0  0  0  0  0
    8.1914  -15.6662   27.4954 O   0  0  0  0  0  0  0  0  0  0  0  0
    9.0964  -13.6620   27.9620 O   0  0  0  0  0  0  0  0  0  0  0  0
  2  3  1  0
  2  1  1  6
  4  5  1  0
  4  3  1  0
  6  7  1  0
  6  5  1  0
  8  2  1  0
  9  8  2  0
 10 11  1  0
 11 13  1  0
 12 11  2  0
 14 13  1  1
 14 15  1  0
 15  8  1  0
 16 14  1  0
 16 17  2  0
 18 19  1  0
 19 20  1  0
 20 22  1  0
 20 21  1  1
 22 23  1  6
 23 16  1  0
 24 22  1  0
 25 24  1  0
 26 24  2  0
M  END
$$$$
