KNI.pdb
     RDKit          3D

 26 25  0  0  1  0  0  0  0  0999 V2000
   10.4808  -15.4319   19.7968 N   0  0  0  0  0  0  0  0  0  0  0  0
    9.4873  -14.5828   20.3803 C   0  0  1  0  0  0  0  0  0  0  0  0
    8.3256  -14.2938   19.4787 C   0  0  0  0  0  0  0  0  0  0  0  0
    8.5814  -14.4693   18.0300 C   0  0  0  0  0  0  0  0  0  0  0  0
    7.9155  -13.5072   17.1056 C   0  0  0  0  0  0  0  0  0  0  0  0
    8.2992  -13.8516   15.6518 C   0  0  0  0  0  0  0  0  0  0  0  0
    7.5460  -12.9431   14.8094 N   0  0  0  0  0  0  0  0  0  0  0  0
    8.9816  -15.1198   21.6757 C   0  0  0  0  0  0  0  0  0  0  0  0
    7.9977  -14.5441   22.2530 O   0  0  0  0  0  0  0  0  0  0  0  0
   10.4931  -19.7055   21.8830 N   0  0  0  0  0  0  0  0  0  0  0  0
    9.5148  -19.1414   22.7247 C   0  0  0  0  0  0  0  0  0  0  0  0
    8.3223  -19.5089   22.5544 O   0  0  0  0  0  0  0  0  0  0  0  0
    9.7565  -18.1539   23.7947 C   0  0  0  0  0  0  0  0  0  0  0  0
    9.2470  -16.7818   23.5161 C   0  0  2  0  0  0  0  0  0  0  0  0
    9.6075  -16.2602   22.2355 N   0  0  0  0  0  0  0  0  0  0  0  0
    9.6544  -15.8716   24.6329 C   0  0  0  0  0  0  0  0  0  0  0  0
   10.7808  -15.3176   24.6421 O   0  0  0  0  0  0  0  0  0  0  0  0
    6.1398  -12.4118   26.0676 C   0  0  0  0  0  0  0  0  0  0  0  0
    7.4134  -13.1852   25.7883 C   0  0  0  0  0  0  0  0  0  0  0  0
    7.9642  -13.8160   27.0357 C   0  0  2  0  0  0  0  0  0  0  0  0
    8.1817  -12.8225   28.1403 C   0  0  0  0  0  0  0  0  0  0  0  0
    9.1691  -14.6870   26.8098 C   0  0  2  0  0  0  0  0  0  0  0  0
    8.7826  -15.6030   25.7196 N   0  0  0  0  0  0  0  0  0  0  0  0
    9.6171  -15.4348   27.9855 C   0  0  0  0  0  0  0  0  0  0  0  0
   10.5574  -14.9203   28.8907 O   0  0  0  0  0  0  0  0  0  0  0  0
    9.1840  -16.5807   28.2500 O   0  0  0  0  0  0  0  0  0  0  0  0
  2  3  1  0
  2  1  1  6
  4  5  1  0
  4  3  1  0
  6  7  1  0
  6  5  1  0
  8  2  1  0
  9  8  2  0
 10 11  1  0
 11 13  1  0
 12 11  2  0
 14 13  1  1
 14 15  1  0
 15  8  1  0
 16 14  1  0
 16 17  2  0
 18 19  1  0
 19 20  1  0
 20 22  1  0
 20 21  1  1
 22 23  1  6
 23 16  1  0
 24 22  1  0
 25 24  1  0
 26 24  2  0
M  END
$$$$
