KNI.pdb
     RDKit          3D

 26 25  0  0  1  0  0  0  0  0999 V2000
    8.8184  -17.3171   19.1053 N   0  0  0  0  0  0  0  0  0  0  0  0
    8.8513  -16.2920   20.1037 C   0  0  1  0  0  0  0  0  0  0  0  0
    8.2757  -14.9833   19.6540 C   0  0  0  0  0  0  0  0  0  0  0  0
    8.5244  -14.6286   18.2372 C   0  0  0  0  0  0  0  0  0  0  0  0
    7.9312  -13.3513   17.7472 C   0  0  0  0  0  0  0  0  0  0  0  0
    8.3888  -13.1032   16.2951 C   0  0  0  0  0  0  0  0  0  0  0  0
    7.6790  -14.0679   15.4777 N   0  0  0  0  0  0  0  0  0  0  0  0
    8.1795  -16.7163   21.3650 C   0  0  0  0  0  0  0  0  0  0  0  0
    7.2528  -17.5948   21.3182 O   0  0  0  0  0  0  0  0  0  0  0  0
    5.7655  -18.5615   23.8885 N   0  0  0  0  0  0  0  0  0  0  0  0
    7.0567  -18.8231   24.3864 C   0  0  0  0  0  0  0  0  0  0  0  0
    7.1692  -19.7220   25.2614 O   0  0  0  0  0  0  0  0  0  0  0  0
    8.2989  -18.1391   23.9772 C   0  0  0  0  0  0  0  0  0  0  0  0
    8.1955  -16.6575   23.8582 C   0  0  2  0  0  0  0  0  0  0  0  0
    8.5883  -16.1322   22.5886 N   0  0  0  0  0  0  0  0  0  0  0  0
    8.9426  -16.0216   24.9893 C   0  0  0  0  0  0  0  0  0  0  0  0
   10.1945  -16.0825   25.0572 O   0  0  0  0  0  0  0  0  0  0  0  0
    6.2329  -11.8912   27.0606 C   0  0  0  0  0  0  0  0  0  0  0  0
    7.2703  -12.8359   26.4865 C   0  0  0  0  0  0  0  0  0  0  0  0
    8.0269  -13.5527   27.5687 C   0  0  2  0  0  0  0  0  0  0  0  0
    8.6596  -12.6127   28.5539 C   0  0  0  0  0  0  0  0  0  0  0  0
    8.9969  -14.5863   27.0664 C   0  0  2  0  0  0  0  0  0  0  0  0
    8.2626  -15.3282   26.0237 N   0  0  0  0  0  0  0  0  0  0  0  0
    9.5112  -15.4968   28.0905 C   0  0  0  0  0  0  0  0  0  0  0  0
   10.7116  -15.2568   28.7758 O   0  0  0  0  0  0  0  0  0  0  0  0
    8.9055  -16.5453   28.4134 O   0  0  0  0  0  0  0  0  0  0  0  0
  2  3  1  0
  2  1  1  6
  4  5  1  0
  4  3  1  0
  6  7  1  0
  6  5  1  0
  8  2  1  0
  9  8  2  0
 10 11  1  0
 11 13  1  0
 12 11  2  0
 14 13  1  6
 14 15  1  0
 15  8  1  0
 16 14  1  0
 16 17  2  0
 18 19  1  0
 19 20  1  0
 20 22  1  0
 20 21  1  6
 22 23  1  6
 23 16  1  0
 24 22  1  0
 25 24  1  0
 26 24  2  0
M  END
$$$$
