KNI.pdb
     RDKit          3D

 26 25  0  0  1  0  0  0  0  0999 V2000
    8.9344  -18.7528   19.5905 N   0  0  0  0  0  0  0  0  0  0  0  0
    8.6954  -17.4261   20.0714 C   0  0  1  0  0  0  0  0  0  0  0  0
    7.9981  -16.5366   19.0872 C   0  0  0  0  0  0  0  0  0  0  0  0
    8.5410  -15.1631   18.9702 C   0  0  0  0  0  0  0  0  0  0  0  0
    7.8428  -14.2392   18.0309 C   0  0  0  0  0  0  0  0  0  0  0  0
    8.4593  -12.8303   18.1525 C   0  0  0  0  0  0  0  0  0  0  0  0
    7.6340  -11.9571   17.3407 N   0  0  0  0  0  0  0  0  0  0  0  0
    7.9403  -17.4232   21.3566 C   0  0  0  0  0  0  0  0  0  0  0  0
    6.7293  -17.8305   21.3744 O   0  0  0  0  0  0  0  0  0  0  0  0
    6.0957  -18.8152   26.0406 N   0  0  0  0  0  0  0  0  0  0  0  0
    7.4393  -18.8227   25.6181 C   0  0  0  0  0  0  0  0  0  0  0  0
    8.3202  -19.0378   26.4922 O   0  0  0  0  0  0  0  0  0  0  0  0
    7.9159  -18.6010   24.2390 C   0  0  0  0  0  0  0  0  0  0  0  0
    8.0436  -17.1724   23.8358 C   0  0  2  0  0  0  0  0  0  0  0  0
    8.5881  -16.9674   22.5306 N   0  0  0  0  0  0  0  0  0  0  0  0
    8.8068  -16.4320   24.8899 C   0  0  0  0  0  0  0  0  0  0  0  0
   10.0414  -16.6028   25.0395 O   0  0  0  0  0  0  0  0  0  0  0  0
    6.0484  -12.0544   26.4360 C   0  0  0  0  0  0  0  0  0  0  0  0
    7.1080  -13.0124   25.9285 C   0  0  0  0  0  0  0  0  0  0  0  0
    7.9604  -13.5401   27.0476 C   0  0  2  0  0  0  0  0  0  0  0  0
    8.6215  -12.4477   27.8375 C   0  0  0  0  0  0  0  0  0  0  0  0
    8.9327  -14.6104   26.6345 C   0  0  2  0  0  0  0  0  0  0  0  0
    8.1622  -15.5117   25.7564 N   0  0  0  0  0  0  0  0  0  0  0  0
    9.5383  -15.3522   27.7413 C   0  0  0  0  0  0  0  0  0  0  0  0
   10.7243  -14.9369   28.3652 O   0  0  0  0  0  0  0  0  0  0  0  0
    9.0291  -16.4036   28.1952 O   0  0  0  0  0  0  0  0  0  0  0  0
  2  3  1  0
  2  1  1  6
  4  5  1  0
  4  3  1  0
  6  7  1  0
  6  5  1  0
  8  2  1  0
  9  8  2  0
 10 11  1  0
 11 13  1  0
 12 11  2  0
 14 13  1  1
 14 15  1  0
 15  8  1  0
 16 14  1  0
 16 17  2  0
 18 19  1  0
 19 20  1  0
 20 22  1  0
 20 21  1  6
 22 23  1  6
 23 16  1  0
 24 22  1  0
 25 24  1  0
 26 24  2  0
M  END
$$$$
