KNI.pdb
     RDKit          3D

 26 25  0  0  1  0  0  0  0  0999 V2000
   10.1244  -19.0264   21.7355 N   0  0  0  0  0  0  0  0  0  0  0  0
   10.2441  -17.7364   21.1272 C   0  0  1  0  0  0  0  0  0  0  0  0
   10.3494  -17.7739   19.6326 C   0  0  0  0  0  0  0  0  0  0  0  0
   11.6959  -18.0766   19.0938 C   0  0  0  0  0  0  0  0  0  0  0  0
   12.2916  -19.3920   19.4660 C   0  0  0  0  0  0  0  0  0  0  0  0
   13.7015  -19.5033   18.8501 C   0  0  0  0  0  0  0  0  0  0  0  0
   14.2705  -20.7340   19.3638 N   0  0  0  0  0  0  0  0  0  0  0  0
    9.1298  -16.8267   21.5181 C   0  0  0  0  0  0  0  0  0  0  0  0
    9.0500  -15.6672   20.9871 O   0  0  0  0  0  0  0  0  0  0  0  0
    5.7127  -18.3369   21.0912 N   0  0  0  0  0  0  0  0  0  0  0  0
    5.2947  -18.1467   22.4226 C   0  0  0  0  0  0  0  0  0  0  0  0
    4.3066  -18.8184   22.8211 O   0  0  0  0  0  0  0  0  0  0  0  0
    5.9089  -17.2288   23.4016 C   0  0  0  0  0  0  0  0  0  0  0  0
    7.0859  -16.4649   22.9006 C   0  0  2  0  0  0  0  0  0  0  0  0
    8.1835  -17.2736   22.4722 N   0  0  0  0  0  0  0  0  0  0  0  0
    7.4930  -15.4593   23.9326 C   0  0  0  0  0  0  0  0  0  0  0  0
    7.1791  -14.2491   23.8204 O   0  0  0  0  0  0  0  0  0  0  0  0
    6.0892  -12.1964   25.7468 C   0  0  0  0  0  0  0  0  0  0  0  0
    7.1584  -13.1440   25.2397 C   0  0  0  0  0  0  0  0  0  0  0  0
    7.8022  -13.9062   26.3631 C   0  0  2  0  0  0  0  0  0  0  0  0
    8.2202  -13.0196   27.5004 C   0  0  0  0  0  0  0  0  0  0  0  0
    8.9043  -14.8338   25.9312 C   0  0  2  0  0  0  0  0  0  0  0  0
    8.2474  -15.8382   25.0730 N   0  0  0  0  0  0  0  0  0  0  0  0
    9.6309  -15.4781   27.0262 C   0  0  0  0  0  0  0  0  0  0  0  0
    9.5504  -16.8567   27.2736 O   0  0  0  0  0  0  0  0  0  0  0  0
   10.3682  -14.8317   27.8066 O   0  0  0  0  0  0  0  0  0  0  0  0
  2  3  1  0
  2  1  1  6
  4  5  1  0
  4  3  1  0
  6  7  1  0
  6  5  1  0
  8  2  1  0
  9  8  2  0
 10 11  1  0
 11 13  1  0
 12 11  2  0
 14 13  1  1
 14 15  1  0
 15  8  1  0
 16 14  1  0
 16 17  2  0
 18 19  1  0
 19 20  1  0
 20 22  1  0
 20 21  1  1
 22 23  1  6
 23 16  1  0
 24 22  1  0
 25 24  1  0
 26 24  2  0
M  END
$$$$
