KNI.pdb
     RDKit          3D

 26 25  0  0  1  0  0  0  0  0999 V2000
    8.7377  -15.9330   20.9277 N   0  0  0  0  0  0  0  0  0  0  0  0
    7.7431  -15.0763   21.4978 C   0  0  1  0  0  0  0  0  0  0  0  0
    6.5826  -14.8003   20.5904 C   0  0  0  0  0  0  0  0  0  0  0  0
    6.9291  -14.5080   19.1800 C   0  0  0  0  0  0  0  0  0  0  0  0
    7.9264  -13.4256   18.9404 C   0  0  0  0  0  0  0  0  0  0  0  0
    8.0887  -13.2119   17.4214 C   0  0  0  0  0  0  0  0  0  0  0  0
    9.0321  -12.1219   17.2655 N   0  0  0  0  0  0  0  0  0  0  0  0
    7.2356  -15.5952   22.7998 C   0  0  0  0  0  0  0  0  0  0  0  0
    6.2154  -15.0470   23.3397 O   0  0  0  0  0  0  0  0  0  0  0  0
    8.1259  -19.9891   26.9832 N   0  0  0  0  0  0  0  0  0  0  0  0
    7.2971  -19.2936   26.0815 C   0  0  0  0  0  0  0  0  0  0  0  0
    6.0862  -19.1531   26.3981 O   0  0  0  0  0  0  0  0  0  0  0  0
    7.7160  -18.7100   24.7922 C   0  0  0  0  0  0  0  0  0  0  0  0
    7.4783  -17.2457   24.6536 C   0  0  2  0  0  0  0  0  0  0  0  0
    7.9002  -16.6883   23.4073 N   0  0  0  0  0  0  0  0  0  0  0  0
    8.0857  -16.5376   25.8247 C   0  0  0  0  0  0  0  0  0  0  0  0
    7.7495  -16.8197   27.0008 O   0  0  0  0  0  0  0  0  0  0  0  0
    6.7041  -12.2736   26.6093 C   0  0  0  0  0  0  0  0  0  0  0  0
    7.8471  -13.1339   26.1075 C   0  0  0  0  0  0  0  0  0  0  0  0
    8.5394  -13.8483   27.2334 C   0  0  2  0  0  0  0  0  0  0  0  0
    8.9986  -12.9155   28.3166 C   0  0  0  0  0  0  0  0  0  0  0  0
    9.6279  -14.7887   26.7945 C   0  0  2  0  0  0  0  0  0  0  0  0
    9.0618  -15.5234   25.6470 N   0  0  0  0  0  0  0  0  0  0  0  0
   10.0951  -15.7143   27.8276 C   0  0  0  0  0  0  0  0  0  0  0  0
    9.8397  -17.0928   27.7734 O   0  0  0  0  0  0  0  0  0  0  0  0
   10.7517  -15.3255   28.8217 O   0  0  0  0  0  0  0  0  0  0  0  0
  2  3  1  0
  2  1  1  6
  4  5  1  0
  4  3  1  0
  6  7  1  0
  6  5  1  0
  8  2  1  0
  9  8  2  0
 10 11  1  0
 11 13  1  0
 12 11  2  0
 14 13  1  6
 14 15  1  0
 15  8  1  0
 16 14  1  0
 16 17  2  0
 18 19  1  0
 19 20  1  0
 20 22  1  0
 20 21  1  1
 22 23  1  6
 23 16  1  0
 24 22  1  0
 25 24  1  0
 26 24  2  0
M  END
$$$$
