KNI.pdb
     RDKit          3D

 26 25  0  0  1  0  0  0  0  0999 V2000
    8.1458  -16.7453   19.5356 N   0  0  0  0  0  0  0  0  0  0  0  0
    8.3800  -15.4052   19.9802 C   0  0  1  0  0  0  0  0  0  0  0  0
    7.9853  -14.3548   18.9866 C   0  0  0  0  0  0  0  0  0  0  0  0
    7.8945  -14.8080   17.5790 C   0  0  0  0  0  0  0  0  0  0  0  0
    8.1808  -13.7942   16.5238 C   0  0  0  0  0  0  0  0  0  0  0  0
    7.8489  -14.3926   15.1413 C   0  0  0  0  0  0  0  0  0  0  0  0
    8.2823  -13.4140   14.1631 N   0  0  0  0  0  0  0  0  0  0  0  0
    7.7146  -15.1226   21.2838 C   0  0  0  0  0  0  0  0  0  0  0  0
    7.8225  -13.9610   21.8052 O   0  0  0  0  0  0  0  0  0  0  0  0
    5.7012  -19.0390   22.6431 N   0  0  0  0  0  0  0  0  0  0  0  0
    7.0839  -19.0941   22.9053 C   0  0  0  0  0  0  0  0  0  0  0  0
    7.6468  -20.2170   22.8127 O   0  0  0  0  0  0  0  0  0  0  0  0
    7.9414  -17.9531   23.2808 C   0  0  0  0  0  0  0  0  0  0  0  0
    7.2784  -16.6198   23.2300 C   0  0  2  0  0  0  0  0  0  0  0  0
    6.9759  -16.1538   21.9134 N   0  0  0  0  0  0  0  0  0  0  0  0
    8.0983  -15.6349   24.0044 C   0  0  0  0  0  0  0  0  0  0  0  0
    9.2877  -15.3879   23.6880 O   0  0  0  0  0  0  0  0  0  0  0  0
    5.6931  -11.6554   27.3598 C   0  0  0  0  0  0  0  0  0  0  0  0
    6.2654  -12.9705   26.8689 C   0  0  0  0  0  0  0  0  0  0  0  0
    7.4922  -12.7618   26.0270 C   0  0  2  0  0  0  0  0  0  0  0  0
    7.1835  -12.1349   24.6981 C   0  0  0  0  0  0  0  0  0  0  0  0
    8.3656  -13.9786   25.8918 C   0  0  2  0  0  0  0  0  0  0  0  0
    7.5605  -14.9463   25.1223 N   0  0  0  0  0  0  0  0  0  0  0  0
    8.8104  -14.5607   27.1589 C   0  0  0  0  0  0  0  0  0  0  0  0
    8.3944  -15.8290   27.5910 O   0  0  0  0  0  0  0  0  0  0  0  0
    9.5908  -13.9564   27.9312 O   0  0  0  0  0  0  0  0  0  0  0  0
  2  3  1  0
  2  1  1  6
  4  5  1  0
  4  3  1  0
  6  7  1  0
  6  5  1  0
  8  2  1  0
  9  8  2  0
 10 11  1  0
 11 13  1  0
 12 11  2  0
 14 13  1  6
 14 15  1  0
 15  8  1  0
 16 14  1  0
 16 17  2  0
 18 19  1  0
 19 20  1  0
 20 22  1  0
 20 21  1  6
 22 23  1  1
 23 16  1  0
 24 22  1  0
 25 24  1  0
 26 24  2  0
M  END
$$$$
