KNI.pdb
     RDKit          3D

 26 25  0  0  1  0  0  0  0  0999 V2000
    8.6336  -17.4474   19.0180 N   0  0  0  0  0  0  0  0  0  0  0  0
    8.4881  -16.3484   19.9233 C   0  0  1  0  0  0  0  0  0  0  0  0
    7.9804  -15.0925   19.2820 C   0  0  0  0  0  0  0  0  0  0  0  0
    8.0075  -15.0748   17.8009 C   0  0  0  0  0  0  0  0  0  0  0  0
    7.6156  -13.8001   17.1339 C   0  0  0  0  0  0  0  0  0  0  0  0
    7.7685  -13.9581   15.6070 C   0  0  0  0  0  0  0  0  0  0  0  0
    7.4284  -12.6712   15.0319 N   0  0  0  0  0  0  0  0  0  0  0  0
    7.6206  -16.6911   21.0861 C   0  0  0  0  0  0  0  0  0  0  0  0
    6.6128  -17.4575   20.9135 O   0  0  0  0  0  0  0  0  0  0  0  0
   12.7192  -16.9404   23.3249 N   0  0  0  0  0  0  0  0  0  0  0  0
   11.3943  -17.4105   23.2397 C   0  0  0  0  0  0  0  0  0  0  0  0
   11.1030  -18.4446   23.8968 O   0  0  0  0  0  0  0  0  0  0  0  0
   10.3075  -16.8017   22.4479 C   0  0  0  0  0  0  0  0  0  0  0  0
    9.0058  -16.6658   23.1599 C   0  0  2  0  0  0  0  0  0  0  0  0
    7.9380  -16.1564   22.3585 N   0  0  0  0  0  0  0  0  0  0  0  0
    9.2106  -15.8624   24.4066 C   0  0  0  0  0  0  0  0  0  0  0  0
   10.1313  -16.1384   25.2140 O   0  0  0  0  0  0  0  0  0  0  0  0
    6.6736  -10.6681   26.7015 C   0  0  0  0  0  0  0  0  0  0  0  0
    7.7655  -11.7129   26.8213 C   0  0  0  0  0  0  0  0  0  0  0  0
    7.5973  -12.8096   25.8082 C   0  0  2  0  0  0  0  0  0  0  0  0
    6.2181  -13.4029   25.8197 C   0  0  0  0  0  0  0  0  0  0  0  0
    8.6694  -13.8633   25.8518 C   0  0  2  0  0  0  0  0  0  0  0  0
    8.3720  -14.7615   24.7196 N   0  0  0  0  0  0  0  0  0  0  0  0
    8.7451  -14.6129   27.1066 C   0  0  0  0  0  0  0  0  0  0  0  0
    9.4830  -14.1593   28.2102 O   0  0  0  0  0  0  0  0  0  0  0  0
    8.1525  -15.7057   27.2656 O   0  0  0  0  0  0  0  0  0  0  0  0
  2  3  1  0
  2  1  1  6
  4  5  1  0
  4  3  1  0
  6  7  1  0
  6  5  1  0
  8  2  1  0
  9  8  2  0
 10 11  1  0
 11 13  1  0
 12 11  2  0
 14 13  1  6
 14 15  1  0
 15  8  1  0
 16 14  1  0
 16 17  2  0
 18 19  1  0
 19 20  1  0
 20 22  1  0
 20 21  1  1
 22 23  1  6
 23 16  1  0
 24 22  1  0
 25 24  1  0
 26 24  2  0
M  END
$$$$
