KNI.pdb
     RDKit          3D

 26 25  0  0  1  0  0  0  0  0999 V2000
    8.1554  -18.4227   20.9060 N   0  0  0  0  0  0  0  0  0  0  0  0
    9.4861  -17.9737   20.6299 C   0  0  1  0  0  0  0  0  0  0  0  0
    9.9046  -18.1472   19.2013 C   0  0  0  0  0  0  0  0  0  0  0  0
    9.5683  -19.4545   18.5907 C   0  0  0  0  0  0  0  0  0  0  0  0
   10.0602  -19.6983   17.2043 C   0  0  0  0  0  0  0  0  0  0  0  0
    9.6032  -21.0973   16.7421 C   0  0  0  0  0  0  0  0  0  0  0  0
   10.0750  -21.2463   15.3792 N   0  0  0  0  0  0  0  0  0  0  0  0
    9.6936  -16.5537   21.0333 C   0  0  0  0  0  0  0  0  0  0  0  0
   10.8241  -15.9985   20.8179 O   0  0  0  0  0  0  0  0  0  0  0  0
    7.8254  -12.3698   19.3353 N   0  0  0  0  0  0  0  0  0  0  0  0
    7.4229  -13.4874   20.0921 C   0  0  0  0  0  0  0  0  0  0  0  0
    6.8955  -14.4479   19.4713 O   0  0  0  0  0  0  0  0  0  0  0  0
    7.5617  -13.6405   21.5534 C   0  0  0  0  0  0  0  0  0  0  0  0
    8.7174  -14.4704   21.9957 C   0  0  2  0  0  0  0  0  0  0  0  0
    8.6268  -15.8533   21.6473 N   0  0  0  0  0  0  0  0  0  0  0  0
    8.9315  -14.2697   23.4640 C   0  0  0  0  0  0  0  0  0  0  0  0
    9.6556  -13.3389   23.8941 O   0  0  0  0  0  0  0  0  0  0  0  0
    5.9042  -12.4832   27.1575 C   0  0  0  0  0  0  0  0  0  0  0  0
    6.4172  -13.6290   26.3077 C   0  0  0  0  0  0  0  0  0  0  0  0
    7.9142  -13.6005   26.1832 C   0  0  2  0  0  0  0  0  0  0  0  0
    8.3988  -12.5172   25.2633 C   0  0  0  0  0  0  0  0  0  0  0  0
    8.5355  -14.9333   25.8682 C   0  0  2  0  0  0  0  0  0  0  0  0
    8.3240  -15.1236   24.4205 N   0  0  0  0  0  0  0  0  0  0  0  0
    7.9923  -16.0604   26.6276 C   0  0  0  0  0  0  0  0  0  0  0  0
    8.3140  -16.2844   27.9747 O   0  0  0  0  0  0  0  0  0  0  0  0
    7.2067  -16.8913   26.1147 O   0  0  0  0  0  0  0  0  0  0  0  0
  2  3  1  0
  2  1  1  6
  4  5  1  0
  4  3  1  0
  6  7  1  0
  6  5  1  0
  8  2  1  0
  9  8  2  0
 10 11  1  0
 11 13  1  0
 12 11  2  0
 14 13  1  1
 14 15  1  0
 15  8  1  0
 16 14  1  0
 16 17  2  0
 18 19  1  0
 19 20  1  0
 20 22  1  0
 20 21  1  6
 22 23  1  6
 23 16  1  0
 24 22  1  0
 25 24  1  0
 26 24  2  0
M  END
$$$$
