KNI.pdb
     RDKit          3D

 26 25  0  0  1  0  0  0  0  0999 V2000
    6.8029  -17.6050   19.6113 N   0  0  0  0  0  0  0  0  0  0  0  0
    7.8225  -16.7764   20.1791 C   0  0  1  0  0  0  0  0  0  0  0  0
    7.7598  -15.3446   19.7406 C   0  0  0  0  0  0  0  0  0  0  0  0
    8.0895  -15.0966   18.3177 C   0  0  0  0  0  0  0  0  0  0  0  0
    7.9879  -13.6888   17.8368 C   0  0  0  0  0  0  0  0  0  0  0  0
    8.2368  -13.6529   16.3149 C   0  0  0  0  0  0  0  0  0  0  0  0
    8.1622  -12.2579   15.9263 N   0  0  0  0  0  0  0  0  0  0  0  0
    7.8267  -16.8339   21.6686 C   0  0  0  0  0  0  0  0  0  0  0  0
    6.7181  -16.7859   22.3021 O   0  0  0  0  0  0  0  0  0  0  0  0
    8.7388  -19.8815   23.1355 N   0  0  0  0  0  0  0  0  0  0  0  0
    9.8916  -19.4187   23.7992 C   0  0  0  0  0  0  0  0  0  0  0  0
   10.8116  -20.2521   24.0119 O   0  0  0  0  0  0  0  0  0  0  0  0
   10.1252  -18.0403   24.2723 C   0  0  0  0  0  0  0  0  0  0  0  0
    9.1560  -17.0263   23.7700 C   0  0  2  0  0  0  0  0  0  0  0  0
    9.0655  -16.9414   22.3464 N   0  0  0  0  0  0  0  0  0  0  0  0
    9.4630  -15.7018   24.3973 C   0  0  0  0  0  0  0  0  0  0  0  0
   10.4738  -15.0399   24.0569 O   0  0  0  0  0  0  0  0  0  0  0  0
    5.8003  -12.1608   27.0554 C   0  0  0  0  0  0  0  0  0  0  0  0
    6.6322  -13.3718   26.6818 C   0  0  0  0  0  0  0  0  0  0  0  0
    7.9204  -12.9764   26.0176 C   0  0  2  0  0  0  0  0  0  0  0  0
    7.7331  -12.5719   24.5838 C   0  0  0  0  0  0  0  0  0  0  0  0
    9.0356  -13.9711   26.1860 C   0  0  2  0  0  0  0  0  0  0  0  0
    8.6231  -15.1483   25.3980 N   0  0  0  0  0  0  0  0  0  0  0  0
    9.3226  -14.3452   27.5716 C   0  0  0  0  0  0  0  0  0  0  0  0
    9.9309  -13.4638   28.4779 O   0  0  0  0  0  0  0  0  0  0  0  0
    9.0398  -15.4779   28.0272 O   0  0  0  0  0  0  0  0  0  0  0  0
  2  3  1  0
  2  1  1  1
  4  5  1  0
  4  3  1  0
  6  7  1  0
  6  5  1  0
  8  2  1  0
  9  8  2  0
 10 11  1  0
 11 13  1  0
 12 11  2  0
 14 13  1  6
 14 15  1  0
 15  8  1  0
 16 14  1  0
 16 17  2  0
 18 19  1  0
 19 20  1  0
 20 22  1  0
 20 21  1  6
 22 23  1  6
 23 16  1  0
 24 22  1  0
 25 24  1  0
 26 24  2  0
M  END
$$$$
