KNI.pdb
     RDKit          3D

 26 25  0  0  1  0  0  0  0  0999 V2000
    9.3445  -19.1626   19.5625 N   0  0  0  0  0  0  0  0  0  0  0  0
    8.4068  -18.3525   20.2787 C   0  0  1  0  0  0  0  0  0  0  0  0
    7.8681  -18.9957   21.5207 C   0  0  0  0  0  0  0  0  0  0  0  0
    7.1753  -20.2900   21.3214 C   0  0  0  0  0  0  0  0  0  0  0  0
    6.6290  -20.9573   22.5379 C   0  0  0  0  0  0  0  0  0  0  0  0
    6.0311  -22.3233   22.1425 C   0  0  0  0  0  0  0  0  0  0  0  0
    5.5656  -22.9318   23.3735 N   0  0  0  0  0  0  0  0  0  0  0  0
    8.9689  -17.0154   20.6226 C   0  0  0  0  0  0  0  0  0  0  0  0
    9.9175  -16.5323   19.9159 O   0  0  0  0  0  0  0  0  0  0  0  0
    6.7791  -12.6268   19.8100 N   0  0  0  0  0  0  0  0  0  0  0  0
    7.2671  -13.7880   20.4401 C   0  0  0  0  0  0  0  0  0  0  0  0
    6.4514  -14.7274   20.6357 O   0  0  0  0  0  0  0  0  0  0  0  0
    8.6533  -14.0097   20.8958 C   0  0  0  0  0  0  0  0  0  0  0  0
    8.8012  -14.9638   22.0306 C   0  0  2  0  0  0  0  0  0  0  0  0
    8.4338  -16.3114   21.7287 N   0  0  0  0  0  0  0  0  0  0  0  0
    8.0646  -14.4293   23.2195 C   0  0  0  0  0  0  0  0  0  0  0  0
    7.5689  -13.2760   23.2127 O   0  0  0  0  0  0  0  0  0  0  0  0
    6.8894  -11.2093   25.1898 C   0  0  0  0  0  0  0  0  0  0  0  0
    7.8004  -12.3951   24.9407 C   0  0  0  0  0  0  0  0  0  0  0  0
    7.6078  -13.4692   25.9734 C   0  0  2  0  0  0  0  0  0  0  0  0
    7.8060  -12.9682   27.3749 C   0  0  0  0  0  0  0  0  0  0  0  0
    8.3810  -14.7312   25.7067 C   0  0  2  0  0  0  0  0  0  0  0  0
    7.9007  -15.2066   24.3952 N   0  0  0  0  0  0  0  0  0  0  0  0
    8.2315  -15.7714   26.7255 C   0  0  0  0  0  0  0  0  0  0  0  0
    7.4843  -16.9382   26.5050 O   0  0  0  0  0  0  0  0  0  0  0  0
    8.7648  -15.6774   27.8557 O   0  0  0  0  0  0  0  0  0  0  0  0
  2  3  1  0
  2  1  1  1
  4  5  1  0
  4  3  1  0
  6  7  1  0
  6  5  1  0
  8  2  1  0
  9  8  2  0
 10 11  1  0
 11 13  1  0
 12 11  2  0
 14 13  1  6
 14 15  1  0
 15  8  1  0
 16 14  1  0
 16 17  2  0
 18 19  1  0
 19 20  1  0
 20 22  1  0
 20 21  1  1
 22 23  1  6
 23 16  1  0
 24 22  1  0
 25 24  1  0
 26 24  2  0
M  END
$$$$
