QKR.pdb
     RDKit          3D

 30 29  0  0  1  0  0  0  0  0999 V2000
   12.1227  -25.8002   10.7016 N   0  0  0  0  0  0  0  0  0  0  0  0
   12.6875  -24.5204   10.3388 C   0  0  0  0  0  0  0  0  0  0  0  0
   13.4665  -24.5210    9.3658 O   0  0  0  0  0  0  0  0  0  0  0  0
   12.3531  -23.3028   11.0803 C   0  0  0  0  0  0  0  0  0  0  0  0
   13.1182  -22.1055   10.6697 C   0  0  0  0  0  0  0  0  0  0  0  0
   14.3271  -21.7986   11.4983 C   0  0  2  0  0  0  0  0  0  0  0  0
   15.3006  -22.8504   11.2778 N   0  0  0  0  0  0  0  0  0  0  0  0
   13.9461  -21.6946   12.9308 C   0  0  0  0  0  0  0  0  0  0  0  0
   13.1799  -20.7360   13.2375 O   0  0  0  0  0  0  0  0  0  0  0  0
   14.3612  -22.5585   13.9477 N   0  0  0  0  0  0  0  0  0  0  0  0
   13.9579  -22.4169   15.3353 C   0  0  1  0  0  0  0  0  0  0  0  0
   14.0020  -23.7419   16.0541 C   0  0  0  0  0  0  0  0  0  0  0  0
   13.3424  -23.7221   17.3932 C   0  0  0  0  0  0  0  0  0  0  0  0
   13.5186  -25.0901   18.0188 C   0  0  0  0  0  0  0  0  0  0  0  0
   12.9007  -25.1739   19.3843 C   0  0  0  0  0  0  0  0  0  0  0  0
   13.1290  -26.4663   19.9883 N   0  0  0  0  0  0  0  0  0  0  0  0
   14.7022  -21.3644   16.0370 C   0  0  0  0  0  0  0  0  0  0  0  0
   15.9252  -21.1864   15.8183 O   0  0  0  0  0  0  0  0  0  0  0  0
   10.9555  -14.8477   15.2719 N   0  0  0  0  0  0  0  0  0  0  0  0
   11.0787  -16.1998   14.8828 C   0  0  0  0  0  0  0  0  0  0  0  0
   10.1945  -16.7966   14.1222 N   0  0  0  0  0  0  0  0  0  0  0  0
   12.1774  -16.9996   15.2980 N   0  0  0  0  0  0  0  0  0  0  0  0
   13.4358  -16.4592   15.7193 C   0  0  0  0  0  0  0  0  0  0  0  0
   14.3552  -17.6133   16.1153 C   0  0  0  0  0  0  0  0  0  0  0  0
   14.0205  -18.1608   17.4679 C   0  0  0  0  0  0  0  0  0  0  0  0
   14.7065  -19.4601   17.7086 C   0  0  2  0  0  0  0  0  0  0  0  0
   14.0265  -20.5408   16.9728 N   0  0  0  0  0  0  0  0  0  0  0  0
   14.6157  -19.8372   19.1255 C   0  0  0  0  0  0  0  0  0  0  0  0
   15.4869  -19.4920   19.9404 O   0  0  0  0  0  0  0  0  0  0  0  0
   13.5612  -20.5873   19.6017 O   0  0  0  0  0  0  0  0  0  0  0  0
  1  2  1  0
  2  3  2  0
  4  5  1  0
  4  2  1  0
  6  7  1  1
  6  5  1  0
  8  6  1  0
  8 10  1  0
  9  8  2  0
 11 10  1  0
 11 12  1  1
 13 12  1  0
 13 14  1  0
 14 15  1  0
 15 16  1  0
 17 11  1  0
 18 17  2  0
 19 20  1  0
 20 21  2  0
 22 23  1  0
 22 20  1  0
 23 24  1  0
 25 24  1  0
 26 25  1  1
 26 27  1  0
 27 17  1  0
 28 26  1  0
 29 28  2  0
 30 28  1  0
M  END
$$$$
