QKR.pdb
     RDKit          3D

 30 29  0  0  1  0  0  0  0  0999 V2000
   12.0160  -15.6317   19.1953 N   0  0  0  0  0  0  0  0  0  0  0  0
   12.4494  -14.4796   18.4381 C   0  0  0  0  0  0  0  0  0  0  0  0
   13.4803  -14.6298   17.7537 O   0  0  0  0  0  0  0  0  0  0  0  0
   11.7091  -13.2171   18.4820 C   0  0  0  0  0  0  0  0  0  0  0  0
   10.4887  -13.2508   19.3168 C   0  0  0  0  0  0  0  0  0  0  0  0
    9.3123  -13.9505   18.7092 C   0  0  2  0  0  0  0  0  0  0  0  0
    8.5201  -12.9636   18.0015 N   0  0  0  0  0  0  0  0  0  0  0  0
    8.5238  -14.6296   19.7700 C   0  0  0  0  0  0  0  0  0  0  0  0
    8.3430  -13.9758   20.8375 O   0  0  0  0  0  0  0  0  0  0  0  0
    7.9762  -15.9121   19.6811 N   0  0  0  0  0  0  0  0  0  0  0  0
    7.3722  -16.6063   20.8044 C   0  0  1  0  0  0  0  0  0  0  0  0
    6.7163  -17.8906   20.3631 C   0  0  0  0  0  0  0  0  0  0  0  0
    6.1498  -18.6937   21.4868 C   0  0  0  0  0  0  0  0  0  0  0  0
    5.4811  -19.9164   20.8937 C   0  0  0  0  0  0  0  0  0  0  0  0
    4.7684  -20.7335   21.9318 C   0  0  0  0  0  0  0  0  0  0  0  0
    4.2948  -21.9842   21.3852 N   0  0  0  0  0  0  0  0  0  0  0  0
    8.3063  -16.7989   21.9199 C   0  0  0  0  0  0  0  0  0  0  0  0
    9.3892  -17.4112   21.7539 O   0  0  0  0  0  0  0  0  0  0  0  0
    9.9830  -13.3589   29.2001 N   0  0  0  0  0  0  0  0  0  0  0  0
   10.1407  -14.6907   29.6430 C   0  0  0  0  0  0  0  0  0  0  0  0
   11.0547  -15.0391   30.5146 N   0  0  0  0  0  0  0  0  0  0  0  0
    9.3110  -15.7403   29.1642 N   0  0  0  0  0  0  0  0  0  0  0  0
    8.3960  -15.5910   28.0718 C   0  0  0  0  0  0  0  0  0  0  0  0
    9.0780  -16.0755   26.7934 C   0  0  0  0  0  0  0  0  0  0  0  0
    8.1740  -15.9835   25.6037 C   0  0  0  0  0  0  0  0  0  0  0  0
    8.8623  -16.4443   24.3665 C   0  0  2  0  0  0  0  0  0  0  0  0
    7.9765  -16.2847   23.1996 N   0  0  0  0  0  0  0  0  0  0  0  0
    9.1513  -17.8826   24.4416 C   0  0  0  0  0  0  0  0  0  0  0  0
   10.3189  -18.3025   24.4942 O   0  0  0  0  0  0  0  0  0  0  0  0
    8.1380  -18.8178   24.4566 O   0  0  0  0  0  0  0  0  0  0  0  0
  1  2  1  0
  2  3  2  0
  4  5  1  0
  4  2  1  0
  6  7  1  1
  6  5  1  0
  8  6  1  0
  8 10  1  0
  9  8  2  0
 11 10  1  0
 11 12  1  6
 13 12  1  0
 13 14  1  0
 14 15  1  0
 15 16  1  0
 17 11  1  0
 18 17  2  0
 19 20  1  0
 20 21  2  0
 22 23  1  0
 22 20  1  0
 23 24  1  0
 25 24  1  0
 26 25  1  1
 26 27  1  0
 27 17  1  0
 28 26  1  0
 29 28  2  0
 30 28  1  0
M  END
$$$$
