QKR.pdb
     RDKit          3D

 30 29  0  0  1  0  0  0  0  0999 V2000
    7.0198  -13.8876   15.3385 N   0  0  0  0  0  0  0  0  0  0  0  0
    8.2419  -13.7028   16.0873 C   0  0  0  0  0  0  0  0  0  0  0  0
    9.2028  -14.4237   15.7546 O   0  0  0  0  0  0  0  0  0  0  0  0
    8.3306  -12.7210   17.1699 C   0  0  0  0  0  0  0  0  0  0  0  0
    7.8651  -13.2141   18.4843 C   0  0  0  0  0  0  0  0  0  0  0  0
    8.9032  -13.8966   19.3203 C   0  0  2  0  0  0  0  0  0  0  0  0
    9.7889  -14.6225   18.4309 N   0  0  0  0  0  0  0  0  0  0  0  0
    8.2491  -14.8004   20.3018 C   0  0  0  0  0  0  0  0  0  0  0  0
    7.4117  -14.2645   21.0838 O   0  0  0  0  0  0  0  0  0  0  0  0
    8.4831  -16.1724   20.4257 N   0  0  0  0  0  0  0  0  0  0  0  0
    7.9680  -16.9789   21.5178 C   0  0  1  0  0  0  0  0  0  0  0  0
    7.7418  -18.4052   21.0830 C   0  0  0  0  0  0  0  0  0  0  0  0
    6.6842  -18.5556   20.0403 C   0  0  0  0  0  0  0  0  0  0  0  0
    6.7148  -19.9884   19.5502 C   0  0  0  0  0  0  0  0  0  0  0  0
    5.7284  -20.2316   18.4451 C   0  0  0  0  0  0  0  0  0  0  0  0
    4.9392  -21.4160   18.6936 N   0  0  0  0  0  0  0  0  0  0  0  0
    8.7863  -16.8775   22.7319 C   0  0  0  0  0  0  0  0  0  0  0  0
   10.0238  -17.0833   22.6927 O   0  0  0  0  0  0  0  0  0  0  0  0
   10.5042  -16.0124   29.4620 N   0  0  0  0  0  0  0  0  0  0  0  0
   10.4347  -14.6549   29.8458 C   0  0  0  0  0  0  0  0  0  0  0  0
   10.9942  -14.2037   30.9411 N   0  0  0  0  0  0  0  0  0  0  0  0
    9.7471  -13.6908   29.0604 N   0  0  0  0  0  0  0  0  0  0  0  0
    9.4955  -13.8452   27.6583 C   0  0  0  0  0  0  0  0  0  0  0  0
    8.9866  -15.2635   27.4064 C   0  0  0  0  0  0  0  0  0  0  0  0
    8.2738  -15.3812   26.0953 C   0  0  0  0  0  0  0  0  0  0  0  0
    8.9290  -16.3863   25.2136 C   0  0  2  0  0  0  0  0  0  0  0  0
    8.1664  -16.5424   23.9623 N   0  0  0  0  0  0  0  0  0  0  0  0
    8.9167  -17.7128   25.8447 C   0  0  0  0  0  0  0  0  0  0  0  0
    8.0104  -18.5288   25.6099 O   0  0  0  0  0  0  0  0  0  0  0  0
    9.9097  -18.0998   26.7197 O   0  0  0  0  0  0  0  0  0  0  0  0
  1  2  1  0
  2  3  2  0
  4  5  1  0
  4  2  1  0
  6  7  1  6
  6  5  1  0
  8  6  1  0
  8 10  1  0
  9  8  2  0
 11 10  1  0
 11 12  1  6
 13 12  1  0
 13 14  1  0
 14 15  1  0
 15 16  1  0
 17 11  1  0
 18 17  2  0
 19 20  1  0
 20 21  2  0
 22 23  1  0
 22 20  1  0
 23 24  1  0
 25 24  1  0
 26 25  1  1
 26 27  1  0
 27 17  1  0
 28 26  1  0
 29 28  2  0
 30 28  1  0
M  END
$$$$
