QKR.pdb
     RDKit          3D

 30 29  0  0  1  0  0  0  0  0999 V2000
   13.5444  -13.9518   19.4148 N   0  0  0  0  0  0  0  0  0  0  0  0
   13.0940  -13.9907   18.0422 C   0  0  0  0  0  0  0  0  0  0  0  0
   13.9867  -14.0420   17.1738 O   0  0  0  0  0  0  0  0  0  0  0  0
   11.6687  -13.9716   17.7076 C   0  0  0  0  0  0  0  0  0  0  0  0
   10.7732  -14.3640   18.8174 C   0  0  0  0  0  0  0  0  0  0  0  0
    9.3163  -14.4281   18.4771 C   0  0  2  0  0  0  0  0  0  0  0  0
    8.9023  -13.1126   18.0292 N   0  0  0  0  0  0  0  0  0  0  0  0
    8.5388  -14.8747   19.6620 C   0  0  0  0  0  0  0  0  0  0  0  0
    8.3631  -14.0143   20.5723 O   0  0  0  0  0  0  0  0  0  0  0  0
    7.9960  -16.1493   19.8453 N   0  0  0  0  0  0  0  0  0  0  0  0
    7.4025  -16.5968   21.0927 C   0  0  1  0  0  0  0  0  0  0  0  0
    6.7372  -17.9403   20.9290 C   0  0  0  0  0  0  0  0  0  0  0  0
    6.1693  -18.4886   22.1960 C   0  0  0  0  0  0  0  0  0  0  0  0
    5.4584  -19.7843   21.8646 C   0  0  0  0  0  0  0  0  0  0  0  0
    4.6655  -20.3100   23.0258 C   0  0  0  0  0  0  0  0  0  0  0  0
    4.0758  -21.5939   22.7240 N   0  0  0  0  0  0  0  0  0  0  0  0
    8.3488  -16.5638   22.2141 C   0  0  0  0  0  0  0  0  0  0  0  0
    9.4882  -17.0795   22.1099 O   0  0  0  0  0  0  0  0  0  0  0  0
    9.9375  -16.1442   29.5637 N   0  0  0  0  0  0  0  0  0  0  0  0
   10.2979  -14.7790   29.5951 C   0  0  0  0  0  0  0  0  0  0  0  0
   11.3711  -14.3484   30.2107 N   0  0  0  0  0  0  0  0  0  0  0  0
    9.5103  -13.7836   28.9562 N   0  0  0  0  0  0  0  0  0  0  0  0
    8.5124  -14.0753   27.9702 C   0  0  0  0  0  0  0  0  0  0  0  0
    9.1676  -14.8451   26.8248 C   0  0  0  0  0  0  0  0  0  0  0  0
    8.2402  -15.0229   25.6632 C   0  0  0  0  0  0  0  0  0  0  0  0
    8.8974  -15.7744   24.5586 C   0  0  2  0  0  0  0  0  0  0  0  0
    7.9660  -15.9401   23.4287 N   0  0  0  0  0  0  0  0  0  0  0  0
    9.2323  -17.1382   24.9897 C   0  0  0  0  0  0  0  0  0  0  0  0
    8.3625  -18.0215   25.0642 O   0  0  0  0  0  0  0  0  0  0  0  0
   10.5231  -17.4870   25.3269 O   0  0  0  0  0  0  0  0  0  0  0  0
  1  2  1  0
  2  3  2  0
  4  5  1  0
  4  2  1  0
  6  7  1  1
  6  5  1  0
  8  6  1  0
  8 10  1  0
  9  8  2  0
 11 10  1  0
 11 12  1  6
 13 12  1  0
 13 14  1  0
 14 15  1  0
 15 16  1  0
 17 11  1  0
 18 17  2  0
 19 20  1  0
 20 21  2  0
 22 23  1  0
 22 20  1  0
 23 24  1  0
 25 24  1  0
 26 25  1  1
 26 27  1  0
 27 17  1  0
 28 26  1  0
 29 28  2  0
 30 28  1  0
M  END
$$$$
