QKR.pdb
     RDKit          3D

 30 29  0  0  1  0  0  0  0  0999 V2000
    9.3253  -18.8118   14.5874 N   0  0  0  0  0  0  0  0  0  0  0  0
    7.9411  -18.3971   14.5772 C   0  0  0  0  0  0  0  0  0  0  0  0
    7.5394  -17.8537   13.5298 O   0  0  0  0  0  0  0  0  0  0  0  0
    7.0735  -18.6110   15.7372 C   0  0  0  0  0  0  0  0  0  0  0  0
    7.7501  -19.2148   16.9056 C   0  0  0  0  0  0  0  0  0  0  0  0
    7.0738  -20.4156   17.4915 C   0  0  2  0  0  0  0  0  0  0  0  0
    5.9718  -20.7784   16.6218 N   0  0  0  0  0  0  0  0  0  0  0  0
    6.6089  -20.1127   18.8699 C   0  0  0  0  0  0  0  0  0  0  0  0
    7.3346  -19.3267   19.5448 O   0  0  0  0  0  0  0  0  0  0  0  0
    5.4523  -20.6199   19.4680 N   0  0  0  0  0  0  0  0  0  0  0  0
    5.0912  -20.3743   20.8528 C   0  0  1  0  0  0  0  0  0  0  0  0
    3.6799  -20.8238   21.1365 C   0  0  0  0  0  0  0  0  0  0  0  0
    2.6542  -20.1651   20.2747 C   0  0  0  0  0  0  0  0  0  0  0  0
    1.3029  -20.7492   20.6309 C   0  0  0  0  0  0  0  0  0  0  0  0
    0.2122  -20.2475   19.7298 C   0  0  0  0  0  0  0  0  0  0  0  0
   -1.0638  -20.8345   20.0686 N   0  0  0  0  0  0  0  0  0  0  0  0
    6.0659  -20.9296   21.7993 C   0  0  0  0  0  0  0  0  0  0  0  0
    6.4594  -22.1168   21.6953 O   0  0  0  0  0  0  0  0  0  0  0  0
   14.1930  -23.3920   24.2165 N   0  0  0  0  0  0  0  0  0  0  0  0
   13.4916  -22.2746   23.7122 C   0  0  0  0  0  0  0  0  0  0  0  0
   14.0183  -21.4459   22.8448 N   0  0  0  0  0  0  0  0  0  0  0  0
   12.1627  -21.9803   24.1203 N   0  0  0  0  0  0  0  0  0  0  0  0
   11.3846  -20.9093   23.5721 C   0  0  0  0  0  0  0  0  0  0  0  0
    9.9821  -20.9657   24.1752 C   0  0  0  0  0  0  0  0  0  0  0  0
    8.9422  -20.4481   23.2309 C   0  0  0  0  0  0  0  0  0  0  0  0
    7.5755  -20.5865   23.8053 C   0  0  2  0  0  0  0  0  0  0  0  0
    6.5663  -20.1102   22.8428 N   0  0  0  0  0  0  0  0  0  0  0  0
    7.4225  -19.7269   24.9867 C   0  0  0  0  0  0  0  0  0  0  0  0
    8.1070  -19.9075   26.0070 O   0  0  0  0  0  0  0  0  0  0  0  0
    6.5143  -18.6893   25.0058 O   0  0  0  0  0  0  0  0  0  0  0  0
  1  2  1  0
  2  3  2  0
  4  5  1  0
  4  2  1  0
  6  7  1  6
  6  5  1  0
  8  6  1  0
  8 10  1  0
  9  8  2  0
 11 10  1  0
 11 12  1  1
 13 12  1  0
 13 14  1  0
 14 15  1  0
 15 16  1  0
 17 11  1  0
 18 17  2  0
 19 20  1  0
 20 21  2  0
 22 23  1  0
 22 20  1  0
 23 24  1  0
 25 24  1  0
 26 25  1  6
 26 27  1  0
 27 17  1  0
 28 26  1  0
 29 28  2  0
 30 28  1  0
M  END
$$$$
