QKR.pdb
     RDKit          3D

 30 29  0  0  1  0  0  0  0  0999 V2000
    8.8069  -17.3006   12.7723 N   0  0  0  0  0  0  0  0  0  0  0  0
    9.6072  -16.9129   13.9114 C   0  0  0  0  0  0  0  0  0  0  0  0
   10.7160  -16.4045   13.6547 O   0  0  0  0  0  0  0  0  0  0  0  0
    9.1288  -17.1112   15.2810 C   0  0  0  0  0  0  0  0  0  0  0  0
   10.1880  -17.0694   16.3124 C   0  0  0  0  0  0  0  0  0  0  0  0
    9.9013  -17.8442   17.5614 C   0  0  2  0  0  0  0  0  0  0  0  0
    8.5008  -18.2195   17.5445 N   0  0  0  0  0  0  0  0  0  0  0  0
   10.2356  -17.0236   18.7542 C   0  0  0  0  0  0  0  0  0  0  0  0
   11.4277  -16.6077   18.8306 O   0  0  0  0  0  0  0  0  0  0  0  0
    9.3507  -16.6818   19.7802 N   0  0  0  0  0  0  0  0  0  0  0  0
    9.7485  -15.9597   20.9756 C   0  0  1  0  0  0  0  0  0  0  0  0
    8.5587  -15.3245   21.6503 C   0  0  0  0  0  0  0  0  0  0  0  0
    8.2732  -13.9356   21.1835 C   0  0  0  0  0  0  0  0  0  0  0  0
    7.5434  -14.0307   19.8597 C   0  0  0  0  0  0  0  0  0  0  0  0
    7.1573  -12.6817   19.3261 C   0  0  0  0  0  0  0  0  0  0  0  0
    6.6036  -12.7796   17.9952 N   0  0  0  0  0  0  0  0  0  0  0  0
   10.5512  -16.7789   21.8914 C   0  0  0  0  0  0  0  0  0  0  0  0
   10.1616  -17.9184   22.2447 O   0  0  0  0  0  0  0  0  0  0  0  0
   16.4362  -21.5143   19.0113 N   0  0  0  0  0  0  0  0  0  0  0  0
   16.7692  -21.3872   20.3779 C   0  0  0  0  0  0  0  0  0  0  0  0
   17.6590  -22.1528   20.9597 N   0  0  0  0  0  0  0  0  0  0  0  0
   16.1527  -20.4138   21.2097 N   0  0  0  0  0  0  0  0  0  0  0  0
   15.1301  -19.5182   20.7567 C   0  0  0  0  0  0  0  0  0  0  0  0
   14.5825  -18.7530   21.9602 C   0  0  0  0  0  0  0  0  0  0  0  0
   13.4757  -17.8203   21.5780 C   0  0  0  0  0  0  0  0  0  0  0  0
   12.8964  -17.1514   22.7755 C   0  0  2  0  0  0  0  0  0  0  0  0
   11.7819  -16.2720   22.3803 N   0  0  0  0  0  0  0  0  0  0  0  0
   13.8871  -16.2661   23.4022 C   0  0  0  0  0  0  0  0  0  0  0  0
   14.7312  -16.7071   24.1992 O   0  0  0  0  0  0  0  0  0  0  0  0
   13.9160  -14.9148   23.1286 O   0  0  0  0  0  0  0  0  0  0  0  0
  1  2  1  0
  2  3  2  0
  4  5  1  0
  4  2  1  0
  6  7  1  1
  6  5  1  0
  8  6  1  0
  8 10  1  0
  9  8  2  0
 11 10  1  0
 11 12  1  1
 13 12  1  0
 13 14  1  0
 14 15  1  0
 15 16  1  0
 17 11  1  0
 18 17  2  0
 19 20  1  0
 20 21  2  0
 22 23  1  0
 22 20  1  0
 23 24  1  0
 25 24  1  0
 26 25  1  6
 26 27  1  0
 27 17  1  0
 28 26  1  0
 29 28  2  0
 30 28  1  0
M  END
$$$$
