QKR.pdb
     RDKit          3D

 30 29  0  0  1  0  0  0  0  0999 V2000
   14.3123  -13.3439   18.8899 N   0  0  0  0  0  0  0  0  0  0  0  0
   13.5644  -14.4533   18.3438 C   0  0  0  0  0  0  0  0  0  0  0  0
   14.1781  -15.5341   18.2486 O   0  0  0  0  0  0  0  0  0  0  0  0
   12.1675  -14.3009   17.9323 C   0  0  0  0  0  0  0  0  0  0  0  0
   11.2021  -14.2397   19.0510 C   0  0  0  0  0  0  0  0  0  0  0  0
    9.7593  -14.3392   18.6625 C   0  0  2  0  0  0  0  0  0  0  0  0
    9.2763  -13.0004   18.3852 N   0  0  0  0  0  0  0  0  0  0  0  0
    8.9850  -14.9877   19.7524 C   0  0  0  0  0  0  0  0  0  0  0  0
    8.8031  -14.2972   20.7964 O   0  0  0  0  0  0  0  0  0  0  0  0
    8.4514  -16.2786   19.7141 N   0  0  0  0  0  0  0  0  0  0  0  0
    7.6313  -16.8396   20.7729 C   0  0  1  0  0  0  0  0  0  0  0  0
    6.6889  -17.8873   20.2358 C   0  0  0  0  0  0  0  0  0  0  0  0
    5.9123  -18.5974   21.2948 C   0  0  0  0  0  0  0  0  0  0  0  0
    4.9467  -19.5416   20.6091 C   0  0  0  0  0  0  0  0  0  0  0  0
    3.9632  -20.1441   21.5699 C   0  0  0  0  0  0  0  0  0  0  0  0
    3.1269  -21.1276   20.9213 N   0  0  0  0  0  0  0  0  0  0  0  0
    8.4251  -17.3185   21.9108 C   0  0  0  0  0  0  0  0  0  0  0  0
    9.4400  -18.0346   21.7313 O   0  0  0  0  0  0  0  0  0  0  0  0
    9.8378  -15.9696   30.1824 N   0  0  0  0  0  0  0  0  0  0  0  0
    9.8073  -14.6938   29.5771 C   0  0  0  0  0  0  0  0  0  0  0  0
   10.1958  -13.6093   30.2011 N   0  0  0  0  0  0  0  0  0  0  0  0
    9.3485  -14.5098   28.2449 N   0  0  0  0  0  0  0  0  0  0  0  0
    8.3954  -15.3705   27.6095 C   0  0  0  0  0  0  0  0  0  0  0  0
    9.0524  -16.0091   26.3870 C   0  0  0  0  0  0  0  0  0  0  0  0
    8.1163  -16.9212   25.6570 C   0  0  0  0  0  0  0  0  0  0  0  0
    8.7451  -17.4617   24.4203 C   0  0  2  0  0  0  0  0  0  0  0  0
    8.0363  -16.9647   23.2277 N   0  0  0  0  0  0  0  0  0  0  0  0
    8.6125  -18.9239   24.3703 C   0  0  0  0  0  0  0  0  0  0  0  0
    7.5940  -19.4622   23.9065 O   0  0  0  0  0  0  0  0  0  0  0  0
    9.6128  -19.7510   24.8360 O   0  0  0  0  0  0  0  0  0  0  0  0
  1  2  1  0
  2  3  2  0
  4  5  1  0
  4  2  1  0
  6  7  1  1
  6  5  1  0
  8  6  1  0
  8 10  1  0
  9  8  2  0
 11 10  1  0
 11 12  1  6
 13 12  1  0
 13 14  1  0
 14 15  1  0
 15 16  1  0
 17 11  1  0
 18 17  2  0
 19 20  1  0
 20 21  2  0
 22 23  1  0
 22 20  1  0
 23 24  1  0
 25 24  1  0
 26 25  1  1
 26 27  1  0
 27 17  1  0
 28 26  1  0
 29 28  2  0
 30 28  1  0
M  END
$$$$
