QKR.pdb
     RDKit          3D

 30 29  0  0  1  0  0  0  0  0999 V2000
    8.7741  -11.9088   18.9265 N   0  0  0  0  0  0  0  0  0  0  0  0
    8.1475  -13.1678   18.5938 C   0  0  0  0  0  0  0  0  0  0  0  0
    7.0565  -13.0958   17.9953 O   0  0  0  0  0  0  0  0  0  0  0  0
    8.7714  -14.4451   18.9449 C   0  0  0  0  0  0  0  0  0  0  0  0
   10.0457  -14.3218   19.6854 C   0  0  0  0  0  0  0  0  0  0  0  0
   10.6421  -15.6110   20.1594 C   0  0  2  0  0  0  0  0  0  0  0  0
   10.4118  -16.6139   19.1378 N   0  0  0  0  0  0  0  0  0  0  0  0
   10.0364  -16.0016   21.4589 C   0  0  0  0  0  0  0  0  0  0  0  0
    9.1038  -15.2615   21.8861 O   0  0  0  0  0  0  0  0  0  0  0  0
   10.4106  -17.1037   22.2321 N   0  0  0  0  0  0  0  0  0  0  0  0
    9.7441  -17.4822   23.4653 C   0  0  1  0  0  0  0  0  0  0  0  0
    9.4287  -18.9568   23.4845 C   0  0  0  0  0  0  0  0  0  0  0  0
    8.3571  -19.3552   22.5245 C   0  0  0  0  0  0  0  0  0  0  0  0
    8.3159  -20.8685   22.4753 C   0  0  0  0  0  0  0  0  0  0  0  0
    7.2895  -21.3772   21.5053 C   0  0  0  0  0  0  0  0  0  0  0  0
    7.2380  -22.8211   21.5006 N   0  0  0  0  0  0  0  0  0  0  0  0
   10.4718  -17.0408   24.6610 C   0  0  0  0  0  0  0  0  0  0  0  0
   11.7222  -17.1297   24.7226 O   0  0  0  0  0  0  0  0  0  0  0  0
    6.7240  -13.0170   25.0911 N   0  0  0  0  0  0  0  0  0  0  0  0
    6.3282  -12.7310   26.4164 C   0  0  0  0  0  0  0  0  0  0  0  0
    5.1967  -12.1344   26.6998 N   0  0  0  0  0  0  0  0  0  0  0  0
    7.1413  -13.0754   27.5297 N   0  0  0  0  0  0  0  0  0  0  0  0
    8.5242  -12.7175   27.6413 C   0  0  0  0  0  0  0  0  0  0  0  0
    9.3590  -13.7518   26.8882 C   0  0  0  0  0  0  0  0  0  0  0  0
    9.5200  -15.0201   27.6670 C   0  0  0  0  0  0  0  0  0  0  0  0
   10.4153  -15.9770   26.9601 C   0  0  2  0  0  0  0  0  0  0  0  0
    9.7484  -16.5078   25.7580 N   0  0  0  0  0  0  0  0  0  0  0  0
   10.6875  -17.1487   27.8033 C   0  0  0  0  0  0  0  0  0  0  0  0
   10.0878  -18.2218   27.6269 O   0  0  0  0  0  0  0  0  0  0  0  0
   11.6177  -17.0999   28.8202 O   0  0  0  0  0  0  0  0  0  0  0  0
  1  2  1  0
  2  3  2  0
  4  5  1  0
  4  2  1  0
  6  7  1  6
  6  5  1  0
  8  6  1  0
  8 10  1  0
  9  8  2  0
 11 10  1  0
 11 12  1  1
 13 12  1  0
 13 14  1  0
 14 15  1  0
 15 16  1  0
 17 11  1  0
 18 17  2  0
 19 20  1  0
 20 21  2  0
 22 23  1  0
 22 20  1  0
 23 24  1  0
 25 24  1  0
 26 25  1  1
 26 27  1  0
 27 17  1  0
 28 26  1  0
 29 28  2  0
 30 28  1  0
M  END
$$$$
