FRK.pdb
     RDKit          3D

 32 32  0  0  1  0  0  0  0  0999 V2000
   27.0232  -18.0588  -18.2342 N   0  0  0  0  0  0  0  0  0  0  0  0
   26.7850  -17.7170  -16.8569 C   0  0  1  0  0  0  0  0  0  0  0  0
   25.9547  -16.4393  -16.8249 C   0  0  0  0  0  0  0  0  0  0  0  0
   26.7777  -15.2196  -16.9781 C   0  0  0  0  0  0  0  0  0  0  0  0
   27.1113  -14.6851  -18.2121 C   0  0  0  0  0  0  0  0  0  0  0  0
   27.8837  -13.5551  -18.3104 C   0  0  0  0  0  0  0  0  0  0  0  0
   28.3676  -12.8930  -17.1788 C   0  0  0  0  0  0  0  0  0  0  0  0
   28.0315  -13.4293  -15.9594 C   0  0  0  0  0  0  0  0  0  0  0  0
   27.2679  -14.5468  -15.8594 C   0  0  0  0  0  0  0  0  0  0  0  0
   26.0558  -18.8217  -16.1885 C   0  0  0  0  0  0  0  0  0  0  0  0
   25.2205  -19.4885  -16.8458 O   0  0  0  0  0  0  0  0  0  0  0  0
   26.5162  -20.8408   -8.9534 N   0  0  0  0  0  0  0  0  0  0  0  0
   25.1425  -21.0811   -8.7035 C   0  0  0  0  0  0  0  0  0  0  0  0
   24.7086  -21.1131   -7.4729 N   0  0  0  0  0  0  0  0  0  0  0  0
   24.2340  -21.2930   -9.7812 N   0  0  0  0  0  0  0  0  0  0  0  0
   24.4374  -20.6342  -11.0357 C   0  0  0  0  0  0  0  0  0  0  0  0
   25.1665  -21.5315  -12.0460 C   0  0  0  0  0  0  0  0  0  0  0  0
   26.0520  -20.6042  -12.8309 C   0  0  0  0  0  0  0  0  0  0  0  0
   25.4717  -20.0888  -14.1026 C   0  0  2  0  0  0  0  0  0  0  0  0
   26.2691  -19.1545  -14.8241 N   0  0  0  0  0  0  0  0  0  0  0  0
   24.0624  -19.6048  -13.9295 C   0  0  0  0  0  0  0  0  0  0  0  0
   23.8083  -18.5597  -13.2672 O   0  0  0  0  0  0  0  0  0  0  0  0
   23.7141  -21.3427   -7.2956 N   0  0  0  0  0  0  0  0  0  0  0  0
   22.9455  -20.2782  -14.4877 C   0  0  1  0  0  0  0  0  0  0  0  0
   21.5639  -19.8321  -14.2930 C   0  0  0  0  0  0  0  0  0  0  0  0
   20.9455  -19.3627  -15.5579 C   0  0  0  0  0  0  0  0  0  0  0  0
   19.5456  -18.8595  -15.4703 C   0  0  0  0  0  0  0  0  0  0  0  0
   19.0875  -18.3962  -16.8633 C   0  0  0  0  0  0  0  0  0  0  0  0
   17.7072  -17.7637  -16.7691 N   0  0  0  0  0  0  0  0  0  0  0  0
   17.1973  -17.3325  -18.0448 C   0  0  0  0  0  0  0  0  0  0  0  0
   20.7899  -20.8264  -13.5267 O   0  0  0  0  0  0  0  0  0  0  0  0
   20.9838  -22.0354  -13.6194 O   0  0  0  0  0  0  0  0  0  0  0  0
  2  1  1  6
  2  3  1  0
  3  4  1  0
  4  5  2  0
  5  6  1  0
  7  6  2  0
  8  7  1  0
  9  4  1  0
  9  8  2  0
 10  2  1  0
 11 10  2  0
 13 15  1  0
 13 12  1  0
 14 13  2  0
 16 17  1  0
 16 15  1  0
 17 18  1  0
 19 18  1  1
 19 21  1  0
 19 20  1  0
 20 10  1  0
 21 23  1  0
 22 21  2  0
 23 24  1  0
 24 25  1  6
 24 30  1  0
 25 26  1  0
 27 26  1  0
 28 27  1  0
 29 28  1  0
 30 31  2  0
 30 32  1  0
M  END
$$$$
