FRK.pdb
     RDKit          3D

 32 32  0  0  1  0  0  0  0  0999 V2000
   25.0479  -18.3154  -19.6087 N   0  0  0  0  0  0  0  0  0  0  0  0
   24.3344  -17.7401  -18.4994 C   0  0  1  0  0  0  0  0  0  0  0  0
   23.0920  -17.0472  -19.0461 C   0  0  0  0  0  0  0  0  0  0  0  0
   23.4146  -15.8511  -19.8547 C   0  0  0  0  0  0  0  0  0  0  0  0
   23.8659  -14.6647  -19.2994 C   0  0  0  0  0  0  0  0  0  0  0  0
   24.1471  -13.5753  -20.0852 C   0  0  0  0  0  0  0  0  0  0  0  0
   23.9934  -13.6095  -21.4738 C   0  0  0  0  0  0  0  0  0  0  0  0
   23.5462  -14.7900  -22.0161 C   0  0  0  0  0  0  0  0  0  0  0  0
   23.2673  -15.8687  -21.2413 C   0  0  0  0  0  0  0  0  0  0  0  0
   23.9504  -18.8089  -17.5460 C   0  0  0  0  0  0  0  0  0  0  0  0
   23.5802  -19.9218  -17.9920 O   0  0  0  0  0  0  0  0  0  0  0  0
   27.0309  -21.2761  -17.3746 N   0  0  0  0  0  0  0  0  0  0  0  0
   27.7688  -22.0408  -16.4376 C   0  0  0  0  0  0  0  0  0  0  0  0
   28.9196  -22.5489  -16.7860 N   0  0  0  0  0  0  0  0  0  0  0  0
   27.2642  -22.2639  -15.1233 N   0  0  0  0  0  0  0  0  0  0  0  0
   25.9922  -21.7312  -14.7393 C   0  0  0  0  0  0  0  0  0  0  0  0
   26.0476  -20.2135  -14.5143 C   0  0  0  0  0  0  0  0  0  0  0  0
   24.6590  -19.8265  -14.0873 C   0  0  0  0  0  0  0  0  0  0  0  0
   23.6785  -19.6382  -15.1931 C   0  0  2  0  0  0  0  0  0  0  0  0
   23.9861  -18.6182  -16.1388 N   0  0  0  0  0  0  0  0  0  0  0  0
   22.2693  -19.5286  -14.6910 C   0  0  0  0  0  0  0  0  0  0  0  0
   21.8032  -18.4248  -14.2911 O   0  0  0  0  0  0  0  0  0  0  0  0
   29.3585  -23.2643  -16.1789 N   0  0  0  0  0  0  0  0  0  0  0  0
   21.3864  -20.6376  -14.6334 C   0  0  2  0  0  0  0  0  0  0  0  0
   20.0459  -20.5627  -14.0476 C   0  0  0  0  0  0  0  0  0  0  0  0
   19.2918  -21.8299  -14.2157 C   0  0  0  0  0  0  0  0  0  0  0  0
   17.9019  -21.8560  -13.6792 C   0  0  0  0  0  0  0  0  0  0  0  0
   17.3367  -23.2802  -13.8101 C   0  0  0  0  0  0  0  0  0  0  0  0
   15.8581  -23.2840  -13.4523 N   0  0  0  0  0  0  0  0  0  0  0  0
   15.3036  -24.6099  -13.3643 C   0  0  0  0  0  0  0  0  0  0  0  0
   20.0968  -20.0191  -12.6777 O   0  0  0  0  0  0  0  0  0  0  0  0
   20.9247  -20.3844  -11.8475 O   0  0  0  0  0  0  0  0  0  0  0  0
  2  1  1  6
  2  3  1  0
  3  4  1  0
  4  5  2  0
  5  6  1  0
  7  6  2  0
  8  7  1  0
  9  4  1  0
  9  8  2  0
 10  2  1  0
 11 10  2  0
 13 15  1  0
 13 12  1  0
 14 13  2  0
 16 17  1  0
 16 15  1  0
 17 18  1  0
 19 18  1  1
 19 21  1  0
 19 20  1  0
 20 10  1  0
 21 23  1  0
 22 21  2  0
 23 24  1  0
 24 25  1  6
 24 30  1  0
 25 26  1  0
 27 26  1  0
 28 27  1  0
 29 28  1  0
 30 31  2  0
 30 32  1  0
M  END
$$$$
