FRK.pdb
     RDKit          3D

 32 32  0  0  1  0  0  0  0  0999 V2000
   29.5802  -19.7067  -12.5345 N   0  0  0  0  0  0  0  0  0  0  0  0
   29.3376  -21.0496  -12.9911 C   0  0  1  0  0  0  0  0  0  0  0  0
   28.8707  -21.8760  -11.7988 C   0  0  0  0  0  0  0  0  0  0  0  0
   29.8720  -21.9249  -10.7109 C   0  0  0  0  0  0  0  0  0  0  0  0
   31.2113  -22.2039  -10.9307 C   0  0  0  0  0  0  0  0  0  0  0  0
   32.1068  -22.2469   -9.8917 C   0  0  0  0  0  0  0  0  0  0  0  0
   31.7145  -22.0126   -8.5711 C   0  0  0  0  0  0  0  0  0  0  0  0
   30.3850  -21.7360   -8.3623 C   0  0  0  0  0  0  0  0  0  0  0  0
   29.4973  -21.6931   -9.3878 C   0  0  0  0  0  0  0  0  0  0  0  0
   28.2969  -21.0361  -14.0473 C   0  0  0  0  0  0  0  0  0  0  0  0
   27.3510  -20.2160  -13.9631 O   0  0  0  0  0  0  0  0  0  0  0  0
   30.8607  -24.4367  -18.1923 N   0  0  0  0  0  0  0  0  0  0  0  0
   31.2387  -23.3922  -19.0718 C   0  0  0  0  0  0  0  0  0  0  0  0
   31.6505  -23.6826  -20.2759 N   0  0  0  0  0  0  0  0  0  0  0  0
   31.1784  -22.0313  -18.6522 N   0  0  0  0  0  0  0  0  0  0  0  0
   30.2413  -21.6272  -17.6483 C   0  0  0  0  0  0  0  0  0  0  0  0
   28.8556  -21.3317  -18.2395 C   0  0  0  0  0  0  0  0  0  0  0  0
   27.9242  -22.3019  -17.5676 C   0  0  0  0  0  0  0  0  0  0  0  0
   27.4051  -21.8746  -16.2381 C   0  0  2  0  0  0  0  0  0  0  0  0
   28.3314  -21.9225  -15.1568 N   0  0  0  0  0  0  0  0  0  0  0  0
   26.1074  -22.5431  -15.8927 C   0  0  0  0  0  0  0  0  0  0  0  0
   26.0262  -23.3480  -14.9226 O   0  0  0  0  0  0  0  0  0  0  0  0
   31.9696  -22.9174  -20.8970 N   0  0  0  0  0  0  0  0  0  0  0  0
   24.9107  -22.3187  -16.6208 C   0  0  2  0  0  0  0  0  0  0  0  0
   23.5898  -22.2626  -15.9901 C   0  0  0  0  0  0  0  0  0  0  0  0
   23.5870  -21.4094  -14.7757 C   0  0  0  0  0  0  0  0  0  0  0  0
   22.3102  -21.3415  -14.0104 C   0  0  0  0  0  0  0  0  0  0  0  0
   22.4789  -20.3678  -12.8321 C   0  0  0  0  0  0  0  0  0  0  0  0
   21.2124  -20.3521  -11.9896 N   0  0  0  0  0  0  0  0  0  0  0  0
   21.2605  -19.3908  -10.9187 C   0  0  0  0  0  0  0  0  0  0  0  0
   22.5404  -21.9725  -16.9849 O   0  0  0  0  0  0  0  0  0  0  0  0
   21.6591  -22.7766  -17.2758 O   0  0  0  0  0  0  0  0  0  0  0  0
  2  1  1  1
  2  3  1  0
  3  4  1  0
  4  5  2  0
  5  6  1  0
  7  6  2  0
  8  7  1  0
  9  4  1  0
  9  8  2  0
 10  2  1  0
 11 10  2  0
 13 15  1  0
 13 12  1  0
 14 13  2  0
 16 17  1  0
 16 15  1  0
 17 18  1  0
 19 18  1  6
 19 21  1  0
 19 20  1  0
 20 10  1  0
 21 23  1  0
 22 21  2  0
 23 24  1  0
 24 25  1  1
 24 30  1  0
 25 26  1  0
 27 26  1  0
 28 27  1  0
 29 28  1  0
 30 31  2  0
 30 32  1  0
M  END
$$$$
