FRK.pdb
     RDKit          3D

 32 32  0  0  1  0  0  0  0  0999 V2000
   23.4797  -17.4384  -19.7286 N   0  0  0  0  0  0  0  0  0  0  0  0
   23.0265  -17.0796  -18.4108 C   0  0  1  0  0  0  0  0  0  0  0  0
   21.8187  -16.1625  -18.5610 C   0  0  0  0  0  0  0  0  0  0  0  0
   22.1615  -14.8635  -19.1803 C   0  0  0  0  0  0  0  0  0  0  0  0
   21.9829  -14.6005  -20.5288 C   0  0  0  0  0  0  0  0  0  0  0  0
   22.3210  -13.3835  -21.0652 C   0  0  0  0  0  0  0  0  0  0  0  0
   22.8577  -12.3573  -20.2828 C   0  0  0  0  0  0  0  0  0  0  0  0
   23.0308  -12.6264  -18.9467 C   0  0  0  0  0  0  0  0  0  0  0  0
   22.6974  -13.8291  -18.4138 C   0  0  0  0  0  0  0  0  0  0  0  0
   22.6536  -18.3038  -17.6619 C   0  0  0  0  0  0  0  0  0  0  0  0
   22.0638  -19.2331  -18.2644 O   0  0  0  0  0  0  0  0  0  0  0  0
   23.7740  -24.5315  -13.6441 N   0  0  0  0  0  0  0  0  0  0  0  0
   24.7876  -23.9932  -14.4749 C   0  0  0  0  0  0  0  0  0  0  0  0
   25.3027  -24.7304  -15.4209 N   0  0  0  0  0  0  0  0  0  0  0  0
   25.2521  -22.6593  -14.2833 N   0  0  0  0  0  0  0  0  0  0  0  0
   24.6735  -21.8333  -13.2673 C   0  0  0  0  0  0  0  0  0  0  0  0
   23.3190  -21.2534  -13.6986 C   0  0  0  0  0  0  0  0  0  0  0  0
   23.6517  -20.0220  -14.4943 C   0  0  0  0  0  0  0  0  0  0  0  0
   22.6630  -19.6529  -15.5458 C   0  0  2  0  0  0  0  0  0  0  0  0
   22.9406  -18.4641  -16.2799 N   0  0  0  0  0  0  0  0  0  0  0  0
   21.2530  -19.6779  -15.0345 C   0  0  0  0  0  0  0  0  0  0  0  0
   20.8603  -18.8519  -14.1632 O   0  0  0  0  0  0  0  0  0  0  0  0
   26.0432  -24.3297  -16.0245 N   0  0  0  0  0  0  0  0  0  0  0  0
   20.2885  -20.6142  -15.4879 C   0  0  2  0  0  0  0  0  0  0  0  0
   18.9455  -20.7205  -14.9127 C   0  0  0  0  0  0  0  0  0  0  0  0
   17.9865  -21.3586  -15.8486 C   0  0  0  0  0  0  0  0  0  0  0  0
   16.5495  -21.3292  -15.4551 C   0  0  0  0  0  0  0  0  0  0  0  0
   15.7076  -21.9735  -16.5690 C   0  0  0  0  0  0  0  0  0  0  0  0
   14.2275  -21.7837  -16.2732 N   0  0  0  0  0  0  0  0  0  0  0  0
   13.3770  -22.2347  -17.3439 C   0  0  0  0  0  0  0  0  0  0  0  0
   18.9958  -21.2897  -13.5531 O   0  0  0  0  0  0  0  0  0  0  0  0
   19.7556  -22.2029  -13.2421 O   0  0  0  0  0  0  0  0  0  0  0  0
  2  1  1  6
  2  3  1  0
  3  4  1  0
  4  5  2  0
  5  6  1  0
  7  6  2  0
  8  7  1  0
  9  4  1  0
  9  8  2  0
 10  2  1  0
 11 10  2  0
 13 15  1  0
 13 12  1  0
 14 13  2  0
 16 17  1  0
 16 15  1  0
 17 18  1  0
 19 18  1  1
 19 21  1  0
 19 20  1  0
 20 10  1  0
 21 23  1  0
 22 21  2  0
 23 24  1  0
 24 25  1  6
 24 30  1  0
 25 26  1  0
 27 26  1  0
 28 27  1  0
 29 28  1  0
 30 31  2  0
 30 32  1  0
M  END
$$$$
