FRK.pdb
     RDKit          3D

 32 32  0  0  1  0  0  0  0  0999 V2000
   24.7889  -15.7099  -18.0056 N   0  0  0  0  0  0  0  0  0  0  0  0
   24.8331  -16.0305  -16.6035 C   0  0  1  0  0  0  0  0  0  0  0  0
   24.5280  -14.7598  -15.8194 C   0  0  0  0  0  0  0  0  0  0  0  0
   25.6125  -13.7580  -15.9112 C   0  0  0  0  0  0  0  0  0  0  0  0
   26.8048  -13.8714  -15.2146 C   0  0  0  0  0  0  0  0  0  0  0  0
   27.7831  -12.9151  -15.3223 C   0  0  0  0  0  0  0  0  0  0  0  0
   27.6258  -11.7886  -16.1343 C   0  0  0  0  0  0  0  0  0  0  0  0
   26.4409  -11.6845  -16.8219 C   0  0  0  0  0  0  0  0  0  0  0  0
   25.4718  -12.6287  -16.7171 C   0  0  0  0  0  0  0  0  0  0  0  0
   23.8273  -17.0769  -16.2999 C   0  0  0  0  0  0  0  0  0  0  0  0
   22.7804  -17.1367  -16.9890 O   0  0  0  0  0  0  0  0  0  0  0  0
   25.7657  -23.2140  -13.1310 N   0  0  0  0  0  0  0  0  0  0  0  0
   25.1685  -22.7284  -11.9415 C   0  0  0  0  0  0  0  0  0  0  0  0
   25.4736  -23.2784  -10.7978 N   0  0  0  0  0  0  0  0  0  0  0  0
   24.2361  -21.6511  -11.9839 N   0  0  0  0  0  0  0  0  0  0  0  0
   24.6653  -20.3408  -12.3685 C   0  0  0  0  0  0  0  0  0  0  0  0
   25.0449  -20.2721  -13.8545 C   0  0  0  0  0  0  0  0  0  0  0  0
   23.7450  -20.3914  -14.6003 C   0  0  0  0  0  0  0  0  0  0  0  0
   23.1153  -19.1015  -14.9993 C   0  0  2  0  0  0  0  0  0  0  0  0
   24.0061  -18.0189  -15.2518 N   0  0  0  0  0  0  0  0  0  0  0  0
   21.9997  -18.7046  -14.0784 C   0  0  0  0  0  0  0  0  0  0  0  0
   22.1575  -18.7035  -12.8251 O   0  0  0  0  0  0  0  0  0  0  0  0
   25.1029  -22.8624   -9.9244 N   0  0  0  0  0  0  0  0  0  0  0  0
   20.7195  -18.3130  -14.5476 C   0  0  2  0  0  0  0  0  0  0  0  0
   19.4698  -18.8451  -13.9989 C   0  0  0  0  0  0  0  0  0  0  0  0
   18.4043  -18.9400  -15.0277 C   0  0  0  0  0  0  0  0  0  0  0  0
   17.7459  -17.6642  -15.4268 C   0  0  0  0  0  0  0  0  0  0  0  0
   16.7202  -17.9508  -16.5362 C   0  0  0  0  0  0  0  0  0  0  0  0
   16.1103  -16.6458  -17.0254 N   0  0  0  0  0  0  0  0  0  0  0  0
   15.1965  -16.8281  -18.1231 C   0  0  0  0  0  0  0  0  0  0  0  0
   19.7160  -20.0668  -13.2104 O   0  0  0  0  0  0  0  0  0  0  0  0
   19.4507  -20.1512  -12.0144 O   0  0  0  0  0  0  0  0  0  0  0  0
  2  1  1  6
  2  3  1  0
  3  4  1  0
  4  5  2  0
  5  6  1  0
  7  6  2  0
  8  7  1  0
  9  4  1  0
  9  8  2  0
 10  2  1  0
 11 10  2  0
 13 15  1  0
 13 12  1  0
 14 13  2  0
 16 17  1  0
 16 15  1  0
 17 18  1  0
 19 18  1  1
 19 21  1  0
 19 20  1  0
 20 10  1  0
 21 23  1  0
 22 21  2  0
 23 24  1  0
 24 25  1  6
 24 30  1  0
 25 26  1  0
 27 26  1  0
 28 27  1  0
 29 28  1  0
 30 31  2  0
 30 32  1  0
M  END
$$$$
