FRK.pdb
     RDKit          3D

 32 32  0  0  1  0  0  0  0  0999 V2000
   27.1736  -17.2946  -17.3146 N   0  0  0  0  0  0  0  0  0  0  0  0
   26.9234  -17.1547  -15.9044 C   0  0  1  0  0  0  0  0  0  0  0  0
   25.7827  -16.1603  -15.7243 C   0  0  0  0  0  0  0  0  0  0  0  0
   26.1416  -14.7940  -16.1634 C   0  0  0  0  0  0  0  0  0  0  0  0
   25.6802  -14.2358  -17.3446 C   0  0  0  0  0  0  0  0  0  0  0  0
   26.0434  -12.9665  -17.7189 C   0  0  0  0  0  0  0  0  0  0  0  0
   26.8899  -12.1805  -16.9323 C   0  0  0  0  0  0  0  0  0  0  0  0
   27.3421  -12.7414  -15.7625 C   0  0  0  0  0  0  0  0  0  0  0  0
   26.9847  -13.9965  -15.3901 C   0  0  0  0  0  0  0  0  0  0  0  0
   26.5540  -18.4714  -15.3311 C   0  0  0  0  0  0  0  0  0  0  0  0
   25.8815  -19.2728  -16.0239 O   0  0  0  0  0  0  0  0  0  0  0  0
   22.9389  -20.7303   -9.9324 N   0  0  0  0  0  0  0  0  0  0  0  0
   24.0483  -21.2180   -9.1984 C   0  0  0  0  0  0  0  0  0  0  0  0
   23.8866  -21.5849   -7.9562 N   0  0  0  0  0  0  0  0  0  0  0  0
   25.3367  -21.3061   -9.8016 N   0  0  0  0  0  0  0  0  0  0  0  0
   25.4640  -21.6701  -11.1802 C   0  0  0  0  0  0  0  0  0  0  0  0
   26.9323  -21.8189  -11.6034 C   0  0  0  0  0  0  0  0  0  0  0  0
   27.3098  -20.4891  -12.1946 C   0  0  0  0  0  0  0  0  0  0  0  0
   26.5562  -20.0954  -13.4179 C   0  0  2  0  0  0  0  0  0  0  0  0
   26.9351  -18.8608  -14.0193 N   0  0  0  0  0  0  0  0  0  0  0  0
   25.0715  -20.1918  -13.2269 C   0  0  0  0  0  0  0  0  0  0  0  0
   24.4787  -19.4915  -12.3588 O   0  0  0  0  0  0  0  0  0  0  0  0
   24.6882  -21.9950   -7.4440 N   0  0  0  0  0  0  0  0  0  0  0  0
   24.2536  -21.0606  -13.9943 C   0  0  1  0  0  0  0  0  0  0  0  0
   22.7926  -21.0824  -13.8902 C   0  0  0  0  0  0  0  0  0  0  0  0
   22.1422  -20.3656  -15.0154 C   0  0  0  0  0  0  0  0  0  0  0  0
   20.6531  -20.3114  -15.0009 C   0  0  0  0  0  0  0  0  0  0  0  0
   20.1592  -19.6519  -16.2993 C   0  0  0  0  0  0  0  0  0  0  0  0
   18.6393  -19.5861  -16.2994 N   0  0  0  0  0  0  0  0  0  0  0  0
   18.1073  -18.8595  -17.4229 C   0  0  0  0  0  0  0  0  0  0  0  0
   22.3015  -22.4475  -13.6250 O   0  0  0  0  0  0  0  0  0  0  0  0
   21.3177  -22.6763  -12.9266 O   0  0  0  0  0  0  0  0  0  0  0  0
  2  1  1  6
  2  3  1  0
  3  4  1  0
  4  5  2  0
  5  6  1  0
  7  6  2  0
  8  7  1  0
  9  4  1  0
  9  8  2  0
 10  2  1  0
 11 10  2  0
 13 15  1  0
 13 12  1  0
 14 13  2  0
 16 17  1  0
 16 15  1  0
 17 18  1  0
 19 18  1  1
 19 21  1  0
 19 20  1  0
 20 10  1  0
 21 23  1  0
 22 21  2  0
 23 24  1  0
 24 25  1  6
 24 30  1  0
 25 26  1  0
 27 26  1  0
 28 27  1  0
 29 28  1  0
 30 31  2  0
 30 32  1  0
M  END
$$$$
