FRK.pdb
     RDKit          3D

 32 32  0  0  1  0  0  0  0  0999 V2000
   25.7448  -18.8866  -18.4644 N   0  0  0  0  0  0  0  0  0  0  0  0
   24.7591  -18.3032  -17.5934 C   0  0  1  0  0  0  0  0  0  0  0  0
   23.8461  -17.4222  -18.4376 C   0  0  0  0  0  0  0  0  0  0  0  0
   24.5461  -16.2451  -18.9970 C   0  0  0  0  0  0  0  0  0  0  0  0
   25.0857  -16.2246  -20.2729 C   0  0  0  0  0  0  0  0  0  0  0  0
   25.7341  -15.1138  -20.7512 C   0  0  0  0  0  0  0  0  0  0  0  0
   25.8803  -13.9573  -19.9803 C   0  0  0  0  0  0  0  0  0  0  0  0
   25.3417  -13.9860  -18.7167 C   0  0  0  0  0  0  0  0  0  0  0  0
   24.7001  -15.0833  -18.2412 C   0  0  0  0  0  0  0  0  0  0  0  0
   23.9754  -19.3777  -16.9377 C   0  0  0  0  0  0  0  0  0  0  0  0
   23.5651  -20.3426  -17.6269 O   0  0  0  0  0  0  0  0  0  0  0  0
   26.5289  -20.8063  -10.3797 N   0  0  0  0  0  0  0  0  0  0  0  0
   25.1809  -21.1318  -10.0890 C   0  0  0  0  0  0  0  0  0  0  0  0
   24.6576  -20.7519   -8.9552 N   0  0  0  0  0  0  0  0  0  0  0  0
   24.3955  -21.8732  -11.0192 N   0  0  0  0  0  0  0  0  0  0  0  0
   24.8620  -22.0744  -12.3575 C   0  0  0  0  0  0  0  0  0  0  0  0
   24.7435  -20.8006  -13.2064 C   0  0  0  0  0  0  0  0  0  0  0  0
   23.2728  -20.6394  -13.4738 C   0  0  0  0  0  0  0  0  0  0  0  0
   22.9067  -20.3603  -14.8906 C   0  0  2  0  0  0  0  0  0  0  0  0
   23.6701  -19.3547  -15.5505 N   0  0  0  0  0  0  0  0  0  0  0  0
   21.4322  -20.1478  -15.0657 C   0  0  0  0  0  0  0  0  0  0  0  0
   20.9154  -19.0050  -14.9156 O   0  0  0  0  0  0  0  0  0  0  0  0
   23.6600  -20.9578   -8.7672 N   0  0  0  0  0  0  0  0  0  0  0  0
   20.5401  -21.1977  -15.4038 C   0  0  2  0  0  0  0  0  0  0  0  0
   19.0940  -21.0061  -15.5380 C   0  0  0  0  0  0  0  0  0  0  0  0
   18.4793  -22.0111  -16.4406 C   0  0  0  0  0  0  0  0  0  0  0  0
   17.0316  -21.8361  -16.7474 C   0  0  0  0  0  0  0  0  0  0  0  0
   16.5701  -22.9750  -17.6720 C   0  0  0  0  0  0  0  0  0  0  0  0
   15.1085  -22.7775  -18.0448 N   0  0  0  0  0  0  0  0  0  0  0  0
   14.5696  -23.8722  -18.8092 C   0  0  0  0  0  0  0  0  0  0  0  0
   18.4563  -20.8492  -14.2175 O   0  0  0  0  0  0  0  0  0  0  0  0
   18.9172  -21.3455  -13.1932 O   0  0  0  0  0  0  0  0  0  0  0  0
  2  1  1  6
  2  3  1  0
  3  4  1  0
  4  5  2  0
  5  6  1  0
  7  6  2  0
  8  7  1  0
  9  4  1  0
  9  8  2  0
 10  2  1  0
 11 10  2  0
 13 15  1  0
 13 12  1  0
 14 13  2  0
 16 17  1  0
 16 15  1  0
 17 18  1  0
 19 18  1  1
 19 21  1  0
 19 20  1  0
 20 10  1  0
 21 23  1  0
 22 21  2  0
 23 24  1  0
 24 25  1  6
 24 30  1  0
 25 26  1  0
 27 26  1  0
 28 27  1  0
 29 28  1  0
 30 31  2  0
 30 32  1  0
M  END
$$$$
