FRK.pdb
     RDKit          3D

 32 32  0  0  1  0  0  0  0  0999 V2000
   27.3838  -22.9740  -18.3265 N   0  0  0  0  0  0  0  0  0  0  0  0
   26.8727  -21.7061  -17.8773 C   0  0  1  0  0  0  0  0  0  0  0  0
   26.0461  -21.1038  -19.0072 C   0  0  0  0  0  0  0  0  0  0  0  0
   26.8825  -20.5598  -20.0993 C   0  0  0  0  0  0  0  0  0  0  0  0
   27.6116  -19.3878  -19.9785 C   0  0  0  0  0  0  0  0  0  0  0  0
   28.3698  -18.9134  -21.0193 C   0  0  0  0  0  0  0  0  0  0  0  0
   28.4434  -19.5849  -22.2428 C   0  0  0  0  0  0  0  0  0  0  0  0
   27.7181  -20.7464  -22.3536 C   0  0  0  0  0  0  0  0  0  0  0  0
   26.9673  -21.2176  -21.3260 C   0  0  0  0  0  0  0  0  0  0  0  0
   26.0305  -21.9067  -16.6735 C   0  0  0  0  0  0  0  0  0  0  0  0
   25.3381  -22.9489  -16.5787 O   0  0  0  0  0  0  0  0  0  0  0  0
   23.5748  -20.6215   -9.0223 N   0  0  0  0  0  0  0  0  0  0  0  0
   24.9667  -20.7853   -8.8148 C   0  0  0  0  0  0  0  0  0  0  0  0
   25.3911  -21.3538   -7.7191 N   0  0  0  0  0  0  0  0  0  0  0  0
   25.9049  -20.3309   -9.7869 N   0  0  0  0  0  0  0  0  0  0  0  0
   25.4549  -19.6265  -10.9490 C   0  0  0  0  0  0  0  0  0  0  0  0
   24.8405  -20.5703  -11.9926 C   0  0  0  0  0  0  0  0  0  0  0  0
   25.6786  -20.3927  -13.2280 C   0  0  0  0  0  0  0  0  0  0  0  0
   25.2082  -21.1327  -14.4324 C   0  0  2  0  0  0  0  0  0  0  0  0
   25.9780  -20.9573  -15.6182 N   0  0  0  0  0  0  0  0  0  0  0  0
   23.7423  -20.9370  -14.6835 C   0  0  0  0  0  0  0  0  0  0  0  0
   23.2946  -19.8348  -15.1079 O   0  0  0  0  0  0  0  0  0  0  0  0
   26.4105  -21.4652   -7.5721 N   0  0  0  0  0  0  0  0  0  0  0  0
   22.7827  -21.9584  -14.4633 C   0  0  2  0  0  0  0  0  0  0  0  0
   21.3388  -21.7348  -14.5681 C   0  0  0  0  0  0  0  0  0  0  0  0
   20.5570  -22.8969  -14.0771 C   0  0  0  0  0  0  0  0  0  0  0  0
   19.0731  -22.7831  -14.1520 C   0  0  0  0  0  0  0  0  0  0  0  0
   18.4386  -24.0458  -13.5456 C   0  0  0  0  0  0  0  0  0  0  0  0
   16.9323  -24.0194  -13.7569 N   0  0  0  0  0  0  0  0  0  0  0  0
   16.2849  -25.2387  -13.3478 C   0  0  0  0  0  0  0  0  0  0  0  0
   20.9646  -20.4227  -14.0085 O   0  0  0  0  0  0  0  0  0  0  0  0
   21.3331  -20.0426  -12.9004 O   0  0  0  0  0  0  0  0  0  0  0  0
  2  1  1  6
  2  3  1  0
  3  4  1  0
  4  5  2  0
  5  6  1  0
  7  6  2  0
  8  7  1  0
  9  4  1  0
  9  8  2  0
 10  2  1  0
 11 10  2  0
 13 15  1  0
 13 12  1  0
 14 13  2  0
 16 17  1  0
 16 15  1  0
 17 18  1  0
 19 18  1  1
 19 21  1  0
 19 20  1  0
 20 10  1  0
 21 23  1  0
 22 21  2  0
 23 24  1  0
 24 25  1  6
 24 30  1  0
 25 26  1  0
 27 26  1  0
 28 27  1  0
 29 28  1  0
 30 31  2  0
 30 32  1  0
M  END
$$$$
