FRK.pdb
     RDKit          3D

 32 32  0  0  1  0  0  0  0  0999 V2000
   23.4435  -17.1203  -19.7527 N   0  0  0  0  0  0  0  0  0  0  0  0
   23.1925  -16.6606  -18.4124 C   0  0  1  0  0  0  0  0  0  0  0  0
   21.8316  -15.9747  -18.3963 C   0  0  0  0  0  0  0  0  0  0  0  0
   21.8240  -14.7035  -19.1531 C   0  0  0  0  0  0  0  0  0  0  0  0
   21.1749  -14.5530  -20.3679 C   0  0  0  0  0  0  0  0  0  0  0  0
   21.1985  -13.3577  -21.0415 C   0  0  0  0  0  0  0  0  0  0  0  0
   21.8730  -12.2419  -20.5385 C   0  0  0  0  0  0  0  0  0  0  0  0
   22.5131  -12.3997  -19.3331 C   0  0  0  0  0  0  0  0  0  0  0  0
   22.4916  -13.5807  -18.6649 C   0  0  0  0  0  0  0  0  0  0  0  0
   23.1986  -17.8142  -17.4808 C   0  0  0  0  0  0  0  0  0  0  0  0
   22.6285  -18.8786  -17.8221 O   0  0  0  0  0  0  0  0  0  0  0  0
   26.6961  -20.1467   -9.5632 N   0  0  0  0  0  0  0  0  0  0  0  0
   26.6362  -21.2374  -10.4655 C   0  0  0  0  0  0  0  0  0  0  0  0
   26.6348  -22.4572  -10.0010 N   0  0  0  0  0  0  0  0  0  0  0  0
   26.5830  -21.0146  -11.8724 N   0  0  0  0  0  0  0  0  0  0  0  0
   26.1181  -19.7622  -12.3869 C   0  0  0  0  0  0  0  0  0  0  0  0
   24.8479  -19.9235  -13.2341 C   0  0  0  0  0  0  0  0  0  0  0  0
   24.9351  -18.8519  -14.2850 C   0  0  0  0  0  0  0  0  0  0  0  0
   23.8196  -18.8313  -15.2723 C   0  0  2  0  0  0  0  0  0  0  0  0
   23.8294  -17.7583  -16.2092 N   0  0  0  0  0  0  0  0  0  0  0  0
   22.4789  -18.9909  -14.6188 C   0  0  0  0  0  0  0  0  0  0  0  0
   21.9081  -18.0156  -14.0543 O   0  0  0  0  0  0  0  0  0  0  0  0
   26.5794  -23.2492  -10.6664 N   0  0  0  0  0  0  0  0  0  0  0  0
   21.7795  -20.2249  -14.5928 C   0  0  2  0  0  0  0  0  0  0  0  0
   20.5426  -20.4270  -13.8345 C   0  0  0  0  0  0  0  0  0  0  0  0
   19.6908  -21.4873  -14.4284 C   0  0  0  0  0  0  0  0  0  0  0  0
   18.4066  -21.7806  -13.7318 C   0  0  0  0  0  0  0  0  0  0  0  0
   17.6693  -22.9018  -14.4828 C   0  0  0  0  0  0  0  0  0  0  0  0
   16.3127  -23.1485  -13.8402 N   0  0  0  0  0  0  0  0  0  0  0  0
   15.5401  -24.1529  -14.5239 C   0  0  0  0  0  0  0  0  0  0  0  0
   20.8214  -20.5559  -12.3921 O   0  0  0  0  0  0  0  0  0  0  0  0
   21.8480  -21.0699  -11.9564 O   0  0  0  0  0  0  0  0  0  0  0  0
  2  1  1  6
  2  3  1  0
  3  4  1  0
  4  5  2  0
  5  6  1  0
  7  6  2  0
  8  7  1  0
  9  4  1  0
  9  8  2  0
 10  2  1  0
 11 10  2  0
 13 15  1  0
 13 12  1  0
 14 13  2  0
 16 17  1  0
 16 15  1  0
 17 18  1  0
 19 18  1  1
 19 21  1  0
 19 20  1  0
 20 10  1  0
 21 23  1  0
 22 21  2  0
 23 24  1  0
 24 25  1  6
 24 30  1  0
 25 26  1  0
 27 26  1  0
 28 27  1  0
 29 28  1  0
 30 31  2  0
 30 32  1  0
M  END
$$$$
