FRK.pdb
     RDKit          3D

 32 32  0  0  1  0  0  0  0  0999 V2000
   27.6413  -21.8501  -12.2616 N   0  0  0  0  0  0  0  0  0  0  0  0
   26.9596  -21.3992  -11.0772 C   0  0  1  0  0  0  0  0  0  0  0  0
   27.5532  -20.0547  -10.6744 C   0  0  0  0  0  0  0  0  0  0  0  0
   27.8479  -19.9711   -9.2272 C   0  0  0  0  0  0  0  0  0  0  0  0
   26.9842  -19.3879   -8.3142 C   0  0  0  0  0  0  0  0  0  0  0  0
   27.2992  -19.3244   -6.9801 C   0  0  0  0  0  0  0  0  0  0  0  0
   28.4976  -19.8417   -6.4808 C   0  0  0  0  0  0  0  0  0  0  0  0
   29.3478  -20.4189   -7.3928 C   0  0  0  0  0  0  0  0  0  0  0  0
   29.0388  -20.4828   -8.7127 C   0  0  0  0  0  0  0  0  0  0  0  0
   25.5107  -21.2585  -11.3595 C   0  0  0  0  0  0  0  0  0  0  0  0
   25.1087  -21.3357  -12.5457 O   0  0  0  0  0  0  0  0  0  0  0  0
   19.1189  -24.0894   -6.8765 N   0  0  0  0  0  0  0  0  0  0  0  0
   18.5916  -23.7539   -8.1480 C   0  0  0  0  0  0  0  0  0  0  0  0
   17.6203  -24.4668   -8.6499 N   0  0  0  0  0  0  0  0  0  0  0  0
   19.1151  -22.6510   -8.8838 N   0  0  0  0  0  0  0  0  0  0  0  0
   20.4756  -22.2444   -8.7031 C   0  0  0  0  0  0  0  0  0  0  0  0
   20.8211  -21.0023   -9.5367 C   0  0  0  0  0  0  0  0  0  0  0  0
   22.2985  -20.7978   -9.3474 C   0  0  0  0  0  0  0  0  0  0  0  0
   23.1480  -21.1427  -10.5217 C   0  0  2  0  0  0  0  0  0  0  0  0
   24.5559  -21.0381  -10.3312 N   0  0  0  0  0  0  0  0  0  0  0  0
   22.6997  -20.4458  -11.7721 C   0  0  0  0  0  0  0  0  0  0  0  0
   22.7684  -19.1891  -11.8790 O   0  0  0  0  0  0  0  0  0  0  0  0
   17.2648  -24.2382   -9.5957 N   0  0  0  0  0  0  0  0  0  0  0  0
   22.1786  -21.1410  -12.8935 C   0  0  2  0  0  0  0  0  0  0  0  0
   21.6650  -20.4633  -14.0864 C   0  0  0  0  0  0  0  0  0  0  0  0
   22.1052  -21.1274  -15.3385 C   0  0  0  0  0  0  0  0  0  0  0  0
   23.4517  -20.7529  -15.8554 C   0  0  0  0  0  0  0  0  0  0  0  0
   23.7503  -21.5686  -17.1243 C   0  0  0  0  0  0  0  0  0  0  0  0
   25.0864  -21.1394  -17.7116 N   0  0  0  0  0  0  0  0  0  0  0  0
   25.3788  -21.7757  -18.9697 C   0  0  0  0  0  0  0  0  0  0  0  0
   20.2179  -20.2060  -13.9668 O   0  0  0  0  0  0  0  0  0  0  0  0
   19.4733  -20.9005  -13.2804 O   0  0  0  0  0  0  0  0  0  0  0  0
  2  1  1  6
  2  3  1  0
  3  4  1  0
  4  5  2  0
  5  6  1  0
  7  6  2  0
  8  7  1  0
  9  4  1  0
  9  8  2  0
 10  2  1  0
 11 10  2  0
 13 15  1  0
 13 12  1  0
 14 13  2  0
 16 17  1  0
 16 15  1  0
 17 18  1  0
 19 18  1  1
 19 21  1  0
 19 20  1  0
 20 10  1  0
 21 23  1  0
 22 21  2  0
 23 24  1  0
 24 25  1  1
 24 30  1  0
 25 26  1  0
 27 26  1  0
 28 27  1  0
 29 28  1  0
 30 31  2  0
 30 32  1  0
M  END
$$$$
