FRK.pdb
     RDKit          3D

 32 32  0  0  1  0  0  0  0  0999 V2000
   27.9644  -20.4251  -15.5525 N   0  0  0  0  0  0  0  0  0  0  0  0
   27.2848  -19.5657  -14.6197 C   0  0  1  0  0  0  0  0  0  0  0  0
   26.4641  -18.5594  -15.4173 C   0  0  0  0  0  0  0  0  0  0  0  0
   27.3002  -17.5212  -16.0589 C   0  0  0  0  0  0  0  0  0  0  0  0
   27.8481  -17.6690  -17.3228 C   0  0  0  0  0  0  0  0  0  0  0  0
   28.6248  -16.6838  -17.8790 C   0  0  0  0  0  0  0  0  0  0  0  0
   28.8985  -15.4919  -17.2028 C   0  0  0  0  0  0  0  0  0  0  0  0
   28.3507  -15.3534  -15.9504 C   0  0  0  0  0  0  0  0  0  0  0  0
   27.5825  -16.3261  -15.3980 C   0  0  0  0  0  0  0  0  0  0  0  0
   26.4002  -20.3765  -13.7487 C   0  0  0  0  0  0  0  0  0  0  0  0
   25.7333  -21.3110  -14.2552 O   0  0  0  0  0  0  0  0  0  0  0  0
   20.6145  -23.0772   -7.3831 N   0  0  0  0  0  0  0  0  0  0  0  0
   21.7131  -22.2015   -7.5660 C   0  0  0  0  0  0  0  0  0  0  0  0
   22.1905  -21.5460   -6.5431 N   0  0  0  0  0  0  0  0  0  0  0  0
   22.2962  -22.0264   -8.8549 N   0  0  0  0  0  0  0  0  0  0  0  0
   23.6886  -21.7190   -8.9805 C   0  0  0  0  0  0  0  0  0  0  0  0
   23.9214  -20.2553   -9.3812 C   0  0  0  0  0  0  0  0  0  0  0  0
   25.2335  -20.2504  -10.1151 C   0  0  0  0  0  0  0  0  0  0  0  0
   25.1499  -20.5218  -11.5776 C   0  0  2  0  0  0  0  0  0  0  0  0
   26.2789  -20.1329  -12.3545 N   0  0  0  0  0  0  0  0  0  0  0  0
   23.8644  -20.0305  -12.1745 C   0  0  0  0  0  0  0  0  0  0  0  0
   23.5692  -18.8024  -12.1674 O   0  0  0  0  0  0  0  0  0  0  0  0
   23.0266  -20.9486   -6.6738 N   0  0  0  0  0  0  0  0  0  0  0  0
   22.9151  -20.8982  -12.7734 C   0  0  2  0  0  0  0  0  0  0  0  0
   21.6334  -20.4333  -13.3091 C   0  0  0  0  0  0  0  0  0  0  0  0
   21.3324  -21.0312  -14.6337 C   0  0  0  0  0  0  0  0  0  0  0  0
   20.0599  -20.6081  -15.2836 C   0  0  0  0  0  0  0  0  0  0  0  0
   19.9083  -21.3456  -16.6245 C   0  0  0  0  0  0  0  0  0  0  0  0
   18.6973  -20.8109  -17.3740 N   0  0  0  0  0  0  0  0  0  0  0  0
   18.5333  -21.4046  -18.6755 C   0  0  0  0  0  0  0  0  0  0  0  0
   20.5669  -20.5392  -12.2960 O   0  0  0  0  0  0  0  0  0  0  0  0
   20.5137  -21.4549  -11.4795 O   0  0  0  0  0  0  0  0  0  0  0  0
  2  1  1  6
  2  3  1  0
  3  4  1  0
  4  5  2  0
  5  6  1  0
  7  6  2  0
  8  7  1  0
  9  4  1  0
  9  8  2  0
 10  2  1  0
 11 10  2  0
 13 15  1  0
 13 12  1  0
 14 13  2  0
 16 17  1  0
 16 15  1  0
 17 18  1  0
 19 18  1  1
 19 21  1  0
 19 20  1  0
 20 10  1  0
 21 23  1  0
 22 21  2  0
 23 24  1  0
 24 25  1  6
 24 30  1  0
 25 26  1  0
 27 26  1  0
 28 27  1  0
 29 28  1  0
 30 31  2  0
 30 32  1  0
M  END
$$$$
