FRK.pdb
     RDKit          3D

 32 32  0  0  1  0  0  0  0  0999 V2000
   25.8876  -20.9025  -20.2747 N   0  0  0  0  0  0  0  0  0  0  0  0
   25.6737  -19.9972  -19.1768 C   0  0  1  0  0  0  0  0  0  0  0  0
   24.6831  -18.9316  -19.6305 C   0  0  0  0  0  0  0  0  0  0  0  0
   25.2785  -17.9654  -20.5794 C   0  0  0  0  0  0  0  0  0  0  0  0
   25.3476  -18.1939  -21.9442 C   0  0  0  0  0  0  0  0  0  0  0  0
   25.9151  -17.2740  -22.7897 C   0  0  0  0  0  0  0  0  0  0  0  0
   26.4468  -16.0704  -22.3187 C   0  0  0  0  0  0  0  0  0  0  0  0
   26.3735  -15.8517  -20.9643 C   0  0  0  0  0  0  0  0  0  0  0  0
   25.8129  -16.7598  -20.1260 C   0  0  0  0  0  0  0  0  0  0  0  0
   25.1321  -20.7424  -18.0149 C   0  0  0  0  0  0  0  0  0  0  0  0
   24.2663  -21.6299  -18.2076 O   0  0  0  0  0  0  0  0  0  0  0  0
   23.8367  -21.9325  -10.4252 N   0  0  0  0  0  0  0  0  0  0  0  0
   24.5372  -20.7115  -10.2652 C   0  0  0  0  0  0  0  0  0  0  0  0
   24.1221  -19.8425   -9.3840 N   0  0  0  0  0  0  0  0  0  0  0  0
   25.6848  -20.4224  -11.0597 N   0  0  0  0  0  0  0  0  0  0  0  0
   26.2246  -21.4178  -11.9355 C   0  0  0  0  0  0  0  0  0  0  0  0
   25.2689  -21.7477  -13.0910 C   0  0  0  0  0  0  0  0  0  0  0  0
   25.8026  -20.9887  -14.2740 C   0  0  0  0  0  0  0  0  0  0  0  0
   25.0408  -21.1625  -15.5425 C   0  0  2  0  0  0  0  0  0  0  0  0
   25.5594  -20.4870  -16.6845 N   0  0  0  0  0  0  0  0  0  0  0  0
   23.5728  -20.9115  -15.3631 C   0  0  0  0  0  0  0  0  0  0  0  0
   23.0895  -19.7511  -15.4866 O   0  0  0  0  0  0  0  0  0  0  0  0
   24.6177  -18.9369   -9.2979 N   0  0  0  0  0  0  0  0  0  0  0  0
   22.6506  -21.9426  -15.0483 C   0  0  2  0  0  0  0  0  0  0  0  0
   21.2095  -21.7141  -14.9191 C   0  0  0  0  0  0  0  0  0  0  0  0
   20.4445  -22.9852  -14.8772 C   0  0  0  0  0  0  0  0  0  0  0  0
   20.6631  -23.9336  -16.0057 C   0  0  0  0  0  0  0  0  0  0  0  0
   21.4791  -25.1364  -15.5035 C   0  0  0  0  0  0  0  0  0  0  0  0
   21.7029  -26.1202  -16.6421 N   0  0  0  0  0  0  0  0  0  0  0  0
   22.4865  -27.2635  -16.2524 C   0  0  0  0  0  0  0  0  0  0  0  0
   20.9211  -20.7517  -13.8395 O   0  0  0  0  0  0  0  0  0  0  0  0
   21.5864  -20.6887  -12.8093 O   0  0  0  0  0  0  0  0  0  0  0  0
  2  1  1  6
  2  3  1  0
  3  4  1  0
  4  5  2  0
  5  6  1  0
  7  6  2  0
  8  7  1  0
  9  4  1  0
  9  8  2  0
 10  2  1  0
 11 10  2  0
 13 15  1  0
 13 12  1  0
 14 13  2  0
 16 17  1  0
 16 15  1  0
 17 18  1  0
 19 18  1  1
 19 21  1  0
 19 20  1  0
 20 10  1  0
 21 23  1  0
 22 21  2  0
 23 24  1  0
 24 25  1  6
 24 30  1  0
 25 26  1  0
 27 26  1  0
 28 27  1  0
 29 28  1  0
 30 31  2  0
 30 32  1  0
M  END
$$$$
