FRK.pdb
     RDKit          3D

 32 32  0  0  1  0  0  0  0  0999 V2000
   25.0770  -15.9995  -18.6305 N   0  0  0  0  0  0  0  0  0  0  0  0
   25.4603  -16.5765  -17.3692 C   0  0  1  0  0  0  0  0  0  0  0  0
   25.0085  -15.6320  -16.2618 C   0  0  0  0  0  0  0  0  0  0  0  0
   25.7690  -14.3632  -16.2480 C   0  0  0  0  0  0  0  0  0  0  0  0
   25.2297  -13.1561  -16.6627 C   0  0  0  0  0  0  0  0  0  0  0  0
   25.9723  -12.0024  -16.6408 C   0  0  0  0  0  0  0  0  0  0  0  0
   27.2990  -11.9887  -16.2019 C   0  0  0  0  0  0  0  0  0  0  0  0
   27.8256  -13.1896  -15.7919 C   0  0  0  0  0  0  0  0  0  0  0  0
   27.0935  -14.3321  -15.8127 C   0  0  0  0  0  0  0  0  0  0  0  0
   24.8142  -17.9018  -17.2110 C   0  0  0  0  0  0  0  0  0  0  0  0
   23.5938  -18.0225  -17.4764 O   0  0  0  0  0  0  0  0  0  0  0  0
   26.3950  -25.9420  -16.1324 N   0  0  0  0  0  0  0  0  0  0  0  0
   25.0216  -25.8749  -16.4740 C   0  0  0  0  0  0  0  0  0  0  0  0
   24.2178  -26.8321  -16.0980 N   0  0  0  0  0  0  0  0  0  0  0  0
   24.5129  -24.7769  -17.2272 N   0  0  0  0  0  0  0  0  0  0  0  0
   25.2514  -23.5532  -17.3066 C   0  0  0  0  0  0  0  0  0  0  0  0
   25.2129  -22.7706  -15.9863 C   0  0  0  0  0  0  0  0  0  0  0  0
   25.8647  -21.4504  -16.2904 C   0  0  0  0  0  0  0  0  0  0  0  0
   24.9300  -20.3188  -16.5457 C   0  0  2  0  0  0  0  0  0  0  0  0
   25.5299  -19.0458  -16.7672 N   0  0  0  0  0  0  0  0  0  0  0  0
   23.8301  -20.2491  -15.5281 C   0  0  0  0  0  0  0  0  0  0  0  0
   24.0209  -19.7218  -14.3963 O   0  0  0  0  0  0  0  0  0  0  0  0
   23.2298  -26.8108  -16.4085 N   0  0  0  0  0  0  0  0  0  0  0  0
   22.5293  -20.7624  -15.7673 C   0  0  2  0  0  0  0  0  0  0  0  0
   21.4834  -20.7991  -14.7423 C   0  0  0  0  0  0  0  0  0  0  0  0
   20.2143  -20.1943  -15.2181 C   0  0  0  0  0  0  0  0  0  0  0  0
   19.0875  -20.1538  -14.2438 C   0  0  0  0  0  0  0  0  0  0  0  0
   17.8327  -19.6080  -14.9455 C   0  0  0  0  0  0  0  0  0  0  0  0
   16.6560  -19.6186  -13.9813 N   0  0  0  0  0  0  0  0  0  0  0  0
   15.4062  -19.2871  -14.6147 C   0  0  0  0  0  0  0  0  0  0  0  0
   21.3738  -22.1436  -14.1463 O   0  0  0  0  0  0  0  0  0  0  0  0
   21.5896  -23.1723  -14.7814 O   0  0  0  0  0  0  0  0  0  0  0  0
  2  1  1  6
  2  3  1  0
  3  4  1  0
  4  5  2  0
  5  6  1  0
  7  6  2  0
  8  7  1  0
  9  4  1  0
  9  8  2  0
 10  2  1  0
 11 10  2  0
 13 15  1  0
 13 12  1  0
 14 13  2  0
 16 17  1  0
 16 15  1  0
 17 18  1  0
 19 18  1  1
 19 21  1  0
 19 20  1  0
 20 10  1  0
 21 23  1  0
 22 21  2  0
 23 24  1  0
 24 25  1  6
 24 30  1  0
 25 26  1  0
 27 26  1  0
 28 27  1  0
 29 28  1  0
 30 31  2  0
 30 32  1  0
M  END
$$$$
