GTL.pdb
     RDKit          3D

 20 19  0  0  1  0  0  0  0  0999 V2000
    4.1835  -19.5529   21.9714 N   0  0  0  0  0  0  0  0  0  0  0  0
    4.6258  -18.1915   21.9154 C   0  0  0  0  0  0  0  0  0  0  0  0
    5.9948  -18.0732   22.4541 C   0  0  0  0  0  0  0  0  0  0  0  0
    6.5797  -18.9977   23.0464 O   0  0  0  0  0  0  0  0  0  0  0  0
    8.7586  -17.3255   20.4047 C   0  0  0  0  0  0  0  0  0  0  0  0
    8.8489  -16.2580   21.4734 C   0  0  1  0  0  0  0  0  0  0  0  0
    8.4926  -15.0008   20.9829 O   0  0  0  0  0  0  0  0  0  0  0  0
    8.0460  -16.6323   22.6980 C   0  0  2  0  0  0  0  0  0  0  0  0
    6.6745  -16.8302   22.2816 N   0  0  0  0  0  0  0  0  0  0  0  0
    8.1524  -15.5747   23.7648 C   0  0  0  0  0  0  0  0  0  0  0  0
    7.8031  -14.3984   23.5355 O   0  0  0  0  0  0  0  0  0  0  0  0
    6.0698  -12.4498   26.5044 C   0  0  0  0  0  0  0  0  0  0  0  0
    7.2290  -13.1682   25.8214 C   0  0  1  0  0  0  0  0  0  0  0  0
    8.4178  -12.1854   25.9883 C   0  0  0  0  0  0  0  0  0  0  0  0
    7.4820  -14.4089   26.6116 C   0  0  0  0  0  0  0  0  0  0  0  0
    8.7383  -15.1624   26.2153 C   0  0  2  0  0  0  0  0  0  0  0  0
    8.6510  -15.9339   25.0215 N   0  0  0  0  0  0  0  0  0  0  0  0
    9.4392  -15.7743   27.3440 C   0  0  0  0  0  0  0  0  0  0  0  0
   10.0672  -15.0849   28.3727 O   0  0  0  0  0  0  0  0  0  0  0  0
    9.4834  -17.0294   27.3984 O   0  0  0  0  0  0  0  0  0  0  0  0
  1  2  1  0
  3  4  2  0
  3  2  1  0
  6  5  1  6
  6  7  1  0
  6  8  1  0
  8  9  1  6
  9  3  1  0
 10 11  2  0
 10  8  1  0
 13 14  1  1
 13 12  1  0
 15 13  1  0
 16 15  1  1
 16 17  1  0
 17 10  1  0
 18 16  1  0
 19 18  1  0
 20 18  2  0
M  END
$$$$
