GTL.pdb
     RDKit          3D

 20 19  0  0  1  0  0  0  0  0999 V2000
   11.4827  -17.4013   18.3074 N   0  0  0  0  0  0  0  0  0  0  0  0
   10.8625  -17.6455   19.5755 C   0  0  0  0  0  0  0  0  0  0  0  0
   10.0873  -16.4652   20.0044 C   0  0  0  0  0  0  0  0  0  0  0  0
   10.2471  -15.3293   19.5230 O   0  0  0  0  0  0  0  0  0  0  0  0
    6.5736  -16.0006   19.8251 C   0  0  0  0  0  0  0  0  0  0  0  0
    6.8662  -15.8625   21.3034 C   0  0  1  0  0  0  0  0  0  0  0  0
    6.4459  -16.9824   22.0226 O   0  0  0  0  0  0  0  0  0  0  0  0
    8.3237  -15.5490   21.5515 C   0  0  2  0  0  0  0  0  0  0  0  0
    9.1060  -16.6463   21.0248 N   0  0  0  0  0  0  0  0  0  0  0  0
    8.5935  -15.3317   23.0171 C   0  0  0  0  0  0  0  0  0  0  0  0
    9.3104  -16.1264   23.6595 O   0  0  0  0  0  0  0  0  0  0  0  0
    7.9435  -11.6913   27.2345 C   0  0  0  0  0  0  0  0  0  0  0  0
    6.7784  -12.6083   26.8773 C   0  0  1  0  0  0  0  0  0  0  0  0
    5.5265  -11.7382   27.1647 C   0  0  0  0  0  0  0  0  0  0  0  0
    6.8845  -12.8760   25.4127 C   0  0  0  0  0  0  0  0  0  0  0  0
    7.9120  -13.9280   25.0379 C   0  0  2  0  0  0  0  0  0  0  0  0
    8.0253  -14.2204   23.6487 N   0  0  0  0  0  0  0  0  0  0  0  0
    7.9508  -15.0668   25.9550 C   0  0  0  0  0  0  0  0  0  0  0  0
    7.0357  -16.1107   25.9836 O   0  0  0  0  0  0  0  0  0  0  0  0
    8.8869  -15.1158   26.7926 O   0  0  0  0  0  0  0  0  0  0  0  0
  1  2  1  0
  3  4  2  0
  3  2  1  0
  6  5  1  6
  6  7  1  0
  6  8  1  0
  8  9  1  1
  9  3  1  0
 10 11  2  0
 10  8  1  0
 13 14  1  6
 13 12  1  0
 15 13  1  0
 16 15  1  6
 16 17  1  0
 17 10  1  0
 18 16  1  0
 19 18  1  0
 20 18  2  0
M  END
$$$$
