GTL.pdb
     RDKit          3D

 20 19  0  0  1  0  0  0  0  0999 V2000
    9.5734  -16.1972   17.8059 N   0  0  0  0  0  0  0  0  0  0  0  0
   10.1043  -15.7744   19.0675 C   0  0  0  0  0  0  0  0  0  0  0  0
    9.0279  -15.6806   20.0728 C   0  0  0  0  0  0  0  0  0  0  0  0
    8.0271  -14.9541   19.9384 O   0  0  0  0  0  0  0  0  0  0  0  0
    6.4662  -17.7796   23.5134 C   0  0  0  0  0  0  0  0  0  0  0  0
    7.5984  -17.7835   22.5093 C   0  0  1  0  0  0  0  0  0  0  0  0
    7.2093  -18.3405   21.2902 O   0  0  0  0  0  0  0  0  0  0  0  0
    8.1870  -16.4025   22.3345 C   0  0  2  0  0  0  0  0  0  0  0  0
    9.1505  -16.4678   21.2570 N   0  0  0  0  0  0  0  0  0  0  0  0
    8.8182  -15.9124   23.6110 C   0  0  0  0  0  0  0  0  0  0  0  0
   10.0286  -16.1110   23.8426 O   0  0  0  0  0  0  0  0  0  0  0  0
    5.8460  -12.0049   26.5795 C   0  0  0  0  0  0  0  0  0  0  0  0
    6.9578  -12.6940   25.7951 C   0  0  1  0  0  0  0  0  0  0  0  0
    8.1402  -11.6933   25.8806 C   0  0  0  0  0  0  0  0  0  0  0  0
    7.2935  -13.9408   26.5438 C   0  0  0  0  0  0  0  0  0  0  0  0
    8.3264  -14.8228   25.8669 C   0  0  2  0  0  0  0  0  0  0  0  0
    8.0224  -15.2285   24.5361 N   0  0  0  0  0  0  0  0  0  0  0  0
    8.9032  -15.8376   26.7484 C   0  0  0  0  0  0  0  0  0  0  0  0
    9.9290  -15.6252   27.6597 O   0  0  0  0  0  0  0  0  0  0  0  0
    8.4394  -17.0043   26.6847 O   0  0  0  0  0  0  0  0  0  0  0  0
  1  2  1  0
  3  4  2  0
  3  2  1  0
  6  5  1  1
  6  7  1  0
  6  8  1  0
  8  9  1  6
  9  3  1  0
 10 11  2  0
 10  8  1  0
 13 14  1  1
 13 12  1  0
 15 13  1  0
 16 15  1  1
 16 17  1  0
 17 10  1  0
 18 16  1  0
 19 18  1  0
 20 18  2  0
M  END
$$$$
