GTL.pdb
     RDKit          3D

 20 19  0  0  1  0  0  0  0  0999 V2000
    3.2803  -19.4533   21.7784 N   0  0  0  0  0  0  0  0  0  0  0  0
    3.8855  -18.1586   21.6804 C   0  0  0  0  0  0  0  0  0  0  0  0
    5.2801  -18.2053   22.1609 C   0  0  0  0  0  0  0  0  0  0  0  0
    5.7531  -19.1638   22.7975 O   0  0  0  0  0  0  0  0  0  0  0  0
    8.2404  -18.3762   20.4431 C   0  0  0  0  0  0  0  0  0  0  0  0
    8.4116  -17.0734   21.1936 C   0  0  1  0  0  0  0  0  0  0  0  0
    8.2833  -15.9681   20.3511 O   0  0  0  0  0  0  0  0  0  0  0  0
    7.4756  -16.9901   22.3773 C   0  0  2  0  0  0  0  0  0  0  0  0
    6.1219  -17.0886   21.8758 N   0  0  0  0  0  0  0  0  0  0  0  0
    7.6865  -15.7157   23.1515 C   0  0  0  0  0  0  0  0  0  0  0  0
    7.2509  -14.6276   22.7221 O   0  0  0  0  0  0  0  0  0  0  0  0
    8.0861  -11.8215   26.1935 C   0  0  0  0  0  0  0  0  0  0  0  0
    7.3508  -13.0144   26.7955 C   0  0  1  0  0  0  0  0  0  0  0  0
    5.9571  -12.4389   27.1608 C   0  0  0  0  0  0  0  0  0  0  0  0
    7.2129  -14.0217   25.7026 C   0  0  0  0  0  0  0  0  0  0  0  0
    8.4815  -14.7962   25.3967 C   0  0  2  0  0  0  0  0  0  0  0  0
    8.3814  -15.7720   24.3643 N   0  0  0  0  0  0  0  0  0  0  0  0
    9.2428  -15.1740   26.5872 C   0  0  0  0  0  0  0  0  0  0  0  0
    8.8225  -16.0679   27.5631 O   0  0  0  0  0  0  0  0  0  0  0  0
   10.3745  -14.6520   26.7518 O   0  0  0  0  0  0  0  0  0  0  0  0
  1  2  1  0
  3  4  2  0
  3  2  1  0
  6  5  1  6
  6  7  1  0
  6  8  1  0
  8  9  1  6
  9  3  1  0
 10 11  2  0
 10  8  1  0
 13 14  1  6
 13 12  1  0
 15 13  1  0
 16 15  1  1
 16 17  1  0
 17 10  1  0
 18 16  1  0
 19 18  1  0
 20 18  2  0
M  END
$$$$
