GTL.pdb
     RDKit          3D

 20 19  0  0  1  0  0  0  0  0999 V2000
    8.4086  -13.0630   17.7029 N   0  0  0  0  0  0  0  0  0  0  0  0
    9.1351  -13.4180   18.8855 C   0  0  0  0  0  0  0  0  0  0  0  0
    8.2371  -14.0544   19.8687 C   0  0  0  0  0  0  0  0  0  0  0  0
    7.1272  -14.5323   19.5733 O   0  0  0  0  0  0  0  0  0  0  0  0
    7.8324  -16.6176   20.1707 C   0  0  0  0  0  0  0  0  0  0  0  0
    8.4777  -16.4817   21.5327 C   0  0  1  0  0  0  0  0  0  0  0  0
    9.8453  -16.7568   21.4891 O   0  0  0  0  0  0  0  0  0  0  0  0
    8.1951  -15.1296   22.1460 C   0  0  2  0  0  0  0  0  0  0  0  0
    8.6734  -14.1203   21.2260 N   0  0  0  0  0  0  0  0  0  0  0  0
    8.8446  -14.9968   23.4981 C   0  0  0  0  0  0  0  0  0  0  0  0
   10.0815  -14.8650   23.6027 O   0  0  0  0  0  0  0  0  0  0  0  0
    5.5092  -12.3857   26.8126 C   0  0  0  0  0  0  0  0  0  0  0  0
    6.6508  -12.9055   25.9450 C   0  0  1  0  0  0  0  0  0  0  0  0
    7.5366  -11.6525   25.7166 C   0  0  0  0  0  0  0  0  0  0  0  0
    7.3894  -13.9047   26.7722 C   0  0  0  0  0  0  0  0  0  0  0  0
    8.3754  -14.7584   25.9964 C   0  0  2  0  0  0  0  0  0  0  0  0
    8.0358  -15.0239   24.6391 N   0  0  0  0  0  0  0  0  0  0  0  0
    8.9231  -15.8741   26.7677 C   0  0  0  0  0  0  0  0  0  0  0  0
    9.5161  -15.7750   28.0192 O   0  0  0  0  0  0  0  0  0  0  0  0
    8.8571  -17.0247   26.2656 O   0  0  0  0  0  0  0  0  0  0  0  0
  1  2  1  0
  3  4  2  0
  3  2  1  0
  6  5  1  6
  6  7  1  0
  6  8  1  0
  8  9  1  6
  9  3  1  0
 10 11  2  0
 10  8  1  0
 13 14  1  1
 13 12  1  0
 15 13  1  0
 16 15  1  1
 16 17  1  0
 17 10  1  0
 18 16  1  0
 19 18  1  0
 20 18  2  0
M  END
$$$$
