GTL.pdb
     RDKit          3D

 20 19  0  0  1  0  0  0  0  0999 V2000
    7.8451  -12.4708   18.2354 N   0  0  0  0  0  0  0  0  0  0  0  0
    8.7762  -12.8999   19.2360 C   0  0  0  0  0  0  0  0  0  0  0  0
    8.1347  -13.8562   20.1589 C   0  0  0  0  0  0  0  0  0  0  0  0
    6.9021  -13.9526   20.2969 O   0  0  0  0  0  0  0  0  0  0  0  0
    8.1903  -18.0075   22.5101 C   0  0  0  0  0  0  0  0  0  0  0  0
    8.8629  -16.9991   21.6042 C   0  0  1  0  0  0  0  0  0  0  0  0
    8.6344  -17.2787   20.2560 O   0  0  0  0  0  0  0  0  0  0  0  0
    8.4663  -15.5849   21.9604 C   0  0  2  0  0  0  0  0  0  0  0  0
    8.9802  -14.7103   20.9286 N   0  0  0  0  0  0  0  0  0  0  0  0
    8.9845  -15.1987   23.3206 C   0  0  0  0  0  0  0  0  0  0  0  0
   10.1992  -14.9751   23.5018 O   0  0  0  0  0  0  0  0  0  0  0  0
    5.6475  -12.1638   26.4981 C   0  0  0  0  0  0  0  0  0  0  0  0
    6.8763  -12.7047   25.7745 C   0  0  1  0  0  0  0  0  0  0  0  0
    7.9661  -11.6370   26.0558 C   0  0  0  0  0  0  0  0  0  0  0  0
    7.2353  -13.9861   26.4505 C   0  0  0  0  0  0  0  0  0  0  0  0
    8.3193  -14.7849   25.7506 C   0  0  2  0  0  0  0  0  0  0  0  0
    8.0787  -15.0944   24.3815 N   0  0  0  0  0  0  0  0  0  0  0  0
    8.8922  -15.8489   26.5746 C   0  0  0  0  0  0  0  0  0  0  0  0
    8.9873  -17.1862   26.2131 O   0  0  0  0  0  0  0  0  0  0  0  0
    9.3395  -15.5390   27.7078 O   0  0  0  0  0  0  0  0  0  0  0  0
  1  2  1  0
  3  4  2  0
  3  2  1  0
  6  5  1  1
  6  7  1  0
  6  8  1  0
  8  9  1  6
  9  3  1  0
 10 11  2  0
 10  8  1  0
 13 14  1  1
 13 12  1  0
 15 13  1  0
 16 15  1  1
 16 17  1  0
 17 10  1  0
 18 16  1  0
 19 18  1  0
 20 18  2  0
M  END
$$$$
