GTL.pdb
     RDKit          3D

 20 19  0  0  1  0  0  0  0  0999 V2000
    2.6992  -19.4521   21.5681 N   0  0  0  0  0  0  0  0  0  0  0  0
    3.2474  -18.1301   21.6311 C   0  0  0  0  0  0  0  0  0  0  0  0
    4.5153  -18.1349   22.3865 C   0  0  0  0  0  0  0  0  0  0  0  0
    4.6614  -18.7192   23.4750 O   0  0  0  0  0  0  0  0  0  0  0  0
    7.7834  -18.7876   20.6367 C   0  0  0  0  0  0  0  0  0  0  0  0
    7.9804  -17.5198   21.4392 C   0  0  1  0  0  0  0  0  0  0  0  0
    8.0716  -16.3947   20.6184 O   0  0  0  0  0  0  0  0  0  0  0  0
    6.9098  -17.3613   22.4941 C   0  0  2  0  0  0  0  0  0  0  0  0
    5.6253  -17.4301   21.8315 N   0  0  0  0  0  0  0  0  0  0  0  0
    7.0737  -16.0683   23.2484 C   0  0  0  0  0  0  0  0  0  0  0  0
    6.5687  -15.0102   22.8201 O   0  0  0  0  0  0  0  0  0  0  0  0
    7.8323  -11.8999   25.6776 C   0  0  0  0  0  0  0  0  0  0  0  0
    7.1480  -12.9541   26.5417 C   0  0  1  0  0  0  0  0  0  0  0  0
    5.8265  -12.2682   26.9778 C   0  0  0  0  0  0  0  0  0  0  0  0
    6.8481  -14.1076   25.6433 C   0  0  0  0  0  0  0  0  0  0  0  0
    8.0327  -15.0152   25.3673 C   0  0  2  0  0  0  0  0  0  0  0  0
    7.8042  -16.0728   24.4414 N   0  0  0  0  0  0  0  0  0  0  0  0
    8.8147  -15.3421   26.5594 C   0  0  0  0  0  0  0  0  0  0  0  0
    9.7773  -14.5276   27.1407 O   0  0  0  0  0  0  0  0  0  0  0  0
    8.6069  -16.4513   27.1133 O   0  0  0  0  0  0  0  0  0  0  0  0
  1  2  1  0
  3  4  2  0
  3  2  1  0
  6  5  1  6
  6  7  1  0
  6  8  1  0
  8  9  1  6
  9  3  1  0
 10 11  2  0
 10  8  1  0
 13 14  1  6
 13 12  1  0
 15 13  1  0
 16 15  1  1
 16 17  1  0
 17 10  1  0
 18 16  1  0
 19 18  1  0
 20 18  2  0
M  END
$$$$
