GTL.pdb
     RDKit          3D

 20 19  0  0  1  0  0  0  0  0999 V2000
    7.5129  -12.6058   18.0862 N   0  0  0  0  0  0  0  0  0  0  0  0
    8.5102  -13.3262   18.8202 C   0  0  0  0  0  0  0  0  0  0  0  0
    7.9178  -13.9430   20.0230 C   0  0  0  0  0  0  0  0  0  0  0  0
    6.8086  -13.6182   20.4833 O   0  0  0  0  0  0  0  0  0  0  0  0
    7.6706  -17.5936   20.5053 C   0  0  0  0  0  0  0  0  0  0  0  0
    8.3739  -17.0856   21.7452 C   0  0  1  0  0  0  0  0  0  0  0  0
    9.7180  -17.4607   21.7701 O   0  0  0  0  0  0  0  0  0  0  0  0
    8.2035  -15.5924   21.9048 C   0  0  2  0  0  0  0  0  0  0  0  0
    8.6633  -14.9640   20.6853 N   0  0  0  0  0  0  0  0  0  0  0  0
    8.9548  -15.0825   23.1063 C   0  0  0  0  0  0  0  0  0  0  0  0
   10.0608  -14.5187   22.9763 O   0  0  0  0  0  0  0  0  0  0  0  0
    7.1053  -11.8275   27.2249 C   0  0  0  0  0  0  0  0  0  0  0  0
    7.1750  -13.2548   26.6919 C   0  0  1  0  0  0  0  0  0  0  0  0
    6.0550  -13.3000   25.6193 C   0  0  0  0  0  0  0  0  0  0  0  0
    8.5093  -13.3973   26.0381 C   0  0  0  0  0  0  0  0  0  0  0  0
    8.8687  -14.8181   25.6442 C   0  0  2  0  0  0  0  0  0  0  0  0
    8.3904  -15.2521   24.3749 N   0  0  0  0  0  0  0  0  0  0  0  0
    8.7750  -15.7764   26.7452 C   0  0  0  0  0  0  0  0  0  0  0  0
    9.3958  -15.6486   27.9806 O   0  0  0  0  0  0  0  0  0  0  0  0
    8.0763  -16.8067   26.5703 O   0  0  0  0  0  0  0  0  0  0  0  0
  1  2  1  0
  3  4  2  0
  3  2  1  0
  6  5  1  6
  6  7  1  0
  6  8  1  0
  8  9  1  6
  9  3  1  0
 10 11  2  0
 10  8  1  0
 13 14  1  6
 13 12  1  0
 15 13  1  0
 16 15  1  1
 16 17  1  0
 17 10  1  0
 18 16  1  0
 19 18  1  0
 20 18  2  0
M  END
$$$$
