GTL.pdb
     RDKit          3D

 20 19  0  0  1  0  0  0  0  0999 V2000
   11.6210  -16.9126   18.6516 N   0  0  0  0  0  0  0  0  0  0  0  0
   10.7928  -17.3291   19.7437 C   0  0  0  0  0  0  0  0  0  0  0  0
   10.3044  -16.1564   20.4949 C   0  0  0  0  0  0  0  0  0  0  0  0
   10.8210  -15.0276   20.4136 O   0  0  0  0  0  0  0  0  0  0  0  0
    7.0319  -14.6608   20.3750 C   0  0  0  0  0  0  0  0  0  0  0  0
    7.1973  -15.0870   21.8176 C   0  0  1  0  0  0  0  0  0  0  0  0
    6.4445  -16.2247   22.1124 O   0  0  0  0  0  0  0  0  0  0  0  0
    8.6541  -15.2675   22.1771 C   0  0  2  0  0  0  0  0  0  0  0  0
    9.1809  -16.3364   21.3564 N   0  0  0  0  0  0  0  0  0  0  0  0
    8.8217  -15.5635   23.6442 C   0  0  0  0  0  0  0  0  0  0  0  0
    9.2071  -16.6866   24.0295 O   0  0  0  0  0  0  0  0  0  0  0  0
    5.8021  -11.9054   26.6780 C   0  0  0  0  0  0  0  0  0  0  0  0
    7.0688  -12.4756   26.0482 C   0  0  1  0  0  0  0  0  0  0  0  0
    8.1984  -11.5819   26.6247 C   0  0  0  0  0  0  0  0  0  0  0  0
    7.2092  -13.8681   26.5673 C   0  0  0  0  0  0  0  0  0  0  0  0
    8.3761  -14.6429   25.9834 C   0  0  2  0  0  0  0  0  0  0  0  0
    8.5372  -14.5553   24.5712 N   0  0  0  0  0  0  0  0  0  0  0  0
    8.5690  -15.9612   26.5869 C   0  0  0  0  0  0  0  0  0  0  0  0
    8.4506  -17.1761   25.9252 O   0  0  0  0  0  0  0  0  0  0  0  0
    8.8674  -16.0116   27.8070 O   0  0  0  0  0  0  0  0  0  0  0  0
  1  2  1  0
  3  4  2  0
  3  2  1  0
  6  5  1  6
  6  7  1  0
  6  8  1  0
  8  9  1  6
  9  3  1  0
 10 11  2  0
 10  8  1  0
 13 14  1  1
 13 12  1  0
 15 13  1  0
 16 15  1  6
 16 17  1  0
 17 10  1  0
 18 16  1  0
 19 18  1  0
 20 18  2  0
M  END
$$$$
