GTL.pdb
     RDKit          3D

 20 19  0  0  1  0  0  0  0  0999 V2000
    5.6169  -19.5378   21.6693 N   0  0  0  0  0  0  0  0  0  0  0  0
    5.4948  -18.1748   22.0929 C   0  0  0  0  0  0  0  0  0  0  0  0
    6.8041  -17.4969   22.0277 C   0  0  0  0  0  0  0  0  0  0  0  0
    7.8904  -18.1033   22.0417 O   0  0  0  0  0  0  0  0  0  0  0  0
    6.7324  -13.2888   21.1912 C   0  0  0  0  0  0  0  0  0  0  0  0
    7.8485  -14.2386   20.8143 C   0  0  1  0  0  0  0  0  0  0  0  0
    9.0370  -13.5603   20.5398 O   0  0  0  0  0  0  0  0  0  0  0  0
    8.0413  -15.3093   21.8634 C   0  0  2  0  0  0  0  0  0  0  0  0
    6.8145  -16.0722   21.9444 N   0  0  0  0  0  0  0  0  0  0  0  0
    8.4075  -14.7090   23.1951 C   0  0  0  0  0  0  0  0  0  0  0  0
    8.4411  -13.4709   23.3504 O   0  0  0  0  0  0  0  0  0  0  0  0
    5.9700  -12.6300   26.3147 C   0  0  0  0  0  0  0  0  0  0  0  0
    7.2957  -13.1696   25.7879 C   0  0  1  0  0  0  0  0  0  0  0  0
    8.3575  -12.4349   26.6479 C   0  0  0  0  0  0  0  0  0  0  0  0
    7.3121  -14.6292   26.0998 C   0  0  0  0  0  0  0  0  0  0  0  0
    8.5716  -15.3527   25.6603 C   0  0  2  0  0  0  0  0  0  0  0  0
    8.7105  -15.5653   24.2590 N   0  0  0  0  0  0  0  0  0  0  0  0
    8.9487  -16.4631   26.5346 C   0  0  0  0  0  0  0  0  0  0  0  0
    9.2917  -16.3530   27.8756 O   0  0  0  0  0  0  0  0  0  0  0  0
    8.9677  -17.6194   26.0419 O   0  0  0  0  0  0  0  0  0  0  0  0
  1  2  1  0
  3  4  2  0
  3  2  1  0
  6  5  1  1
  6  7  1  0
  6  8  1  0
  8  9  1  1
  9  3  1  0
 10 11  2  0
 10  8  1  0
 13 14  1  1
 13 12  1  0
 15 13  1  0
 16 15  1  6
 16 17  1  0
 17 10  1  0
 18 16  1  0
 19 18  1  0
 20 18  2  0
M  END
$$$$
