GTL.pdb
     RDKit          3D

 20 19  0  0  1  0  0  0  0  0999 V2000
   12.1854  -17.4379   18.9063 N   0  0  0  0  0  0  0  0  0  0  0  0
   11.1066  -17.7306   19.8023 C   0  0  0  0  0  0  0  0  0  0  0  0
   10.5870  -16.4875   20.4046 C   0  0  0  0  0  0  0  0  0  0  0  0
   11.1632  -15.3888   20.3117 O   0  0  0  0  0  0  0  0  0  0  0  0
    7.3795  -14.8159   19.8734 C   0  0  0  0  0  0  0  0  0  0  0  0
    7.3962  -15.2132   21.3335 C   0  0  1  0  0  0  0  0  0  0  0  0
    6.5879  -16.3243   21.5785 O   0  0  0  0  0  0  0  0  0  0  0  0
    8.8070  -15.4227   21.8334 C   0  0  2  0  0  0  0  0  0  0  0  0
    9.3594  -16.5595   21.1290 N   0  0  0  0  0  0  0  0  0  0  0  0
    8.8326  -15.6312   23.3246 C   0  0  0  0  0  0  0  0  0  0  0  0
    9.1752  -16.7287   23.8106 O   0  0  0  0  0  0  0  0  0  0  0  0
    7.2064  -11.7786   27.9470 C   0  0  0  0  0  0  0  0  0  0  0  0
    7.0256  -13.0993   27.2059 C   0  0  1  0  0  0  0  0  0  0  0  0
    5.6576  -12.9345   26.4930 C   0  0  0  0  0  0  0  0  0  0  0  0
    8.1200  -13.1693   26.1933 C   0  0  0  0  0  0  0  0  0  0  0  0
    8.3191  -14.5410   25.5754 C   0  0  2  0  0  0  0  0  0  0  0  0
    8.4645  -14.5705   24.1591 N   0  0  0  0  0  0  0  0  0  0  0  0
    7.4844  -15.5831   26.1728 C   0  0  0  0  0  0  0  0  0  0  0  0
    7.8056  -16.3250   27.3017 O   0  0  0  0  0  0  0  0  0  0  0  0
    6.3809  -15.8376   25.6271 O   0  0  0  0  0  0  0  0  0  0  0  0
  1  2  1  0
  3  4  2  0
  3  2  1  0
  6  5  1  6
  6  7  1  0
  6  8  1  0
  8  9  1  6
  9  3  1  0
 10 11  2  0
 10  8  1  0
 13 14  1  6
 13 12  1  0
 15 13  1  0
 16 15  1  6
 16 17  1  0
 17 10  1  0
 18 16  1  0
 19 18  1  0
 20 18  2  0
M  END
$$$$
