GTL.pdb
     RDKit          3D

 20 19  0  0  1  0  0  0  0  0999 V2000
    8.1291  -19.5143   19.3795 N   0  0  0  0  0  0  0  0  0  0  0  0
    7.3418  -18.6006   20.1526 C   0  0  0  0  0  0  0  0  0  0  0  0
    8.1279  -17.3955   20.4814 C   0  0  0  0  0  0  0  0  0  0  0  0
    9.3033  -17.4345   20.8872 O   0  0  0  0  0  0  0  0  0  0  0  0
    8.2056  -12.4626   20.5864 C   0  0  0  0  0  0  0  0  0  0  0  0
    7.5267  -13.7418   20.1474 C   0  0  1  0  0  0  0  0  0  0  0  0
    7.6686  -13.9609   18.7764 O   0  0  0  0  0  0  0  0  0  0  0  0
    8.0008  -14.9258   20.9583 C   0  0  2  0  0  0  0  0  0  0  0  0
    7.4987  -16.1245   20.3223 N   0  0  0  0  0  0  0  0  0  0  0  0
    7.5424  -14.8262   22.3894 C   0  0  0  0  0  0  0  0  0  0  0  0
    6.4423  -15.2989   22.7423 O   0  0  0  0  0  0  0  0  0  0  0  0
    7.5433  -11.9943   27.1392 C   0  0  0  0  0  0  0  0  0  0  0  0
    6.6525  -13.0732   26.5320 C   0  0  1  0  0  0  0  0  0  0  0  0
    5.2168  -12.5260   26.7468 C   0  0  0  0  0  0  0  0  0  0  0  0
    6.9679  -13.1107   25.0736 C   0  0  0  0  0  0  0  0  0  0  0  0
    8.1674  -13.9666   24.7108 C   0  0  2  0  0  0  0  0  0  0  0  0
    8.3729  -14.1927   23.3198 N   0  0  0  0  0  0  0  0  0  0  0  0
    8.3647  -15.1115   25.5994 C   0  0  0  0  0  0  0  0  0  0  0  0
    9.4604  -15.3088   26.4292 O   0  0  0  0  0  0  0  0  0  0  0  0
    7.4741  -15.9983   25.6227 O   0  0  0  0  0  0  0  0  0  0  0  0
  1  2  1  0
  3  4  2  0
  3  2  1  0
  6  5  1  1
  6  7  1  0
  6  8  1  0
  8  9  1  6
  9  3  1  0
 10 11  2  0
 10  8  1  0
 13 14  1  6
 13 12  1  0
 15 13  1  0
 16 15  1  6
 16 17  1  0
 17 10  1  0
 18 16  1  0
 19 18  1  0
 20 18  2  0
M  END
$$$$
