EQM.pdb
     RDKit          3D

 27 26  0  0  1  0  0  0  0  0999 V2000
   13.5774   -9.8226  -11.9558 N   0  0  0  0  0  0  0  0  0  0  0  0
   15.0251   -9.7686  -11.8578 C   0  0  1  0  0  0  0  0  0  0  0  0
   15.6746  -10.4570  -13.0236 C   0  0  0  0  0  0  0  0  0  0  0  0
   15.4469  -11.9533  -13.0070 C   0  0  0  0  0  0  0  0  0  0  0  0
   16.1602  -12.5278  -14.1754 C   0  0  0  0  0  0  0  0  0  0  0  0
   15.5619  -12.8872  -15.2239 O   0  0  0  0  0  0  0  0  0  0  0  0
   15.4973   -8.3689  -11.8368 C   0  0  0  0  0  0  0  0  0  0  0  0
   15.1259   -7.5935  -12.7463 O   0  0  0  0  0  0  0  0  0  0  0  0
   17.5503  -12.6718  -14.1006 O   0  0  0  0  0  0  0  0  0  0  0  0
   15.6488   -3.8887   -7.6064 N   0  0  0  0  0  0  0  0  0  0  0  0
   14.8038   -4.9471   -8.0390 C   0  0  0  0  0  0  0  0  0  0  0  0
   13.9016   -5.3519   -7.2880 O   0  0  0  0  0  0  0  0  0  0  0  0
   15.0167   -5.5565   -9.3949 C   0  0  0  0  0  0  0  0  0  0  0  0
   16.4618   -5.9386   -9.5019 C   0  0  0  0  0  0  0  0  0  0  0  0
   16.8643   -6.5646  -10.7869 C   0  0  2  0  0  0  0  0  0  0  0  0
   16.3526   -7.9392  -10.7977 N   0  0  0  0  0  0  0  0  0  0  0  0
   18.3382   -6.6302  -10.9057 C   0  0  0  0  0  0  0  0  0  0  0  0
   19.0457   -7.4474  -10.2330 O   0  0  0  0  0  0  0  0  0  0  0  0
   23.7407  -10.0390  -13.8039 C   0  0  0  0  0  0  0  0  0  0  0  0
   22.0309   -9.5381  -13.4470 S   0  0  0  0  0  0  0  0  0  0  0  0
   21.9606   -7.7653  -13.0301 C   0  0  0  0  0  0  0  0  0  0  0  0
   20.6018   -7.3844  -12.5599 C   0  0  0  0  0  0  0  0  0  0  0  0
   20.4289   -5.9603  -12.1308 C   0  0  2  0  0  0  0  0  0  0  0  0
   19.0194   -5.7635  -11.7922 N   0  0  0  0  0  0  0  0  0  0  0  0
   20.8465   -4.9787  -13.1632 C   0  0  0  0  0  0  0  0  0  0  0  0
   20.0154   -4.4948  -13.9894 O   0  0  0  0  0  0  0  0  0  0  0  0
   22.1723   -4.5919  -13.2107 O   0  0  0  0  0  0  0  0  0  0  0  0
  2  1  1  6
  3  4  1  0
  3  2  1  0
  5  4  1  0
  5  6  2  0
  7  2  1  0
  7  8  2  0
  9  5  1  0
 10 11  1  0
 11 13  1  0
 12 11  2  0
 13 14  1  0
 15 14  1  1
 15 16  1  0
 16  7  1  0
 17 15  1  0
 18 17  2  0
 19 20  1  0
 20 21  1  0
 21 22  1  0
 23 22  1  6
 23 24  1  0
 23 25  1  0
 24 17  1  0
 25 27  1  0
 26 25  2  0
M  END
$$$$
