EQM.pdb
     RDKit          3D

 27 26  0  0  1  0  0  0  0  0999 V2000
   18.4284  -21.4961  -13.5030 N   0  0  0  0  0  0  0  0  0  0  0  0
   19.5919  -21.2599  -14.3389 C   0  0  1  0  0  0  0  0  0  0  0  0
   19.7735  -19.7952  -14.6157 C   0  0  0  0  0  0  0  0  0  0  0  0
   18.6357  -18.9613  -14.0672 C   0  0  0  0  0  0  0  0  0  0  0  0
   19.2222  -17.7206  -13.5009 C   0  0  0  0  0  0  0  0  0  0  0  0
   20.2676  -17.1932  -13.9650 O   0  0  0  0  0  0  0  0  0  0  0  0
   20.8192  -21.7528  -13.6805 C   0  0  0  0  0  0  0  0  0  0  0  0
   20.8256  -21.8816  -12.4357 O   0  0  0  0  0  0  0  0  0  0  0  0
   18.5828  -17.1208  -12.4101 O   0  0  0  0  0  0  0  0  0  0  0  0
   24.7927  -25.0318  -16.8613 N   0  0  0  0  0  0  0  0  0  0  0  0
   25.4886  -25.0951  -15.6232 C   0  0  0  0  0  0  0  0  0  0  0  0
   26.4986  -25.8111  -15.5279 O   0  0  0  0  0  0  0  0  0  0  0  0
   24.9908  -24.2958  -14.4533 C   0  0  0  0  0  0  0  0  0  0  0  0
   23.7552  -23.5686  -14.8897 C   0  0  0  0  0  0  0  0  0  0  0  0
   23.1125  -22.7208  -13.8537 C   0  0  2  0  0  0  0  0  0  0  0  0
   21.9516  -22.0654  -14.4653 N   0  0  0  0  0  0  0  0  0  0  0  0
   24.0358  -21.6620  -13.3878 C   0  0  0  0  0  0  0  0  0  0  0  0
   24.2070  -20.5718  -14.0228 O   0  0  0  0  0  0  0  0  0  0  0  0
   25.8616  -20.8369   -7.1584 C   0  0  0  0  0  0  0  0  0  0  0  0
   27.4764  -20.7944   -7.9904 S   0  0  0  0  0  0  0  0  0  0  0  0
   27.2702  -20.4202   -9.7622 C   0  0  0  0  0  0  0  0  0  0  0  0
   26.1167  -21.1671  -10.3313 C   0  0  0  0  0  0  0  0  0  0  0  0
   25.7745  -20.8633  -11.7570 C   0  0  2  0  0  0  0  0  0  0  0  0
   24.7736  -21.8368  -12.1937 N   0  0  0  0  0  0  0  0  0  0  0  0
   26.9484  -20.8976  -12.6651 C   0  0  0  0  0  0  0  0  0  0  0  0
   27.2638  -21.9501  -13.2979 O   0  0  0  0  0  0  0  0  0  0  0  0
   27.7023  -19.7493  -12.8156 O   0  0  0  0  0  0  0  0  0  0  0  0
  2  1  1  1
  3  4  1  0
  3  2  1  0
  5  4  1  0
  5  6  2  0
  7  2  1  0
  7  8  2  0
  9  5  1  0
 10 11  1  0
 11 13  1  0
 12 11  2  0
 13 14  1  0
 15 14  1  6
 15 16  1  0
 16  7  1  0
 17 15  1  0
 18 17  2  0
 19 20  1  0
 20 21  1  0
 21 22  1  0
 23 22  1  1
 23 24  1  0
 23 25  1  0
 24 17  1  0
 25 27  1  0
 26 25  2  0
M  END
$$$$
