EQM.pdb
     RDKit          3D

 27 26  0  0  1  0  0  0  0  0999 V2000
   28.1930  -17.6594  -17.2886 N   0  0  0  0  0  0  0  0  0  0  0  0
   27.6740  -18.9395  -16.8411 C   0  0  1  0  0  0  0  0  0  0  0  0
   28.7854  -19.9143  -16.5779 C   0  0  0  0  0  0  0  0  0  0  0  0
   29.5828  -20.2273  -17.8257 C   0  0  0  0  0  0  0  0  0  0  0  0
   28.7186  -21.0410  -18.7173 C   0  0  0  0  0  0  0  0  0  0  0  0
   29.0219  -21.2857  -19.9150 O   0  0  0  0  0  0  0  0  0  0  0  0
   26.9014  -18.7840  -15.5915 C   0  0  0  0  0  0  0  0  0  0  0  0
   27.2183  -17.8712  -14.7962 O   0  0  0  0  0  0  0  0  0  0  0  0
   27.5232  -21.5519  -18.1990 O   0  0  0  0  0  0  0  0  0  0  0  0
   21.1018  -20.1658  -15.4343 N   0  0  0  0  0  0  0  0  0  0  0  0
   21.2187  -19.9552  -14.0331 C   0  0  0  0  0  0  0  0  0  0  0  0
   20.1991  -19.9872  -13.3251 O   0  0  0  0  0  0  0  0  0  0  0  0
   22.5716  -19.6982  -13.4341 C   0  0  0  0  0  0  0  0  0  0  0  0
   23.5720  -19.6960  -14.5499 C   0  0  0  0  0  0  0  0  0  0  0  0
   24.9799  -19.4513  -14.1461 C   0  0  2  0  0  0  0  0  0  0  0  0
   25.8291  -19.6638  -15.3231 N   0  0  0  0  0  0  0  0  0  0  0  0
   25.4062  -20.4102  -13.1023 C   0  0  0  0  0  0  0  0  0  0  0  0
   25.6239  -21.6404  -13.3476 O   0  0  0  0  0  0  0  0  0  0  0  0
   27.9527  -18.2376   -7.6575 C   0  0  0  0  0  0  0  0  0  0  0  0
   27.2241  -19.7404   -6.9417 S   0  0  0  0  0  0  0  0  0  0  0  0
   26.6284  -20.8493   -8.2597 C   0  0  0  0  0  0  0  0  0  0  0  0
   26.4031  -20.0979   -9.5235 C   0  0  0  0  0  0  0  0  0  0  0  0
   25.9401  -20.9058  -10.6961 C   0  0  2  0  0  0  0  0  0  0  0  0
   25.5871  -19.9755  -11.7684 N   0  0  0  0  0  0  0  0  0  0  0  0
   24.7864  -21.7872  -10.3860 C   0  0  0  0  0  0  0  0  0  0  0  0
   23.5933  -21.3652  -10.4626 O   0  0  0  0  0  0  0  0  0  0  0  0
   25.0341  -23.0935  -10.0098 O   0  0  0  0  0  0  0  0  0  0  0  0
  2  1  1  1
  3  4  1  0
  3  2  1  0
  5  4  1  0
  5  6  2  0
  7  2  1  0
  7  8  2  0
  9  5  1  0
 10 11  1  0
 11 13  1  0
 12 11  2  0
 13 14  1  0
 15 14  1  6
 15 16  1  0
 16  7  1  0
 17 15  1  0
 18 17  2  0
 19 20  1  0
 20 21  1  0
 21 22  1  0
 23 22  1  1
 23 24  1  0
 23 25  1  0
 24 17  1  0
 25 27  1  0
 26 25  2  0
M  END
$$$$
