EQM.pdb
     RDKit          3D

 27 26  0  0  1  0  0  0  0  0999 V2000
   14.8875  -12.9755  -17.0637 N   0  0  0  0  0  0  0  0  0  0  0  0
   15.8912  -12.6325  -16.0721 C   0  0  1  0  0  0  0  0  0  0  0  0
   16.6895  -13.8383  -15.6677 C   0  0  0  0  0  0  0  0  0  0  0  0
   15.8491  -14.8668  -14.9418 C   0  0  0  0  0  0  0  0  0  0  0  0
   16.7495  -15.9752  -14.5360 C   0  0  0  0  0  0  0  0  0  0  0  0
   16.3386  -16.9839  -13.9035 O   0  0  0  0  0  0  0  0  0  0  0  0
   16.8307  -11.6241  -16.6044 C   0  0  0  0  0  0  0  0  0  0  0  0
   17.0527  -11.5973  -17.8357 O   0  0  0  0  0  0  0  0  0  0  0  0
   18.1051  -15.8878  -14.8731 O   0  0  0  0  0  0  0  0  0  0  0  0
   16.3014   -6.1508  -16.3728 N   0  0  0  0  0  0  0  0  0  0  0  0
   17.6680   -6.0359  -16.7475 C   0  0  0  0  0  0  0  0  0  0  0  0
   18.1135   -4.9302  -17.0950 O   0  0  0  0  0  0  0  0  0  0  0  0
   18.5482   -7.2523  -16.7167 C   0  0  0  0  0  0  0  0  0  0  0  0
   17.7080   -8.4128  -16.2770 C   0  0  0  0  0  0  0  0  0  0  0  0
   18.4036   -9.7238  -16.2284 C   0  0  2  0  0  0  0  0  0  0  0  0
   17.4541  -10.7183  -15.7174 N   0  0  0  0  0  0  0  0  0  0  0  0
   19.5548   -9.6789  -15.2991 C   0  0  0  0  0  0  0  0  0  0  0  0
   19.4165   -9.5469  -14.0404 O   0  0  0  0  0  0  0  0  0  0  0  0
   27.3931  -11.0356  -15.0010 C   0  0  0  0  0  0  0  0  0  0  0  0
   25.8227  -11.0292  -15.9153 S   0  0  0  0  0  0  0  0  0  0  0  0
   24.5075  -10.2585  -14.9164 C   0  0  0  0  0  0  0  0  0  0  0  0
   23.2143  -10.2585  -15.6513 C   0  0  0  0  0  0  0  0  0  0  0  0
   22.0394   -9.6917  -14.9162 C   0  0  2  0  0  0  0  0  0  0  0  0
   20.8747   -9.7832  -15.7967 N   0  0  0  0  0  0  0  0  0  0  0  0
   22.2390   -8.2868  -14.4798 C   0  0  0  0  0  0  0  0  0  0  0  0
   22.2027   -7.3265  -15.3070 O   0  0  0  0  0  0  0  0  0  0  0  0
   22.4656   -8.0359  -13.1400 O   0  0  0  0  0  0  0  0  0  0  0  0
  2  1  1  6
  3  4  1  0
  3  2  1  0
  5  4  1  0
  5  6  2  0
  7  2  1  0
  7  8  2  0
  9  5  1  0
 10 11  1  0
 11 13  1  0
 12 11  2  0
 13 14  1  0
 15 14  1  1
 15 16  1  0
 16  7  1  0
 17 15  1  0
 18 17  2  0
 19 20  1  0
 20 21  1  0
 21 22  1  0
 23 22  1  6
 23 24  1  0
 23 25  1  0
 24 17  1  0
 25 27  1  0
 26 25  2  0
M  END
$$$$
