EQM.pdb
     RDKit          3D

 27 26  0  0  1  0  0  0  0  0999 V2000
   14.4773  -10.0981  -13.9772 N   0  0  0  0  0  0  0  0  0  0  0  0
   15.9211   -9.9585  -13.9106 C   0  0  1  0  0  0  0  0  0  0  0  0
   16.5248   -9.8971  -15.2841 C   0  0  0  0  0  0  0  0  0  0  0  0
   16.3645  -11.1980  -16.0410 C   0  0  0  0  0  0  0  0  0  0  0  0
   16.9446  -11.0036  -17.3937 C   0  0  0  0  0  0  0  0  0  0  0  0
   18.1862  -10.9390  -17.5947 O   0  0  0  0  0  0  0  0  0  0  0  0
   16.2957   -8.7217  -13.1946 C   0  0  0  0  0  0  0  0  0  0  0  0
   15.6805   -7.6637  -13.4560 O   0  0  0  0  0  0  0  0  0  0  0  0
   16.0712  -10.8887  -18.4812 O   0  0  0  0  0  0  0  0  0  0  0  0
   16.4602   -5.6296   -9.0605 N   0  0  0  0  0  0  0  0  0  0  0  0
   15.6550   -6.8010   -9.0870 C   0  0  0  0  0  0  0  0  0  0  0  0
   14.4703   -6.7343   -8.7210 O   0  0  0  0  0  0  0  0  0  0  0  0
   16.2504   -8.0973   -9.5564 C   0  0  0  0  0  0  0  0  0  0  0  0
   17.6283   -7.8076  -10.0693 C   0  0  0  0  0  0  0  0  0  0  0  0
   17.7249   -7.5380  -11.5264 C   0  0  2  0  0  0  0  0  0  0  0  0
   17.3338   -8.7601  -12.2371 N   0  0  0  0  0  0  0  0  0  0  0  0
   19.1161   -7.2151  -11.9146 C   0  0  0  0  0  0  0  0  0  0  0  0
   19.7328   -6.1927  -11.4725 O   0  0  0  0  0  0  0  0  0  0  0  0
   25.7995  -10.3173  -14.7332 C   0  0  0  0  0  0  0  0  0  0  0  0
   24.0240  -10.4809  -14.3828 S   0  0  0  0  0  0  0  0  0  0  0  0
   23.2907   -8.8492  -14.0345 C   0  0  0  0  0  0  0  0  0  0  0  0
   21.8800   -8.9869  -13.5836 C   0  0  0  0  0  0  0  0  0  0  0  0
   21.1491   -7.7094  -13.3086 C   0  0  2  0  0  0  0  0  0  0  0  0
   19.8171   -8.0545  -12.8117 N   0  0  0  0  0  0  0  0  0  0  0  0
   21.0365   -6.8270  -14.4971 C   0  0  0  0  0  0  0  0  0  0  0  0
   20.1238   -6.9954  -15.3609 O   0  0  0  0  0  0  0  0  0  0  0  0
   21.9517   -5.8031  -14.6502 O   0  0  0  0  0  0  0  0  0  0  0  0
  2  1  1  6
  3  4  1  0
  3  2  1  0
  5  4  1  0
  5  6  2  0
  7  2  1  0
  7  8  2  0
  9  5  1  0
 10 11  1  0
 11 13  1  0
 12 11  2  0
 13 14  1  0
 15 14  1  1
 15 16  1  0
 16  7  1  0
 17 15  1  0
 18 17  2  0
 19 20  1  0
 20 21  1  0
 21 22  1  0
 23 22  1  6
 23 24  1  0
 23 25  1  0
 24 17  1  0
 25 27  1  0
 26 25  2  0
M  END
$$$$
