EQM.pdb
     RDKit          3D

 27 26  0  0  1  0  0  0  0  0999 V2000
   22.6406   -7.8885  -16.9748 N   0  0  0  0  0  0  0  0  0  0  0  0
   21.6263   -8.0986  -15.9572 C   0  0  1  0  0  0  0  0  0  0  0  0
   21.9936   -7.4109  -14.6739 C   0  0  0  0  0  0  0  0  0  0  0  0
   22.2578   -5.9333  -14.8689 C   0  0  0  0  0  0  0  0  0  0  0  0
   22.4900   -5.3391  -13.5285 C   0  0  0  0  0  0  0  0  0  0  0  0
   22.7377   -4.1152  -13.3644 O   0  0  0  0  0  0  0  0  0  0  0  0
   20.3213   -7.5660  -16.4000 C   0  0  0  0  0  0  0  0  0  0  0  0
   20.2987   -6.6971  -17.3003 O   0  0  0  0  0  0  0  0  0  0  0  0
   22.4294   -6.1781  -12.4099 O   0  0  0  0  0  0  0  0  0  0  0  0
   15.3016  -10.8487  -15.6727 N   0  0  0  0  0  0  0  0  0  0  0  0
   14.6686   -9.7281  -16.2766 C   0  0  0  0  0  0  0  0  0  0  0  0
   13.4663   -9.7975  -16.5790 O   0  0  0  0  0  0  0  0  0  0  0  0
   15.4639   -8.4813  -16.5380 C   0  0  0  0  0  0  0  0  0  0  0  0
   16.8579   -8.7163  -16.0407 C   0  0  0  0  0  0  0  0  0  0  0  0
   17.8281   -7.6269  -16.3181 C   0  0  2  0  0  0  0  0  0  0  0  0
   19.1352   -8.0458  -15.8009 N   0  0  0  0  0  0  0  0  0  0  0  0
   17.4422   -6.3822  -15.6164 C   0  0  0  0  0  0  0  0  0  0  0  0
   17.6443   -6.2045  -14.3720 O   0  0  0  0  0  0  0  0  0  0  0  0
   16.5600    1.3192  -16.9480 C   0  0  0  0  0  0  0  0  0  0  0  0
   16.9483   -0.3668  -17.5037 S   0  0  0  0  0  0  0  0  0  0  0  0
   16.4522   -1.5835  -16.2407 C   0  0  0  0  0  0  0  0  0  0  0  0
   16.8603   -2.9574  -16.6386 C   0  0  0  0  0  0  0  0  0  0  0  0
   16.4958   -4.0541  -15.6866 C   0  0  2  0  0  0  0  0  0  0  0  0
   16.8211   -5.3285  -16.3270 N   0  0  0  0  0  0  0  0  0  0  0  0
   15.0664   -4.0358  -15.2857 C   0  0  0  0  0  0  0  0  0  0  0  0
   14.6511   -3.2824  -14.3544 O   0  0  0  0  0  0  0  0  0  0  0  0
   14.1815   -4.8614  -15.9526 O   0  0  0  0  0  0  0  0  0  0  0  0
  2  1  1  6
  3  4  1  0
  3  2  1  0
  5  4  1  0
  5  6  2  0
  7  2  1  0
  7  8  2  0
  9  5  1  0
 10 11  1  0
 11 13  1  0
 12 11  2  0
 13 14  1  0
 15 14  1  1
 15 16  1  0
 16  7  1  0
 17 15  1  0
 18 17  2  0
 19 20  1  0
 20 21  1  0
 21 22  1  0
 23 22  1  6
 23 24  1  0
 23 25  1  0
 24 17  1  0
 25 27  1  0
 26 25  2  0
M  END
$$$$
