EQM.pdb
     RDKit          3D

 27 26  0  0  1  0  0  0  0  0999 V2000
   20.3345  -30.2927   -8.9746 N   0  0  0  0  0  0  0  0  0  0  0  0
   20.6933  -29.2207   -9.8859 C   0  0  1  0  0  0  0  0  0  0  0  0
   21.0058  -29.7532  -11.2547 C   0  0  0  0  0  0  0  0  0  0  0  0
   22.3059  -30.5275  -11.2871 C   0  0  0  0  0  0  0  0  0  0  0  0
   22.0469  -31.8085  -11.9913 C   0  0  0  0  0  0  0  0  0  0  0  0
   20.9069  -32.1248  -12.4234 O   0  0  0  0  0  0  0  0  0  0  0  0
   19.5855  -28.2521  -10.0179 C   0  0  0  0  0  0  0  0  0  0  0  0
   18.4193  -28.6849  -10.1554 O   0  0  0  0  0  0  0  0  0  0  0  0
   23.1159  -32.6923  -12.1780 O   0  0  0  0  0  0  0  0  0  0  0  0
   16.9758  -23.6373   -7.5706 N   0  0  0  0  0  0  0  0  0  0  0  0
   17.3642  -24.8414   -6.9222 C   0  0  0  0  0  0  0  0  0  0  0  0
   16.8100  -25.1674   -5.8599 O   0  0  0  0  0  0  0  0  0  0  0  0
   18.4367  -25.6974   -7.5324 C   0  0  0  0  0  0  0  0  0  0  0  0
   18.8680  -25.0463   -8.8114 C   0  0  0  0  0  0  0  0  0  0  0  0
   18.7684  -25.8944  -10.0262 C   0  0  2  0  0  0  0  0  0  0  0  0
   19.8651  -26.8677   -9.9867 N   0  0  0  0  0  0  0  0  0  0  0  0
   18.9284  -25.0830  -11.2537 C   0  0  0  0  0  0  0  0  0  0  0  0
   19.9305  -25.2021  -12.0299 O   0  0  0  0  0  0  0  0  0  0  0  0
   20.1671  -25.9269  -16.2985 C   0  0  0  0  0  0  0  0  0  0  0  0
   18.5115  -25.2246  -16.5588 S   0  0  0  0  0  0  0  0  0  0  0  0
   18.1902  -23.8902  -15.3597 C   0  0  0  0  0  0  0  0  0  0  0  0
   18.1387  -24.4245  -13.9725 C   0  0  0  0  0  0  0  0  0  0  0  0
   17.9945  -23.4097  -12.8811 C   0  0  2  0  0  0  0  0  0  0  0  0
   17.9474  -24.1271  -11.6070 N   0  0  0  0  0  0  0  0  0  0  0  0
   16.7909  -22.5530  -13.0280 C   0  0  0  0  0  0  0  0  0  0  0  0
   15.7393  -22.7700  -12.3538 O   0  0  0  0  0  0  0  0  0  0  0  0
   16.8339  -21.4991  -13.9206 O   0  0  0  0  0  0  0  0  0  0  0  0
  2  1  1  1
  3  4  1  0
  3  2  1  0
  5  4  1  0
  5  6  2  0
  7  2  1  0
  7  8  2  0
  9  5  1  0
 10 11  1  0
 11 13  1  0
 12 11  2  0
 13 14  1  0
 15 14  1  1
 15 16  1  0
 16  7  1  0
 17 15  1  0
 18 17  2  0
 19 20  1  0
 20 21  1  0
 21 22  1  0
 23 22  1  6
 23 24  1  0
 23 25  1  0
 24 17  1  0
 25 27  1  0
 26 25  2  0
M  END
$$$$
