EQM.pdb
     RDKit          3D

 27 26  0  0  1  0  0  0  0  0999 V2000
   15.7983  -10.2840  -10.4560 N   0  0  0  0  0  0  0  0  0  0  0  0
   15.4044   -9.0023  -11.0132 C   0  0  1  0  0  0  0  0  0  0  0  0
   15.3584   -7.9401   -9.9529 C   0  0  0  0  0  0  0  0  0  0  0  0
   14.4972   -8.3411   -8.7746 C   0  0  0  0  0  0  0  0  0  0  0  0
   14.5962   -7.2622   -7.7597 C   0  0  0  0  0  0  0  0  0  0  0  0
   15.6899   -6.9274   -7.2323 O   0  0  0  0  0  0  0  0  0  0  0  0
   16.3607   -8.5660  -12.0514 C   0  0  0  0  0  0  0  0  0  0  0  0
   17.1947   -9.3906  -12.4880 O   0  0  0  0  0  0  0  0  0  0  0  0
   13.4248   -6.5971   -7.3802 O   0  0  0  0  0  0  0  0  0  0  0  0
   15.1330   -4.1444  -15.9604 N   0  0  0  0  0  0  0  0  0  0  0  0
   15.2354   -5.4572  -16.4965 C   0  0  0  0  0  0  0  0  0  0  0  0
   14.7208   -5.7069  -17.5986 O   0  0  0  0  0  0  0  0  0  0  0  0
   15.9633   -6.5179  -15.7217 C   0  0  0  0  0  0  0  0  0  0  0  0
   16.5104   -5.8818  -14.4800 C   0  0  0  0  0  0  0  0  0  0  0  0
   17.2465   -6.7920  -13.5663 C   0  0  2  0  0  0  0  0  0  0  0  0
   16.3134   -7.2359  -12.5252 N   0  0  0  0  0  0  0  0  0  0  0  0
   18.3633   -6.0848  -12.9004 C   0  0  0  0  0  0  0  0  0  0  0  0
   18.4466   -5.9705  -11.6351 O   0  0  0  0  0  0  0  0  0  0  0  0
   24.1176  -10.2186  -14.0080 C   0  0  0  0  0  0  0  0  0  0  0  0
   22.4150   -9.5914  -14.1072 S   0  0  0  0  0  0  0  0  0  0  0  0
   22.3594   -7.8263  -13.6567 C   0  0  0  0  0  0  0  0  0  0  0  0
   20.9754   -7.2932  -13.7704 C   0  0  0  0  0  0  0  0  0  0  0  0
   20.8024   -5.8391  -13.4580 C   0  0  2  0  0  0  0  0  0  0  0  0
   19.3953   -5.5004  -13.6713 N   0  0  0  0  0  0  0  0  0  0  0  0
   21.6690   -4.9533  -14.2755 C   0  0  0  0  0  0  0  0  0  0  0  0
   21.3855   -4.6810  -15.4809 O   0  0  0  0  0  0  0  0  0  0  0  0
   22.8042   -4.4198  -13.6957 O   0  0  0  0  0  0  0  0  0  0  0  0
  2  1  1  1
  3  4  1  0
  3  2  1  0
  5  4  1  0
  5  6  2  0
  7  2  1  0
  7  8  2  0
  9  5  1  0
 10 11  1  0
 11 13  1  0
 12 11  2  0
 13 14  1  0
 15 14  1  6
 15 16  1  0
 16  7  1  0
 17 15  1  0
 18 17  2  0
 19 20  1  0
 20 21  1  0
 21 22  1  0
 23 22  1  6
 23 24  1  0
 23 25  1  0
 24 17  1  0
 25 27  1  0
 26 25  2  0
M  END
$$$$
