EQM.pdb
     RDKit          3D

 27 26  0  0  1  0  0  0  0  0999 V2000
   27.9147  -21.6541  -15.9826 N   0  0  0  0  0  0  0  0  0  0  0  0
   27.3060  -20.5380  -15.2811 C   0  0  1  0  0  0  0  0  0  0  0  0
   27.2766  -19.3072  -16.1407 C   0  0  0  0  0  0  0  0  0  0  0  0
   26.7423  -19.5882  -17.5287 C   0  0  0  0  0  0  0  0  0  0  0  0
   26.9179  -18.3539  -18.3347 C   0  0  0  0  0  0  0  0  0  0  0  0
   25.9539  -17.6044  -18.6434 O   0  0  0  0  0  0  0  0  0  0  0  0
   25.9155  -20.8561  -14.8964 C   0  0  0  0  0  0  0  0  0  0  0  0
   25.3227  -21.7842  -15.4910 O   0  0  0  0  0  0  0  0  0  0  0  0
   28.2070  -18.0177  -18.7634 O   0  0  0  0  0  0  0  0  0  0  0  0
   25.4467  -20.3428   -9.4224 N   0  0  0  0  0  0  0  0  0  0  0  0
   25.5927  -21.6277  -10.0132 C   0  0  0  0  0  0  0  0  0  0  0  0
   26.3181  -22.4722   -9.4633 O   0  0  0  0  0  0  0  0  0  0  0  0
   24.8678  -21.9411  -11.2905 C   0  0  0  0  0  0  0  0  0  0  0  0
   24.2590  -20.6677  -11.7942 C   0  0  0  0  0  0  0  0  0  0  0  0
   24.0476  -20.5968  -13.2624 C   0  0  2  0  0  0  0  0  0  0  0  0
   25.2894  -20.1103  -13.8729 N   0  0  0  0  0  0  0  0  0  0  0  0
   22.9727  -19.6360  -13.5973 C   0  0  0  0  0  0  0  0  0  0  0  0
   23.2104  -18.4698  -14.0495 O   0  0  0  0  0  0  0  0  0  0  0  0
   21.8662  -16.6533  -18.4051 C   0  0  0  0  0  0  0  0  0  0  0  0
   22.1911  -17.9099  -17.1333 S   0  0  0  0  0  0  0  0  0  0  0  0
   20.6660  -18.8272  -16.7404 C   0  0  0  0  0  0  0  0  0  0  0  0
   20.9220  -19.8624  -15.7034 C   0  0  0  0  0  0  0  0  0  0  0  0
   20.5629  -19.4897  -14.2985 C   0  0  2  0  0  0  0  0  0  0  0  0
   21.6164  -19.9956  -13.4185 N   0  0  0  0  0  0  0  0  0  0  0  0
   19.2432  -20.0162  -13.8679 C   0  0  0  0  0  0  0  0  0  0  0  0
   19.1071  -21.2121  -13.4694 O   0  0  0  0  0  0  0  0  0  0  0  0
   18.1498  -19.1722  -13.9055 O   0  0  0  0  0  0  0  0  0  0  0  0
  2  1  1  6
  3  4  1  0
  3  2  1  0
  5  4  1  0
  5  6  2  0
  7  2  1  0
  7  8  2  0
  9  5  1  0
 10 11  1  0
 11 13  1  0
 12 11  2  0
 13 14  1  0
 15 14  1  1
 15 16  1  0
 16  7  1  0
 17 15  1  0
 18 17  2  0
 19 20  1  0
 20 21  1  0
 21 22  1  0
 23 22  1  6
 23 24  1  0
 23 25  1  0
 24 17  1  0
 25 27  1  0
 26 25  2  0
M  END
$$$$
