EQM.pdb
     RDKit          3D

 27 26  0  0  1  0  0  0  0  0999 V2000
   26.1571  -18.7262  -16.5430 N   0  0  0  0  0  0  0  0  0  0  0  0
   26.5989  -19.5515  -15.4330 C   0  0  1  0  0  0  0  0  0  0  0  0
   28.0474  -19.3100  -15.1195 C   0  0  0  0  0  0  0  0  0  0  0  0
   28.9593  -19.7416  -16.2479 C   0  0  0  0  0  0  0  0  0  0  0  0
   28.6320  -21.1526  -16.5735 C   0  0  0  0  0  0  0  0  0  0  0  0
   28.2791  -21.5168  -17.7264 O   0  0  0  0  0  0  0  0  0  0  0  0
   25.8157  -19.2557  -14.2157 C   0  0  0  0  0  0  0  0  0  0  0  0
   25.6573  -18.0617  -13.8759 O   0  0  0  0  0  0  0  0  0  0  0  0
   28.7218  -22.1079  -15.5547 O   0  0  0  0  0  0  0  0  0  0  0  0
   19.7167  -20.9675  -10.8998 N   0  0  0  0  0  0  0  0  0  0  0  0
   20.8161  -20.9860  -11.8010 C   0  0  0  0  0  0  0  0  0  0  0  0
   20.6699  -21.4813  -12.9302 O   0  0  0  0  0  0  0  0  0  0  0  0
   22.1337  -20.4068  -11.3723 C   0  0  0  0  0  0  0  0  0  0  0  0
   23.0909  -20.5541  -12.5160 C   0  0  0  0  0  0  0  0  0  0  0  0
   24.4630  -20.0414  -12.2717 C   0  0  2  0  0  0  0  0  0  0  0  0
   25.2669  -20.3203  -13.4664 N   0  0  0  0  0  0  0  0  0  0  0  0
   25.0940  -20.7396  -11.1293 C   0  0  0  0  0  0  0  0  0  0  0  0
   25.5469  -21.9264  -11.2150 O   0  0  0  0  0  0  0  0  0  0  0  0
   28.7093  -19.5034   -4.2186 C   0  0  0  0  0  0  0  0  0  0  0  0
   28.0210  -18.9103   -5.7923 S   0  0  0  0  0  0  0  0  0  0  0  0
   27.0660  -20.2313   -6.6076 C   0  0  0  0  0  0  0  0  0  0  0  0
   26.6026  -19.7978   -7.9529 C   0  0  0  0  0  0  0  0  0  0  0  0
   25.7537  -20.7764   -8.7036 C   0  0  2  0  0  0  0  0  0  0  0  0
   25.2137  -20.0912   -9.8779 N   0  0  0  0  0  0  0  0  0  0  0  0
   24.6478  -21.3426   -7.8909 C   0  0  0  0  0  0  0  0  0  0  0  0
   23.4425  -21.0016   -8.0867 O   0  0  0  0  0  0  0  0  0  0  0  0
   24.9541  -22.2616   -6.9055 O   0  0  0  0  0  0  0  0  0  0  0  0
  2  1  1  6
  3  4  1  0
  3  2  1  0
  5  4  1  0
  5  6  2  0
  7  2  1  0
  7  8  2  0
  9  5  1  0
 10 11  1  0
 11 13  1  0
 12 11  2  0
 13 14  1  0
 15 14  1  6
 15 16  1  0
 16  7  1  0
 17 15  1  0
 18 17  2  0
 19 20  1  0
 20 21  1  0
 21 22  1  0
 23 22  1  1
 23 24  1  0
 23 25  1  0
 24 17  1  0
 25 27  1  0
 26 25  2  0
M  END
$$$$
