DGR.pdb
     RDKit          3D

 24 23  0  0  1  0  0  0  0  0999 V2000
   24.5749  -24.9958  -19.7201 N   0  0  0  0  0  0  0  0  0  0  0  0
   25.4759  -24.0746  -20.3386 C   0  0  1  0  0  0  0  0  0  0  0  0
   24.7625  -23.2123  -21.3579 C   0  0  0  0  0  0  0  0  0  0  0  0
   24.7064  -23.8348  -22.6952 C   0  0  0  0  0  0  0  0  0  0  0  0
   23.8377  -23.4693  -23.5033 O   0  0  0  0  0  0  0  0  0  0  0  0
   26.1172  -23.1550  -19.3701 C   0  0  0  0  0  0  0  0  0  0  0  0
   27.1002  -22.4360  -19.6730 O   0  0  0  0  0  0  0  0  0  0  0  0
   25.6408  -24.8199  -23.0022 O   0  0  0  0  0  0  0  0  0  0  0  0
   25.6394  -23.0328  -18.0023 N   0  0  0  0  0  0  0  0  0  0  0  0
   26.2759  -22.1098  -17.1065 C   0  0  0  0  0  0  0  0  0  0  0  0
   25.5716  -22.0291  -15.8132 C   0  0  0  0  0  0  0  0  0  0  0  0
   24.4199  -22.6112  -15.7419 O   0  0  0  0  0  0  0  0  0  0  0  0
   24.9715  -20.9149   -7.7269 N   0  0  0  0  0  0  0  0  0  0  0  0
   26.2957  -20.8539   -8.2206 C   0  0  0  0  0  0  0  0  0  0  0  0
   27.2767  -21.4290   -7.6049 N   0  0  0  0  0  0  0  0  0  0  0  0
   26.6166  -20.1503   -9.4307 N   0  0  0  0  0  0  0  0  0  0  0  0
   25.6115  -19.4293  -10.1804 C   0  0  0  0  0  0  0  0  0  0  0  0
   24.9311  -20.3308  -11.1876 C   0  0  0  0  0  0  0  0  0  0  0  0
   25.7745  -20.4444  -12.4216 C   0  0  0  0  0  0  0  0  0  0  0  0
   25.0878  -21.2546  -13.4852 C   0  0  2  0  0  0  0  0  0  0  0  0
   26.0158  -21.3876  -14.6471 N   0  0  0  0  0  0  0  0  0  0  0  0
   23.8651  -20.5559  -13.9212 C   0  0  0  0  0  0  0  0  0  0  0  0
   22.6364  -21.0367  -13.4938 O   0  0  0  0  0  0  0  0  0  0  0  0
   23.8727  -19.5643  -14.6472 O   0  0  0  0  0  0  0  0  0  0  0  0
  2  1  1  1
  2  3  1  0
  3  4  1  0
  4  8  1  0
  4  5  2  0
  6  7  2  0
  6  2  1  0
  9  6  1  0
 10 11  1  0
 10  9  1  0
 11 21  1  0
 12 11  2  0
 14 13  1  0
 14 16  1  0
 15 14  2  0
 17 18  1  0
 17 16  1  0
 20 19  1  1
 19 18  1  0
 21 20  1  0
 22 20  1  0
 22 23  1  0
 24 22  2  0
M  END
$$$$
