DGR.pdb
     RDKit          3D

 24 23  0  0  1  0  0  0  0  0999 V2000
   20.4764  -18.1560  -15.2052 N   0  0  0  0  0  0  0  0  0  0  0  0
   20.0868  -19.4920  -15.5313 C   0  0  1  0  0  0  0  0  0  0  0  0
   18.8455  -19.5039  -16.3976 C   0  0  0  0  0  0  0  0  0  0  0  0
   17.6764  -18.8975  -15.7309 C   0  0  0  0  0  0  0  0  0  0  0  0
   17.7986  -18.4333  -14.5861 O   0  0  0  0  0  0  0  0  0  0  0  0
   21.1343  -20.2353  -16.2695 C   0  0  0  0  0  0  0  0  0  0  0  0
   21.0364  -21.4595  -16.5278 O   0  0  0  0  0  0  0  0  0  0  0  0
   16.4672  -18.8694  -16.4201 O   0  0  0  0  0  0  0  0  0  0  0  0
   22.3451  -19.5826  -16.7404 N   0  0  0  0  0  0  0  0  0  0  0  0
   23.3369  -20.3453  -17.4434 C   0  0  0  0  0  0  0  0  0  0  0  0
   24.6458  -20.2969  -16.7656 C   0  0  0  0  0  0  0  0  0  0  0  0
   24.6366  -20.0145  -15.5044 O   0  0  0  0  0  0  0  0  0  0  0  0
   25.8417  -21.0679  -12.0730 N   0  0  0  0  0  0  0  0  0  0  0  0
   25.0098  -22.1265  -12.5066 C   0  0  0  0  0  0  0  0  0  0  0  0
   23.7617  -22.1889  -12.1739 N   0  0  0  0  0  0  0  0  0  0  0  0
   25.5097  -23.1851  -13.3383 N   0  0  0  0  0  0  0  0  0  0  0  0
   26.1728  -22.9158  -14.5953 C   0  0  0  0  0  0  0  0  0  0  0  0
   25.3476  -23.4092  -15.7640 C   0  0  0  0  0  0  0  0  0  0  0  0
   25.9529  -22.9360  -17.0512 C   0  0  0  0  0  0  0  0  0  0  0  0
   26.7356  -21.6675  -16.8580 C   0  0  2  0  0  0  0  0  0  0  0  0
   25.9050  -20.5247  -17.3411 N   0  0  0  0  0  0  0  0  0  0  0  0
   27.9768  -21.7314  -17.6507 C   0  0  0  0  0  0  0  0  0  0  0  0
   27.9049  -22.1711  -18.9642 O   0  0  0  0  0  0  0  0  0  0  0  0
   29.0799  -21.4151  -17.2107 O   0  0  0  0  0  0  0  0  0  0  0  0
  2  1  1  6
  2  3  1  0
  3  4  1  0
  4  8  1  0
  4  5  2  0
  6  7  2  0
  6  2  1  0
  9  6  1  0
 10 11  1  0
 10  9  1  0
 11 21  1  0
 12 11  2  0
 14 13  1  0
 14 16  1  0
 15 14  2  0
 17 18  1  0
 17 16  1  0
 20 19  1  6
 19 18  1  0
 21 20  1  0
 22 20  1  0
 22 23  1  0
 24 22  2  0
M  END
$$$$
