DGR.pdb
     RDKit          3D

 24 23  0  0  1  0  0  0  0  0999 V2000
   25.4920  -18.2179  -19.3103 N   0  0  0  0  0  0  0  0  0  0  0  0
   25.7398  -16.9241  -18.7556 C   0  0  1  0  0  0  0  0  0  0  0  0
   25.3317  -15.8291  -19.7178 C   0  0  0  0  0  0  0  0  0  0  0  0
   26.1794  -15.7831  -20.9254 C   0  0  0  0  0  0  0  0  0  0  0  0
   27.1399  -16.5629  -21.0277 O   0  0  0  0  0  0  0  0  0  0  0  0
   25.0015  -16.6855  -17.4936 C   0  0  0  0  0  0  0  0  0  0  0  0
   25.0518  -15.5919  -16.8800 O   0  0  0  0  0  0  0  0  0  0  0  0
   25.8654  -14.8556  -21.9148 O   0  0  0  0  0  0  0  0  0  0  0  0
   24.1697  -17.7138  -16.8897 N   0  0  0  0  0  0  0  0  0  0  0  0
   23.4231  -17.4173  -15.7005 C   0  0  0  0  0  0  0  0  0  0  0  0
   22.5850  -18.5565  -15.2826 C   0  0  0  0  0  0  0  0  0  0  0  0
   21.5168  -18.7767  -15.9762 O   0  0  0  0  0  0  0  0  0  0  0  0
   26.7991  -21.5357  -10.9016 N   0  0  0  0  0  0  0  0  0  0  0  0
   26.0369  -20.8725   -9.9116 C   0  0  0  0  0  0  0  0  0  0  0  0
   26.5971  -20.1768   -8.9764 N   0  0  0  0  0  0  0  0  0  0  0  0
   24.6024  -20.9384   -9.8959 N   0  0  0  0  0  0  0  0  0  0  0  0
   23.8634  -21.6624  -10.9068 C   0  0  0  0  0  0  0  0  0  0  0  0
   23.2171  -20.7145  -11.8937 C   0  0  0  0  0  0  0  0  0  0  0  0
   22.5163  -21.4942  -12.9652 C   0  0  0  0  0  0  0  0  0  0  0  0
   21.9004  -20.5867  -13.9929 C   0  0  2  0  0  0  0  0  0  0  0  0
   22.8201  -19.4311  -14.2109 N   0  0  0  0  0  0  0  0  0  0  0  0
   20.6067  -20.0868  -13.4935 C   0  0  0  0  0  0  0  0  0  0  0  0
   19.4687  -20.8474  -13.7175 O   0  0  0  0  0  0  0  0  0  0  0  0
   20.4780  -19.0265  -12.8854 O   0  0  0  0  0  0  0  0  0  0  0  0
  2  1  1  6
  2  3  1  0
  3  4  1  0
  4  8  1  0
  4  5  2  0
  6  7  2  0
  6  2  1  0
  9  6  1  0
 10 11  1  0
 10  9  1  0
 11 21  1  0
 12 11  2  0
 14 13  1  0
 14 16  1  0
 15 14  2  0
 17 18  1  0
 17 16  1  0
 20 19  1  1
 19 18  1  0
 21 20  1  0
 22 20  1  0
 22 23  1  0
 24 22  2  0
M  END
$$$$
