DGR.pdb
     RDKit          3D

 24 23  0  0  1  0  0  0  0  0999 V2000
   22.0169  -10.6890  -16.9216 N   0  0  0  0  0  0  0  0  0  0  0  0
   23.0081  -10.3024  -15.9672 C   0  0  1  0  0  0  0  0  0  0  0  0
   24.0469   -9.3968  -16.5935 C   0  0  0  0  0  0  0  0  0  0  0  0
   24.7855  -10.0480  -17.6933 C   0  0  0  0  0  0  0  0  0  0  0  0
   24.3701   -9.9373  -18.8579 O   0  0  0  0  0  0  0  0  0  0  0  0
   22.4417   -9.5716  -14.8096 C   0  0  0  0  0  0  0  0  0  0  0  0
   23.1337   -9.2446  -13.8151 O   0  0  0  0  0  0  0  0  0  0  0  0
   25.9331  -10.7701  -17.3781 O   0  0  0  0  0  0  0  0  0  0  0  0
   21.0398   -9.1890  -14.7603 N   0  0  0  0  0  0  0  0  0  0  0  0
   20.5150   -8.5611  -13.5815 C   0  0  0  0  0  0  0  0  0  0  0  0
   19.0427   -8.4809  -13.6138 C   0  0  0  0  0  0  0  0  0  0  0  0
   18.5026   -8.1752  -14.7475 O   0  0  0  0  0  0  0  0  0  0  0  0
   12.0186  -10.3264   -8.2698 N   0  0  0  0  0  0  0  0  0  0  0  0
   11.5205   -9.6975   -9.4348 C   0  0  0  0  0  0  0  0  0  0  0  0
   10.2578   -9.4700   -9.5962 N   0  0  0  0  0  0  0  0  0  0  0  0
   12.3926   -9.2800  -10.4967 N   0  0  0  0  0  0  0  0  0  0  0  0
   13.8194   -9.5116  -10.4444 C   0  0  0  0  0  0  0  0  0  0  0  0
   14.4915   -9.0670  -11.7252 C   0  0  0  0  0  0  0  0  0  0  0  0
   15.9801   -9.1692  -11.5818 C   0  0  0  0  0  0  0  0  0  0  0  0
   16.6890   -8.5957  -12.7766 C   0  0  2  0  0  0  0  0  0  0  0  0
   18.1602   -8.7009  -12.5454 N   0  0  0  0  0  0  0  0  0  0  0  0
   16.3243   -7.1755  -12.9285 C   0  0  0  0  0  0  0  0  0  0  0  0
   15.3103   -6.8405  -13.8134 O   0  0  0  0  0  0  0  0  0  0  0  0
   16.8717   -6.2647  -12.3110 O   0  0  0  0  0  0  0  0  0  0  0  0
  2  1  1  6
  2  3  1  0
  3  4  1  0
  4  8  1  0
  4  5  2  0
  6  7  2  0
  6  2  1  0
  9  6  1  0
 10 11  1  0
 10  9  1  0
 11 21  1  0
 12 11  2  0
 14 13  1  0
 14 16  1  0
 15 14  2  0
 17 18  1  0
 17 16  1  0
 20 19  1  1
 19 18  1  0
 21 20  1  0
 22 20  1  0
 22 23  1  0
 24 22  2  0
M  END
$$$$
