DGR.pdb
     RDKit          3D

 24 23  0  0  1  0  0  0  0  0999 V2000
   18.7505  -10.9060  -15.1837 N   0  0  0  0  0  0  0  0  0  0  0  0
   17.6198  -10.1327  -14.7758 C   0  0  1  0  0  0  0  0  0  0  0  0
   16.5055  -11.0204  -14.2643 C   0  0  0  0  0  0  0  0  0  0  0  0
   15.7902  -11.7226  -15.3479 C   0  0  0  0  0  0  0  0  0  0  0  0
   16.1647  -11.5763  -16.5224 O   0  0  0  0  0  0  0  0  0  0  0  0
   17.9368   -9.1726  -13.6929 C   0  0  0  0  0  0  0  0  0  0  0  0
   18.5697   -9.5051  -12.6615 O   0  0  0  0  0  0  0  0  0  0  0  0
   14.7097  -12.5314  -15.0069 O   0  0  0  0  0  0  0  0  0  0  0  0
   17.5288   -7.7789  -13.7649 N   0  0  0  0  0  0  0  0  0  0  0  0
   18.0139   -6.8445  -12.7896 C   0  0  0  0  0  0  0  0  0  0  0  0
   16.9494   -6.4214  -11.8607 C   0  0  0  0  0  0  0  0  0  0  0  0
   15.7806   -6.2148  -12.3722 O   0  0  0  0  0  0  0  0  0  0  0  0
   11.2571   -8.6507   -8.1734 N   0  0  0  0  0  0  0  0  0  0  0  0
   11.9780   -9.6921   -8.8032 C   0  0  0  0  0  0  0  0  0  0  0  0
   11.3805  -10.6207   -9.4763 N   0  0  0  0  0  0  0  0  0  0  0  0
   13.4099   -9.7699   -8.7268 N   0  0  0  0  0  0  0  0  0  0  0  0
   14.2019   -8.6909   -8.1785 C   0  0  0  0  0  0  0  0  0  0  0  0
   14.5807   -7.6928   -9.2510 C   0  0  0  0  0  0  0  0  0  0  0  0
   15.4926   -6.6501   -8.6778 C   0  0  0  0  0  0  0  0  0  0  0  0
   15.9107   -5.6512   -9.7202 C   0  0  2  0  0  0  0  0  0  0  0  0
   17.0660   -6.2178  -10.4773 N   0  0  0  0  0  0  0  0  0  0  0  0
   16.3314   -4.4016   -9.0610 C   0  0  0  0  0  0  0  0  0  0  0  0
   15.3660   -3.4544   -8.7538 O   0  0  0  0  0  0  0  0  0  0  0  0
   17.4976   -4.1493   -8.7662 O   0  0  0  0  0  0  0  0  0  0  0  0
  2  1  1  1
  2  3  1  0
  3  4  1  0
  4  8  1  0
  4  5  2  0
  6  7  2  0
  6  2  1  0
  9  6  1  0
 10 11  1  0
 10  9  1  0
 11 21  1  0
 12 11  2  0
 14 13  1  0
 14 16  1  0
 15 14  2  0
 17 18  1  0
 17 16  1  0
 20 19  1  1
 19 18  1  0
 21 20  1  0
 22 20  1  0
 22 23  1  0
 24 22  2  0
M  END
$$$$
