DGR.pdb
     RDKit          3D

 24 23  0  0  1  0  0  0  0  0999 V2000
   17.2261  -25.2369   -5.4544 N   0  0  0  0  0  0  0  0  0  0  0  0
   17.9457  -25.2414   -6.6894 C   0  0  1  0  0  0  0  0  0  0  0  0
   17.0597  -25.6756   -7.8374 C   0  0  0  0  0  0  0  0  0  0  0  0
   17.1643  -27.1193   -8.1267 C   0  0  0  0  0  0  0  0  0  0  0  0
   16.1404  -27.8211   -8.1125 O   0  0  0  0  0  0  0  0  0  0  0  0
   18.4905  -23.9105   -7.0455 C   0  0  0  0  0  0  0  0  0  0  0  0
   17.8568  -22.8466   -6.8418 O   0  0  0  0  0  0  0  0  0  0  0  0
   18.4226  -27.6446   -8.4074 O   0  0  0  0  0  0  0  0  0  0  0  0
   19.8015  -23.7609   -7.6563 N   0  0  0  0  0  0  0  0  0  0  0  0
   20.3186  -22.4480   -7.9176 C   0  0  0  0  0  0  0  0  0  0  0  0
   20.1677  -22.0729   -9.3359 C   0  0  0  0  0  0  0  0  0  0  0  0
   19.4939  -22.8846  -10.0826 O   0  0  0  0  0  0  0  0  0  0  0  0
   17.3644  -16.6441  -14.5885 N   0  0  0  0  0  0  0  0  0  0  0  0
   18.1786  -17.4255  -15.4414 C   0  0  0  0  0  0  0  0  0  0  0  0
   17.9198  -17.5474  -16.7025 N   0  0  0  0  0  0  0  0  0  0  0  0
   19.3338  -18.1224  -14.9491 N   0  0  0  0  0  0  0  0  0  0  0  0
   19.5367  -18.3547  -13.5360 C   0  0  0  0  0  0  0  0  0  0  0  0
   20.8094  -19.1352  -13.2888 C   0  0  0  0  0  0  0  0  0  0  0  0
   20.9760  -19.3868  -11.8204 C   0  0  0  0  0  0  0  0  0  0  0  0
   20.4868  -20.7553  -11.4373 C   0  0  2  0  0  0  0  0  0  0  0  0
   20.6768  -20.9276   -9.9665 N   0  0  0  0  0  0  0  0  0  0  0  0
   21.2772  -21.7759  -12.1492 C   0  0  0  0  0  0  0  0  0  0  0  0
   20.8430  -22.2033  -13.3951 O   0  0  0  0  0  0  0  0  0  0  0  0
   22.3065  -22.2733  -11.6981 O   0  0  0  0  0  0  0  0  0  0  0  0
  2  1  1  1
  2  3  1  0
  3  4  1  0
  4  8  1  0
  4  5  2  0
  6  7  2  0
  6  2  1  0
  9  6  1  0
 10 11  1  0
 10  9  1  0
 11 21  1  0
 12 11  2  0
 14 13  1  0
 14 16  1  0
 15 14  2  0
 17 18  1  0
 17 16  1  0
 20 19  1  6
 19 18  1  0
 21 20  1  0
 22 20  1  0
 22 23  1  0
 24 22  2  0
M  END
$$$$
