DGR.pdb
     RDKit          3D

 24 23  0  0  1  0  0  0  0  0999 V2000
   22.2368  -10.0452  -14.5124 N   0  0  0  0  0  0  0  0  0  0  0  0
   21.6095   -8.9170  -15.1261 C   0  0  1  0  0  0  0  0  0  0  0  0
   20.4832   -9.3478  -16.0411 C   0  0  0  0  0  0  0  0  0  0  0  0
   20.9507  -10.1626  -17.1798 C   0  0  0  0  0  0  0  0  0  0  0  0
   20.8953  -11.4007  -17.1088 O   0  0  0  0  0  0  0  0  0  0  0  0
   21.0285   -7.9733  -14.1429 C   0  0  0  0  0  0  0  0  0  0  0  0
   20.5710   -6.8525  -14.4738 O   0  0  0  0  0  0  0  0  0  0  0  0
   21.4420   -9.5030  -18.3029 O   0  0  0  0  0  0  0  0  0  0  0  0
   20.9549   -8.2956  -12.7270 N   0  0  0  0  0  0  0  0  0  0  0  0
   20.3197   -7.3811  -11.8216 C   0  0  0  0  0  0  0  0  0  0  0  0
   18.9406   -7.7958  -11.5034 C   0  0  0  0  0  0  0  0  0  0  0  0
   18.4849   -8.8284  -12.1330 O   0  0  0  0  0  0  0  0  0  0  0  0
   12.4249   -5.7773   -5.6245 N   0  0  0  0  0  0  0  0  0  0  0  0
   12.0379   -6.9500   -6.3143 C   0  0  0  0  0  0  0  0  0  0  0  0
   10.8946   -7.5159   -6.1026 N   0  0  0  0  0  0  0  0  0  0  0  0
   12.8955   -7.5705   -7.2847 N   0  0  0  0  0  0  0  0  0  0  0  0
   14.1886   -7.0167   -7.6213 C   0  0  0  0  0  0  0  0  0  0  0  0
   14.8978   -7.8723   -8.6486 C   0  0  0  0  0  0  0  0  0  0  0  0
   16.1932   -7.2284   -9.0415 C   0  0  0  0  0  0  0  0  0  0  0  0
   16.7478   -7.8314  -10.3016 C   0  0  2  0  0  0  0  0  0  0  0  0
   18.0654   -7.1907  -10.5888 N   0  0  0  0  0  0  0  0  0  0  0  0
   15.8263   -7.5632  -11.4205 C   0  0  0  0  0  0  0  0  0  0  0  0
   14.8926   -8.5312  -11.7593 O   0  0  0  0  0  0  0  0  0  0  0  0
   15.8384   -6.5231  -12.0751 O   0  0  0  0  0  0  0  0  0  0  0  0
  2  1  1  1
  2  3  1  0
  3  4  1  0
  4  8  1  0
  4  5  2  0
  6  7  2  0
  6  2  1  0
  9  6  1  0
 10 11  1  0
 10  9  1  0
 11 21  1  0
 12 11  2  0
 14 13  1  0
 14 16  1  0
 15 14  2  0
 17 18  1  0
 17 16  1  0
 20 19  1  1
 19 18  1  0
 21 20  1  0
 22 20  1  0
 22 23  1  0
 24 22  2  0
M  END
$$$$
