DGR.pdb
     RDKit          3D

 24 23  0  0  1  0  0  0  0  0999 V2000
   25.5065  -21.5266  -17.4218 N   0  0  0  0  0  0  0  0  0  0  0  0
   25.7472  -21.5858  -16.0141 C   0  0  1  0  0  0  0  0  0  0  0  0
   27.1052  -21.0144  -15.6667 C   0  0  0  0  0  0  0  0  0  0  0  0
   28.2132  -21.7260  -16.3336 C   0  0  0  0  0  0  0  0  0  0  0  0
   28.8740  -21.1444  -17.2089 O   0  0  0  0  0  0  0  0  0  0  0  0
   24.7472  -20.8296  -15.2248 C   0  0  0  0  0  0  0  0  0  0  0  0
   24.2763  -19.7315  -15.6087 O   0  0  0  0  0  0  0  0  0  0  0  0
   28.4774  -23.0381  -15.9508 O   0  0  0  0  0  0  0  0  0  0  0  0
   24.2507  -21.3216  -13.9498 N   0  0  0  0  0  0  0  0  0  0  0  0
   23.2548  -20.5731  -13.2376 C   0  0  0  0  0  0  0  0  0  0  0  0
   21.8965  -20.8555  -13.7380 C   0  0  0  0  0  0  0  0  0  0  0  0
   21.7632  -21.8871  -14.5051 O   0  0  0  0  0  0  0  0  0  0  0  0
   18.3797  -25.6373   -9.9574 N   0  0  0  0  0  0  0  0  0  0  0  0
   18.8153  -24.4247   -9.3737 C   0  0  0  0  0  0  0  0  0  0  0  0
   18.8625  -24.2673   -8.0910 N   0  0  0  0  0  0  0  0  0  0  0  0
   19.2274  -23.3076  -10.1767 N   0  0  0  0  0  0  0  0  0  0  0  0
   19.1975  -23.3580  -11.6219 C   0  0  0  0  0  0  0  0  0  0  0  0
   19.7049  -22.0655  -12.2234 C   0  0  0  0  0  0  0  0  0  0  0  0
   18.8851  -21.7064  -13.4260 C   0  0  0  0  0  0  0  0  0  0  0  0
   19.4526  -20.5136  -14.1430 C   0  0  2  0  0  0  0  0  0  0  0  0
   20.7285  -20.1251  -13.4720 N   0  0  0  0  0  0  0  0  0  0  0  0
   18.5007  -19.3912  -14.0573 C   0  0  0  0  0  0  0  0  0  0  0  0
   18.8915  -18.2371  -13.3948 O   0  0  0  0  0  0  0  0  0  0  0  0
   17.3721  -19.4202  -14.5430 O   0  0  0  0  0  0  0  0  0  0  0  0
  2  1  1  6
  2  3  1  0
  3  4  1  0
  4  8  1  0
  4  5  2  0
  6  7  2  0
  6  2  1  0
  9  6  1  0
 10 11  1  0
 10  9  1  0
 11 21  1  0
 12 11  2  0
 14 13  1  0
 14 16  1  0
 15 14  2  0
 17 18  1  0
 17 16  1  0
 20 19  1  1
 19 18  1  0
 21 20  1  0
 22 20  1  0
 22 23  1  0
 24 22  2  0
M  END
$$$$
