DGR.pdb
     RDKit          3D

 24 23  0  0  1  0  0  0  0  0999 V2000
   23.9526  -34.4939   -8.2416 N   0  0  0  0  0  0  0  0  0  0  0  0
   23.6748  -33.1107   -8.0123 C   0  0  1  0  0  0  0  0  0  0  0  0
   24.8838  -32.3961   -7.4476 C   0  0  0  0  0  0  0  0  0  0  0  0
   25.1177  -32.7048   -6.0232 C   0  0  0  0  0  0  0  0  0  0  0  0
   26.1760  -32.3422   -5.4851 O   0  0  0  0  0  0  0  0  0  0  0  0
   23.2841  -32.3879   -9.2450 C   0  0  0  0  0  0  0  0  0  0  0  0
   23.9156  -32.5046  -10.3233 O   0  0  0  0  0  0  0  0  0  0  0  0
   24.1305  -33.3996   -5.3299 O   0  0  0  0  0  0  0  0  0  0  0  0
   22.1372  -31.4947   -9.2752 N   0  0  0  0  0  0  0  0  0  0  0  0
   21.5745  -31.1020  -10.5356 C   0  0  0  0  0  0  0  0  0  0  0  0
   21.3248  -29.6497  -10.5943 C   0  0  0  0  0  0  0  0  0  0  0  0
   21.4187  -28.9989   -9.4816 O   0  0  0  0  0  0  0  0  0  0  0  0
   19.6873  -23.1782  -16.6506 N   0  0  0  0  0  0  0  0  0  0  0  0
   19.3755  -22.6550  -15.3739 C   0  0  0  0  0  0  0  0  0  0  0  0
   19.0189  -21.4223  -15.2141 N   0  0  0  0  0  0  0  0  0  0  0  0
   19.4393  -23.4671  -14.1912 N   0  0  0  0  0  0  0  0  0  0  0  0
   19.8742  -24.8458  -14.2380 C   0  0  0  0  0  0  0  0  0  0  0  0
   19.9977  -25.4263  -12.8460 C   0  0  0  0  0  0  0  0  0  0  0  0
   20.3745  -26.8749  -12.9294 C   0  0  0  0  0  0  0  0  0  0  0  0
   20.5617  -27.4745  -11.5640 C   0  0  2  0  0  0  0  0  0  0  0  0
   20.9953  -28.8936  -11.7294 N   0  0  0  0  0  0  0  0  0  0  0  0
   19.2811  -27.4427  -10.8345 C   0  0  0  0  0  0  0  0  0  0  0  0
   18.3709  -28.4680  -11.0442 O   0  0  0  0  0  0  0  0  0  0  0  0
   18.9717  -26.5528  -10.0454 O   0  0  0  0  0  0  0  0  0  0  0  0
  2  1  1  6
  2  3  1  0
  3  4  1  0
  4  8  1  0
  4  5  2  0
  6  7  2  0
  6  2  1  0
  9  6  1  0
 10 11  1  0
 10  9  1  0
 11 21  1  0
 12 11  2  0
 14 13  1  0
 14 16  1  0
 15 14  2  0
 17 18  1  0
 17 16  1  0
 20 19  1  6
 19 18  1  0
 21 20  1  0
 22 20  1  0
 22 23  1  0
 24 22  2  0
M  END
$$$$
