DGR.pdb
     RDKit          3D

 24 23  0  0  1  0  0  0  0  0999 V2000
   26.6470  -22.9360  -17.0391 N   0  0  0  0  0  0  0  0  0  0  0  0
   26.7777  -21.8835  -16.0809 C   0  0  1  0  0  0  0  0  0  0  0  0
   26.5738  -20.5288  -16.7249 C   0  0  0  0  0  0  0  0  0  0  0  0
   27.6433  -20.1833  -17.6819 C   0  0  0  0  0  0  0  0  0  0  0  0
   28.8064  -20.5555  -17.4589 O   0  0  0  0  0  0  0  0  0  0  0  0
   25.7988  -21.9854  -14.9736 C   0  0  0  0  0  0  0  0  0  0  0  0
   25.6332  -21.0675  -14.1339 O   0  0  0  0  0  0  0  0  0  0  0  0
   27.3022  -19.4441  -18.8111 O   0  0  0  0  0  0  0  0  0  0  0  0
   24.9675  -23.1651  -14.7959 N   0  0  0  0  0  0  0  0  0  0  0  0
   24.0875  -23.2513  -13.6656 C   0  0  0  0  0  0  0  0  0  0  0  0
   22.6916  -22.9514  -14.0350 C   0  0  0  0  0  0  0  0  0  0  0  0
   22.4818  -22.5735  -15.2531 O   0  0  0  0  0  0  0  0  0  0  0  0
   18.8295  -25.4457   -8.8354 N   0  0  0  0  0  0  0  0  0  0  0  0
   17.7202  -24.5706   -8.9015 C   0  0  0  0  0  0  0  0  0  0  0  0
   16.6777  -24.7386   -8.1549 N   0  0  0  0  0  0  0  0  0  0  0  0
   17.6964  -23.4513   -9.8009 N   0  0  0  0  0  0  0  0  0  0  0  0
   17.7814  -23.6257  -11.2343 C   0  0  0  0  0  0  0  0  0  0  0  0
   19.2223  -23.7087  -11.6892 C   0  0  0  0  0  0  0  0  0  0  0  0
   19.2784  -23.8596  -13.1796 C   0  0  0  0  0  0  0  0  0  0  0  0
   20.2039  -22.8513  -13.8007 C   0  0  2  0  0  0  0  0  0  0  0  0
   21.5618  -23.0314  -13.2069 N   0  0  0  0  0  0  0  0  0  0  0  0
   19.7213  -21.4914  -13.4989 C   0  0  0  0  0  0  0  0  0  0  0  0
   18.6137  -21.0121  -14.1823 O   0  0  0  0  0  0  0  0  0  0  0  0
   20.2486  -20.7528  -12.6701 O   0  0  0  0  0  0  0  0  0  0  0  0
  2  1  1  6
  2  3  1  0
  3  4  1  0
  4  8  1  0
  4  5  2  0
  6  7  2  0
  6  2  1  0
  9  6  1  0
 10 11  1  0
 10  9  1  0
 11 21  1  0
 12 11  2  0
 14 13  1  0
 14 16  1  0
 15 14  2  0
 17 18  1  0
 17 16  1  0
 20 19  1  1
 19 18  1  0
 21 20  1  0
 22 20  1  0
 22 23  1  0
 24 22  2  0
M  END
$$$$
