DGR.pdb
     RDKit          3D

 24 23  0  0  1  0  0  0  0  0999 V2000
   24.2428  -19.2912  -18.5369 N   0  0  0  0  0  0  0  0  0  0  0  0
   25.2631  -18.7327  -17.7063 C   0  0  1  0  0  0  0  0  0  0  0  0
   25.4867  -17.2695  -18.0232 C   0  0  0  0  0  0  0  0  0  0  0  0
   25.9022  -17.0438  -19.4216 C   0  0  0  0  0  0  0  0  0  0  0  0
   26.9097  -17.6213  -19.8605 O   0  0  0  0  0  0  0  0  0  0  0  0
   24.9428  -18.8164  -16.2623 C   0  0  0  0  0  0  0  0  0  0  0  0
   25.6910  -18.3350  -15.3771 O   0  0  0  0  0  0  0  0  0  0  0  0
   25.1391  -16.1814  -20.2037 O   0  0  0  0  0  0  0  0  0  0  0  0
   23.7329  -19.4666  -15.7853 N   0  0  0  0  0  0  0  0  0  0  0  0
   23.4363  -19.4749  -14.3812 C   0  0  0  0  0  0  0  0  0  0  0  0
   22.1113  -20.0611  -14.1056 C   0  0  0  0  0  0  0  0  0  0  0  0
   21.2292  -19.9702  -15.0458 O   0  0  0  0  0  0  0  0  0  0  0  0
   18.3147  -25.5318   -8.0594 N   0  0  0  0  0  0  0  0  0  0  0  0
   17.4706  -25.4571   -9.1919 C   0  0  0  0  0  0  0  0  0  0  0  0
   16.4661  -26.2574   -9.3438 N   0  0  0  0  0  0  0  0  0  0  0  0
   17.6867  -24.4885  -10.2298 N   0  0  0  0  0  0  0  0  0  0  0  0
   18.8721  -23.6602  -10.2620 C   0  0  0  0  0  0  0  0  0  0  0  0
   18.9195  -22.8244  -11.5226 C   0  0  0  0  0  0  0  0  0  0  0  0
   20.1938  -22.0360  -11.5639 C   0  0  0  0  0  0  0  0  0  0  0  0
   20.3108  -21.2448  -12.8365 C   0  0  2  0  0  0  0  0  0  0  0  0
   21.7012  -20.7093  -12.9307 N   0  0  0  0  0  0  0  0  0  0  0  0
   19.3606  -20.1183  -12.8027 C   0  0  0  0  0  0  0  0  0  0  0  0
   18.1413  -20.2575  -13.4490 O   0  0  0  0  0  0  0  0  0  0  0  0
   19.5890  -19.0549  -12.2304 O   0  0  0  0  0  0  0  0  0  0  0  0
  2  1  1  6
  2  3  1  0
  3  4  1  0
  4  8  1  0
  4  5  2  0
  6  7  2  0
  6  2  1  0
  9  6  1  0
 10 11  1  0
 10  9  1  0
 11 21  1  0
 12 11  2  0
 14 13  1  0
 14 16  1  0
 15 14  2  0
 17 18  1  0
 17 16  1  0
 20 19  1  1
 19 18  1  0
 21 20  1  0
 22 20  1  0
 22 23  1  0
 24 22  2  0
M  END
$$$$
