GAN.pdb
     RDKit          3D

 18 17  0  0  1  0  0  0  0  0999 V2000
   18.4009   -9.8915  -12.7700 N   0  0  0  0  0  0  0  0  0  0  0  0
   17.7756  -10.1128  -11.5082 C   0  0  0  0  0  0  0  0  0  0  0  0
   16.3319   -9.8148  -11.4924 C   0  0  0  0  0  0  0  0  0  0  0  0
   15.8412   -9.2653  -12.5128 O   0  0  0  0  0  0  0  0  0  0  0  0
   13.3891  -10.6472   -9.3626 C   0  0  0  0  0  0  0  0  0  0  0  0
   14.1335   -9.7788  -10.3878 C   0  0  2  0  0  0  0  0  0  0  0  0
   15.5296  -10.1369  -10.3676 N   0  0  0  0  0  0  0  0  0  0  0  0
   13.8849   -8.3876  -10.0148 C   0  0  0  0  0  0  0  0  0  0  0  0
   12.7581   -7.8812  -10.2312 O   0  0  0  0  0  0  0  0  0  0  0  0
   14.5214   -3.5678   -8.4604 N   0  0  0  0  0  0  0  0  0  0  0  0
   14.3047   -4.5020   -7.3977 C   0  0  0  0  0  0  0  0  0  0  0  0
   14.0351   -4.0391   -6.2629 O   0  0  0  0  0  0  0  0  0  0  0  0
   14.4090   -5.9522   -7.6905 C   0  0  0  0  0  0  0  0  0  0  0  0
   14.7864   -6.2164   -9.1179 C   0  0  2  0  0  0  0  0  0  0  0  0
   14.9209   -7.6311   -9.4138 N   0  0  0  0  0  0  0  0  0  0  0  0
   16.0447   -5.5195   -9.4889 C   0  0  0  0  0  0  0  0  0  0  0  0
   16.0518   -4.2141   -9.9778 O   0  0  0  0  0  0  0  0  0  0  0  0
   17.1651   -6.0799   -9.3774 O   0  0  0  0  0  0  0  0  0  0  0  0
  2  1  1  0
  3  2  1  0
  4  3  2  0
  6  5  1  1
  6  7  1  0
  7  3  1  0
  8  9  2  0
  8  6  1  0
 11 10  1  0
 11 13  1  0
 12 11  2  0
 14 13  1  1
 14 15  1  0
 15  8  1  0
 16 14  1  0
 17 16  1  0
 18 16  2  0
M  END
$$$$
