GAN.pdb
     RDKit          3D

 18 17  0  0  1  0  0  0  0  0999 V2000
   16.3939  -13.1226  -14.8678 N   0  0  0  0  0  0  0  0  0  0  0  0
   16.4449  -12.0858  -15.8449 C   0  0  0  0  0  0  0  0  0  0  0  0
   17.7698  -11.4542  -15.9823 C   0  0  0  0  0  0  0  0  0  0  0  0
   18.6308  -11.7132  -15.1017 O   0  0  0  0  0  0  0  0  0  0  0  0
   19.6039   -9.4549  -18.5453 C   0  0  0  0  0  0  0  0  0  0  0  0
   19.3446   -9.9367  -17.1101 C   0  0  2  0  0  0  0  0  0  0  0  0
   18.0592  -10.5877  -17.0677 N   0  0  0  0  0  0  0  0  0  0  0  0
   19.4266   -8.7559  -16.2526 C   0  0  0  0  0  0  0  0  0  0  0  0
   18.3784   -8.1373  -15.9500 O   0  0  0  0  0  0  0  0  0  0  0  0
   23.0368   -4.6467  -14.1308 N   0  0  0  0  0  0  0  0  0  0  0  0
   22.3852   -5.7864  -13.5603 C   0  0  0  0  0  0  0  0  0  0  0  0
   21.9727   -5.6893  -12.3791 O   0  0  0  0  0  0  0  0  0  0  0  0
   22.2334   -7.0091  -14.3861 C   0  0  0  0  0  0  0  0  0  0  0  0
   20.8573   -7.1312  -14.9701 C   0  0  2  0  0  0  0  0  0  0  0  0
   20.6897   -8.3271  -15.7754 N   0  0  0  0  0  0  0  0  0  0  0  0
   20.5015   -5.9413  -15.7853 C   0  0  0  0  0  0  0  0  0  0  0  0
   19.7307   -4.8978  -15.2754 O   0  0  0  0  0  0  0  0  0  0  0  0
   20.8824   -5.8228  -16.9780 O   0  0  0  0  0  0  0  0  0  0  0  0
  2  1  1  0
  3  2  1  0
  4  3  2  0
  6  5  1  6
  6  7  1  0
  7  3  1  0
  8  9  2  0
  8  6  1  0
 11 10  1  0
 11 13  1  0
 12 11  2  0
 14 13  1  6
 14 15  1  0
 15  8  1  0
 16 14  1  0
 17 16  1  0
 18 16  2  0
M  END
$$$$
