GAN.pdb
     RDKit          3D

 18 17  0  0  1  0  0  0  0  0999 V2000
   27.1120  -20.6175  -14.9119 N   0  0  0  0  0  0  0  0  0  0  0  0
   27.1400  -19.5567  -15.8638 C   0  0  0  0  0  0  0  0  0  0  0  0
   26.3882  -18.3580  -15.4501 C   0  0  0  0  0  0  0  0  0  0  0  0
   25.3228  -18.5350  -14.8040 O   0  0  0  0  0  0  0  0  0  0  0  0
   26.8412  -14.6419  -15.6130 C   0  0  0  0  0  0  0  0  0  0  0  0
   26.0134  -15.9262  -15.4560 C   0  0  2  0  0  0  0  0  0  0  0  0
   26.8516  -17.0560  -15.7702 N   0  0  0  0  0  0  0  0  0  0  0  0
   24.8618  -15.7915  -16.3458 C   0  0  0  0  0  0  0  0  0  0  0  0
   24.9232  -16.2523  -17.5108 O   0  0  0  0  0  0  0  0  0  0  0  0
   19.0595  -16.5838  -16.9229 N   0  0  0  0  0  0  0  0  0  0  0  0
   20.2203  -15.7947  -17.2041 C   0  0  0  0  0  0  0  0  0  0  0  0
   20.1638  -15.0037  -18.1766 O   0  0  0  0  0  0  0  0  0  0  0  0
   21.4159  -15.9518  -16.3406 C   0  0  0  0  0  0  0  0  0  0  0  0
   22.5048  -14.9846  -16.6990 C   0  0  2  0  0  0  0  0  0  0  0  0
   23.6924  -15.1421  -15.8794 N   0  0  0  0  0  0  0  0  0  0  0  0
   22.0367  -13.5774  -16.6127 C   0  0  0  0  0  0  0  0  0  0  0  0
   21.5651  -12.8842  -17.7264 O   0  0  0  0  0  0  0  0  0  0  0  0
   22.0454  -12.9463  -15.5249 O   0  0  0  0  0  0  0  0  0  0  0  0
  2  1  1  0
  3  2  1  0
  4  3  2  0
  6  5  1  6
  6  7  1  0
  7  3  1  0
  8  9  2  0
  8  6  1  0
 11 10  1  0
 11 13  1  0
 12 11  2  0
 14 13  1  1
 14 15  1  0
 15  8  1  0
 16 14  1  0
 17 16  1  0
 18 16  2  0
M  END
$$$$
