GAN.pdb
     RDKit          3D

 18 17  0  0  1  0  0  0  0  0999 V2000
   18.5433  -13.7901  -16.9915 N   0  0  0  0  0  0  0  0  0  0  0  0
   18.2394  -12.5931  -17.7037 C   0  0  0  0  0  0  0  0  0  0  0  0
   19.2955  -11.5671  -17.6329 C   0  0  0  0  0  0  0  0  0  0  0  0
   20.2337  -11.7547  -16.8152 O   0  0  0  0  0  0  0  0  0  0  0  0
   20.2402   -8.4958  -19.5526 C   0  0  0  0  0  0  0  0  0  0  0  0
   20.3119   -9.4424  -18.3451 C   0  0  2  0  0  0  0  0  0  0  0  0
   19.2523  -10.4131  -18.4570 N   0  0  0  0  0  0  0  0  0  0  0  0
   20.2090   -8.6047  -17.1518 C   0  0  0  0  0  0  0  0  0  0  0  0
   19.1697   -8.6513  -16.4512 O   0  0  0  0  0  0  0  0  0  0  0  0
   21.8173   -5.6219  -13.2503 N   0  0  0  0  0  0  0  0  0  0  0  0
   21.4747   -7.0054  -13.1175 C   0  0  0  0  0  0  0  0  0  0  0  0
   21.4011   -7.4771  -11.9570 O   0  0  0  0  0  0  0  0  0  0  0  0
   21.2275   -7.8002  -14.3451 C   0  0  0  0  0  0  0  0  0  0  0  0
   21.2951   -6.9611  -15.5865 C   0  0  2  0  0  0  0  0  0  0  0  0
   21.2852   -7.7517  -16.8037 N   0  0  0  0  0  0  0  0  0  0  0  0
   22.4918   -6.0809  -15.5873 C   0  0  0  0  0  0  0  0  0  0  0  0
   23.4297   -6.1070  -16.6182 O   0  0  0  0  0  0  0  0  0  0  0  0
   22.7123   -5.2689  -14.6525 O   0  0  0  0  0  0  0  0  0  0  0  0
  2  1  1  0
  3  2  1  0
  4  3  2  0
  6  5  1  6
  6  7  1  0
  7  3  1  0
  8  9  2  0
  8  6  1  0
 11 10  1  0
 11 13  1  0
 12 11  2  0
 14 13  1  1
 14 15  1  0
 15  8  1  0
 16 14  1  0
 17 16  1  0
 18 16  2  0
M  END
$$$$
