GAN.pdb
     RDKit          3D

 18 17  0  0  1  0  0  0  0  0999 V2000
   21.0950   -8.6070  -17.1656 N   0  0  0  0  0  0  0  0  0  0  0  0
   19.8641   -8.1329  -16.6248 C   0  0  0  0  0  0  0  0  0  0  0  0
   19.9858   -6.8744  -15.8669 C   0  0  0  0  0  0  0  0  0  0  0  0
   18.9245   -6.2547  -15.5960 O   0  0  0  0  0  0  0  0  0  0  0  0
   22.6598   -5.0987  -13.9693 C   0  0  0  0  0  0  0  0  0  0  0  0
   21.3107   -5.1598  -14.7011 C   0  0  2  0  0  0  0  0  0  0  0  0
   21.2533   -6.3838  -15.4601 N   0  0  0  0  0  0  0  0  0  0  0  0
   21.2307   -3.9581  -15.5292 C   0  0  0  0  0  0  0  0  0  0  0  0
   21.8582   -3.9118  -16.6142 O   0  0  0  0  0  0  0  0  0  0  0  0
   17.3645   -1.1809  -17.9383 N   0  0  0  0  0  0  0  0  0  0  0  0
   18.0238   -1.9199  -16.9048 C   0  0  0  0  0  0  0  0  0  0  0  0
   17.8692   -3.1651  -16.8914 O   0  0  0  0  0  0  0  0  0  0  0  0
   18.8463   -1.1829  -15.9146 C   0  0  0  0  0  0  0  0  0  0  0  0
   20.2675   -1.6617  -15.8899 C   0  0  2  0  0  0  0  0  0  0  0  0
   20.4450   -2.8625  -15.0940 N   0  0  0  0  0  0  0  0  0  0  0  0
   21.1909   -0.6085  -15.3951 C   0  0  0  0  0  0  0  0  0  0  0  0
   21.4960    0.5231  -16.1498 O   0  0  0  0  0  0  0  0  0  0  0  0
   21.7409   -0.6922  -14.2672 O   0  0  0  0  0  0  0  0  0  0  0  0
  2  1  1  0
  3  2  1  0
  4  3  2  0
  6  5  1  6
  6  7  1  0
  7  3  1  0
  8  9  2  0
  8  6  1  0
 11 10  1  0
 11 13  1  0
 12 11  2  0
 14 13  1  1
 14 15  1  0
 15  8  1  0
 16 14  1  0
 17 16  1  0
 18 16  2  0
M  END
$$$$
