GAN.pdb
     RDKit          3D

 18 17  0  0  1  0  0  0  0  0999 V2000
   25.8548  -20.5893   -9.0120 N   0  0  0  0  0  0  0  0  0  0  0  0
   26.0762  -21.2257  -10.2683 C   0  0  0  0  0  0  0  0  0  0  0  0
   25.4084  -20.5634  -11.4034 C   0  0  0  0  0  0  0  0  0  0  0  0
   24.5613  -19.6710  -11.1386 O   0  0  0  0  0  0  0  0  0  0  0  0
   25.7249  -20.5568  -15.1337 C   0  0  0  0  0  0  0  0  0  0  0  0
   24.9971  -20.2708  -13.8117 C   0  0  2  0  0  0  0  0  0  0  0  0
   25.7119  -20.9212  -12.7422 N   0  0  0  0  0  0  0  0  0  0  0  0
   23.6284  -20.7564  -13.9755 C   0  0  0  0  0  0  0  0  0  0  0  0
   23.3930  -21.9850  -13.8850 O   0  0  0  0  0  0  0  0  0  0  0  0
   19.2300  -20.2073  -11.1067 N   0  0  0  0  0  0  0  0  0  0  0  0
   19.9698  -20.6432  -12.2520 C   0  0  0  0  0  0  0  0  0  0  0  0
   20.2854  -21.8562  -12.3130 O   0  0  0  0  0  0  0  0  0  0  0  0
   20.3208  -19.6490  -13.2952 C   0  0  0  0  0  0  0  0  0  0  0  0
   21.1978  -20.2331  -14.3626 C   0  0  2  0  0  0  0  0  0  0  0  0
   22.5868  -19.8317  -14.2344 N   0  0  0  0  0  0  0  0  0  0  0  0
   20.7127  -19.8817  -15.7220 C   0  0  0  0  0  0  0  0  0  0  0  0
   21.3768  -18.9601  -16.5300 O   0  0  0  0  0  0  0  0  0  0  0  0
   19.6758  -20.4033  -16.2062 O   0  0  0  0  0  0  0  0  0  0  0  0
  2  1  1  0
  3  2  1  0
  4  3  2  0
  6  5  1  6
  6  7  1  0
  7  3  1  0
  8  9  2  0
  8  6  1  0
 11 10  1  0
 11 13  1  0
 12 11  2  0
 14 13  1  1
 14 15  1  0
 15  8  1  0
 16 14  1  0
 17 16  1  0
 18 16  2  0
M  END
$$$$
