GAN.pdb
     RDKit          3D

 18 17  0  0  1  0  0  0  0  0999 V2000
   18.2831  -11.7384  -17.4010 N   0  0  0  0  0  0  0  0  0  0  0  0
   19.4797  -10.9727  -17.5201 C   0  0  0  0  0  0  0  0  0  0  0  0
   20.2394  -10.8455  -16.2633 C   0  0  0  0  0  0  0  0  0  0  0  0
   19.6047  -10.9799  -15.1848 O   0  0  0  0  0  0  0  0  0  0  0  0
   23.8088  -10.4337  -15.2255 C   0  0  0  0  0  0  0  0  0  0  0  0
   22.2924  -10.2943  -15.0240 C   0  0  2  0  0  0  0  0  0  0  0  0
   21.6333  -10.5816  -16.2733 N   0  0  0  0  0  0  0  0  0  0  0  0
   22.0589   -8.9341  -14.5429 C   0  0  0  0  0  0  0  0  0  0  0  0
   22.6544   -8.5307  -13.5154 O   0  0  0  0  0  0  0  0  0  0  0  0
   22.4228   -3.3835  -14.8574 N   0  0  0  0  0  0  0  0  0  0  0  0
   21.7848   -4.5074  -14.2419 C   0  0  0  0  0  0  0  0  0  0  0  0
   20.9920   -4.2798  -13.2963 O   0  0  0  0  0  0  0  0  0  0  0  0
   22.0911   -5.8673  -14.7487 C   0  0  0  0  0  0  0  0  0  0  0  0
   20.8691   -6.7342  -14.8192 C   0  0  2  0  0  0  0  0  0  0  0  0
   21.1629   -8.0906  -15.2447 N   0  0  0  0  0  0  0  0  0  0  0  0
   19.8383   -6.1544  -15.7181 C   0  0  0  0  0  0  0  0  0  0  0  0
   18.7209   -5.4814  -15.2264 O   0  0  0  0  0  0  0  0  0  0  0  0
   19.9291   -6.2458  -16.9691 O   0  0  0  0  0  0  0  0  0  0  0  0
  2  1  1  0
  3  2  1  0
  4  3  2  0
  6  5  1  6
  6  7  1  0
  7  3  1  0
  8  9  2  0
  8  6  1  0
 11 10  1  0
 11 13  1  0
 12 11  2  0
 14 13  1  6
 14 15  1  0
 15  8  1  0
 16 14  1  0
 17 16  1  0
 18 16  2  0
M  END
$$$$
