GAN.pdb
     RDKit          3D

 18 17  0  0  1  0  0  0  0  0999 V2000
   16.7065  -13.8227  -15.7376 N   0  0  0  0  0  0  0  0  0  0  0  0
   16.1422  -12.5509  -15.4271 C   0  0  0  0  0  0  0  0  0  0  0  0
   16.8234  -11.4164  -16.0767 C   0  0  0  0  0  0  0  0  0  0  0  0
   17.9898  -11.6092  -16.5083 O   0  0  0  0  0  0  0  0  0  0  0  0
   15.9236   -7.9517  -17.1693 C   0  0  0  0  0  0  0  0  0  0  0  0
   16.9141   -9.0707  -16.8142 C   0  0  2  0  0  0  0  0  0  0  0  0
   16.1848  -10.1565  -16.2084 N   0  0  0  0  0  0  0  0  0  0  0  0
   17.9142   -8.4770  -15.9291 C   0  0  0  0  0  0  0  0  0  0  0  0
   17.6787   -8.3899  -14.7002 O   0  0  0  0  0  0  0  0  0  0  0  0
   20.9742   -7.4430  -13.0172 N   0  0  0  0  0  0  0  0  0  0  0  0
   21.6137   -8.4190  -13.8463 C   0  0  0  0  0  0  0  0  0  0  0  0
   22.4770   -9.1579  -13.3140 O   0  0  0  0  0  0  0  0  0  0  0  0
   21.2266   -8.5048  -15.2755 C   0  0  0  0  0  0  0  0  0  0  0  0
   20.2042   -7.4728  -15.6486 C   0  0  2  0  0  0  0  0  0  0  0  0
   19.1358   -8.0084  -16.4723 N   0  0  0  0  0  0  0  0  0  0  0  0
   20.8235   -6.3163  -16.3457 C   0  0  0  0  0  0  0  0  0  0  0  0
   21.3984   -5.2537  -15.6504 O   0  0  0  0  0  0  0  0  0  0  0  0
   20.8563   -6.2450  -17.6009 O   0  0  0  0  0  0  0  0  0  0  0  0
  2  1  1  0
  3  2  1  0
  4  3  2  0
  6  5  1  1
  6  7  1  0
  7  3  1  0
  8  9  2  0
  8  6  1  0
 11 10  1  0
 11 13  1  0
 12 11  2  0
 14 13  1  6
 14 15  1  0
 15  8  1  0
 16 14  1  0
 17 16  1  0
 18 16  2  0
M  END
$$$$
