GAN.pdb
     RDKit          3D

 18 17  0  0  1  0  0  0  0  0999 V2000
   19.1631  -12.3028  -17.7827 N   0  0  0  0  0  0  0  0  0  0  0  0
   19.1718  -10.8820  -17.8995 C   0  0  0  0  0  0  0  0  0  0  0  0
   19.8209  -10.1903  -16.7711 C   0  0  0  0  0  0  0  0  0  0  0  0
   19.1502   -9.3165  -16.1623 O   0  0  0  0  0  0  0  0  0  0  0  0
   23.1435  -10.3358  -15.0265 C   0  0  0  0  0  0  0  0  0  0  0  0
   21.7701   -9.7254  -15.3432 C   0  0  2  0  0  0  0  0  0  0  0  0
   21.1514  -10.5007  -16.3890 N   0  0  0  0  0  0  0  0  0  0  0  0
   22.0087   -8.3324  -15.7160 C   0  0  0  0  0  0  0  0  0  0  0  0
   22.2134   -8.0404  -16.9185 O   0  0  0  0  0  0  0  0  0  0  0  0
   22.1645   -3.2530  -15.6750 N   0  0  0  0  0  0  0  0  0  0  0  0
   21.0195   -3.9788  -16.1347 C   0  0  0  0  0  0  0  0  0  0  0  0
   20.1369   -3.3389  -16.7561 O   0  0  0  0  0  0  0  0  0  0  0  0
   20.9374   -5.4331  -15.8555 C   0  0  0  0  0  0  0  0  0  0  0  0
   22.0862   -5.9155  -15.0204 C   0  0  2  0  0  0  0  0  0  0  0  0
   22.0053   -7.3318  -14.7132 N   0  0  0  0  0  0  0  0  0  0  0  0
   22.2017   -5.1482  -13.7537 C   0  0  0  0  0  0  0  0  0  0  0  0
   22.5078   -3.7883  -13.7368 O   0  0  0  0  0  0  0  0  0  0  0  0
   22.0273   -5.6950  -12.6346 O   0  0  0  0  0  0  0  0  0  0  0  0
  2  1  1  0
  3  2  1  0
  4  3  2  0
  6  5  1  6
  6  7  1  0
  7  3  1  0
  8  9  2  0
  8  6  1  0
 11 10  1  0
 11 13  1  0
 12 11  2  0
 14 13  1  1
 14 15  1  0
 15  8  1  0
 16 14  1  0
 17 16  1  0
 18 16  2  0
M  END
$$$$
