GAN.pdb
     RDKit          3D

 18 17  0  0  1  0  0  0  0  0999 V2000
   19.7724  -14.9456  -17.8714 N   0  0  0  0  0  0  0  0  0  0  0  0
   19.0243  -13.7333  -17.8167 C   0  0  0  0  0  0  0  0  0  0  0  0
   19.7837  -12.5815  -17.2973 C   0  0  0  0  0  0  0  0  0  0  0  0
   20.4405  -12.7494  -16.2369 O   0  0  0  0  0  0  0  0  0  0  0  0
   20.5383   -9.0742  -18.3754 C   0  0  0  0  0  0  0  0  0  0  0  0
   20.4035  -10.2006  -17.3399 C   0  0  2  0  0  0  0  0  0  0  0  0
   19.7719  -11.3326  -17.9703 N   0  0  0  0  0  0  0  0  0  0  0  0
   19.6341   -9.6522  -16.2248 C   0  0  0  0  0  0  0  0  0  0  0  0
   18.4272   -9.9668  -16.0922 O   0  0  0  0  0  0  0  0  0  0  0  0
   18.1328   -9.4352  -10.8954 N   0  0  0  0  0  0  0  0  0  0  0  0
   18.3283   -8.6449  -12.0728 C   0  0  0  0  0  0  0  0  0  0  0  0
   17.8735   -7.4753  -12.0698 O   0  0  0  0  0  0  0  0  0  0  0  0
   19.0504   -9.2433  -13.2218 C   0  0  0  0  0  0  0  0  0  0  0  0
   19.5692   -8.2026  -14.1692 C   0  0  2  0  0  0  0  0  0  0  0  0
   20.2631   -8.7727  -15.3095 N   0  0  0  0  0  0  0  0  0  0  0  0
   20.4684   -7.2389  -13.4840 C   0  0  0  0  0  0  0  0  0  0  0  0
   21.7846   -7.0333  -13.8947 O   0  0  0  0  0  0  0  0  0  0  0  0
   20.0794   -6.5624  -12.4977 O   0  0  0  0  0  0  0  0  0  0  0  0
  2  1  1  0
  3  2  1  0
  4  3  2  0
  6  5  1  6
  6  7  1  0
  7  3  1  0
  8  9  2  0
  8  6  1  0
 11 10  1  0
 11 13  1  0
 12 11  2  0
 14 13  1  1
 14 15  1  0
 15  8  1  0
 16 14  1  0
 17 16  1  0
 18 16  2  0
M  END
$$$$
