GAN.pdb
     RDKit          3D

 18 17  0  0  1  0  0  0  0  0999 V2000
   24.5219  -19.9179  -16.4888 N   0  0  0  0  0  0  0  0  0  0  0  0
   25.0209  -18.6475  -16.9002 C   0  0  0  0  0  0  0  0  0  0  0  0
   24.4644  -17.5101  -16.1454 C   0  0  0  0  0  0  0  0  0  0  0  0
   23.3093  -17.6423  -15.6636 O   0  0  0  0  0  0  0  0  0  0  0  0
   25.6666  -14.1553  -14.9797 C   0  0  0  0  0  0  0  0  0  0  0  0
   24.5926  -15.2149  -15.2679 C   0  0  2  0  0  0  0  0  0  0  0  0
   25.2062  -16.3134  -15.9711 N   0  0  0  0  0  0  0  0  0  0  0  0
   23.5433  -14.5471  -16.0354 C   0  0  0  0  0  0  0  0  0  0  0  0
   23.5793  -14.5775  -17.2888 O   0  0  0  0  0  0  0  0  0  0  0  0
   18.0972  -13.4672  -16.9276 N   0  0  0  0  0  0  0  0  0  0  0  0
   18.9699  -12.7451  -16.0524 C   0  0  0  0  0  0  0  0  0  0  0  0
   18.7527  -11.5190  -15.8968 O   0  0  0  0  0  0  0  0  0  0  0  0
   20.0732  -13.4760  -15.3828 C   0  0  0  0  0  0  0  0  0  0  0  0
   21.3972  -13.2334  -16.0443 C   0  0  2  0  0  0  0  0  0  0  0  0
   22.5002  -13.8747  -15.3522 N   0  0  0  0  0  0  0  0  0  0  0  0
   21.6841  -11.7819  -16.1778 C   0  0  0  0  0  0  0  0  0  0  0  0
   21.1538  -11.0144  -17.2136 O   0  0  0  0  0  0  0  0  0  0  0  0
   22.4222  -11.1786  -15.3574 O   0  0  0  0  0  0  0  0  0  0  0  0
  2  1  1  0
  3  2  1  0
  4  3  2  0
  6  5  1  6
  6  7  1  0
  7  3  1  0
  8  9  2  0
  8  6  1  0
 11 10  1  0
 11 13  1  0
 12 11  2  0
 14 13  1  1
 14 15  1  0
 15  8  1  0
 16 14  1  0
 17 16  1  0
 18 16  2  0
M  END
$$$$
