SIC.pdb
     RDKit          3D

 21 20  0  0  1  0  0  0  0  0999 V2000
   19.6990  -13.8403  -19.4240 O   0  0  0  0  0  0  0  0  0  0  0  0
   20.1524  -12.8631  -18.5775 C   0  0  0  0  0  0  0  0  0  0  0  0
   21.2195  -13.4153  -17.6430 C   0  0  2  0  0  0  0  0  0  0  0  0
   20.6263  -14.4450  -16.7905 N   0  0  0  0  0  0  0  0  0  0  0  0
   21.7408  -12.3659  -16.7474 C   0  0  0  0  0  0  0  0  0  0  0  0
   21.0673  -11.9316  -15.7487 O   0  0  0  0  0  0  0  0  0  0  0  0
   24.9553  -12.1064  -14.0470 C   0  0  0  0  0  0  0  0  0  0  0  0
   25.4546  -12.1084  -15.4773 C   0  0  0  0  0  0  0  0  0  0  0  0
   25.0060  -10.8357  -16.1200 C   0  0  2  0  0  0  0  0  0  0  0  0
   25.5118   -9.6814  -15.2554 C   0  0  0  0  0  0  0  0  0  0  0  0
   23.4998  -10.6995  -16.1703 C   0  0  2  0  0  0  0  0  0  0  0  0
   23.0183  -11.8150  -16.9851 N   0  0  0  0  0  0  0  0  0  0  0  0
   23.0539   -9.4222  -16.7152 C   0  0  0  0  0  0  0  0  0  0  0  0
   23.5742   -8.9530  -17.7481 O   0  0  0  0  0  0  0  0  0  0  0  0
   22.0222   -8.6936  -16.0797 N   0  0  0  0  0  0  0  0  0  0  0  0
   21.4851   -7.4585  -16.5581 C   0  0  1  0  0  0  0  0  0  0  0  0
   19.9590   -7.5699  -16.6240 C   0  0  0  0  0  0  0  0  0  0  0  0
   19.4867   -8.9923  -17.6539 S   0  0  0  0  0  0  0  0  0  0  0  0
   21.7862   -6.3893  -15.5879 C   0  0  0  0  0  0  0  0  0  0  0  0
   21.5725   -5.0601  -15.8981 O   0  0  0  0  0  0  0  0  0  0  0  0
   22.2421   -6.6825  -14.4652 O   0  0  0  0  0  0  0  0  0  0  0  0
  2  1  1  0
  3  2  1  0
  3  4  1  1
  5  3  1  0
  6  5  2  0
  7  8  1  0
  9  8  1  0
  9 10  1  1
 11  9  1  0
 11 12  1  6
 12  5  1  0
 13 14  2  0
 13 11  1  0
 15 13  1  0
 16 15  1  0
 16 17  1  1
 18 17  1  0
 19 20  1  0
 19 16  1  0
 21 19  2  0
M  END
$$$$
