SIC.pdb
     RDKit          3D

 21 20  0  0  1  0  0  0  0  0999 V2000
   18.7136  -16.1639  -14.3037 O   0  0  0  0  0  0  0  0  0  0  0  0
   19.1260  -14.9553  -14.7997 C   0  0  0  0  0  0  0  0  0  0  0  0
   18.3643  -14.6090  -16.0713 C   0  0  2  0  0  0  0  0  0  0  0  0
   18.6289  -15.6306  -17.0839 N   0  0  0  0  0  0  0  0  0  0  0  0
   18.8174  -13.3225  -16.6324 C   0  0  0  0  0  0  0  0  0  0  0  0
   19.7563  -13.2553  -17.5006 O   0  0  0  0  0  0  0  0  0  0  0  0
   18.0732   -8.9183  -19.3964 C   0  0  0  0  0  0  0  0  0  0  0  0
   17.8006   -8.8151  -17.9098 C   0  0  0  0  0  0  0  0  0  0  0  0
   17.5012  -10.1891  -17.4033 C   0  0  2  0  0  0  0  0  0  0  0  0
   16.4114  -10.0592  -16.3398 C   0  0  0  0  0  0  0  0  0  0  0  0
   18.6856  -10.8367  -16.7198 C   0  0  2  0  0  0  0  0  0  0  0  0
   18.2073  -12.1219  -16.2100 N   0  0  0  0  0  0  0  0  0  0  0  0
   19.2478  -10.0242  -15.6469 C   0  0  0  0  0  0  0  0  0  0  0  0
   18.6168   -9.8452  -14.5850 O   0  0  0  0  0  0  0  0  0  0  0  0
   20.5200   -9.4251  -15.7937 N   0  0  0  0  0  0  0  0  0  0  0  0
   21.1870   -8.6732  -14.7775 C   0  0  1  0  0  0  0  0  0  0  0  0
   22.6995   -8.7644  -15.0007 C   0  0  0  0  0  0  0  0  0  0  0  0
   23.2984  -10.4106  -14.5126 S   0  0  0  0  0  0  0  0  0  0  0  0
   20.8282   -7.2490  -14.9123 C   0  0  0  0  0  0  0  0  0  0  0  0
   20.9000   -6.3875  -13.8346 O   0  0  0  0  0  0  0  0  0  0  0  0
   20.4523   -6.8070  -16.0158 O   0  0  0  0  0  0  0  0  0  0  0  0
  2  1  1  0
  3  2  1  0
  3  4  1  6
  5  3  1  0
  6  5  2  0
  7  8  1  0
  9  8  1  0
  9 10  1  1
 11  9  1  0
 11 12  1  1
 12  5  1  0
 13 14  2  0
 13 11  1  0
 15 13  1  0
 16 15  1  0
 16 17  1  6
 18 17  1  0
 19 20  1  0
 19 16  1  0
 21 19  2  0
M  END
$$$$
