SIC.pdb
     RDKit          3D

 21 20  0  0  1  0  0  0  0  0999 V2000
   22.3586  -20.3916   -9.8473 O   0  0  0  0  0  0  0  0  0  0  0  0
   23.1359  -20.1418  -10.9475 C   0  0  0  0  0  0  0  0  0  0  0  0
   24.3162  -21.1015  -10.9998 C   0  0  2  0  0  0  0  0  0  0  0  0
   25.2089  -20.8280   -9.8740 N   0  0  0  0  0  0  0  0  0  0  0  0
   25.1070  -20.9098  -12.2298 C   0  0  0  0  0  0  0  0  0  0  0  0
   26.2196  -20.2759  -12.2279 O   0  0  0  0  0  0  0  0  0  0  0  0
   24.7484  -24.9021  -14.8934 C   0  0  0  0  0  0  0  0  0  0  0  0
   25.7780  -23.7956  -14.7897 C   0  0  0  0  0  0  0  0  0  0  0  0
   25.2137  -22.5820  -15.4550 C   0  0  2  0  0  0  0  0  0  0  0  0
   25.9504  -22.4013  -16.7818 C   0  0  0  0  0  0  0  0  0  0  0  0
   25.4476  -21.3134  -14.6640 C   0  0  2  0  0  0  0  0  0  0  0  0
   24.6367  -21.4353  -13.4524 N   0  0  0  0  0  0  0  0  0  0  0  0
   25.1076  -20.1023  -15.4021 C   0  0  0  0  0  0  0  0  0  0  0  0
   23.9160  -19.8023  -15.6210 O   0  0  0  0  0  0  0  0  0  0  0  0
   26.1257  -19.2468  -15.8824 N   0  0  0  0  0  0  0  0  0  0  0  0
   25.8973  -17.9834  -16.5104 C   0  0  1  0  0  0  0  0  0  0  0  0
   27.0577  -17.0420  -16.1745 C   0  0  0  0  0  0  0  0  0  0  0  0
   27.1478  -16.7887  -14.3760 S   0  0  0  0  0  0  0  0  0  0  0  0
   25.9100  -18.1591  -17.9747 C   0  0  0  0  0  0  0  0  0  0  0  0
   25.2918  -17.2490  -18.8103 O   0  0  0  0  0  0  0  0  0  0  0  0
   26.4871  -19.1445  -18.4750 O   0  0  0  0  0  0  0  0  0  0  0  0
  2  1  1  0
  3  2  1  0
  3  4  1  1
  5  3  1  0
  6  5  2  0
  7  8  1  0
  9  8  1  0
  9 10  1  6
 11  9  1  0
 11 12  1  1
 12  5  1  0
 13 14  2  0
 13 11  1  0
 15 13  1  0
 16 15  1  0
 16 17  1  6
 18 17  1  0
 19 20  1  0
 19 16  1  0
 21 19  2  0
M  END
$$$$
