SIC.pdb
     RDKit          3D

 21 20  0  0  1  0  0  0  0  0999 V2000
   19.9433  -13.9821  -19.3792 O   0  0  0  0  0  0  0  0  0  0  0  0
   20.1899  -12.9680  -18.4918 C   0  0  0  0  0  0  0  0  0  0  0  0
   21.3188  -13.3474  -17.5437 C   0  0  2  0  0  0  0  0  0  0  0  0
   20.9005  -14.4882  -16.7297 N   0  0  0  0  0  0  0  0  0  0  0  0
   21.6270  -12.2465  -16.6119 C   0  0  0  0  0  0  0  0  0  0  0  0
   20.9664  -12.0705  -15.5291 O   0  0  0  0  0  0  0  0  0  0  0  0
   26.6304  -11.0351  -15.4182 C   0  0  0  0  0  0  0  0  0  0  0  0
   25.1364  -11.2842  -15.3872 C   0  0  0  0  0  0  0  0  0  0  0  0
   24.4607  -10.0861  -15.9720 C   0  0  2  0  0  0  0  0  0  0  0  0
   24.7530   -8.9001  -15.0536 C   0  0  0  0  0  0  0  0  0  0  0  0
   22.9546  -10.2236  -16.0207 C   0  0  2  0  0  0  0  0  0  0  0  0
   22.6786  -11.3531  -16.9086 N   0  0  0  0  0  0  0  0  0  0  0  0
   22.2797   -9.0164  -16.4837 C   0  0  0  0  0  0  0  0  0  0  0  0
   22.5404   -8.5294  -17.6029 O   0  0  0  0  0  0  0  0  0  0  0  0
   21.3168   -8.3772  -15.6692 N   0  0  0  0  0  0  0  0  0  0  0  0
   20.5188   -7.2631  -16.0751 C   0  0  1  0  0  0  0  0  0  0  0  0
   19.1652   -7.3324  -15.3619 C   0  0  0  0  0  0  0  0  0  0  0  0
   18.3937   -8.9527  -15.6556 S   0  0  0  0  0  0  0  0  0  0  0  0
   21.1646   -6.0145  -15.6290 C   0  0  0  0  0  0  0  0  0  0  0  0
   20.6784   -4.7799  -16.0138 O   0  0  0  0  0  0  0  0  0  0  0  0
   22.1681   -6.0659  -14.8910 O   0  0  0  0  0  0  0  0  0  0  0  0
  2  1  1  0
  3  2  1  0
  3  4  1  1
  5  3  1  0
  6  5  2  0
  7  8  1  0
  9  8  1  0
  9 10  1  1
 11  9  1  0
 11 12  1  6
 12  5  1  0
 13 14  2  0
 13 11  1  0
 15 13  1  0
 16 15  1  0
 16 17  1  1
 18 17  1  0
 19 20  1  0
 19 16  1  0
 21 19  2  0
M  END
$$$$
