SIC.pdb
     RDKit          3D

 21 20  0  0  1  0  0  0  0  0999 V2000
   19.6851  -33.6217   -7.1555 O   0  0  0  0  0  0  0  0  0  0  0  0
   20.7580  -34.2690   -6.6017 C   0  0  0  0  0  0  0  0  0  0  0  0
   21.7733  -34.6392   -7.6738 C   0  0  2  0  0  0  0  0  0  0  0  0
   21.3521  -35.8775   -8.3281 N   0  0  0  0  0  0  0  0  0  0  0  0
   23.1016  -34.8957   -7.0863 C   0  0  0  0  0  0  0  0  0  0  0  0
   23.3836  -36.0019   -6.5064 O   0  0  0  0  0  0  0  0  0  0  0  0
   25.4376  -31.9861   -9.1642 C   0  0  0  0  0  0  0  0  0  0  0  0
   26.4428  -32.9950   -8.6478 C   0  0  0  0  0  0  0  0  0  0  0  0
   26.3195  -33.0425   -7.1590 C   0  0  2  0  0  0  0  0  0  0  0  0
   27.7156  -33.2931   -6.5903 C   0  0  0  0  0  0  0  0  0  0  0  0
   25.4532  -34.1850   -6.6753 C   0  0  2  0  0  0  0  0  0  0  0  0
   24.1016  -33.9022   -7.1583 N   0  0  0  0  0  0  0  0  0  0  0  0
   25.4682  -34.3468   -5.2259 C   0  0  0  0  0  0  0  0  0  0  0  0
   24.8733  -33.5353   -4.4874 O   0  0  0  0  0  0  0  0  0  0  0  0
   26.1590  -35.4288   -4.6332 N   0  0  0  0  0  0  0  0  0  0  0  0
   26.1459  -35.7354   -3.2373 C   0  0  1  0  0  0  0  0  0  0  0  0
   26.0928  -37.2558   -3.0606 C   0  0  0  0  0  0  0  0  0  0  0  0
   25.4874  -37.6641   -1.3952 S   0  0  0  0  0  0  0  0  0  0  0  0
   27.4123  -35.2863   -2.6293 C   0  0  0  0  0  0  0  0  0  0  0  0
   27.4480  -34.7709   -1.3479 O   0  0  0  0  0  0  0  0  0  0  0  0
   28.4741  -35.3702   -3.2771 O   0  0  0  0  0  0  0  0  0  0  0  0
  2  1  1  0
  3  2  1  0
  3  4  1  1
  5  3  1  0
  6  5  2  0
  7  8  1  0
  9  8  1  0
  9 10  1  1
 11  9  1  0
 11 12  1  1
 12  5  1  0
 13 14  2  0
 13 11  1  0
 15 13  1  0
 16 15  1  0
 16 17  1  6
 18 17  1  0
 19 20  1  0
 19 16  1  0
 21 19  2  0
M  END
$$$$
