SIC.pdb
     RDKit          3D

 21 20  0  0  1  0  0  0  0  0999 V2000
   18.2909  -12.7809  -17.6607 O   0  0  0  0  0  0  0  0  0  0  0  0
   18.8757  -11.6962  -17.0621 C   0  0  0  0  0  0  0  0  0  0  0  0
   20.0843  -12.1231  -16.2410 C   0  0  2  0  0  0  0  0  0  0  0  0
   19.6378  -12.9576  -15.1260 N   0  0  0  0  0  0  0  0  0  0  0  0
   20.7713  -10.9570  -15.6549 C   0  0  0  0  0  0  0  0  0  0  0  0
   20.2819  -10.3096  -14.6645 O   0  0  0  0  0  0  0  0  0  0  0  0
   26.1241  -10.9318  -15.2403 C   0  0  0  0  0  0  0  0  0  0  0  0
   24.6462  -10.7495  -14.9612 C   0  0  0  0  0  0  0  0  0  0  0  0
   24.1612   -9.6066  -15.7934 C   0  0  2  0  0  0  0  0  0  0  0  0
   24.8647   -8.3447  -15.2950 C   0  0  0  0  0  0  0  0  0  0  0  0
   22.6773   -9.3535  -15.6399 C   0  0  2  0  0  0  0  0  0  0  0  0
   22.0057  -10.5309  -16.1905 N   0  0  0  0  0  0  0  0  0  0  0  0
   22.2279   -8.1356  -16.3047 C   0  0  0  0  0  0  0  0  0  0  0  0
   22.3314   -8.0091  -17.5421 O   0  0  0  0  0  0  0  0  0  0  0  0
   21.6665   -7.0761  -15.5553 N   0  0  0  0  0  0  0  0  0  0  0  0
   21.2289   -5.8324  -16.1070 C   0  0  1  0  0  0  0  0  0  0  0  0
   19.7970   -5.5553  -15.6396 C   0  0  0  0  0  0  0  0  0  0  0  0
   19.3234   -3.8539  -16.0727 S   0  0  0  0  0  0  0  0  0  0  0  0
   22.0639   -4.7419  -15.5699 C   0  0  0  0  0  0  0  0  0  0  0  0
   22.3419   -4.6516  -14.2195 O   0  0  0  0  0  0  0  0  0  0  0  0
   22.5312   -3.8819  -16.3422 O   0  0  0  0  0  0  0  0  0  0  0  0
  2  1  1  0
  3  2  1  0
  3  4  1  1
  5  3  1  0
  6  5  2  0
  7  8  1  0
  9  8  1  0
  9 10  1  1
 11  9  1  0
 11 12  1  6
 12  5  1  0
 13 14  2  0
 13 11  1  0
 15 13  1  0
 16 15  1  0
 16 17  1  1
 18 17  1  0
 19 20  1  0
 19 16  1  0
 21 19  2  0
M  END
$$$$
