SIC.pdb
     RDKit          3D

 21 20  0  0  1  0  0  0  0  0999 V2000
   34.9024  -34.1462  -13.5290 O   0  0  0  0  0  0  0  0  0  0  0  0
   34.2481  -33.1905  -12.7973 C   0  0  0  0  0  0  0  0  0  0  0  0
   35.1516  -32.6409  -11.7026 C   0  0  2  0  0  0  0  0  0  0  0  0
   36.4726  -32.3610  -12.2644 N   0  0  0  0  0  0  0  0  0  0  0  0
   35.3455  -33.6277  -10.6238 C   0  0  0  0  0  0  0  0  0  0  0  0
   36.4273  -34.3032  -10.5099 O   0  0  0  0  0  0  0  0  0  0  0  0
   32.0856  -33.0157   -6.2203 C   0  0  0  0  0  0  0  0  0  0  0  0
   32.5194  -33.7201   -7.4894 C   0  0  0  0  0  0  0  0  0  0  0  0
   33.9620  -34.0819   -7.3414 C   0  0  2  0  0  0  0  0  0  0  0  0
   34.7474  -32.7810   -7.1790 C   0  0  0  0  0  0  0  0  0  0  0  0
   34.5265  -34.7680   -8.5663 C   0  0  2  0  0  0  0  0  0  0  0  0
   34.3173  -33.8444   -9.6814 N   0  0  0  0  0  0  0  0  0  0  0  0
   33.9125  -36.0630   -8.8366 C   0  0  0  0  0  0  0  0  0  0  0  0
   33.2008  -36.2327   -9.8478 O   0  0  0  0  0  0  0  0  0  0  0  0
   34.1147  -37.1495   -7.9546 N   0  0  0  0  0  0  0  0  0  0  0  0
   33.5872  -38.4636   -8.1486 C   0  0  1  0  0  0  0  0  0  0  0  0
   34.2052  -39.0679   -9.4129 C   0  0  0  0  0  0  0  0  0  0  0  0
   33.5878  -40.7613   -9.6544 S   0  0  0  0  0  0  0  0  0  0  0  0
   34.0027  -39.3247   -7.0257 C   0  0  0  0  0  0  0  0  0  0  0  0
   33.1110  -40.1861   -6.4161 O   0  0  0  0  0  0  0  0  0  0  0  0
   35.1784  -39.2801   -6.6134 O   0  0  0  0  0  0  0  0  0  0  0  0
  2  1  1  0
  3  2  1  0
  3  4  1  6
  5  3  1  0
  6  5  2  0
  7  8  1  0
  9  8  1  0
  9 10  1  6
 11  9  1  0
 11 12  1  6
 12  5  1  0
 13 14  2  0
 13 11  1  0
 15 13  1  0
 16 15  1  0
 16 17  1  6
 18 17  1  0
 19 20  1  0
 19 16  1  0
 21 19  2  0
M  END
$$$$
