SIC.pdb
     RDKit          3D

 21 20  0  0  1  0  0  0  0  0999 V2000
   13.2887   -8.2038  -10.2964 O   0  0  0  0  0  0  0  0  0  0  0  0
   14.3795   -7.5524  -10.8089 C   0  0  0  0  0  0  0  0  0  0  0  0
   15.6651   -8.1064  -10.2111 C   0  0  2  0  0  0  0  0  0  0  0  0
   15.7310   -7.7471   -8.7949 N   0  0  0  0  0  0  0  0  0  0  0  0
   16.8526   -7.5176  -10.8579 C   0  0  0  0  0  0  0  0  0  0  0  0
   17.4830   -6.5282  -10.3446 O   0  0  0  0  0  0  0  0  0  0  0  0
   21.8041   -8.4439  -13.3852 C   0  0  0  0  0  0  0  0  0  0  0  0
   20.4878   -8.1082  -14.0556 C   0  0  0  0  0  0  0  0  0  0  0  0
   19.3861   -8.5489  -13.1466 C   0  0  2  0  0  0  0  0  0  0  0  0
   18.5436   -9.5714  -13.9084 C   0  0  0  0  0  0  0  0  0  0  0  0
   18.4478   -7.4236  -12.7685 C   0  0  2  0  0  0  0  0  0  0  0  0
   17.3201   -8.0500  -12.0786 N   0  0  0  0  0  0  0  0  0  0  0  0
   17.9931   -6.6424  -13.9132 C   0  0  0  0  0  0  0  0  0  0  0  0
   17.2119   -7.1360  -14.7522 O   0  0  0  0  0  0  0  0  0  0  0  0
   18.4315   -5.3100  -14.0905 N   0  0  0  0  0  0  0  0  0  0  0  0
   18.0165   -4.4521  -15.1557 C   0  0  1  0  0  0  0  0  0  0  0  0
   17.4756   -3.1472  -14.5639 C   0  0  0  0  0  0  0  0  0  0  0  0
   15.8783   -3.4527  -13.7500 S   0  0  0  0  0  0  0  0  0  0  0  0
   19.1899   -4.0881  -15.9716 C   0  0  0  0  0  0  0  0  0  0  0  0
   19.0525   -3.3639  -17.1402 O   0  0  0  0  0  0  0  0  0  0  0  0
   20.3299   -4.4366  -15.6068 O   0  0  0  0  0  0  0  0  0  0  0  0
  2  1  1  0
  3  2  1  0
  3  4  1  1
  5  3  1  0
  6  5  2  0
  7  8  1  0
  9  8  1  0
  9 10  1  6
 11  9  1  0
 11 12  1  6
 12  5  1  0
 13 14  2  0
 13 11  1  0
 15 13  1  0
 16 15  1  0
 16 17  1  1
 18 17  1  0
 19 20  1  0
 19 16  1  0
 21 19  2  0
M  END
$$$$
