SIC.pdb
     RDKit          3D

 21 20  0  0  1  0  0  0  0  0999 V2000
   20.0001   -6.0965  -18.8228 O   0  0  0  0  0  0  0  0  0  0  0  0
   20.3560   -7.4062  -19.0100 C   0  0  0  0  0  0  0  0  0  0  0  0
   19.1321   -8.3091  -18.9466 C   0  0  2  0  0  0  0  0  0  0  0  0
   18.1651   -7.8803  -19.9565 N   0  0  0  0  0  0  0  0  0  0  0  0
   18.4591   -8.2062  -17.6383 C   0  0  0  0  0  0  0  0  0  0  0  0
   17.3833   -7.5296  -17.4812 O   0  0  0  0  0  0  0  0  0  0  0  0
   18.6246  -12.3445  -15.5084 C   0  0  0  0  0  0  0  0  0  0  0  0
   17.7123  -11.2059  -15.1003 C   0  0  0  0  0  0  0  0  0  0  0  0
   18.5658  -10.1145  -14.5395 C   0  0  2  0  0  0  0  0  0  0  0  0
   18.1660   -9.9246  -13.0767 C   0  0  0  0  0  0  0  0  0  0  0  0
   18.3388   -8.7810  -15.2177 C   0  0  2  0  0  0  0  0  0  0  0  0
   19.0047   -8.8681  -16.5174 N   0  0  0  0  0  0  0  0  0  0  0  0
   18.8406   -7.6490  -14.4470 C   0  0  0  0  0  0  0  0  0  0  0  0
   18.2453   -7.2626  -13.4202 O   0  0  0  0  0  0  0  0  0  0  0  0
   20.0125   -6.9697  -14.8524 N   0  0  0  0  0  0  0  0  0  0  0  0
   20.5921   -5.8627  -14.1586 C   0  0  1  0  0  0  0  0  0  0  0  0
   22.1168   -5.9399  -14.2809 C   0  0  0  0  0  0  0  0  0  0  0  0
   22.8736   -4.4750  -13.5138 S   0  0  0  0  0  0  0  0  0  0  0  0
   20.1814   -4.6081  -14.8162 C   0  0  0  0  0  0  0  0  0  0  0  0
   19.9098   -3.4702  -14.0813 O   0  0  0  0  0  0  0  0  0  0  0  0
   20.0751   -4.5658  -16.0577 O   0  0  0  0  0  0  0  0  0  0  0  0
  2  1  1  0
  3  2  1  0
  3  4  1  6
  5  3  1  0
  6  5  2  0
  7  8  1  0
  9  8  1  0
  9 10  1  1
 11  9  1  0
 11 12  1  6
 12  5  1  0
 13 14  2  0
 13 11  1  0
 15 13  1  0
 16 15  1  0
 16 17  1  6
 18 17  1  0
 19 20  1  0
 19 16  1  0
 21 19  2  0
M  END
$$$$
