SIC.pdb
     RDKit          3D

 21 20  0  0  1  0  0  0  0  0999 V2000
   24.3136  -15.1243  -19.0251 O   0  0  0  0  0  0  0  0  0  0  0  0
   23.4097  -14.4523  -19.8050 C   0  0  0  0  0  0  0  0  0  0  0  0
   23.7872  -12.9820  -19.9181 C   0  0  2  0  0  0  0  0  0  0  0  0
   25.1682  -12.8746  -20.3873 N   0  0  0  0  0  0  0  0  0  0  0  0
   23.7276  -12.3123  -18.6054 C   0  0  0  0  0  0  0  0  0  0  0  0
   22.6606  -12.3028  -17.8976 O   0  0  0  0  0  0  0  0  0  0  0  0
   28.1517  -12.4048  -15.6370 C   0  0  0  0  0  0  0  0  0  0  0  0
   26.6703  -12.4472  -15.9512 C   0  0  0  0  0  0  0  0  0  0  0  0
   26.2241  -11.0504  -16.2407 C   0  0  2  0  0  0  0  0  0  0  0  0
   26.1882  -10.2951  -14.9126 C   0  0  0  0  0  0  0  0  0  0  0  0
   24.8213  -10.9844  -16.8041 C   0  0  2  0  0  0  0  0  0  0  0  0
   24.8726  -11.6589  -18.1012 N   0  0  0  0  0  0  0  0  0  0  0  0
   24.3183   -9.6223  -16.9417 C   0  0  0  0  0  0  0  0  0  0  0  0
   24.9954   -8.7479  -17.5203 O   0  0  0  0  0  0  0  0  0  0  0  0
   23.0521   -9.2703  -16.4202 N   0  0  0  0  0  0  0  0  0  0  0  0
   22.4375   -7.9889  -16.5721 C   0  0  1  0  0  0  0  0  0  0  0  0
   21.1096   -8.1572  -17.3164 C   0  0  0  0  0  0  0  0  0  0  0  0
   21.3955   -8.9798  -18.9128 S   0  0  0  0  0  0  0  0  0  0  0  0
   22.1065   -7.4478  -15.2406 C   0  0  0  0  0  0  0  0  0  0  0  0
   21.6824   -6.1423  -15.0835 O   0  0  0  0  0  0  0  0  0  0  0  0
   22.2087   -8.1757  -14.2336 O   0  0  0  0  0  0  0  0  0  0  0  0
  2  1  1  0
  3  2  1  0
  3  4  1  1
  5  3  1  0
  6  5  2  0
  7  8  1  0
  9  8  1  0
  9 10  1  1
 11  9  1  0
 11 12  1  6
 12  5  1  0
 13 14  2  0
 13 11  1  0
 15 13  1  0
 16 15  1  0
 16 17  1  6
 18 17  1  0
 19 20  1  0
 19 16  1  0
 21 19  2  0
M  END
$$$$
