SIC.pdb
     RDKit          3D

 21 20  0  0  1  0  0  0  0  0999 V2000
   17.8821  -26.5616   -7.6222 O   0  0  0  0  0  0  0  0  0  0  0  0
   18.7997  -25.7291   -8.2068 C   0  0  0  0  0  0  0  0  0  0  0  0
   18.9633  -24.4540   -7.3916 C   0  0  2  0  0  0  0  0  0  0  0  0
   17.8072  -24.2949   -6.5102 N   0  0  0  0  0  0  0  0  0  0  0  0
   19.0048  -23.2644   -8.2624 C   0  0  0  0  0  0  0  0  0  0  0  0
   17.9589  -22.5675   -8.5076 O   0  0  0  0  0  0  0  0  0  0  0  0
   23.6890  -20.5818   -8.5523 C   0  0  0  0  0  0  0  0  0  0  0  0
   22.2078  -20.8747   -8.4293 C   0  0  0  0  0  0  0  0  0  0  0  0
   21.7030  -21.2558   -9.7835 C   0  0  2  0  0  0  0  0  0  0  0  0
   21.7285  -19.9996  -10.6535 C   0  0  0  0  0  0  0  0  0  0  0  0
   20.2661  -21.7298   -9.7653 C   0  0  2  0  0  0  0  0  0  0  0  0
   20.2263  -22.8699   -8.8493 N   0  0  0  0  0  0  0  0  0  0  0  0
   19.7637  -22.0994  -11.0837 C   0  0  0  0  0  0  0  0  0  0  0  0
   20.3879  -22.9086  -11.8001 O   0  0  0  0  0  0  0  0  0  0  0  0
   18.5580  -21.5451  -11.5719 N   0  0  0  0  0  0  0  0  0  0  0  0
   17.9799  -21.8480  -12.8434 C   0  0  1  0  0  0  0  0  0  0  0  0
   16.4642  -21.9953  -12.6802 C   0  0  0  0  0  0  0  0  0  0  0  0
   16.0956  -23.3460  -11.5197 S   0  0  0  0  0  0  0  0  0  0  0  0
   18.1948  -20.7112  -13.7581 C   0  0  0  0  0  0  0  0  0  0  0  0
   18.5500  -19.4647  -13.2797 O   0  0  0  0  0  0  0  0  0  0  0  0
   18.0552  -20.8701  -14.9867 O   0  0  0  0  0  0  0  0  0  0  0  0
  2  1  1  0
  3  2  1  0
  3  4  1  1
  5  3  1  0
  6  5  2  0
  7  8  1  0
  9  8  1  0
  9 10  1  6
 11  9  1  0
 11 12  1  1
 12  5  1  0
 13 14  2  0
 13 11  1  0
 15 13  1  0
 16 15  1  0
 16 17  1  1
 18 17  1  0
 19 20  1  0
 19 16  1  0
 21 19  2  0
M  END
$$$$
