SIC.pdb
     RDKit          3D

 21 20  0  0  1  0  0  0  0  0999 V2000
   22.5614  -14.0045  -21.3576 O   0  0  0  0  0  0  0  0  0  0  0  0
   22.5862  -13.0916  -20.3364 C   0  0  0  0  0  0  0  0  0  0  0  0
   23.3120  -13.6608  -19.1254 C   0  0  2  0  0  0  0  0  0  0  0  0
   22.5349  -14.7718  -18.5771 N   0  0  0  0  0  0  0  0  0  0  0  0
   23.4351  -12.6545  -18.0542 C   0  0  0  0  0  0  0  0  0  0  0  0
   22.4850  -12.4266  -17.2265 O   0  0  0  0  0  0  0  0  0  0  0  0
   28.1681  -12.0104  -15.6721 C   0  0  0  0  0  0  0  0  0  0  0  0
   26.6703  -12.1151  -15.8744 C   0  0  0  0  0  0  0  0  0  0  0  0
   26.2032  -10.8406  -16.5000 C   0  0  2  0  0  0  0  0  0  0  0  0
   26.3325   -9.7386  -15.4490 C   0  0  0  0  0  0  0  0  0  0  0  0
   24.7435  -10.8789  -16.8969 C   0  0  2  0  0  0  0  0  0  0  0  0
   24.6294  -11.9135  -17.9248 N   0  0  0  0  0  0  0  0  0  0  0  0
   24.2445   -9.5983  -17.3850 C   0  0  0  0  0  0  0  0  0  0  0  0
   24.7766   -9.0384  -18.3654 O   0  0  0  0  0  0  0  0  0  0  0  0
   23.1469   -8.9696  -16.7533 N   0  0  0  0  0  0  0  0  0  0  0  0
   22.5708   -7.7292  -17.1684 C   0  0  1  0  0  0  0  0  0  0  0  0
   21.0451   -7.8630  -17.1696 C   0  0  0  0  0  0  0  0  0  0  0  0
   20.5442   -9.2193  -18.2724 S   0  0  0  0  0  0  0  0  0  0  0  0
   22.8997   -6.6856  -16.1795 C   0  0  0  0  0  0  0  0  0  0  0  0
   22.7868   -5.3440  -16.4901 O   0  0  0  0  0  0  0  0  0  0  0  0
   23.2872   -7.0120  -15.0405 O   0  0  0  0  0  0  0  0  0  0  0  0
  2  1  1  0
  3  2  1  0
  3  4  1  1
  5  3  1  0
  6  5  2  0
  7  8  1  0
  9  8  1  0
  9 10  1  1
 11  9  1  0
 11 12  1  6
 12  5  1  0
 13 14  2  0
 13 11  1  0
 15 13  1  0
 16 15  1  0
 16 17  1  1
 18 17  1  0
 19 20  1  0
 19 16  1  0
 21 19  2  0
M  END
$$$$
