LCR.pdb
     RDKit          3D

 26 25  0  0  1  0  0  0  0  0999 V2000
   29.2727  -19.7815  -18.3476 C   0  0  0  0  0  0  0  0  0  0  0  0
   28.5572  -19.0371  -17.2347 C   0  0  1  0  0  0  0  0  0  0  0  0
   27.4554  -18.1879  -17.8909 C   0  0  0  0  0  0  0  0  0  0  0  0
   27.9401  -20.0385  -16.3047 C   0  0  0  0  0  0  0  0  0  0  0  0
   27.2287  -19.4182  -15.1231 C   0  0  2  0  0  0  0  0  0  0  0  0
   28.1081  -18.4082  -14.5486 N   0  0  0  0  0  0  0  0  0  0  0  0
   26.8098  -20.4036  -14.1044 C   0  0  0  0  0  0  0  0  0  0  0  0
   26.3022  -21.5061  -14.4164 O   0  0  0  0  0  0  0  0  0  0  0  0
   26.9621  -20.1513  -12.6929 N   0  0  0  0  0  0  0  0  0  0  0  0
   26.0777  -20.7828  -11.7512 C   0  0  1  0  0  0  0  0  0  0  0  0
   26.4337  -20.2826  -10.3658 C   0  0  0  0  0  0  0  0  0  0  0  0
   25.2310  -20.9959   -9.2153 S   0  0  0  0  0  0  0  0  0  0  0  0
   24.6464  -20.5433  -12.0650 C   0  0  0  0  0  0  0  0  0  0  0  0
   24.2856  -19.3792  -12.3761 O   0  0  0  0  0  0  0  0  0  0  0  0
   20.8651  -26.5057  -16.4541 N   0  0  0  0  0  0  0  0  0  0  0  0
   21.9723  -26.1542  -15.6043 C   0  0  0  0  0  0  0  0  0  0  0  0
   22.9301  -26.9726  -15.4021 N   0  0  0  0  0  0  0  0  0  0  0  0
   21.9307  -24.8647  -15.0177 N   0  0  0  0  0  0  0  0  0  0  0  0
   20.6823  -24.1083  -15.0431 C   0  0  0  0  0  0  0  0  0  0  0  0
   20.8766  -22.8101  -14.2895 C   0  0  0  0  0  0  0  0  0  0  0  0
   22.1405  -22.7668  -13.5164 C   0  0  0  0  0  0  0  0  0  0  0  0
   22.4182  -21.4666  -12.8065 C   0  0  2  0  0  0  0  0  0  0  0  0
   23.6636  -21.5579  -12.0328 N   0  0  0  0  0  0  0  0  0  0  0  0
   21.3333  -21.2118  -11.8514 C   0  0  0  0  0  0  0  0  0  0  0  0
   21.5856  -21.1911  -10.5010 O   0  0  0  0  0  0  0  0  0  0  0  0
   20.1733  -21.0123  -12.2621 O   0  0  0  0  0  0  0  0  0  0  0  0
  2  3  1  6
  2  1  1  0
  4  2  1  0
  5  6  1  1
  5  4  1  0
  7  5  1  0
  8  7  2  0
  9  7  1  0
 10  9  1  0
 11 12  1  0
 10 11  1  1
 13 23  1  0
 13 10  1  0
 14 13  2  0
 16 15  1  0
 16 17  2  0
 18 16  1  0
 19 18  1  0
 20 19  1  0
 20 21  1  0
 22 21  1  1
 22 23  1  0
 24 22  1  0
 25 24  1  0
 26 24  2  0
M  END
$$$$
