LCR.pdb
     RDKit          3D

 26 25  0  0  1  0  0  0  0  0999 V2000
   26.2394  -15.3346  -16.3807 C   0  0  0  0  0  0  0  0  0  0  0  0
   27.1807  -16.4285  -15.9097 C   0  0  1  0  0  0  0  0  0  0  0  0
   27.9113  -15.8952  -14.6657 C   0  0  0  0  0  0  0  0  0  0  0  0
   26.3706  -17.6362  -15.5438 C   0  0  0  0  0  0  0  0  0  0  0  0
   27.1995  -18.8040  -15.0577 C   0  0  2  0  0  0  0  0  0  0  0  0
   28.0024  -19.2816  -16.1760 N   0  0  0  0  0  0  0  0  0  0  0  0
   26.3928  -19.8963  -14.4744 C   0  0  0  0  0  0  0  0  0  0  0  0
   25.7492  -20.7005  -15.1883 O   0  0  0  0  0  0  0  0  0  0  0  0
   26.3011  -20.0981  -13.0495 N   0  0  0  0  0  0  0  0  0  0  0  0
   25.3731  -21.0600  -12.5190 C   0  0  1  0  0  0  0  0  0  0  0  0
   25.7358  -21.3108  -11.0693 C   0  0  0  0  0  0  0  0  0  0  0  0
   25.5350  -19.7409  -10.1894 S   0  0  0  0  0  0  0  0  0  0  0  0
   23.9602  -20.6258  -12.6591 C   0  0  0  0  0  0  0  0  0  0  0  0
   23.7222  -19.4055  -12.8494 O   0  0  0  0  0  0  0  0  0  0  0  0
   17.4960  -17.3238  -14.9930 N   0  0  0  0  0  0  0  0  0  0  0  0
   18.8354  -17.0649  -15.4520 C   0  0  0  0  0  0  0  0  0  0  0  0
   19.0775  -16.1134  -16.2670 N   0  0  0  0  0  0  0  0  0  0  0  0
   19.8488  -17.9189  -14.9497 N   0  0  0  0  0  0  0  0  0  0  0  0
   19.4697  -19.1181  -14.2084 C   0  0  0  0  0  0  0  0  0  0  0  0
   20.0797  -20.3282  -14.8827 C   0  0  0  0  0  0  0  0  0  0  0  0
   21.4348  -20.6563  -14.3797 C   0  0  0  0  0  0  0  0  0  0  0  0
   21.4985  -21.1022  -12.9414 C   0  0  2  0  0  0  0  0  0  0  0  0
   22.8639  -21.5143  -12.5898 N   0  0  0  0  0  0  0  0  0  0  0  0
   20.6355  -22.2777  -12.7753 C   0  0  0  0  0  0  0  0  0  0  0  0
   19.3236  -22.1296  -12.3951 O   0  0  0  0  0  0  0  0  0  0  0  0
   21.0901  -23.4205  -12.9792 O   0  0  0  0  0  0  0  0  0  0  0  0
  2  3  1  1
  2  1  1  0
  4  2  1  0
  5  6  1  6
  5  4  1  0
  7  5  1  0
  8  7  2  0
  9  7  1  0
 10  9  1  0
 11 12  1  0
 10 11  1  1
 13 23  1  0
 13 10  1  0
 14 13  2  0
 16 15  1  0
 16 17  2  0
 18 16  1  0
 19 18  1  0
 20 19  1  0
 20 21  1  0
 22 21  1  6
 22 23  1  0
 24 22  1  0
 25 24  1  0
 26 24  2  0
M  END
$$$$
