LCR.pdb
     RDKit          3D

 26 25  0  0  1  0  0  0  0  0999 V2000
   30.4540  -16.4087  -18.8666 C   0  0  0  0  0  0  0  0  0  0  0  0
   29.0217  -16.4660  -19.3667 C   0  0  1  0  0  0  0  0  0  0  0  0
   28.8397  -17.8215  -20.0703 C   0  0  0  0  0  0  0  0  0  0  0  0
   28.0969  -16.3768  -18.1897 C   0  0  0  0  0  0  0  0  0  0  0  0
   26.6460  -16.6324  -18.5315 C   0  0  2  0  0  0  0  0  0  0  0  0
   26.1108  -15.4264  -19.1499 N   0  0  0  0  0  0  0  0  0  0  0  0
   25.8309  -17.0436  -17.3693 C   0  0  0  0  0  0  0  0  0  0  0  0
   25.9149  -16.4643  -16.2612 O   0  0  0  0  0  0  0  0  0  0  0  0
   24.8922  -18.1355  -17.4456 N   0  0  0  0  0  0  0  0  0  0  0  0
   24.0306  -18.4207  -16.3303 C   0  0  1  0  0  0  0  0  0  0  0  0
   23.0978  -17.2409  -16.1452 C   0  0  0  0  0  0  0  0  0  0  0  0
   21.8094  -17.7563  -14.9819 S   0  0  0  0  0  0  0  0  0  0  0  0
   23.2769  -19.6883  -16.5021 C   0  0  0  0  0  0  0  0  0  0  0  0
   22.5619  -19.8286  -17.5274 O   0  0  0  0  0  0  0  0  0  0  0  0
   26.5715  -21.9805  -12.6150 N   0  0  0  0  0  0  0  0  0  0  0  0
   25.2920  -21.7877  -11.9845 C   0  0  0  0  0  0  0  0  0  0  0  0
   25.1155  -20.8576  -11.1290 N   0  0  0  0  0  0  0  0  0  0  0  0
   24.2605  -22.6808  -12.3679 N   0  0  0  0  0  0  0  0  0  0  0  0
   24.5609  -23.7588  -13.3055 C   0  0  0  0  0  0  0  0  0  0  0  0
   23.4114  -23.8995  -14.2801 C   0  0  0  0  0  0  0  0  0  0  0  0
   23.6340  -23.1760  -15.5544 C   0  0  0  0  0  0  0  0  0  0  0  0
   22.6765  -22.0451  -15.8299 C   0  0  2  0  0  0  0  0  0  0  0  0
   23.3204  -20.7504  -15.5714 N   0  0  0  0  0  0  0  0  0  0  0  0
   21.5410  -22.1556  -14.9065 C   0  0  0  0  0  0  0  0  0  0  0  0
   20.6228  -23.1674  -15.0506 O   0  0  0  0  0  0  0  0  0  0  0  0
   21.4033  -21.3288  -13.9836 O   0  0  0  0  0  0  0  0  0  0  0  0
  2  3  1  1
  2  1  1  0
  4  2  1  0
  5  6  1  1
  5  4  1  0
  7  5  1  0
  8  7  2  0
  9  7  1  0
 10  9  1  0
 11 12  1  0
 10 11  1  6
 13 23  1  0
 13 10  1  0
 14 13  2  0
 16 15  1  0
 16 17  2  0
 18 16  1  0
 19 18  1  0
 20 19  1  0
 20 21  1  0
 22 21  1  1
 22 23  1  0
 24 22  1  0
 25 24  1  0
 26 24  2  0
M  END
$$$$
