LCR.pdb
     RDKit          3D

 26 25  0  0  1  0  0  0  0  0999 V2000
   28.2441  -22.2380   -9.3789 C   0  0  0  0  0  0  0  0  0  0  0  0
   27.1659  -21.1698   -9.4096 C   0  0  1  0  0  0  0  0  0  0  0  0
   27.8290  -19.8427   -9.0037 C   0  0  0  0  0  0  0  0  0  0  0  0
   26.6325  -21.0642  -10.8071 C   0  0  0  0  0  0  0  0  0  0  0  0
   25.6450  -19.9353  -11.0008 C   0  0  2  0  0  0  0  0  0  0  0  0
   24.3634  -20.3602  -10.4526 N   0  0  0  0  0  0  0  0  0  0  0  0
   25.5082  -19.5077  -12.4088 C   0  0  0  0  0  0  0  0  0  0  0  0
   24.4887  -19.7735  -13.0873 O   0  0  0  0  0  0  0  0  0  0  0  0
   26.5415  -18.7597  -13.0814 N   0  0  0  0  0  0  0  0  0  0  0  0
   26.3796  -18.3940  -14.4626 C   0  0  1  0  0  0  0  0  0  0  0  0
   27.6207  -17.6407  -14.8964 C   0  0  0  0  0  0  0  0  0  0  0  0
   27.3426  -17.0889  -16.5985 S   0  0  0  0  0  0  0  0  0  0  0  0
   26.1219  -19.5668  -15.3359 C   0  0  0  0  0  0  0  0  0  0  0  0
   26.4278  -20.7109  -14.9122 O   0  0  0  0  0  0  0  0  0  0  0  0
   20.4668  -23.8063  -14.0951 N   0  0  0  0  0  0  0  0  0  0  0  0
   20.0455  -22.4332  -14.0022 C   0  0  0  0  0  0  0  0  0  0  0  0
   19.1859  -22.0678  -13.1329 N   0  0  0  0  0  0  0  0  0  0  0  0
   20.6358  -21.5302  -14.9214 N   0  0  0  0  0  0  0  0  0  0  0  0
   21.6424  -22.0208  -15.8581 C   0  0  0  0  0  0  0  0  0  0  0  0
   22.0365  -20.8966  -16.7920 C   0  0  0  0  0  0  0  0  0  0  0  0
   23.2145  -20.1309  -16.3200 C   0  0  0  0  0  0  0  0  0  0  0  0
   24.4910  -20.3756  -17.0832 C   0  0  2  0  0  0  0  0  0  0  0  0
   25.5486  -19.4657  -16.6233 N   0  0  0  0  0  0  0  0  0  0  0  0
   24.2541  -20.0817  -18.5016 C   0  0  0  0  0  0  0  0  0  0  0  0
   24.2034  -21.0987  -19.4238 O   0  0  0  0  0  0  0  0  0  0  0  0
   24.0971  -18.9036  -18.8779 O   0  0  0  0  0  0  0  0  0  0  0  0
  2  3  1  6
  2  1  1  0
  4  2  1  0
  5  6  1  6
  5  4  1  0
  7  5  1  0
  8  7  2  0
  9  7  1  0
 10  9  1  0
 11 12  1  0
 10 11  1  6
 13 23  1  0
 13 10  1  0
 14 13  2  0
 16 15  1  0
 16 17  2  0
 18 16  1  0
 19 18  1  0
 20 19  1  0
 20 21  1  0
 22 21  1  1
 22 23  1  0
 24 22  1  0
 25 24  1  0
 26 24  2  0
M  END
$$$$
