LCR.pdb
     RDKit          3D

 26 25  0  0  1  0  0  0  0  0999 V2000
   22.0648  -19.7442  -13.2374 C   0  0  0  0  0  0  0  0  0  0  0  0
   20.8551  -19.7522  -14.1545 C   0  0  1  0  0  0  0  0  0  0  0  0
   19.6190  -20.0031  -13.2744 C   0  0  0  0  0  0  0  0  0  0  0  0
   20.7436  -18.4112  -14.8160 C   0  0  0  0  0  0  0  0  0  0  0  0
   19.5585  -18.2854  -15.7471 C   0  0  2  0  0  0  0  0  0  0  0  0
   19.7083  -19.2797  -16.8019 N   0  0  0  0  0  0  0  0  0  0  0  0
   19.3939  -16.9293  -16.3109 C   0  0  0  0  0  0  0  0  0  0  0  0
   20.2378  -16.4271  -17.0895 O   0  0  0  0  0  0  0  0  0  0  0  0
   18.2518  -16.1072  -15.9963 N   0  0  0  0  0  0  0  0  0  0  0  0
   18.0994  -14.8208  -16.6205 C   0  0  1  0  0  0  0  0  0  0  0  0
   16.7668  -14.8047  -17.3416 C   0  0  0  0  0  0  0  0  0  0  0  0
   15.4836  -15.1005  -16.0988 S   0  0  0  0  0  0  0  0  0  0  0  0
   18.2072  -13.7011  -15.6514 C   0  0  0  0  0  0  0  0  0  0  0  0
   17.9539  -13.9275  -14.4403 O   0  0  0  0  0  0  0  0  0  0  0  0
   22.1709   -5.7543  -15.9935 N   0  0  0  0  0  0  0  0  0  0  0  0
   21.5790   -5.7430  -14.6816 C   0  0  0  0  0  0  0  0  0  0  0  0
   21.7174   -4.7379  -13.9077 N   0  0  0  0  0  0  0  0  0  0  0  0
   20.8463   -6.8984  -14.3118 N   0  0  0  0  0  0  0  0  0  0  0  0
   20.7305   -8.0040  -15.2582 C   0  0  0  0  0  0  0  0  0  0  0  0
   19.8324   -9.0686  -14.6656 C   0  0  0  0  0  0  0  0  0  0  0  0
   19.6731  -10.2530  -15.5423 C   0  0  0  0  0  0  0  0  0  0  0  0
   18.7301  -11.3118  -15.0311 C   0  0  2  0  0  0  0  0  0  0  0  0
   18.5809  -12.3889  -16.0187 N   0  0  0  0  0  0  0  0  0  0  0  0
   17.4047  -10.7098  -14.8439 C   0  0  0  0  0  0  0  0  0  0  0  0
   17.0540  -10.1619  -13.6338 O   0  0  0  0  0  0  0  0  0  0  0  0
   16.5876  -10.6925  -15.7853 O   0  0  0  0  0  0  0  0  0  0  0  0
  2  3  1  1
  2  1  1  0
  4  2  1  0
  5  6  1  6
  5  4  1  0
  7  5  1  0
  8  7  2  0
  9  7  1  0
 10  9  1  0
 11 12  1  0
 10 11  1  1
 13 23  1  0
 13 10  1  0
 14 13  2  0
 16 15  1  0
 16 17  2  0
 18 16  1  0
 19 18  1  0
 20 19  1  0
 20 21  1  0
 22 21  1  6
 22 23  1  0
 24 22  1  0
 25 24  1  0
 26 24  2  0
M  END
$$$$
