LCR.pdb
     RDKit          3D

 26 25  0  0  1  0  0  0  0  0999 V2000
   21.8645  -19.8654  -18.7194 C   0  0  0  0  0  0  0  0  0  0  0  0
   22.8326  -19.3390  -17.6752 C   0  0  1  0  0  0  0  0  0  0  0  0
   22.1433  -18.1587  -16.9701 C   0  0  0  0  0  0  0  0  0  0  0  0
   23.1117  -20.4293  -16.6843 C   0  0  0  0  0  0  0  0  0  0  0  0
   23.9753  -19.9928  -15.5221 C   0  0  2  0  0  0  0  0  0  0  0  0
   25.3487  -20.3855  -15.8103 N   0  0  0  0  0  0  0  0  0  0  0  0
   23.5275  -20.5317  -14.2208 C   0  0  0  0  0  0  0  0  0  0  0  0
   23.3160  -21.7545  -14.0460 O   0  0  0  0  0  0  0  0  0  0  0  0
   23.3089  -19.6796  -13.0783 N   0  0  0  0  0  0  0  0  0  0  0  0
   22.8557  -20.2459  -11.8367 C   0  0  1  0  0  0  0  0  0  0  0  0
   23.1997  -19.2749  -10.7254 C   0  0  0  0  0  0  0  0  0  0  0  0
   22.7891  -20.0874   -9.1602 S   0  0  0  0  0  0  0  0  0  0  0  0
   21.4055  -20.5642  -11.8514 C   0  0  0  0  0  0  0  0  0  0  0  0
   20.6521  -19.9016  -12.6100 O   0  0  0  0  0  0  0  0  0  0  0  0
   16.4552  -26.9641   -8.0679 N   0  0  0  0  0  0  0  0  0  0  0  0
   15.4775  -26.1897   -8.7863 C   0  0  0  0  0  0  0  0  0  0  0  0
   14.2495  -26.5362   -8.8036 N   0  0  0  0  0  0  0  0  0  0  0  0
   15.9576  -25.0392   -9.4604 N   0  0  0  0  0  0  0  0  0  0  0  0
   17.3906  -24.7598   -9.4647 C   0  0  0  0  0  0  0  0  0  0  0  0
   17.6435  -23.4912  -10.2507 C   0  0  0  0  0  0  0  0  0  0  0  0
   19.0760  -23.1149  -10.3076 C   0  0  0  0  0  0  0  0  0  0  0  0
   19.3806  -21.8482  -11.0655 C   0  0  2  0  0  0  0  0  0  0  0  0
   20.8241  -21.5764  -11.0553 N   0  0  0  0  0  0  0  0  0  0  0  0
   18.7240  -20.7250  -10.3862 C   0  0  0  0  0  0  0  0  0  0  0  0
   17.3709  -20.5270  -10.5180 O   0  0  0  0  0  0  0  0  0  0  0  0
   19.3933  -19.9421   -9.6838 O   0  0  0  0  0  0  0  0  0  0  0  0
  2  3  1  1
  2  1  1  0
  4  2  1  0
  5  6  1  6
  5  4  1  0
  7  5  1  0
  8  7  2  0
  9  7  1  0
 10  9  1  0
 11 12  1  0
 10 11  1  1
 13 23  1  0
 13 10  1  0
 14 13  2  0
 16 15  1  0
 16 17  2  0
 18 16  1  0
 19 18  1  0
 20 19  1  0
 20 21  1  0
 22 21  1  1
 22 23  1  0
 24 22  1  0
 25 24  1  0
 26 24  2  0
M  END
$$$$
