LCR.pdb
     RDKit          3D

 26 25  0  0  1  0  0  0  0  0999 V2000
   28.4159  -11.4140  -15.6627 C   0  0  0  0  0  0  0  0  0  0  0  0
   27.0418  -11.4519  -16.3069 C   0  0  1  0  0  0  0  0  0  0  0  0
   26.5378  -12.9024  -16.2180 C   0  0  0  0  0  0  0  0  0  0  0  0
   26.1247  -10.5479  -15.5387 C   0  0  0  0  0  0  0  0  0  0  0  0
   24.7390  -10.4341  -16.1336 C   0  0  2  0  0  0  0  0  0  0  0  0
   24.8757  -10.3745  -17.5831 N   0  0  0  0  0  0  0  0  0  0  0  0
   23.9714   -9.2796  -15.6216 C   0  0  0  0  0  0  0  0  0  0  0  0
   23.7252   -9.1346  -14.4014 O   0  0  0  0  0  0  0  0  0  0  0  0
   23.4624   -8.2542  -16.4984 N   0  0  0  0  0  0  0  0  0  0  0  0
   22.7808   -7.1134  -15.9492 C   0  0  1  0  0  0  0  0  0  0  0  0
   23.4249   -5.8647  -16.5167 C   0  0  0  0  0  0  0  0  0  0  0  0
   22.5840   -4.4445  -15.7720 S   0  0  0  0  0  0  0  0  0  0  0  0
   21.3201   -7.1405  -16.2140 C   0  0  0  0  0  0  0  0  0  0  0  0
   20.9216   -7.5059  -17.3497 O   0  0  0  0  0  0  0  0  0  0  0  0
   14.5634  -11.5456  -13.5164 N   0  0  0  0  0  0  0  0  0  0  0  0
   14.3147  -11.0551  -14.8464 C   0  0  0  0  0  0  0  0  0  0  0  0
   13.5008  -11.6542  -15.6254 N   0  0  0  0  0  0  0  0  0  0  0  0
   15.0187   -9.8857  -15.2278 N   0  0  0  0  0  0  0  0  0  0  0  0
   16.3863   -9.6895  -14.7560 C   0  0  0  0  0  0  0  0  0  0  0  0
   16.8950   -8.3555  -15.2586 C   0  0  0  0  0  0  0  0  0  0  0  0
   18.3384   -8.1442  -14.9966 C   0  0  0  0  0  0  0  0  0  0  0  0
   18.9087   -6.8545  -15.5287 C   0  0  2  0  0  0  0  0  0  0  0  0
   20.3496   -6.7762  -15.2541 N   0  0  0  0  0  0  0  0  0  0  0  0
   18.2727   -5.7342  -14.8254 C   0  0  0  0  0  0  0  0  0  0  0  0
   16.9361   -5.4703  -15.0023 O   0  0  0  0  0  0  0  0  0  0  0  0
   18.9446   -5.0138  -14.0613 O   0  0  0  0  0  0  0  0  0  0  0  0
  2  3  1  1
  2  1  1  0
  4  2  1  0
  5  6  1  6
  5  4  1  0
  7  5  1  0
  8  7  2  0
  9  7  1  0
 10  9  1  0
 11 12  1  0
 10 11  1  6
 13 23  1  0
 13 10  1  0
 14 13  2  0
 16 15  1  0
 16 17  2  0
 18 16  1  0
 19 18  1  0
 20 19  1  0
 20 21  1  0
 22 21  1  1
 22 23  1  0
 24 22  1  0
 25 24  1  0
 26 24  2  0
M  END
$$$$
