LCR.pdb
     RDKit          3D

 26 25  0  0  1  0  0  0  0  0999 V2000
   28.7793  -18.4592   -5.7591 C   0  0  0  0  0  0  0  0  0  0  0  0
   28.2710  -19.6727   -6.5164 C   0  0  1  0  0  0  0  0  0  0  0  0
   27.3275  -20.4360   -5.5715 C   0  0  0  0  0  0  0  0  0  0  0  0
   27.5123  -19.2048   -7.7222 C   0  0  0  0  0  0  0  0  0  0  0  0
   26.9925  -20.3280   -8.5913 C   0  0  2  0  0  0  0  0  0  0  0  0
   28.1159  -21.1931   -8.9271 N   0  0  0  0  0  0  0  0  0  0  0  0
   26.2979  -19.8578   -9.8081 C   0  0  0  0  0  0  0  0  0  0  0  0
   25.5317  -18.8662   -9.7939 O   0  0  0  0  0  0  0  0  0  0  0  0
   26.4633  -20.5145  -11.0812 N   0  0  0  0  0  0  0  0  0  0  0  0
   25.8620  -19.9545  -12.2612 C   0  0  1  0  0  0  0  0  0  0  0  0
   26.8441  -18.9720  -12.8666 C   0  0  0  0  0  0  0  0  0  0  0  0
   28.2601  -19.9308  -13.4618 S   0  0  0  0  0  0  0  0  0  0  0  0
   25.4571  -20.9932  -13.2420 C   0  0  0  0  0  0  0  0  0  0  0  0
   25.8599  -20.8889  -14.4290 O   0  0  0  0  0  0  0  0  0  0  0  0
   17.6906  -20.9406  -11.5992 N   0  0  0  0  0  0  0  0  0  0  0  0
   18.0123  -22.0355  -12.4763 C   0  0  0  0  0  0  0  0  0  0  0  0
   17.1493  -22.4948  -13.2964 N   0  0  0  0  0  0  0  0  0  0  0  0
   19.3245  -22.5607  -12.3722 N   0  0  0  0  0  0  0  0  0  0  0  0
   20.2961  -21.8904  -11.5131 C   0  0  0  0  0  0  0  0  0  0  0  0
   21.0825  -20.8960  -12.3401 C   0  0  0  0  0  0  0  0  0  0  0  0
   22.5499  -21.0477  -12.1966 C   0  0  0  0  0  0  0  0  0  0  0  0
   23.1831  -22.0770  -13.0972 C   0  0  2  0  0  0  0  0  0  0  0  0
   24.6401  -22.0975  -12.9115 N   0  0  0  0  0  0  0  0  0  0  0  0
   22.9302  -21.6994  -14.4928 C   0  0  0  0  0  0  0  0  0  0  0  0
   22.1043  -22.4632  -15.2815 O   0  0  0  0  0  0  0  0  0  0  0  0
   23.4655  -20.6802  -14.9712 O   0  0  0  0  0  0  0  0  0  0  0  0
  2  3  1  1
  2  1  1  0
  4  2  1  0
  5  6  1  6
  5  4  1  0
  7  5  1  0
  8  7  2  0
  9  7  1  0
 10  9  1  0
 11 12  1  0
 10 11  1  6
 13 23  1  0
 13 10  1  0
 14 13  2  0
 16 15  1  0
 16 17  2  0
 18 16  1  0
 19 18  1  0
 20 19  1  0
 20 21  1  0
 22 21  1  1
 22 23  1  0
 24 22  1  0
 25 24  1  0
 26 24  2  0
M  END
$$$$
