LCR.pdb
     RDKit          3D

 26 25  0  0  1  0  0  0  0  0999 V2000
   26.8815  -16.3854  -17.1017 C   0  0  0  0  0  0  0  0  0  0  0  0
   27.7472  -17.4261  -16.4145 C   0  0  1  0  0  0  0  0  0  0  0  0
   28.5784  -16.6935  -15.3477 C   0  0  0  0  0  0  0  0  0  0  0  0
   26.8552  -18.4366  -15.7575 C   0  0  0  0  0  0  0  0  0  0  0  0
   27.6019  -19.4982  -14.9812 C   0  0  2  0  0  0  0  0  0  0  0  0
   28.3921  -20.2748  -15.9277 N   0  0  0  0  0  0  0  0  0  0  0  0
   26.7195  -20.3712  -14.1792 C   0  0  0  0  0  0  0  0  0  0  0  0
   26.0485  -21.2937  -14.6983 O   0  0  0  0  0  0  0  0  0  0  0  0
   26.5813  -20.2104  -12.7529 N   0  0  0  0  0  0  0  0  0  0  0  0
   25.6452  -21.0248  -12.0261 C   0  0  1  0  0  0  0  0  0  0  0  0
   25.9684  -20.9067  -10.5504 C   0  0  0  0  0  0  0  0  0  0  0  0
   24.3941  -20.7462   -9.6701 S   0  0  0  0  0  0  0  0  0  0  0  0
   24.2339  -20.6574  -12.3050 C   0  0  0  0  0  0  0  0  0  0  0  0
   23.9261  -19.4384  -12.3429 O   0  0  0  0  0  0  0  0  0  0  0  0
   20.2266  -25.7546  -13.8529 N   0  0  0  0  0  0  0  0  0  0  0  0
   19.1539  -25.4109  -12.9569 C   0  0  0  0  0  0  0  0  0  0  0  0
   18.8375  -26.1778  -11.9873 N   0  0  0  0  0  0  0  0  0  0  0  0
   18.4845  -24.1890  -13.2161 N   0  0  0  0  0  0  0  0  0  0  0  0
   18.9428  -23.3423  -14.3136 C   0  0  0  0  0  0  0  0  0  0  0  0
   19.6539  -22.1348  -13.7413 C   0  0  0  0  0  0  0  0  0  0  0  0
   21.0927  -22.3744  -13.4783 C   0  0  0  0  0  0  0  0  0  0  0  0
   21.8382  -21.2163  -12.8661 C   0  0  2  0  0  0  0  0  0  0  0  0
   23.2137  -21.6082  -12.5313 N   0  0  0  0  0  0  0  0  0  0  0  0
   21.1767  -20.8431  -11.6102 C   0  0  0  0  0  0  0  0  0  0  0  0
   20.2151  -19.8620  -11.5951 O   0  0  0  0  0  0  0  0  0  0  0  0
   21.4854  -21.4163  -10.5471 O   0  0  0  0  0  0  0  0  0  0  0  0
  2  3  1  1
  2  1  1  0
  4  2  1  0
  5  6  1  6
  5  4  1  0
  7  5  1  0
  8  7  2  0
  9  7  1  0
 10  9  1  0
 11 12  1  0
 10 11  1  1
 13 23  1  0
 13 10  1  0
 14 13  2  0
 16 15  1  0
 16 17  2  0
 18 16  1  0
 19 18  1  0
 20 19  1  0
 20 21  1  0
 22 21  1  1
 22 23  1  0
 24 22  1  0
 25 24  1  0
 26 24  2  0
M  END
$$$$
