LCR.pdb
     RDKit          3D

 26 25  0  0  1  0  0  0  0  0999 V2000
   17.9267  -15.6014    2.4909 C   0  0  0  0  0  0  0  0  0  0  0  0
   17.9881  -16.8316    1.6036 C   0  0  1  0  0  0  0  0  0  0  0  0
   18.6050  -16.3956    0.2639 C   0  0  0  0  0  0  0  0  0  0  0  0
   18.8677  -17.8543    2.2585 C   0  0  0  0  0  0  0  0  0  0  0  0
   18.1241  -19.0768    2.7482 C   0  0  2  0  0  0  0  0  0  0  0  0
   16.7016  -18.8590    2.5195 N   0  0  0  0  0  0  0  0  0  0  0  0
   18.3938  -19.4020    4.1644 C   0  0  0  0  0  0  0  0  0  0  0  0
   17.5942  -19.0963    5.0797 O   0  0  0  0  0  0  0  0  0  0  0  0
   19.5934  -20.0902    4.5727 N   0  0  0  0  0  0  0  0  0  0  0  0
   19.8157  -20.3820    5.9630 C   0  0  1  0  0  0  0  0  0  0  0  0
   20.7742  -21.5525    6.0488 C   0  0  0  0  0  0  0  0  0  0  0  0
   20.8348  -22.0670    7.7839 S   0  0  0  0  0  0  0  0  0  0  0  0
   20.3219  -19.2078    6.7177 C   0  0  0  0  0  0  0  0  0  0  0  0
   21.2230  -18.5013    6.1971 O   0  0  0  0  0  0  0  0  0  0  0  0
   19.5926  -12.2529    6.4046 N   0  0  0  0  0  0  0  0  0  0  0  0
   18.5257  -13.1205    5.9795 C   0  0  0  0  0  0  0  0  0  0  0  0
   17.9995  -12.9959    4.8237 N   0  0  0  0  0  0  0  0  0  0  0  0
   18.1053  -14.1035    6.9099 N   0  0  0  0  0  0  0  0  0  0  0  0
   18.8205  -14.2416    8.1751 C   0  0  0  0  0  0  0  0  0  0  0  0
   19.8235  -15.3688    8.0542 C   0  0  0  0  0  0  0  0  0  0  0  0
   19.4428  -16.5750    8.8270 C   0  0  0  0  0  0  0  0  0  0  0  0
   20.4182  -17.7218    8.7547 C   0  0  2  0  0  0  0  0  0  0  0  0
   19.8432  -18.8399    7.9951 N   0  0  0  0  0  0  0  0  0  0  0  0
   20.6724  -18.2088   10.1157 C   0  0  0  0  0  0  0  0  0  0  0  0
   20.2557  -19.4616   10.4956 O   0  0  0  0  0  0  0  0  0  0  0  0
   21.2697  -17.4855   10.9368 O   0  0  0  0  0  0  0  0  0  0  0  0
  2  3  1  6
  2  1  1  0
  4  2  1  0
  5  6  1  1
  5  4  1  0
  7  5  1  0
  8  7  2  0
  9  7  1  0
 10  9  1  0
 11 12  1  0
 10 11  1  6
 13 23  1  0
 13 10  1  0
 14 13  2  0
 16 15  1  0
 16 17  2  0
 18 16  1  0
 19 18  1  0
 20 19  1  0
 20 21  1  0
 22 21  1  1
 22 23  1  0
 24 22  1  0
 25 24  1  0
 26 24  2  0
M  END
$$$$
