LCR.pdb
     RDKit          3D

 26 25  0  0  1  0  0  0  0  0999 V2000
   23.9848  -19.6458  -16.2492 C   0  0  0  0  0  0  0  0  0  0  0  0
   22.7034  -19.4674  -15.4550 C   0  0  1  0  0  0  0  0  0  0  0  0
   21.5682  -20.1044  -16.2743 C   0  0  0  0  0  0  0  0  0  0  0  0
   22.8460  -20.1816  -14.1442 C   0  0  0  0  0  0  0  0  0  0  0  0
   21.5613  -20.2652  -13.3507 C   0  0  2  0  0  0  0  0  0  0  0  0
   21.1212  -18.9061  -13.0636 N   0  0  0  0  0  0  0  0  0  0  0  0
   21.6858  -21.0595  -12.1106 C   0  0  0  0  0  0  0  0  0  0  0  0
   22.1078  -22.2396  -12.1176 O   0  0  0  0  0  0  0  0  0  0  0  0
   21.3285  -20.5205  -10.8218 N   0  0  0  0  0  0  0  0  0  0  0  0
   21.4779  -21.3262   -9.6402 C   0  0  1  0  0  0  0  0  0  0  0  0
   22.1792  -20.4904   -8.5886 C   0  0  0  0  0  0  0  0  0  0  0  0
   21.1583  -19.0218   -8.3058 S   0  0  0  0  0  0  0  0  0  0  0  0
   20.1820  -21.8523   -9.1419 C   0  0  0  0  0  0  0  0  0  0  0  0
   19.1330  -21.2064   -9.3962 O   0  0  0  0  0  0  0  0  0  0  0  0
   15.9006  -29.0221  -10.3554 N   0  0  0  0  0  0  0  0  0  0  0  0
   14.9959  -28.3326   -9.4735 C   0  0  0  0  0  0  0  0  0  0  0  0
   13.8007  -28.7465   -9.3048 N   0  0  0  0  0  0  0  0  0  0  0  0
   15.5085  -27.1860   -8.8169 N   0  0  0  0  0  0  0  0  0  0  0  0
   16.8765  -26.7570   -9.0924 C   0  0  0  0  0  0  0  0  0  0  0  0
   17.1711  -25.5053   -8.2940 C   0  0  0  0  0  0  0  0  0  0  0  0
   18.4795  -24.8939   -8.6276 C   0  0  0  0  0  0  0  0  0  0  0  0
   18.7626  -23.5721   -7.9611 C   0  0  2  0  0  0  0  0  0  0  0  0
   20.0636  -23.0451   -8.3940 N   0  0  0  0  0  0  0  0  0  0  0  0
   18.8428  -23.7848   -6.5111 C   0  0  0  0  0  0  0  0  0  0  0  0
   17.6991  -23.9459   -5.7671 O   0  0  0  0  0  0  0  0  0  0  0  0
   19.9531  -23.8205   -5.9452 O   0  0  0  0  0  0  0  0  0  0  0  0
  2  3  1  6
  2  1  1  0
  4  2  1  0
  5  6  1  1
  5  4  1  0
  7  5  1  0
  8  7  2  0
  9  7  1  0
 10  9  1  0
 11 12  1  0
 10 11  1  1
 13 23  1  0
 13 10  1  0
 14 13  2  0
 16 15  1  0
 16 17  2  0
 18 16  1  0
 19 18  1  0
 20 19  1  0
 20 21  1  0
 22 21  1  6
 22 23  1  0
 24 22  1  0
 25 24  1  0
 26 24  2  0
M  END
$$$$
