LCR.pdb
     RDKit          3D

 26 25  0  0  1  0  0  0  0  0999 V2000
   26.4883  -17.0038  -16.2987 C   0  0  0  0  0  0  0  0  0  0  0  0
   27.5073  -18.0377  -15.8543 C   0  0  1  0  0  0  0  0  0  0  0  0
   28.0072  -17.6144  -14.4626 C   0  0  0  0  0  0  0  0  0  0  0  0
   26.8313  -19.3732  -15.7663 C   0  0  0  0  0  0  0  0  0  0  0  0
   27.3399  -20.2427  -14.6383 C   0  0  2  0  0  0  0  0  0  0  0  0
   28.1373  -21.3141  -15.2211 N   0  0  0  0  0  0  0  0  0  0  0  0
   26.2644  -20.7832  -13.7807 C   0  0  0  0  0  0  0  0  0  0  0  0
   25.4831  -21.6779  -14.1803 O   0  0  0  0  0  0  0  0  0  0  0  0
   26.0540  -20.3109  -12.4346 N   0  0  0  0  0  0  0  0  0  0  0  0
   25.0066  -20.8794  -11.6299 C   0  0  1  0  0  0  0  0  0  0  0  0
   25.2171  -20.4272  -10.1991 C   0  0  0  0  0  0  0  0  0  0  0  0
   26.5998  -21.3885   -9.5333 S   0  0  0  0  0  0  0  0  0  0  0  0
   23.6522  -20.5195  -12.1205 C   0  0  0  0  0  0  0  0  0  0  0  0
   23.4372  -19.3322  -12.4759 O   0  0  0  0  0  0  0  0  0  0  0  0
   18.6923  -24.2545  -17.8669 N   0  0  0  0  0  0  0  0  0  0  0  0
   19.5653  -23.1208  -18.0230 C   0  0  0  0  0  0  0  0  0  0  0  0
   20.0401  -22.8105  -19.1660 N   0  0  0  0  0  0  0  0  0  0  0  0
   19.8580  -22.3854  -16.8474 N   0  0  0  0  0  0  0  0  0  0  0  0
   19.2287  -22.7716  -15.5879 C   0  0  0  0  0  0  0  0  0  0  0  0
   19.5912  -21.7578  -14.5241 C   0  0  0  0  0  0  0  0  0  0  0  0
   20.8897  -22.0391  -13.8671 C   0  0  0  0  0  0  0  0  0  0  0  0
   21.2798  -21.0798  -12.7720 C   0  0  2  0  0  0  0  0  0  0  0  0
   22.5873  -21.4437  -12.2100 N   0  0  0  0  0  0  0  0  0  0  0  0
   20.2982  -21.1826  -11.6857 C   0  0  0  0  0  0  0  0  0  0  0  0
   19.0043  -20.7614  -11.8749 O   0  0  0  0  0  0  0  0  0  0  0  0
   20.6349  -21.6543  -10.5819 O   0  0  0  0  0  0  0  0  0  0  0  0
  2  3  1  1
  2  1  1  0
  4  2  1  0
  5  6  1  6
  5  4  1  0
  7  5  1  0
  8  7  2  0
  9  7  1  0
 10  9  1  0
 11 12  1  0
 10 11  1  1
 13 23  1  0
 13 10  1  0
 14 13  2  0
 16 15  1  0
 16 17  2  0
 18 16  1  0
 19 18  1  0
 20 19  1  0
 20 21  1  0
 22 21  1  6
 22 23  1  0
 24 22  1  0
 25 24  1  0
 26 24  2  0
M  END
$$$$
