LCR.pdb
     RDKit          3D

 26 25  0  0  1  0  0  0  0  0999 V2000
   26.5759  -12.8772  -16.6940 C   0  0  0  0  0  0  0  0  0  0  0  0
   26.7003  -14.3796  -16.8726 C   0  0  1  0  0  0  0  0  0  0  0  0
   28.0138  -14.8104  -16.1983 C   0  0  0  0  0  0  0  0  0  0  0  0
   25.5396  -15.0429  -16.1933 C   0  0  0  0  0  0  0  0  0  0  0  0
   25.5720  -16.5533  -16.2634 C   0  0  2  0  0  0  0  0  0  0  0  0
   26.1057  -16.9315  -17.5655 N   0  0  0  0  0  0  0  0  0  0  0  0
   24.2566  -17.1823  -16.0220 C   0  0  0  0  0  0  0  0  0  0  0  0
   23.5820  -16.9371  -14.9947 O   0  0  0  0  0  0  0  0  0  0  0  0
   23.6752  -18.1143  -16.9562 N   0  0  0  0  0  0  0  0  0  0  0  0
   22.4391  -18.7753  -16.6355 C   0  0  1  0  0  0  0  0  0  0  0  0
   21.8371  -19.2946  -17.9255 C   0  0  0  0  0  0  0  0  0  0  0  0
   20.6844  -20.6187  -17.4817 S   0  0  0  0  0  0  0  0  0  0  0  0
   22.6163  -19.8635  -15.6411 C   0  0  0  0  0  0  0  0  0  0  0  0
   23.5771  -20.6618  -15.7881 O   0  0  0  0  0  0  0  0  0  0  0  0
   26.1034  -22.4336  -11.2457 N   0  0  0  0  0  0  0  0  0  0  0  0
   26.3714  -21.0277  -11.3980 C   0  0  0  0  0  0  0  0  0  0  0  0
   27.4396  -20.6209  -11.9652 N   0  0  0  0  0  0  0  0  0  0  0  0
   25.3909  -20.1412  -10.8870 N   0  0  0  0  0  0  0  0  0  0  0  0
   24.1852  -20.6878  -10.2713 C   0  0  0  0  0  0  0  0  0  0  0  0
   23.3459  -21.3563  -11.3388 C   0  0  0  0  0  0  0  0  0  0  0  0
   22.9354  -20.4328  -12.4230 C   0  0  0  0  0  0  0  0  0  0  0  0
   22.0450  -21.0340  -13.4801 C   0  0  2  0  0  0  0  0  0  0  0  0
   21.7596  -20.0508  -14.5334 N   0  0  0  0  0  0  0  0  0  0  0  0
   20.7620  -21.3936  -12.8646 C   0  0  0  0  0  0  0  0  0  0  0  0
   20.5010  -22.6948  -12.5096 O   0  0  0  0  0  0  0  0  0  0  0  0
   19.8995  -20.5169  -12.6603 O   0  0  0  0  0  0  0  0  0  0  0  0
  2  3  1  1
  2  1  1  0
  4  2  1  0
  5  6  1  6
  5  4  1  0
  7  5  1  0
  8  7  2  0
  9  7  1  0
 10  9  1  0
 11 12  1  0
 10 11  1  6
 13 23  1  0
 13 10  1  0
 14 13  2  0
 16 15  1  0
 16 17  2  0
 18 16  1  0
 19 18  1  0
 20 19  1  0
 20 21  1  0
 22 21  1  1
 22 23  1  0
 24 22  1  0
 25 24  1  0
 26 24  2  0
M  END
$$$$
