TDW.pdb
     RDKit          3D

 30 31  0  0  1  0  0  0  0  0999 V2000
    8.6500  -13.2424   21.5030 C   0  0  0  0  0  0  0  0  0  0  0  0
    7.5224  -14.0667   20.9531 C   0  0  1  0  0  0  0  0  0  0  0  0
    6.7413  -13.3993   20.0224 O   0  0  0  0  0  0  0  0  0  0  0  0
    7.9876  -15.4282   20.4755 C   0  0  2  0  0  0  0  0  0  0  0  0
    6.8301  -16.1436   19.9746 N   0  0  0  0  0  0  0  0  0  0  0  0
    8.6971  -16.1962   21.5241 C   0  0  0  0  0  0  0  0  0  0  0  0
    7.9549  -16.8359   22.3448 O   0  0  0  0  0  0  0  0  0  0  0  0
   10.1056  -16.2643   21.6703 N   0  0  0  0  0  0  0  0  0  0  0  0
   10.6677  -16.9674   22.7756 C   0  0  1  0  0  0  0  0  0  0  0  0
   12.1676  -17.2213   22.5679 C   0  0  0  0  0  0  0  0  0  0  0  0
   12.2964  -18.1185   21.4016 C   0  0  0  0  0  0  0  0  0  0  0  0
   11.6025  -19.1655   21.3752 O   0  0  0  0  0  0  0  0  0  0  0  0
   10.5206  -16.2645   24.0701 C   0  0  0  0  0  0  0  0  0  0  0  0
   10.8150  -15.0589   24.2559 O   0  0  0  0  0  0  0  0  0  0  0  0
   13.1314  -17.8907   20.3259 O   0  0  0  0  0  0  0  0  0  0  0  0
   10.0105  -17.0071   25.1774 N   0  0  0  0  0  0  0  0  0  0  0  0
   10.0482  -16.5475   26.5273 C   0  0  1  0  0  0  0  0  0  0  0  0
    8.7026  -16.4754   27.1965 C   0  0  0  0  0  0  0  0  0  0  0  0
    7.7160  -15.7258   26.3789 C   0  0  0  0  0  0  0  0  0  0  0  0
    6.8119  -16.1918   25.4459 C   0  0  0  0  0  0  0  0  0  0  0  0
    6.0883  -15.1831   24.9269 N   0  0  0  0  0  0  0  0  0  0  0  0
    6.4970  -14.0169   25.5058 C   0  0  0  0  0  0  0  0  0  0  0  0
    6.0733  -12.7154   25.3176 C   0  0  0  0  0  0  0  0  0  0  0  0
    6.6809  -11.7150   26.0562 C   0  0  0  0  0  0  0  0  0  0  0  0
    7.6876  -12.0316   26.9572 C   0  0  0  0  0  0  0  0  0  0  0  0
    8.0916  -13.3379   27.1259 C   0  0  0  0  0  0  0  0  0  0  0  0
    7.4966  -14.3485   26.3976 C   0  0  0  0  0  0  0  0  0  0  0  0
   10.9388  -17.4321   27.3117 C   0  0  0  0  0  0  0  0  0  0  0  0
   11.5224  -18.5715   26.7840 O   0  0  0  0  0  0  0  0  0  0  0  0
   11.1793  -17.1432   28.5042 O   0  0  0  0  0  0  0  0  0  0  0  0
  2  1  1  6
  2  3  1  0
  4  2  1  0
  4  5  1  1
  6  7  2  0
  6  4  1  0
  8  6  1  0
  9 13  1  0
  9  8  1  0
  9 10  1  6
 11 15  1  0
 11 10  1  0
 12 11  2  0
 13 14  2  0
 16 17  1  0
 16 13  1  0
 17 18  1  1
 19 18  1  0
 20 19  2  0
 21 20  1  0
 22 21  1  0
 22 27  2  0
 23 24  2  0
 23 22  1  0
 24 25  1  0
 25 26  2  0
 27 26  1  0
 27 19  1  0
 28 17  1  0
 28 29  1  0
 30 28  2  0
M  END
$$$$
