TDW.pdb
     RDKit          3D

 30 31  0  0  1  0  0  0  0  0999 V2000
    7.1267  -12.9423   18.9717 C   0  0  0  0  0  0  0  0  0  0  0  0
    7.4247  -14.1804   19.7661 C   0  0  1  0  0  0  0  0  0  0  0  0
    7.6300  -15.3100   18.9891 O   0  0  0  0  0  0  0  0  0  0  0  0
    8.5182  -13.9543   20.7913 C   0  0  2  0  0  0  0  0  0  0  0  0
    9.7225  -13.5709   20.0805 N   0  0  0  0  0  0  0  0  0  0  0  0
    8.7449  -15.1304   21.6623 C   0  0  0  0  0  0  0  0  0  0  0  0
    7.7542  -15.4862   22.3872 O   0  0  0  0  0  0  0  0  0  0  0  0
    9.9554  -15.8641   21.7400 N   0  0  0  0  0  0  0  0  0  0  0  0
   10.0798  -16.9233   22.6859 C   0  0  1  0  0  0  0  0  0  0  0  0
   11.1417  -17.9406   22.2445 C   0  0  0  0  0  0  0  0  0  0  0  0
   11.9882  -17.2713   21.2360 C   0  0  0  0  0  0  0  0  0  0  0  0
   11.4575  -16.9123   20.1554 O   0  0  0  0  0  0  0  0  0  0  0  0
   10.4491  -16.4712   24.0462 C   0  0  0  0  0  0  0  0  0  0  0  0
   11.4332  -15.7360   24.3025 O   0  0  0  0  0  0  0  0  0  0  0  0
   13.3343  -17.0074   21.3931 O   0  0  0  0  0  0  0  0  0  0  0  0
    9.6321  -16.8996   25.1356 N   0  0  0  0  0  0  0  0  0  0  0  0
    9.8914  -16.5729   26.4997 C   0  0  1  0  0  0  0  0  0  0  0  0
    8.6567  -16.3623   27.3333 C   0  0  0  0  0  0  0  0  0  0  0  0
    7.6515  -15.5233   26.6335 C   0  0  0  0  0  0  0  0  0  0  0  0
    6.5749  -15.9039   25.8582 C   0  0  0  0  0  0  0  0  0  0  0  0
    5.9007  -14.8309   25.4058 N   0  0  0  0  0  0  0  0  0  0  0  0
    6.5170  -13.7062   25.8723 C   0  0  0  0  0  0  0  0  0  0  0  0
    6.2183  -12.3694   25.6925 C   0  0  0  0  0  0  0  0  0  0  0  0
    7.0348  -11.4285   26.2957 C   0  0  0  0  0  0  0  0  0  0  0  0
    8.1203  -11.8378   27.0571 C   0  0  0  0  0  0  0  0  0  0  0  0
    8.3961  -13.1777   27.2206 C   0  0  0  0  0  0  0  0  0  0  0  0
    7.5923  -14.1298   26.6263 C   0  0  0  0  0  0  0  0  0  0  0  0
   10.7130  -17.6460   27.1034 C   0  0  0  0  0  0  0  0  0  0  0  0
   11.0553  -18.8034   26.4248 O   0  0  0  0  0  0  0  0  0  0  0  0
   11.1194  -17.5073   28.2777 O   0  0  0  0  0  0  0  0  0  0  0  0
  2  1  1  6
  2  3  1  0
  4  2  1  0
  4  5  1  6
  6  7  2  0
  6  4  1  0
  8  6  1  0
  9 13  1  0
  9  8  1  0
  9 10  1  6
 11 15  1  0
 11 10  1  0
 12 11  2  0
 13 14  2  0
 16 17  1  0
 16 13  1  0
 17 18  1  1
 19 18  1  0
 20 19  2  0
 21 20  1  0
 22 21  1  0
 22 27  2  0
 23 24  2  0
 23 22  1  0
 24 25  1  0
 25 26  2  0
 27 26  1  0
 27 19  1  0
 28 17  1  0
 28 29  1  0
 30 28  2  0
M  END
$$$$
