TDW.pdb
     RDKit          3D

 30 31  0  0  1  0  0  0  0  0999 V2000
    7.7511  -12.6112   19.6922 C   0  0  0  0  0  0  0  0  0  0  0  0
    8.3127  -13.5570   20.7135 C   0  0  1  0  0  0  0  0  0  0  0  0
    7.7673  -13.4051   21.9790 O   0  0  0  0  0  0  0  0  0  0  0  0
    8.3063  -14.9935   20.2292 C   0  0  2  0  0  0  0  0  0  0  0  0
    6.9419  -15.3400   19.8816 N   0  0  0  0  0  0  0  0  0  0  0  0
    8.8789  -15.9377   21.2159 C   0  0  0  0  0  0  0  0  0  0  0  0
    8.0338  -16.6193   21.8904 O   0  0  0  0  0  0  0  0  0  0  0  0
   10.2638  -16.1274   21.4519 N   0  0  0  0  0  0  0  0  0  0  0  0
   10.6897  -17.0332   22.4668 C   0  0  1  0  0  0  0  0  0  0  0  0
   12.0810  -17.6027   22.1550 C   0  0  0  0  0  0  0  0  0  0  0  0
   11.9579  -18.3856   20.9086 C   0  0  0  0  0  0  0  0  0  0  0  0
   11.0837  -19.2862   20.8539 O   0  0  0  0  0  0  0  0  0  0  0  0
   10.7589  -16.4305   23.8171 C   0  0  0  0  0  0  0  0  0  0  0  0
   11.4153  -15.3980   24.0962 O   0  0  0  0  0  0  0  0  0  0  0  0
   12.7402  -18.2000   19.7861 O   0  0  0  0  0  0  0  0  0  0  0  0
   10.0312  -17.0653   24.8684 N   0  0  0  0  0  0  0  0  0  0  0  0
   10.0478  -16.6246   26.2250 C   0  0  1  0  0  0  0  0  0  0  0  0
    8.7164  -16.7071   26.9210 C   0  0  0  0  0  0  0  0  0  0  0  0
    7.6801  -15.8963   26.2336 C   0  0  0  0  0  0  0  0  0  0  0  0
    6.5988  -16.3068   25.4804 C   0  0  0  0  0  0  0  0  0  0  0  0
    5.8923  -15.2528   25.0328 N   0  0  0  0  0  0  0  0  0  0  0  0
    6.4910  -14.1110   25.4804 C   0  0  0  0  0  0  0  0  0  0  0  0
    6.1587  -12.7826   25.2968 C   0  0  0  0  0  0  0  0  0  0  0  0
    6.9642  -11.8191   25.8786 C   0  0  0  0  0  0  0  0  0  0  0  0
    8.0721  -12.1981   26.6232 C   0  0  0  0  0  0  0  0  0  0  0  0
    8.3813  -13.5301   26.7910 C   0  0  0  0  0  0  0  0  0  0  0  0
    7.5890  -14.5046   26.2179 C   0  0  0  0  0  0  0  0  0  0  0  0
   11.0440  -17.4202   26.9769 C   0  0  0  0  0  0  0  0  0  0  0  0
   11.4111  -17.1290   28.2799 O   0  0  0  0  0  0  0  0  0  0  0  0
   11.5816  -18.4002   26.4166 O   0  0  0  0  0  0  0  0  0  0  0  0
  2  1  1  6
  2  3  1  0
  4  2  1  0
  4  5  1  1
  6  7  2  0
  6  4  1  0
  8  6  1  0
  9 13  1  0
  9  8  1  0
  9 10  1  6
 11 15  1  0
 11 10  1  0
 12 11  2  0
 13 14  2  0
 16 17  1  0
 16 13  1  0
 17 18  1  1
 19 18  1  0
 20 19  2  0
 21 20  1  0
 22 21  1  0
 22 27  2  0
 23 24  2  0
 23 22  1  0
 24 25  1  0
 25 26  2  0
 27 26  1  0
 27 19  1  0
 28 17  1  0
 28 29  1  0
 30 28  2  0
M  END
$$$$
