TDW.pdb
     RDKit          3D

 30 31  0  0  1  0  0  0  0  0999 V2000
    7.5244  -12.9040   19.6663 C   0  0  0  0  0  0  0  0  0  0  0  0
    8.1745  -13.7636   20.7110 C   0  0  1  0  0  0  0  0  0  0  0  0
    7.7390  -13.5048   22.0015 O   0  0  0  0  0  0  0  0  0  0  0  0
    8.1314  -15.2354   20.3504 C   0  0  2  0  0  0  0  0  0  0  0  0
    6.7451  -15.5997   20.1317 N   0  0  0  0  0  0  0  0  0  0  0  0
    8.7724  -16.0982   21.3690 C   0  0  0  0  0  0  0  0  0  0  0  0
    7.9768  -16.7516   22.1264 O   0  0  0  0  0  0  0  0  0  0  0  0
   10.1711  -16.2407   21.5510 N   0  0  0  0  0  0  0  0  0  0  0  0
   10.6662  -17.0224   22.6353 C   0  0  1  0  0  0  0  0  0  0  0  0
   12.1615  -17.3258   22.4643 C   0  0  0  0  0  0  0  0  0  0  0  0
   12.3016  -18.1262   21.2309 C   0  0  0  0  0  0  0  0  0  0  0  0
   11.6837  -19.2174   21.1547 O   0  0  0  0  0  0  0  0  0  0  0  0
   10.5008  -16.3823   23.9599 C   0  0  0  0  0  0  0  0  0  0  0  0
   10.7846  -15.1849   24.2052 O   0  0  0  0  0  0  0  0  0  0  0  0
   13.0692  -17.7613   20.1428 O   0  0  0  0  0  0  0  0  0  0  0  0
    9.9846  -17.1796   25.0255 N   0  0  0  0  0  0  0  0  0  0  0  0
    9.9138  -16.7436   26.3819 C   0  0  1  0  0  0  0  0  0  0  0  0
    8.5232  -16.7235   26.9559 C   0  0  0  0  0  0  0  0  0  0  0  0
    7.6385  -15.7753   26.2333 C   0  0  0  0  0  0  0  0  0  0  0  0
    6.6594  -16.0280   25.2938 C   0  0  0  0  0  0  0  0  0  0  0  0
    6.0777  -14.8869   24.8817 N   0  0  0  0  0  0  0  0  0  0  0  0
    6.6600  -13.8436   25.5411 C   0  0  0  0  0  0  0  0  0  0  0  0
    6.4232  -12.4841   25.4731 C   0  0  0  0  0  0  0  0  0  0  0  0
    7.1815  -11.6460   26.2718 C   0  0  0  0  0  0  0  0  0  0  0  0
    8.1497  -12.1770   27.1122 C   0  0  0  0  0  0  0  0  0  0  0  0
    8.3659  -13.5368   27.1610 C   0  0  0  0  0  0  0  0  0  0  0  0
    7.6186  -14.3876   26.3713 C   0  0  0  0  0  0  0  0  0  0  0  0
   10.7744  -17.6152   27.2127 C   0  0  0  0  0  0  0  0  0  0  0  0
   10.9671  -17.4103   28.5685 O   0  0  0  0  0  0  0  0  0  0  0  0
   11.3560  -18.5814   26.6727 O   0  0  0  0  0  0  0  0  0  0  0  0
  2  1  1  6
  2  3  1  0
  4  2  1  0
  4  5  1  1
  6  7  2  0
  6  4  1  0
  8  6  1  0
  9 13  1  0
  9  8  1  0
  9 10  1  6
 11 15  1  0
 11 10  1  0
 12 11  2  0
 13 14  2  0
 16 17  1  0
 16 13  1  0
 17 18  1  1
 19 18  1  0
 20 19  2  0
 21 20  1  0
 22 21  1  0
 22 27  2  0
 23 24  2  0
 23 22  1  0
 24 25  1  0
 25 26  2  0
 27 26  1  0
 27 19  1  0
 28 17  1  0
 28 29  1  0
 30 28  2  0
M  END
$$$$
