TDW.pdb
     RDKit          3D

 30 31  0  0  1  0  0  0  0  0999 V2000
    8.0338  -12.4794   18.8696 C   0  0  0  0  0  0  0  0  0  0  0  0
    8.4792  -13.4318   19.9409 C   0  0  1  0  0  0  0  0  0  0  0  0
    8.6564  -12.8385   21.1812 O   0  0  0  0  0  0  0  0  0  0  0  0
    7.6187  -14.6787   19.9931 C   0  0  2  0  0  0  0  0  0  0  0  0
    6.2390  -14.2612   20.1501 N   0  0  0  0  0  0  0  0  0  0  0  0
    8.0323  -15.6212   21.0578 C   0  0  0  0  0  0  0  0  0  0  0  0
    7.3156  -15.6159   22.1161 O   0  0  0  0  0  0  0  0  0  0  0  0
    9.1400  -16.5025   20.9791 N   0  0  0  0  0  0  0  0  0  0  0  0
    9.4857  -17.3047   22.1055 C   0  0  1  0  0  0  0  0  0  0  0  0
   10.4174  -18.4566   21.7024 C   0  0  0  0  0  0  0  0  0  0  0  0
    9.5778  -19.4847   21.0544 C   0  0  0  0  0  0  0  0  0  0  0  0
    8.4350  -19.7059   21.5269 O   0  0  0  0  0  0  0  0  0  0  0  0
   10.1625  -16.5565   23.1888 C   0  0  0  0  0  0  0  0  0  0  0  0
   11.1641  -15.8200   23.0186 O   0  0  0  0  0  0  0  0  0  0  0  0
    9.9587  -20.2293   19.9559 O   0  0  0  0  0  0  0  0  0  0  0  0
    9.6407  -16.6812   24.5117 N   0  0  0  0  0  0  0  0  0  0  0  0
   10.3851  -16.3815   25.6910 C   0  0  1  0  0  0  0  0  0  0  0  0
    9.7890  -15.2931   26.5417 C   0  0  0  0  0  0  0  0  0  0  0  0
    8.3780  -15.0126   26.1752 C   0  0  0  0  0  0  0  0  0  0  0  0
    7.3489  -15.8912   25.9033 C   0  0  0  0  0  0  0  0  0  0  0  0
    6.2122  -15.2312   25.6154 N   0  0  0  0  0  0  0  0  0  0  0  0
    6.4609  -13.8915   25.6896 C   0  0  0  0  0  0  0  0  0  0  0  0
    5.6336  -12.8043   25.4837 C   0  0  0  0  0  0  0  0  0  0  0  0
    6.1689  -11.5363   25.6302 C   0  0  0  0  0  0  0  0  0  0  0  0
    7.5041  -11.3824   25.9752 C   0  0  0  0  0  0  0  0  0  0  0  0
    8.3077  -12.4836   26.1749 C   0  0  0  0  0  0  0  0  0  0  0  0
    7.7905  -13.7557   26.0331 C   0  0  0  0  0  0  0  0  0  0  0  0
   10.5235  -17.6143   26.4985 C   0  0  0  0  0  0  0  0  0  0  0  0
   11.4064  -17.7235   27.5596 O   0  0  0  0  0  0  0  0  0  0  0  0
    9.8146  -18.6045   26.2154 O   0  0  0  0  0  0  0  0  0  0  0  0
  2  1  1  6
  2  3  1  0
  4  2  1  0
  4  5  1  1
  6  7  2  0
  6  4  1  0
  8  6  1  0
  9 13  1  0
  9  8  1  0
  9 10  1  6
 11 15  1  0
 11 10  1  0
 12 11  2  0
 13 14  2  0
 16 17  1  0
 16 13  1  0
 17 18  1  1
 19 18  1  0
 20 19  2  0
 21 20  1  0
 22 21  1  0
 22 27  2  0
 23 24  2  0
 23 22  1  0
 24 25  1  0
 25 26  2  0
 27 26  1  0
 27 19  1  0
 28 17  1  0
 28 29  1  0
 30 28  2  0
M  END
$$$$
