TDW.pdb
     RDKit          3D

 30 31  0  0  1  0  0  0  0  0999 V2000
    7.9369  -12.9155   18.7730 C   0  0  0  0  0  0  0  0  0  0  0  0
    8.4386  -13.8030   19.8746 C   0  0  1  0  0  0  0  0  0  0  0  0
    8.4956  -13.1828   21.1132 O   0  0  0  0  0  0  0  0  0  0  0  0
    7.7201  -15.1375   19.9078 C   0  0  2  0  0  0  0  0  0  0  0  0
    6.3002  -14.8754   20.0403 N   0  0  0  0  0  0  0  0  0  0  0  0
    8.2159  -16.0335   20.9774 C   0  0  0  0  0  0  0  0  0  0  0  0
    7.4761  -16.1242   22.0158 O   0  0  0  0  0  0  0  0  0  0  0  0
    9.4231  -16.7747   20.9235 N   0  0  0  0  0  0  0  0  0  0  0  0
    9.8331  -17.5401   22.0540 C   0  0  1  0  0  0  0  0  0  0  0  0
   10.8772  -18.5952   21.6617 C   0  0  0  0  0  0  0  0  0  0  0  0
   11.9353  -17.8953   20.9051 C   0  0  0  0  0  0  0  0  0  0  0  0
   12.8131  -17.2680   21.5487 O   0  0  0  0  0  0  0  0  0  0  0  0
   10.4215  -16.7301   23.1445 C   0  0  0  0  0  0  0  0  0  0  0  0
   11.3294  -15.8795   22.9806 O   0  0  0  0  0  0  0  0  0  0  0  0
   12.0335  -17.8785   19.5280 O   0  0  0  0  0  0  0  0  0  0  0  0
    9.9226  -16.9301   24.4669 N   0  0  0  0  0  0  0  0  0  0  0  0
   10.4189  -16.2449   25.6154 C   0  0  1  0  0  0  0  0  0  0  0  0
    9.9431  -14.8234   25.7442 C   0  0  0  0  0  0  0  0  0  0  0  0
    8.4622  -14.7373   25.8030 C   0  0  0  0  0  0  0  0  0  0  0  0
    7.5163  -15.7277   25.6317 C   0  0  0  0  0  0  0  0  0  0  0  0
    6.2711  -15.2372   25.7703 N   0  0  0  0  0  0  0  0  0  0  0  0
    6.3609  -13.9021   26.0382 C   0  0  0  0  0  0  0  0  0  0  0  0
    5.3797  -12.9551   26.2601 C   0  0  0  0  0  0  0  0  0  0  0  0
    5.7716  -11.6517   26.5112 C   0  0  0  0  0  0  0  0  0  0  0  0
    7.1200  -11.3248   26.5350 C   0  0  0  0  0  0  0  0  0  0  0  0
    8.0787  -12.2885   26.3104 C   0  0  0  0  0  0  0  0  0  0  0  0
    7.7058  -13.5937   26.0585 C   0  0  0  0  0  0  0  0  0  0  0  0
   10.0369  -17.0014   26.8290 C   0  0  0  0  0  0  0  0  0  0  0  0
    9.2198  -18.1186   26.7930 O   0  0  0  0  0  0  0  0  0  0  0  0
   10.4680  -16.6201   27.9390 O   0  0  0  0  0  0  0  0  0  0  0  0
  2  1  1  6
  2  3  1  0
  4  2  1  0
  4  5  1  1
  6  7  2  0
  6  4  1  0
  8  6  1  0
  9 13  1  0
  9  8  1  0
  9 10  1  6
 11 15  1  0
 11 10  1  0
 12 11  2  0
 13 14  2  0
 16 17  1  0
 16 13  1  0
 17 18  1  1
 19 18  1  0
 20 19  2  0
 21 20  1  0
 22 21  1  0
 22 27  2  0
 23 24  2  0
 23 22  1  0
 24 25  1  0
 25 26  2  0
 27 26  1  0
 27 19  1  0
 28 17  1  0
 28 29  1  0
 30 28  2  0
M  END
$$$$
