TDW.pdb
     RDKit          3D

 30 31  0  0  1  0  0  0  0  0999 V2000
    9.1658  -12.8699   20.4855 C   0  0  0  0  0  0  0  0  0  0  0  0
    7.8149  -13.4381   20.1609 C   0  0  1  0  0  0  0  0  0  0  0  0
    7.1079  -12.7035   19.2216 O   0  0  0  0  0  0  0  0  0  0  0  0
    7.8782  -14.9177   19.8370 C   0  0  2  0  0  0  0  0  0  0  0  0
    6.5394  -15.3559   19.4934 N   0  0  0  0  0  0  0  0  0  0  0  0
    8.4557  -15.7249   20.9360 C   0  0  0  0  0  0  0  0  0  0  0  0
    7.6492  -16.0473   21.8738 O   0  0  0  0  0  0  0  0  0  0  0  0
    9.8061  -16.1497   21.0109 N   0  0  0  0  0  0  0  0  0  0  0  0
   10.2269  -16.9785   22.0916 C   0  0  1  0  0  0  0  0  0  0  0  0
   11.6135  -17.5805   21.8230 C   0  0  0  0  0  0  0  0  0  0  0  0
   11.4742  -18.4860   20.6643 C   0  0  0  0  0  0  0  0  0  0  0  0
   12.0183  -18.1562   19.5810 O   0  0  0  0  0  0  0  0  0  0  0  0
   10.3026  -16.2748   23.3919 C   0  0  0  0  0  0  0  0  0  0  0  0
   10.8494  -15.1578   23.5588 O   0  0  0  0  0  0  0  0  0  0  0  0
   10.7833  -19.6812   20.6822 O   0  0  0  0  0  0  0  0  0  0  0  0
    9.7149  -16.9086   24.5279 N   0  0  0  0  0  0  0  0  0  0  0  0
    9.8915  -16.4574   25.8695 C   0  0  1  0  0  0  0  0  0  0  0  0
    8.6280  -16.4269   26.6858 C   0  0  0  0  0  0  0  0  0  0  0  0
    7.6242  -15.4913   26.1194 C   0  0  0  0  0  0  0  0  0  0  0  0
    6.5805  -15.7412   25.2514 C   0  0  0  0  0  0  0  0  0  0  0  0
    5.8945  -14.6154   24.9822 N   0  0  0  0  0  0  0  0  0  0  0  0
    6.4694  -13.5856   25.6686 C   0  0  0  0  0  0  0  0  0  0  0  0
    6.1442  -12.2441   25.7285 C   0  0  0  0  0  0  0  0  0  0  0  0
    6.9196  -11.4165   26.5219 C   0  0  0  0  0  0  0  0  0  0  0  0
    7.9916  -11.9399   27.2308 C   0  0  0  0  0  0  0  0  0  0  0  0
    8.2945  -13.2817   27.1536 C   0  0  0  0  0  0  0  0  0  0  0  0
    7.5318  -14.1218   26.3673 C   0  0  0  0  0  0  0  0  0  0  0  0
   10.8877  -17.3224   26.5405 C   0  0  0  0  0  0  0  0  0  0  0  0
   11.3587  -17.0757   27.8190 O   0  0  0  0  0  0  0  0  0  0  0  0
   11.3273  -18.3220   25.9315 O   0  0  0  0  0  0  0  0  0  0  0  0
  2  1  1  6
  2  3  1  0
  4  2  1  0
  4  5  1  1
  6  7  2  0
  6  4  1  0
  8  6  1  0
  9 13  1  0
  9  8  1  0
  9 10  1  6
 11 15  1  0
 11 10  1  0
 12 11  2  0
 13 14  2  0
 16 17  1  0
 16 13  1  0
 17 18  1  1
 19 18  1  0
 20 19  2  0
 21 20  1  0
 22 21  1  0
 22 27  2  0
 23 24  2  0
 23 22  1  0
 24 25  1  0
 25 26  2  0
 27 26  1  0
 27 19  1  0
 28 17  1  0
 28 29  1  0
 30 28  2  0
M  END
$$$$
