TDW.pdb
     RDKit          3D

 30 31  0  0  1  0  0  0  0  0999 V2000
    6.8872  -13.7466   20.0234 C   0  0  0  0  0  0  0  0  0  0  0  0
    7.7277  -14.3477   21.1122 C   0  0  1  0  0  0  0  0  0  0  0  0
    7.2945  -14.0372   22.3919 O   0  0  0  0  0  0  0  0  0  0  0  0
    7.9600  -15.8312   20.9041 C   0  0  2  0  0  0  0  0  0  0  0  0
    6.6649  -16.4714   20.7796 N   0  0  0  0  0  0  0  0  0  0  0  0
    8.7752  -16.4439   21.9778 C   0  0  0  0  0  0  0  0  0  0  0  0
    8.1395  -17.1743   22.8122 O   0  0  0  0  0  0  0  0  0  0  0  0
   10.1742  -16.2763   22.1335 N   0  0  0  0  0  0  0  0  0  0  0  0
   10.8430  -16.9000   23.2270 C   0  0  1  0  0  0  0  0  0  0  0  0
   12.3339  -17.1046   22.9229 C   0  0  0  0  0  0  0  0  0  0  0  0
   12.5062  -18.5206   22.5394 C   0  0  0  0  0  0  0  0  0  0  0  0
   13.6561  -18.9178   22.2260 O   0  0  0  0  0  0  0  0  0  0  0  0
   10.7577  -16.1391   24.4940 C   0  0  0  0  0  0  0  0  0  0  0  0
   11.0515  -14.9245   24.6087 O   0  0  0  0  0  0  0  0  0  0  0  0
   11.4871  -19.4512   22.4989 O   0  0  0  0  0  0  0  0  0  0  0  0
   10.3121  -16.8327   25.6593 N   0  0  0  0  0  0  0  0  0  0  0  0
   10.2737  -16.2540   26.9625 C   0  0  1  0  0  0  0  0  0  0  0  0
    8.9145  -16.2661   27.6076 C   0  0  0  0  0  0  0  0  0  0  0  0
    7.8906  -15.6102   26.7560 C   0  0  0  0  0  0  0  0  0  0  0  0
    6.9606  -16.1746   25.9066 C   0  0  0  0  0  0  0  0  0  0  0  0
    6.2065  -15.2289   25.3170 N   0  0  0  0  0  0  0  0  0  0  0  0
    6.6203  -14.0074   25.7632 C   0  0  0  0  0  0  0  0  0  0  0  0
    6.1736  -12.7349   25.4630 C   0  0  0  0  0  0  0  0  0  0  0  0
    6.7937  -11.6607   26.0772 C   0  0  0  0  0  0  0  0  0  0  0  0
    7.8352  -11.8773   26.9682 C   0  0  0  0  0  0  0  0  0  0  0  0
    8.2614  -13.1568   27.2502 C   0  0  0  0  0  0  0  0  0  0  0  0
    7.6544  -14.2399   26.6468 C   0  0  0  0  0  0  0  0  0  0  0  0
   11.2358  -16.9660   27.8333 C   0  0  0  0  0  0  0  0  0  0  0  0
   11.5359  -16.5513   29.1199 O   0  0  0  0  0  0  0  0  0  0  0  0
   11.8062  -17.9883   27.3939 O   0  0  0  0  0  0  0  0  0  0  0  0
  2  1  1  6
  2  3  1  0
  4  2  1  0
  4  5  1  1
  6  7  2  0
  6  4  1  0
  8  6  1  0
  9 13  1  0
  9  8  1  0
  9 10  1  6
 11 15  1  0
 11 10  1  0
 12 11  2  0
 13 14  2  0
 16 17  1  0
 16 13  1  0
 17 18  1  1
 19 18  1  0
 20 19  2  0
 21 20  1  0
 22 21  1  0
 22 27  2  0
 23 24  2  0
 23 22  1  0
 24 25  1  0
 25 26  2  0
 27 26  1  0
 27 19  1  0
 28 17  1  0
 28 29  1  0
 30 28  2  0
M  END
$$$$
