TDW.pdb
     RDKit          3D

 30 31  0  0  1  0  0  0  0  0999 V2000
    9.3771  -13.1147   20.6068 C   0  0  0  0  0  0  0  0  0  0  0  0
    7.9184  -13.3684   20.3605 C   0  0  1  0  0  0  0  0  0  0  0  0
    7.3884  -12.6276   19.3155 O   0  0  0  0  0  0  0  0  0  0  0  0
    7.6022  -14.8479   20.2640 C   0  0  2  0  0  0  0  0  0  0  0  0
    6.1675  -14.9871   20.1065 N   0  0  0  0  0  0  0  0  0  0  0  0
    8.1059  -15.6224   21.4212 C   0  0  0  0  0  0  0  0  0  0  0  0
    7.2918  -15.7594   22.3970 O   0  0  0  0  0  0  0  0  0  0  0  0
    9.3956  -16.2040   21.5118 N   0  0  0  0  0  0  0  0  0  0  0  0
    9.7207  -17.0311   22.6264 C   0  0  1  0  0  0  0  0  0  0  0  0
   10.7976  -18.0616   22.2582 C   0  0  0  0  0  0  0  0  0  0  0  0
   11.7110  -17.4080   21.2988 C   0  0  0  0  0  0  0  0  0  0  0  0
   12.5287  -16.5606   21.7365 O   0  0  0  0  0  0  0  0  0  0  0  0
   10.2186  -16.2827   23.8026 C   0  0  0  0  0  0  0  0  0  0  0  0
   11.0948  -15.3860   23.7492 O   0  0  0  0  0  0  0  0  0  0  0  0
   11.7341  -17.6611   19.9418 O   0  0  0  0  0  0  0  0  0  0  0  0
    9.6651  -16.6023   25.0790 N   0  0  0  0  0  0  0  0  0  0  0  0
   10.3043  -16.3055   26.3192 C   0  0  1  0  0  0  0  0  0  0  0  0
    9.5216  -15.3861   27.2168 C   0  0  0  0  0  0  0  0  0  0  0  0
    8.2226  -14.9954   26.6136 C   0  0  0  0  0  0  0  0  0  0  0  0
    7.2299  -15.7880   26.0737 C   0  0  0  0  0  0  0  0  0  0  0  0
    6.2005  -15.0419   25.6333 N   0  0  0  0  0  0  0  0  0  0  0  0
    6.4866  -13.7290   25.8714 C   0  0  0  0  0  0  0  0  0  0  0  0
    5.7624  -12.5823   25.6080 C   0  0  0  0  0  0  0  0  0  0  0  0
    6.3122  -11.3633   25.9653 C   0  0  0  0  0  0  0  0  0  0  0  0
    7.5596  -11.3156   26.5713 C   0  0  0  0  0  0  0  0  0  0  0  0
    8.2611  -12.4744   26.8229 C   0  0  0  0  0  0  0  0  0  0  0  0
    7.7280  -13.6989   26.4733 C   0  0  0  0  0  0  0  0  0  0  0  0
   10.5783  -17.5722   27.0341 C   0  0  0  0  0  0  0  0  0  0  0  0
   10.1185  -18.8009   26.5912 O   0  0  0  0  0  0  0  0  0  0  0  0
   11.2547  -17.5384   28.0852 O   0  0  0  0  0  0  0  0  0  0  0  0
  2  1  1  6
  2  3  1  0
  4  2  1  0
  4  5  1  1
  6  7  2  0
  6  4  1  0
  8  6  1  0
  9 13  1  0
  9  8  1  0
  9 10  1  6
 11 15  1  0
 11 10  1  0
 12 11  2  0
 13 14  2  0
 16 17  1  0
 16 13  1  0
 17 18  1  1
 19 18  1  0
 20 19  2  0
 21 20  1  0
 22 21  1  0
 22 27  2  0
 23 24  2  0
 23 22  1  0
 24 25  1  0
 25 26  2  0
 27 26  1  0
 27 19  1  0
 28 17  1  0
 28 29  1  0
 30 28  2  0
M  END
$$$$
