TDW.pdb
     RDKit          3D

 30 31  0  0  1  0  0  0  0  0999 V2000
    7.1302  -13.0964   19.7369 C   0  0  0  0  0  0  0  0  0  0  0  0
    7.6708  -14.1065   20.7067 C   0  0  1  0  0  0  0  0  0  0  0  0
    6.6969  -14.7203   21.4791 O   0  0  0  0  0  0  0  0  0  0  0  0
    8.6142  -15.0904   20.0432 C   0  0  2  0  0  0  0  0  0  0  0  0
    7.9174  -15.6871   18.9202 N   0  0  0  0  0  0  0  0  0  0  0  0
    9.1294  -16.1164   20.9784 C   0  0  0  0  0  0  0  0  0  0  0  0
    9.1901  -17.3080   20.5202 O   0  0  0  0  0  0  0  0  0  0  0  0
    9.5471  -15.8672   22.3100 N   0  0  0  0  0  0  0  0  0  0  0  0
   10.4425  -16.7727   22.9506 C   0  0  1  0  0  0  0  0  0  0  0  0
   11.7747  -16.8659   22.1931 C   0  0  0  0  0  0  0  0  0  0  0  0
   12.5842  -17.9004   22.8685 C   0  0  0  0  0  0  0  0  0  0  0  0
   12.0137  -18.9571   23.2378 O   0  0  0  0  0  0  0  0  0  0  0  0
   10.7620  -16.4100   24.3498 C   0  0  0  0  0  0  0  0  0  0  0  0
   11.6794  -15.6211   24.6824 O   0  0  0  0  0  0  0  0  0  0  0  0
   13.9361  -17.7926   23.1273 O   0  0  0  0  0  0  0  0  0  0  0  0
    9.9745  -16.9956   25.3865 N   0  0  0  0  0  0  0  0  0  0  0  0
   10.0007  -16.5623   26.7453 C   0  0  1  0  0  0  0  0  0  0  0  0
    8.6485  -16.4947   27.4016 C   0  0  0  0  0  0  0  0  0  0  0  0
    7.6821  -15.7022   26.6004 C   0  0  0  0  0  0  0  0  0  0  0  0
    6.6532  -16.1321   25.7869 C   0  0  0  0  0  0  0  0  0  0  0  0
    6.0021  -15.0902   25.2383 N   0  0  0  0  0  0  0  0  0  0  0  0
    6.5864  -13.9374   25.6767 C   0  0  0  0  0  0  0  0  0  0  0  0
    6.2936  -12.6145   25.4067 C   0  0  0  0  0  0  0  0  0  0  0  0
    7.0706  -11.6364   26.0028 C   0  0  0  0  0  0  0  0  0  0  0  0
    8.1120  -11.9959   26.8465 C   0  0  0  0  0  0  0  0  0  0  0  0
    8.3830  -13.3229   27.0990 C   0  0  0  0  0  0  0  0  0  0  0  0
    7.6182  -14.3117   26.5131 C   0  0  0  0  0  0  0  0  0  0  0  0
   10.8776  -17.4672   27.5218 C   0  0  0  0  0  0  0  0  0  0  0  0
   11.2348  -17.2231   28.8371 O   0  0  0  0  0  0  0  0  0  0  0  0
   11.3186  -18.4998   26.9716 O   0  0  0  0  0  0  0  0  0  0  0  0
  2  1  1  6
  2  3  1  0
  4  2  1  0
  4  5  1  6
  6  7  2  0
  6  4  1  0
  8  6  1  0
  9 13  1  0
  9  8  1  0
  9 10  1  6
 11 15  1  0
 11 10  1  0
 12 11  2  0
 13 14  2  0
 16 17  1  0
 16 13  1  0
 17 18  1  1
 19 18  1  0
 20 19  2  0
 21 20  1  0
 22 21  1  0
 22 27  2  0
 23 24  2  0
 23 22  1  0
 24 25  1  0
 25 26  2  0
 27 26  1  0
 27 19  1  0
 28 17  1  0
 28 29  1  0
 30 28  2  0
M  END
$$$$
