TDW.pdb
     RDKit          3D

 30 31  0  0  1  0  0  0  0  0999 V2000
    8.8244  -12.7583   20.9314 C   0  0  0  0  0  0  0  0  0  0  0  0
    7.6344  -13.3602   20.2425 C   0  0  1  0  0  0  0  0  0  0  0  0
    7.0982  -12.5594   19.2460 O   0  0  0  0  0  0  0  0  0  0  0  0
    7.8935  -14.7835   19.7896 C   0  0  2  0  0  0  0  0  0  0  0  0
    6.6678  -15.2960   19.2088 N   0  0  0  0  0  0  0  0  0  0  0  0
    8.3917  -15.6542   20.8790 C   0  0  0  0  0  0  0  0  0  0  0  0
    7.5054  -16.3404   21.4933 O   0  0  0  0  0  0  0  0  0  0  0  0
    9.7489  -15.7707   21.2713 N   0  0  0  0  0  0  0  0  0  0  0  0
   10.1273  -16.7664   22.2187 C   0  0  1  0  0  0  0  0  0  0  0  0
   11.3510  -17.5574   21.7347 C   0  0  0  0  0  0  0  0  0  0  0  0
   11.5615  -18.6585   22.6964 C   0  0  0  0  0  0  0  0  0  0  0  0
   12.6276  -18.6743   23.3608 O   0  0  0  0  0  0  0  0  0  0  0  0
   10.4599  -16.2253   23.5558 C   0  0  0  0  0  0  0  0  0  0  0  0
   11.3801  -15.4005   23.7744 O   0  0  0  0  0  0  0  0  0  0  0  0
   10.6646  -19.6835   22.9228 O   0  0  0  0  0  0  0  0  0  0  0  0
    9.6828  -16.6709   24.6672 N   0  0  0  0  0  0  0  0  0  0  0  0
    9.9908  -16.3647   26.0260 C   0  0  1  0  0  0  0  0  0  0  0  0
    8.7913  -16.2760   26.9299 C   0  0  0  0  0  0  0  0  0  0  0  0
    7.6932  -15.4860   26.3184 C   0  0  0  0  0  0  0  0  0  0  0  0
    6.5896  -15.9160   25.6096 C   0  0  0  0  0  0  0  0  0  0  0  0
    5.8246  -14.8771   25.2276 N   0  0  0  0  0  0  0  0  0  0  0  0
    6.4051  -13.7263   25.6758 C   0  0  0  0  0  0  0  0  0  0  0  0
    6.0176  -12.4066   25.5461 C   0  0  0  0  0  0  0  0  0  0  0  0
    6.8176  -11.4298   26.1130 C   0  0  0  0  0  0  0  0  0  0  0  0
    7.9749  -11.7873   26.7900 C   0  0  0  0  0  0  0  0  0  0  0  0
    8.3388  -13.1111   26.9050 C   0  0  0  0  0  0  0  0  0  0  0  0
    7.5527  -14.0986   26.3458 C   0  0  0  0  0  0  0  0  0  0  0  0
   10.9244  -17.3870   26.5495 C   0  0  0  0  0  0  0  0  0  0  0  0
   11.5113  -17.2997   27.8006 O   0  0  0  0  0  0  0  0  0  0  0  0
   11.1995  -18.3759   25.8355 O   0  0  0  0  0  0  0  0  0  0  0  0
  2  1  1  6
  2  3  1  0
  4  2  1  0
  4  5  1  1
  6  7  2  0
  6  4  1  0
  8  6  1  0
  9 13  1  0
  9  8  1  0
  9 10  1  6
 11 15  1  0
 11 10  1  0
 12 11  2  0
 13 14  2  0
 16 17  1  0
 16 13  1  0
 17 18  1  1
 19 18  1  0
 20 19  2  0
 21 20  1  0
 22 21  1  0
 22 27  2  0
 23 24  2  0
 23 22  1  0
 24 25  1  0
 25 26  2  0
 27 26  1  0
 27 19  1  0
 28 17  1  0
 28 29  1  0
 30 28  2  0
M  END
$$$$
