TIS.pdb
     RDKit          3D

 22 21  0  0  1  0  0  0  0  0999 V2000
    8.5111  -19.4876   18.9105 C   0  0  0  0  0  0  0  0  0  0  0  0
    9.3757  -19.2698   17.6756 C   0  0  1  0  0  0  0  0  0  0  0  0
    8.9821  -20.1333   16.6658 O   0  0  0  0  0  0  0  0  0  0  0  0
    9.2713  -17.8375   17.2013 C   0  0  2  0  0  0  0  0  0  0  0  0
   10.0429  -17.6660   16.0104 N   0  0  0  0  0  0  0  0  0  0  0  0
    9.6823  -16.9118   18.2913 C   0  0  0  0  0  0  0  0  0  0  0  0
   10.9075  -16.7954   18.5516 O   0  0  0  0  0  0  0  0  0  0  0  0
    6.7230  -12.3008   19.7657 C   0  0  0  0  0  0  0  0  0  0  0  0
    7.8397  -13.2480   19.4742 C   0  0  0  0  0  0  0  0  0  0  0  0
    8.1150  -14.2671   20.5160 C   0  0  2  0  0  0  0  0  0  0  0  0
    8.4554  -13.5803   21.8562 C   0  0  0  0  0  0  0  0  0  0  0  0
    9.1338  -15.3143   20.1909 C   0  0  2  0  0  0  0  0  0  0  0  0
    8.7689  -16.1556   19.0509 N   0  0  0  0  0  0  0  0  0  0  0  0
    9.3143  -16.2152   21.3910 C   0  0  0  0  0  0  0  0  0  0  0  0
    8.3335  -16.7986   21.8866 O   0  0  0  0  0  0  0  0  0  0  0  0
   12.4286  -18.4653   21.9454 O   0  0  0  0  0  0  0  0  0  0  0  0
   11.2621  -18.6758   22.6504 C   0  0  0  0  0  0  0  0  0  0  0  0
   10.7443  -17.3345   23.1141 C   0  0  2  0  0  0  0  0  0  0  0  0
   10.5898  -16.4168   21.9767 N   0  0  0  0  0  0  0  0  0  0  0  0
   11.6867  -16.7595   24.1054 C   0  0  0  0  0  0  0  0  0  0  0  0
   11.9423  -17.4568   25.1192 O   0  0  0  0  0  0  0  0  0  0  0  0
   12.2723  -15.5164   23.9483 O   0  0  0  0  0  0  0  0  0  0  0  0
  2  1  1  1
  2  3  1  0
  4  2  1  0
  4  6  1  0
  4  5  1  6
  6 13  1  0
  7  6  2  0
  8  9  1  0
  9 10  1  0
 10 11  1  1
 10 12  1  0
 12 14  1  0
 12 13  1  6
 14 15  2  0
 14 19  1  0
 17 16  1  0
 18 17  1  6
 19 18  1  0
 20 18  1  0
 20 22  1  0
 21 20  2  0
M  END
$$$$
