TIS.pdb
     RDKit          3D

 22 21  0  0  1  0  0  0  0  0999 V2000
    6.6690  -16.5581   21.1779 C   0  0  0  0  0  0  0  0  0  0  0  0
    7.5511  -15.6552   20.3254 C   0  0  1  0  0  0  0  0  0  0  0  0
    7.1444  -15.7116   19.0019 O   0  0  0  0  0  0  0  0  0  0  0  0
    7.4896  -14.2290   20.8252 C   0  0  2  0  0  0  0  0  0  0  0  0
    8.0756  -13.3535   19.8592 N   0  0  0  0  0  0  0  0  0  0  0  0
    8.1403  -14.1315   22.1596 C   0  0  0  0  0  0  0  0  0  0  0  0
    9.3890  -13.9882   22.2109 O   0  0  0  0  0  0  0  0  0  0  0  0
    5.7230  -11.5362   26.4117 C   0  0  0  0  0  0  0  0  0  0  0  0
    6.6744  -12.1202   25.4202 C   0  0  0  0  0  0  0  0  0  0  0  0
    7.1880  -13.4758   25.7341 C   0  0  2  0  0  0  0  0  0  0  0  0
    7.9003  -13.4715   27.1039 C   0  0  0  0  0  0  0  0  0  0  0  0
    8.0462  -14.1344   24.6998 C   0  0  2  0  0  0  0  0  0  0  0  0
    7.4300  -14.1914   23.3740 N   0  0  0  0  0  0  0  0  0  0  0  0
    8.3405  -15.5519   25.1340 C   0  0  0  0  0  0  0  0  0  0  0  0
    7.4063  -16.3364   25.3787 O   0  0  0  0  0  0  0  0  0  0  0  0
   12.0242  -17.1232   24.6103 O   0  0  0  0  0  0  0  0  0  0  0  0
   10.9743  -18.0137   24.6924 C   0  0  0  0  0  0  0  0  0  0  0  0
    9.9300  -17.4259   25.6123 C   0  0  2  0  0  0  0  0  0  0  0  0
    9.6719  -16.0195   25.2723 N   0  0  0  0  0  0  0  0  0  0  0  0
   10.3965  -17.5307   27.0168 C   0  0  0  0  0  0  0  0  0  0  0  0
   10.5593  -16.4543   27.6446 O   0  0  0  0  0  0  0  0  0  0  0  0
   10.6489  -18.7428   27.6334 O   0  0  0  0  0  0  0  0  0  0  0  0
  2  1  1  1
  2  3  1  0
  4  2  1  0
  4  6  1  0
  4  5  1  6
  6 13  1  0
  7  6  2  0
  8  9  1  0
  9 10  1  0
 10 11  1  1
 10 12  1  0
 12 14  1  0
 12 13  1  6
 14 15  2  0
 14 19  1  0
 17 16  1  0
 18 17  1  6
 19 18  1  0
 20 18  1  0
 20 22  1  0
 21 20  2  0
M  END
$$$$
