TIS.pdb
     RDKit          3D

 22 21  0  0  1  0  0  0  0  0999 V2000
    6.4280  -16.8711   20.0301 C   0  0  0  0  0  0  0  0  0  0  0  0
    7.1724  -16.5344   21.3156 C   0  0  1  0  0  0  0  0  0  0  0  0
    8.2441  -17.3974   21.4801 O   0  0  0  0  0  0  0  0  0  0  0  0
    7.6605  -15.1032   21.2861 C   0  0  2  0  0  0  0  0  0  0  0  0
    8.5186  -14.9091   20.1597 N   0  0  0  0  0  0  0  0  0  0  0  0
    8.3201  -14.7665   22.5766 C   0  0  0  0  0  0  0  0  0  0  0  0
    9.5755  -14.6936   22.6094 O   0  0  0  0  0  0  0  0  0  0  0  0
    5.9020  -11.5553   26.4747 C   0  0  0  0  0  0  0  0  0  0  0  0
    6.8960  -12.2247   25.5841 C   0  0  0  0  0  0  0  0  0  0  0  0
    7.3832  -13.5507   26.0363 C   0  0  2  0  0  0  0  0  0  0  0  0
    8.0907  -13.4207   27.4024 C   0  0  0  0  0  0  0  0  0  0  0  0
    8.2325  -14.3262   25.0786 C   0  0  2  0  0  0  0  0  0  0  0  0
    7.6111  -14.5239   23.7688 N   0  0  0  0  0  0  0  0  0  0  0  0
    8.5172  -15.6896   25.6655 C   0  0  0  0  0  0  0  0  0  0  0  0
    7.5780  -16.4311   26.0060 O   0  0  0  0  0  0  0  0  0  0  0  0
   12.2385  -17.2861   25.4182 O   0  0  0  0  0  0  0  0  0  0  0  0
   11.1919  -18.1778   25.5248 C   0  0  0  0  0  0  0  0  0  0  0  0
   10.0930  -17.5194   26.3256 C   0  0  2  0  0  0  0  0  0  0  0  0
    9.8454  -16.1540   25.8416 N   0  0  0  0  0  0  0  0  0  0  0  0
   10.4796  -17.4876   27.7577 C   0  0  0  0  0  0  0  0  0  0  0  0
   10.5405  -16.3584   28.3061 O   0  0  0  0  0  0  0  0  0  0  0  0
   10.7654  -18.6308   28.4817 O   0  0  0  0  0  0  0  0  0  0  0  0
  2  1  1  6
  2  3  1  0
  4  2  1  0
  4  6  1  0
  4  5  1  6
  6 13  1  0
  7  6  2  0
  8  9  1  0
  9 10  1  0
 10 11  1  1
 10 12  1  0
 12 14  1  0
 12 13  1  6
 14 15  2  0
 14 19  1  0
 17 16  1  0
 18 17  1  6
 19 18  1  0
 20 18  1  0
 20 22  1  0
 21 20  2  0
M  END
$$$$
