TIS.pdb
     RDKit          3D

 22 21  0  0  1  0  0  0  0  0999 V2000
    7.0571  -17.5502   21.8111 C   0  0  0  0  0  0  0  0  0  0  0  0
    7.7635  -16.7711   20.7093 C   0  0  1  0  0  0  0  0  0  0  0  0
    7.2836  -17.1654   19.4705 O   0  0  0  0  0  0  0  0  0  0  0  0
    7.5564  -15.2844   20.8950 C   0  0  2  0  0  0  0  0  0  0  0  0
    7.9722  -14.5885   19.7178 N   0  0  0  0  0  0  0  0  0  0  0  0
    8.2676  -14.8229   22.1176 C   0  0  0  0  0  0  0  0  0  0  0  0
    9.5129  -14.6540   22.0614 O   0  0  0  0  0  0  0  0  0  0  0  0
    7.3741  -11.8594   27.5394 C   0  0  0  0  0  0  0  0  0  0  0  0
    8.1204  -12.8811   26.7465 C   0  0  0  0  0  0  0  0  0  0  0  0
    7.5239  -13.2515   25.4401 C   0  0  2  0  0  0  0  0  0  0  0  0
    6.0807  -13.7626   25.6390 C   0  0  0  0  0  0  0  0  0  0  0  0
    8.3014  -14.1997   24.5817 C   0  0  2  0  0  0  0  0  0  0  0  0
    7.6185  -14.5637   23.3401 N   0  0  0  0  0  0  0  0  0  0  0  0
    8.5567  -15.4708   25.3585 C   0  0  0  0  0  0  0  0  0  0  0  0
    7.6161  -16.2421   25.6201 O   0  0  0  0  0  0  0  0  0  0  0  0
   11.3067  -17.7335   24.6677 O   0  0  0  0  0  0  0  0  0  0  0  0
   11.3206  -17.7665   26.0463 C   0  0  0  0  0  0  0  0  0  0  0  0
   10.0805  -17.0631   26.5460 C   0  0  2  0  0  0  0  0  0  0  0  0
    9.8584  -15.8139   25.8042 N   0  0  0  0  0  0  0  0  0  0  0  0
   10.2287  -16.7738   27.9936 C   0  0  0  0  0  0  0  0  0  0  0  0
   10.2325  -15.5644   28.3351 O   0  0  0  0  0  0  0  0  0  0  0  0
   10.3586  -17.7679   28.9464 O   0  0  0  0  0  0  0  0  0  0  0  0
  2  1  1  1
  2  3  1  0
  4  2  1  0
  4  6  1  0
  4  5  1  6
  6 13  1  0
  7  6  2  0
  8  9  1  0
  9 10  1  0
 10 11  1  1
 10 12  1  0
 12 14  1  0
 12 13  1  6
 14 15  2  0
 14 19  1  0
 17 16  1  0
 18 17  1  6
 19 18  1  0
 20 18  1  0
 20 22  1  0
 21 20  2  0
M  END
$$$$
