TIS.pdb
     RDKit          3D

 22 21  0  0  1  0  0  0  0  0999 V2000
    6.3410  -17.3739   22.1732 C   0  0  0  0  0  0  0  0  0  0  0  0
    7.0746  -16.6364   21.0606 C   0  0  1  0  0  0  0  0  0  0  0  0
    6.4815  -16.9143   19.8394 O   0  0  0  0  0  0  0  0  0  0  0  0
    7.0614  -15.1455   21.3146 C   0  0  2  0  0  0  0  0  0  0  0  0
    7.5063  -14.4529   20.1461 N   0  0  0  0  0  0  0  0  0  0  0  0
    7.8790  -14.8293   22.5169 C   0  0  0  0  0  0  0  0  0  0  0  0
    9.1301  -14.7768   22.3967 O   0  0  0  0  0  0  0  0  0  0  0  0
    5.7300  -11.6705   26.4522 C   0  0  0  0  0  0  0  0  0  0  0  0
    6.8102  -12.2357   25.5901 C   0  0  0  0  0  0  0  0  0  0  0  0
    7.3807  -13.5320   26.0307 C   0  0  2  0  0  0  0  0  0  0  0  0
    8.2663  -13.3275   27.2786 C   0  0  0  0  0  0  0  0  0  0  0  0
    8.1055  -14.3412   25.0012 C   0  0  2  0  0  0  0  0  0  0  0  0
    7.3247  -14.5847   23.7881 N   0  0  0  0  0  0  0  0  0  0  0  0
    8.4675  -15.6832   25.5949 C   0  0  0  0  0  0  0  0  0  0  0  0
    7.5869  -16.3964   26.1086 O   0  0  0  0  0  0  0  0  0  0  0  0
   12.1941  -17.2769   25.0355 O   0  0  0  0  0  0  0  0  0  0  0  0
   11.1580  -18.1689   25.2169 C   0  0  0  0  0  0  0  0  0  0  0  0
   10.1128  -17.5057   26.0830 C   0  0  2  0  0  0  0  0  0  0  0  0
    9.8032  -16.1590   25.5826 N   0  0  0  0  0  0  0  0  0  0  0  0
   10.6090  -17.4265   27.4790 C   0  0  0  0  0  0  0  0  0  0  0  0
   10.7671  -16.2774   27.9627 O   0  0  0  0  0  0  0  0  0  0  0  0
   10.8929  -18.5476   28.2375 O   0  0  0  0  0  0  0  0  0  0  0  0
  2  1  1  1
  2  3  1  0
  4  2  1  0
  4  6  1  0
  4  5  1  6
  6 13  1  0
  7  6  2  0
  8  9  1  0
  9 10  1  0
 10 11  1  1
 10 12  1  0
 12 14  1  0
 12 13  1  6
 14 15  2  0
 14 19  1  0
 17 16  1  0
 18 17  1  6
 19 18  1  0
 20 18  1  0
 20 22  1  0
 21 20  2  0
M  END
$$$$
