TIS.pdb
     RDKit          3D

 22 21  0  0  1  0  0  0  0  0999 V2000
    6.6113  -16.9804   20.0520 C   0  0  0  0  0  0  0  0  0  0  0  0
    7.3291  -16.6311   21.3492 C   0  0  1  0  0  0  0  0  0  0  0  0
    8.3983  -17.4911   21.5432 O   0  0  0  0  0  0  0  0  0  0  0  0
    7.8162  -15.1995   21.3166 C   0  0  2  0  0  0  0  0  0  0  0  0
    8.7128  -15.0198   20.2180 N   0  0  0  0  0  0  0  0  0  0  0  0
    8.4301  -14.8436   22.6244 C   0  0  0  0  0  0  0  0  0  0  0  0
    9.6836  -14.7717   22.7007 O   0  0  0  0  0  0  0  0  0  0  0  0
    5.7888  -11.5358   26.2477 C   0  0  0  0  0  0  0  0  0  0  0  0
    6.8151  -12.2340   25.4179 C   0  0  0  0  0  0  0  0  0  0  0  0
    7.3679  -13.4868   25.9878 C   0  0  2  0  0  0  0  0  0  0  0  0
    8.0663  -13.1970   27.3338 C   0  0  0  0  0  0  0  0  0  0  0  0
    8.2563  -14.3031   25.1020 C   0  0  2  0  0  0  0  0  0  0  0  0
    7.6794  -14.5816   23.7866 N   0  0  0  0  0  0  0  0  0  0  0  0
    8.5378  -15.6278   25.7731 C   0  0  0  0  0  0  0  0  0  0  0  0
    7.5971  -16.3386   26.1703 O   0  0  0  0  0  0  0  0  0  0  0  0
   12.2593  -17.2629   25.6383 O   0  0  0  0  0  0  0  0  0  0  0  0
   11.2039  -18.1362   25.7979 C   0  0  0  0  0  0  0  0  0  0  0  0
   10.1078  -17.4168   26.5486 C   0  0  2  0  0  0  0  0  0  0  0  0
    9.8645  -16.0899   25.9654 N   0  0  0  0  0  0  0  0  0  0  0  0
   10.4956  -17.2809   27.9743 C   0  0  0  0  0  0  0  0  0  0  0  0
   10.6387  -16.1134   28.4166 O   0  0  0  0  0  0  0  0  0  0  0  0
   10.6971  -18.3701   28.8025 O   0  0  0  0  0  0  0  0  0  0  0  0
  2  1  1  6
  2  3  1  0
  4  2  1  0
  4  6  1  0
  4  5  1  6
  6 13  1  0
  7  6  2  0
  8  9  1  0
  9 10  1  0
 10 11  1  1
 10 12  1  0
 12 14  1  0
 12 13  1  6
 14 15  2  0
 14 19  1  0
 17 16  1  0
 18 17  1  6
 19 18  1  0
 20 18  1  0
 20 22  1  0
 21 20  2  0
M  END
$$$$
