TIS.pdb
     RDKit          3D

 22 21  0  0  1  0  0  0  0  0999 V2000
    7.6247  -19.9023   19.8926 C   0  0  0  0  0  0  0  0  0  0  0  0
    8.1817  -20.0071   18.4789 C   0  0  1  0  0  0  0  0  0  0  0  0
    7.4852  -20.9710   17.7674 O   0  0  0  0  0  0  0  0  0  0  0  0
    8.0874  -18.6734   17.7717 C   0  0  2  0  0  0  0  0  0  0  0  0
    8.5876  -18.7976   16.4386 N   0  0  0  0  0  0  0  0  0  0  0  0
    8.8004  -17.6313   18.5589 C   0  0  0  0  0  0  0  0  0  0  0  0
   10.0572  -17.6643   18.6011 O   0  0  0  0  0  0  0  0  0  0  0  0
    7.7926  -11.9869   21.1454 C   0  0  0  0  0  0  0  0  0  0  0  0
    8.6074  -13.2317   21.0206 C   0  0  0  0  0  0  0  0  0  0  0  0
    7.9875  -14.3390   20.2528 C   0  0  2  0  0  0  0  0  0  0  0  0
    6.6167  -14.7066   20.8606 C   0  0  0  0  0  0  0  0  0  0  0  0
    8.8147  -15.5689   20.0447 C   0  0  2  0  0  0  0  0  0  0  0  0
    8.1405  -16.6054   19.2625 N   0  0  0  0  0  0  0  0  0  0  0  0
    9.1651  -16.1603   21.3907 C   0  0  0  0  0  0  0  0  0  0  0  0
    8.2642  -16.5539   22.1532 O   0  0  0  0  0  0  0  0  0  0  0  0
   12.4439  -18.1937   22.0468 O   0  0  0  0  0  0  0  0  0  0  0  0
   11.3963  -18.2712   22.9403 C   0  0  0  0  0  0  0  0  0  0  0  0
   10.8264  -16.8835   23.1182 C   0  0  2  0  0  0  0  0  0  0  0  0
   10.5128  -16.2807   21.8151 N   0  0  0  0  0  0  0  0  0  0  0  0
   11.8060  -16.0389   23.8451 C   0  0  0  0  0  0  0  0  0  0  0  0
   12.1425  -16.4185   24.9949 O   0  0  0  0  0  0  0  0  0  0  0  0
   12.3413  -14.8823   23.3080 O   0  0  0  0  0  0  0  0  0  0  0  0
  2  1  1  1
  2  3  1  0
  4  2  1  0
  4  6  1  0
  4  5  1  6
  6 13  1  0
  7  6  2  0
  8  9  1  0
  9 10  1  0
 10 11  1  1
 10 12  1  0
 12 14  1  0
 12 13  1  6
 14 15  2  0
 14 19  1  0
 17 16  1  0
 18 17  1  6
 19 18  1  0
 20 18  1  0
 20 22  1  0
 21 20  2  0
M  END
$$$$
