TIS.pdb
     RDKit          3D

 22 21  0  0  1  0  0  0  0  0999 V2000
    6.6989  -17.2706   20.0032 C   0  0  0  0  0  0  0  0  0  0  0  0
    7.4414  -16.8185   21.2538 C   0  0  1  0  0  0  0  0  0  0  0  0
    8.5131  -17.6627   21.4974 O   0  0  0  0  0  0  0  0  0  0  0  0
    7.9294  -15.3957   21.0953 C   0  0  2  0  0  0  0  0  0  0  0  0
    8.8417  -15.3179   19.9977 N   0  0  0  0  0  0  0  0  0  0  0  0
    8.5246  -14.9192   22.3730 C   0  0  0  0  0  0  0  0  0  0  0  0
    9.7745  -14.9641   22.5079 O   0  0  0  0  0  0  0  0  0  0  0  0
    7.1174  -11.5623   27.4940 C   0  0  0  0  0  0  0  0  0  0  0  0
    7.9438  -12.6043   26.8152 C   0  0  0  0  0  0  0  0  0  0  0  0
    7.4327  -13.0895   25.5101 C   0  0  2  0  0  0  0  0  0  0  0  0
    6.0169  -13.6817   25.6793 C   0  0  0  0  0  0  0  0  0  0  0  0
    8.3071  -14.0335   24.7456 C   0  0  2  0  0  0  0  0  0  0  0  0
    7.7602  -14.4183   23.4443 N   0  0  0  0  0  0  0  0  0  0  0  0
    8.4989  -15.2940   25.5573 C   0  0  0  0  0  0  0  0  0  0  0  0
    7.5388  -16.0595   25.7576 O   0  0  0  0  0  0  0  0  0  0  0  0
   12.1180  -17.0154   26.0363 O   0  0  0  0  0  0  0  0  0  0  0  0
   10.9715  -17.7630   26.2054 C   0  0  0  0  0  0  0  0  0  0  0  0
    9.9293  -16.8849   26.8573 C   0  0  2  0  0  0  0  0  0  0  0  0
    9.7619  -15.6333   26.1053 N   0  0  0  0  0  0  0  0  0  0  0  0
   10.3392  -16.5877   28.2519 C   0  0  0  0  0  0  0  0  0  0  0  0
   10.4792  -15.3770   28.5586 O   0  0  0  0  0  0  0  0  0  0  0  0
   10.5640  -17.5759   29.1930 O   0  0  0  0  0  0  0  0  0  0  0  0
  2  1  1  6
  2  3  1  0
  4  2  1  0
  4  6  1  0
  4  5  1  6
  6 13  1  0
  7  6  2  0
  8  9  1  0
  9 10  1  0
 10 11  1  1
 10 12  1  0
 12 14  1  0
 12 13  1  6
 14 15  2  0
 14 19  1  0
 17 16  1  0
 18 17  1  6
 19 18  1  0
 20 18  1  0
 20 22  1  0
 21 20  2  0
M  END
$$$$
