TIS.pdb
     RDKit          3D

 22 21  0  0  1  0  0  0  0  0999 V2000
    6.5077  -16.8346   19.6430 C   0  0  0  0  0  0  0  0  0  0  0  0
    7.1891  -16.5901   20.9831 C   0  0  1  0  0  0  0  0  0  0  0  0
    8.0422  -17.6418   21.2775 O   0  0  0  0  0  0  0  0  0  0  0  0
    7.9612  -15.2899   20.9559 C   0  0  2  0  0  0  0  0  0  0  0  0
    8.9455  -15.3348   19.9205 N   0  0  0  0  0  0  0  0  0  0  0  0
    8.5482  -15.0213   22.2964 C   0  0  0  0  0  0  0  0  0  0  0  0
    9.7701  -15.2599   22.4768 O   0  0  0  0  0  0  0  0  0  0  0  0
    7.2253  -11.8009   27.5400 C   0  0  0  0  0  0  0  0  0  0  0  0
    8.0403  -12.8157   26.8083 C   0  0  0  0  0  0  0  0  0  0  0  0
    7.5308  -13.2182   25.4747 C   0  0  2  0  0  0  0  0  0  0  0  0
    6.0825  -13.7398   25.5930 C   0  0  0  0  0  0  0  0  0  0  0  0
    8.3693  -14.1754   24.6868 C   0  0  2  0  0  0  0  0  0  0  0  0
    7.8058  -14.5119   23.3792 N   0  0  0  0  0  0  0  0  0  0  0  0
    8.5185  -15.4594   25.4700 C   0  0  0  0  0  0  0  0  0  0  0  0
    7.5431  -16.2177   25.6172 O   0  0  0  0  0  0  0  0  0  0  0  0
   12.0819  -17.1438   25.7562 O   0  0  0  0  0  0  0  0  0  0  0  0
   10.9780  -17.9522   25.9286 C   0  0  0  0  0  0  0  0  0  0  0  0
    9.9222  -17.1566   26.6600 C   0  0  2  0  0  0  0  0  0  0  0  0
    9.7581  -15.8294   26.0506 N   0  0  0  0  0  0  0  0  0  0  0  0
   10.3115  -17.0160   28.0848 C   0  0  0  0  0  0  0  0  0  0  0  0
   10.4643  -15.8472   28.5206 O   0  0  0  0  0  0  0  0  0  0  0  0
   10.5043  -18.1021   28.9190 O   0  0  0  0  0  0  0  0  0  0  0  0
  2  1  1  6
  2  3  1  0
  4  2  1  0
  4  6  1  0
  4  5  1  6
  6 13  1  0
  7  6  2  0
  8  9  1  0
  9 10  1  0
 10 11  1  1
 10 12  1  0
 12 14  1  0
 12 13  1  6
 14 15  2  0
 14 19  1  0
 17 16  1  0
 18 17  1  6
 19 18  1  0
 20 18  1  0
 20 22  1  0
 21 20  2  0
M  END
$$$$
