TIS.pdb
     RDKit          3D

 22 21  0  0  1  0  0  0  0  0999 V2000
    6.6331  -17.0370   19.8258 C   0  0  0  0  0  0  0  0  0  0  0  0
    7.3076  -16.7462   21.1601 C   0  0  1  0  0  0  0  0  0  0  0  0
    8.2101  -17.7535   21.4621 O   0  0  0  0  0  0  0  0  0  0  0  0
    8.0180  -15.4116   21.1152 C   0  0  2  0  0  0  0  0  0  0  0  0
    9.0052  -15.4249   20.0816 N   0  0  0  0  0  0  0  0  0  0  0  0
    8.5894  -15.0969   22.4525 C   0  0  0  0  0  0  0  0  0  0  0  0
    9.7953  -15.3790   22.6728 O   0  0  0  0  0  0  0  0  0  0  0  0
    7.1768  -11.8122   27.6532 C   0  0  0  0  0  0  0  0  0  0  0  0
    8.0265  -12.7966   26.9196 C   0  0  0  0  0  0  0  0  0  0  0  0
    7.5285  -13.2185   25.5877 C   0  0  2  0  0  0  0  0  0  0  0  0
    6.0904  -13.7676   25.7062 C   0  0  0  0  0  0  0  0  0  0  0  0
    8.3876  -14.1646   24.8086 C   0  0  2  0  0  0  0  0  0  0  0  0
    7.8491  -14.4974   23.4895 N   0  0  0  0  0  0  0  0  0  0  0  0
    8.5331  -15.4522   25.5866 C   0  0  0  0  0  0  0  0  0  0  0  0
    7.5751  -16.2415   25.6721 O   0  0  0  0  0  0  0  0  0  0  0  0
   11.8401  -17.4925   25.8049 O   0  0  0  0  0  0  0  0  0  0  0  0
   10.6486  -18.0709   26.1891 C   0  0  0  0  0  0  0  0  0  0  0  0
    9.8640  -17.0504   26.9799 C   0  0  2  0  0  0  0  0  0  0  0  0
    9.7496  -15.7907   26.2316 N   0  0  0  0  0  0  0  0  0  0  0  0
   10.5396  -16.8093   28.2787 C   0  0  0  0  0  0  0  0  0  0  0  0
   10.9274  -15.6365   28.5097 O   0  0  0  0  0  0  0  0  0  0  0  0
   10.7471  -17.8090   29.2117 O   0  0  0  0  0  0  0  0  0  0  0  0
  2  1  1  6
  2  3  1  0
  4  2  1  0
  4  6  1  0
  4  5  1  6
  6 13  1  0
  7  6  2  0
  8  9  1  0
  9 10  1  0
 10 11  1  1
 10 12  1  0
 12 14  1  0
 12 13  1  6
 14 15  2  0
 14 19  1  0
 17 16  1  0
 18 17  1  6
 19 18  1  0
 20 18  1  0
 20 22  1  0
 21 20  2  0
M  END
$$$$
