TIS.pdb
     RDKit          3D

 22 21  0  0  1  0  0  0  0  0999 V2000
    6.8209  -19.1021   25.6350 C   0  0  0  0  0  0  0  0  0  0  0  0
    6.3646  -19.2732   24.1920 C   0  0  1  0  0  0  0  0  0  0  0  0
    5.4029  -20.2680   24.1161 O   0  0  0  0  0  0  0  0  0  0  0  0
    5.8079  -17.9736   23.6545 C   0  0  2  0  0  0  0  0  0  0  0  0
    5.2446  -18.1893   22.3587 N   0  0  0  0  0  0  0  0  0  0  0  0
    6.8685  -16.9301   23.6543 C   0  0  0  0  0  0  0  0  0  0  0  0
    7.7089  -16.9267   22.7182 O   0  0  0  0  0  0  0  0  0  0  0  0
    6.5296  -12.4697   27.2910 C   0  0  0  0  0  0  0  0  0  0  0  0
    6.8414  -13.7602   26.6078 C   0  0  0  0  0  0  0  0  0  0  0  0
    7.6354  -13.6583   25.3592 C   0  0  2  0  0  0  0  0  0  0  0  0
    6.9151  -12.7463   24.3428 C   0  0  0  0  0  0  0  0  0  0  0  0
    8.0491  -14.9417   24.7095 C   0  0  2  0  0  0  0  0  0  0  0  0
    6.9825  -15.9413   24.6505 N   0  0  0  0  0  0  0  0  0  0  0  0
    9.1995  -15.5387   25.4871 C   0  0  0  0  0  0  0  0  0  0  0  0
    8.9932  -16.0865   26.5850 O   0  0  0  0  0  0  0  0  0  0  0  0
   11.5335  -18.0475   23.1623 O   0  0  0  0  0  0  0  0  0  0  0  0
   10.7678  -17.8265   24.2878 C   0  0  0  0  0  0  0  0  0  0  0  0
   11.3844  -16.6831   25.0590 C   0  0  2  0  0  0  0  0  0  0  0  0
   10.5276  -15.4910   24.9925 N   0  0  0  0  0  0  0  0  0  0  0  0
   12.7235  -16.3772   24.4981 C   0  0  0  0  0  0  0  0  0  0  0  0
   13.5653  -17.3103   24.4924 O   0  0  0  0  0  0  0  0  0  0  0  0
   13.0590  -15.1323   23.9974 O   0  0  0  0  0  0  0  0  0  0  0  0
  2  1  1  1
  2  3  1  0
  4  2  1  0
  4  6  1  0
  4  5  1  6
  6 13  1  0
  7  6  2  0
  8  9  1  0
  9 10  1  0
 10 11  1  6
 10 12  1  0
 12 14  1  0
 12 13  1  1
 14 15  2  0
 14 19  1  0
 17 16  1  0
 18 17  1  6
 19 18  1  0
 20 18  1  0
 20 22  1  0
 21 20  2  0
M  END
$$$$
