VTK.pdb
     RDKit          3D

 24 23  0  0  1  0  0  0  0  0999 V2000
    7.8326  -12.3897   17.9456 C   0  0  0  0  0  0  0  0  0  0  0  0
    7.7475  -13.3006   19.1503 C   0  0  2  0  0  0  0  0  0  0  0  0
    8.4475  -12.6410   20.3250 C   0  0  0  0  0  0  0  0  0  0  0  0
    8.3947  -14.6173   18.7805 C   0  0  2  0  0  0  0  0  0  0  0  0
    7.6490  -15.1898   17.6828 N   0  0  0  0  0  0  0  0  0  0  0  0
    8.4191  -15.5036   19.9630 C   0  0  0  0  0  0  0  0  0  0  0  0
    7.2965  -15.8304   20.4490 O   0  0  0  0  0  0  0  0  0  0  0  0
    8.9416  -18.7747   20.5554 C   0  0  0  0  0  0  0  0  0  0  0  0
   10.0042  -18.1623   21.4101 C   0  0  1  0  0  0  0  0  0  0  0  0
   11.2635  -18.1734   20.8511 O   0  0  0  0  0  0  0  0  0  0  0  0
    9.5689  -16.7322   21.7434 C   0  0  2  0  0  0  0  0  0  0  0  0
    9.6264  -15.9763   20.5410 N   0  0  0  0  0  0  0  0  0  0  0  0
   10.4605  -16.2101   22.8100 C   0  0  0  0  0  0  0  0  0  0  0  0
   11.5098  -15.5800   22.5965 O   0  0  0  0  0  0  0  0  0  0  0  0
   10.0909  -16.4456   24.1608 N   0  0  0  0  0  0  0  0  0  0  0  0
   10.9725  -16.0167   25.2862 C   0  0  1  0  0  0  0  0  0  0  0  0
   10.0559  -15.7476   26.4467 C   0  0  0  0  0  0  0  0  0  0  0  0
   10.8330  -15.4066   27.6790 C   0  0  0  0  0  0  0  0  0  0  0  0
    9.8822  -15.1464   28.8204 C   0  0  0  0  0  0  0  0  0  0  0  0
   10.6273  -14.7626   30.0874 C   0  0  0  0  0  0  0  0  0  0  0  0
    9.7525  -14.5695   31.2016 N   0  0  0  0  0  0  0  0  0  0  0  0
   11.8263  -17.1790   25.6030 C   0  0  0  0  0  0  0  0  0  0  0  0
   13.1311  -17.0457   26.0553 O   0  0  0  0  0  0  0  0  0  0  0  0
   11.3955  -18.3441   25.4725 O   0  0  0  0  0  0  0  0  0  0  0  0
  2  1  1  6
  2  4  1  0
  3  2  1  0
  4  5  1  6
  6  7  2  0
  6  4  1  0
  9  8  1  6
 10  9  1  0
 11  9  1  0
 11 12  1  6
 12  6  1  0
 13 11  1  0
 14 13  2  0
 15 13  1  0
 16 15  1  0
 16 17  1  1
 17 18  1  0
 19 18  1  0
 20 19  1  0
 21 20  1  0
 22 23  1  0
 22 16  1  0
 24 22  2  0
M  END
$$$$
