VTK.pdb
     RDKit          3D

 24 23  0  0  1  0  0  0  0  0999 V2000
    7.6507  -12.1947   18.7048 C   0  0  0  0  0  0  0  0  0  0  0  0
    7.7352  -13.3273   19.7038 C   0  0  2  0  0  0  0  0  0  0  0  0
    8.4153  -12.8292   20.9665 C   0  0  0  0  0  0  0  0  0  0  0  0
    8.5098  -14.4555   19.0587 C   0  0  2  0  0  0  0  0  0  0  0  0
    7.7865  -14.8790   17.8813 N   0  0  0  0  0  0  0  0  0  0  0  0
    8.6849  -15.5531   20.0328 C   0  0  0  0  0  0  0  0  0  0  0  0
    7.6396  -16.1833   20.3699 O   0  0  0  0  0  0  0  0  0  0  0  0
   10.1833  -18.6695   19.8855 C   0  0  0  0  0  0  0  0  0  0  0  0
   10.9054  -18.0353   21.0305 C   0  0  1  0  0  0  0  0  0  0  0  0
   12.1630  -17.5644   20.7219 O   0  0  0  0  0  0  0  0  0  0  0  0
   10.0208  -16.9096   21.5746 C   0  0  2  0  0  0  0  0  0  0  0  0
    9.9496  -15.9006   20.5758 N   0  0  0  0  0  0  0  0  0  0  0  0
   10.6071  -16.4322   22.8527 C   0  0  0  0  0  0  0  0  0  0  0  0
   11.3999  -15.4800   22.9446 O   0  0  0  0  0  0  0  0  0  0  0  0
   10.2386  -17.1067   24.0468 N   0  0  0  0  0  0  0  0  0  0  0  0
   10.7225  -16.6355   25.3778 C   0  0  1  0  0  0  0  0  0  0  0  0
    9.5287  -16.6840   26.2899 C   0  0  0  0  0  0  0  0  0  0  0  0
    9.9203  -16.3978   27.7052 C   0  0  0  0  0  0  0  0  0  0  0  0
    9.8395  -14.9138   27.9618 C   0  0  0  0  0  0  0  0  0  0  0  0
   10.2303  -14.5750   29.3902 C   0  0  0  0  0  0  0  0  0  0  0  0
   10.1652  -13.1723   29.6593 N   0  0  0  0  0  0  0  0  0  0  0  0
   11.7163  -17.6306   25.8277 C   0  0  0  0  0  0  0  0  0  0  0  0
   12.7821  -17.3011   26.6526 O   0  0  0  0  0  0  0  0  0  0  0  0
   11.6303  -18.8257   25.4748 O   0  0  0  0  0  0  0  0  0  0  0  0
  2  1  1  6
  2  4  1  0
  3  2  1  0
  4  5  1  6
  6  7  2  0
  6  4  1  0
  9  8  1  6
 10  9  1  0
 11  9  1  0
 11 12  1  6
 12  6  1  0
 13 11  1  0
 14 13  2  0
 15 13  1  0
 16 15  1  0
 16 17  1  1
 17 18  1  0
 19 18  1  0
 20 19  1  0
 21 20  1  0
 22 23  1  0
 22 16  1  0
 24 22  2  0
M  END
$$$$
