VTK.pdb
     RDKit          3D

 24 23  0  0  1  0  0  0  0  0999 V2000
    7.5458  -12.2935   18.8159 C   0  0  0  0  0  0  0  0  0  0  0  0
    7.8195  -13.3184   19.8941 C   0  0  2  0  0  0  0  0  0  0  0  0
    9.0537  -12.9038   20.6750 C   0  0  0  0  0  0  0  0  0  0  0  0
    8.0085  -14.6595   19.2194 C   0  0  2  0  0  0  0  0  0  0  0  0
    6.8170  -14.9471   18.4537 N   0  0  0  0  0  0  0  0  0  0  0  0
    8.2794  -15.6917   20.2419 C   0  0  0  0  0  0  0  0  0  0  0  0
    7.3324  -15.9628   21.0377 O   0  0  0  0  0  0  0  0  0  0  0  0
   10.7755  -19.3077   22.1619 C   0  0  0  0  0  0  0  0  0  0  0  0
   10.5392  -18.4191   20.9833 C   0  0  1  0  0  0  0  0  0  0  0  0
    9.8693  -19.0203   19.9402 O   0  0  0  0  0  0  0  0  0  0  0  0
    9.7823  -17.1819   21.4756 C   0  0  2  0  0  0  0  0  0  0  0  0
    9.5286  -16.3578   20.3455 N   0  0  0  0  0  0  0  0  0  0  0  0
   10.6049  -16.5158   22.5171 C   0  0  0  0  0  0  0  0  0  0  0  0
   11.6114  -15.8278   22.2776 O   0  0  0  0  0  0  0  0  0  0  0  0
   10.2172  -16.6748   23.8739 N   0  0  0  0  0  0  0  0  0  0  0  0
   10.9818  -16.0187   24.9751 C   0  0  1  0  0  0  0  0  0  0  0  0
    9.9804  -15.7387   26.0606 C   0  0  0  0  0  0  0  0  0  0  0  0
   10.6543  -15.2363   27.2984 C   0  0  0  0  0  0  0  0  0  0  0  0
    9.6296  -15.0391   28.3873 C   0  0  0  0  0  0  0  0  0  0  0  0
   10.2514  -14.4270   29.6308 C   0  0  0  0  0  0  0  0  0  0  0  0
    9.3028  -14.2410   30.6843 N   0  0  0  0  0  0  0  0  0  0  0  0
   11.9498  -17.0242   25.4569 C   0  0  0  0  0  0  0  0  0  0  0  0
   11.6526  -18.3782   25.5160 O   0  0  0  0  0  0  0  0  0  0  0  0
   13.0907  -16.6846   25.8350 O   0  0  0  0  0  0  0  0  0  0  0  0
  2  1  1  6
  2  4  1  0
  3  2  1  0
  4  5  1  1
  6  7  2  0
  6  4  1  0
  9  8  1  1
 10  9  1  0
 11  9  1  0
 11 12  1  6
 12  6  1  0
 13 11  1  0
 14 13  2  0
 15 13  1  0
 16 15  1  0
 16 17  1  1
 17 18  1  0
 19 18  1  0
 20 19  1  0
 21 20  1  0
 22 23  1  0
 22 16  1  0
 24 22  2  0
M  END
$$$$
