VTK.pdb
     RDKit          3D

 24 23  0  0  1  0  0  0  0  0999 V2000
    8.2629  -12.6183   17.4366 C   0  0  0  0  0  0  0  0  0  0  0  0
    8.0586  -13.4434   18.6878 C   0  0  2  0  0  0  0  0  0  0  0  0
    8.7100  -12.7369   19.8632 C   0  0  0  0  0  0  0  0  0  0  0  0
    8.6684  -14.8070   18.4466 C   0  0  2  0  0  0  0  0  0  0  0  0
    7.9796  -15.4141   17.3304 N   0  0  0  0  0  0  0  0  0  0  0  0
    8.5633  -15.6184   19.6774 C   0  0  0  0  0  0  0  0  0  0  0  0
    7.4080  -16.0370   19.9829 O   0  0  0  0  0  0  0  0  0  0  0  0
   10.3687  -18.4761   23.0514 C   0  0  0  0  0  0  0  0  0  0  0  0
   10.4550  -17.8221   21.7099 C   0  0  1  0  0  0  0  0  0  0  0  0
   10.2036  -18.6630   20.6477 O   0  0  0  0  0  0  0  0  0  0  0  0
    9.4870  -16.6353   21.7058 C   0  0  2  0  0  0  0  0  0  0  0  0
    9.6857  -15.9252   20.4905 N   0  0  0  0  0  0  0  0  0  0  0  0
    9.7491  -15.8156   22.9160 C   0  0  0  0  0  0  0  0  0  0  0  0
   10.8233  -15.2357   23.1472 O   0  0  0  0  0  0  0  0  0  0  0  0
    8.7059  -15.6856   23.8706 N   0  0  0  0  0  0  0  0  0  0  0  0
    8.8877  -14.8629   25.1025 C   0  0  1  0  0  0  0  0  0  0  0  0
    7.5717  -14.1746   25.3350 C   0  0  0  0  0  0  0  0  0  0  0  0
    7.6374  -13.2763   26.5297 C   0  0  0  0  0  0  0  0  0  0  0  0
    6.3013  -12.6070   26.7330 C   0  0  0  0  0  0  0  0  0  0  0  0
    6.3158  -11.6958   27.9484 C   0  0  0  0  0  0  0  0  0  0  0  0
    5.0392  -11.1067   28.2082 N   0  0  0  0  0  0  0  0  0  0  0  0
    9.1346  -15.8189   26.2004 C   0  0  0  0  0  0  0  0  0  0  0  0
    9.9322  -15.5111   27.2931 O   0  0  0  0  0  0  0  0  0  0  0  0
    8.6245  -16.9589   26.1832 O   0  0  0  0  0  0  0  0  0  0  0  0
  2  1  1  6
  2  4  1  0
  3  2  1  0
  4  5  1  6
  6  7  2  0
  6  4  1  0
  9  8  1  1
 10  9  1  0
 11  9  1  0
 11 12  1  6
 12  6  1  0
 13 11  1  0
 14 13  2  0
 15 13  1  0
 16 15  1  0
 16 17  1  1
 17 18  1  0
 19 18  1  0
 20 19  1  0
 21 20  1  0
 22 23  1  0
 22 16  1  0
 24 22  2  0
M  END
$$$$
