VTK.pdb
     RDKit          3D

 24 23  0  0  1  0  0  0  0  0999 V2000
    7.0505  -13.3723   21.0092 C   0  0  0  0  0  0  0  0  0  0  0  0
    8.3911  -13.1005   20.3635 C   0  0  2  0  0  0  0  0  0  0  0  0
    8.3411  -11.7583   19.6557 C   0  0  0  0  0  0  0  0  0  0  0  0
    8.6774  -14.2312   19.3997 C   0  0  2  0  0  0  0  0  0  0  0  0
    7.5963  -14.2876   18.4423 N   0  0  0  0  0  0  0  0  0  0  0  0
    8.8251  -15.4946   20.1522 C   0  0  0  0  0  0  0  0  0  0  0  0
    7.7692  -16.1670   20.3428 O   0  0  0  0  0  0  0  0  0  0  0  0
   10.4984  -18.4464   19.3371 C   0  0  0  0  0  0  0  0  0  0  0  0
   11.0983  -18.1026   20.6625 C   0  0  1  0  0  0  0  0  0  0  0  0
   12.3571  -17.5468   20.5926 O   0  0  0  0  0  0  0  0  0  0  0  0
   10.1278  -17.1634   21.3849 C   0  0  2  0  0  0  0  0  0  0  0  0
   10.0757  -15.9507   20.6452 N   0  0  0  0  0  0  0  0  0  0  0  0
   10.6052  -16.9823   22.7793 C   0  0  0  0  0  0  0  0  0  0  0  0
   11.2301  -15.9859   23.1795 O   0  0  0  0  0  0  0  0  0  0  0  0
   10.3303  -18.0136   23.7160 N   0  0  0  0  0  0  0  0  0  0  0  0
   10.7910  -17.9105   25.1319 C   0  0  1  0  0  0  0  0  0  0  0  0
   10.2038  -19.0977   25.8428 C   0  0  0  0  0  0  0  0  0  0  0  0
    8.9733  -18.7155   26.6034 C   0  0  0  0  0  0  0  0  0  0  0  0
    8.3161  -19.9549   27.1572 C   0  0  0  0  0  0  0  0  0  0  0  0
    7.1867  -19.6055   28.1112 C   0  0  0  0  0  0  0  0  0  0  0  0
    6.6267  -20.7584   28.7447 N   0  0  0  0  0  0  0  0  0  0  0  0
   12.2608  -18.0466   25.0950 C   0  0  0  0  0  0  0  0  0  0  0  0
   13.0965  -17.3563   25.9610 O   0  0  0  0  0  0  0  0  0  0  0  0
   12.8130  -18.8020   24.2676 O   0  0  0  0  0  0  0  0  0  0  0  0
  2  1  1  6
  2  4  1  0
  3  2  1  0
  4  5  1  6
  6  7  2  0
  6  4  1  0
  9  8  1  6
 10  9  1  0
 11  9  1  0
 11 12  1  6
 12  6  1  0
 13 11  1  0
 14 13  2  0
 15 13  1  0
 16 15  1  0
 16 17  1  1
 17 18  1  0
 19 18  1  0
 20 19  1  0
 21 20  1  0
 22 23  1  0
 22 16  1  0
 24 22  2  0
M  END
$$$$
