VTK.pdb
     RDKit          3D

 24 23  0  0  1  0  0  0  0  0999 V2000
    8.5946  -12.6388   17.8290 C   0  0  0  0  0  0  0  0  0  0  0  0
    8.2226  -13.3958   19.0846 C   0  0  2  0  0  0  0  0  0  0  0  0
    8.7339  -12.6358   20.2954 C   0  0  0  0  0  0  0  0  0  0  0  0
    8.8353  -14.7761   18.9905 C   0  0  2  0  0  0  0  0  0  0  0  0
    8.3195  -15.4145   17.8009 N   0  0  0  0  0  0  0  0  0  0  0  0
    8.5208  -15.5394   20.2164 C   0  0  0  0  0  0  0  0  0  0  0  0
    7.5873  -16.3905   20.1298 O   0  0  0  0  0  0  0  0  0  0  0  0
    8.7287  -18.1236   20.9420 C   0  0  0  0  0  0  0  0  0  0  0  0
    9.5806  -17.6163   22.0608 C   0  0  1  0  0  0  0  0  0  0  0  0
   10.9199  -17.5090   21.7552 O   0  0  0  0  0  0  0  0  0  0  0  0
    9.0132  -16.2645   22.5040 C   0  0  2  0  0  0  0  0  0  0  0  0
    9.2159  -15.3454   21.4388 N   0  0  0  0  0  0  0  0  0  0  0  0
    9.6910  -15.8647   23.7634 C   0  0  0  0  0  0  0  0  0  0  0  0
   10.8473  -15.4139   23.8212 O   0  0  0  0  0  0  0  0  0  0  0  0
    8.9722  -16.0063   24.9799 N   0  0  0  0  0  0  0  0  0  0  0  0
    9.4408  -15.3439   26.2326 C   0  0  1  0  0  0  0  0  0  0  0  0
    8.2099  -14.7771   26.8830 C   0  0  0  0  0  0  0  0  0  0  0  0
    7.8864  -13.4229   26.3353 C   0  0  0  0  0  0  0  0  0  0  0  0
    6.6447  -12.8901   27.0052 C   0  0  0  0  0  0  0  0  0  0  0  0
    6.2807  -11.5105   26.4836 C   0  0  0  0  0  0  0  0  0  0  0  0
    5.1785  -10.9311   27.1862 N   0  0  0  0  0  0  0  0  0  0  0  0
    9.9870  -16.4192   27.0844 C   0  0  0  0  0  0  0  0  0  0  0  0
   10.8924  -16.1744   28.1069 O   0  0  0  0  0  0  0  0  0  0  0  0
    9.6468  -17.6084   26.9109 O   0  0  0  0  0  0  0  0  0  0  0  0
  2  1  1  6
  2  4  1  0
  3  2  1  0
  4  5  1  6
  6  7  2  0
  6  4  1  0
  9  8  1  6
 10  9  1  0
 11  9  1  0
 11 12  1  6
 12  6  1  0
 13 11  1  0
 14 13  2  0
 15 13  1  0
 16 15  1  0
 16 17  1  1
 17 18  1  0
 19 18  1  0
 20 19  1  0
 21 20  1  0
 22 23  1  0
 22 16  1  0
 24 22  2  0
M  END
$$$$
