VTK.pdb
     RDKit          3D

 24 23  0  0  1  0  0  0  0  0999 V2000
    7.4875  -12.2947   18.5987 C   0  0  0  0  0  0  0  0  0  0  0  0
    7.7877  -13.3475   19.6425 C   0  0  2  0  0  0  0  0  0  0  0  0
    8.7120  -12.7591   20.6933 C   0  0  0  0  0  0  0  0  0  0  0  0
    8.4200  -14.5284   18.9389 C   0  0  2  0  0  0  0  0  0  0  0  0
    7.5171  -14.9653   17.8984 N   0  0  0  0  0  0  0  0  0  0  0  0
    8.6993  -15.5959   19.9221 C   0  0  0  0  0  0  0  0  0  0  0  0
    7.9475  -16.6140   19.8817 O   0  0  0  0  0  0  0  0  0  0  0  0
    9.4295  -18.1398   19.9009 C   0  0  0  0  0  0  0  0  0  0  0  0
   10.5273  -17.7586   20.8412 C   0  0  1  0  0  0  0  0  0  0  0  0
   11.7099  -17.4092   20.2265 O   0  0  0  0  0  0  0  0  0  0  0  0
   10.0126  -16.6157   21.7213 C   0  0  2  0  0  0  0  0  0  0  0  0
    9.7504  -15.5064   20.8720 N   0  0  0  0  0  0  0  0  0  0  0  0
   11.0338  -16.3320   22.7615 C   0  0  0  0  0  0  0  0  0  0  0  0
   12.1147  -15.7605   22.5413 O   0  0  0  0  0  0  0  0  0  0  0  0
   10.7579  -16.7399   24.0935 N   0  0  0  0  0  0  0  0  0  0  0  0
   11.5505  -16.2085   25.2411 C   0  0  1  0  0  0  0  0  0  0  0  0
   10.5489  -15.8626   26.3072 C   0  0  0  0  0  0  0  0  0  0  0  0
   11.2291  -15.3753   27.5476 C   0  0  0  0  0  0  0  0  0  0  0  0
   10.2094  -15.1875   28.6428 C   0  0  0  0  0  0  0  0  0  0  0  0
   10.8413  -14.6068   29.8963 C   0  0  0  0  0  0  0  0  0  0  0  0
    9.9018  -14.4497   30.9625 N   0  0  0  0  0  0  0  0  0  0  0  0
   12.3908  -17.3279   25.7113 C   0  0  0  0  0  0  0  0  0  0  0  0
   12.2174  -18.6302   25.2652 O   0  0  0  0  0  0  0  0  0  0  0  0
   13.3038  -17.1378   26.5423 O   0  0  0  0  0  0  0  0  0  0  0  0
  2  1  1  6
  2  4  1  0
  3  2  1  0
  4  5  1  6
  6  7  2  0
  6  4  1  0
  9  8  1  6
 10  9  1  0
 11  9  1  0
 11 12  1  6
 12  6  1  0
 13 11  1  0
 14 13  2  0
 15 13  1  0
 16 15  1  0
 16 17  1  1
 17 18  1  0
 19 18  1  0
 20 19  1  0
 21 20  1  0
 22 23  1  0
 22 16  1  0
 24 22  2  0
M  END
$$$$
