VTK.pdb
     RDKit          3D

 24 23  0  0  1  0  0  0  0  0999 V2000
    4.4217  -19.2474   22.7773 C   0  0  0  0  0  0  0  0  0  0  0  0
    3.7304  -18.2050   21.9268 C   0  0  2  0  0  0  0  0  0  0  0  0
    2.2656  -18.5751   21.7763 C   0  0  0  0  0  0  0  0  0  0  0  0
    4.4360  -18.1580   20.5891 C   0  0  2  0  0  0  0  0  0  0  0  0
    4.2156  -19.4212   19.9224 N   0  0  0  0  0  0  0  0  0  0  0  0
    5.8721  -17.8790   20.7991 C   0  0  0  0  0  0  0  0  0  0  0  0
    6.6403  -18.8834   20.8654 O   0  0  0  0  0  0  0  0  0  0  0  0
    7.7904  -15.4941   18.7470 C   0  0  0  0  0  0  0  0  0  0  0  0
    8.1617  -15.1689   20.1581 C   0  0  1  0  0  0  0  0  0  0  0  0
    7.5880  -14.0160   20.6482 O   0  0  0  0  0  0  0  0  0  0  0  0
    7.7913  -16.3739   21.0280 C   0  0  2  0  0  0  0  0  0  0  0  0
    6.3862  -16.5617   20.9228 N   0  0  0  0  0  0  0  0  0  0  0  0
    8.2469  -16.1048   22.4155 C   0  0  0  0  0  0  0  0  0  0  0  0
    7.6004  -15.4463   23.2474 O   0  0  0  0  0  0  0  0  0  0  0  0
    9.5018  -16.6337   22.8182 N   0  0  0  0  0  0  0  0  0  0  0  0
   10.0570  -16.3509   24.1745 C   0  0  1  0  0  0  0  0  0  0  0  0
   10.1890  -17.6866   24.8513 C   0  0  0  0  0  0  0  0  0  0  0  0
    8.9354  -18.0446   25.5854 C   0  0  0  0  0  0  0  0  0  0  0  0
    9.0834  -19.4136   26.2007 C   0  0  0  0  0  0  0  0  0  0  0  0
    7.8905  -19.7616   27.0746 C   0  0  0  0  0  0  0  0  0  0  0  0
    7.9474  -21.1002   27.5736 N   0  0  0  0  0  0  0  0  0  0  0  0
   11.4027  -15.7839   23.9557 C   0  0  0  0  0  0  0  0  0  0  0  0
   12.0610  -15.0311   24.9174 O   0  0  0  0  0  0  0  0  0  0  0  0
   12.0063  -15.9658   22.8774 O   0  0  0  0  0  0  0  0  0  0  0  0
  2  1  1  1
  2  4  1  0
  3  2  1  0
  4  5  1  1
  6  7  2  0
  6  4  1  0
  9  8  1  6
 10  9  1  0
 11  9  1  0
 11 12  1  1
 12  6  1  0
 13 11  1  0
 14 13  2  0
 15 13  1  0
 16 15  1  0
 16 17  1  1
 17 18  1  0
 19 18  1  0
 20 19  1  0
 21 20  1  0
 22 23  1  0
 22 16  1  0
 24 22  2  0
M  END
$$$$
