VTK.pdb
     RDKit          3D

 24 23  0  0  1  0  0  0  0  0999 V2000
    8.1157  -12.9384   27.0715 C   0  0  0  0  0  0  0  0  0  0  0  0
    7.4347  -12.2277   25.9230 C   0  0  2  0  0  0  0  0  0  0  0  0
    6.8580  -10.9143   26.4206 C   0  0  0  0  0  0  0  0  0  0  0  0
    6.3573  -13.1443   25.3861 C   0  0  2  0  0  0  0  0  0  0  0  0
    5.4001  -13.3772   26.4435 N   0  0  0  0  0  0  0  0  0  0  0  0
    6.9729  -14.3979   24.9024 C   0  0  0  0  0  0  0  0  0  0  0  0
    7.0860  -15.3355   25.7459 O   0  0  0  0  0  0  0  0  0  0  0  0
    6.7633  -15.6866   21.1866 C   0  0  0  0  0  0  0  0  0  0  0  0
    8.1655  -15.8252   21.6858 C   0  0  1  0  0  0  0  0  0  0  0  0
    9.0487  -14.9012   21.1712 O   0  0  0  0  0  0  0  0  0  0  0  0
    8.1265  -15.7482   23.2150 C   0  0  2  0  0  0  0  0  0  0  0  0
    7.4215  -14.5648   23.5660 N   0  0  0  0  0  0  0  0  0  0  0  0
    9.5233  -15.7725   23.7188 C   0  0  0  0  0  0  0  0  0  0  0  0
   10.1897  -14.7565   23.9782 O   0  0  0  0  0  0  0  0  0  0  0  0
   10.1373  -17.0375   23.9170 N   0  0  0  0  0  0  0  0  0  0  0  0
   11.5446  -17.1424   24.4030 C   0  0  1  0  0  0  0  0  0  0  0  0
   11.6366  -18.4640   25.1134 C   0  0  0  0  0  0  0  0  0  0  0  0
   11.0012  -18.3935   26.4661 C   0  0  0  0  0  0  0  0  0  0  0  0
   11.0019  -19.7635   27.0968 C   0  0  0  0  0  0  0  0  0  0  0  0
   10.2711  -19.7621   28.4287 C   0  0  0  0  0  0  0  0  0  0  0  0
   10.2366  -21.0553   29.0373 N   0  0  0  0  0  0  0  0  0  0  0  0
   12.3928  -17.1822   23.1950 C   0  0  0  0  0  0  0  0  0  0  0  0
   13.7583  -16.9395   23.2332 O   0  0  0  0  0  0  0  0  0  0  0  0
   11.9014  -17.4403   22.0760 O   0  0  0  0  0  0  0  0  0  0  0  0
  2  1  1  1
  2  4  1  0
  3  2  1  0
  4  5  1  1
  6  7  2  0
  6  4  1  0
  9  8  1  6
 10  9  1  0
 11  9  1  0
 11 12  1  6
 12  6  1  0
 13 11  1  0
 14 13  2  0
 15 13  1  0
 16 15  1  0
 16 17  1  6
 17 18  1  0
 19 18  1  0
 20 19  1  0
 21 20  1  0
 22 23  1  0
 22 16  1  0
 24 22  2  0
M  END
$$$$
