VTK.pdb
     RDKit          3D

 24 23  0  0  1  0  0  0  0  0999 V2000
    7.4168  -12.2675   18.1943 C   0  0  0  0  0  0  0  0  0  0  0  0
    8.2016  -13.2892   18.9868 C   0  0  2  0  0  0  0  0  0  0  0  0
    8.9134  -12.5924   20.1326 C   0  0  0  0  0  0  0  0  0  0  0  0
    9.1790  -13.9546   18.0428 C   0  0  2  0  0  0  0  0  0  0  0  0
    8.4244  -14.5477   16.9623 N   0  0  0  0  0  0  0  0  0  0  0  0
    9.9764  -14.9546   18.7834 C   0  0  0  0  0  0  0  0  0  0  0  0
    9.4243  -16.0740   18.9965 O   0  0  0  0  0  0  0  0  0  0  0  0
   13.7322  -15.7486   18.3299 C   0  0  0  0  0  0  0  0  0  0  0  0
   13.4679  -15.5099   19.7817 C   0  0  1  0  0  0  0  0  0  0  0  0
   13.9003  -14.2872   20.2472 O   0  0  0  0  0  0  0  0  0  0  0  0
   11.9642  -15.6813   20.0171 C   0  0  2  0  0  0  0  0  0  0  0  0
   11.2947  -14.6958   19.2418 N   0  0  0  0  0  0  0  0  0  0  0  0
   11.7036  -15.5611   21.4741 C   0  0  0  0  0  0  0  0  0  0  0  0
   11.5540  -14.4811   22.0698 O   0  0  0  0  0  0  0  0  0  0  0  0
   11.6200  -16.7565   22.2360 N   0  0  0  0  0  0  0  0  0  0  0  0
   11.3408  -16.7173   23.7017 C   0  0  1  0  0  0  0  0  0  0  0  0
   10.1553  -17.6159   23.9184 C   0  0  0  0  0  0  0  0  0  0  0  0
    9.9622  -17.9113   25.3724 C   0  0  0  0  0  0  0  0  0  0  0  0
    8.9417  -19.0100   25.5337 C   0  0  0  0  0  0  0  0  0  0  0  0
    8.6587  -19.2943   26.9989 C   0  0  0  0  0  0  0  0  0  0  0  0
    7.8274  -20.4426   27.1848 N   0  0  0  0  0  0  0  0  0  0  0  0
   12.5231  -17.3087   24.3595 C   0  0  0  0  0  0  0  0  0  0  0  0
   12.7840  -17.1461   25.7124 O   0  0  0  0  0  0  0  0  0  0  0  0
   13.3446  -17.9882   23.7087 O   0  0  0  0  0  0  0  0  0  0  0  0
  2  1  1  6
  2  4  1  0
  3  2  1  0
  4  5  1  6
  6  7  2  0
  6  4  1  0
  9  8  1  6
 10  9  1  0
 11  9  1  0
 11 12  1  6
 12  6  1  0
 13 11  1  0
 14 13  2  0
 15 13  1  0
 16 15  1  0
 16 17  1  6
 17 18  1  0
 19 18  1  0
 20 19  1  0
 21 20  1  0
 22 23  1  0
 22 16  1  0
 24 22  2  0
M  END
$$$$
