VTK.pdb
     RDKit          3D

 24 23  0  0  1  0  0  0  0  0999 V2000
    2.5053  -19.8639   21.1285 C   0  0  0  0  0  0  0  0  0  0  0  0
    3.9304  -19.4452   21.4145 C   0  0  2  0  0  0  0  0  0  0  0  0
    4.0244  -18.9384   22.8426 C   0  0  0  0  0  0  0  0  0  0  0  0
    4.3067  -18.3738   20.4146 C   0  0  2  0  0  0  0  0  0  0  0  0
    4.1087  -18.9110   19.0875 N   0  0  0  0  0  0  0  0  0  0  0  0
    5.7047  -17.9536   20.6454 C   0  0  0  0  0  0  0  0  0  0  0  0
    6.6076  -18.7510   20.2552 O   0  0  0  0  0  0  0  0  0  0  0  0
    7.1000  -14.7146   19.6453 C   0  0  0  0  0  0  0  0  0  0  0  0
    7.5467  -14.8890   21.0612 C   0  0  1  0  0  0  0  0  0  0  0  0
    6.8734  -14.1054   21.9729 O   0  0  0  0  0  0  0  0  0  0  0  0
    7.4115  -16.3732   21.4141 C   0  0  2  0  0  0  0  0  0  0  0  0
    6.0416  -16.7242   21.2701 N   0  0  0  0  0  0  0  0  0  0  0  0
    7.9289  -16.5740   22.7915 C   0  0  0  0  0  0  0  0  0  0  0  0
    7.2617  -16.3851   23.8224 O   0  0  0  0  0  0  0  0  0  0  0  0
    9.2722  -17.0099   22.9408 N   0  0  0  0  0  0  0  0  0  0  0  0
    9.8641  -17.2304   24.2931 C   0  0  1  0  0  0  0  0  0  0  0  0
   10.3763  -18.6437   24.2920 C   0  0  0  0  0  0  0  0  0  0  0  0
    9.2489  -19.6250   24.3597 C   0  0  0  0  0  0  0  0  0  0  0  0
    9.8018  -21.0274   24.4081 C   0  0  0  0  0  0  0  0  0  0  0  0
    8.6904  -22.0631   24.3999 C   0  0  0  0  0  0  0  0  0  0  0  0
    9.1844  -23.3994   24.5200 N   0  0  0  0  0  0  0  0  0  0  0  0
   11.0072  -16.3014   24.3959 C   0  0  0  0  0  0  0  0  0  0  0  0
   11.7000  -16.0984   25.5807 O   0  0  0  0  0  0  0  0  0  0  0  0
   11.3972  -15.6539   23.4015 O   0  0  0  0  0  0  0  0  0  0  0  0
  2  1  1  6
  2  4  1  0
  3  2  1  0
  4  5  1  6
  6  7  2  0
  6  4  1  0
  9  8  1  6
 10  9  1  0
 11  9  1  0
 11 12  1  1
 12  6  1  0
 13 11  1  0
 14 13  2  0
 15 13  1  0
 16 15  1  0
 16 17  1  6
 17 18  1  0
 19 18  1  0
 20 19  1  0
 21 20  1  0
 22 23  1  0
 22 16  1  0
 24 22  2  0
M  END
$$$$
