VTK.pdb
     RDKit          3D

 24 23  0  0  1  0  0  0  0  0999 V2000
    6.6281  -11.4939   26.8641 C   0  0  0  0  0  0  0  0  0  0  0  0
    7.2515  -12.6744   26.1529 C   0  0  2  0  0  0  0  0  0  0  0  0
    8.3092  -12.1728   25.1861 C   0  0  0  0  0  0  0  0  0  0  0  0
    6.1460  -13.4184   25.4363 C   0  0  2  0  0  0  0  0  0  0  0  0
    5.0938  -13.6843   26.3908 N   0  0  0  0  0  0  0  0  0  0  0  0
    6.6901  -14.6580   24.8434 C   0  0  0  0  0  0  0  0  0  0  0  0
    5.8574  -15.5778   24.5903 O   0  0  0  0  0  0  0  0  0  0  0  0
    6.3824  -15.8413   22.5600 C   0  0  0  0  0  0  0  0  0  0  0  0
    7.8689  -15.8177   22.4041 C   0  0  1  0  0  0  0  0  0  0  0  0
    8.3577  -14.7026   21.7591 O   0  0  0  0  0  0  0  0  0  0  0  0
    8.4870  -15.9548   23.7987 C   0  0  2  0  0  0  0  0  0  0  0  0
    8.0709  -14.8310   24.5634 N   0  0  0  0  0  0  0  0  0  0  0  0
    9.9612  -16.0509   23.6479 C   0  0  0  0  0  0  0  0  0  0  0  0
   10.6709  -15.1639   23.1449 O   0  0  0  0  0  0  0  0  0  0  0  0
   10.6015  -17.2320   24.1079 N   0  0  0  0  0  0  0  0  0  0  0  0
   12.0478  -17.2300   24.4763 C   0  0  1  0  0  0  0  0  0  0  0  0
   12.2682  -18.4791   25.2830 C   0  0  0  0  0  0  0  0  0  0  0  0
   12.1921  -18.1935   26.7497 C   0  0  0  0  0  0  0  0  0  0  0  0
   11.5124  -19.3412   27.4536 C   0  0  0  0  0  0  0  0  0  0  0  0
   11.4036  -19.0901   28.9478 C   0  0  0  0  0  0  0  0  0  0  0  0
   10.6959  -20.1289   29.6290 N   0  0  0  0  0  0  0  0  0  0  0  0
   12.7938  -17.3359   23.2064 C   0  0  0  0  0  0  0  0  0  0  0  0
   14.1543  -17.0795   23.1161 O   0  0  0  0  0  0  0  0  0  0  0  0
   12.2151  -17.6661   22.1499 O   0  0  0  0  0  0  0  0  0  0  0  0
  2  1  1  6
  2  4  1  0
  3  2  1  0
  4  5  1  1
  6  7  2  0
  6  4  1  0
  9  8  1  1
 10  9  1  0
 11  9  1  0
 11 12  1  1
 12  6  1  0
 13 11  1  0
 14 13  2  0
 15 13  1  0
 16 15  1  0
 16 17  1  1
 17 18  1  0
 19 18  1  0
 20 19  1  0
 21 20  1  0
 22 23  1  0
 22 16  1  0
 24 22  2  0
M  END
$$$$
