VTK.pdb
     RDKit          3D

 24 23  0  0  1  0  0  0  0  0999 V2000
    7.6446  -12.2250   19.0560 C   0  0  0  0  0  0  0  0  0  0  0  0
    8.3525  -13.3668   19.7511 C   0  0  2  0  0  0  0  0  0  0  0  0
    9.4797  -12.8106   20.6026 C   0  0  0  0  0  0  0  0  0  0  0  0
    8.8686  -14.3080   18.6847 C   0  0  2  0  0  0  0  0  0  0  0  0
    7.7345  -14.8052   17.9396 N   0  0  0  0  0  0  0  0  0  0  0  0
    9.6414  -15.3959   19.3199 C   0  0  0  0  0  0  0  0  0  0  0  0
    8.9739  -16.3573   19.8031 O   0  0  0  0  0  0  0  0  0  0  0  0
   13.6799  -17.9518   19.7112 C   0  0  0  0  0  0  0  0  0  0  0  0
   12.9852  -16.7621   19.1309 C   0  0  1  0  0  0  0  0  0  0  0  0
   12.6667  -16.8819   17.7957 O   0  0  0  0  0  0  0  0  0  0  0  0
   11.7302  -16.4995   19.9686 C   0  0  2  0  0  0  0  0  0  0  0  0
   11.0589  -15.3851   19.3959 N   0  0  0  0  0  0  0  0  0  0  0  0
   12.1475  -16.2755   21.3761 C   0  0  0  0  0  0  0  0  0  0  0  0
   12.7098  -15.2447   21.7820 O   0  0  0  0  0  0  0  0  0  0  0  0
   11.8875  -17.3050   22.3191 N   0  0  0  0  0  0  0  0  0  0  0  0
   12.2904  -17.1590   23.7488 C   0  0  1  0  0  0  0  0  0  0  0  0
   11.7198  -18.3537   24.4606 C   0  0  0  0  0  0  0  0  0  0  0  0
   12.1260  -18.3674   25.9006 C   0  0  0  0  0  0  0  0  0  0  0  0
   11.5965  -19.6144   26.5633 C   0  0  0  0  0  0  0  0  0  0  0  0
   12.0840  -19.7309   27.9973 C   0  0  0  0  0  0  0  0  0  0  0  0
   11.0139  -19.9115   28.9281 N   0  0  0  0  0  0  0  0  0  0  0  0
   13.7645  -17.2420   23.7690 C   0  0  0  0  0  0  0  0  0  0  0  0
   14.5498  -16.3899   24.5320 O   0  0  0  0  0  0  0  0  0  0  0  0
   14.3668  -18.0980   23.0874 O   0  0  0  0  0  0  0  0  0  0  0  0
  2  1  1  6
  2  4  1  0
  3  2  1  0
  4  5  1  1
  6  7  2  0
  6  4  1  0
  9  8  1  1
 10  9  1  0
 11  9  1  0
 11 12  1  6
 12  6  1  0
 13 11  1  0
 14 13  2  0
 15 13  1  0
 16 15  1  0
 16 17  1  1
 17 18  1  0
 19 18  1  0
 20 19  1  0
 21 20  1  0
 22 23  1  0
 22 16  1  0
 24 22  2  0
M  END
$$$$
