VTK.pdb
     RDKit          3D

 24 23  0  0  1  0  0  0  0  0999 V2000
    6.1382  -11.1528   26.4995 C   0  0  0  0  0  0  0  0  0  0  0  0
    6.9780  -12.3125   26.0121 C   0  0  2  0  0  0  0  0  0  0  0  0
    8.0484  -11.7920   25.0696 C   0  0  0  0  0  0  0  0  0  0  0  0
    6.0551  -13.2940   25.3235 C   0  0  2  0  0  0  0  0  0  0  0  0
    5.1130  -13.7854   26.3032 N   0  0  0  0  0  0  0  0  0  0  0  0
    6.8538  -14.3815   24.7204 C   0  0  0  0  0  0  0  0  0  0  0  0
    7.1762  -15.3382   25.4847 O   0  0  0  0  0  0  0  0  0  0  0  0
    9.0076  -16.3707   20.8115 C   0  0  0  0  0  0  0  0  0  0  0  0
    8.1562  -15.2612   21.3396 C   0  0  1  0  0  0  0  0  0  0  0  0
    6.9275  -15.1434   20.7273 O   0  0  0  0  0  0  0  0  0  0  0  0
    7.9948  -15.4737   22.8478 C   0  0  2  0  0  0  0  0  0  0  0  0
    7.2504  -14.3752   23.3574 N   0  0  0  0  0  0  0  0  0  0  0  0
    9.3472  -15.5976   23.4485 C   0  0  0  0  0  0  0  0  0  0  0  0
   10.1375  -14.6496   23.5908 O   0  0  0  0  0  0  0  0  0  0  0  0
    9.7648  -16.8815   23.8888 N   0  0  0  0  0  0  0  0  0  0  0  0
   11.0140  -17.0530   24.6873 C   0  0  1  0  0  0  0  0  0  0  0  0
   10.8197  -18.3091   25.4898 C   0  0  0  0  0  0  0  0  0  0  0  0
   12.0533  -18.6489   26.2652 C   0  0  0  0  0  0  0  0  0  0  0  0
   11.8430  -19.9451   27.0071 C   0  0  0  0  0  0  0  0  0  0  0  0
   13.0644  -20.3188   27.8295 C   0  0  0  0  0  0  0  0  0  0  0  0
   12.8704  -20.1037   29.2296 N   0  0  0  0  0  0  0  0  0  0  0  0
   12.0991  -17.2665   23.7089 C   0  0  0  0  0  0  0  0  0  0  0  0
   13.4156  -16.9114   23.9648 O   0  0  0  0  0  0  0  0  0  0  0  0
   11.8650  -17.7838   22.5964 O   0  0  0  0  0  0  0  0  0  0  0  0
  2  1  1  6
  2  4  1  0
  3  2  1  0
  4  5  1  1
  6  7  2  0
  6  4  1  0
  9  8  1  6
 10  9  1  0
 11  9  1  0
 11 12  1  1
 12  6  1  0
 13 11  1  0
 14 13  2  0
 15 13  1  0
 16 15  1  0
 16 17  1  1
 17 18  1  0
 19 18  1  0
 20 19  1  0
 21 20  1  0
 22 23  1  0
 22 16  1  0
 24 22  2  0
M  END
$$$$
