VTK.pdb
     RDKit          3D

 24 23  0  0  1  0  0  0  0  0999 V2000
    7.4173  -12.5860   18.2608 C   0  0  0  0  0  0  0  0  0  0  0  0
    7.7931  -13.4649   19.4331 C   0  0  2  0  0  0  0  0  0  0  0  0
    8.8170  -12.7425   20.2903 C   0  0  0  0  0  0  0  0  0  0  0  0
    8.3412  -14.7624   18.8807 C   0  0  2  0  0  0  0  0  0  0  0  0
    7.2786  -15.4265   18.1605 N   0  0  0  0  0  0  0  0  0  0  0  0
    8.8666  -15.5870   19.9890 C   0  0  0  0  0  0  0  0  0  0  0  0
    8.0109  -16.0924   20.7738 O   0  0  0  0  0  0  0  0  0  0  0  0
   12.1098  -18.6301   21.6618 C   0  0  0  0  0  0  0  0  0  0  0  0
   11.6767  -17.6819   20.5904 C   0  0  1  0  0  0  0  0  0  0  0  0
   11.1451  -18.2875   19.4727 O   0  0  0  0  0  0  0  0  0  0  0  0
   10.6730  -16.7046   21.2094 C   0  0  2  0  0  0  0  0  0  0  0  0
   10.2542  -15.8142   20.1835 N   0  0  0  0  0  0  0  0  0  0  0  0
   11.3321  -16.0196   22.3503 C   0  0  0  0  0  0  0  0  0  0  0  0
   12.1598  -15.1009   22.2293 O   0  0  0  0  0  0  0  0  0  0  0  0
   10.9955  -16.4409   23.6640 N   0  0  0  0  0  0  0  0  0  0  0  0
   11.6785  -15.8604   24.8573 C   0  0  1  0  0  0  0  0  0  0  0  0
   10.7004  -15.9852   25.9919 C   0  0  0  0  0  0  0  0  0  0  0  0
   11.2865  -15.4681   27.2676 C   0  0  0  0  0  0  0  0  0  0  0  0
   10.2778  -15.6067   28.3802 C   0  0  0  0  0  0  0  0  0  0  0  0
   10.8172  -15.0589   29.6904 C   0  0  0  0  0  0  0  0  0  0  0  0
   10.4296  -13.7019   29.9192 N   0  0  0  0  0  0  0  0  0  0  0  0
   12.8431  -16.7280   25.1246 C   0  0  0  0  0  0  0  0  0  0  0  0
   14.0776  -16.2235   25.5074 O   0  0  0  0  0  0  0  0  0  0  0  0
   12.7557  -17.9690   25.0133 O   0  0  0  0  0  0  0  0  0  0  0  0
  2  1  1  6
  2  4  1  0
  3  2  1  0
  4  5  1  1
  6  7  2  0
  6  4  1  0
  9  8  1  1
 10  9  1  0
 11  9  1  0
 11 12  1  6
 12  6  1  0
 13 11  1  0
 14 13  2  0
 15 13  1  0
 16 15  1  0
 16 17  1  1
 17 18  1  0
 19 18  1  0
 20 19  1  0
 21 20  1  0
 22 23  1  0
 22 16  1  0
 24 22  2  0
M  END
$$$$
