VTK.pdb
     RDKit          3D

 24 23  0  0  1  0  0  0  0  0999 V2000
    7.3379  -12.2529   18.1575 C   0  0  0  0  0  0  0  0  0  0  0  0
    8.2573  -13.1280   18.9802 C   0  0  2  0  0  0  0  0  0  0  0  0
    9.1533  -12.2475   19.8329 C   0  0  0  0  0  0  0  0  0  0  0  0
    9.0595  -13.9830   18.0237 C   0  0  2  0  0  0  0  0  0  0  0  0
    8.1332  -14.7747   17.2466 N   0  0  0  0  0  0  0  0  0  0  0  0
   10.0075  -14.8206   18.7879 C   0  0  0  0  0  0  0  0  0  0  0  0
    9.5286  -15.8496   19.3494 O   0  0  0  0  0  0  0  0  0  0  0  0
   14.5856  -15.8721   20.1088 C   0  0  0  0  0  0  0  0  0  0  0  0
   13.6845  -15.0119   19.2825 C   0  0  1  0  0  0  0  0  0  0  0  0
   13.9013  -15.0971   17.9245 O   0  0  0  0  0  0  0  0  0  0  0  0
   12.2392  -15.3830   19.6275 C   0  0  2  0  0  0  0  0  0  0  0  0
   11.3874  -14.5074   18.9005 N   0  0  0  0  0  0  0  0  0  0  0  0
   12.0702  -15.2809   21.0993 C   0  0  0  0  0  0  0  0  0  0  0  0
   12.3012  -14.2537   21.7590 O   0  0  0  0  0  0  0  0  0  0  0  0
   11.6155  -16.4303   21.7983 N   0  0  0  0  0  0  0  0  0  0  0  0
   11.4810  -16.4244   23.2847 C   0  0  1  0  0  0  0  0  0  0  0  0
   10.0517  -16.7924   23.5696 C   0  0  0  0  0  0  0  0  0  0  0  0
    9.6661  -18.0484   22.8537 C   0  0  0  0  0  0  0  0  0  0  0  0
    8.2821  -18.4690   23.2807 C   0  0  0  0  0  0  0  0  0  0  0  0
    7.8750  -19.7804   22.6308 C   0  0  0  0  0  0  0  0  0  0  0  0
    6.5369  -20.1631   22.9581 N   0  0  0  0  0  0  0  0  0  0  0  0
   12.3654  -17.4981   23.7800 C   0  0  0  0  0  0  0  0  0  0  0  0
   12.6754  -17.6496   25.1238 O   0  0  0  0  0  0  0  0  0  0  0  0
   12.8745  -18.3225   22.9918 O   0  0  0  0  0  0  0  0  0  0  0  0
  2  1  1  6
  2  4  1  0
  3  2  1  0
  4  5  1  1
  6  7  2  0
  6  4  1  0
  9  8  1  1
 10  9  1  0
 11  9  1  0
 11 12  1  6
 12  6  1  0
 13 11  1  0
 14 13  2  0
 15 13  1  0
 16 15  1  0
 16 17  1  6
 17 18  1  0
 19 18  1  0
 20 19  1  0
 21 20  1  0
 22 23  1  0
 22 16  1  0
 24 22  2  0
M  END
$$$$
