VTK.pdb
     RDKit          3D

 24 23  0  0  1  0  0  0  0  0999 V2000
    8.5709  -19.3070   15.8605 C   0  0  0  0  0  0  0  0  0  0  0  0
    9.0499  -18.5990   17.1084 C   0  0  2  0  0  0  0  0  0  0  0  0
    8.4417  -19.2696   18.3271 C   0  0  0  0  0  0  0  0  0  0  0  0
    8.6362  -17.1474   17.0036 C   0  0  2  0  0  0  0  0  0  0  0  0
    9.1902  -16.6113   15.7811 N   0  0  0  0  0  0  0  0  0  0  0  0
    9.1037  -16.4142   18.1986 C   0  0  0  0  0  0  0  0  0  0  0  0
   10.3405  -16.1484   18.2521 O   0  0  0  0  0  0  0  0  0  0  0  0
    7.5495  -13.2678   19.7468 C   0  0  0  0  0  0  0  0  0  0  0  0
    7.6883  -14.3073   20.8120 C   0  0  1  0  0  0  0  0  0  0  0  0
    6.5163  -14.9576   21.1314 O   0  0  0  0  0  0  0  0  0  0  0  0
    8.7572  -15.3045   20.3550 C   0  0  2  0  0  0  0  0  0  0  0  0
    8.2297  -16.0183   19.2448 N   0  0  0  0  0  0  0  0  0  0  0  0
    9.1029  -16.1773   21.5056 C   0  0  0  0  0  0  0  0  0  0  0  0
    8.5356  -17.2526   21.7614 O   0  0  0  0  0  0  0  0  0  0  0  0
   10.1489  -15.7569   22.3692 N   0  0  0  0  0  0  0  0  0  0  0  0
   10.4773  -16.5202   23.6090 C   0  0  1  0  0  0  0  0  0  0  0  0
   11.8574  -16.0793   24.0096 C   0  0  0  0  0  0  0  0  0  0  0  0
   12.2730  -16.7154   25.2985 C   0  0  0  0  0  0  0  0  0  0  0  0
   12.8694  -18.0730   25.0230 C   0  0  0  0  0  0  0  0  0  0  0  0
   13.2399  -18.7886   26.3108 C   0  0  0  0  0  0  0  0  0  0  0  0
   13.6619  -20.1364   26.0882 N   0  0  0  0  0  0  0  0  0  0  0  0
    9.5106  -16.0744   24.6322 C   0  0  0  0  0  0  0  0  0  0  0  0
    9.0686  -16.9034   25.6531 O   0  0  0  0  0  0  0  0  0  0  0  0
    9.0487  -14.9140   24.6138 O   0  0  0  0  0  0  0  0  0  0  0  0
  2  1  1  6
  2  4  1  0
  3  2  1  0
  4  5  1  6
  6  7  2  0
  6  4  1  0
  9  8  1  6
 10  9  1  0
 11  9  1  0
 11 12  1  6
 12  6  1  0
 13 11  1  0
 14 13  2  0
 15 13  1  0
 16 15  1  0
 16 17  1  1
 17 18  1  0
 19 18  1  0
 20 19  1  0
 21 20  1  0
 22 23  1  0
 22 16  1  0
 24 22  2  0
M  END
$$$$
