RHS.pdb
     RDKit          3D

 28 28  0  0  1  0  0  0  0  0999 V2000
    8.8545  -14.9814   14.2390 N   0  0  0  0  0  0  0  0  0  0  0  0
    8.2081  -13.9481   14.9647 C   0  0  0  0  0  0  0  0  0  0  0  0
    8.1314  -12.7743   14.4840 N   0  0  0  0  0  0  0  0  0  0  0  0
    7.6244  -14.1956   16.2532 N   0  0  0  0  0  0  0  0  0  0  0  0
    7.6170  -15.4729   16.8646 C   0  0  0  0  0  0  0  0  0  0  0  0
    8.8822  -15.9364   17.4972 C   0  0  0  0  0  0  0  0  0  0  0  0
    9.1333  -15.2207   18.7920 C   0  0  0  0  0  0  0  0  0  0  0  0
    9.1723  -16.2086   19.9678 C   0  0  2  0  0  0  0  0  0  0  0  0
    8.0651  -17.1046   19.9695 N   0  0  0  0  0  0  0  0  0  0  0  0
    9.3591  -15.5033   21.2574 C   0  0  0  0  0  0  0  0  0  0  0  0
   10.3434  -14.7147   21.4096 O   0  0  0  0  0  0  0  0  0  0  0  0
    7.6284  -12.0271   15.0027 N   0  0  0  0  0  0  0  0  0  0  0  0
    8.4788  -15.6685   22.3509 C   0  0  1  0  0  0  0  0  0  0  0  0
    8.7858  -14.9722   23.6663 C   0  0  0  0  0  0  0  0  0  0  0  0
    7.4711  -14.4400   24.0623 C   0  0  0  0  0  0  0  0  0  0  0  0
    7.3223  -13.7704   25.3596 C   0  0  0  0  0  0  0  0  0  0  0  0
    8.2045  -13.5134   26.3692 N   0  0  0  0  0  0  0  0  0  0  0  0
    7.6376  -12.7844   27.3693 C   0  0  0  0  0  0  0  0  0  0  0  0
    6.3831  -12.5945   26.9549 N   0  0  0  0  0  0  0  0  0  0  0  0
    6.1555  -13.1555   25.7808 C   0  0  0  0  0  0  0  0  0  0  0  0
    9.3010  -16.0918   24.5128 O   0  0  0  0  0  0  0  0  0  0  0  0
    8.6898  -17.2170   24.3533 O   0  0  0  0  0  0  0  0  0  0  0  0
   12.9157  -16.6987   25.9239 C   0  0  0  0  0  0  0  0  0  0  0  0
   12.0631  -17.7847   25.7947 C   0  0  1  0  0  0  0  0  0  0  0  0
   10.6634  -17.3030   26.1729 N   0  0  0  0  0  0  0  0  0  0  0  0
   10.3276  -16.0963   25.4286 C   0  0  0  0  0  0  0  0  0  0  0  0
   10.5685  -17.0789   27.6314 O   0  0  0  0  0  0  0  0  0  0  0  0
   10.8151  -18.0001   28.4454 O   0  0  0  0  0  0  0  0  0  0  0  0
  2  3  2  0
  2  1  1  0
  4  2  1  0
  5  4  1  0
  6  5  1  0
  7  6  1  0
  7  8  1  0
  8  9  1  1
 10  8  1  0
 10 11  2  0
 12 10  1  0
 13 12  1  0
 13 14  1  1
 15 14  1  0
 15 16  2  0
 17 16  1  0
 18 17  1  0
 19 18  2  0
 19 15  1  0
 20 13  1  0
 21 20  2  0
 23 22  1  0
 24 23  1  6
 24 26  1  0
 24 25  1  0
 25 20  1  0
 26 28  1  0
 27 26  2  0
M  END
$$$$
