RHS.pdb
     RDKit          3D

 28 28  0  0  1  0  0  0  0  0999 V2000
    9.8546  -12.9066   19.4296 N   0  0  0  0  0  0  0  0  0  0  0  0
    8.4739  -12.6463   19.6248 C   0  0  0  0  0  0  0  0  0  0  0  0
    7.8120  -11.9961   18.7564 N   0  0  0  0  0  0  0  0  0  0  0  0
    7.7878  -13.1069   20.7992 N   0  0  0  0  0  0  0  0  0  0  0  0
    7.5886  -14.4788   21.0883 C   0  0  0  0  0  0  0  0  0  0  0  0
    8.2365  -15.4697   20.1861 C   0  0  0  0  0  0  0  0  0  0  0  0
    9.4495  -16.0749   20.8296 C   0  0  0  0  0  0  0  0  0  0  0  0
    9.0506  -17.1387   21.8636 C   0  0  2  0  0  0  0  0  0  0  0  0
    7.7052  -17.5795   21.7073 N   0  0  0  0  0  0  0  0  0  0  0  0
    9.3672  -16.6955   23.2415 C   0  0  0  0  0  0  0  0  0  0  0  0
   10.4808  -16.1344   23.4846 O   0  0  0  0  0  0  0  0  0  0  0  0
    6.8318  -11.7101   18.9505 N   0  0  0  0  0  0  0  0  0  0  0  0
    8.4737  -16.8706   24.3226 C   0  0  1  0  0  0  0  0  0  0  0  0
    8.8646  -16.3656   25.7016 C   0  0  0  0  0  0  0  0  0  0  0  0
    7.6244  -15.7267   26.1730 C   0  0  0  0  0  0  0  0  0  0  0  0
    7.4876  -14.2676   26.0962 C   0  0  0  0  0  0  0  0  0  0  0  0
    6.5355  -13.4604   25.5435 N   0  0  0  0  0  0  0  0  0  0  0  0
    6.7810  -12.1431   25.7835 C   0  0  0  0  0  0  0  0  0  0  0  0
    7.9076  -12.1532   26.4995 N   0  0  0  0  0  0  0  0  0  0  0  0
    8.3559  -13.3784   26.7064 C   0  0  0  0  0  0  0  0  0  0  0  0
    9.2422  -17.6255   26.4127 O   0  0  0  0  0  0  0  0  0  0  0  0
    8.3153  -18.5223   26.4551 O   0  0  0  0  0  0  0  0  0  0  0  0
   12.8526  -19.2139   27.0927 C   0  0  0  0  0  0  0  0  0  0  0  0
   11.7359  -20.0356   27.0655 C   0  0  1  0  0  0  0  0  0  0  0  0
   10.5857  -19.2493   27.6924 N   0  0  0  0  0  0  0  0  0  0  0  0
   10.4281  -17.9656   27.0214 C   0  0  0  0  0  0  0  0  0  0  0  0
   10.8079  -19.0736   29.1437 O   0  0  0  0  0  0  0  0  0  0  0  0
   10.8913  -17.9306   29.6523 O   0  0  0  0  0  0  0  0  0  0  0  0
  2  3  2  0
  2  1  1  0
  4  2  1  0
  5  4  1  0
  6  5  1  0
  7  6  1  0
  7  8  1  0
  8  9  1  1
 10  8  1  0
 10 11  2  0
 12 10  1  0
 13 12  1  0
 13 14  1  6
 15 14  1  0
 15 16  2  0
 17 16  1  0
 18 17  1  0
 19 18  2  0
 19 15  1  0
 20 13  1  0
 21 20  2  0
 23 22  1  0
 24 23  1  6
 24 26  1  0
 24 25  1  0
 25 20  1  0
 26 28  1  0
 27 26  2  0
M  END
$$$$
