RHS.pdb
     RDKit          3D

 28 28  0  0  1  0  0  0  0  0999 V2000
    9.9215  -14.2012   14.7523 N   0  0  0  0  0  0  0  0  0  0  0  0
    8.5484  -14.1225   15.0993 C   0  0  0  0  0  0  0  0  0  0  0  0
    7.6783  -13.8267   14.2216 N   0  0  0  0  0  0  0  0  0  0  0  0
    8.1036  -14.3738   16.4413 N   0  0  0  0  0  0  0  0  0  0  0  0
    8.4242  -15.5561   17.1519 C   0  0  0  0  0  0  0  0  0  0  0  0
    7.8124  -15.7333   18.4972 C   0  0  0  0  0  0  0  0  0  0  0  0
    8.3367  -14.7164   19.4681 C   0  0  0  0  0  0  0  0  0  0  0  0
    9.1865  -15.3848   20.5594 C   0  0  2  0  0  0  0  0  0  0  0  0
    8.8852  -16.7676   20.7204 N   0  0  0  0  0  0  0  0  0  0  0  0
    9.1324  -14.6204   21.8275 C   0  0  0  0  0  0  0  0  0  0  0  0
    9.3944  -13.3772   21.8276 O   0  0  0  0  0  0  0  0  0  0  0  0
    6.6666  -13.8449   14.4593 N   0  0  0  0  0  0  0  0  0  0  0  0
    8.7980  -15.2180   23.0639 C   0  0  1  0  0  0  0  0  0  0  0  0
    8.8091  -14.3731   24.3270 C   0  0  0  0  0  0  0  0  0  0  0  0
    7.3891  -14.3588   24.7163 C   0  0  0  0  0  0  0  0  0  0  0  0
    6.9267  -13.4063   25.7325 C   0  0  0  0  0  0  0  0  0  0  0  0
    7.5525  -12.3876   26.3914 N   0  0  0  0  0  0  0  0  0  0  0  0
    6.7001  -11.7060   27.2049 C   0  0  0  0  0  0  0  0  0  0  0  0
    5.5304  -12.3258   27.0335 N   0  0  0  0  0  0  0  0  0  0  0  0
    5.6181  -13.3284   26.1779 C   0  0  0  0  0  0  0  0  0  0  0  0
    9.7094  -15.1533   25.2305 O   0  0  0  0  0  0  0  0  0  0  0  0
   10.0087  -16.3354   24.8080 O   0  0  0  0  0  0  0  0  0  0  0  0
   10.4849  -14.4240   29.0335 C   0  0  0  0  0  0  0  0  0  0  0  0
   11.5774  -15.0781   28.4844 C   0  0  1  0  0  0  0  0  0  0  0  0
   11.1060  -15.7216   27.1814 N   0  0  0  0  0  0  0  0  0  0  0  0
   10.2637  -14.7943   26.4374 C   0  0  0  0  0  0  0  0  0  0  0  0
   10.3972  -16.9899   27.4561 O   0  0  0  0  0  0  0  0  0  0  0  0
    9.1721  -17.1115   27.2188 O   0  0  0  0  0  0  0  0  0  0  0  0
  2  3  2  0
  2  1  1  0
  4  2  1  0
  5  4  1  0
  6  5  1  0
  7  6  1  0
  7  8  1  0
  8  9  1  1
 10  8  1  0
 10 11  2  0
 12 10  1  0
 13 12  1  0
 13 14  1  1
 15 14  1  0
 15 16  2  0
 17 16  1  0
 18 17  1  0
 19 18  2  0
 19 15  1  0
 20 13  1  0
 21 20  2  0
 23 22  1  0
 24 23  1  6
 24 26  1  0
 24 25  1  0
 25 20  1  0
 26 28  1  0
 27 26  2  0
M  END
$$$$
