RHS.pdb
     RDKit          3D

 28 28  0  0  1  0  0  0  0  0999 V2000
   11.3040  -19.6304   10.3941 N   0  0  0  0  0  0  0  0  0  0  0  0
   12.5900  -19.5435    9.8019 C   0  0  0  0  0  0  0  0  0  0  0  0
   12.8115  -20.0636    8.6637 N   0  0  0  0  0  0  0  0  0  0  0  0
   13.6713  -18.8697   10.4645 N   0  0  0  0  0  0  0  0  0  0  0  0
   13.4804  -18.0067   11.5710 C   0  0  0  0  0  0  0  0  0  0  0  0
   12.2461  -17.1749   11.5854 C   0  0  0  0  0  0  0  0  0  0  0  0
   12.2673  -16.1954   12.7220 C   0  0  0  0  0  0  0  0  0  0  0  0
   11.8703  -16.8750   14.0413 C   0  0  2  0  0  0  0  0  0  0  0  0
   10.7512  -17.7442   13.8964 N   0  0  0  0  0  0  0  0  0  0  0  0
   11.7068  -15.8832   15.1298 C   0  0  0  0  0  0  0  0  0  0  0  0
   12.6346  -15.0491   15.3693 O   0  0  0  0  0  0  0  0  0  0  0  0
   13.7109  -19.8884    8.1732 N   0  0  0  0  0  0  0  0  0  0  0  0
   10.5458  -15.8180   15.9333 C   0  0  1  0  0  0  0  0  0  0  0  0
   10.5033  -14.8500   17.1040 C   0  0  0  0  0  0  0  0  0  0  0  0
    9.0657  -14.7872   17.4167 C   0  0  0  0  0  0  0  0  0  0  0  0
    8.6150  -14.0547   18.6058 C   0  0  0  0  0  0  0  0  0  0  0  0
    9.2840  -13.3246   19.5454 N   0  0  0  0  0  0  0  0  0  0  0  0
    8.4374  -12.7481   20.4420 C   0  0  0  0  0  0  0  0  0  0  0  0
    7.2272  -13.1373   20.0349 N   0  0  0  0  0  0  0  0  0  0  0  0
    7.2853  -13.9044   18.9610 C   0  0  0  0  0  0  0  0  0  0  0  0
   11.3479  -15.5410   18.1262 O   0  0  0  0  0  0  0  0  0  0  0  0
   11.3270  -16.8298   18.0646 O   0  0  0  0  0  0  0  0  0  0  0  0
   14.5259  -14.1416   20.0468 C   0  0  0  0  0  0  0  0  0  0  0  0
   14.4148  -15.5124   19.8687 C   0  0  1  0  0  0  0  0  0  0  0  0
   12.9321  -15.8610   19.9882 N   0  0  0  0  0  0  0  0  0  0  0  0
   12.1411  -15.0048   19.1140 C   0  0  0  0  0  0  0  0  0  0  0  0
   12.4857  -15.7533   21.3937 O   0  0  0  0  0  0  0  0  0  0  0  0
   13.0245  -16.4341   22.2983 O   0  0  0  0  0  0  0  0  0  0  0  0
  2  3  2  0
  2  1  1  0
  4  2  1  0
  5  4  1  0
  6  5  1  0
  7  6  1  0
  7  8  1  0
  8  9  1  6
 10  8  1  0
 10 11  2  0
 12 10  1  0
 13 12  1  0
 13 14  1  6
 15 14  1  0
 15 16  2  0
 17 16  1  0
 18 17  1  0
 19 18  2  0
 19 15  1  0
 20 13  1  0
 21 20  2  0
 23 22  1  0
 24 23  1  6
 24 26  1  0
 24 25  1  0
 25 20  1  0
 26 28  1  0
 27 26  2  0
M  END
$$$$
