RHS.pdb
     RDKit          3D

 28 28  0  0  1  0  0  0  0  0999 V2000
    8.9151  -14.5390   13.1167 N   0  0  0  0  0  0  0  0  0  0  0  0
    7.9774  -14.7779   14.1538 C   0  0  0  0  0  0  0  0  0  0  0  0
    7.5620  -13.8210   14.8796 N   0  0  0  0  0  0  0  0  0  0  0  0
    7.4722  -16.0971   14.4119 N   0  0  0  0  0  0  0  0  0  0  0  0
    8.2264  -17.0964   15.0738 C   0  0  0  0  0  0  0  0  0  0  0  0
    8.6290  -16.8302   16.4817 C   0  0  0  0  0  0  0  0  0  0  0  0
   10.0671  -17.1924   16.7107 C   0  0  0  0  0  0  0  0  0  0  0  0
   10.2174  -18.0934   17.9459 C   0  0  2  0  0  0  0  0  0  0  0  0
    9.1386  -19.0121   18.0903 N   0  0  0  0  0  0  0  0  0  0  0  0
   10.4761  -17.2946   19.1666 C   0  0  0  0  0  0  0  0  0  0  0  0
   11.4188  -16.4429   19.1766 O   0  0  0  0  0  0  0  0  0  0  0  0
    6.8517  -13.9934   15.6185 N   0  0  0  0  0  0  0  0  0  0  0  0
    9.7109  -17.4365   20.3466 C   0  0  1  0  0  0  0  0  0  0  0  0
   10.0720  -16.6137   21.5722 C   0  0  0  0  0  0  0  0  0  0  0  0
    8.8207  -15.8903   21.8533 C   0  0  0  0  0  0  0  0  0  0  0  0
    8.5752  -14.5929   21.2128 C   0  0  0  0  0  0  0  0  0  0  0  0
    9.3146  -13.8393   20.3473 N   0  0  0  0  0  0  0  0  0  0  0  0
    8.6481  -12.7225   19.9451 C   0  0  0  0  0  0  0  0  0  0  0  0
    7.4772  -12.8026   20.5809 N   0  0  0  0  0  0  0  0  0  0  0  0
    7.3921  -13.8842   21.3346 C   0  0  0  0  0  0  0  0  0  0  0  0
   10.4385  -17.6644   22.5709 O   0  0  0  0  0  0  0  0  0  0  0  0
    9.6053  -18.6462   22.6548 O   0  0  0  0  0  0  0  0  0  0  0  0
   13.9253  -18.1577   24.6273 C   0  0  0  0  0  0  0  0  0  0  0  0
   13.1832  -19.2901   24.3272 C   0  0  1  0  0  0  0  0  0  0  0  0
   11.7146  -18.8699   24.3023 N   0  0  0  0  0  0  0  0  0  0  0  0
   11.5298  -17.7366   23.4054 C   0  0  0  0  0  0  0  0  0  0  0  0
   11.2413  -18.5574   25.6679 O   0  0  0  0  0  0  0  0  0  0  0  0
   11.2369  -19.4309   26.5673 O   0  0  0  0  0  0  0  0  0  0  0  0
  2  3  2  0
  2  1  1  0
  4  2  1  0
  5  4  1  0
  6  5  1  0
  7  6  1  0
  7  8  1  0
  8  9  1  1
 10  8  1  0
 10 11  2  0
 12 10  1  0
 13 12  1  0
 13 14  1  6
 15 14  1  0
 15 16  2  0
 17 16  1  0
 18 17  1  0
 19 18  2  0
 19 15  1  0
 20 13  1  0
 21 20  2  0
 23 22  1  0
 24 23  1  6
 24 26  1  0
 24 25  1  0
 25 20  1  0
 26 28  1  0
 27 26  2  0
M  END
$$$$
