RHS.pdb
     RDKit          3D

 28 28  0  0  1  0  0  0  0  0999 V2000
    8.0116  -16.0955   13.7044 N   0  0  0  0  0  0  0  0  0  0  0  0
    8.4207  -14.7834   13.3533 C   0  0  0  0  0  0  0  0  0  0  0  0
    8.6890  -14.4940   12.1453 N   0  0  0  0  0  0  0  0  0  0  0  0
    8.5416  -13.7508   14.3438 N   0  0  0  0  0  0  0  0  0  0  0  0
    8.1474  -13.9253   15.6927 C   0  0  0  0  0  0  0  0  0  0  0  0
    8.6539  -15.1310   16.4034 C   0  0  0  0  0  0  0  0  0  0  0  0
    9.3253  -14.7570   17.6922 C   0  0  0  0  0  0  0  0  0  0  0  0
   10.0839  -15.9542   18.2850 C   0  0  2  0  0  0  0  0  0  0  0  0
    9.4220  -17.1938   18.0520 N   0  0  0  0  0  0  0  0  0  0  0  0
   10.4200  -15.7265   19.7099 C   0  0  0  0  0  0  0  0  0  0  0  0
   11.1826  -14.7632   20.0332 O   0  0  0  0  0  0  0  0  0  0  0  0
    8.9377  -13.5197   11.8824 N   0  0  0  0  0  0  0  0  0  0  0  0
    9.9251  -16.5458   20.7499 C   0  0  1  0  0  0  0  0  0  0  0  0
   10.3255  -16.2502   22.1858 C   0  0  0  0  0  0  0  0  0  0  0  0
    9.0299  -15.9797   22.8312 C   0  0  0  0  0  0  0  0  0  0  0  0
    8.2523  -14.8022   22.4280 C   0  0  0  0  0  0  0  0  0  0  0  0
    8.4710  -13.8305   21.4945 N   0  0  0  0  0  0  0  0  0  0  0  0
    7.4263  -12.9621   21.4071 C   0  0  0  0  0  0  0  0  0  0  0  0
    6.5541  -13.4197   22.3080 N   0  0  0  0  0  0  0  0  0  0  0  0
    6.9981  -14.4976   22.9292 C   0  0  0  0  0  0  0  0  0  0  0  0
   10.9925  -17.5213   22.6042 O   0  0  0  0  0  0  0  0  0  0  0  0
   11.4699  -18.2269   21.6349 O   0  0  0  0  0  0  0  0  0  0  0  0
   14.7255  -18.7057   24.2269 C   0  0  0  0  0  0  0  0  0  0  0  0
   13.6184  -17.9329   23.9104 C   0  0  2  0  0  0  0  0  0  0  0  0
   12.3816  -18.7798   24.2060 N   0  0  0  0  0  0  0  0  0  0  0  0
   11.1724  -18.0420   23.8647 C   0  0  0  0  0  0  0  0  0  0  0  0
   12.3704  -19.2047   25.6223 O   0  0  0  0  0  0  0  0  0  0  0  0
   11.6445  -18.6272   26.4658 O   0  0  0  0  0  0  0  0  0  0  0  0
  2  3  2  0
  2  1  1  0
  4  2  1  0
  5  4  1  0
  6  5  1  0
  7  6  1  0
  7  8  1  0
  8  9  1  1
 10  8  1  0
 10 11  2  0
 12 10  1  0
 13 12  1  0
 13 14  1  1
 15 14  1  0
 15 16  2  0
 17 16  1  0
 18 17  1  0
 19 18  2  0
 19 15  1  0
 20 13  1  0
 21 20  2  0
 23 22  1  0
 24 23  1  6
 24 26  1  0
 24 25  1  0
 25 20  1  0
 26 28  1  0
 27 26  2  0
M  END
$$$$
