RHS.pdb
     RDKit          3D

 28 28  0  0  1  0  0  0  0  0999 V2000
    7.9704  -12.3410   17.6485 N   0  0  0  0  0  0  0  0  0  0  0  0
    8.2623  -13.7163   17.4599 C   0  0  0  0  0  0  0  0  0  0  0  0
    7.5346  -14.4311   16.7019 N   0  0  0  0  0  0  0  0  0  0  0  0
    9.3804  -14.3369   18.1133 N   0  0  0  0  0  0  0  0  0  0  0  0
    9.6737  -15.7173   17.9963 C   0  0  0  0  0  0  0  0  0  0  0  0
    9.5026  -16.5590   19.2119 C   0  0  0  0  0  0  0  0  0  0  0  0
   10.4110  -16.1047   20.3165 C   0  0  0  0  0  0  0  0  0  0  0  0
   10.2561  -16.9964   21.5578 C   0  0  2  0  0  0  0  0  0  0  0  0
    9.1590  -17.8987   21.4526 N   0  0  0  0  0  0  0  0  0  0  0  0
   10.2366  -16.1903   22.8007 C   0  0  0  0  0  0  0  0  0  0  0  0
   11.1805  -15.3741   23.0395 O   0  0  0  0  0  0  0  0  0  0  0  0
    7.7689  -15.4308   16.5408 N   0  0  0  0  0  0  0  0  0  0  0  0
    9.1988  -16.2867   23.7554 C   0  0  1  0  0  0  0  0  0  0  0  0
    9.1887  -15.3389   24.9433 C   0  0  0  0  0  0  0  0  0  0  0  0
    7.7523  -15.2138   25.2420 C   0  0  0  0  0  0  0  0  0  0  0  0
    7.2550  -14.0069   25.9128 C   0  0  0  0  0  0  0  0  0  0  0  0
    7.8777  -12.8718   26.3456 N   0  0  0  0  0  0  0  0  0  0  0  0
    6.9954  -11.9661   26.8498 C   0  0  0  0  0  0  0  0  0  0  0  0
    5.8105  -12.5664   26.7178 N   0  0  0  0  0  0  0  0  0  0  0  0
    5.9167  -13.7647   26.1722 C   0  0  0  0  0  0  0  0  0  0  0  0
    9.9882  -16.0873   25.9614 O   0  0  0  0  0  0  0  0  0  0  0  0
   10.2196  -17.3223   25.6674 O   0  0  0  0  0  0  0  0  0  0  0  0
   11.0720  -14.7146   29.4725 C   0  0  0  0  0  0  0  0  0  0  0  0
   11.8991  -15.7858   29.1700 C   0  0  1  0  0  0  0  0  0  0  0  0
   11.2298  -16.5630   28.0377 N   0  0  0  0  0  0  0  0  0  0  0  0
   10.5119  -15.6514   27.1565 C   0  0  0  0  0  0  0  0  0  0  0  0
   10.3312  -17.6030   28.5830 O   0  0  0  0  0  0  0  0  0  0  0  0
    9.0974  -17.5737   28.3615 O   0  0  0  0  0  0  0  0  0  0  0  0
  2  3  2  0
  2  1  1  0
  4  2  1  0
  5  4  1  0
  6  5  1  0
  7  6  1  0
  7  8  1  0
  8  9  1  6
 10  8  1  0
 10 11  2  0
 12 10  1  0
 13 12  1  0
 13 14  1  6
 15 14  1  0
 15 16  2  0
 17 16  1  0
 18 17  1  0
 19 18  2  0
 19 15  1  0
 20 13  1  0
 21 20  2  0
 23 22  1  0
 24 23  1  6
 24 26  1  0
 24 25  1  0
 25 20  1  0
 26 28  1  0
 27 26  2  0
M  END
$$$$
