RHS.pdb
     RDKit          3D

 28 28  0  0  1  0  0  0  0  0999 V2000
    7.5727  -15.3483   23.2016 N   0  0  0  0  0  0  0  0  0  0  0  0
    7.1244  -14.8745   21.9420 C   0  0  0  0  0  0  0  0  0  0  0  0
    6.7137  -15.6885   21.0567 N   0  0  0  0  0  0  0  0  0  0  0  0
    7.1198  -13.4723   21.6322 N   0  0  0  0  0  0  0  0  0  0  0  0
    7.7871  -12.9281   20.5080 C   0  0  0  0  0  0  0  0  0  0  0  0
    8.4574  -13.8815   19.5821 C   0  0  0  0  0  0  0  0  0  0  0  0
    9.0449  -13.1660   18.4012 C   0  0  0  0  0  0  0  0  0  0  0  0
    9.6210  -14.1634   17.3846 C   0  0  2  0  0  0  0  0  0  0  0  0
    8.6498  -15.0951   16.9182 N   0  0  0  0  0  0  0  0  0  0  0  0
   10.8522  -14.8067   17.8999 C   0  0  0  0  0  0  0  0  0  0  0  0
   10.8176  -16.0148   18.2913 O   0  0  0  0  0  0  0  0  0  0  0  0
    6.5012  -15.3545   20.0957 N   0  0  0  0  0  0  0  0  0  0  0  0
   12.0897  -14.1286   17.9808 C   0  0  1  0  0  0  0  0  0  0  0  0
   13.3469  -14.9108   18.3232 C   0  0  0  0  0  0  0  0  0  0  0  0
   14.3954  -14.1608   17.6115 C   0  0  0  0  0  0  0  0  0  0  0  0
   15.8001  -14.5561   17.7671 C   0  0  0  0  0  0  0  0  0  0  0  0
   16.9686  -13.8559   17.6775 N   0  0  0  0  0  0  0  0  0  0  0  0
   18.0497  -14.6259   17.9798 C   0  0  0  0  0  0  0  0  0  0  0  0
   17.5232  -15.8200   18.2604 N   0  0  0  0  0  0  0  0  0  0  0  0
   16.2070  -15.8234   18.1485 C   0  0  0  0  0  0  0  0  0  0  0  0
   13.3937  -14.8119   19.8144 O   0  0  0  0  0  0  0  0  0  0  0  0
   13.2461  -13.6186   20.2830 O   0  0  0  0  0  0  0  0  0  0  0  0
   12.2482  -17.1977   22.4867 C   0  0  0  0  0  0  0  0  0  0  0  0
   12.6524  -15.9819   23.0172 C   0  0  1  0  0  0  0  0  0  0  0  0
   13.8062  -15.4770   22.1524 N   0  0  0  0  0  0  0  0  0  0  0  0
   13.5669  -15.8029   20.7526 C   0  0  0  0  0  0  0  0  0  0  0  0
   15.0910  -16.0380   22.6229 O   0  0  0  0  0  0  0  0  0  0  0  0
   15.7858  -16.7740   21.8831 O   0  0  0  0  0  0  0  0  0  0  0  0
  2  3  2  0
  2  1  1  0
  4  2  1  0
  5  4  1  0
  6  5  1  0
  7  6  1  0
  7  8  1  0
  8  9  1  1
 10  8  1  0
 10 11  2  0
 12 10  1  0
 13 12  1  0
 13 14  1  1
 15 14  1  0
 15 16  2  0
 17 16  1  0
 18 17  1  0
 19 18  2  0
 19 15  1  0
 20 13  1  0
 21 20  2  0
 23 22  1  0
 24 23  1  6
 24 26  1  0
 24 25  1  0
 25 20  1  0
 26 28  1  0
 27 26  2  0
M  END
$$$$
