RHS.pdb
     RDKit          3D

 28 28  0  0  1  0  0  0  0  0999 V2000
    6.8786  -13.3361   13.9718 N   0  0  0  0  0  0  0  0  0  0  0  0
    8.0810  -13.6972   13.3116 C   0  0  0  0  0  0  0  0  0  0  0  0
    8.2125  -13.5055   12.0623 N   0  0  0  0  0  0  0  0  0  0  0  0
    9.1775  -14.2844   14.0295 N   0  0  0  0  0  0  0  0  0  0  0  0
    9.0404  -14.8490   15.3209 C   0  0  0  0  0  0  0  0  0  0  0  0
    8.0534  -15.9509   15.4850 C   0  0  0  0  0  0  0  0  0  0  0  0
    8.1341  -16.5492   16.8589 C   0  0  0  0  0  0  0  0  0  0  0  0
    9.2822  -15.9229   17.6649 C   0  0  2  0  0  0  0  0  0  0  0  0
   10.5428  -16.0482   17.0137 N   0  0  0  0  0  0  0  0  0  0  0  0
    9.2911  -16.4165   19.0618 C   0  0  0  0  0  0  0  0  0  0  0  0
    8.2088  -16.4524   19.7262 O   0  0  0  0  0  0  0  0  0  0  0  0
    9.0849  -13.7940   11.5766 N   0  0  0  0  0  0  0  0  0  0  0  0
   10.4689  -16.8578   19.7067 C   0  0  1  0  0  0  0  0  0  0  0  0
   10.3662  -17.5383   21.0617 C   0  0  0  0  0  0  0  0  0  0  0  0
   11.6137  -18.3180   21.1247 C   0  0  0  0  0  0  0  0  0  0  0  0
   11.9554  -19.0385   22.3567 C   0  0  0  0  0  0  0  0  0  0  0  0
   11.3154  -19.1661   23.5558 N   0  0  0  0  0  0  0  0  0  0  0  0
   11.9729  -20.0094   24.3982 C   0  0  0  0  0  0  0  0  0  0  0  0
   13.0352  -20.4027   23.6920 N   0  0  0  0  0  0  0  0  0  0  0  0
   13.0637  -19.8577   22.4890 C   0  0  0  0  0  0  0  0  0  0  0  0
   10.2919  -16.3781   22.0019 O   0  0  0  0  0  0  0  0  0  0  0  0
   11.1797  -15.4627   21.8039 O   0  0  0  0  0  0  0  0  0  0  0  0
    7.2738  -14.8747   24.2437 C   0  0  0  0  0  0  0  0  0  0  0  0
    8.3633  -14.0999   23.8752 C   0  0  1  0  0  0  0  0  0  0  0  0
    9.5939  -15.0039   23.9263 N   0  0  0  0  0  0  0  0  0  0  0  0
    9.4177  -16.1456   23.0384 C   0  0  0  0  0  0  0  0  0  0  0  0
    9.8608  -15.4385   25.3143 O   0  0  0  0  0  0  0  0  0  0  0  0
    9.7112  -16.6349   25.6583 O   0  0  0  0  0  0  0  0  0  0  0  0
  2  3  2  0
  2  1  1  0
  4  2  1  0
  5  4  1  0
  6  5  1  0
  7  6  1  0
  7  8  1  0
  8  9  1  6
 10  8  1  0
 10 11  2  0
 12 10  1  0
 13 12  1  0
 13 14  1  6
 15 14  1  0
 15 16  2  0
 17 16  1  0
 18 17  1  0
 19 18  2  0
 19 15  1  0
 20 13  1  0
 21 20  2  0
 23 22  1  0
 24 23  1  6
 24 26  1  0
 24 25  1  0
 25 20  1  0
 26 28  1  0
 27 26  2  0
M  END
$$$$
