RHS.pdb
     RDKit          3D

 28 28  0  0  1  0  0  0  0  0999 V2000
   16.6205  -16.0698   19.7270 N   0  0  0  0  0  0  0  0  0  0  0  0
   16.0176  -14.8885   19.2239 C   0  0  0  0  0  0  0  0  0  0  0  0
   16.7323  -13.9595   18.7329 N   0  0  0  0  0  0  0  0  0  0  0  0
   14.5931  -14.7088   19.2527 N   0  0  0  0  0  0  0  0  0  0  0  0
   13.7013  -15.6904   19.7492 C   0  0  0  0  0  0  0  0  0  0  0  0
   12.2478  -15.3710   19.7223 C   0  0  0  0  0  0  0  0  0  0  0  0
   11.4291  -16.5367   20.1942 C   0  0  0  0  0  0  0  0  0  0  0  0
    9.9448  -16.1569   20.3061 C   0  0  2  0  0  0  0  0  0  0  0  0
    9.3864  -15.7501   19.0605 N   0  0  0  0  0  0  0  0  0  0  0  0
    9.7197  -15.1805   21.3976 C   0  0  0  0  0  0  0  0  0  0  0  0
    9.9743  -13.9504   21.2075 O   0  0  0  0  0  0  0  0  0  0  0  0
   16.2928  -13.0743   18.4110 N   0  0  0  0  0  0  0  0  0  0  0  0
    9.2266  -15.5573   22.6675 C   0  0  1  0  0  0  0  0  0  0  0  0
    9.0622  -14.5000   23.7467 C   0  0  0  0  0  0  0  0  0  0  0  0
    7.6005  -14.4349   23.9124 C   0  0  0  0  0  0  0  0  0  0  0  0
    7.0266  -13.5516   24.9342 C   0  0  0  0  0  0  0  0  0  0  0  0
    6.7488  -12.2151   24.9445 N   0  0  0  0  0  0  0  0  0  0  0  0
    6.1373  -11.8296   26.0980 C   0  0  0  0  0  0  0  0  0  0  0  0
    6.0415  -12.9596   26.8020 N   0  0  0  0  0  0  0  0  0  0  0  0
    6.5502  -13.9939   26.1566 C   0  0  0  0  0  0  0  0  0  0  0  0
    9.8080  -15.0942   24.8983 O   0  0  0  0  0  0  0  0  0  0  0  0
   10.2720  -16.2801   24.6892 O   0  0  0  0  0  0  0  0  0  0  0  0
   10.5305  -13.1971   28.1095 C   0  0  0  0  0  0  0  0  0  0  0  0
   11.0916  -14.4399   28.3621 C   0  0  2  0  0  0  0  0  0  0  0  0
   10.8630  -15.2961   27.1176 N   0  0  0  0  0  0  0  0  0  0  0  0
   10.0719  -14.5617   26.1390 C   0  0  0  0  0  0  0  0  0  0  0  0
   10.2169  -16.5758   27.4800 O   0  0  0  0  0  0  0  0  0  0  0  0
    9.1008  -16.8946   27.0061 O   0  0  0  0  0  0  0  0  0  0  0  0
  2  3  2  0
  2  1  1  0
  4  2  1  0
  5  4  1  0
  6  5  1  0
  7  6  1  0
  7  8  1  0
  8  9  1  6
 10  8  1  0
 10 11  2  0
 12 10  1  0
 13 12  1  0
 13 14  1  1
 15 14  1  0
 15 16  2  0
 17 16  1  0
 18 17  1  0
 19 18  2  0
 19 15  1  0
 20 13  1  0
 21 20  2  0
 23 22  1  0
 24 23  1  6
 24 26  1  0
 24 25  1  0
 25 20  1  0
 26 28  1  0
 27 26  2  0
M  END
$$$$
