RHS.pdb
     RDKit          3D

 28 28  0  0  1  0  0  0  0  0999 V2000
    7.4907  -12.9389   16.1385 N   0  0  0  0  0  0  0  0  0  0  0  0
    8.2091  -14.1464   16.3328 C   0  0  0  0  0  0  0  0  0  0  0  0
    8.1535  -15.0753   15.4673 N   0  0  0  0  0  0  0  0  0  0  0  0
    9.0154  -14.3535   17.5029 N   0  0  0  0  0  0  0  0  0  0  0  0
    8.8213  -13.6392   18.7102 C   0  0  0  0  0  0  0  0  0  0  0  0
    7.5127  -13.8035   19.4000 C   0  0  0  0  0  0  0  0  0  0  0  0
    7.6915  -13.8799   20.8880 C   0  0  0  0  0  0  0  0  0  0  0  0
    8.3268  -15.2172   21.2977 C   0  0  2  0  0  0  0  0  0  0  0  0
    7.4981  -16.3351   20.9936 N   0  0  0  0  0  0  0  0  0  0  0  0
    8.7798  -15.1882   22.7081 C   0  0  0  0  0  0  0  0  0  0  0  0
    9.4907  -14.2208   23.1238 O   0  0  0  0  0  0  0  0  0  0  0  0
    8.7379  -15.9280   15.5752 N   0  0  0  0  0  0  0  0  0  0  0  0
    8.4549  -16.2056   23.6339 C   0  0  1  0  0  0  0  0  0  0  0  0
    8.8398  -16.0348   25.0941 C   0  0  0  0  0  0  0  0  0  0  0  0
    7.5616  -15.6591   25.7213 C   0  0  0  0  0  0  0  0  0  0  0  0
    7.2956  -14.2503   26.0347 C   0  0  0  0  0  0  0  0  0  0  0  0
    8.0313  -13.1138   25.8594 N   0  0  0  0  0  0  0  0  0  0  0  0
    7.3448  -11.9988   26.2318 C   0  0  0  0  0  0  0  0  0  0  0  0
    6.1653  -12.4713   26.6408 N   0  0  0  0  0  0  0  0  0  0  0  0
    6.0936  -13.7866   26.5416 C   0  0  0  0  0  0  0  0  0  0  0  0
    9.3516  -17.3925   25.4550 O   0  0  0  0  0  0  0  0  0  0  0  0
    8.5554  -18.3660   25.1659 O   0  0  0  0  0  0  0  0  0  0  0  0
   13.1118  -18.6926   26.1370 C   0  0  0  0  0  0  0  0  0  0  0  0
   12.1324  -19.5877   25.7336 C   0  0  1  0  0  0  0  0  0  0  0  0
   10.8229  -19.1409   26.3813 N   0  0  0  0  0  0  0  0  0  0  0  0
   10.5420  -17.7516   26.0437 C   0  0  0  0  0  0  0  0  0  0  0  0
   10.8748  -19.3383   27.8458 O   0  0  0  0  0  0  0  0  0  0  0  0
   10.7217  -18.3760   28.6347 O   0  0  0  0  0  0  0  0  0  0  0  0
  2  3  2  0
  2  1  1  0
  4  2  1  0
  5  4  1  0
  6  5  1  0
  7  6  1  0
  7  8  1  0
  8  9  1  1
 10  8  1  0
 10 11  2  0
 12 10  1  0
 13 12  1  0
 13 14  1  1
 15 14  1  0
 15 16  2  0
 17 16  1  0
 18 17  1  0
 19 18  2  0
 19 15  1  0
 20 13  1  0
 21 20  2  0
 23 22  1  0
 24 23  1  6
 24 26  1  0
 24 25  1  0
 25 20  1  0
 26 28  1  0
 27 26  2  0
M  END
$$$$
