RHS.pdb
     RDKit          3D

 28 28  0  0  1  0  0  0  0  0999 V2000
    9.2872  -23.0787   16.6735 N   0  0  0  0  0  0  0  0  0  0  0  0
   10.6481  -23.0047   16.2804 C   0  0  0  0  0  0  0  0  0  0  0  0
   11.0407  -23.5657   15.2099 N   0  0  0  0  0  0  0  0  0  0  0  0
   11.6150  -22.2982   17.0730 N   0  0  0  0  0  0  0  0  0  0  0  0
   11.2569  -21.4035   18.1107 C   0  0  0  0  0  0  0  0  0  0  0  0
   10.1512  -20.4455   17.8372 C   0  0  0  0  0  0  0  0  0  0  0  0
    9.8288  -19.6298   19.0548 C   0  0  0  0  0  0  0  0  0  0  0  0
    9.7235  -18.1376   18.7051 C   0  0  2  0  0  0  0  0  0  0  0  0
   10.4440  -17.7979   17.5243 N   0  0  0  0  0  0  0  0  0  0  0  0
   10.0672  -17.2865   19.8682 C   0  0  0  0  0  0  0  0  0  0  0  0
   11.2387  -16.8070   19.9762 O   0  0  0  0  0  0  0  0  0  0  0  0
   12.0360  -23.4993   14.9177 N   0  0  0  0  0  0  0  0  0  0  0  0
    9.1373  -16.9757   20.8863 C   0  0  1  0  0  0  0  0  0  0  0  0
    9.5195  -15.9752   21.9644 C   0  0  0  0  0  0  0  0  0  0  0  0
    8.3436  -15.0902   22.0126 C   0  0  0  0  0  0  0  0  0  0  0  0
    8.0874  -14.1659   20.9020 C   0  0  0  0  0  0  0  0  0  0  0  0
    7.0303  -14.0209   20.0505 N   0  0  0  0  0  0  0  0  0  0  0  0
    7.1929  -12.9621   19.2104 C   0  0  0  0  0  0  0  0  0  0  0  0
    8.3755  -12.4533   19.5626 N   0  0  0  0  0  0  0  0  0  0  0  0
    8.9343  -13.1283   20.5511 C   0  0  0  0  0  0  0  0  0  0  0  0
    9.7096  -16.8480   23.1635 O   0  0  0  0  0  0  0  0  0  0  0  0
    8.6886  -17.5743   23.4720 O   0  0  0  0  0  0  0  0  0  0  0  0
   13.1209  -18.1780   24.6842 C   0  0  0  0  0  0  0  0  0  0  0  0
   11.9790  -18.9366   24.8935 C   0  0  1  0  0  0  0  0  0  0  0  0
   10.8172  -17.9596   25.0652 N   0  0  0  0  0  0  0  0  0  0  0  0
   10.8092  -16.9899   23.9778 C   0  0  0  0  0  0  0  0  0  0  0  0
   10.8926  -17.2903   26.3817 O   0  0  0  0  0  0  0  0  0  0  0  0
   10.9888  -16.0434   26.4696 O   0  0  0  0  0  0  0  0  0  0  0  0
  2  3  2  0
  2  1  1  0
  4  2  1  0
  5  4  1  0
  6  5  1  0
  7  6  1  0
  7  8  1  0
  8  9  1  6
 10  8  1  0
 10 11  2  0
 12 10  1  0
 13 12  1  0
 13 14  1  1
 15 14  1  0
 15 16  2  0
 17 16  1  0
 18 17  1  0
 19 18  2  0
 19 15  1  0
 20 13  1  0
 21 20  2  0
 23 22  1  0
 24 23  1  6
 24 26  1  0
 24 25  1  0
 25 20  1  0
 26 28  1  0
 27 26  2  0
M  END
$$$$
