RHS.pdb
     RDKit          3D

 28 28  0  0  1  0  0  0  0  0999 V2000
    7.3357  -13.1680   18.1789 N   0  0  0  0  0  0  0  0  0  0  0  0
    7.8660  -13.7332   16.9909 C   0  0  0  0  0  0  0  0  0  0  0  0
    7.2910  -13.5414   15.8740 N   0  0  0  0  0  0  0  0  0  0  0  0
    9.0595  -14.5315   17.0141 N   0  0  0  0  0  0  0  0  0  0  0  0
    9.3077  -15.5202   17.9971 C   0  0  0  0  0  0  0  0  0  0  0  0
    8.4338  -15.5220   19.2020 C   0  0  0  0  0  0  0  0  0  0  0  0
    9.2432  -15.3787   20.4574 C   0  0  0  0  0  0  0  0  0  0  0  0
    9.1027  -16.6228   21.3476 C   0  0  2  0  0  0  0  0  0  0  0  0
    7.8631  -17.2979   21.1564 N   0  0  0  0  0  0  0  0  0  0  0  0
    9.3851  -16.3041   22.7667 C   0  0  0  0  0  0  0  0  0  0  0  0
   10.4108  -15.6176   23.0681 O   0  0  0  0  0  0  0  0  0  0  0  0
    7.7293  -13.8786   14.9940 N   0  0  0  0  0  0  0  0  0  0  0  0
    8.5535  -16.7358   23.8249 C   0  0  1  0  0  0  0  0  0  0  0  0
    8.8903  -16.3303   25.2502 C   0  0  0  0  0  0  0  0  0  0  0  0
    7.6012  -15.8277   25.7541 C   0  0  0  0  0  0  0  0  0  0  0  0
    7.2467  -14.4175   25.5556 C   0  0  0  0  0  0  0  0  0  0  0  0
    7.9010  -13.3795   24.9572 N   0  0  0  0  0  0  0  0  0  0  0  0
    7.1479  -12.2458   24.9355 C   0  0  0  0  0  0  0  0  0  0  0  0
    6.0102  -12.6063   25.5335 N   0  0  0  0  0  0  0  0  0  0  0  0
    6.0253  -13.8716   25.9124 C   0  0  0  0  0  0  0  0  0  0  0  0
    9.3512  -17.6186   25.8530 O   0  0  0  0  0  0  0  0  0  0  0  0
    8.5082  -18.5915   25.7621 O   0  0  0  0  0  0  0  0  0  0  0  0
   12.9590  -19.0410   26.2253 C   0  0  0  0  0  0  0  0  0  0  0  0
   11.9053  -19.9389   26.3070 C   0  0  1  0  0  0  0  0  0  0  0  0
   10.7737  -19.2351   27.0541 N   0  0  0  0  0  0  0  0  0  0  0  0
   10.5373  -17.9155   26.4835 C   0  0  0  0  0  0  0  0  0  0  0  0
   11.0803  -19.1493   28.4981 O   0  0  0  0  0  0  0  0  0  0  0  0
   11.2099  -18.0399   29.0678 O   0  0  0  0  0  0  0  0  0  0  0  0
  2  3  2  0
  2  1  1  0
  4  2  1  0
  5  4  1  0
  6  5  1  0
  7  6  1  0
  7  8  1  0
  8  9  1  1
 10  8  1  0
 10 11  2  0
 12 10  1  0
 13 12  1  0
 13 14  1  1
 15 14  1  0
 15 16  2  0
 17 16  1  0
 18 17  1  0
 19 18  2  0
 19 15  1  0
 20 13  1  0
 21 20  2  0
 23 22  1  0
 24 23  1  6
 24 26  1  0
 24 25  1  0
 25 20  1  0
 26 28  1  0
 27 26  2  0
M  END
$$$$
