RHS.pdb
     RDKit          3D

 28 28  0  0  1  0  0  0  0  0999 V2000
    9.2278  -12.8153   17.9631 N   0  0  0  0  0  0  0  0  0  0  0  0
    8.5904  -12.3873   19.1559 C   0  0  0  0  0  0  0  0  0  0  0  0
    8.9226  -11.2909   19.7059 N   0  0  0  0  0  0  0  0  0  0  0  0
    7.5582  -13.1728   19.7720 N   0  0  0  0  0  0  0  0  0  0  0  0
    7.1789  -14.4538   19.3022 C   0  0  0  0  0  0  0  0  0  0  0  0
    7.3235  -15.5983   20.2428 C   0  0  0  0  0  0  0  0  0  0  0  0
    8.7448  -16.0764   20.2984 C   0  0  0  0  0  0  0  0  0  0  0  0
    8.8862  -17.2714   21.2533 C   0  0  2  0  0  0  0  0  0  0  0  0
    7.7385  -18.1150   21.2513 N   0  0  0  0  0  0  0  0  0  0  0  0
    9.2898  -16.8320   22.6095 C   0  0  0  0  0  0  0  0  0  0  0  0
   10.3165  -16.0983   22.7566 O   0  0  0  0  0  0  0  0  0  0  0  0
    8.5577  -11.0451   20.6476 N   0  0  0  0  0  0  0  0  0  0  0  0
    8.5751  -17.1970   23.7731 C   0  0  1  0  0  0  0  0  0  0  0  0
    8.9925  -16.6200   25.1156 C   0  0  0  0  0  0  0  0  0  0  0  0
    7.7112  -16.1682   25.6832 C   0  0  0  0  0  0  0  0  0  0  0  0
    7.2592  -14.7924   25.4455 C   0  0  0  0  0  0  0  0  0  0  0  0
    7.7710  -13.7720   24.6970 N   0  0  0  0  0  0  0  0  0  0  0  0
    6.9631  -12.6764   24.7069 C   0  0  0  0  0  0  0  0  0  0  0  0
    5.9373  -13.0427   25.4785 N   0  0  0  0  0  0  0  0  0  0  0  0
    6.0702  -14.2762   25.9322 C   0  0  0  0  0  0  0  0  0  0  0  0
    9.6106  -17.7988   25.7966 O   0  0  0  0  0  0  0  0  0  0  0  0
    8.8505  -18.8387   25.8757 O   0  0  0  0  0  0  0  0  0  0  0  0
   13.4511  -18.7969   26.2679 C   0  0  0  0  0  0  0  0  0  0  0  0
   12.4751  -19.7803   26.3258 C   0  0  1  0  0  0  0  0  0  0  0  0
   11.2598  -19.1654   27.0180 N   0  0  0  0  0  0  0  0  0  0  0  0
   10.8652  -17.9352   26.3444 C   0  0  0  0  0  0  0  0  0  0  0  0
   11.5437  -18.9272   28.4495 O   0  0  0  0  0  0  0  0  0  0  0  0
   11.8029  -19.8776   29.2251 O   0  0  0  0  0  0  0  0  0  0  0  0
  2  3  2  0
  2  1  1  0
  4  2  1  0
  5  4  1  0
  6  5  1  0
  7  6  1  0
  7  8  1  0
  8  9  1  1
 10  8  1  0
 10 11  2  0
 12 10  1  0
 13 12  1  0
 13 14  1  1
 15 14  1  0
 15 16  2  0
 17 16  1  0
 18 17  1  0
 19 18  2  0
 19 15  1  0
 20 13  1  0
 21 20  2  0
 23 22  1  0
 24 23  1  6
 24 26  1  0
 24 25  1  0
 25 20  1  0
 26 28  1  0
 27 26  2  0
M  END
$$$$
