RHS.pdb
     RDKit          3D

 28 28  0  0  1  0  0  0  0  0999 V2000
   14.9740  -20.6340   11.6663 N   0  0  0  0  0  0  0  0  0  0  0  0
   16.1177  -20.0579   12.2764 C   0  0  0  0  0  0  0  0  0  0  0  0
   17.2158  -19.9800   11.6417 N   0  0  0  0  0  0  0  0  0  0  0  0
   16.0692  -19.5485   13.6182 N   0  0  0  0  0  0  0  0  0  0  0  0
   14.8997  -19.5854   14.4159 C   0  0  0  0  0  0  0  0  0  0  0  0
   13.7414  -18.7632   13.9711 C   0  0  0  0  0  0  0  0  0  0  0  0
   13.6672  -17.4746   14.7364 C   0  0  0  0  0  0  0  0  0  0  0  0
   12.4218  -16.6687   14.3372 C   0  0  2  0  0  0  0  0  0  0  0  0
   12.5092  -16.1403   13.0173 N   0  0  0  0  0  0  0  0  0  0  0  0
   12.0915  -15.6471   15.3582 C   0  0  0  0  0  0  0  0  0  0  0  0
   12.6528  -14.5081   15.3172 O   0  0  0  0  0  0  0  0  0  0  0  0
   18.0446  -19.5323   12.0809 N   0  0  0  0  0  0  0  0  0  0  0  0
   11.1643  -15.8818   16.3989 C   0  0  1  0  0  0  0  0  0  0  0  0
   10.8860  -14.7826   17.4107 C   0  0  0  0  0  0  0  0  0  0  0  0
    9.4152  -14.7122   17.4120 C   0  0  0  0  0  0  0  0  0  0  0  0
    8.7288  -13.9333   18.4492 C   0  0  0  0  0  0  0  0  0  0  0  0
    9.1895  -13.1558   19.4724 N   0  0  0  0  0  0  0  0  0  0  0  0
    8.1759  -12.5496   20.1493 C   0  0  0  0  0  0  0  0  0  0  0  0
    7.0758  -12.9689   19.5204 N   0  0  0  0  0  0  0  0  0  0  0  0
    7.3542  -13.7815   18.5168 C   0  0  0  0  0  0  0  0  0  0  0  0
   11.4987  -15.3299   18.6600 O   0  0  0  0  0  0  0  0  0  0  0  0
   11.4956  -16.6175   18.7458 O   0  0  0  0  0  0  0  0  0  0  0  0
   14.7751  -14.8831   20.1049 C   0  0  0  0  0  0  0  0  0  0  0  0
   13.9798  -14.8251   21.2394 C   0  0  2  0  0  0  0  0  0  0  0  0
   12.6134  -15.3925   20.8583 N   0  0  0  0  0  0  0  0  0  0  0  0
   12.0642  -14.6637   19.7225 C   0  0  0  0  0  0  0  0  0  0  0  0
   11.6948  -15.3547   22.0164 O   0  0  0  0  0  0  0  0  0  0  0  0
   10.6522  -14.6586   21.9935 O   0  0  0  0  0  0  0  0  0  0  0  0
  2  3  2  0
  2  1  1  0
  4  2  1  0
  5  4  1  0
  6  5  1  0
  7  6  1  0
  7  8  1  0
  8  9  1  6
 10  8  1  0
 10 11  2  0
 12 10  1  0
 13 12  1  0
 13 14  1  1
 15 14  1  0
 15 16  2  0
 17 16  1  0
 18 17  1  0
 19 18  2  0
 19 15  1  0
 20 13  1  0
 21 20  2  0
 23 22  1  0
 24 23  1  6
 24 26  1  0
 24 25  1  0
 25 20  1  0
 26 28  1  0
 27 26  2  0
M  END
$$$$
