RHS.pdb
     RDKit          3D

 28 28  0  0  1  0  0  0  0  0999 V2000
    7.7205  -14.7596   16.3324 N   0  0  0  0  0  0  0  0  0  0  0  0
    8.1236  -15.1453   15.0283 C   0  0  0  0  0  0  0  0  0  0  0  0
    7.4094  -14.8498   14.0196 N   0  0  0  0  0  0  0  0  0  0  0  0
    9.3415  -15.8743   14.8101 N   0  0  0  0  0  0  0  0  0  0  0  0
   10.4215  -15.8644   15.7261 C   0  0  0  0  0  0  0  0  0  0  0  0
   11.5915  -16.7299   15.4142 C   0  0  0  0  0  0  0  0  0  0  0  0
   12.6789  -16.5574   16.4338 C   0  0  0  0  0  0  0  0  0  0  0  0
   12.3948  -17.3972   17.6883 C   0  0  2  0  0  0  0  0  0  0  0  0
   11.3087  -18.3013   17.5098 N   0  0  0  0  0  0  0  0  0  0  0  0
   12.2549  -16.5408   18.8892 C   0  0  0  0  0  0  0  0  0  0  0  0
   13.0837  -15.6001   19.0946 O   0  0  0  0  0  0  0  0  0  0  0  0
    7.6329  -15.2455   13.0848 N   0  0  0  0  0  0  0  0  0  0  0  0
   11.2240  -16.7226   19.8390 C   0  0  1  0  0  0  0  0  0  0  0  0
   11.1032  -15.7524   21.0024 C   0  0  0  0  0  0  0  0  0  0  0  0
    9.6695  -15.4170   20.9933 C   0  0  0  0  0  0  0  0  0  0  0  0
    9.1843  -14.3374   20.1257 C   0  0  0  0  0  0  0  0  0  0  0  0
    9.8258  -13.4716   19.2876 N   0  0  0  0  0  0  0  0  0  0  0  0
    8.9534  -12.6755   18.6106 C   0  0  0  0  0  0  0  0  0  0  0  0
    7.7555  -13.0697   19.0480 N   0  0  0  0  0  0  0  0  0  0  0  0
    7.8446  -14.0425   19.9371 C   0  0  0  0  0  0  0  0  0  0  0  0
   11.5565  -16.5798   22.1624 O   0  0  0  0  0  0  0  0  0  0  0  0
   11.0037  -17.7428   22.2470 O   0  0  0  0  0  0  0  0  0  0  0  0
   14.3435  -15.6754   24.9837 C   0  0  0  0  0  0  0  0  0  0  0  0
   14.2629  -17.0180   24.6460 C   0  0  1  0  0  0  0  0  0  0  0  0
   12.8398  -17.2709   24.1509 N   0  0  0  0  0  0  0  0  0  0  0  0
   12.4737  -16.2836   23.1439 C   0  0  0  0  0  0  0  0  0  0  0  0
   11.8880  -17.2631   25.2825 O   0  0  0  0  0  0  0  0  0  0  0  0
   10.9350  -16.4494   25.3213 O   0  0  0  0  0  0  0  0  0  0  0  0
  2  3  2  0
  2  1  1  0
  4  2  1  0
  5  4  1  0
  6  5  1  0
  7  6  1  0
  7  8  1  0
  8  9  1  6
 10  8  1  0
 10 11  2  0
 12 10  1  0
 13 12  1  0
 13 14  1  6
 15 14  1  0
 15 16  2  0
 17 16  1  0
 18 17  1  0
 19 18  2  0
 19 15  1  0
 20 13  1  0
 21 20  2  0
 23 22  1  0
 24 23  1  6
 24 26  1  0
 24 25  1  0
 25 20  1  0
 26 28  1  0
 27 26  2  0
M  END
$$$$
