CYS.pdb
     RDKit          3D

 25 25  0  0  1  0  0  0  0  0999 V2000
    7.4495  -18.7811   20.8083 N   0  0  0  0  0  0  0  0  0  0  0  0
    8.8448  -18.4958   20.9379 C   0  0  1  0  0  0  0  0  0  0  0  0
    9.4513  -18.1177   19.5943 C   0  0  0  0  0  0  0  0  0  0  0  0
    8.8120  -19.1986   18.2950 S   0  0  0  0  0  0  0  0  0  0  0  0
    9.0664  -17.4274   21.9357 C   0  0  0  0  0  0  0  0  0  0  0  0
   10.2612  -17.0998   22.1836 O   0  0  0  0  0  0  0  0  0  0  0  0
    8.1876  -12.3701   18.0549 O   0  0  0  0  0  0  0  0  0  0  0  0
    7.9789  -12.9112   19.3260 C   0  0  0  0  0  0  0  0  0  0  0  0
    6.8462  -13.6478   19.6146 C   0  0  0  0  0  0  0  0  0  0  0  0
    6.6390  -14.1826   20.8685 C   0  0  0  0  0  0  0  0  0  0  0  0
    7.5603  -14.0037   21.8956 C   0  0  0  0  0  0  0  0  0  0  0  0
    7.3274  -14.5687   23.2374 C   0  0  0  0  0  0  0  0  0  0  0  0
    8.1714  -15.7607   23.5723 C   0  0  2  0  0  0  0  0  0  0  0  0
    7.9666  -16.8130   22.5727 N   0  0  0  0  0  0  0  0  0  0  0  0
    7.7867  -16.3094   24.8809 C   0  0  0  0  0  0  0  0  0  0  0  0
    6.5871  -16.2650   25.3070 O   0  0  0  0  0  0  0  0  0  0  0  0
    8.6854  -13.2659   21.5917 C   0  0  0  0  0  0  0  0  0  0  0  0
    8.8995  -12.7265   20.3352 C   0  0  0  0  0  0  0  0  0  0  0  0
    8.0728  -19.7874   25.9852 O   0  0  0  0  0  0  0  0  0  0  0  0
    7.3117  -18.7568   26.5571 C   0  0  0  0  0  0  0  0  0  0  0  0
    8.2865  -17.6361   26.9164 C   0  0  2  0  0  0  0  0  0  0  0  0
    8.7339  -16.9266   25.7568 N   0  0  0  0  0  0  0  0  0  0  0  0
    9.4298  -18.1703   27.7032 C   0  0  0  0  0  0  0  0  0  0  0  0
    9.2294  -18.7978   28.9114 O   0  0  0  0  0  0  0  0  0  0  0  0
   10.5913  -18.0490   27.2630 O   0  0  0  0  0  0  0  0  0  0  0  0
  2  3  1  0
  2  1  1  6
  3  4  1  0
  5  2  1  0
  6  5  2  0
  7  8  1  0
  8  9  2  0
  8 18  1  0
  9 10  1  0
 10 11  2  0
 11 12  1  0
 13 12  1  6
 13 14  1  0
 14  5  1  0
 15 13  1  0
 15 22  1  0
 16 15  2  0
 17 11  1  0
 18 17  2  0
 19 20  1  0
 21 20  1  6
 21 22  1  0
 21 23  1  0
 23 24  1  0
 25 23  2  0
M  END
$$$$
