CYS.pdb
     RDKit          3D

 25 25  0  0  1  0  0  0  0  0999 V2000
    8.0915  -12.8085   19.6012 N   0  0  0  0  0  0  0  0  0  0  0  0
    7.2834  -13.1962   20.7154 C   0  0  1  0  0  0  0  0  0  0  0  0
    6.2158  -14.1953   20.2934 C   0  0  0  0  0  0  0  0  0  0  0  0
    6.9683  -15.7990   19.9370 S   0  0  0  0  0  0  0  0  0  0  0  0
    8.1234  -13.7486   21.7996 C   0  0  0  0  0  0  0  0  0  0  0  0
    9.3356  -13.9863   21.5343 O   0  0  0  0  0  0  0  0  0  0  0  0
   11.1525  -15.4053   29.9372 O   0  0  0  0  0  0  0  0  0  0  0  0
   10.3567  -15.0533   28.8441 C   0  0  0  0  0  0  0  0  0  0  0  0
    9.3392  -15.8774   28.4030 C   0  0  0  0  0  0  0  0  0  0  0  0
    8.5529  -15.5314   27.3245 C   0  0  0  0  0  0  0  0  0  0  0  0
    8.7500  -14.3391   26.6350 C   0  0  0  0  0  0  0  0  0  0  0  0
    7.9130  -13.9802   25.4754 C   0  0  0  0  0  0  0  0  0  0  0  0
    8.3918  -14.5224   24.1631 C   0  0  2  0  0  0  0  0  0  0  0  0
    7.5669  -13.9920   23.0739 N   0  0  0  0  0  0  0  0  0  0  0  0
    8.2711  -15.9874   24.1396 C   0  0  0  0  0  0  0  0  0  0  0  0
    7.3623  -16.6019   24.7870 O   0  0  0  0  0  0  0  0  0  0  0  0
    9.7696  -13.5277   27.0873 C   0  0  0  0  0  0  0  0  0  0  0  0
   10.5623  -13.8691   28.1692 C   0  0  0  0  0  0  0  0  0  0  0  0
   12.3822  -17.1465   25.0487 O   0  0  0  0  0  0  0  0  0  0  0  0
   11.3110  -16.4189   24.5088 C   0  0  0  0  0  0  0  0  0  0  0  0
   10.2786  -17.4408   24.0343 C   0  0  2  0  0  0  0  0  0  0  0  0
    9.1653  -16.8139   23.3895 N   0  0  0  0  0  0  0  0  0  0  0  0
    9.8396  -18.3029   25.1637 C   0  0  0  0  0  0  0  0  0  0  0  0
   10.1838  -19.6342   25.2170 O   0  0  0  0  0  0  0  0  0  0  0  0
    9.1474  -17.8137   26.0798 O   0  0  0  0  0  0  0  0  0  0  0  0
  2  3  1  0
  2  1  1  6
  3  4  1  0
  5  2  1  0
  6  5  2  0
  7  8  1  0
  8  9  2  0
  8 18  1  0
  9 10  1  0
 10 11  2  0
 11 12  1  0
 13 12  1  1
 13 14  1  0
 14  5  1  0
 15 13  1  0
 15 22  1  0
 16 15  2  0
 17 11  1  0
 18 17  2  0
 19 20  1  0
 21 20  1  1
 21 22  1  0
 21 23  1  0
 23 24  1  0
 25 23  2  0
M  END
$$$$
