CYS.pdb
     RDKit          3D

 25 25  0  0  1  0  0  0  0  0999 V2000
    8.3869  -14.2209   19.3223 N   0  0  0  0  0  0  0  0  0  0  0  0
    7.8614  -15.0363   20.3730 C   0  0  1  0  0  0  0  0  0  0  0  0
    7.7623  -16.4910   19.9369 C   0  0  0  0  0  0  0  0  0  0  0  0
    6.4503  -16.6865   18.7100 S   0  0  0  0  0  0  0  0  0  0  0  0
    8.6861  -14.9068   21.5934 C   0  0  0  0  0  0  0  0  0  0  0  0
    9.9259  -14.7162   21.4418 O   0  0  0  0  0  0  0  0  0  0  0  0
   10.6880  -15.0317   30.3078 O   0  0  0  0  0  0  0  0  0  0  0  0
   10.0356  -14.9698   29.0738 C   0  0  0  0  0  0  0  0  0  0  0  0
    9.8919  -13.7733   28.3981 C   0  0  0  0  0  0  0  0  0  0  0  0
    9.2484  -13.7106   27.1801 C   0  0  0  0  0  0  0  0  0  0  0  0
    8.7171  -14.8480   26.5802 C   0  0  0  0  0  0  0  0  0  0  0  0
    8.0203  -14.7724   25.2829 C   0  0  0  0  0  0  0  0  0  0  0  0
    8.9012  -14.9581   24.0850 C   0  0  2  0  0  0  0  0  0  0  0  0
    8.0856  -14.9966   22.8678 N   0  0  0  0  0  0  0  0  0  0  0  0
    9.6261  -16.2340   24.1752 C   0  0  0  0  0  0  0  0  0  0  0  0
    9.1198  -17.3300   23.7688 O   0  0  0  0  0  0  0  0  0  0  0  0
    8.8686  -16.0343   27.2674 C   0  0  0  0  0  0  0  0  0  0  0  0
    9.5134  -16.1040   28.4901 C   0  0  0  0  0  0  0  0  0  0  0  0
   13.1878  -18.6164   23.0126 O   0  0  0  0  0  0  0  0  0  0  0  0
   12.4030  -17.4577   23.1117 C   0  0  0  0  0  0  0  0  0  0  0  0
   11.7427  -17.4888   24.4895 C   0  0  2  0  0  0  0  0  0  0  0  0
   10.9436  -16.3250   24.7241 N   0  0  0  0  0  0  0  0  0  0  0  0
   12.7643  -17.6721   25.5544 C   0  0  0  0  0  0  0  0  0  0  0  0
   13.5807  -18.7799   25.5730 O   0  0  0  0  0  0  0  0  0  0  0  0
   12.8858  -16.8088   26.4475 O   0  0  0  0  0  0  0  0  0  0  0  0
  2  3  1  0
  2  1  1  6
  3  4  1  0
  5  2  1  0
  6  5  2  0
  7  8  1  0
  8  9  2  0
  8 18  1  0
  9 10  1  0
 10 11  2  0
 11 12  1  0
 13 12  1  1
 13 14  1  0
 14  5  1  0
 15 13  1  0
 15 22  1  0
 16 15  2  0
 17 11  1  0
 18 17  2  0
 19 20  1  0
 21 20  1  6
 21 22  1  0
 21 23  1  0
 23 24  1  0
 25 23  2  0
M  END
$$$$
