CYS.pdb
     RDKit          3D

 25 25  0  0  1  0  0  0  0  0999 V2000
    7.8655  -17.8744   19.4650 N   0  0  0  0  0  0  0  0  0  0  0  0
    9.2034  -17.3916   19.6128 C   0  0  1  0  0  0  0  0  0  0  0  0
    9.6110  -16.5401   18.4191 C   0  0  0  0  0  0  0  0  0  0  0  0
    8.1552  -16.0895   17.4481 S   0  0  0  0  0  0  0  0  0  0  0  0
    9.3461  -16.6337   20.8743 C   0  0  0  0  0  0  0  0  0  0  0  0
   10.5166  -16.4378   21.3077 O   0  0  0  0  0  0  0  0  0  0  0  0
    6.9911  -11.6696   27.9020 O   0  0  0  0  0  0  0  0  0  0  0  0
    7.0329  -12.3522   26.6836 C   0  0  0  0  0  0  0  0  0  0  0  0
    6.2709  -13.4847   26.4697 C   0  0  0  0  0  0  0  0  0  0  0  0
    6.3110  -14.1594   25.2678 C   0  0  0  0  0  0  0  0  0  0  0  0
    7.1193  -13.7292   24.2203 C   0  0  0  0  0  0  0  0  0  0  0  0
    7.1661  -14.4616   22.9414 C   0  0  0  0  0  0  0  0  0  0  0  0
    8.3275  -15.3972   22.7955 C   0  0  2  0  0  0  0  0  0  0  0  0
    8.2010  -16.1580   21.5491 N   0  0  0  0  0  0  0  0  0  0  0  0
    8.3507  -16.3617   23.9049 C   0  0  0  0  0  0  0  0  0  0  0  0
    7.5140  -17.3186   23.9871 O   0  0  0  0  0  0  0  0  0  0  0  0
    7.8739  -12.5976   24.4496 C   0  0  0  0  0  0  0  0  0  0  0  0
    7.8382  -11.9158   25.6535 C   0  0  0  0  0  0  0  0  0  0  0  0
   10.7872  -19.5809   25.3884 O   0  0  0  0  0  0  0  0  0  0  0  0
   10.3162  -18.4991   24.6294 C   0  0  0  0  0  0  0  0  0  0  0  0
    9.7551  -17.4778   25.6181 C   0  0  2  0  0  0  0  0  0  0  0  0
    9.3129  -16.2862   24.9603 N   0  0  0  0  0  0  0  0  0  0  0  0
   10.7518  -17.1764   26.6798 C   0  0  0  0  0  0  0  0  0  0  0  0
   11.1298  -18.1345   27.5924 O   0  0  0  0  0  0  0  0  0  0  0  0
   11.2555  -16.0364   26.7468 O   0  0  0  0  0  0  0  0  0  0  0  0
  2  3  1  0
  2  1  1  6
  3  4  1  0
  5  2  1  0
  6  5  2  0
  7  8  1  0
  8  9  2  0
  8 18  1  0
  9 10  1  0
 10 11  2  0
 11 12  1  0
 13 12  1  1
 13 14  1  0
 14  5  1  0
 15 13  1  0
 15 22  1  0
 16 15  2  0
 17 11  1  0
 18 17  2  0
 19 20  1  0
 21 20  1  6
 21 22  1  0
 21 23  1  0
 23 24  1  0
 25 23  2  0
M  END
$$$$
