CYS.pdb
     RDKit          3D

 25 25  0  0  1  0  0  0  0  0999 V2000
   10.3428  -17.0314   18.9936 N   0  0  0  0  0  0  0  0  0  0  0  0
    9.1230  -17.0298   19.7400 C   0  0  1  0  0  0  0  0  0  0  0  0
    8.5790  -18.4422   19.8990 C   0  0  0  0  0  0  0  0  0  0  0  0
    8.0872  -19.1059   18.2919 S   0  0  0  0  0  0  0  0  0  0  0  0
    9.3210  -16.3895   21.0580 C   0  0  0  0  0  0  0  0  0  0  0  0
   10.4590  -16.5012   21.5953 O   0  0  0  0  0  0  0  0  0  0  0  0
    7.2494  -11.8694   28.4801 O   0  0  0  0  0  0  0  0  0  0  0  0
    7.2623  -12.4159   27.1944 C   0  0  0  0  0  0  0  0  0  0  0  0
    6.1525  -13.0549   26.6757 C   0  0  0  0  0  0  0  0  0  0  0  0
    6.1637  -13.5947   25.4069 C   0  0  0  0  0  0  0  0  0  0  0  0
    7.2915  -13.5191   24.5956 C   0  0  0  0  0  0  0  0  0  0  0  0
    7.3007  -14.1082   23.2439 C   0  0  0  0  0  0  0  0  0  0  0  0
    8.4484  -15.0315   22.9689 C   0  0  2  0  0  0  0  0  0  0  0  0
    8.2616  -15.6860   21.6708 N   0  0  0  0  0  0  0  0  0  0  0  0
    8.5150  -16.0848   23.9925 C   0  0  0  0  0  0  0  0  0  0  0  0
    7.5858  -16.9433   24.1414 O   0  0  0  0  0  0  0  0  0  0  0  0
    8.3910  -12.8785   25.1278 C   0  0  0  0  0  0  0  0  0  0  0  0
    8.3862  -12.3345   26.4005 C   0  0  0  0  0  0  0  0  0  0  0  0
   11.7519  -17.8701   24.8634 O   0  0  0  0  0  0  0  0  0  0  0  0
   10.5516  -18.4419   25.3114 C   0  0  0  0  0  0  0  0  0  0  0  0
    9.6791  -17.2944   25.8188 C   0  0  2  0  0  0  0  0  0  0  0  0
    9.6259  -16.2118   24.8843 N   0  0  0  0  0  0  0  0  0  0  0  0
   10.1422  -16.8377   27.1561 C   0  0  0  0  0  0  0  0  0  0  0  0
   10.2386  -17.7145   28.2124 O   0  0  0  0  0  0  0  0  0  0  0  0
   10.4493  -15.6401   27.3263 O   0  0  0  0  0  0  0  0  0  0  0  0
  2  3  1  0
  2  1  1  1
  3  4  1  0
  5  2  1  0
  6  5  2  0
  7  8  1  0
  8  9  2  0
  8 18  1  0
  9 10  1  0
 10 11  2  0
 11 12  1  0
 13 12  1  1
 13 14  1  0
 14  5  1  0
 15 13  1  0
 15 22  1  0
 16 15  2  0
 17 11  1  0
 18 17  2  0
 19 20  1  0
 21 20  1  6
 21 22  1  0
 21 23  1  0
 23 24  1  0
 25 23  2  0
M  END
$$$$
