CYS.pdb
     RDKit          3D

 25 25  0  0  1  0  0  0  0  0999 V2000
   10.1090  -15.5651   17.6499 N   0  0  0  0  0  0  0  0  0  0  0  0
   11.3956  -16.1819   17.5541 C   0  0  1  0  0  0  0  0  0  0  0  0
   11.9799  -16.0110   16.1593 C   0  0  0  0  0  0  0  0  0  0  0  0
   13.5250  -16.9364   16.0125 S   0  0  0  0  0  0  0  0  0  0  0  0
   12.3109  -15.6369   18.5795 C   0  0  0  0  0  0  0  0  0  0  0  0
   12.1932  -14.4142   18.8755 O   0  0  0  0  0  0  0  0  0  0  0  0
    9.8733  -16.0820   25.0568 O   0  0  0  0  0  0  0  0  0  0  0  0
   10.9294  -16.2743   24.1626 C   0  0  0  0  0  0  0  0  0  0  0  0
   10.7803  -16.0228   22.8122 C   0  0  0  0  0  0  0  0  0  0  0  0
   11.8218  -16.2119   21.9285 C   0  0  0  0  0  0  0  0  0  0  0  0
   13.0657  -16.6635   22.3580 C   0  0  0  0  0  0  0  0  0  0  0  0
   14.1719  -16.8745   21.4062 C   0  0  0  0  0  0  0  0  0  0  0  0
   14.1685  -15.9527   20.2248 C   0  0  2  0  0  0  0  0  0  0  0  0
   13.2710  -16.4730   19.1893 N   0  0  0  0  0  0  0  0  0  0  0  0
   15.5151  -15.8623   19.6419 C   0  0  0  0  0  0  0  0  0  0  0  0
   15.8088  -16.4084   18.5291 O   0  0  0  0  0  0  0  0  0  0  0  0
   13.1983  -16.9103   23.7086 C   0  0  0  0  0  0  0  0  0  0  0  0
   12.1571  -16.7224   24.6008 C   0  0  0  0  0  0  0  0  0  0  0  0
   17.6165  -12.5658   17.9571 O   0  0  0  0  0  0  0  0  0  0  0  0
   16.6715  -13.2879   18.7014 C   0  0  0  0  0  0  0  0  0  0  0  0
   17.4494  -14.3136   19.5250 C   0  0  2  0  0  0  0  0  0  0  0  0
   16.5789  -15.1565   20.2865 N   0  0  0  0  0  0  0  0  0  0  0  0
   18.4494  -13.6368   20.3929 C   0  0  0  0  0  0  0  0  0  0  0  0
   19.7368  -13.4199   19.9580 O   0  0  0  0  0  0  0  0  0  0  0  0
   18.1184  -13.2581   21.5352 O   0  0  0  0  0  0  0  0  0  0  0  0
  2  3  1  0
  2  1  1  6
  3  4  1  0
  5  2  1  0
  6  5  2  0
  7  8  1  0
  8  9  2  0
  8 18  1  0
  9 10  1  0
 10 11  2  0
 11 12  1  0
 13 12  1  1
 13 14  1  0
 14  5  1  0
 15 13  1  0
 15 22  1  0
 16 15  2  0
 17 11  1  0
 18 17  2  0
 19 20  1  0
 21 20  1  1
 21 22  1  0
 21 23  1  0
 23 24  1  0
 25 23  2  0
M  END
$$$$
