CYS.pdb
     RDKit          3D

 25 25  0  0  1  0  0  0  0  0999 V2000
    9.4088  -16.0513   18.0356 N   0  0  0  0  0  0  0  0  0  0  0  0
    8.3661  -16.3523   18.9668 C   0  0  1  0  0  0  0  0  0  0  0  0
    8.1018  -17.8499   19.0245 C   0  0  0  0  0  0  0  0  0  0  0  0
    6.8225  -18.2109   20.2485 S   0  0  0  0  0  0  0  0  0  0  0  0
    8.6978  -15.8234   20.3072 C   0  0  0  0  0  0  0  0  0  0  0  0
    9.9074  -15.8693   20.6691 O   0  0  0  0  0  0  0  0  0  0  0  0
    7.2510  -12.6503   28.5270 O   0  0  0  0  0  0  0  0  0  0  0  0
    7.1533  -12.9764   27.1720 C   0  0  0  0  0  0  0  0  0  0  0  0
    6.5657  -14.1568   26.7592 C   0  0  0  0  0  0  0  0  0  0  0  0
    6.4683  -14.4800   25.4223 C   0  0  0  0  0  0  0  0  0  0  0  0
    6.9570  -13.6326   24.4329 C   0  0  0  0  0  0  0  0  0  0  0  0
    6.8599  -13.9893   23.0055 C   0  0  0  0  0  0  0  0  0  0  0  0
    7.9813  -14.8409   22.4932 C   0  0  2  0  0  0  0  0  0  0  0  0
    7.6819  -15.2928   21.1314 N   0  0  0  0  0  0  0  0  0  0  0  0
    8.1415  -16.0367   23.3334 C   0  0  0  0  0  0  0  0  0  0  0  0
    7.4067  -17.0673   23.1907 O   0  0  0  0  0  0  0  0  0  0  0  0
    7.5409  -12.4586   24.8611 C   0  0  0  0  0  0  0  0  0  0  0  0
    7.6416  -12.1282   26.2014 C   0  0  0  0  0  0  0  0  0  0  0  0
   11.2933  -17.7476   23.6669 O   0  0  0  0  0  0  0  0  0  0  0  0
   10.0954  -18.3539   24.0741 C   0  0  0  0  0  0  0  0  0  0  0  0
    9.3973  -17.3668   25.0089 C   0  0  2  0  0  0  0  0  0  0  0  0
    9.1311  -16.1179   24.3627 N   0  0  0  0  0  0  0  0  0  0  0  0
   10.1876  -17.1785   26.2544 C   0  0  0  0  0  0  0  0  0  0  0  0
   10.5160  -18.2476   27.0561 O   0  0  0  0  0  0  0  0  0  0  0  0
   10.5605  -16.0330   26.5806 O   0  0  0  0  0  0  0  0  0  0  0  0
  2  3  1  0
  2  1  1  6
  3  4  1  0
  5  2  1  0
  6  5  2  0
  7  8  1  0
  8  9  2  0
  8 18  1  0
  9 10  1  0
 10 11  2  0
 11 12  1  0
 13 12  1  1
 13 14  1  0
 14  5  1  0
 15 13  1  0
 15 22  1  0
 16 15  2  0
 17 11  1  0
 18 17  2  0
 19 20  1  0
 21 20  1  6
 21 22  1  0
 21 23  1  0
 23 24  1  0
 25 23  2  0
M  END
$$$$
