CYS.pdb
     RDKit          3D

 25 25  0  0  1  0  0  0  0  0999 V2000
    8.9209  -15.2355   19.2665 N   0  0  0  0  0  0  0  0  0  0  0  0
    8.1778  -15.6866   20.4020 C   0  0  1  0  0  0  0  0  0  0  0  0
    7.7407  -17.1339   20.2278 C   0  0  0  0  0  0  0  0  0  0  0  0
    6.4229  -17.2438   18.9964 S   0  0  0  0  0  0  0  0  0  0  0  0
    8.9685  -15.5201   21.6403 C   0  0  0  0  0  0  0  0  0  0  0  0
   10.2271  -15.5637   21.5386 O   0  0  0  0  0  0  0  0  0  0  0  0
   10.5252  -14.8451   30.4214 O   0  0  0  0  0  0  0  0  0  0  0  0
    9.9545  -14.8203   29.1464 C   0  0  0  0  0  0  0  0  0  0  0  0
    9.9253  -13.6603   28.3963 C   0  0  0  0  0  0  0  0  0  0  0  0
    9.3626  -13.6344   27.1377 C   0  0  0  0  0  0  0  0  0  0  0  0
    8.8009  -14.7736   26.5698 C   0  0  0  0  0  0  0  0  0  0  0  0
    8.1907  -14.7365   25.2280 C   0  0  0  0  0  0  0  0  0  0  0  0
    9.0859  -15.1967   24.1179 C   0  0  2  0  0  0  0  0  0  0  0  0
    8.3166  -15.3211   22.8765 N   0  0  0  0  0  0  0  0  0  0  0  0
    9.6473  -16.5197   24.4277 C   0  0  0  0  0  0  0  0  0  0  0  0
    8.9857  -17.5938   24.2507 O   0  0  0  0  0  0  0  0  0  0  0  0
    8.8377  -15.9231   27.3312 C   0  0  0  0  0  0  0  0  0  0  0  0
    9.4011  -15.9559   28.5949 C   0  0  0  0  0  0  0  0  0  0  0  0
   12.8423  -19.3175   23.2819 O   0  0  0  0  0  0  0  0  0  0  0  0
   12.1291  -18.1100   23.3237 C   0  0  0  0  0  0  0  0  0  0  0  0
   11.6652  -17.9218   24.7676 C   0  0  2  0  0  0  0  0  0  0  0  0
   10.9697  -16.6839   24.9469 N   0  0  0  0  0  0  0  0  0  0  0  0
   12.8131  -18.0427   25.7052 C   0  0  0  0  0  0  0  0  0  0  0  0
   13.5557  -19.1992   25.7739 O   0  0  0  0  0  0  0  0  0  0  0  0
   13.1103  -17.0811   26.4432 O   0  0  0  0  0  0  0  0  0  0  0  0
  2  3  1  0
  2  1  1  6
  3  4  1  0
  5  2  1  0
  6  5  2  0
  7  8  1  0
  8  9  2  0
  8 18  1  0
  9 10  1  0
 10 11  2  0
 11 12  1  0
 13 12  1  1
 13 14  1  0
 14  5  1  0
 15 13  1  0
 15 22  1  0
 16 15  2  0
 17 11  1  0
 18 17  2  0
 19 20  1  0
 21 20  1  6
 21 22  1  0
 21 23  1  0
 23 24  1  0
 25 23  2  0
M  END
$$$$
