CYS.pdb
     RDKit          3D

 25 25  0  0  1  0  0  0  0  0999 V2000
    7.9418  -12.6165   18.1001 N   0  0  0  0  0  0  0  0  0  0  0  0
    7.3824  -13.6791   18.8766 C   0  0  1  0  0  0  0  0  0  0  0  0
    7.5225  -15.0128   18.1571 C   0  0  0  0  0  0  0  0  0  0  0  0
    6.9901  -16.3620   19.2348 S   0  0  0  0  0  0  0  0  0  0  0  0
    8.0115  -13.7327   20.2137 C   0  0  0  0  0  0  0  0  0  0  0  0
    9.2580  -13.5373   20.2797 O   0  0  0  0  0  0  0  0  0  0  0  0
    8.6577  -14.1584   29.0959 O   0  0  0  0  0  0  0  0  0  0  0  0
    8.2106  -14.0254   27.7790 C   0  0  0  0  0  0  0  0  0  0  0  0
    7.5414  -15.0526   27.1417 C   0  0  0  0  0  0  0  0  0  0  0  0
    7.0994  -14.9228   25.8421 C   0  0  0  0  0  0  0  0  0  0  0  0
    7.3079  -13.7534   25.1176 C   0  0  0  0  0  0  0  0  0  0  0  0
    6.8426  -13.6251   23.7243 C   0  0  0  0  0  0  0  0  0  0  0  0
    7.8364  -14.0542   22.6882 C   0  0  2  0  0  0  0  0  0  0  0  0
    7.2259  -13.9941   21.3570 N   0  0  0  0  0  0  0  0  0  0  0  0
    8.2540  -15.4441   22.9236 C   0  0  0  0  0  0  0  0  0  0  0  0
    7.4891  -16.4318   22.6745 O   0  0  0  0  0  0  0  0  0  0  0  0
    7.9775  -12.7376   25.7675 C   0  0  0  0  0  0  0  0  0  0  0  0
    8.4236  -12.8615   27.0718 C   0  0  0  0  0  0  0  0  0  0  0  0
   11.9217  -16.8276   22.5999 O   0  0  0  0  0  0  0  0  0  0  0  0
   10.8376  -17.7138   22.6873 C   0  0  0  0  0  0  0  0  0  0  0  0
    9.8791  -17.1367   23.7283 C   0  0  2  0  0  0  0  0  0  0  0  0
    9.5435  -15.7743   23.4464 N   0  0  0  0  0  0  0  0  0  0  0  0
   10.4413  -17.2877   25.0967 C   0  0  0  0  0  0  0  0  0  0  0  0
   10.7633  -18.5273   25.5999 O   0  0  0  0  0  0  0  0  0  0  0  0
   10.6253  -16.2751   25.8028 O   0  0  0  0  0  0  0  0  0  0  0  0
  2  3  1  0
  2  1  1  6
  3  4  1  0
  5  2  1  0
  6  5  2  0
  7  8  1  0
  8  9  2  0
  8 18  1  0
  9 10  1  0
 10 11  2  0
 11 12  1  0
 13 12  1  1
 13 14  1  0
 14  5  1  0
 15 13  1  0
 15 22  1  0
 16 15  2  0
 17 11  1  0
 18 17  2  0
 19 20  1  0
 21 20  1  6
 21 22  1  0
 21 23  1  0
 23 24  1  0
 25 23  2  0
M  END
$$$$
