WIW.pdb
     RDKit          3D

 37 40  0  0  1  0  0  0  0  0999 V2000
   27.8874  -21.4866  -14.2290 N   0  0  0  0  0  0  0  0  0  0  0  0
   27.0177  -20.5437  -13.5641 C   0  0  1  0  0  0  0  0  0  0  0  0
   25.9520  -20.1247  -14.5508 C   0  0  0  0  0  0  0  0  0  0  0  0
   26.5208  -19.3952  -15.7098 C   0  0  0  0  0  0  0  0  0  0  0  0
   26.9573  -19.9052  -16.9107 C   0  0  0  0  0  0  0  0  0  0  0  0
   27.3888  -18.8739  -17.6560 N   0  0  0  0  0  0  0  0  0  0  0  0
   27.2388  -17.7202  -16.9620 C   0  0  0  0  0  0  0  0  0  0  0  0
   27.5297  -16.3884  -17.2846 C   0  0  0  0  0  0  0  0  0  0  0  0
   27.2790  -15.3711  -16.3898 C   0  0  0  0  0  0  0  0  0  0  0  0
   26.7331  -15.7274  -15.1730 C   0  0  0  0  0  0  0  0  0  0  0  0
   26.4354  -17.0108  -14.8204 C   0  0  0  0  0  0  0  0  0  0  0  0
   26.6974  -18.0279  -15.7432 C   0  0  0  0  0  0  0  0  0  0  0  0
   26.4352  -21.1596  -12.3516 C   0  0  0  0  0  0  0  0  0  0  0  0
   26.2268  -22.4103  -12.3750 O   0  0  0  0  0  0  0  0  0  0  0  0
   27.9687  -19.8041   -7.4772 C   0  0  0  0  0  0  0  0  0  0  0  0
   27.4433  -20.5486   -8.7072 C   0  0  0  0  0  0  0  0  0  0  0  0
   25.9589  -20.4411   -8.7988 C   0  0  2  0  0  0  0  0  0  0  0  0
   25.2517  -20.9662   -7.5741 C   0  0  0  0  0  0  0  0  0  0  0  0
   25.4354  -20.8698  -10.1055 C   0  0  2  0  0  0  0  0  0  0  0  0
   26.1440  -20.3249  -11.2393 N   0  0  0  0  0  0  0  0  0  0  0  0
   23.9787  -20.9364  -10.2788 C   0  0  0  0  0  0  0  0  0  0  0  0
   23.1934  -21.5094   -9.4840 O   0  0  0  0  0  0  0  0  0  0  0  0
   23.3807  -20.3254  -11.4149 N   0  0  0  0  0  0  0  0  0  0  0  0
   21.9169  -20.2619  -11.5679 C   0  0  1  0  0  0  0  0  0  0  0  0
   21.5372  -19.2093  -12.5837 C   0  0  0  0  0  0  0  0  0  0  0  0
   21.7019  -19.7518  -13.9573 C   0  0  0  0  0  0  0  0  0  0  0  0
   21.0861  -20.8950  -14.4801 C   0  0  0  0  0  0  0  0  0  0  0  0
   21.4996  -21.0463  -15.7521 N   0  0  0  0  0  0  0  0  0  0  0  0
   22.3490  -20.0783  -16.1073 C   0  0  0  0  0  0  0  0  0  0  0  0
   23.0200  -19.8141  -17.2786 C   0  0  0  0  0  0  0  0  0  0  0  0
   23.8390  -18.6998  -17.3083 C   0  0  0  0  0  0  0  0  0  0  0  0
   24.0009  -17.8609  -16.2194 C   0  0  0  0  0  0  0  0  0  0  0  0
   23.3032  -18.1685  -15.0594 C   0  0  0  0  0  0  0  0  0  0  0  0
   22.4801  -19.2708  -14.9992 C   0  0  0  0  0  0  0  0  0  0  0  0
   21.3472  -21.5839  -11.8238 C   0  0  0  0  0  0  0  0  0  0  0  0
   20.0184  -21.8967  -11.5801 O   0  0  0  0  0  0  0  0  0  0  0  0
   22.0429  -22.5467  -12.2929 O   0  0  0  0  0  0  0  0  0  0  0  0
  2  1  1  6
  2  3  1  0
  4  3  1  0
  5  4  2  0
  6  7  1  0
  6  5  1  0
  7 12  2  0
  8  7  1  0
  8  9  2  0
  9 10  1  0
 10 11  2  0
 12  4  1  0
 12 11  1  0
 13 20  1  0
 13  2  1  0
 14 13  2  0
 16 15  1  0
 16 17  1  0
 17 18  1  1
 19 17  1  0
 19 20  1  6
 21 19  1  0
 21 22  2  0
 23 24  1  0
 23 21  1  0
 24 25  1  6
 26 25  1  0
 26 27  2  0
 28 27  1  0
 29 28  1  0
 30 29  2  0
 31 30  1  0
 32 31  2  0
 32 33  1  0
 33 34  2  0
 34 29  1  0
 34 26  1  0
 35 24  1  0
 35 36  1  0
 37 35  2  0
M  END
$$$$
