WIW.pdb
     RDKit          3D

 37 40  0  0  1  0  0  0  0  0999 V2000
   26.7881  -18.9273  -11.6663 N   0  0  0  0  0  0  0  0  0  0  0  0
   26.9156  -20.2765  -12.1673 C   0  0  1  0  0  0  0  0  0  0  0  0
   26.0691  -21.1742  -11.2940 C   0  0  0  0  0  0  0  0  0  0  0  0
   26.2177  -20.8527   -9.8541 C   0  0  0  0  0  0  0  0  0  0  0  0
   25.2981  -20.2792   -9.0066 C   0  0  0  0  0  0  0  0  0  0  0  0
   25.8698  -20.1813   -7.7947 N   0  0  0  0  0  0  0  0  0  0  0  0
   27.1294  -20.6771   -7.8474 C   0  0  0  0  0  0  0  0  0  0  0  0
   28.1271  -20.8055   -6.8723 C   0  0  0  0  0  0  0  0  0  0  0  0
   29.3521  -21.3560   -7.1796 C   0  0  0  0  0  0  0  0  0  0  0  0
   29.5440  -21.7697   -8.4825 C   0  0  0  0  0  0  0  0  0  0  0  0
   28.5995  -21.6626   -9.4606 C   0  0  0  0  0  0  0  0  0  0  0  0
   27.3632  -21.1013   -9.1274 C   0  0  0  0  0  0  0  0  0  0  0  0
   26.4967  -20.3322  -13.5851 C   0  0  0  0  0  0  0  0  0  0  0  0
   25.9383  -19.3018  -14.0696 O   0  0  0  0  0  0  0  0  0  0  0  0
   28.5442  -22.7521  -18.7439 C   0  0  0  0  0  0  0  0  0  0  0  0
   27.3519  -22.1635  -17.9854 C   0  0  0  0  0  0  0  0  0  0  0  0
   27.5784  -22.2221  -16.5127 C   0  0  2  0  0  0  0  0  0  0  0  0
   27.9957  -23.5901  -16.0330 C   0  0  0  0  0  0  0  0  0  0  0  0
   26.5239  -21.5402  -15.7458 C   0  0  2  0  0  0  0  0  0  0  0  0
   26.7403  -21.5245  -14.3185 N   0  0  0  0  0  0  0  0  0  0  0  0
   25.1274  -21.7613  -16.1426 C   0  0  0  0  0  0  0  0  0  0  0  0
   24.7281  -21.8301  -17.3311 O   0  0  0  0  0  0  0  0  0  0  0  0
   24.1301  -21.9077  -15.1399 N   0  0  0  0  0  0  0  0  0  0  0  0
   22.7320  -22.2128  -15.4899 C   0  0  1  0  0  0  0  0  0  0  0  0
   21.9997  -22.7782  -14.2949 C   0  0  0  0  0  0  0  0  0  0  0  0
   21.4397  -21.6713  -13.4769 C   0  0  0  0  0  0  0  0  0  0  0  0
   21.3525  -20.3242  -13.8475 C   0  0  0  0  0  0  0  0  0  0  0  0
   20.7902  -19.6473  -12.8288 N   0  0  0  0  0  0  0  0  0  0  0  0
   20.4985  -20.4571  -11.8072 C   0  0  0  0  0  0  0  0  0  0  0  0
   19.9254  -20.2323  -10.5772 C   0  0  0  0  0  0  0  0  0  0  0  0
   19.7619  -21.3211   -9.7399 C   0  0  0  0  0  0  0  0  0  0  0  0
   20.1490  -22.6020  -10.0938 C   0  0  0  0  0  0  0  0  0  0  0  0
   20.7227  -22.7792  -11.3453 C   0  0  0  0  0  0  0  0  0  0  0  0
   20.8985  -21.7150  -12.2011 C   0  0  0  0  0  0  0  0  0  0  0  0
   22.0745  -21.0671  -16.1167 C   0  0  0  0  0  0  0  0  0  0  0  0
   22.5579  -19.7708  -16.0223 O   0  0  0  0  0  0  0  0  0  0  0  0
   21.0013  -21.1863  -16.7987 O   0  0  0  0  0  0  0  0  0  0  0  0
  2  1  1  1
  2  3  1  0
  4  3  1  0
  5  4  2  0
  6  7  1  0
  6  5  1  0
  7 12  2  0
  8  7  1  0
  8  9  2  0
  9 10  1  0
 10 11  2  0
 12  4  1  0
 12 11  1  0
 13 20  1  0
 13  2  1  0
 14 13  2  0
 16 15  1  0
 16 17  1  0
 17 18  1  1
 19 17  1  0
 19 20  1  1
 21 19  1  0
 21 22  2  0
 23 24  1  0
 23 21  1  0
 24 25  1  1
 26 25  1  0
 26 27  2  0
 28 27  1  0
 29 28  1  0
 30 29  2  0
 31 30  1  0
 32 31  2  0
 32 33  1  0
 33 34  2  0
 34 29  1  0
 34 26  1  0
 35 24  1  0
 35 36  1  0
 37 35  2  0
M  END
$$$$
