WIW.pdb
     RDKit          3D

 37 40  0  0  1  0  0  0  0  0999 V2000
   21.8685  -22.0747  -15.0228 N   0  0  0  0  0  0  0  0  0  0  0  0
   22.3887  -20.9361  -14.3012 C   0  0  1  0  0  0  0  0  0  0  0  0
   21.2753  -20.3905  -13.4367 C   0  0  0  0  0  0  0  0  0  0  0  0
   20.2059  -19.7523  -14.2416 C   0  0  0  0  0  0  0  0  0  0  0  0
   18.9023  -20.1594  -14.4079 C   0  0  0  0  0  0  0  0  0  0  0  0
   18.3016  -19.2736  -15.2201 N   0  0  0  0  0  0  0  0  0  0  0  0
   19.1877  -18.3127  -15.5758 C   0  0  0  0  0  0  0  0  0  0  0  0
   19.0647  -17.1807  -16.3920 C   0  0  0  0  0  0  0  0  0  0  0  0
   20.1346  -16.3385  -16.6021 C   0  0  0  0  0  0  0  0  0  0  0  0
   21.3205  -16.6635  -15.9747 C   0  0  0  0  0  0  0  0  0  0  0  0
   21.4817  -17.7551  -15.1731 C   0  0  0  0  0  0  0  0  0  0  0  0
   20.3832  -18.5965  -14.9729 C   0  0  0  0  0  0  0  0  0  0  0  0
   23.5638  -21.3391  -13.4977 C   0  0  0  0  0  0  0  0  0  0  0  0
   23.5299  -22.4807  -12.9463 O   0  0  0  0  0  0  0  0  0  0  0  0
   28.5668  -21.1477  -15.0892 C   0  0  0  0  0  0  0  0  0  0  0  0
   27.1847  -21.3416  -14.4605 C   0  0  0  0  0  0  0  0  0  0  0  0
   27.0868  -20.6183  -13.1603 C   0  0  2  0  0  0  0  0  0  0  0  0
   28.2929  -20.8234  -12.2777 C   0  0  0  0  0  0  0  0  0  0  0  0
   25.7661  -20.7594  -12.5270 C   0  0  2  0  0  0  0  0  0  0  0  0
   24.6541  -20.4348  -13.3887 N   0  0  0  0  0  0  0  0  0  0  0  0
   25.6109  -20.2989  -11.1412 C   0  0  0  0  0  0  0  0  0  0  0  0
   25.1524  -19.1773  -10.8117 O   0  0  0  0  0  0  0  0  0  0  0  0
   25.9999  -21.1525  -10.0727 N   0  0  0  0  0  0  0  0  0  0  0  0
   26.1512  -20.6398   -8.7000 C   0  0  1  0  0  0  0  0  0  0  0  0
   26.6732  -21.7241   -7.7858 C   0  0  0  0  0  0  0  0  0  0  0  0
   26.9963  -21.1485   -6.4545 C   0  0  0  0  0  0  0  0  0  0  0  0
   26.0808  -20.7909   -5.4577 C   0  0  0  0  0  0  0  0  0  0  0  0
   26.7732  -20.3048   -4.4108 N   0  0  0  0  0  0  0  0  0  0  0  0
   28.0879  -20.3168   -4.6476 C   0  0  0  0  0  0  0  0  0  0  0  0
   29.1717  -19.9304   -3.8940 C   0  0  0  0  0  0  0  0  0  0  0  0
   30.4270  -20.0844   -4.4541 C   0  0  0  0  0  0  0  0  0  0  0  0
   30.6219  -20.6038   -5.7222 C   0  0  0  0  0  0  0  0  0  0  0  0
   29.4977  -20.9797   -6.4445 C   0  0  0  0  0  0  0  0  0  0  0  0
   28.2350  -20.8387   -5.9138 C   0  0  0  0  0  0  0  0  0  0  0  0
   26.9261  -19.4002   -8.6735 C   0  0  0  0  0  0  0  0  0  0  0  0
   26.5451  -18.2836   -7.9448 O   0  0  0  0  0  0  0  0  0  0  0  0
   28.0152  -19.2630   -9.3264 O   0  0  0  0  0  0  0  0  0  0  0  0
  2  1  1  1
  2  3  1  0
  4  3  1  0
  5  4  2  0
  6  7  1  0
  6  5  1  0
  7 12  2  0
  8  7  1  0
  8  9  2  0
  9 10  1  0
 10 11  2  0
 12  4  1  0
 12 11  1  0
 13 20  1  0
 13  2  1  0
 14 13  2  0
 16 15  1  0
 16 17  1  0
 17 18  1  1
 19 17  1  0
 19 20  1  6
 21 19  1  0
 21 22  2  0
 23 24  1  0
 23 21  1  0
 24 25  1  1
 26 25  1  0
 26 27  2  0
 28 27  1  0
 29 28  1  0
 30 29  2  0
 31 30  1  0
 32 31  2  0
 32 33  1  0
 33 34  2  0
 34 29  1  0
 34 26  1  0
 35 24  1  0
 35 36  1  0
 37 35  2  0
M  END
$$$$
