WIW.pdb
     RDKit          3D

 37 40  0  0  1  0  0  0  0  0999 V2000
   23.8040  -20.3131  -15.4572 N   0  0  0  0  0  0  0  0  0  0  0  0
   24.2544  -19.5961  -14.2865 C   0  0  1  0  0  0  0  0  0  0  0  0
   23.0303  -19.1181  -13.5395 C   0  0  0  0  0  0  0  0  0  0  0  0
   22.1877  -18.2206  -14.3661 C   0  0  0  0  0  0  0  0  0  0  0  0
   20.8899  -18.4092  -14.7820 C   0  0  0  0  0  0  0  0  0  0  0  0
   20.5366  -17.3347  -15.5071 N   0  0  0  0  0  0  0  0  0  0  0  0
   21.5747  -16.4663  -15.5643 C   0  0  0  0  0  0  0  0  0  0  0  0
   21.7187  -15.2179  -16.1836 C   0  0  0  0  0  0  0  0  0  0  0  0
   22.8994  -14.5136  -16.0932 C   0  0  0  0  0  0  0  0  0  0  0  0
   23.9215  -15.0944  -15.3696 C   0  0  0  0  0  0  0  0  0  0  0  0
   23.8219  -16.3064  -14.7521 C   0  0  0  0  0  0  0  0  0  0  0  0
   22.6150  -17.0043  -14.8562 C   0  0  0  0  0  0  0  0  0  0  0  0
   25.1030  -20.4733  -13.4503 C   0  0  0  0  0  0  0  0  0  0  0  0
   24.8158  -21.7082  -13.4219 O   0  0  0  0  0  0  0  0  0  0  0  0
   30.3040  -19.8196  -14.0348 C   0  0  0  0  0  0  0  0  0  0  0  0
   28.8520  -20.2497  -13.8113 C   0  0  0  0  0  0  0  0  0  0  0  0
   28.5537  -20.3757  -12.3558 C   0  0  2  0  0  0  0  0  0  0  0  0
   29.6146  -21.1355  -11.5988 C   0  0  0  0  0  0  0  0  0  0  0  0
   27.1538  -20.7429  -12.0901 C   0  0  2  0  0  0  0  0  0  0  0  0
   26.1817  -19.8904  -12.7325 N   0  0  0  0  0  0  0  0  0  0  0  0
   26.7926  -21.1499  -10.7261 C   0  0  0  0  0  0  0  0  0  0  0  0
   27.2261  -22.1796  -10.1529 O   0  0  0  0  0  0  0  0  0  0  0  0
   25.8891  -20.3504   -9.9737 N   0  0  0  0  0  0  0  0  0  0  0  0
   25.3291  -20.8246   -8.6963 C   0  0  1  0  0  0  0  0  0  0  0  0
   25.3460  -19.7167   -7.6685 C   0  0  0  0  0  0  0  0  0  0  0  0
   26.7493  -19.3443   -7.3519 C   0  0  0  0  0  0  0  0  0  0  0  0
   27.5143  -18.3617   -7.9913 C   0  0  0  0  0  0  0  0  0  0  0  0
   28.7297  -18.3382   -7.4134 N   0  0  0  0  0  0  0  0  0  0  0  0
   28.8210  -19.2405   -6.4326 C   0  0  0  0  0  0  0  0  0  0  0  0
   29.8400  -19.5792   -5.5730 C   0  0  0  0  0  0  0  0  0  0  0  0
   29.5929  -20.5819   -4.6527 C   0  0  0  0  0  0  0  0  0  0  0  0
   28.3783  -21.2407   -4.5720 C   0  0  0  0  0  0  0  0  0  0  0  0
   27.3805  -20.8640   -5.4605 C   0  0  0  0  0  0  0  0  0  0  0  0
   27.5963  -19.8693   -6.3878 C   0  0  0  0  0  0  0  0  0  0  0  0
   24.0239  -21.4558   -8.8850 C   0  0  0  0  0  0  0  0  0  0  0  0
   23.4042  -21.5603  -10.1212 O   0  0  0  0  0  0  0  0  0  0  0  0
   23.3623  -21.9569   -7.9143 O   0  0  0  0  0  0  0  0  0  0  0  0
  2  1  1  6
  2  3  1  0
  4  3  1  0
  5  4  2  0
  6  7  1  0
  6  5  1  0
  7 12  2  0
  8  7  1  0
  8  9  2  0
  9 10  1  0
 10 11  2  0
 12  4  1  0
 12 11  1  0
 13 20  1  0
 13  2  1  0
 14 13  2  0
 16 15  1  0
 16 17  1  0
 17 18  1  6
 19 17  1  0
 19 20  1  1
 21 19  1  0
 21 22  2  0
 23 24  1  0
 23 21  1  0
 24 25  1  1
 26 25  1  0
 26 27  2  0
 28 27  1  0
 29 28  1  0
 30 29  2  0
 31 30  1  0
 32 31  2  0
 32 33  1  0
 33 34  2  0
 34 29  1  0
 34 26  1  0
 35 24  1  0
 35 36  1  0
 37 35  2  0
M  END
$$$$
