WIW.pdb
     RDKit          3D

 37 40  0  0  1  0  0  0  0  0999 V2000
   27.3017  -19.1953  -19.2946 N   0  0  0  0  0  0  0  0  0  0  0  0
   27.8853  -20.2206  -18.4604 C   0  0  1  0  0  0  0  0  0  0  0  0
   29.3504  -20.3263  -18.8171 C   0  0  0  0  0  0  0  0  0  0  0  0
   29.5527  -20.7603  -20.2205 C   0  0  0  0  0  0  0  0  0  0  0  0
   30.2250  -20.1087  -21.2286 C   0  0  0  0  0  0  0  0  0  0  0  0
   30.1512  -20.8777  -22.3279 N   0  0  0  0  0  0  0  0  0  0  0  0
   29.4498  -22.0022  -22.0471 C   0  0  0  0  0  0  0  0  0  0  0  0
   29.0962  -23.1065  -22.8332 C   0  0  0  0  0  0  0  0  0  0  0  0
   28.3641  -24.1474  -22.3052 C   0  0  0  0  0  0  0  0  0  0  0  0
   28.0007  -24.0474  -20.9771 C   0  0  0  0  0  0  0  0  0  0  0  0
   28.3246  -22.9905  -20.1783 C   0  0  0  0  0  0  0  0  0  0  0  0
   29.0682  -21.9451  -20.7339 C   0  0  0  0  0  0  0  0  0  0  0  0
   27.6881  -19.8855  -17.0329 C   0  0  0  0  0  0  0  0  0  0  0  0
   28.2488  -18.8346  -16.5974 O   0  0  0  0  0  0  0  0  0  0  0  0
   22.6721  -19.8099  -14.9442 C   0  0  0  0  0  0  0  0  0  0  0  0
   24.0007  -20.5629  -15.0498 C   0  0  0  0  0  0  0  0  0  0  0  0
   25.1536  -19.6257  -14.9238 C   0  0  2  0  0  0  0  0  0  0  0  0
   25.0227  -18.4066  -15.8027 C   0  0  0  0  0  0  0  0  0  0  0  0
   26.4532  -20.3158  -14.9310 C   0  0  2  0  0  0  0  0  0  0  0  0
   26.8902  -20.7502  -16.2366 N   0  0  0  0  0  0  0  0  0  0  0  0
   26.7353  -21.2701  -13.8511 C   0  0  0  0  0  0  0  0  0  0  0  0
   26.8531  -22.5100  -14.0105 O   0  0  0  0  0  0  0  0  0  0  0  0
   26.8876  -20.7948  -12.5197 N   0  0  0  0  0  0  0  0  0  0  0  0
   26.5209  -21.6296  -11.3626 C   0  0  1  0  0  0  0  0  0  0  0  0
   27.6152  -21.5983  -10.3207 C   0  0  0  0  0  0  0  0  0  0  0  0
   27.2269  -20.6919   -9.2090 C   0  0  0  0  0  0  0  0  0  0  0  0
   25.9975  -20.0400   -9.0573 C   0  0  0  0  0  0  0  0  0  0  0  0
   26.0487  -19.3118   -7.9264 N   0  0  0  0  0  0  0  0  0  0  0  0
   27.2313  -19.4382   -7.3180 C   0  0  0  0  0  0  0  0  0  0  0  0
   27.7428  -18.9011   -6.1596 C   0  0  0  0  0  0  0  0  0  0  0  0
   29.0345  -19.2506   -5.8093 C   0  0  0  0  0  0  0  0  0  0  0  0
   29.8114  -20.1052   -6.5720 C   0  0  0  0  0  0  0  0  0  0  0  0
   29.2519  -20.6220   -7.7325 C   0  0  0  0  0  0  0  0  0  0  0  0
   27.9685  -20.2929   -8.1075 C   0  0  0  0  0  0  0  0  0  0  0  0
   25.1923  -21.2889  -10.8559 C   0  0  0  0  0  0  0  0  0  0  0  0
   24.4215  -22.1618  -10.1030 O   0  0  0  0  0  0  0  0  0  0  0  0
   24.6493  -20.1541  -11.0758 O   0  0  0  0  0  0  0  0  0  0  0  0
  2  1  1  6
  2  3  1  0
  4  3  1  0
  5  4  2  0
  6  7  1  0
  6  5  1  0
  7 12  2  0
  8  7  1  0
  8  9  2  0
  9 10  1  0
 10 11  2  0
 12  4  1  0
 12 11  1  0
 13 20  1  0
 13  2  1  0
 14 13  2  0
 16 15  1  0
 16 17  1  0
 17 18  1  6
 19 17  1  0
 19 20  1  6
 21 19  1  0
 21 22  2  0
 23 24  1  0
 23 21  1  0
 24 25  1  1
 26 25  1  0
 26 27  2  0
 28 27  1  0
 29 28  1  0
 30 29  2  0
 31 30  1  0
 32 31  2  0
 32 33  1  0
 33 34  2  0
 34 29  1  0
 34 26  1  0
 35 24  1  0
 35 36  1  0
 37 35  2  0
M  END
$$$$
