WIW.pdb
     RDKit          3D

 37 40  0  0  1  0  0  0  0  0999 V2000
   21.3442  -21.5709  -14.3618 N   0  0  0  0  0  0  0  0  0  0  0  0
   22.2091  -20.4533  -14.0610 C   0  0  1  0  0  0  0  0  0  0  0  0
   21.4094  -19.4559  -13.2544 C   0  0  0  0  0  0  0  0  0  0  0  0
   20.6155  -18.5488  -14.1180 C   0  0  0  0  0  0  0  0  0  0  0  0
   20.9636  -17.3103  -14.6054 C   0  0  0  0  0  0  0  0  0  0  0  0
   19.9343  -16.8612  -15.3429 N   0  0  0  0  0  0  0  0  0  0  0  0
   18.9394  -17.7806  -15.3385 C   0  0  0  0  0  0  0  0  0  0  0  0
   17.6763  -17.7971  -15.9443 C   0  0  0  0  0  0  0  0  0  0  0  0
   16.8288  -18.8720  -15.7875 C   0  0  0  0  0  0  0  0  0  0  0  0
   17.2826  -19.9197  -15.0117 C   0  0  0  0  0  0  0  0  0  0  0  0
   18.5041  -19.9428  -14.4053 C   0  0  0  0  0  0  0  0  0  0  0  0
   19.3487  -18.8421  -14.5775 C   0  0  0  0  0  0  0  0  0  0  0  0
   23.4061  -20.9216  -13.3285 C   0  0  0  0  0  0  0  0  0  0  0  0
   23.2526  -21.8790  -12.5111 O   0  0  0  0  0  0  0  0  0  0  0  0
   29.0762  -22.2745  -14.4632 C   0  0  0  0  0  0  0  0  0  0  0  0
   28.0273  -21.9375  -13.4004 C   0  0  0  0  0  0  0  0  0  0  0  0
   26.8816  -21.1962  -14.0016 C   0  0  2  0  0  0  0  0  0  0  0  0
   27.3147  -20.1241  -14.9705 C   0  0  0  0  0  0  0  0  0  0  0  0
   25.8593  -20.8250  -13.0105 C   0  0  2  0  0  0  0  0  0  0  0  0
   24.6489  -20.2800  -13.5783 N   0  0  0  0  0  0  0  0  0  0  0  0
   26.3006  -20.1607  -11.7775 C   0  0  0  0  0  0  0  0  0  0  0  0
   26.5080  -18.9270  -11.6694 O   0  0  0  0  0  0  0  0  0  0  0  0
   26.5229  -20.9357  -10.6064 N   0  0  0  0  0  0  0  0  0  0  0  0
   27.2341  -20.3779   -9.4432 C   0  0  1  0  0  0  0  0  0  0  0  0
   26.3270  -20.3463   -8.2348 C   0  0  0  0  0  0  0  0  0  0  0  0
   26.9900  -19.6122   -7.1259 C   0  0  0  0  0  0  0  0  0  0  0  0
   27.0261  -18.2238   -6.9511 C   0  0  0  0  0  0  0  0  0  0  0  0
   27.7271  -17.9627   -5.8321 N   0  0  0  0  0  0  0  0  0  0  0  0
   28.1581  -19.0868   -5.2531 C   0  0  0  0  0  0  0  0  0  0  0  0
   28.8950  -19.3232   -4.1160 C   0  0  0  0  0  0  0  0  0  0  0  0
   29.1694  -20.6403   -3.7948 C   0  0  0  0  0  0  0  0  0  0  0  0
   28.7350  -21.7046   -4.5657 C   0  0  0  0  0  0  0  0  0  0  0  0
   27.9946  -21.4161   -5.7039 C   0  0  0  0  0  0  0  0  0  0  0  0
   27.7052  -20.1151   -6.0497 C   0  0  0  0  0  0  0  0  0  0  0  0
   28.5127  -21.0521   -9.2232 C   0  0  0  0  0  0  0  0  0  0  0  0
   29.6446  -20.3982   -8.7604 O   0  0  0  0  0  0  0  0  0  0  0  0
   28.6726  -22.2996   -9.4452 O   0  0  0  0  0  0  0  0  0  0  0  0
  2  1  1  1
  2  3  1  0
  4  3  1  0
  5  4  2  0
  6  7  1  0
  6  5  1  0
  7 12  2  0
  8  7  1  0
  8  9  2  0
  9 10  1  0
 10 11  2  0
 12  4  1  0
 12 11  1  0
 13 20  1  0
 13  2  1  0
 14 13  2  0
 16 15  1  0
 16 17  1  0
 17 18  1  1
 19 17  1  0
 19 20  1  6
 21 19  1  0
 21 22  2  0
 23 24  1  0
 23 21  1  0
 24 25  1  1
 26 25  1  0
 26 27  2  0
 28 27  1  0
 29 28  1  0
 30 29  2  0
 31 30  1  0
 32 31  2  0
 32 33  1  0
 33 34  2  0
 34 29  1  0
 34 26  1  0
 35 24  1  0
 35 36  1  0
 37 35  2  0
M  END
$$$$
