WIW.pdb
     RDKit          3D

 37 40  0  0  1  0  0  0  0  0999 V2000
   32.8712  -17.6104  -77.7497 N   0  0  0  0  0  0  0  0  0  0  0  0
   32.8740  -16.4611  -78.6253 C   0  0  1  0  0  0  0  0  0  0  0  0
   34.0107  -15.5601  -78.1996 C   0  0  0  0  0  0  0  0  0  0  0  0
   34.0985  -15.4321  -76.7249 C   0  0  0  0  0  0  0  0  0  0  0  0
   35.0499  -15.9499  -75.8768 C   0  0  0  0  0  0  0  0  0  0  0  0
   34.7253  -15.5769  -74.6276 N   0  0  0  0  0  0  0  0  0  0  0  0
   33.5922  -14.8349  -74.6571 C   0  0  0  0  0  0  0  0  0  0  0  0
   32.8510  -14.2161  -73.6420 C   0  0  0  0  0  0  0  0  0  0  0  0
   31.7100  -13.5008  -73.9329 C   0  0  0  0  0  0  0  0  0  0  0  0
   31.3386  -13.4261  -75.2603 C   0  0  0  0  0  0  0  0  0  0  0  0
   32.0318  -14.0135  -76.2774 C   0  0  0  0  0  0  0  0  0  0  0  0
   33.1870  -14.7344  -75.9605 C   0  0  0  0  0  0  0  0  0  0  0  0
   33.0127  -16.8965  -80.0324 C   0  0  0  0  0  0  0  0  0  0  0  0
   34.1041  -16.6302  -80.6208 O   0  0  0  0  0  0  0  0  0  0  0  0
   35.2314  -20.5944  -79.9903 C   0  0  0  0  0  0  0  0  0  0  0  0
   34.3178  -19.3674  -80.0456 C   0  0  0  0  0  0  0  0  0  0  0  0
   33.4321  -19.4187  -81.2441 C   0  0  2  0  0  0  0  0  0  0  0  0
   34.0809  -18.8532  -82.4829 C   0  0  0  0  0  0  0  0  0  0  0  0
   32.0560  -18.9848  -80.9554 C   0  0  2  0  0  0  0  0  0  0  0  0
   31.9270  -17.5816  -80.6411 N   0  0  0  0  0  0  0  0  0  0  0  0
   31.2093  -19.8664  -80.1416 C   0  0  0  0  0  0  0  0  0  0  0  0
   30.4737  -20.7724  -80.6050 O   0  0  0  0  0  0  0  0  0  0  0  0
   31.1918  -19.7103  -78.7284 N   0  0  0  0  0  0  0  0  0  0  0  0
   30.6744  -18.4821  -78.1007 C   0  0  1  0  0  0  0  0  0  0  0  0
   31.5594  -17.3040  -78.4368 C   0  0  0  0  0  0  0  0  0  0  0  0
   31.5159  -16.3099  -77.3332 C   0  0  0  0  0  0  0  0  0  0  0  0
   32.0826  -15.0300  -77.3429 C   0  0  0  0  0  0  0  0  0  0  0  0
   31.8258  -14.4515  -76.1549 N   0  0  0  0  0  0  0  0  0  0  0  0
   31.1258  -15.2636  -75.3581 C   0  0  0  0  0  0  0  0  0  0  0  0
   30.6374  -15.1181  -74.0805 C   0  0  0  0  0  0  0  0  0  0  0  0
   29.9353  -16.1803  -73.5399 C   0  0  0  0  0  0  0  0  0  0  0  0
   29.7141  -17.3596  -74.2299 C   0  0  0  0  0  0  0  0  0  0  0  0
   30.2264  -17.4595  -75.5162 C   0  0  0  0  0  0  0  0  0  0  0  0
   30.9293  -16.4192  -76.0815 C   0  0  0  0  0  0  0  0  0  0  0  0
   29.2581  -18.2815  -78.4033 C   0  0  0  0  0  0  0  0  0  0  0  0
   28.2475  -19.0484  -77.8434 O   0  0  0  0  0  0  0  0  0  0  0  0
   28.8550  -17.3782  -79.2111 O   0  0  0  0  0  0  0  0  0  0  0  0
  2  1  1  1
  2  3  1  0
  4  3  1  0
  5  4  2  0
  6  7  1  0
  6  5  1  0
  7 12  2  0
  8  7  1  0
  8  9  2  0
  9 10  1  0
 10 11  2  0
 12  4  1  0
 12 11  1  0
 13 20  1  0
 13  2  1  0
 14 13  2  0
 16 15  1  0
 16 17  1  0
 17 18  1  6
 19 17  1  0
 19 20  1  1
 21 19  1  0
 21 22  2  0
 23 24  1  0
 23 21  1  0
 24 25  1  6
 26 25  1  0
 26 27  2  0
 28 27  1  0
 29 28  1  0
 30 29  2  0
 31 30  1  0
 32 31  2  0
 32 33  1  0
 33 34  2  0
 34 29  1  0
 34 26  1  0
 35 24  1  0
 35 36  1  0
 37 35  2  0
M  END
$$$$
