WIW.pdb
     RDKit          3D

 37 40  0  0  1  0  0  0  0  0999 V2000
   23.2529  -21.9068  -16.7716 N   0  0  0  0  0  0  0  0  0  0  0  0
   23.2813  -21.1506  -15.5407 C   0  0  1  0  0  0  0  0  0  0  0  0
   22.2108  -21.7096  -14.6316 C   0  0  0  0  0  0  0  0  0  0  0  0
   20.8481  -21.4881  -15.1729 C   0  0  0  0  0  0  0  0  0  0  0  0
   19.8746  -22.4210  -15.4465 C   0  0  0  0  0  0  0  0  0  0  0  0
   18.8036  -21.7621  -15.9198 N   0  0  0  0  0  0  0  0  0  0  0  0
   19.0688  -20.4341  -15.9551 C   0  0  0  0  0  0  0  0  0  0  0  0
   18.2985  -19.3354  -16.3581 C   0  0  0  0  0  0  0  0  0  0  0  0
   18.8032  -18.0549  -16.2964 C   0  0  0  0  0  0  0  0  0  0  0  0
   20.0919  -17.9115  -15.8228 C   0  0  0  0  0  0  0  0  0  0  0  0
   20.8741  -18.9540  -15.4210 C   0  0  0  0  0  0  0  0  0  0  0  0
   20.3426  -20.2452  -15.4915 C   0  0  0  0  0  0  0  0  0  0  0  0
   24.6246  -21.2330  -14.9263 C   0  0  0  0  0  0  0  0  0  0  0  0
   25.1662  -22.3777  -14.8585 O   0  0  0  0  0  0  0  0  0  0  0  0
   28.7215  -17.7644  -15.3627 C   0  0  0  0  0  0  0  0  0  0  0  0
   27.7040  -18.8944  -15.1869 C   0  0  0  0  0  0  0  0  0  0  0  0
   27.3768  -19.0947  -13.7459 C   0  0  2  0  0  0  0  0  0  0  0  0
   28.6006  -19.1700  -12.8671 C   0  0  0  0  0  0  0  0  0  0  0  0
   26.3398  -20.1167  -13.5332 C   0  0  2  0  0  0  0  0  0  0  0  0
   25.2279  -20.0378  -14.4507 N   0  0  0  0  0  0  0  0  0  0  0  0
   25.9612  -20.4405  -12.1517 C   0  0  0  0  0  0  0  0  0  0  0  0
   24.8391  -20.1932  -11.6453 O   0  0  0  0  0  0  0  0  0  0  0  0
   26.9053  -21.0740  -11.2979 N   0  0  0  0  0  0  0  0  0  0  0  0
   26.5471  -21.4776   -9.9271 C   0  0  1  0  0  0  0  0  0  0  0  0
   27.7828  -21.5598   -9.0609 C   0  0  0  0  0  0  0  0  0  0  0  0
   27.7658  -20.4675   -8.0536 C   0  0  0  0  0  0  0  0  0  0  0  0
   26.9232  -19.3496   -8.0521 C   0  0  0  0  0  0  0  0  0  0  0  0
   27.2274  -18.6000   -6.9763 N   0  0  0  0  0  0  0  0  0  0  0  0
   28.2161  -19.1475   -6.2640 C   0  0  0  0  0  0  0  0  0  0  0  0
   28.8543  -18.7601   -5.1088 C   0  0  0  0  0  0  0  0  0  0  0  0
   29.8588  -19.5804   -4.6279 C   0  0  0  0  0  0  0  0  0  0  0  0
   30.2336  -20.7535   -5.2597 C   0  0  0  0  0  0  0  0  0  0  0  0
   29.5606  -21.1027   -6.4225 C   0  0  0  0  0  0  0  0  0  0  0  0
   28.5561  -20.3067   -6.9257 C   0  0  0  0  0  0  0  0  0  0  0  0
   25.4807  -20.6383   -9.3829 C   0  0  0  0  0  0  0  0  0  0  0  0
   25.1820  -19.3773   -9.8767 O   0  0  0  0  0  0  0  0  0  0  0  0
   24.7475  -21.0150   -8.4075 O   0  0  0  0  0  0  0  0  0  0  0  0
  2  1  1  6
  2  3  1  0
  4  3  1  0
  5  4  2  0
  6  7  1  0
  6  5  1  0
  7 12  2  0
  8  7  1  0
  8  9  2  0
  9 10  1  0
 10 11  2  0
 12  4  1  0
 12 11  1  0
 13 20  1  0
 13  2  1  0
 14 13  2  0
 16 15  1  0
 16 17  1  0
 17 18  1  1
 19 17  1  0
 19 20  1  6
 21 19  1  0
 21 22  2  0
 23 24  1  0
 23 21  1  0
 24 25  1  1
 26 25  1  0
 26 27  2  0
 28 27  1  0
 29 28  1  0
 30 29  2  0
 31 30  1  0
 32 31  2  0
 32 33  1  0
 33 34  2  0
 34 29  1  0
 34 26  1  0
 35 24  1  0
 35 36  1  0
 37 35  2  0
M  END
$$$$
