WIW.pdb
     RDKit          3D

 37 40  0  0  1  0  0  0  0  0999 V2000
   25.4204  -19.5729   -9.8763 N   0  0  0  0  0  0  0  0  0  0  0  0
   26.2299  -20.7118  -10.2441 C   0  0  1  0  0  0  0  0  0  0  0  0
   26.2584  -21.6570   -9.0649 C   0  0  0  0  0  0  0  0  0  0  0  0
   26.7317  -20.9909   -7.8275 C   0  0  0  0  0  0  0  0  0  0  0  0
   26.0508  -20.1149   -7.0139 C   0  0  0  0  0  0  0  0  0  0  0  0
   26.8745  -19.7710   -6.0097 N   0  0  0  0  0  0  0  0  0  0  0  0
   28.0622  -20.4046   -6.1616 C   0  0  0  0  0  0  0  0  0  0  0  0
   29.2370  -20.3882   -5.3986 C   0  0  0  0  0  0  0  0  0  0  0  0
   30.3330  -21.1366   -5.7685 C   0  0  0  0  0  0  0  0  0  0  0  0
   30.2158  -21.8945   -6.9162 C   0  0  0  0  0  0  0  0  0  0  0  0
   29.0910  -21.9382   -7.6864 C   0  0  0  0  0  0  0  0  0  0  0  0
   27.9901  -21.1714   -7.2930 C   0  0  0  0  0  0  0  0  0  0  0  0
   25.6762  -21.3571  -11.4548 C   0  0  0  0  0  0  0  0  0  0  0  0
   24.4865  -21.7918  -11.3921 O   0  0  0  0  0  0  0  0  0  0  0  0
   29.4894  -20.7054  -15.7644 C   0  0  0  0  0  0  0  0  0  0  0  0
   28.1476  -21.1818  -15.2023 C   0  0  0  0  0  0  0  0  0  0  0  0
   27.4983  -20.1082  -14.3966 C   0  0  2  0  0  0  0  0  0  0  0  0
   28.4790  -19.3161  -13.5681 C   0  0  0  0  0  0  0  0  0  0  0  0
   26.2719  -20.5634  -13.7228 C   0  0  2  0  0  0  0  0  0  0  0  0
   26.4990  -21.4536  -12.6091 N   0  0  0  0  0  0  0  0  0  0  0  0
   25.1170  -20.9211  -14.5563 C   0  0  0  0  0  0  0  0  0  0  0  0
   24.7352  -20.2698  -15.5597 O   0  0  0  0  0  0  0  0  0  0  0  0
   24.3517  -22.0750  -14.2332 N   0  0  0  0  0  0  0  0  0  0  0  0
   23.1456  -22.4327  -14.9997 C   0  0  1  0  0  0  0  0  0  0  0  0
   23.3993  -23.6631  -15.8398 C   0  0  0  0  0  0  0  0  0  0  0  0
   22.9629  -24.8764  -15.1011 C   0  0  0  0  0  0  0  0  0  0  0  0
   21.8835  -24.9679  -14.2145 C   0  0  0  0  0  0  0  0  0  0  0  0
   21.8277  -26.2318  -13.7549 N   0  0  0  0  0  0  0  0  0  0  0  0
   22.7990  -26.9846  -14.2787 C   0  0  0  0  0  0  0  0  0  0  0  0
   23.1392  -28.3075  -14.1171 C   0  0  0  0  0  0  0  0  0  0  0  0
   24.2276  -28.7789  -14.8288 C   0  0  0  0  0  0  0  0  0  0  0  0
   24.9689  -27.9778  -15.6800 C   0  0  0  0  0  0  0  0  0  0  0  0
   24.5872  -26.6496  -15.8104 C   0  0  0  0  0  0  0  0  0  0  0  0
   23.5082  -26.1512  -15.1151 C   0  0  0  0  0  0  0  0  0  0  0  0
   21.9689  -22.5207  -14.1364 C   0  0  0  0  0  0  0  0  0  0  0  0
   20.6724  -22.5738  -14.6256 O   0  0  0  0  0  0  0  0  0  0  0  0
   22.0587  -22.5546  -12.8629 O   0  0  0  0  0  0  0  0  0  0  0  0
  2  1  1  1
  2  3  1  0
  4  3  1  0
  5  4  2  0
  6  7  1  0
  6  5  1  0
  7 12  2  0
  8  7  1  0
  8  9  2  0
  9 10  1  0
 10 11  2  0
 12  4  1  0
 12 11  1  0
 13 20  1  0
 13  2  1  0
 14 13  2  0
 16 15  1  0
 16 17  1  0
 17 18  1  1
 19 17  1  0
 19 20  1  6
 21 19  1  0
 21 22  2  0
 23 24  1  0
 23 21  1  0
 24 25  1  1
 26 25  1  0
 26 27  2  0
 28 27  1  0
 29 28  1  0
 30 29  2  0
 31 30  1  0
 32 31  2  0
 32 33  1  0
 33 34  2  0
 34 29  1  0
 34 26  1  0
 35 24  1  0
 35 36  1  0
 37 35  2  0
M  END
$$$$
