WIW.pdb
     RDKit          3D

 37 40  0  0  1  0  0  0  0  0999 V2000
   15.1487   -4.6808   -9.9863 N   0  0  0  0  0  0  0  0  0  0  0  0
   15.9478   -4.2490  -11.1100 C   0  0  1  0  0  0  0  0  0  0  0  0
   17.3806   -4.1387  -10.6411 C   0  0  0  0  0  0  0  0  0  0  0  0
   17.5863   -2.9750   -9.7454 C   0  0  0  0  0  0  0  0  0  0  0  0
   17.3043   -2.8687   -8.4031 C   0  0  0  0  0  0  0  0  0  0  0  0
   17.6583   -1.6332   -8.0113 N   0  0  0  0  0  0  0  0  0  0  0  0
   18.1584   -0.9493   -9.0683 C   0  0  0  0  0  0  0  0  0  0  0  0
   18.6604    0.3530   -9.1887 C   0  0  0  0  0  0  0  0  0  0  0  0
   19.1217    0.8261  -10.3976 C   0  0  0  0  0  0  0  0  0  0  0  0
   19.0646   -0.0389  -11.4719 C   0  0  0  0  0  0  0  0  0  0  0  0
   18.5839   -1.3131  -11.3968 C   0  0  0  0  0  0  0  0  0  0  0  0
   18.1209   -1.7733  -10.1605 C   0  0  0  0  0  0  0  0  0  0  0  0
   15.8062   -5.2054  -12.2298 C   0  0  0  0  0  0  0  0  0  0  0  0
   15.6922   -6.4341  -11.9370 O   0  0  0  0  0  0  0  0  0  0  0  0
   13.8682   -2.9417  -15.8112 C   0  0  0  0  0  0  0  0  0  0  0  0
   13.8543   -4.4723  -15.7972 C   0  0  0  0  0  0  0  0  0  0  0  0
   15.2369   -5.0169  -15.9200 C   0  0  2  0  0  0  0  0  0  0  0  0
   15.4504   -5.8072  -17.1872 C   0  0  0  0  0  0  0  0  0  0  0  0
   15.7264   -5.6183  -14.6694 C   0  0  2  0  0  0  0  0  0  0  0  0
   15.8057   -4.7004  -13.5578 N   0  0  0  0  0  0  0  0  0  0  0  0
   16.8438   -6.5678  -14.7497 C   0  0  0  0  0  0  0  0  0  0  0  0
   18.0563   -6.2446  -14.7042 O   0  0  0  0  0  0  0  0  0  0  0  0
   16.5729   -7.9561  -14.8935 N   0  0  0  0  0  0  0  0  0  0  0  0
   17.6536   -8.9240  -15.1494 C   0  0  1  0  0  0  0  0  0  0  0  0
   17.6634   -9.9980  -14.0861 C   0  0  0  0  0  0  0  0  0  0  0  0
   17.4817  -11.3318  -14.7153 C   0  0  0  0  0  0  0  0  0  0  0  0
   18.4957  -12.1805  -15.1749 C   0  0  0  0  0  0  0  0  0  0  0  0
   17.9169  -13.2860  -15.6797 N   0  0  0  0  0  0  0  0  0  0  0  0
   16.5858  -13.2264  -15.5848 C   0  0  0  0  0  0  0  0  0  0  0  0
   15.5876  -14.0980  -15.9534 C   0  0  0  0  0  0  0  0  0  0  0  0
   14.2818  -13.7170  -15.7025 C   0  0  0  0  0  0  0  0  0  0  0  0
   13.9556  -12.5118  -15.1052 C   0  0  0  0  0  0  0  0  0  0  0  0
   14.9972  -11.6653  -14.7509 C   0  0  0  0  0  0  0  0  0  0  0  0
   16.3073  -12.0168  -14.9876 C   0  0  0  0  0  0  0  0  0  0  0  0
   17.6063   -9.4296  -16.5204 C   0  0  0  0  0  0  0  0  0  0  0  0
   18.7082   -9.9671  -17.1684 O   0  0  0  0  0  0  0  0  0  0  0  0
   16.5368   -9.4089  -17.2181 O   0  0  0  0  0  0  0  0  0  0  0  0
  2  1  1  1
  2  3  1  0
  4  3  1  0
  5  4  2  0
  6  7  1  0
  6  5  1  0
  7 12  2  0
  8  7  1  0
  8  9  2  0
  9 10  1  0
 10 11  2  0
 12  4  1  0
 12 11  1  0
 13 20  1  0
 13  2  1  0
 14 13  2  0
 16 15  1  0
 16 17  1  0
 17 18  1  6
 19 17  1  0
 19 20  1  1
 21 19  1  0
 21 22  2  0
 23 24  1  0
 23 21  1  0
 24 25  1  1
 26 25  1  0
 26 27  2  0
 28 27  1  0
 29 28  1  0
 30 29  2  0
 31 30  1  0
 32 31  2  0
 32 33  1  0
 33 34  2  0
 34 29  1  0
 34 26  1  0
 35 24  1  0
 35 36  1  0
 37 35  2  0
M  END
$$$$
