WIW.pdb
     RDKit          3D

 37 40  0  0  1  0  0  0  0  0999 V2000
   24.4834  -18.3564  -21.3006 N   0  0  0  0  0  0  0  0  0  0  0  0
   23.9857  -17.5420  -20.2159 C   0  0  1  0  0  0  0  0  0  0  0  0
   22.5407  -17.2121  -20.5127 C   0  0  0  0  0  0  0  0  0  0  0  0
   22.4052  -16.2826  -21.6601 C   0  0  0  0  0  0  0  0  0  0  0  0
   22.6476  -16.5274  -22.9921 C   0  0  0  0  0  0  0  0  0  0  0  0
   22.3885  -15.3942  -23.6659 N   0  0  0  0  0  0  0  0  0  0  0  0
   21.9874  -14.4339  -22.7988 C   0  0  0  0  0  0  0  0  0  0  0  0
   21.6050  -13.0997  -22.9898 C   0  0  0  0  0  0  0  0  0  0  0  0
   21.2296  -12.3104  -21.9247 C   0  0  0  0  0  0  0  0  0  0  0  0
   21.2495  -12.8946  -20.6742 C   0  0  0  0  0  0  0  0  0  0  0  0
   21.6148  -14.1887  -20.4458 C   0  0  0  0  0  0  0  0  0  0  0  0
   21.9920  -14.9723  -21.5405 C   0  0  0  0  0  0  0  0  0  0  0  0
   24.1344  -18.2621  -18.9321 C   0  0  0  0  0  0  0  0  0  0  0  0
   23.9609  -19.5183  -18.9441 O   0  0  0  0  0  0  0  0  0  0  0  0
   28.3720  -18.3275  -16.1371 C   0  0  0  0  0  0  0  0  0  0  0  0
   27.0115  -18.3974  -16.8354 C   0  0  0  0  0  0  0  0  0  0  0  0
   25.9080  -18.0957  -15.8791 C   0  0  2  0  0  0  0  0  0  0  0  0
   26.0878  -18.7648  -14.5391 C   0  0  0  0  0  0  0  0  0  0  0  0
   24.5759  -18.1895  -16.4973 C   0  0  2  0  0  0  0  0  0  0  0  0
   24.4598  -17.5147  -17.7684 N   0  0  0  0  0  0  0  0  0  0  0  0
   23.3995  -18.0496  -15.6295 C   0  0  0  0  0  0  0  0  0  0  0  0
   23.0024  -16.9640  -15.1393 O   0  0  0  0  0  0  0  0  0  0  0  0
   22.6355  -19.2014  -15.2959 N   0  0  0  0  0  0  0  0  0  0  0  0
   21.3942  -19.0950  -14.5098 C   0  0  1  0  0  0  0  0  0  0  0  0
   20.4227  -18.1522  -15.1817 C   0  0  0  0  0  0  0  0  0  0  0  0
   19.8776  -18.7827  -16.4119 C   0  0  0  0  0  0  0  0  0  0  0  0
   19.2744  -20.0426  -16.5044 C   0  0  0  0  0  0  0  0  0  0  0  0
   18.9234  -20.2433  -17.7882 N   0  0  0  0  0  0  0  0  0  0  0  0
   19.2539  -19.1993  -18.5533 C   0  0  0  0  0  0  0  0  0  0  0  0
   19.0995  -18.9451  -19.8962 C   0  0  0  0  0  0  0  0  0  0  0  0
   19.5633  -17.7329  -20.3745 C   0  0  0  0  0  0  0  0  0  0  0  0
   20.1652  -16.7885  -19.5612 C   0  0  0  0  0  0  0  0  0  0  0  0
   20.2988  -17.0902  -18.2129 C   0  0  0  0  0  0  0  0  0  0  0  0
   19.8467  -18.2884  -17.7070 C   0  0  0  0  0  0  0  0  0  0  0  0
   20.8424  -20.4127  -14.1988 C   0  0  0  0  0  0  0  0  0  0  0  0
   19.7853  -20.6041  -13.3219 O   0  0  0  0  0  0  0  0  0  0  0  0
   21.3025  -21.4845  -14.7191 O   0  0  0  0  0  0  0  0  0  0  0  0
  2  1  1  6
  2  3  1  0
  4  3  1  0
  5  4  2  0
  6  7  1  0
  6  5  1  0
  7 12  2  0
  8  7  1  0
  8  9  2  0
  9 10  1  0
 10 11  2  0
 12  4  1  0
 12 11  1  0
 13 20  1  0
 13  2  1  0
 14 13  2  0
 16 15  1  0
 16 17  1  0
 17 18  1  1
 19 17  1  0
 19 20  1  6
 21 19  1  0
 21 22  2  0
 23 24  1  0
 23 21  1  0
 24 25  1  6
 26 25  1  0
 26 27  2  0
 28 27  1  0
 29 28  1  0
 30 29  2  0
 31 30  1  0
 32 31  2  0
 32 33  1  0
 33 34  2  0
 34 29  1  0
 34 26  1  0
 35 24  1  0
 35 36  1  0
 37 35  2  0
M  END
$$$$
