WIW.pdb
     RDKit          3D

 37 40  0  0  1  0  0  0  0  0999 V2000
   22.5321  -19.5214  -16.9200 N   0  0  0  0  0  0  0  0  0  0  0  0
   23.3237  -18.8650  -15.9050 C   0  0  1  0  0  0  0  0  0  0  0  0
   22.4558  -18.7007  -14.6784 C   0  0  0  0  0  0  0  0  0  0  0  0
   21.2805  -17.8349  -14.9388 C   0  0  0  0  0  0  0  0  0  0  0  0
   19.9622  -18.2023  -15.0797 C   0  0  0  0  0  0  0  0  0  0  0  0
   19.2514  -17.0841  -15.3022 N   0  0  0  0  0  0  0  0  0  0  0  0
   20.0817  -16.0137  -15.3067 C   0  0  0  0  0  0  0  0  0  0  0  0
   19.8449  -14.6452  -15.4903 C   0  0  0  0  0  0  0  0  0  0  0  0
   20.8783  -13.7349  -15.4478 C   0  0  0  0  0  0  0  0  0  0  0  0
   22.1443  -14.2345  -15.2178 C   0  0  0  0  0  0  0  0  0  0  0  0
   22.4170  -15.5582  -15.0341 C   0  0  0  0  0  0  0  0  0  0  0  0
   21.3539  -16.4651  -15.0809 C   0  0  0  0  0  0  0  0  0  0  0  0
   24.5390  -19.6585  -15.6183 C   0  0  0  0  0  0  0  0  0  0  0  0
   24.5084  -20.8948  -15.8992 O   0  0  0  0  0  0  0  0  0  0  0  0
   29.3422  -17.1611  -16.3520 C   0  0  0  0  0  0  0  0  0  0  0  0
   28.0934  -18.0429  -16.2735 C   0  0  0  0  0  0  0  0  0  0  0  0
   28.1090  -18.8765  -15.0372 C   0  0  2  0  0  0  0  0  0  0  0  0
   29.4390  -19.5448  -14.7920 C   0  0  0  0  0  0  0  0  0  0  0  0
   26.9070  -19.7139  -14.8986 C   0  0  2  0  0  0  0  0  0  0  0  0
   25.6618  -18.9990  -15.0500 N   0  0  0  0  0  0  0  0  0  0  0  0
   26.8932  -20.7344  -13.8426 C   0  0  0  0  0  0  0  0  0  0  0  0
   27.6687  -21.7208  -13.7968 O   0  0  0  0  0  0  0  0  0  0  0  0
   25.9479  -20.6341  -12.7854 N   0  0  0  0  0  0  0  0  0  0  0  0
   25.8058  -21.7033  -11.7819 C   0  0  1  0  0  0  0  0  0  0  0  0
   27.0777  -21.8455  -10.9781 C   0  0  0  0  0  0  0  0  0  0  0  0
   27.1103  -20.8224   -9.9010 C   0  0  0  0  0  0  0  0  0  0  0  0
   26.3174  -19.6715   -9.8219 C   0  0  0  0  0  0  0  0  0  0  0  0
   26.6560  -19.0084   -8.7005 N   0  0  0  0  0  0  0  0  0  0  0  0
   27.6212  -19.6441   -8.0306 C   0  0  0  0  0  0  0  0  0  0  0  0
   28.2780  -19.3618   -6.8555 C   0  0  0  0  0  0  0  0  0  0  0  0
   29.2466  -20.2550   -6.4344 C   0  0  0  0  0  0  0  0  0  0  0  0
   29.5687  -21.3990   -7.1439 C   0  0  0  0  0  0  0  0  0  0  0  0
   28.8788  -21.6411   -8.3239 C   0  0  0  0  0  0  0  0  0  0  0  0
   27.9091  -20.7708   -8.7688 C   0  0  0  0  0  0  0  0  0  0  0  0
   24.5977  -21.5261  -10.9777 C   0  0  0  0  0  0  0  0  0  0  0  0
   23.7149  -20.4720  -11.1582 O   0  0  0  0  0  0  0  0  0  0  0  0
   24.2732  -22.3382  -10.0470 O   0  0  0  0  0  0  0  0  0  0  0  0
  2  1  1  6
  2  3  1  0
  4  3  1  0
  5  4  2  0
  6  7  1  0
  6  5  1  0
  7 12  2  0
  8  7  1  0
  8  9  2  0
  9 10  1  0
 10 11  2  0
 12  4  1  0
 12 11  1  0
 13 20  1  0
 13  2  1  0
 14 13  2  0
 16 15  1  0
 16 17  1  0
 17 18  1  6
 19 17  1  0
 19 20  1  1
 21 19  1  0
 21 22  2  0
 23 24  1  0
 23 21  1  0
 24 25  1  1
 26 25  1  0
 26 27  2  0
 28 27  1  0
 29 28  1  0
 30 29  2  0
 31 30  1  0
 32 31  2  0
 32 33  1  0
 33 34  2  0
 34 29  1  0
 34 26  1  0
 35 24  1  0
 35 36  1  0
 37 35  2  0
M  END
$$$$
