MWM.pdb
     RDKit          3D

 31 32  0  0  1  0  0  0  0  0999 V2000
    8.7777  -12.2911   18.1312 C   0  0  0  0  0  0  0  0  0  0  0  0
    7.8663  -13.6350   17.3234 S   0  0  0  0  0  0  0  0  0  0  0  0
    8.0611  -15.1795   18.2602 C   0  0  0  0  0  0  0  0  0  0  0  0
    8.7275  -14.8801   19.6059 C   0  0  0  0  0  0  0  0  0  0  0  0
    9.0641  -16.1750   20.3190 C   0  0  2  0  0  0  0  0  0  0  0  0
    7.9227  -17.0486   20.4041 N   0  0  0  0  0  0  0  0  0  0  0  0
    9.5557  -15.7841   21.6782 C   0  0  0  0  0  0  0  0  0  0  0  0
   10.5600  -15.0699   21.8452 O   0  0  0  0  0  0  0  0  0  0  0  0
    8.8558  -16.2417   22.7960 N   0  0  0  0  0  0  0  0  0  0  0  0
    9.0411  -15.7260   24.1707 C   0  0  1  0  0  0  0  0  0  0  0  0
    7.9706  -16.2327   25.0441 C   0  0  0  0  0  0  0  0  0  0  0  0
    7.0119  -15.2558   25.5714 C   0  0  0  0  0  0  0  0  0  0  0  0
    5.7066  -15.5719   25.9595 C   0  0  0  0  0  0  0  0  0  0  0  0
    5.1427  -14.4260   26.3534 N   0  0  0  0  0  0  0  0  0  0  0  0
    5.9886  -13.3896   26.2493 C   0  0  0  0  0  0  0  0  0  0  0  0
    5.8524  -12.0298   26.5503 C   0  0  0  0  0  0  0  0  0  0  0  0
    6.9505  -11.2002   26.3395 C   0  0  0  0  0  0  0  0  0  0  0  0
    8.1110  -11.7391   25.8504 C   0  0  0  0  0  0  0  0  0  0  0  0
    8.2685  -13.0768   25.5455 C   0  0  0  0  0  0  0  0  0  0  0  0
    7.1750  -13.8837   25.7587 C   0  0  0  0  0  0  0  0  0  0  0  0
   10.4391  -15.9002   24.5012 C   0  0  0  0  0  0  0  0  0  0  0  0
   11.1824  -14.8505   24.6315 O   0  0  0  0  0  0  0  0  0  0  0  0
   11.6205  -14.2766   28.8554 C   0  0  0  0  0  0  0  0  0  0  0  0
   11.2358  -15.8649   29.6379 S   0  0  0  0  0  0  0  0  0  0  0  0
   11.6610  -17.1955   28.5055 C   0  0  0  0  0  0  0  0  0  0  0  0
   11.0374  -17.1050   27.1531 C   0  0  0  0  0  0  0  0  0  0  0  0
   11.8812  -17.3752   25.9813 C   0  0  2  0  0  0  0  0  0  0  0  0
   11.1412  -17.1211   24.7229 N   0  0  0  0  0  0  0  0  0  0  0  0
   12.6038  -18.6412   25.8845 C   0  0  0  0  0  0  0  0  0  0  0  0
   12.5427  -19.5012   24.8181 O   0  0  0  0  0  0  0  0  0  0  0  0
   13.3579  -19.0202   26.8463 O   0  0  0  0  0  0  0  0  0  0  0  0
  1  2  1  0
  3  2  1  0
  4  3  1  0
  5  4  1  0
  5  6  1  1
  7  5  1  0
  8  7  2  0
  9  7  1  0
 10  9  1  0
 11 12  1  0
 10 11  1  1
 12 13  2  0
 12 20  1  0
 13 14  1  0
 14 15  1  0
 15 16  2  0
 16 17  1  0
 18 17  2  0
 19 18  1  0
 20 19  2  0
 20 15  1  0
 21 10  1  0
 21 22  2  0
 23 24  1  0
 24 25  1  0
 25 26  1  0
 27 26  1  1
 27 28  1  0
 28 21  1  0
 29 27  1  0
 30 29  1  0
 31 29  2  0
M  END
$$$$
