MWM.pdb
     RDKit          3D

 31 32  0  0  1  0  0  0  0  0999 V2000
    7.4341  -12.8660   18.3738 C   0  0  0  0  0  0  0  0  0  0  0  0
    8.0927  -13.8731   17.0169 S   0  0  0  0  0  0  0  0  0  0  0  0
    8.8160  -15.4082   17.6661 C   0  0  0  0  0  0  0  0  0  0  0  0
    9.6829  -15.0879   18.8871 C   0  0  0  0  0  0  0  0  0  0  0  0
   10.1726  -16.3715   19.5283 C   0  0  2  0  0  0  0  0  0  0  0  0
    9.2795  -17.4708   19.2693 N   0  0  0  0  0  0  0  0  0  0  0  0
   10.2794  -16.0879   20.9946 C   0  0  0  0  0  0  0  0  0  0  0  0
   11.1207  -15.3008   21.4630 O   0  0  0  0  0  0  0  0  0  0  0  0
    9.3984  -16.7344   21.8632 N   0  0  0  0  0  0  0  0  0  0  0  0
    9.0026  -16.2194   23.1930 C   0  0  1  0  0  0  0  0  0  0  0  0
    7.6099  -15.7460   23.1524 C   0  0  0  0  0  0  0  0  0  0  0  0
    7.3535  -14.3680   23.5847 C   0  0  0  0  0  0  0  0  0  0  0  0
    7.5012  -13.2492   22.7597 C   0  0  0  0  0  0  0  0  0  0  0  0
    7.2064  -12.1847   23.5121 N   0  0  0  0  0  0  0  0  0  0  0  0
    6.8773  -12.5328   24.7655 C   0  0  0  0  0  0  0  0  0  0  0  0
    6.4894  -11.7806   25.8800 C   0  0  0  0  0  0  0  0  0  0  0  0
    6.1923  -12.4617   27.0574 C   0  0  0  0  0  0  0  0  0  0  0  0
    6.2897  -13.8279   27.0818 C   0  0  0  0  0  0  0  0  0  0  0  0
    6.6709  -14.5908   25.9956 C   0  0  0  0  0  0  0  0  0  0  0  0
    6.9615  -13.9038   24.8397 C   0  0  0  0  0  0  0  0  0  0  0  0
    9.4484  -17.1892   24.1702 C   0  0  0  0  0  0  0  0  0  0  0  0
   10.0499  -18.2563   23.7570 O   0  0  0  0  0  0  0  0  0  0  0  0
    9.9326  -14.3728   30.1800 C   0  0  0  0  0  0  0  0  0  0  0  0
   11.5879  -14.5074   29.4553 S   0  0  0  0  0  0  0  0  0  0  0  0
   11.6424  -15.9473   28.3794 C   0  0  0  0  0  0  0  0  0  0  0  0
   10.6085  -15.9788   27.3042 C   0  0  0  0  0  0  0  0  0  0  0  0
   10.5027  -17.1901   26.4798 C   0  0  2  0  0  0  0  0  0  0  0  0
    9.3205  -17.1256   25.5888 N   0  0  0  0  0  0  0  0  0  0  0  0
   10.5766  -18.5056   27.1110 C   0  0  0  0  0  0  0  0  0  0  0  0
   11.7202  -19.0747   27.6097 O   0  0  0  0  0  0  0  0  0  0  0  0
    9.5204  -19.2193   27.2231 O   0  0  0  0  0  0  0  0  0  0  0  0
  1  2  1  0
  3  2  1  0
  4  3  1  0
  5  4  1  0
  5  6  1  1
  7  5  1  0
  8  7  2  0
  9  7  1  0
 10  9  1  0
 11 12  1  0
 10 11  1  6
 12 13  2  0
 12 20  1  0
 13 14  1  0
 14 15  1  0
 15 16  2  0
 16 17  1  0
 18 17  2  0
 19 18  1  0
 20 19  2  0
 20 15  1  0
 21 10  1  0
 21 22  2  0
 23 24  1  0
 24 25  1  0
 25 26  1  0
 27 26  1  1
 27 28  1  0
 28 21  1  0
 29 27  1  0
 30 29  1  0
 31 29  2  0
M  END
$$$$
