MWM.pdb
     RDKit          3D

 31 32  0  0  1  0  0  0  0  0999 V2000
    7.5993  -12.5068   17.6657 C   0  0  0  0  0  0  0  0  0  0  0  0
    8.1809  -13.7981   16.5328 S   0  0  0  0  0  0  0  0  0  0  0  0
    8.5448  -15.3233   17.4505 C   0  0  0  0  0  0  0  0  0  0  0  0
    9.6711  -15.0594   18.4538 C   0  0  0  0  0  0  0  0  0  0  0  0
    9.9296  -16.3014   19.2840 C   0  0  2  0  0  0  0  0  0  0  0  0
    8.9256  -17.3091   19.0618 N   0  0  0  0  0  0  0  0  0  0  0  0
    9.9445  -15.8501   20.7116 C   0  0  0  0  0  0  0  0  0  0  0  0
   10.6995  -14.9500   21.1195 O   0  0  0  0  0  0  0  0  0  0  0  0
    9.0755  -16.4667   21.6134 N   0  0  0  0  0  0  0  0  0  0  0  0
    8.8420  -16.0074   23.0007 C   0  0  1  0  0  0  0  0  0  0  0  0
    7.5651  -16.5442   23.4976 C   0  0  0  0  0  0  0  0  0  0  0  0
    6.8816  -15.7891   24.5532 C   0  0  0  0  0  0  0  0  0  0  0  0
    5.7709  -16.2613   25.2586 C   0  0  0  0  0  0  0  0  0  0  0  0
    5.4211  -15.2884   26.1056 N   0  0  0  0  0  0  0  0  0  0  0  0
    6.2256  -14.2197   26.0008 C   0  0  0  0  0  0  0  0  0  0  0  0
    6.2560  -12.9948   26.6768 C   0  0  0  0  0  0  0  0  0  0  0  0
    7.2530  -12.0846   26.3365 C   0  0  0  0  0  0  0  0  0  0  0  0
    8.1577  -12.4173   25.3632 C   0  0  0  0  0  0  0  0  0  0  0  0
    8.1470  -13.6189   24.6823 C   0  0  0  0  0  0  0  0  0  0  0  0
    7.1559  -14.5076   25.0293 C   0  0  0  0  0  0  0  0  0  0  0  0
   10.0811  -16.2006   23.7228 C   0  0  0  0  0  0  0  0  0  0  0  0
   10.8107  -17.2299   23.4407 O   0  0  0  0  0  0  0  0  0  0  0  0
   11.4421  -13.3563   30.2594 C   0  0  0  0  0  0  0  0  0  0  0  0
   10.4687  -14.8444   29.9113 S   0  0  0  0  0  0  0  0  0  0  0  0
   11.1915  -15.7034   28.5065 C   0  0  0  0  0  0  0  0  0  0  0  0
   10.7309  -15.2345   27.1671 C   0  0  0  0  0  0  0  0  0  0  0  0
   11.2187  -15.9462   25.9782 C   0  0  2  0  0  0  0  0  0  0  0  0
   10.6402  -15.3730   24.7403 N   0  0  0  0  0  0  0  0  0  0  0  0
   11.1513  -17.4048   25.9277 C   0  0  0  0  0  0  0  0  0  0  0  0
   12.1797  -18.2507   26.2554 O   0  0  0  0  0  0  0  0  0  0  0  0
   10.0732  -17.9806   25.5487 O   0  0  0  0  0  0  0  0  0  0  0  0
  1  2  1  0
  3  2  1  0
  4  3  1  0
  5  4  1  0
  5  6  1  1
  7  5  1  0
  8  7  2  0
  9  7  1  0
 10  9  1  0
 11 12  1  0
 10 11  1  1
 12 13  2  0
 12 20  1  0
 13 14  1  0
 14 15  1  0
 15 16  2  0
 16 17  1  0
 18 17  2  0
 19 18  1  0
 20 19  2  0
 20 15  1  0
 21 10  1  0
 21 22  2  0
 23 24  1  0
 24 25  1  0
 25 26  1  0
 27 26  1  1
 27 28  1  0
 28 21  1  0
 29 27  1  0
 30 29  1  0
 31 29  2  0
M  END
$$$$
