MWM.pdb
     RDKit          3D

 31 32  0  0  1  0  0  0  0  0999 V2000
    7.2771  -11.8200   19.8451 C   0  0  0  0  0  0  0  0  0  0  0  0
    7.5686  -12.9127   18.4273 S   0  0  0  0  0  0  0  0  0  0  0  0
    7.9867  -14.5862   18.9980 C   0  0  0  0  0  0  0  0  0  0  0  0
    8.6404  -14.5060   20.3804 C   0  0  0  0  0  0  0  0  0  0  0  0
    9.0832  -15.8855   20.8270 C   0  0  2  0  0  0  0  0  0  0  0  0
    7.9940  -16.8269   20.8078 N   0  0  0  0  0  0  0  0  0  0  0  0
    9.6353  -15.7167   22.2084 C   0  0  0  0  0  0  0  0  0  0  0  0
   10.6432  -15.0274   22.4452 O   0  0  0  0  0  0  0  0  0  0  0  0
    8.9898  -16.3594   23.2662 N   0  0  0  0  0  0  0  0  0  0  0  0
    9.4623  -16.3478   24.6686 C   0  0  1  0  0  0  0  0  0  0  0  0
    8.3531  -16.6889   25.5735 C   0  0  0  0  0  0  0  0  0  0  0  0
    7.3805  -15.6333   25.8754 C   0  0  0  0  0  0  0  0  0  0  0  0
    6.0144  -15.8599   26.0669 C   0  0  0  0  0  0  0  0  0  0  0  0
    5.4618  -14.6637   26.2905 N   0  0  0  0  0  0  0  0  0  0  0  0
    6.3714  -13.6778   26.2586 C   0  0  0  0  0  0  0  0  0  0  0  0
    6.2673  -12.2949   26.4462 C   0  0  0  0  0  0  0  0  0  0  0  0
    7.4304  -11.5343   26.3631 C   0  0  0  0  0  0  0  0  0  0  0  0
    8.6210  -12.1601   26.1034 C   0  0  0  0  0  0  0  0  0  0  0  0
    8.7480  -13.5223   25.9140 C   0  0  0  0  0  0  0  0  0  0  0  0
    7.5902  -14.2603   25.9987 C   0  0  0  0  0  0  0  0  0  0  0  0
   10.7165  -17.0691   24.6967 C   0  0  0  0  0  0  0  0  0  0  0  0
   11.3876  -17.1060   25.8010 O   0  0  0  0  0  0  0  0  0  0  0  0
   12.2930  -23.2756   23.9073 C   0  0  0  0  0  0  0  0  0  0  0  0
   13.4666  -22.4579   22.7950 S   0  0  0  0  0  0  0  0  0  0  0  0
   13.7139  -20.7639   23.3450 C   0  0  0  0  0  0  0  0  0  0  0  0
   12.5057  -19.8908   23.2824 C   0  0  0  0  0  0  0  0  0  0  0  0
   12.6030  -18.5323   23.8330 C   0  0  2  0  0  0  0  0  0  0  0  0
   11.3392  -17.7852   23.6326 N   0  0  0  0  0  0  0  0  0  0  0  0
   13.7404  -17.6862   23.4794 C   0  0  0  0  0  0  0  0  0  0  0  0
   13.9967  -17.1988   22.2235 O   0  0  0  0  0  0  0  0  0  0  0  0
   14.5913  -17.3546   24.3757 O   0  0  0  0  0  0  0  0  0  0  0  0
  1  2  1  0
  3  2  1  0
  4  3  1  0
  5  4  1  0
  5  6  1  1
  7  5  1  0
  8  7  2  0
  9  7  1  0
 10  9  1  0
 11 12  1  0
 10 11  1  1
 12 13  2  0
 12 20  1  0
 13 14  1  0
 14 15  1  0
 15 16  2  0
 16 17  1  0
 18 17  2  0
 19 18  1  0
 20 19  2  0
 20 15  1  0
 21 10  1  0
 21 22  2  0
 23 24  1  0
 24 25  1  0
 25 26  1  0
 27 26  1  6
 27 28  1  0
 28 21  1  0
 29 27  1  0
 30 29  1  0
 31 29  2  0
M  END
$$$$
