MWM.pdb
     RDKit          3D

 31 32  0  0  1  0  0  0  0  0999 V2000
    8.3322  -11.7595   19.2295 C   0  0  0  0  0  0  0  0  0  0  0  0
    7.4124  -12.9923   18.2686 S   0  0  0  0  0  0  0  0  0  0  0  0
    7.7862  -14.6656   18.8697 C   0  0  0  0  0  0  0  0  0  0  0  0
    8.4891  -14.5755   20.2271 C   0  0  0  0  0  0  0  0  0  0  0  0
    8.8981  -15.9589   20.6937 C   0  0  2  0  0  0  0  0  0  0  0  0
    7.7685  -16.8474   20.7803 N   0  0  0  0  0  0  0  0  0  0  0  0
    9.5488  -15.7705   22.0289 C   0  0  0  0  0  0  0  0  0  0  0  0
   10.4784  -14.9645   22.2110 O   0  0  0  0  0  0  0  0  0  0  0  0
    9.0902  -16.5309   23.1060 N   0  0  0  0  0  0  0  0  0  0  0  0
    9.6480  -16.4678   24.4752 C   0  0  1  0  0  0  0  0  0  0  0  0
    8.5727  -16.6515   25.4629 C   0  0  0  0  0  0  0  0  0  0  0  0
    7.4569  -15.7000   25.4295 C   0  0  0  0  0  0  0  0  0  0  0  0
    6.1165  -16.0710   25.2883 C   0  0  0  0  0  0  0  0  0  0  0  0
    5.4109  -14.9360   25.2740 N   0  0  0  0  0  0  0  0  0  0  0  0
    6.1973  -13.8557   25.3966 C   0  0  0  0  0  0  0  0  0  0  0  0
    5.9139  -12.4862   25.4460 C   0  0  0  0  0  0  0  0  0  0  0  0
    6.9792  -11.6031   25.6000 C   0  0  0  0  0  0  0  0  0  0  0  0
    8.2516  -12.1013   25.6962 C   0  0  0  0  0  0  0  0  0  0  0  0
    8.5554  -13.4477   25.6492 C   0  0  0  0  0  0  0  0  0  0  0  0
    7.4926  -14.3077   25.4964 C   0  0  0  0  0  0  0  0  0  0  0  0
   10.8378  -17.2913   24.4839 C   0  0  0  0  0  0  0  0  0  0  0  0
   10.7401  -18.5283   24.1212 O   0  0  0  0  0  0  0  0  0  0  0  0
    9.7500  -14.6891   29.6317 C   0  0  0  0  0  0  0  0  0  0  0  0
   11.5342  -14.4779   29.3968 S   0  0  0  0  0  0  0  0  0  0  0  0
   12.1840  -15.9067   28.5195 C   0  0  0  0  0  0  0  0  0  0  0  0
   12.0351  -15.8651   27.0355 C   0  0  0  0  0  0  0  0  0  0  0  0
   12.6316  -16.9526   26.2484 C   0  0  2  0  0  0  0  0  0  0  0  0
   12.1641  -16.9105   24.8429 N   0  0  0  0  0  0  0  0  0  0  0  0
   12.5765  -18.3243   26.7482 C   0  0  0  0  0  0  0  0  0  0  0  0
   13.6460  -19.0219   27.2484 O   0  0  0  0  0  0  0  0  0  0  0  0
   11.4689  -18.9649   26.7318 O   0  0  0  0  0  0  0  0  0  0  0  0
  1  2  1  0
  3  2  1  0
  4  3  1  0
  5  4  1  0
  5  6  1  1
  7  5  1  0
  8  7  2  0
  9  7  1  0
 10  9  1  0
 11 12  1  0
 10 11  1  1
 12 13  2  0
 12 20  1  0
 13 14  1  0
 14 15  1  0
 15 16  2  0
 16 17  1  0
 18 17  2  0
 19 18  1  0
 20 19  2  0
 20 15  1  0
 21 10  1  0
 21 22  2  0
 23 24  1  0
 24 25  1  0
 25 26  1  0
 27 26  1  1
 27 28  1  0
 28 21  1  0
 29 27  1  0
 30 29  1  0
 31 29  2  0
M  END
$$$$
