MWM.pdb
     RDKit          3D

 31 32  0  0  1  0  0  0  0  0999 V2000
    8.0641  -11.8752   18.7590 C   0  0  0  0  0  0  0  0  0  0  0  0
    7.2737  -13.2457   17.8725 S   0  0  0  0  0  0  0  0  0  0  0  0
    7.9086  -14.8366   18.4783 C   0  0  0  0  0  0  0  0  0  0  0  0
    9.3684  -14.6727   18.9106 C   0  0  0  0  0  0  0  0  0  0  0  0
    9.8294  -15.9056   19.6631 C   0  0  2  0  0  0  0  0  0  0  0  0
    8.9556  -17.0269   19.4346 N   0  0  0  0  0  0  0  0  0  0  0  0
    9.8586  -15.5213   21.1099 C   0  0  0  0  0  0  0  0  0  0  0  0
   10.6376  -14.6610   21.5568 O   0  0  0  0  0  0  0  0  0  0  0  0
    8.9755  -16.1562   21.9850 N   0  0  0  0  0  0  0  0  0  0  0  0
    8.7796  -15.7756   23.4016 C   0  0  1  0  0  0  0  0  0  0  0  0
    7.3424  -15.6517   23.6926 C   0  0  0  0  0  0  0  0  0  0  0  0
    6.9633  -15.1940   25.0336 C   0  0  0  0  0  0  0  0  0  0  0  0
    6.4495  -16.0301   26.0292 C   0  0  0  0  0  0  0  0  0  0  0  0
    6.2028  -15.2500   27.0861 N   0  0  0  0  0  0  0  0  0  0  0  0
    6.5205  -13.9683   26.8477 C   0  0  0  0  0  0  0  0  0  0  0  0
    6.4512  -12.8182   27.6419 C   0  0  0  0  0  0  0  0  0  0  0  0
    6.8847  -11.6156   27.0905 C   0  0  0  0  0  0  0  0  0  0  0  0
    7.3578  -11.6020   25.8050 C   0  0  0  0  0  0  0  0  0  0  0  0
    7.4349  -12.7233   25.0024 C   0  0  0  0  0  0  0  0  0  0  0  0
    7.0025  -13.9038   25.5610 C   0  0  0  0  0  0  0  0  0  0  0  0
    9.6450  -16.6262   24.1900 C   0  0  0  0  0  0  0  0  0  0  0  0
    9.7731  -17.8672   23.8512 O   0  0  0  0  0  0  0  0  0  0  0  0
   15.6515  -15.6346   23.2466 C   0  0  0  0  0  0  0  0  0  0  0  0
   15.0334  -16.0262   24.9042 S   0  0  0  0  0  0  0  0  0  0  0  0
   13.3171  -16.5485   24.7825 C   0  0  0  0  0  0  0  0  0  0  0  0
   12.6547  -16.8681   26.0806 C   0  0  0  0  0  0  0  0  0  0  0  0
   11.2410  -17.2668   26.0577 C   0  0  2  0  0  0  0  0  0  0  0  0
   10.4185  -16.2695   25.3334 N   0  0  0  0  0  0  0  0  0  0  0  0
   10.5752  -17.6497   27.3005 C   0  0  0  0  0  0  0  0  0  0  0  0
   10.9475  -18.6999   28.1000 O   0  0  0  0  0  0  0  0  0  0  0  0
    9.5597  -16.9877   27.7101 O   0  0  0  0  0  0  0  0  0  0  0  0
  1  2  1  0
  3  2  1  0
  4  3  1  0
  5  4  1  0
  5  6  1  1
  7  5  1  0
  8  7  2  0
  9  7  1  0
 10  9  1  0
 11 12  1  0
 10 11  1  1
 12 13  2  0
 12 20  1  0
 13 14  1  0
 14 15  1  0
 15 16  2  0
 16 17  1  0
 18 17  2  0
 19 18  1  0
 20 19  2  0
 20 15  1  0
 21 10  1  0
 21 22  2  0
 23 24  1  0
 24 25  1  0
 25 26  1  0
 27 26  1  1
 27 28  1  0
 28 21  1  0
 29 27  1  0
 30 29  1  0
 31 29  2  0
M  END
$$$$
