MWM.pdb
     RDKit          3D

 31 32  0  0  1  0  0  0  0  0999 V2000
    8.3186  -11.6990   19.5524 C   0  0  0  0  0  0  0  0  0  0  0  0
    7.9510  -13.2184   18.6329 S   0  0  0  0  0  0  0  0  0  0  0  0
    6.5630  -14.1009   19.4047 C   0  0  0  0  0  0  0  0  0  0  0  0
    6.9181  -14.4430   20.8544 C   0  0  0  0  0  0  0  0  0  0  0  0
    7.8770  -15.6168   20.8919 C   0  0  2  0  0  0  0  0  0  0  0  0
    7.1795  -16.8709   21.0088 N   0  0  0  0  0  0  0  0  0  0  0  0
    8.7764  -15.3801   22.0653 C   0  0  0  0  0  0  0  0  0  0  0  0
    9.4938  -14.3690   22.1636 O   0  0  0  0  0  0  0  0  0  0  0  0
    8.8059  -16.3340   23.0841 N   0  0  0  0  0  0  0  0  0  0  0  0
    9.6198  -16.2216   24.3150 C   0  0  1  0  0  0  0  0  0  0  0  0
    8.7922  -16.5293   25.4923 C   0  0  0  0  0  0  0  0  0  0  0  0
    7.7027  -15.6005   25.8116 C   0  0  0  0  0  0  0  0  0  0  0  0
    6.3497  -15.9520   25.8106 C   0  0  0  0  0  0  0  0  0  0  0  0
    5.6720  -14.8425   26.1203 N   0  0  0  0  0  0  0  0  0  0  0  0
    6.4882  -13.7970   26.3228 C   0  0  0  0  0  0  0  0  0  0  0  0
    6.2418  -12.4649   26.6737 C   0  0  0  0  0  0  0  0  0  0  0  0
    7.3347  -11.6160   26.8266 C   0  0  0  0  0  0  0  0  0  0  0  0
    8.5971  -12.1099   26.6298 C   0  0  0  0  0  0  0  0  0  0  0  0
    8.8646  -13.4196   26.2825 C   0  0  0  0  0  0  0  0  0  0  0  0
    7.7747  -14.2460   26.1348 C   0  0  0  0  0  0  0  0  0  0  0  0
   10.8664  -16.9108   24.0603 C   0  0  0  0  0  0  0  0  0  0  0  0
   10.8366  -18.0321   23.4175 O   0  0  0  0  0  0  0  0  0  0  0  0
   13.2106  -13.6540   20.0692 C   0  0  0  0  0  0  0  0  0  0  0  0
   14.2512  -15.1268   19.8926 S   0  0  0  0  0  0  0  0  0  0  0  0
   14.5683  -15.8203   21.5212 C   0  0  0  0  0  0  0  0  0  0  0  0
   13.4275  -15.7432   22.4797 C   0  0  0  0  0  0  0  0  0  0  0  0
   13.3473  -16.7524   23.5441 C   0  0  2  0  0  0  0  0  0  0  0  0
   12.1829  -16.5038   24.4263 N   0  0  0  0  0  0  0  0  0  0  0  0
   14.5274  -17.0490   24.3527 C   0  0  0  0  0  0  0  0  0  0  0  0
   14.9676  -16.2917   25.4078 O   0  0  0  0  0  0  0  0  0  0  0  0
   15.2383  -18.0798   24.0891 O   0  0  0  0  0  0  0  0  0  0  0  0
  1  2  1  0
  3  2  1  0
  4  3  1  0
  5  4  1  0
  5  6  1  1
  7  5  1  0
  8  7  2  0
  9  7  1  0
 10  9  1  0
 11 12  1  0
 10 11  1  1
 12 13  2  0
 12 20  1  0
 13 14  1  0
 14 15  1  0
 15 16  2  0
 16 17  1  0
 18 17  2  0
 19 18  1  0
 20 19  2  0
 20 15  1  0
 21 10  1  0
 21 22  2  0
 23 24  1  0
 24 25  1  0
 25 26  1  0
 27 26  1  1
 27 28  1  0
 28 21  1  0
 29 27  1  0
 30 29  1  0
 31 29  2  0
M  END
$$$$
