MWM.pdb
     RDKit          3D

 31 32  0  0  1  0  0  0  0  0999 V2000
    8.2117  -12.3014   18.4431 C   0  0  0  0  0  0  0  0  0  0  0  0
    6.7816  -13.1301   19.1898 S   0  0  0  0  0  0  0  0  0  0  0  0
    7.2933  -14.6910   19.9661 C   0  0  0  0  0  0  0  0  0  0  0  0
    8.7401  -14.5693   20.4527 C   0  0  0  0  0  0  0  0  0  0  0  0
    9.2313  -15.9094   20.9639 C   0  0  2  0  0  0  0  0  0  0  0  0
    8.1888  -16.9023   20.9424 N   0  0  0  0  0  0  0  0  0  0  0  0
    9.7257  -15.6662   22.3561 C   0  0  0  0  0  0  0  0  0  0  0  0
   10.4964  -14.7314   22.6372 O   0  0  0  0  0  0  0  0  0  0  0  0
    9.3018  -16.5243   23.3723 N   0  0  0  0  0  0  0  0  0  0  0  0
    9.7052  -16.4076   24.7913 C   0  0  1  0  0  0  0  0  0  0  0  0
    8.5299  -16.5737   25.6612 C   0  0  0  0  0  0  0  0  0  0  0  0
    7.4366  -15.6079   25.5087 C   0  0  0  0  0  0  0  0  0  0  0  0
    6.1169  -15.9608   25.2116 C   0  0  0  0  0  0  0  0  0  0  0  0
    5.4310  -14.8169   25.1267 N   0  0  0  0  0  0  0  0  0  0  0  0
    6.2107  -13.7476   25.3483 C   0  0  0  0  0  0  0  0  0  0  0  0
    5.9396  -12.3750   25.3772 C   0  0  0  0  0  0  0  0  0  0  0  0
    6.9904  -11.5066   25.6603 C   0  0  0  0  0  0  0  0  0  0  0  0
    8.2375  -12.0216   25.8971 C   0  0  0  0  0  0  0  0  0  0  0  0
    8.5289  -13.3714   25.8732 C   0  0  0  0  0  0  0  0  0  0  0  0
    7.4807  -14.2167   25.5918 C   0  0  0  0  0  0  0  0  0  0  0  0
   10.8955  -17.2133   24.9586 C   0  0  0  0  0  0  0  0  0  0  0  0
   11.0257  -18.2849   24.2472 O   0  0  0  0  0  0  0  0  0  0  0  0
    9.3744  -14.4331   29.0978 C   0  0  0  0  0  0  0  0  0  0  0  0
   10.8169  -15.0687   29.9913 S   0  0  0  0  0  0  0  0  0  0  0  0
   11.9227  -15.8736   28.8238 C   0  0  0  0  0  0  0  0  0  0  0  0
   11.3815  -17.1054   28.1789 C   0  0  0  0  0  0  0  0  0  0  0  0
   12.1628  -17.7226   27.0988 C   0  0  2  0  0  0  0  0  0  0  0  0
   11.9989  -16.9755   25.8297 N   0  0  0  0  0  0  0  0  0  0  0  0
   12.0463  -19.1572   26.8481 C   0  0  0  0  0  0  0  0  0  0  0  0
   12.9770  -20.0965   27.2117 O   0  0  0  0  0  0  0  0  0  0  0  0
   11.0182  -19.6170   26.2406 O   0  0  0  0  0  0  0  0  0  0  0  0
  1  2  1  0
  3  2  1  0
  4  3  1  0
  5  4  1  0
  5  6  1  1
  7  5  1  0
  8  7  2  0
  9  7  1  0
 10  9  1  0
 11 12  1  0
 10 11  1  1
 12 13  2  0
 12 20  1  0
 13 14  1  0
 14 15  1  0
 15 16  2  0
 16 17  1  0
 18 17  2  0
 19 18  1  0
 20 19  2  0
 20 15  1  0
 21 10  1  0
 21 22  2  0
 23 24  1  0
 24 25  1  0
 25 26  1  0
 27 26  1  1
 27 28  1  0
 28 21  1  0
 29 27  1  0
 30 29  1  0
 31 29  2  0
M  END
$$$$
