MWM.pdb
     RDKit          3D

 31 32  0  0  1  0  0  0  0  0999 V2000
   14.6821  -18.7618   20.1743 C   0  0  0  0  0  0  0  0  0  0  0  0
   13.8658  -19.8380   18.9640 S   0  0  0  0  0  0  0  0  0  0  0  0
   12.1375  -19.3277   18.7328 C   0  0  0  0  0  0  0  0  0  0  0  0
   11.9469  -17.9087   19.2758 C   0  0  0  0  0  0  0  0  0  0  0  0
   10.4789  -17.5312   19.2403 C   0  0  2  0  0  0  0  0  0  0  0  0
   10.1355  -16.8415   18.0240 N   0  0  0  0  0  0  0  0  0  0  0  0
   10.2432  -16.6698   20.4421 C   0  0  0  0  0  0  0  0  0  0  0  0
   10.8250  -15.5835   20.6097 O   0  0  0  0  0  0  0  0  0  0  0  0
    9.3347  -17.1082   21.4071 N   0  0  0  0  0  0  0  0  0  0  0  0
    8.9932  -16.3615   22.6383 C   0  0  1  0  0  0  0  0  0  0  0  0
    7.5473  -16.4543   22.8954 C   0  0  0  0  0  0  0  0  0  0  0  0
    7.0258  -15.7531   24.0735 C   0  0  0  0  0  0  0  0  0  0  0  0
    6.3858  -16.3880   25.1420 C   0  0  0  0  0  0  0  0  0  0  0  0
    6.0345  -15.4234   25.9977 N   0  0  0  0  0  0  0  0  0  0  0  0
    6.4013  -14.2087   25.5614 C   0  0  0  0  0  0  0  0  0  0  0  0
    6.2631  -12.9296   26.1121 C   0  0  0  0  0  0  0  0  0  0  0  0
    6.7794  -11.8512   25.3988 C   0  0  0  0  0  0  0  0  0  0  0  0
    7.3967  -12.0788   24.1973 C   0  0  0  0  0  0  0  0  0  0  0  0
    7.5441  -13.3312   23.6339 C   0  0  0  0  0  0  0  0  0  0  0  0
    7.0286  -14.3865   24.3502 C   0  0  0  0  0  0  0  0  0  0  0  0
    9.9695  -16.7318   23.6402 C   0  0  0  0  0  0  0  0  0  0  0  0
   10.6705  -17.8028   23.4588 O   0  0  0  0  0  0  0  0  0  0  0  0
    8.9315  -13.3337   29.3861 C   0  0  0  0  0  0  0  0  0  0  0  0
   10.4016  -14.3346   29.0393 S   0  0  0  0  0  0  0  0  0  0  0  0
   10.4667  -14.6917   27.2781 C   0  0  0  0  0  0  0  0  0  0  0  0
   11.5908  -15.5732   26.8478 C   0  0  0  0  0  0  0  0  0  0  0  0
   11.3415  -16.5370   25.7676 C   0  0  2  0  0  0  0  0  0  0  0  0
   10.2880  -16.0455   24.8486 N   0  0  0  0  0  0  0  0  0  0  0  0
   11.1020  -17.9417   26.0899 C   0  0  0  0  0  0  0  0  0  0  0  0
    9.9309  -18.6141   25.8513 O   0  0  0  0  0  0  0  0  0  0  0  0
   12.0241  -18.6351   26.6435 O   0  0  0  0  0  0  0  0  0  0  0  0
  1  2  1  0
  3  2  1  0
  4  3  1  0
  5  4  1  0
  5  6  1  6
  7  5  1  0
  8  7  2  0
  9  7  1  0
 10  9  1  0
 11 12  1  0
 10 11  1  1
 12 13  2  0
 12 20  1  0
 13 14  1  0
 14 15  1  0
 15 16  2  0
 16 17  1  0
 18 17  2  0
 19 18  1  0
 20 19  2  0
 20 15  1  0
 21 10  1  0
 21 22  2  0
 23 24  1  0
 24 25  1  0
 25 26  1  0
 27 26  1  1
 27 28  1  0
 28 21  1  0
 29 27  1  0
 30 29  1  0
 31 29  2  0
M  END
$$$$
