MWM.pdb
     RDKit          3D

 31 32  0  0  1  0  0  0  0  0999 V2000
    8.4633  -12.0096   18.5166 C   0  0  0  0  0  0  0  0  0  0  0  0
    8.7999  -13.4258   17.4348 S   0  0  0  0  0  0  0  0  0  0  0  0
    8.7911  -14.9678   18.3956 C   0  0  0  0  0  0  0  0  0  0  0  0
    9.0561  -14.6522   19.8704 C   0  0  0  0  0  0  0  0  0  0  0  0
    9.1284  -15.9369   20.6722 C   0  0  2  0  0  0  0  0  0  0  0  0
    8.1654  -16.9049   20.2155 N   0  0  0  0  0  0  0  0  0  0  0  0
    8.8812  -15.5505   22.0975 C   0  0  0  0  0  0  0  0  0  0  0  0
    8.2141  -14.5490   22.4118 O   0  0  0  0  0  0  0  0  0  0  0  0
    9.4225  -16.3487   23.1068 N   0  0  0  0  0  0  0  0  0  0  0  0
    9.2623  -16.0923   24.5555 C   0  0  1  0  0  0  0  0  0  0  0  0
    7.9770  -16.6368   25.0213 C   0  0  0  0  0  0  0  0  0  0  0  0
    6.9276  -15.6761   25.3778 C   0  0  0  0  0  0  0  0  0  0  0  0
    5.5590  -15.9551   25.3188 C   0  0  0  0  0  0  0  0  0  0  0  0
    4.9300  -14.8353   25.6884 N   0  0  0  0  0  0  0  0  0  0  0  0
    5.7922  -13.8505   25.9837 C   0  0  0  0  0  0  0  0  0  0  0  0
    5.6039  -12.5345   26.4207 C   0  0  0  0  0  0  0  0  0  0  0  0
    6.7337  -11.7567   26.6595 C   0  0  0  0  0  0  0  0  0  0  0  0
    7.9745  -12.3018   26.4599 C   0  0  0  0  0  0  0  0  0  0  0  0
    8.1848  -13.5968   26.0285 C   0  0  0  0  0  0  0  0  0  0  0  0
    7.0591  -14.3527   25.7966 C   0  0  0  0  0  0  0  0  0  0  0  0
   10.5140  -16.4500   25.1876 C   0  0  0  0  0  0  0  0  0  0  0  0
   11.2386  -17.3765   24.6511 O   0  0  0  0  0  0  0  0  0  0  0  0
   12.4094  -17.0489   32.8523 C   0  0  0  0  0  0  0  0  0  0  0  0
   11.7266  -16.0185   31.5275 S   0  0  0  0  0  0  0  0  0  0  0  0
   11.8754  -16.8963   29.9652 C   0  0  0  0  0  0  0  0  0  0  0  0
   11.4987  -16.1103   28.7543 C   0  0  0  0  0  0  0  0  0  0  0  0
   11.6475  -16.7488   27.4396 C   0  0  2  0  0  0  0  0  0  0  0  0
   11.0909  -15.8923   26.3661 N   0  0  0  0  0  0  0  0  0  0  0  0
   11.2085  -18.1293   27.2500 C   0  0  0  0  0  0  0  0  0  0  0  0
   12.0228  -19.2301   27.3253 O   0  0  0  0  0  0  0  0  0  0  0  0
    9.9814  -18.3776   26.9856 O   0  0  0  0  0  0  0  0  0  0  0  0
  1  2  1  0
  3  2  1  0
  4  3  1  0
  5  4  1  0
  5  6  1  6
  7  5  1  0
  8  7  2  0
  9  7  1  0
 10  9  1  0
 11 12  1  0
 10 11  1  1
 12 13  2  0
 12 20  1  0
 13 14  1  0
 14 15  1  0
 15 16  2  0
 16 17  1  0
 18 17  2  0
 19 18  1  0
 20 19  2  0
 20 15  1  0
 21 10  1  0
 21 22  2  0
 23 24  1  0
 24 25  1  0
 25 26  1  0
 27 26  1  1
 27 28  1  0
 28 21  1  0
 29 27  1  0
 30 29  1  0
 31 29  2  0
M  END
$$$$
