MWM.pdb
     RDKit          3D

 31 32  0  0  1  0  0  0  0  0999 V2000
    7.7217  -12.0059   18.5994 C   0  0  0  0  0  0  0  0  0  0  0  0
    7.9136  -13.1334   17.1918 S   0  0  0  0  0  0  0  0  0  0  0  0
    8.7380  -14.6641   17.7194 C   0  0  0  0  0  0  0  0  0  0  0  0
    9.5352  -14.3997   18.9998 C   0  0  0  0  0  0  0  0  0  0  0  0
   10.1445  -15.6912   19.5090 C   0  0  2  0  0  0  0  0  0  0  0  0
    9.3562  -16.8363   19.1342 N   0  0  0  0  0  0  0  0  0  0  0  0
   10.2307  -15.5505   20.9972 C   0  0  0  0  0  0  0  0  0  0  0  0
   11.0918  -14.8457   21.5526 O   0  0  0  0  0  0  0  0  0  0  0  0
    9.3065  -16.2387   21.7852 N   0  0  0  0  0  0  0  0  0  0  0  0
    9.2139  -16.1290   23.2582 C   0  0  1  0  0  0  0  0  0  0  0  0
    7.8221  -16.3357   23.6891 C   0  0  0  0  0  0  0  0  0  0  0  0
    7.3638  -15.5921   24.8674 C   0  0  0  0  0  0  0  0  0  0  0  0
    6.8318  -16.1918   26.0127 C   0  0  0  0  0  0  0  0  0  0  0  0
    6.5084  -15.1963   26.8437 N   0  0  0  0  0  0  0  0  0  0  0  0
    6.7932  -13.9942   26.3201 C   0  0  0  0  0  0  0  0  0  0  0  0
    6.6467  -12.6935   26.8151 C   0  0  0  0  0  0  0  0  0  0  0  0
    7.0648  -11.6367   26.0109 C   0  0  0  0  0  0  0  0  0  0  0  0
    7.5981  -11.9056   24.7781 C   0  0  0  0  0  0  0  0  0  0  0  0
    7.7517  -13.1800   24.2684 C   0  0  0  0  0  0  0  0  0  0  0  0
    7.3337  -14.2135   25.0743 C   0  0  0  0  0  0  0  0  0  0  0  0
   10.3039  -16.9060   23.8079 C   0  0  0  0  0  0  0  0  0  0  0  0
   11.5090  -16.6505   23.4155 O   0  0  0  0  0  0  0  0  0  0  0  0
    8.0745  -14.1339   28.3242 C   0  0  0  0  0  0  0  0  0  0  0  0
    9.4820  -15.0343   29.0252 S   0  0  0  0  0  0  0  0  0  0  0  0
   10.4926  -15.6793   27.6849 C   0  0  0  0  0  0  0  0  0  0  0  0
    9.8050  -16.6404   26.7741 C   0  0  0  0  0  0  0  0  0  0  0  0
   10.5980  -17.7309   26.1910 C   0  0  2  0  0  0  0  0  0  0  0  0
   10.2336  -17.9539   24.7721 N   0  0  0  0  0  0  0  0  0  0  0  0
   10.6903  -19.0125   26.8864 C   0  0  0  0  0  0  0  0  0  0  0  0
    9.7884  -20.0385   26.7660 O   0  0  0  0  0  0  0  0  0  0  0  0
   11.6662  -19.2369   27.6830 O   0  0  0  0  0  0  0  0  0  0  0  0
  1  2  1  0
  3  2  1  0
  4  3  1  0
  5  4  1  0
  5  6  1  1
  7  5  1  0
  8  7  2  0
  9  7  1  0
 10  9  1  0
 11 12  1  0
 10 11  1  1
 12 13  2  0
 12 20  1  0
 13 14  1  0
 14 15  1  0
 15 16  2  0
 16 17  1  0
 18 17  2  0
 19 18  1  0
 20 19  2  0
 20 15  1  0
 21 10  1  0
 21 22  2  0
 23 24  1  0
 24 25  1  0
 25 26  1  0
 27 26  1  1
 27 28  1  0
 28 21  1  0
 29 27  1  0
 30 29  1  0
 31 29  2  0
M  END
$$$$
