MWM.pdb
     RDKit          3D

 31 32  0  0  1  0  0  0  0  0999 V2000
    8.8117  -13.5558   14.8070 C   0  0  0  0  0  0  0  0  0  0  0  0
    8.6534  -13.4795   16.6122 S   0  0  0  0  0  0  0  0  0  0  0  0
    9.9508  -14.4777   17.4004 C   0  0  0  0  0  0  0  0  0  0  0  0
    9.8659  -14.3172   18.9209 C   0  0  0  0  0  0  0  0  0  0  0  0
    9.3066  -15.5799   19.5466 C   0  0  2  0  0  0  0  0  0  0  0  0
    8.1106  -16.0213   18.8775 N   0  0  0  0  0  0  0  0  0  0  0  0
    9.0390  -15.2478   20.9819 C   0  0  0  0  0  0  0  0  0  0  0  0
    8.6219  -14.1332   21.3429 O   0  0  0  0  0  0  0  0  0  0  0  0
    9.2682  -16.2308   21.9462 N   0  0  0  0  0  0  0  0  0  0  0  0
    9.0847  -16.0368   23.4018 C   0  0  1  0  0  0  0  0  0  0  0  0
    7.8230  -16.6582   23.8346 C   0  0  0  0  0  0  0  0  0  0  0  0
    6.9287  -15.8537   24.6741 C   0  0  0  0  0  0  0  0  0  0  0  0
    5.6815  -16.2901   25.1303 C   0  0  0  0  0  0  0  0  0  0  0  0
    5.1621  -15.2785   25.8326 N   0  0  0  0  0  0  0  0  0  0  0  0
    5.9833  -14.2178   25.8653 C   0  0  0  0  0  0  0  0  0  0  0  0
    5.8761  -12.9632   26.4760 C   0  0  0  0  0  0  0  0  0  0  0  0
    6.9359  -12.0722   26.3301 C   0  0  0  0  0  0  0  0  0  0  0  0
    8.0325  -12.4516   25.6021 C   0  0  0  0  0  0  0  0  0  0  0  0
    8.1602  -13.6831   24.9901 C   0  0  0  0  0  0  0  0  0  0  0  0
    7.1050  -14.5524   25.1429 C   0  0  0  0  0  0  0  0  0  0  0  0
   10.3469  -16.3588   24.0321 C   0  0  0  0  0  0  0  0  0  0  0  0
   11.2102  -17.0594   23.3724 O   0  0  0  0  0  0  0  0  0  0  0  0
   10.5584  -12.5322   27.6444 C   0  0  0  0  0  0  0  0  0  0  0  0
   11.5746  -13.7162   28.5656 S   0  0  0  0  0  0  0  0  0  0  0  0
   12.5208  -14.7080   27.4018 C   0  0  0  0  0  0  0  0  0  0  0  0
   12.1505  -16.1523   27.3470 C   0  0  0  0  0  0  0  0  0  0  0  0
   11.8599  -16.7439   26.0342 C   0  0  2  0  0  0  0  0  0  0  0  0
   10.7962  -15.9871   25.3332 N   0  0  0  0  0  0  0  0  0  0  0  0
   11.6014  -18.1778   25.9262 C   0  0  0  0  0  0  0  0  0  0  0  0
   10.3663  -18.7638   26.0342 O   0  0  0  0  0  0  0  0  0  0  0  0
   12.5713  -18.9870   25.7219 O   0  0  0  0  0  0  0  0  0  0  0  0
  1  2  1  0
  3  2  1  0
  4  3  1  0
  5  4  1  0
  5  6  1  6
  7  5  1  0
  8  7  2  0
  9  7  1  0
 10  9  1  0
 11 12  1  0
 10 11  1  1
 12 13  2  0
 12 20  1  0
 13 14  1  0
 14 15  1  0
 15 16  2  0
 16 17  1  0
 18 17  2  0
 19 18  1  0
 20 19  2  0
 20 15  1  0
 21 10  1  0
 21 22  2  0
 23 24  1  0
 24 25  1  0
 25 26  1  0
 27 26  1  1
 27 28  1  0
 28 21  1  0
 29 27  1  0
 30 29  1  0
 31 29  2  0
M  END
$$$$
