ASV.pdb
     RDKit          3D

 19 18  0  0  1  0  0  0  0  0999 V2000
   42.6379   -9.4661   -3.7940 C   0  0  0  0  0  0  0  0  0  0  0  0
   43.3634  -10.0331   -5.0097 C   0  0  2  0  0  0  0  0  0  0  0  0
   44.7667  -10.0347   -4.7061 N   0  0  0  0  0  0  0  0  0  0  0  0
   43.0674   -9.1266   -6.1432 C   0  0  0  0  0  0  0  0  0  0  0  0
   44.0357   -8.6320   -6.7888 O   0  0  0  0  0  0  0  0  0  0  0  0
   42.0332   -7.7609  -10.0986 O   0  0  0  0  0  0  0  0  0  0  0  0
   42.3163   -8.4912   -8.9492 C   0  0  0  0  0  0  0  0  0  0  0  0
   41.5481   -8.0106   -7.7485 C   0  0  2  0  0  0  0  0  0  0  0  0
   41.7818   -8.7668   -6.5650 N   0  0  0  0  0  0  0  0  0  0  0  0
   40.1173   -7.9467   -8.1337 C   0  0  0  0  0  0  0  0  0  0  0  0
   39.4972   -9.0138   -8.3744 O   0  0  0  0  0  0  0  0  0  0  0  0
   37.5842   -4.4277   -7.9559 C   0  0  0  0  0  0  0  0  0  0  0  0
   37.1550   -5.8585   -7.7122 C   0  0  2  0  0  0  0  0  0  0  0  0
   37.3360   -6.1678   -6.2584 C   0  0  0  0  0  0  0  0  0  0  0  0
   37.9779   -6.7536   -8.6114 C   0  0  2  0  0  0  0  0  0  0  0  0
   39.3775   -6.7401   -8.2539 N   0  0  0  0  0  0  0  0  0  0  0  0
   37.7490   -6.4787  -10.0385 C   0  0  0  0  0  0  0  0  0  0  0  0
   38.6501   -5.9512  -10.7109 O   0  0  0  0  0  0  0  0  0  0  0  0
   36.5536   -6.7993  -10.6285 O   0  0  0  0  0  0  0  0  0  0  0  0
  2  4  1  0
  2  1  1  1
  2  3  1  0
  4  5  2  0
  6  7  1  0
  8  7  1  6
  8  9  1  0
  8 10  1  0
  9  4  1  0
 10 11  2  0
 10 16  1  0
 13 12  1  1
 13 15  1  0
 14 13  1  0
 15 17  1  0
 15 16  1  1
 17 18  2  0
 17 19  1  0
M  END
$$$$
