ASV.pdb
     RDKit          3D

 19 18  0  0  1  0  0  0  0  0999 V2000
   15.0324  -10.6314  -16.1477 C   0  0  0  0  0  0  0  0  0  0  0  0
   16.1942   -9.9503  -15.4321 C   0  0  2  0  0  0  0  0  0  0  0  0
   17.2605  -10.9078  -15.3438 N   0  0  0  0  0  0  0  0  0  0  0  0
   15.7044   -9.5767  -14.0851 C   0  0  0  0  0  0  0  0  0  0  0  0
   14.7406   -8.7628  -13.9979 O   0  0  0  0  0  0  0  0  0  0  0  0
   15.4681  -11.8680  -10.7030 O   0  0  0  0  0  0  0  0  0  0  0  0
   16.0287  -10.6125  -10.4932 C   0  0  0  0  0  0  0  0  0  0  0  0
   15.7355   -9.6485  -11.6102 C   0  0  2  0  0  0  0  0  0  0  0  0
   16.2303  -10.0592  -12.8805 N   0  0  0  0  0  0  0  0  0  0  0  0
   16.2310   -8.3161  -11.1877 C   0  0  0  0  0  0  0  0  0  0  0  0
   17.4183   -7.9916  -11.4453 O   0  0  0  0  0  0  0  0  0  0  0  0
   13.8368   -5.1574   -9.4035 C   0  0  0  0  0  0  0  0  0  0  0  0
   15.0035   -4.9491  -10.3449 C   0  0  2  0  0  0  0  0  0  0  0  0
   14.4804   -4.9029  -11.7471 C   0  0  0  0  0  0  0  0  0  0  0  0
   15.9913   -6.0722  -10.1217 C   0  0  2  0  0  0  0  0  0  0  0  0
   15.4448   -7.3558  -10.4968 N   0  0  0  0  0  0  0  0  0  0  0  0
   16.5524   -6.0643   -8.7617 C   0  0  0  0  0  0  0  0  0  0  0  0
   16.2510   -6.9739   -7.9716 O   0  0  0  0  0  0  0  0  0  0  0  0
   17.4015   -5.0647   -8.3623 O   0  0  0  0  0  0  0  0  0  0  0  0
  2  4  1  0
  2  1  1  6
  2  3  1  0
  4  5  2  0
  6  7  1  0
  8  7  1  1
  8  9  1  0
  8 10  1  0
  9  4  1  0
 10 11  2  0
 10 16  1  0
 13 12  1  1
 13 15  1  0
 14 13  1  0
 15 17  1  0
 15 16  1  1
 17 18  2  0
 17 19  1  0
M  END
$$$$
