ASV.pdb
     RDKit          3D

 19 18  0  0  1  0  0  0  0  0999 V2000
   16.4784  -10.2986  -16.8082 C   0  0  0  0  0  0  0  0  0  0  0  0
   17.9565  -10.5540  -17.0836 C   0  0  2  0  0  0  0  0  0  0  0  0
   18.1463  -11.9770  -17.1051 N   0  0  0  0  0  0  0  0  0  0  0  0
   18.7105   -9.9355  -15.9687 C   0  0  0  0  0  0  0  0  0  0  0  0
   18.1178   -9.7556  -14.8662 O   0  0  0  0  0  0  0  0  0  0  0  0
   22.8832   -9.5733  -15.7232 O   0  0  0  0  0  0  0  0  0  0  0  0
   22.0521   -9.4511  -14.6146 C   0  0  0  0  0  0  0  0  0  0  0  0
   20.7053   -8.8745  -14.9557 C   0  0  2  0  0  0  0  0  0  0  0  0
   20.0479   -9.5270  -16.0370 N   0  0  0  0  0  0  0  0  0  0  0  0
   20.8874   -7.4183  -15.1695 C   0  0  0  0  0  0  0  0  0  0  0  0
   21.0808   -6.9875  -16.3349 O   0  0  0  0  0  0  0  0  0  0  0  0
   18.7906   -4.6626  -15.1455 C   0  0  0  0  0  0  0  0  0  0  0  0
   19.8548   -4.2143  -14.1669 C   0  0  2  0  0  0  0  0  0  0  0  0
   20.0954   -2.7498  -14.3645 C   0  0  0  0  0  0  0  0  0  0  0  0
   21.0916   -5.0515  -14.4046 C   0  0  2  0  0  0  0  0  0  0  0  0
   20.8589   -6.4505  -14.1301 N   0  0  0  0  0  0  0  0  0  0  0  0
   22.2722   -4.5198  -13.7058 C   0  0  0  0  0  0  0  0  0  0  0  0
   22.4595   -4.8130  -12.5137 O   0  0  0  0  0  0  0  0  0  0  0  0
   23.1627   -3.7068  -14.3584 O   0  0  0  0  0  0  0  0  0  0  0  0
  2  4  1  0
  2  1  1  1
  2  3  1  0
  4  5  2  0
  6  7  1  0
  8  7  1  6
  8  9  1  0
  8 10  1  0
  9  4  1  0
 10 11  2  0
 10 16  1  0
 13 12  1  6
 13 15  1  0
 14 13  1  0
 15 17  1  0
 15 16  1  1
 17 18  2  0
 17 19  1  0
M  END
$$$$
