ASV.pdb
     RDKit          3D

 19 18  0  0  1  0  0  0  0  0999 V2000
   19.1639  -13.0842  -17.2444 C   0  0  0  0  0  0  0  0  0  0  0  0
   19.3649  -11.7205  -17.8969 C   0  0  2  0  0  0  0  0  0  0  0  0
   20.6856  -11.7080  -18.4601 N   0  0  0  0  0  0  0  0  0  0  0  0
   19.2381  -10.7107  -16.8207 C   0  0  0  0  0  0  0  0  0  0  0  0
   18.1405  -10.6269  -16.1983 O   0  0  0  0  0  0  0  0  0  0  0  0
   21.0301   -7.4011  -13.7705 O   0  0  0  0  0  0  0  0  0  0  0  0
   21.2644   -8.4250  -14.6823 C   0  0  0  0  0  0  0  0  0  0  0  0
   20.0389   -8.7944  -15.4725 C   0  0  2  0  0  0  0  0  0  0  0  0
   20.2510   -9.8267  -16.4299 N   0  0  0  0  0  0  0  0  0  0  0  0
   19.4985   -7.5458  -16.0625 C   0  0  0  0  0  0  0  0  0  0  0  0
   19.9936   -7.1064  -17.1317 O   0  0  0  0  0  0  0  0  0  0  0  0
   15.9537   -4.5598  -17.2090 C   0  0  0  0  0  0  0  0  0  0  0  0
   16.4329   -5.8197  -16.5205 C   0  0  2  0  0  0  0  0  0  0  0  0
   15.5749   -6.0591  -15.3170 C   0  0  0  0  0  0  0  0  0  0  0  0
   17.8939   -5.6375  -16.1752 C   0  0  2  0  0  0  0  0  0  0  0  0
   18.4371   -6.7908  -15.4957 N   0  0  0  0  0  0  0  0  0  0  0  0
   18.1485   -4.3782  -15.4583 C   0  0  0  0  0  0  0  0  0  0  0  0
   18.1987   -3.3129  -16.0945 O   0  0  0  0  0  0  0  0  0  0  0  0
   18.3299   -4.3727  -14.0992 O   0  0  0  0  0  0  0  0  0  0  0  0
  2  4  1  0
  2  1  1  1
  2  3  1  0
  4  5  2  0
  6  7  1  0
  8  7  1  6
  8  9  1  0
  8 10  1  0
  9  4  1  0
 10 11  2  0
 10 16  1  0
 13 12  1  1
 13 15  1  0
 14 13  1  0
 15 17  1  0
 15 16  1  1
 17 18  2  0
 17 19  1  0
M  END
$$$$
