ASV.pdb
     RDKit          3D

 19 18  0  0  1  0  0  0  0  0999 V2000
   13.8784   -7.2447  -15.6517 C   0  0  0  0  0  0  0  0  0  0  0  0
   14.5905   -8.5322  -15.2505 C   0  0  2  0  0  0  0  0  0  0  0  0
   13.6421   -9.6022  -15.3811 N   0  0  0  0  0  0  0  0  0  0  0  0
   15.0099   -8.3650  -13.8398 C   0  0  0  0  0  0  0  0  0  0  0  0
   14.1153   -8.2282  -12.9566 O   0  0  0  0  0  0  0  0  0  0  0  0
   18.5100   -9.8675  -12.1865 O   0  0  0  0  0  0  0  0  0  0  0  0
   18.1286   -8.6092  -11.7327 C   0  0  0  0  0  0  0  0  0  0  0  0
   16.6843   -8.2995  -12.0168 C   0  0  2  0  0  0  0  0  0  0  0  0
   16.3380   -8.3456  -13.3971 N   0  0  0  0  0  0  0  0  0  0  0  0
   16.3751   -6.9987  -11.3751 C   0  0  0  0  0  0  0  0  0  0  0  0
   16.5488   -5.9360  -12.0245 O   0  0  0  0  0  0  0  0  0  0  0  0
   13.9817   -4.0989   -8.3675 C   0  0  0  0  0  0  0  0  0  0  0  0
   14.2101   -5.5043   -8.8812 C   0  0  2  0  0  0  0  0  0  0  0  0
   14.0360   -6.4605   -7.7423 C   0  0  0  0  0  0  0  0  0  0  0  0
   15.5927   -5.5607   -9.4912 C   0  0  2  0  0  0  0  0  0  0  0  0
   15.8853   -6.8608  -10.0489 N   0  0  0  0  0  0  0  0  0  0  0  0
   16.6341   -5.0870   -8.5663 C   0  0  0  0  0  0  0  0  0  0  0  0
   16.7045   -3.8774   -8.2939 O   0  0  0  0  0  0  0  0  0  0  0  0
   17.5233   -5.9674   -8.0057 O   0  0  0  0  0  0  0  0  0  0  0  0
  2  4  1  0
  2  1  1  1
  2  3  1  0
  4  5  2  0
  6  7  1  0
  8  7  1  6
  8  9  1  0
  8 10  1  0
  9  4  1  0
 10 11  2  0
 10 16  1  0
 13 12  1  1
 13 15  1  0
 14 13  1  0
 15 17  1  0
 15 16  1  1
 17 18  2  0
 17 19  1  0
M  END
$$$$
