ASV.pdb
     RDKit          3D

 19 18  0  0  1  0  0  0  0  0999 V2000
   23.4949  -36.3265  -13.9219 C   0  0  0  0  0  0  0  0  0  0  0  0
   23.7089  -34.9185  -14.4673 C   0  0  2  0  0  0  0  0  0  0  0  0
   24.9461  -34.9272  -15.1959 N   0  0  0  0  0  0  0  0  0  0  0  0
   23.7903  -34.0158  -13.2956 C   0  0  0  0  0  0  0  0  0  0  0  0
   24.9301  -33.6209  -12.9163 O   0  0  0  0  0  0  0  0  0  0  0  0
   21.8435  -30.8083  -10.2620 O   0  0  0  0  0  0  0  0  0  0  0  0
   21.6565  -31.7188  -11.2966 C   0  0  0  0  0  0  0  0  0  0  0  0
   22.8217  -32.6547  -11.4680 C   0  0  2  0  0  0  0  0  0  0  0  0
   22.6899  -33.5566  -12.5618 N   0  0  0  0  0  0  0  0  0  0  0  0
   23.0403  -33.3336  -10.1677 C   0  0  0  0  0  0  0  0  0  0  0  0
   22.4037  -34.3867   -9.9093 O   0  0  0  0  0  0  0  0  0  0  0  0
   25.5921  -31.9338   -6.8987 C   0  0  0  0  0  0  0  0  0  0  0  0
   25.4765  -33.3804   -7.3291 C   0  0  2  0  0  0  0  0  0  0  0  0
   26.5785  -33.6772   -8.2983 C   0  0  0  0  0  0  0  0  0  0  0  0
   24.1003  -33.5836   -7.9221 C   0  0  2  0  0  0  0  0  0  0  0  0
   23.9375  -32.8712   -9.1682 N   0  0  0  0  0  0  0  0  0  0  0  0
   23.0260  -33.3018   -6.9572 C   0  0  0  0  0  0  0  0  0  0  0  0
   22.2774  -32.3287   -7.1439 O   0  0  0  0  0  0  0  0  0  0  0  0
   22.8465  -34.1021   -5.8584 O   0  0  0  0  0  0  0  0  0  0  0  0
  2  4  1  0
  2  1  1  1
  2  3  1  0
  4  5  2  0
  6  7  1  0
  8  7  1  1
  8  9  1  0
  8 10  1  0
  9  4  1  0
 10 11  2  0
 10 16  1  0
 13 12  1  6
 13 15  1  0
 14 13  1  0
 15 17  1  0
 15 16  1  6
 17 18  2  0
 17 19  1  0
M  END
$$$$
