ASV.pdb
     RDKit          3D

 19 18  0  0  1  0  0  0  0  0999 V2000
   20.8262  -11.0802  -20.0925 C   0  0  0  0  0  0  0  0  0  0  0  0
   20.1225  -11.3102  -18.7593 C   0  0  2  0  0  0  0  0  0  0  0  0
   18.9649  -12.1180  -19.0222 N   0  0  0  0  0  0  0  0  0  0  0  0
   19.7325   -9.9758  -18.2479 C   0  0  0  0  0  0  0  0  0  0  0  0
   19.2608   -9.1317  -19.0628 O   0  0  0  0  0  0  0  0  0  0  0  0
   18.3555   -9.1335  -14.4819 O   0  0  0  0  0  0  0  0  0  0  0  0
   18.2066   -8.3018  -15.5868 C   0  0  0  0  0  0  0  0  0  0  0  0
   19.4244   -8.2807  -16.4695 C   0  0  2  0  0  0  0  0  0  0  0  0
   19.8456   -9.5661  -16.9139 N   0  0  0  0  0  0  0  0  0  0  0  0
   20.4817   -7.5309  -15.7489 C   0  0  0  0  0  0  0  0  0  0  0  0
   21.3417   -8.1649  -15.0857 O   0  0  0  0  0  0  0  0  0  0  0  0
   22.2621   -4.2374  -17.1083 C   0  0  0  0  0  0  0  0  0  0  0  0
   21.9587   -4.0795  -15.6338 C   0  0  2  0  0  0  0  0  0  0  0  0
   23.1219   -3.4008  -14.9795 C   0  0  0  0  0  0  0  0  0  0  0  0
   21.6810   -5.4523  -15.0635 C   0  0  2  0  0  0  0  0  0  0  0  0
   20.5980   -6.1152  -15.7522 N   0  0  0  0  0  0  0  0  0  0  0  0
   21.5011   -5.4278  -13.6035 C   0  0  0  0  0  0  0  0  0  0  0  0
   20.3794   -5.1818  -13.1307 O   0  0  0  0  0  0  0  0  0  0  0  0
   22.5580   -5.6733  -12.7653 O   0  0  0  0  0  0  0  0  0  0  0  0
  2  4  1  0
  2  1  1  6
  2  3  1  0
  4  5  2  0
  6  7  1  0
  8  7  1  1
  8  9  1  0
  8 10  1  0
  9  4  1  0
 10 11  2  0
 10 16  1  0
 13 12  1  6
 13 15  1  0
 14 13  1  0
 15 17  1  0
 15 16  1  6
 17 18  2  0
 17 19  1  0
M  END
$$$$
