ASV.pdb
     RDKit          3D

 19 18  0  0  1  0  0  0  0  0999 V2000
   21.6392  -11.2055  -19.9835 C   0  0  0  0  0  0  0  0  0  0  0  0
   22.8825  -11.7060  -19.2558 C   0  0  2  0  0  0  0  0  0  0  0  0
   22.6893  -13.1045  -18.9946 N   0  0  0  0  0  0  0  0  0  0  0  0
   22.9741  -10.9386  -17.9922 C   0  0  0  0  0  0  0  0  0  0  0  0
   21.9416  -10.8425  -17.2684 O   0  0  0  0  0  0  0  0  0  0  0  0
   26.2086  -10.6021  -15.4250 O   0  0  0  0  0  0  0  0  0  0  0  0
   25.5667   -9.4093  -15.7407 C   0  0  0  0  0  0  0  0  0  0  0  0
   24.1769   -9.6186  -16.2769 C   0  0  2  0  0  0  0  0  0  0  0  0
   24.1297  -10.3002  -17.5261 N   0  0  0  0  0  0  0  0  0  0  0  0
   23.5072   -8.2957  -16.3020 C   0  0  0  0  0  0  0  0  0  0  0  0
   23.6915   -7.5318  -17.2838 O   0  0  0  0  0  0  0  0  0  0  0  0
   20.1623   -7.5174  -16.6956 C   0  0  0  0  0  0  0  0  0  0  0  0
   20.4850   -6.6868  -15.4721 C   0  0  2  0  0  0  0  0  0  0  0  0
   19.7747   -5.3739  -15.5883 C   0  0  0  0  0  0  0  0  0  0  0  0
   21.9877   -6.5382  -15.3904 C   0  0  2  0  0  0  0  0  0  0  0  0
   22.6522   -7.8156  -15.2743 N   0  0  0  0  0  0  0  0  0  0  0  0
   22.4015   -5.5813  -14.3522 C   0  0  0  0  0  0  0  0  0  0  0  0
   22.5826   -5.9813  -13.1905 O   0  0  0  0  0  0  0  0  0  0  0  0
   22.5878   -4.2575  -14.6568 O   0  0  0  0  0  0  0  0  0  0  0  0
  2  4  1  0
  2  1  1  6
  2  3  1  0
  4  5  2  0
  6  7  1  0
  8  7  1  6
  8  9  1  0
  8 10  1  0
  9  4  1  0
 10 11  2  0
 10 16  1  0
 13 12  1  6
 13 15  1  0
 14 13  1  0
 15 17  1  0
 15 16  1  1
 17 18  2  0
 17 19  1  0
M  END
$$$$
