ASV.pdb
     RDKit          3D

 19 18  0  0  1  0  0  0  0  0999 V2000
   17.7417  -11.7158  -19.4898 C   0  0  0  0  0  0  0  0  0  0  0  0
   17.5680  -11.2209  -18.0578 C   0  0  2  0  0  0  0  0  0  0  0  0
   16.2177  -10.7497  -17.9305 N   0  0  0  0  0  0  0  0  0  0  0  0
   18.5352  -10.1149  -17.8693 C   0  0  0  0  0  0  0  0  0  0  0  0
   19.7684  -10.3920  -17.8301 O   0  0  0  0  0  0  0  0  0  0  0  0
   17.5601   -5.9937  -17.0893 O   0  0  0  0  0  0  0  0  0  0  0  0
   18.6678   -6.3565  -17.8484 C   0  0  0  0  0  0  0  0  0  0  0  0
   19.1611   -7.7426  -17.5354 C   0  0  2  0  0  0  0  0  0  0  0  0
   18.1897   -8.7654  -17.7287 N   0  0  0  0  0  0  0  0  0  0  0  0
   19.7217   -7.7145  -16.1627 C   0  0  0  0  0  0  0  0  0  0  0  0
   18.9725   -7.9753  -15.1871 O   0  0  0  0  0  0  0  0  0  0  0  0
   22.8177   -8.8869  -12.8918 C   0  0  0  0  0  0  0  0  0  0  0  0
   22.5020   -8.7233  -14.3631 C   0  0  2  0  0  0  0  0  0  0  0  0
   23.7899   -8.5708  -15.1113 C   0  0  0  0  0  0  0  0  0  0  0  0
   21.5875   -7.5285  -14.5155 C   0  0  2  0  0  0  0  0  0  0  0  0
   21.0754   -7.4074  -15.8608 N   0  0  0  0  0  0  0  0  0  0  0  0
   22.2009   -6.2855  -14.0225 C   0  0  0  0  0  0  0  0  0  0  0  0
   22.5798   -5.4271  -14.8361 O   0  0  0  0  0  0  0  0  0  0  0  0
   22.3566   -6.0692  -12.6775 O   0  0  0  0  0  0  0  0  0  0  0  0
  2  4  1  0
  2  1  1  6
  2  3  1  0
  4  5  2  0
  6  7  1  0
  8  7  1  1
  8  9  1  0
  8 10  1  0
  9  4  1  0
 10 11  2  0
 10 16  1  0
 13 12  1  1
 13 15  1  0
 14 13  1  0
 15 17  1  0
 15 16  1  6
 17 18  2  0
 17 19  1  0
M  END
$$$$
