ASV.pdb
     RDKit          3D

 19 18  0  0  1  0  0  0  0  0999 V2000
   19.7677  -12.5553  -18.1940 C   0  0  0  0  0  0  0  0  0  0  0  0
   20.5132  -11.2509  -18.4559 C   0  0  2  0  0  0  0  0  0  0  0  0
   21.9014  -11.4903  -18.1785 N   0  0  0  0  0  0  0  0  0  0  0  0
   19.9522  -10.2454  -17.5240 C   0  0  0  0  0  0  0  0  0  0  0  0
   18.7413   -9.9069  -17.6592 O   0  0  0  0  0  0  0  0  0  0  0  0
   22.0945   -8.3296  -14.3435 O   0  0  0  0  0  0  0  0  0  0  0  0
   20.7096   -8.4568  -14.3276 C   0  0  0  0  0  0  0  0  0  0  0  0
   20.1184   -8.5727  -15.7059 C   0  0  2  0  0  0  0  0  0  0  0  0
   20.6650   -9.6290  -16.4886 N   0  0  0  0  0  0  0  0  0  0  0  0
   20.2322   -7.2420  -16.3507 C   0  0  0  0  0  0  0  0  0  0  0  0
   21.2846   -6.9484  -16.9732 O   0  0  0  0  0  0  0  0  0  0  0  0
   17.0005   -4.7913  -17.4218 C   0  0  0  0  0  0  0  0  0  0  0  0
   18.3765   -4.7330  -18.0496 C   0  0  2  0  0  0  0  0  0  0  0  0
   18.4434   -5.7532  -19.1434 C   0  0  0  0  0  0  0  0  0  0  0  0
   19.3983   -4.9700  -16.9602 C   0  0  2  0  0  0  0  0  0  0  0  0
   19.2157   -6.2504  -16.3165 N   0  0  0  0  0  0  0  0  0  0  0  0
   19.4690   -3.8538  -16.0043 C   0  0  0  0  0  0  0  0  0  0  0  0
   19.8987   -2.7519  -16.3831 O   0  0  0  0  0  0  0  0  0  0  0  0
   19.0656   -4.0207  -14.7045 O   0  0  0  0  0  0  0  0  0  0  0  0
  2  4  1  0
  2  1  1  1
  2  3  1  0
  4  5  2  0
  6  7  1  0
  8  7  1  1
  8  9  1  0
  8 10  1  0
  9  4  1  0
 10 11  2  0
 10 16  1  0
 13 12  1  1
 13 15  1  0
 14 13  1  0
 15 17  1  0
 15 16  1  1
 17 18  2  0
 17 19  1  0
M  END
$$$$
