ASV.pdb
     RDKit          3D

 19 18  0  0  1  0  0  0  0  0999 V2000
   20.1176  -14.5759  -19.2947 C   0  0  0  0  0  0  0  0  0  0  0  0
   20.8678  -13.2605  -19.4758 C   0  0  2  0  0  0  0  0  0  0  0  0
   22.2217  -13.5867  -19.8251 N   0  0  0  0  0  0  0  0  0  0  0  0
   20.8114  -12.5556  -18.1742 C   0  0  0  0  0  0  0  0  0  0  0  0
   19.6831  -12.1937  -17.7325 O   0  0  0  0  0  0  0  0  0  0  0  0
   24.1887  -11.5810  -15.7151 O   0  0  0  0  0  0  0  0  0  0  0  0
   22.9294  -11.8250  -15.1773 C   0  0  0  0  0  0  0  0  0  0  0  0
   21.8157  -11.5453  -16.1489 C   0  0  2  0  0  0  0  0  0  0  0  0
   21.9238  -12.2522  -17.3801 N   0  0  0  0  0  0  0  0  0  0  0  0
   21.7347  -10.0743  -16.3194 C   0  0  0  0  0  0  0  0  0  0  0  0
   22.3915   -9.5250  -17.2403 O   0  0  0  0  0  0  0  0  0  0  0  0
   18.4889   -7.6805  -15.3497 C   0  0  0  0  0  0  0  0  0  0  0  0
   19.5873   -7.3641  -16.3418 C   0  0  2  0  0  0  0  0  0  0  0  0
   19.2815   -8.0652  -17.6289 C   0  0  0  0  0  0  0  0  0  0  0  0
   20.9040   -7.7945  -15.7353 C   0  0  2  0  0  0  0  0  0  0  0  0
   20.9511   -9.2190  -15.4996 N   0  0  0  0  0  0  0  0  0  0  0  0
   21.2585   -7.0055  -14.5452 C   0  0  0  0  0  0  0  0  0  0  0  0
   21.5405   -5.8027  -14.6719 O   0  0  0  0  0  0  0  0  0  0  0  0
   21.2796   -7.5859  -13.3031 O   0  0  0  0  0  0  0  0  0  0  0  0
  2  4  1  0
  2  1  1  1
  2  3  1  0
  4  5  2  0
  6  7  1  0
  8  7  1  1
  8  9  1  0
  8 10  1  0
  9  4  1  0
 10 11  2  0
 10 16  1  0
 13 12  1  1
 13 15  1  0
 14 13  1  0
 15 17  1  0
 15 16  1  1
 17 18  2  0
 17 19  1  0
M  END
$$$$
