ASV.pdb
     RDKit          3D

 19 18  0  0  1  0  0  0  0  0999 V2000
   19.7553  -12.9068  -15.6949 C   0  0  0  0  0  0  0  0  0  0  0  0
   18.4061  -12.2411  -15.9440 C   0  0  2  0  0  0  0  0  0  0  0  0
   17.8271  -12.8700  -17.0976 N   0  0  0  0  0  0  0  0  0  0  0  0
   18.6794  -10.8085  -16.2027 C   0  0  0  0  0  0  0  0  0  0  0  0
   19.4473  -10.5041  -17.1602 O   0  0  0  0  0  0  0  0  0  0  0  0
   16.6703   -7.5803  -14.2780 O   0  0  0  0  0  0  0  0  0  0  0  0
   17.1203   -7.5164  -15.5926 C   0  0  0  0  0  0  0  0  0  0  0  0
   18.3231   -8.3850  -15.8405 C   0  0  2  0  0  0  0  0  0  0  0  0
   18.1483   -9.7462  -15.4613 N   0  0  0  0  0  0  0  0  0  0  0  0
   19.4828   -7.7348  -15.1835 C   0  0  0  0  0  0  0  0  0  0  0  0
   19.8216   -8.1025  -14.0297 O   0  0  0  0  0  0  0  0  0  0  0  0
   23.7723   -5.4558  -15.3549 C   0  0  0  0  0  0  0  0  0  0  0  0
   22.5876   -6.0165  -16.1121 C   0  0  2  0  0  0  0  0  0  0  0  0
   22.2495   -5.0773  -17.2281 C   0  0  0  0  0  0  0  0  0  0  0  0
   21.4505   -6.2004  -15.1323 C   0  0  2  0  0  0  0  0  0  0  0  0
   20.2582   -6.7022  -15.7753 N   0  0  0  0  0  0  0  0  0  0  0  0
   21.2023   -4.9941  -14.3275 C   0  0  0  0  0  0  0  0  0  0  0  0
   21.9911   -4.6952  -13.4160 O   0  0  0  0  0  0  0  0  0  0  0  0
   20.1114   -4.2013  -14.5755 O   0  0  0  0  0  0  0  0  0  0  0  0
  2  4  1  0
  2  1  1  6
  2  3  1  0
  4  5  2  0
  6  7  1  0
  8  7  1  1
  8  9  1  0
  8 10  1  0
  9  4  1  0
 10 11  2  0
 10 16  1  0
 13 12  1  1
 13 15  1  0
 14 13  1  0
 15 17  1  0
 15 16  1  6
 17 18  2  0
 17 19  1  0
M  END
$$$$
