ASV.pdb
     RDKit          3D

 19 18  0  0  1  0  0  0  0  0999 V2000
   15.8464  -12.7286  -13.4879 C   0  0  0  0  0  0  0  0  0  0  0  0
   15.1587  -11.3674  -13.4900 C   0  0  2  0  0  0  0  0  0  0  0  0
   15.3808  -10.7797  -14.7810 N   0  0  0  0  0  0  0  0  0  0  0  0
   15.8014  -10.5640  -12.4243 C   0  0  0  0  0  0  0  0  0  0  0  0
   15.6156  -10.9009  -11.2197 O   0  0  0  0  0  0  0  0  0  0  0  0
   18.0030   -6.9139  -13.0061 O   0  0  0  0  0  0  0  0  0  0  0  0
   18.3080   -7.7954  -11.9744 C   0  0  0  0  0  0  0  0  0  0  0  0
   17.1415   -8.6600  -11.5816 C   0  0  2  0  0  0  0  0  0  0  0  0
   16.6113   -9.4436  -12.6456 N   0  0  0  0  0  0  0  0  0  0  0  0
   16.1345   -7.7812  -10.9389 C   0  0  0  0  0  0  0  0  0  0  0  0
   15.1839   -7.3295  -11.6271 O   0  0  0  0  0  0  0  0  0  0  0  0
   13.9078   -8.0797   -7.9686 C   0  0  0  0  0  0  0  0  0  0  0  0
   14.6478   -6.7778   -7.7485 C   0  0  2  0  0  0  0  0  0  0  0  0
   13.6764   -5.7597   -7.2371 C   0  0  0  0  0  0  0  0  0  0  0  0
   15.2870   -6.3756   -9.0587 C   0  0  2  0  0  0  0  0  0  0  0  0
   16.1649   -7.4026   -9.5701 N   0  0  0  0  0  0  0  0  0  0  0  0
   15.9319   -5.0552   -8.9867 C   0  0  0  0  0  0  0  0  0  0  0  0
   17.1393   -4.9798   -8.7061 O   0  0  0  0  0  0  0  0  0  0  0  0
   15.2125   -3.9127   -9.2261 O   0  0  0  0  0  0  0  0  0  0  0  0
  2  4  1  0
  2  1  1  6
  2  3  1  0
  4  5  2  0
  6  7  1  0
  8  7  1  6
  8  9  1  0
  8 10  1  0
  9  4  1  0
 10 11  2  0
 10 16  1  0
 13 12  1  6
 13 15  1  0
 14 13  1  0
 15 17  1  0
 15 16  1  1
 17 18  2  0
 17 19  1  0
M  END
$$$$
