EMD.pdb
     RDKit          3D

 26 25  0  0  1  0  0  0  0  0999 V2000
    7.4933  -17.3387   21.7839 N   0  0  0  0  0  0  0  0  0  0  0  0
    8.6043  -16.5935   21.2215 C   0  0  1  0  0  0  0  0  0  0  0  0
    8.2183  -15.8973   19.9590 C   0  0  0  0  0  0  0  0  0  0  0  0
    7.3908  -16.6947   19.0181 C   0  0  0  0  0  0  0  0  0  0  0  0
    7.8969  -16.7099   17.6358 C   0  0  0  0  0  0  0  0  0  0  0  0
    8.3038  -15.6665   17.1094 O   0  0  0  0  0  0  0  0  0  0  0  0
    9.0648  -15.6136   22.2386 C   0  0  0  0  0  0  0  0  0  0  0  0
    9.9976  -14.8490   21.9702 O   0  0  0  0  0  0  0  0  0  0  0  0
    7.9341  -17.8861   16.8825 O   0  0  0  0  0  0  0  0  0  0  0  0
    6.1702  -12.4354   27.3645 C   0  0  0  0  0  0  0  0  0  0  0  0
    5.9458  -12.0664   25.6170 S   0  0  0  0  0  0  0  0  0  0  0  0
    7.0469  -13.0474   24.5619 C   0  0  0  0  0  0  0  0  0  0  0  0
    7.8987  -13.9938   25.3912 C   0  0  0  0  0  0  0  0  0  0  0  0
    8.9387  -14.6863   24.5844 C   0  0  2  0  0  0  0  0  0  0  0  0
    8.4803  -15.5051   23.5274 N   0  0  0  0  0  0  0  0  0  0  0  0
    9.7809  -15.4899   25.5043 C   0  0  0  0  0  0  0  0  0  0  0  0
    9.5835  -15.4627   26.7638 O   0  0  0  0  0  0  0  0  0  0  0  0
   10.8278  -16.3098   25.0078 N   0  0  0  0  0  0  0  0  0  0  0  0
   11.5237  -17.2506   25.9285 C   0  0  1  0  0  0  0  0  0  0  0  0
   10.5130  -18.2308   26.4640 C   0  0  0  0  0  0  0  0  0  0  0  0
   11.0357  -19.2906   27.3112 C   0  0  0  0  0  0  0  0  0  0  0  0
   12.2514  -19.3819   27.5720 O   0  0  0  0  0  0  0  0  0  0  0  0
   12.4797  -18.0009   25.0595 C   0  0  0  0  0  0  0  0  0  0  0  0
   13.7686  -18.3343   25.4618 O   0  0  0  0  0  0  0  0  0  0  0  0
   10.1048  -20.2113   27.8250 O   0  0  0  0  0  0  0  0  0  0  0  0
   12.1362  -18.3551   23.9242 O   0  0  0  0  0  0  0  0  0  0  0  0
  2  3  1  0
  2  1  1  1
  4  3  1  0
  5  6  2  0
  5  4  1  0
  7  8  2  0
  7  2  1  0
  9  5  1  0
 10 11  1  0
 11 12  1  0
 14 13  1  1
 13 12  1  0
 14 15  1  0
 15  7  1  0
 16 14  1  0
 17 16  2  0
 18 16  1  0
 19 20  1  6
 19 18  1  0
 21 25  1  0
 21 20  1  0
 22 21  2  0
 23 19  1  0
 24 23  1  0
 26 23  2  0
M  END
$$$$
