EMD.pdb
     RDKit          3D

 26 25  0  0  1  0  0  0  0  0999 V2000
    8.8149  -17.4013   20.9021 N   0  0  0  0  0  0  0  0  0  0  0  0
   10.2014  -17.2689   21.3094 C   0  0  1  0  0  0  0  0  0  0  0  0
   11.0157  -16.5680   20.2735 C   0  0  0  0  0  0  0  0  0  0  0  0
   11.2893  -17.3496   19.0405 C   0  0  0  0  0  0  0  0  0  0  0  0
   11.9885  -16.5915   17.9900 C   0  0  0  0  0  0  0  0  0  0  0  0
   13.1724  -16.2642   18.1406 O   0  0  0  0  0  0  0  0  0  0  0  0
   10.2360  -16.5232   22.5937 C   0  0  0  0  0  0  0  0  0  0  0  0
   11.3242  -16.2525   23.1125 O   0  0  0  0  0  0  0  0  0  0  0  0
   11.3480  -16.2212   16.8047 O   0  0  0  0  0  0  0  0  0  0  0  0
    6.8688  -11.2252   25.3131 C   0  0  0  0  0  0  0  0  0  0  0  0
    6.5934  -12.6768   26.3414 S   0  0  0  0  0  0  0  0  0  0  0  0
    7.9107  -13.9090   26.1554 C   0  0  0  0  0  0  0  0  0  0  0  0
    7.8591  -14.5618   24.7843 C   0  0  0  0  0  0  0  0  0  0  0  0
    9.0152  -15.4635   24.5340 C   0  0  2  0  0  0  0  0  0  0  0  0
    9.0642  -16.0960   23.2710 N   0  0  0  0  0  0  0  0  0  0  0  0
    9.0425  -16.4908   25.6042 C   0  0  0  0  0  0  0  0  0  0  0  0
    8.1321  -17.3803   25.6804 O   0  0  0  0  0  0  0  0  0  0  0  0
   10.0817  -16.5112   26.5708 N   0  0  0  0  0  0  0  0  0  0  0  0
   10.1798  -17.6543   27.5199 C   0  0  1  0  0  0  0  0  0  0  0  0
   11.3270  -18.5325   27.0937 C   0  0  0  0  0  0  0  0  0  0  0  0
   11.1406  -19.9628   27.2773 C   0  0  0  0  0  0  0  0  0  0  0  0
   12.0374  -20.6847   27.7557 O   0  0  0  0  0  0  0  0  0  0  0  0
   10.5351  -17.0341   28.8318 C   0  0  0  0  0  0  0  0  0  0  0  0
   10.1981  -17.6028   30.0555 O   0  0  0  0  0  0  0  0  0  0  0  0
    9.8986  -20.4971   26.8896 O   0  0  0  0  0  0  0  0  0  0  0  0
   11.1582  -15.9648   28.8618 O   0  0  0  0  0  0  0  0  0  0  0  0
  2  3  1  0
  2  1  1  6
  4  3  1  0
  5  6  2  0
  5  4  1  0
  7  8  2  0
  7  2  1  0
  9  5  1  0
 10 11  1  0
 11 12  1  0
 14 13  1  6
 13 12  1  0
 14 15  1  0
 15  7  1  0
 16 14  1  0
 17 16  2  0
 18 16  1  0
 19 20  1  6
 19 18  1  0
 21 25  1  0
 21 20  1  0
 22 21  2  0
 23 19  1  0
 24 23  1  0
 26 23  2  0
M  END
$$$$
