EMD.pdb
     RDKit          3D

 26 25  0  0  1  0  0  0  0  0999 V2000
    7.2658  -16.9519   20.1461 N   0  0  0  0  0  0  0  0  0  0  0  0
    8.6685  -16.5847   20.0878 C   0  0  1  0  0  0  0  0  0  0  0  0
    8.9683  -15.7407   18.8940 C   0  0  0  0  0  0  0  0  0  0  0  0
    7.8566  -15.5957   17.9198 C   0  0  0  0  0  0  0  0  0  0  0  0
    8.1536  -16.1357   16.5829 C   0  0  0  0  0  0  0  0  0  0  0  0
    7.7563  -17.2634   16.2637 O   0  0  0  0  0  0  0  0  0  0  0  0
    9.0082  -15.8594   21.3389 C   0  0  0  0  0  0  0  0  0  0  0  0
   10.1436  -15.3945   21.4852 O   0  0  0  0  0  0  0  0  0  0  0  0
    8.8836  -15.4036   15.6430 O   0  0  0  0  0  0  0  0  0  0  0  0
    6.7855  -11.5238   27.5669 C   0  0  0  0  0  0  0  0  0  0  0  0
    6.2987  -12.4768   26.1194 S   0  0  0  0  0  0  0  0  0  0  0  0
    7.6505  -13.5094   25.4917 C   0  0  0  0  0  0  0  0  0  0  0  0
    7.2338  -14.2489   24.2314 C   0  0  0  0  0  0  0  0  0  0  0  0
    8.3461  -15.0336   23.6320 C   0  0  2  0  0  0  0  0  0  0  0  0
    8.0814  -15.6671   22.3965 N   0  0  0  0  0  0  0  0  0  0  0  0
    8.7869  -16.0456   24.6234 C   0  0  0  0  0  0  0  0  0  0  0  0
    8.0309  -17.0219   24.9418 O   0  0  0  0  0  0  0  0  0  0  0  0
   10.0605  -15.9546   25.2433 N   0  0  0  0  0  0  0  0  0  0  0  0
   10.5625  -17.0930   26.0612 C   0  0  1  0  0  0  0  0  0  0  0  0
   12.0523  -17.2014   25.8664 C   0  0  0  0  0  0  0  0  0  0  0  0
   12.4976  -17.5843   24.5363 C   0  0  0  0  0  0  0  0  0  0  0  0
   11.7906  -18.2834   23.7842 O   0  0  0  0  0  0  0  0  0  0  0  0
   10.3097  -16.6888   27.4771 C   0  0  0  0  0  0  0  0  0  0  0  0
    9.7731  -15.4549   27.8292 O   0  0  0  0  0  0  0  0  0  0  0  0
   13.7664  -17.1289   24.1350 O   0  0  0  0  0  0  0  0  0  0  0  0
   10.5806  -17.4677   28.4003 O   0  0  0  0  0  0  0  0  0  0  0  0
  2  3  1  0
  2  1  1  1
  4  3  1  0
  5  6  2  0
  5  4  1  0
  7  8  2  0
  7  2  1  0
  9  5  1  0
 10 11  1  0
 11 12  1  0
 14 13  1  1
 13 12  1  0
 14 15  1  0
 15  7  1  0
 16 14  1  0
 17 16  2  0
 18 16  1  0
 19 20  1  1
 19 18  1  0
 21 25  1  0
 21 20  1  0
 22 21  2  0
 23 19  1  0
 24 23  1  0
 26 23  2  0
M  END
$$$$
