EMD.pdb
     RDKit          3D

 26 25  0  0  1  0  0  0  0  0999 V2000
    7.1517  -16.2355   20.7618 N   0  0  0  0  0  0  0  0  0  0  0  0
    8.5532  -15.8816   20.6331 C   0  0  1  0  0  0  0  0  0  0  0  0
    8.7613  -14.8192   19.6058 C   0  0  0  0  0  0  0  0  0  0  0  0
    7.7692  -14.7972   18.5007 C   0  0  0  0  0  0  0  0  0  0  0  0
    8.1248  -15.6512   17.3556 C   0  0  0  0  0  0  0  0  0  0  0  0
    7.2788  -16.3990   16.8491 O   0  0  0  0  0  0  0  0  0  0  0  0
    9.0381  -15.4262   21.9613 C   0  0  0  0  0  0  0  0  0  0  0  0
   10.2035  -15.0343   22.0834 O   0  0  0  0  0  0  0  0  0  0  0  0
    9.4112  -15.6464   16.8100 O   0  0  0  0  0  0  0  0  0  0  0  0
    7.1038  -11.5959   27.3579 C   0  0  0  0  0  0  0  0  0  0  0  0
    6.1178  -12.2899   26.0213 S   0  0  0  0  0  0  0  0  0  0  0  0
    7.1369  -13.1486   24.7916 C   0  0  0  0  0  0  0  0  0  0  0  0
    7.6387  -14.4781   25.3296 C   0  0  0  0  0  0  0  0  0  0  0  0
    8.6417  -15.1170   24.4363 C   0  0  2  0  0  0  0  0  0  0  0  0
    8.2198  -15.4162   23.1209 N   0  0  0  0  0  0  0  0  0  0  0  0
    9.1275  -16.3548   25.0945 C   0  0  0  0  0  0  0  0  0  0  0  0
    8.4365  -17.4261   25.0643 O   0  0  0  0  0  0  0  0  0  0  0  0
   10.3731  -16.3799   25.7747 N   0  0  0  0  0  0  0  0  0  0  0  0
   10.8419  -17.6460   26.4024 C   0  0  1  0  0  0  0  0  0  0  0  0
   12.3106  -17.8093   26.1099 C   0  0  0  0  0  0  0  0  0  0  0  0
   12.6916  -17.7745   24.7071 C   0  0  0  0  0  0  0  0  0  0  0  0
   12.1940  -18.5561   23.8730 O   0  0  0  0  0  0  0  0  0  0  0  0
   10.6849  -17.4267   27.8718 C   0  0  0  0  0  0  0  0  0  0  0  0
   10.9266  -18.4183   28.8166 O   0  0  0  0  0  0  0  0  0  0  0  0
   13.6502  -16.8158   24.3324 O   0  0  0  0  0  0  0  0  0  0  0  0
   10.3244  -16.3214   28.2971 O   0  0  0  0  0  0  0  0  0  0  0  0
  2  3  1  0
  2  1  1  1
  4  3  1  0
  5  6  2  0
  5  4  1  0
  7  8  2  0
  7  2  1  0
  9  5  1  0
 10 11  1  0
 11 12  1  0
 14 13  1  1
 13 12  1  0
 14 15  1  0
 15  7  1  0
 16 14  1  0
 17 16  2  0
 18 16  1  0
 19 20  1  1
 19 18  1  0
 21 25  1  0
 21 20  1  0
 22 21  2  0
 23 19  1  0
 24 23  1  0
 26 23  2  0
M  END
$$$$
