EMD.pdb
     RDKit          3D

 26 25  0  0  1  0  0  0  0  0999 V2000
    8.1952  -18.1634   22.0288 N   0  0  0  0  0  0  0  0  0  0  0  0
    9.5860  -17.7691   21.9025 C   0  0  1  0  0  0  0  0  0  0  0  0
    9.9095  -17.3255   20.5147 C   0  0  0  0  0  0  0  0  0  0  0  0
   11.3211  -16.9245   20.2857 C   0  0  0  0  0  0  0  0  0  0  0  0
   11.6252  -16.5619   18.8918 C   0  0  0  0  0  0  0  0  0  0  0  0
   11.2040  -17.2590   17.9601 O   0  0  0  0  0  0  0  0  0  0  0  0
    9.8459  -16.6760   22.8742 C   0  0  0  0  0  0  0  0  0  0  0  0
   10.9822  -16.1995   22.9665 O   0  0  0  0  0  0  0  0  0  0  0  0
   12.3890  -15.4346   18.5783 O   0  0  0  0  0  0  0  0  0  0  0  0
    5.9398  -11.5046   25.2364 C   0  0  0  0  0  0  0  0  0  0  0  0
    6.5791  -12.4421   26.6337 S   0  0  0  0  0  0  0  0  0  0  0  0
    8.0762  -13.3726   26.2081 C   0  0  0  0  0  0  0  0  0  0  0  0
    7.7993  -14.3777   25.1027 C   0  0  0  0  0  0  0  0  0  0  0  0
    9.0184  -15.1190   24.6824 C   0  0  2  0  0  0  0  0  0  0  0  0
    8.8404  -16.1380   23.7192 N   0  0  0  0  0  0  0  0  0  0  0  0
    9.6560  -15.6890   25.8948 C   0  0  0  0  0  0  0  0  0  0  0  0
    9.9240  -14.9524   26.9006 O   0  0  0  0  0  0  0  0  0  0  0  0
    9.9842  -17.0680   25.9679 N   0  0  0  0  0  0  0  0  0  0  0  0
   10.5632  -17.6198   27.2237 C   0  0  1  0  0  0  0  0  0  0  0  0
    9.6227  -18.6645   27.7651 C   0  0  0  0  0  0  0  0  0  0  0  0
   10.0734  -19.3803   28.9478 C   0  0  0  0  0  0  0  0  0  0  0  0
   11.1979  -19.9159   29.0011 O   0  0  0  0  0  0  0  0  0  0  0  0
   11.8201  -18.3057   26.7975 C   0  0  0  0  0  0  0  0  0  0  0  0
   12.0490  -18.7266   25.4918 O   0  0  0  0  0  0  0  0  0  0  0  0
    9.1805  -19.4411   30.0328 O   0  0  0  0  0  0  0  0  0  0  0  0
   12.7166  -18.5228   27.6231 O   0  0  0  0  0  0  0  0  0  0  0  0
  2  3  1  0
  2  1  1  6
  4  3  1  0
  5  6  2  0
  5  4  1  0
  7  8  2  0
  7  2  1  0
  9  5  1  0
 10 11  1  0
 11 12  1  0
 14 13  1  1
 13 12  1  0
 14 15  1  0
 15  7  1  0
 16 14  1  0
 17 16  2  0
 18 16  1  0
 19 20  1  6
 19 18  1  0
 21 25  1  0
 21 20  1  0
 22 21  2  0
 23 19  1  0
 24 23  1  0
 26 23  2  0
M  END
$$$$
