EMD.pdb
     RDKit          3D

 26 25  0  0  1  0  0  0  0  0999 V2000
    7.9987  -14.8260   19.0250 N   0  0  0  0  0  0  0  0  0  0  0  0
    7.1919  -15.1689   20.1814 C   0  0  1  0  0  0  0  0  0  0  0  0
    6.6875  -16.5715   20.1053 C   0  0  0  0  0  0  0  0  0  0  0  0
    7.7277  -17.6141   19.9128 C   0  0  0  0  0  0  0  0  0  0  0  0
    7.1944  -18.9804   19.7874 C   0  0  0  0  0  0  0  0  0  0  0  0
    7.9629  -19.9377   19.6307 O   0  0  0  0  0  0  0  0  0  0  0  0
    8.0236  -14.9782   21.3974 C   0  0  0  0  0  0  0  0  0  0  0  0
    9.2519  -14.8983   21.2898 O   0  0  0  0  0  0  0  0  0  0  0  0
    5.8222  -19.2387   19.8402 O   0  0  0  0  0  0  0  0  0  0  0  0
    6.0297  -10.5076   26.7594 C   0  0  0  0  0  0  0  0  0  0  0  0
    6.2285  -12.2905   26.6105 S   0  0  0  0  0  0  0  0  0  0  0  0
    7.2111  -12.7522   25.1581 C   0  0  0  0  0  0  0  0  0  0  0  0
    7.4129  -14.2566   25.0903 C   0  0  0  0  0  0  0  0  0  0  0  0
    8.1977  -14.6774   23.8989 C   0  0  2  0  0  0  0  0  0  0  0  0
    7.4736  -14.8806   22.7022 N   0  0  0  0  0  0  0  0  0  0  0  0
    8.9398  -15.9145   24.2453 C   0  0  0  0  0  0  0  0  0  0  0  0
    8.4175  -17.0634   24.0626 O   0  0  0  0  0  0  0  0  0  0  0  0
   10.2496  -15.8528   24.7888 N   0  0  0  0  0  0  0  0  0  0  0  0
   10.9849  -17.1146   25.0788 C   0  0  1  0  0  0  0  0  0  0  0  0
   12.4512  -16.8830   24.8231 C   0  0  0  0  0  0  0  0  0  0  0  0
   13.2629  -18.0737   24.6288 C   0  0  0  0  0  0  0  0  0  0  0  0
   12.7497  -19.1881   24.4080 O   0  0  0  0  0  0  0  0  0  0  0  0
   10.8009  -17.3375   26.5445 C   0  0  0  0  0  0  0  0  0  0  0  0
   10.0889  -16.4650   27.3607 O   0  0  0  0  0  0  0  0  0  0  0  0
   14.6581  -17.9108   24.7013 O   0  0  0  0  0  0  0  0  0  0  0  0
   11.2935  -18.3364   27.0847 O   0  0  0  0  0  0  0  0  0  0  0  0
  2  3  1  0
  2  1  1  6
  4  3  1  0
  5  6  2  0
  5  4  1  0
  7  8  2  0
  7  2  1  0
  9  5  1  0
 10 11  1  0
 11 12  1  0
 14 13  1  1
 13 12  1  0
 14 15  1  0
 15  7  1  0
 16 14  1  0
 17 16  2  0
 18 16  1  0
 19 20  1  1
 19 18  1  0
 21 25  1  0
 21 20  1  0
 22 21  2  0
 23 19  1  0
 24 23  1  0
 26 23  2  0
M  END
$$$$
