EMD.pdb
     RDKit          3D

 26 25  0  0  1  0  0  0  0  0999 V2000
    8.2866  -16.5082   19.3810 N   0  0  0  0  0  0  0  0  0  0  0  0
    7.7666  -16.8512   20.6917 C   0  0  1  0  0  0  0  0  0  0  0  0
    8.0450  -18.2755   21.0397 C   0  0  0  0  0  0  0  0  0  0  0  0
    8.5481  -19.1181   19.9248 C   0  0  0  0  0  0  0  0  0  0  0  0
    9.0382  -20.4414   20.3442 C   0  0  0  0  0  0  0  0  0  0  0  0
    9.5236  -21.2187   19.5126 O   0  0  0  0  0  0  0  0  0  0  0  0
    8.3866  -15.9395   21.6873 C   0  0  0  0  0  0  0  0  0  0  0  0
    9.4753  -15.4120   21.4361 O   0  0  0  0  0  0  0  0  0  0  0  0
    8.9727  -20.8581   21.6763 O   0  0  0  0  0  0  0  0  0  0  0  0
    7.0308  -10.8613   27.6539 C   0  0  0  0  0  0  0  0  0  0  0  0
    6.4475  -12.2723   26.7005 S   0  0  0  0  0  0  0  0  0  0  0  0
    7.7448  -12.9682   25.6418 C   0  0  0  0  0  0  0  0  0  0  0  0
    7.1792  -14.0227   24.7053 C   0  0  0  0  0  0  0  0  0  0  0  0
    8.2234  -14.6556   23.8560 C   0  0  2  0  0  0  0  0  0  0  0  0
    7.7847  -15.6349   22.9360 N   0  0  0  0  0  0  0  0  0  0  0  0
    9.2552  -15.2402   24.7477 C   0  0  0  0  0  0  0  0  0  0  0  0
    9.7451  -14.5649   25.7119 O   0  0  0  0  0  0  0  0  0  0  0  0
    9.7241  -16.5655   24.5516 N   0  0  0  0  0  0  0  0  0  0  0  0
   10.7559  -17.1229   25.4690 C   0  0  1  0  0  0  0  0  0  0  0  0
   10.4555  -18.5814   25.6968 C   0  0  0  0  0  0  0  0  0  0  0  0
    9.7310  -18.9028   26.9158 C   0  0  0  0  0  0  0  0  0  0  0  0
    9.4939  -18.0405   27.7843 O   0  0  0  0  0  0  0  0  0  0  0  0
   12.0376  -17.0286   24.7073 C   0  0  0  0  0  0  0  0  0  0  0  0
   13.2872  -17.0899   25.3150 O   0  0  0  0  0  0  0  0  0  0  0  0
    9.3084  -20.2353   27.0715 O   0  0  0  0  0  0  0  0  0  0  0  0
   12.0173  -16.8891   23.4775 O   0  0  0  0  0  0  0  0  0  0  0  0
  2  3  1  0
  2  1  1  6
  4  3  1  0
  5  6  2  0
  5  4  1  0
  7  8  2  0
  7  2  1  0
  9  5  1  0
 10 11  1  0
 11 12  1  0
 14 13  1  1
 13 12  1  0
 14 15  1  0
 15  7  1  0
 16 14  1  0
 17 16  2  0
 18 16  1  0
 19 20  1  6
 19 18  1  0
 21 25  1  0
 21 20  1  0
 22 21  2  0
 23 19  1  0
 24 23  1  0
 26 23  2  0
M  END
$$$$
