EMD.pdb
     RDKit          3D

 26 25  0  0  1  0  0  0  0  0999 V2000
    9.6140  -18.3720   21.9549 N   0  0  0  0  0  0  0  0  0  0  0  0
   10.2691  -17.1031   21.6968 C   0  0  1  0  0  0  0  0  0  0  0  0
    9.7424  -16.4520   20.4614 C   0  0  0  0  0  0  0  0  0  0  0  0
    8.3301  -16.7673   20.1265 C   0  0  0  0  0  0  0  0  0  0  0  0
    7.8037  -16.0193   18.9731 C   0  0  0  0  0  0  0  0  0  0  0  0
    8.4078  -16.0325   17.8932 O   0  0  0  0  0  0  0  0  0  0  0  0
   10.0605  -16.2272   22.8784 C   0  0  0  0  0  0  0  0  0  0  0  0
   10.6847  -15.1646   22.9675 O   0  0  0  0  0  0  0  0  0  0  0  0
    6.6212  -15.2798   19.0578 O   0  0  0  0  0  0  0  0  0  0  0  0
    6.5561  -11.2974   25.8585 C   0  0  0  0  0  0  0  0  0  0  0  0
    7.2159  -12.9141   26.2959 S   0  0  0  0  0  0  0  0  0  0  0  0
    7.0180  -14.1208   24.9570 C   0  0  0  0  0  0  0  0  0  0  0  0
    7.4750  -15.5024   25.3941 C   0  0  0  0  0  0  0  0  0  0  0  0
    8.9044  -15.7618   25.0750 C   0  0  2  0  0  0  0  0  0  0  0  0
    9.1657  -16.5505   23.9315 N   0  0  0  0  0  0  0  0  0  0  0  0
    9.5393  -16.3848   26.2624 C   0  0  0  0  0  0  0  0  0  0  0  0
    9.5135  -15.8049   27.3978 O   0  0  0  0  0  0  0  0  0  0  0  0
   10.1916  -17.6418   26.1669 N   0  0  0  0  0  0  0  0  0  0  0  0
   10.8524  -18.2199   27.3694 C   0  0  1  0  0  0  0  0  0  0  0  0
   10.5028  -19.6830   27.4501 C   0  0  0  0  0  0  0  0  0  0  0  0
    9.1934  -19.9989   27.9977 C   0  0  0  0  0  0  0  0  0  0  0  0
    8.1424  -19.6270   27.4399 O   0  0  0  0  0  0  0  0  0  0  0  0
   12.3163  -18.1090   27.0932 C   0  0  0  0  0  0  0  0  0  0  0  0
   13.2907  -18.3715   28.0504 O   0  0  0  0  0  0  0  0  0  0  0  0
    9.1660  -20.7458   29.1893 O   0  0  0  0  0  0  0  0  0  0  0  0
   12.7097  -17.7701   25.9694 O   0  0  0  0  0  0  0  0  0  0  0  0
  2  3  1  0
  2  1  1  1
  4  3  1  0
  5  6  2  0
  5  4  1  0
  7  8  2  0
  7  2  1  0
  9  5  1  0
 10 11  1  0
 11 12  1  0
 14 13  1  1
 13 12  1  0
 14 15  1  0
 15  7  1  0
 16 14  1  0
 17 16  2  0
 18 16  1  0
 19 20  1  6
 19 18  1  0
 21 25  1  0
 21 20  1  0
 22 21  2  0
 23 19  1  0
 24 23  1  0
 26 23  2  0
M  END
$$$$
