EMD.pdb
     RDKit          3D

 26 25  0  0  1  0  0  0  0  0999 V2000
    7.3679  -15.6243   20.2451 N   0  0  0  0  0  0  0  0  0  0  0  0
    8.5073  -14.7317   20.3479 C   0  0  1  0  0  0  0  0  0  0  0  0
    8.3318  -13.5142   19.5027 C   0  0  0  0  0  0  0  0  0  0  0  0
    7.6208  -13.7276   18.2163 C   0  0  0  0  0  0  0  0  0  0  0  0
    8.4321  -14.3920   17.1832 C   0  0  0  0  0  0  0  0  0  0  0  0
    9.5899  -14.7498   17.4341 O   0  0  0  0  0  0  0  0  0  0  0  0
    8.6728  -14.3569   21.7758 C   0  0  0  0  0  0  0  0  0  0  0  0
    9.5505  -13.5485   22.0963 O   0  0  0  0  0  0  0  0  0  0  0  0
    7.9294  -14.6375   15.9027 O   0  0  0  0  0  0  0  0  0  0  0  0
    7.0081  -11.4592   27.9568 C   0  0  0  0  0  0  0  0  0  0  0  0
    6.8924  -12.1480   26.2978 S   0  0  0  0  0  0  0  0  0  0  0  0
    6.7300  -13.9540   26.3147 C   0  0  0  0  0  0  0  0  0  0  0  0
    6.6059  -14.5050   24.9040 C   0  0  0  0  0  0  0  0  0  0  0  0
    7.9028  -14.5154   24.1758 C   0  0  2  0  0  0  0  0  0  0  0  0
    7.8616  -14.8871   22.8128 N   0  0  0  0  0  0  0  0  0  0  0  0
    8.8371  -15.4081   24.9049 C   0  0  0  0  0  0  0  0  0  0  0  0
    9.1708  -15.1613   26.1105 O   0  0  0  0  0  0  0  0  0  0  0  0
    9.3840  -16.5596   24.2807 N   0  0  0  0  0  0  0  0  0  0  0  0
   10.3310  -17.4251   25.0364 C   0  0  1  0  0  0  0  0  0  0  0  0
   11.7030  -16.8072   24.9666 C   0  0  0  0  0  0  0  0  0  0  0  0
   12.4382  -17.0190   23.7301 C   0  0  0  0  0  0  0  0  0  0  0  0
   11.9516  -17.6633   22.7802 O   0  0  0  0  0  0  0  0  0  0  0  0
    9.8650  -17.3568   26.4541 C   0  0  0  0  0  0  0  0  0  0  0  0
   10.2263  -18.2931   27.4170 O   0  0  0  0  0  0  0  0  0  0  0  0
   13.7275  -16.4620   23.6537 O   0  0  0  0  0  0  0  0  0  0  0  0
    9.1223  -16.4354   26.8174 O   0  0  0  0  0  0  0  0  0  0  0  0
  2  3  1  0
  2  1  1  1
  4  3  1  0
  5  6  2  0
  5  4  1  0
  7  8  2  0
  7  2  1  0
  9  5  1  0
 10 11  1  0
 11 12  1  0
 14 13  1  1
 13 12  1  0
 14 15  1  0
 15  7  1  0
 16 14  1  0
 17 16  2  0
 18 16  1  0
 19 20  1  1
 19 18  1  0
 21 25  1  0
 21 20  1  0
 22 21  2  0
 23 19  1  0
 24 23  1  0
 26 23  2  0
M  END
$$$$
