EMD.pdb
     RDKit          3D

 26 25  0  0  1  0  0  0  0  0999 V2000
    8.6575  -15.2083   19.4245 N   0  0  0  0  0  0  0  0  0  0  0  0
    7.7307  -15.5908   20.4735 C   0  0  1  0  0  0  0  0  0  0  0  0
    7.2618  -16.9981   20.3087 C   0  0  0  0  0  0  0  0  0  0  0  0
    7.6038  -17.6368   19.0121 C   0  0  0  0  0  0  0  0  0  0  0  0
    7.8891  -19.0778   19.1078 C   0  0  0  0  0  0  0  0  0  0  0  0
    7.8812  -19.6432   20.2085 O   0  0  0  0  0  0  0  0  0  0  0  0
    8.4158  -15.4181   21.7803 C   0  0  0  0  0  0  0  0  0  0  0  0
    9.6343  -15.2150   21.8078 O   0  0  0  0  0  0  0  0  0  0  0  0
    8.1744  -19.8446   17.9751 O   0  0  0  0  0  0  0  0  0  0  0  0
    6.5996  -10.5335   26.5700 C   0  0  0  0  0  0  0  0  0  0  0  0
    6.6320  -12.3304   26.6715 S   0  0  0  0  0  0  0  0  0  0  0  0
    7.2624  -13.0921   25.1514 C   0  0  0  0  0  0  0  0  0  0  0  0
    7.3877  -14.5985   25.3059 C   0  0  0  0  0  0  0  0  0  0  0  0
    8.2926  -15.2059   24.2939 C   0  0  2  0  0  0  0  0  0  0  0  0
    7.7338  -15.4746   23.0237 N   0  0  0  0  0  0  0  0  0  0  0  0
    8.8529  -16.4562   24.8633 C   0  0  0  0  0  0  0  0  0  0  0  0
    8.0990  -17.4503   25.1266 O   0  0  0  0  0  0  0  0  0  0  0  0
   10.2416  -16.5793   25.1299 N   0  0  0  0  0  0  0  0  0  0  0  0
   10.7577  -17.8141   25.7825 C   0  0  1  0  0  0  0  0  0  0  0  0
   12.2159  -17.9643   25.4359 C   0  0  0  0  0  0  0  0  0  0  0  0
   12.5441  -17.9303   24.0198 C   0  0  0  0  0  0  0  0  0  0  0  0
   12.1505  -18.8147   23.2343 O   0  0  0  0  0  0  0  0  0  0  0  0
   10.6564  -17.5442   27.2484 C   0  0  0  0  0  0  0  0  0  0  0  0
   10.9545  -18.4966   28.2171 O   0  0  0  0  0  0  0  0  0  0  0  0
   13.3282  -16.8508   23.5747 O   0  0  0  0  0  0  0  0  0  0  0  0
   10.2932  -16.4305   27.6485 O   0  0  0  0  0  0  0  0  0  0  0  0
  2  3  1  0
  2  1  1  6
  4  3  1  0
  5  6  2  0
  5  4  1  0
  7  8  2  0
  7  2  1  0
  9  5  1  0
 10 11  1  0
 11 12  1  0
 14 13  1  1
 13 12  1  0
 14 15  1  0
 15  7  1  0
 16 14  1  0
 17 16  2  0
 18 16  1  0
 19 20  1  6
 19 18  1  0
 21 25  1  0
 21 20  1  0
 22 21  2  0
 23 19  1  0
 24 23  1  0
 26 23  2  0
M  END
$$$$
