PKF.pdb
     RDKit          3D

 28 29  0  0  1  0  0  0  0  0999 V2000
   20.9018  -15.6752  -19.0478 N   0  0  0  0  0  0  0  0  0  0  0  0
   21.0640  -17.0415  -19.5120 C   0  0  0  0  0  0  0  0  0  0  0  0
   21.5678  -16.8036  -20.9331 C   0  0  0  0  0  0  0  0  0  0  0  0
   22.4568  -15.5721  -20.7532 C   0  0  0  0  0  0  0  0  0  0  0  0
   22.1560  -15.0753  -19.3925 C   0  0  1  0  0  0  0  0  0  0  0  0
   22.1471  -13.6014  -19.2638 C   0  0  0  0  0  0  0  0  0  0  0  0
   23.2463  -13.0601  -19.0182 O   0  0  0  0  0  0  0  0  0  0  0  0
   20.9724  -12.8396  -19.4078 N   0  0  0  0  0  0  0  0  0  0  0  0
   20.8358  -11.4238  -19.3956 C   0  0  1  0  0  0  0  0  0  0  0  0
   19.8677  -10.8740  -20.4555 C   0  0  0  0  0  0  0  0  0  0  0  0
   19.9474   -9.3736  -20.5329 C   0  0  0  0  0  0  0  0  0  0  0  0
   18.9573   -8.9186  -21.6009 C   0  0  0  0  0  0  0  0  0  0  0  0
   19.0016   -7.4129  -21.7647 C   0  0  0  0  0  0  0  0  0  0  0  0
   18.1794   -7.0401  -22.9001 N   0  0  0  0  0  0  0  0  0  0  0  0
   20.7022  -10.7977  -18.0917 C   0  0  0  0  0  0  0  0  0  0  0  0
   19.8156  -11.2794  -17.2986 O   0  0  0  0  0  0  0  0  0  0  0  0
   21.4649   -9.7004  -17.6151 N   0  0  0  0  0  0  0  0  0  0  0  0
   21.2353   -9.1281  -16.3008 C   0  0  1  0  0  0  0  0  0  0  0  0
   22.5405   -8.8344  -15.6418 C   0  0  0  0  0  0  0  0  0  0  0  0
   22.4163   -8.1379  -14.3587 C   0  0  0  0  0  0  0  0  0  0  0  0
   22.2918   -8.8612  -13.1924 C   0  0  0  0  0  0  0  0  0  0  0  0
   22.1773   -8.1935  -11.9910 C   0  0  0  0  0  0  0  0  0  0  0  0
   22.1809   -6.8260  -11.8960 C   0  0  0  0  0  0  0  0  0  0  0  0
   22.3049   -6.1058  -13.0576 C   0  0  0  0  0  0  0  0  0  0  0  0
   22.4231   -6.7557  -14.2939 C   0  0  0  0  0  0  0  0  0  0  0  0
   20.3109   -7.9709  -16.3789 C   0  0  0  0  0  0  0  0  0  0  0  0
   20.2896   -7.1736  -17.3460 O   0  0  0  0  0  0  0  0  0  0  0  0
   19.4232   -7.7498  -15.3384 O   0  0  0  0  0  0  0  0  0  0  0  0
  1  2  1  0
  3  2  1  0
  4  5  1  0
  4  3  1  0
  5  1  1  0
  6  8  1  0
  5  6  1  6
  7  6  2  0
  9 15  1  0
  9  8  1  0
  9 10  1  6
 11 10  1  0
 12 11  1  0
 13 12  1  0
 14 13  1  0
 15 17  1  0
 16 15  2  0
 17 18  1  0
 18 19  1  6
 18 26  1  0
 20 25  1  0
 20 19  1  0
 21 20  2  0
 22 21  1  0
 23 22  2  0
 23 24  1  0
 24 25  2  0
 26 27  2  0
 26 28  1  0
M  END
$$$$
