PKF.pdb
     RDKit          3D

 28 29  0  0  1  0  0  0  0  0999 V2000
   26.7340  -16.6944  -19.1074 N   0  0  0  0  0  0  0  0  0  0  0  0
   27.7263  -15.6344  -19.1212 C   0  0  0  0  0  0  0  0  0  0  0  0
   26.9294  -14.4877  -18.5046 C   0  0  0  0  0  0  0  0  0  0  0  0
   26.0859  -15.2145  -17.4561 C   0  0  0  0  0  0  0  0  0  0  0  0
   26.2489  -16.6532  -17.7603 C   0  0  1  0  0  0  0  0  0  0  0  0
   25.0292  -17.4664  -17.5595 C   0  0  0  0  0  0  0  0  0  0  0  0
   23.9410  -16.8543  -17.6093 O   0  0  0  0  0  0  0  0  0  0  0  0
   25.0786  -18.8532  -17.3246 N   0  0  0  0  0  0  0  0  0  0  0  0
   23.9927  -19.7506  -17.1271 C   0  0  1  0  0  0  0  0  0  0  0  0
   24.0758  -21.0359  -17.9661 C   0  0  0  0  0  0  0  0  0  0  0  0
   25.3509  -21.7832  -17.6841 C   0  0  0  0  0  0  0  0  0  0  0  0
   24.9790  -23.0439  -16.9094 C   0  0  0  0  0  0  0  0  0  0  0  0
   26.2074  -23.8905  -16.6443 C   0  0  0  0  0  0  0  0  0  0  0  0
   25.8317  -25.0123  -15.8048 N   0  0  0  0  0  0  0  0  0  0  0  0
   23.5741  -19.9676  -15.7532 C   0  0  0  0  0  0  0  0  0  0  0  0
   24.4957  -20.1890  -14.8879 O   0  0  0  0  0  0  0  0  0  0  0  0
   22.2363  -19.9564  -15.2809 N   0  0  0  0  0  0  0  0  0  0  0  0
   21.9123  -20.2909  -13.9059 C   0  0  1  0  0  0  0  0  0  0  0  0
   21.6578  -19.0439  -13.1284 C   0  0  0  0  0  0  0  0  0  0  0  0
   21.1759  -19.2802  -11.7650 C   0  0  0  0  0  0  0  0  0  0  0  0
   22.0728  -19.5607  -10.7571 C   0  0  0  0  0  0  0  0  0  0  0  0
   21.6063  -19.7796   -9.4777 C   0  0  0  0  0  0  0  0  0  0  0  0
   20.2756  -19.7319   -9.1521 C   0  0  0  0  0  0  0  0  0  0  0  0
   19.3825  -19.4526  -10.1560 C   0  0  0  0  0  0  0  0  0  0  0  0
   19.8259  -19.2254  -11.4662 C   0  0  0  0  0  0  0  0  0  0  0  0
   20.8164  -21.2884  -13.8454 C   0  0  0  0  0  0  0  0  0  0  0  0
   19.9315  -21.3901  -14.7276 O   0  0  0  0  0  0  0  0  0  0  0  0
   20.7571  -22.1556  -12.7665 O   0  0  0  0  0  0  0  0  0  0  0  0
  1  2  1  0
  3  2  1  0
  4  5  1  0
  4  3  1  0
  5  1  1  0
  6  8  1  0
  5  6  1  6
  7  6  2  0
  9 15  1  0
  9  8  1  0
  9 10  1  1
 11 10  1  0
 12 11  1  0
 13 12  1  0
 14 13  1  0
 15 17  1  0
 16 15  2  0
 17 18  1  0
 18 19  1  1
 18 26  1  0
 20 25  1  0
 20 19  1  0
 21 20  2  0
 22 21  1  0
 23 22  2  0
 23 24  1  0
 24 25  2  0
 26 27  2  0
 26 28  1  0
M  END
$$$$
