PKF.pdb
     RDKit          3D

 28 29  0  0  1  0  0  0  0  0999 V2000
   17.7154  -13.0082    4.8109 N   0  0  0  0  0  0  0  0  0  0  0  0
   18.1723  -12.0381    3.8317 C   0  0  0  0  0  0  0  0  0  0  0  0
   19.2785  -12.8296    3.1388 C   0  0  0  0  0  0  0  0  0  0  0  0
   18.6954  -14.2434    3.1224 C   0  0  0  0  0  0  0  0  0  0  0  0
   17.5200  -14.1857    4.0191 C   0  0  1  0  0  0  0  0  0  0  0  0
   17.3078  -15.4023    4.8340 C   0  0  0  0  0  0  0  0  0  0  0  0
   17.4511  -15.2739    6.0687 O   0  0  0  0  0  0  0  0  0  0  0  0
   16.9633  -16.6414    4.2624 N   0  0  0  0  0  0  0  0  0  0  0  0
   17.0548  -17.9350    4.8469 C   0  0  1  0  0  0  0  0  0  0  0  0
   16.3061  -19.0317    4.0727 C   0  0  0  0  0  0  0  0  0  0  0  0
   16.2971  -20.3250    4.8416 C   0  0  0  0  0  0  0  0  0  0  0  0
   15.4802  -21.3297    4.0348 C   0  0  0  0  0  0  0  0  0  0  0  0
   15.3101  -22.6229    4.8060 C   0  0  0  0  0  0  0  0  0  0  0  0
   14.5845  -23.5695    3.9804 N   0  0  0  0  0  0  0  0  0  0  0  0
   18.3662  -18.3385    5.3238 C   0  0  0  0  0  0  0  0  0  0  0  0
   19.3714  -18.0669    4.5735 O   0  0  0  0  0  0  0  0  0  0  0  0
   18.6364  -19.0062    6.5460 N   0  0  0  0  0  0  0  0  0  0  0  0
   19.8802  -18.8011    7.2661 C   0  0  1  0  0  0  0  0  0  0  0  0
   20.1769  -17.3425    7.3580 C   0  0  0  0  0  0  0  0  0  0  0  0
   21.3984  -17.0292    8.1043 C   0  0  0  0  0  0  0  0  0  0  0  0
   22.5886  -17.6325    7.7606 C   0  0  0  0  0  0  0  0  0  0  0  0
   23.7315  -17.3278    8.4700 C   0  0  0  0  0  0  0  0  0  0  0  0
   23.7444  -16.4418    9.5160 C   0  0  0  0  0  0  0  0  0  0  0  0
   22.5590  -15.8410    9.8583 C   0  0  0  0  0  0  0  0  0  0  0  0
   21.3807  -16.1302    9.1562 C   0  0  0  0  0  0  0  0  0  0  0  0
   19.8632  -19.5092    8.5692 C   0  0  0  0  0  0  0  0  0  0  0  0
   20.7062  -20.3806    8.8878 O   0  0  0  0  0  0  0  0  0  0  0  0
   18.8723  -19.2012    9.4873 O   0  0  0  0  0  0  0  0  0  0  0  0
  1  2  1  0
  3  2  1  0
  4  5  1  0
  4  3  1  0
  5  1  1  0
  6  8  1  0
  5  6  1  1
  7  6  2  0
  9 15  1  0
  9  8  1  0
  9 10  1  6
 11 10  1  0
 12 11  1  0
 13 12  1  0
 14 13  1  0
 15 17  1  0
 16 15  2  0
 17 18  1  0
 18 19  1  1
 18 26  1  0
 20 25  1  0
 20 19  1  0
 21 20  2  0
 22 21  1  0
 23 22  2  0
 23 24  1  0
 24 25  2  0
 26 27  2  0
 26 28  1  0
M  END
$$$$
