PKF.pdb
     RDKit          3D

 28 29  0  0  1  0  0  0  0  0999 V2000
   27.6622  -18.7198  -15.1942 N   0  0  0  0  0  0  0  0  0  0  0  0
   27.9810  -17.7579  -16.2343 C   0  0  0  0  0  0  0  0  0  0  0  0
   26.6856  -16.9520  -16.2863 C   0  0  0  0  0  0  0  0  0  0  0  0
   26.2781  -16.9098  -14.8128 C   0  0  0  0  0  0  0  0  0  0  0  0
   27.1607  -17.8888  -14.1408 C   0  0  1  0  0  0  0  0  0  0  0  0
   26.5124  -18.6581  -13.0559 C   0  0  0  0  0  0  0  0  0  0  0  0
   25.8204  -18.0017  -12.2486 O   0  0  0  0  0  0  0  0  0  0  0  0
   26.6591  -20.0521  -12.9293 N   0  0  0  0  0  0  0  0  0  0  0  0
   26.0531  -20.9169  -11.9762 C   0  0  1  0  0  0  0  0  0  0  0  0
   25.7629  -22.3316  -12.5025 C   0  0  0  0  0  0  0  0  0  0  0  0
   24.7811  -22.2928  -13.6420 C   0  0  0  0  0  0  0  0  0  0  0  0
   24.5883  -23.7265  -14.1270 C   0  0  0  0  0  0  0  0  0  0  0  0
   23.6907  -23.7621  -15.3473 C   0  0  0  0  0  0  0  0  0  0  0  0
   23.5726  -25.1343  -15.8028 N   0  0  0  0  0  0  0  0  0  0  0  0
   26.6050  -20.8876  -10.6328 C   0  0  0  0  0  0  0  0  0  0  0  0
   27.8649  -21.1001  -10.5123 O   0  0  0  0  0  0  0  0  0  0  0  0
   25.8757  -20.6446   -9.4404 N   0  0  0  0  0  0  0  0  0  0  0  0
   26.4800  -20.8141   -8.1313 C   0  0  1  0  0  0  0  0  0  0  0  0
   27.5257  -19.7724   -7.9181 C   0  0  0  0  0  0  0  0  0  0  0  0
   28.0990  -19.7715   -6.5697 C   0  0  0  0  0  0  0  0  0  0  0  0
   28.9890  -20.7563   -6.1996 C   0  0  0  0  0  0  0  0  0  0  0  0
   29.5227  -20.7431   -4.9279 C   0  0  0  0  0  0  0  0  0  0  0  0
   29.2083  -19.7858   -3.9985 C   0  0  0  0  0  0  0  0  0  0  0  0
   28.3219  -18.8051   -4.3671 C   0  0  0  0  0  0  0  0  0  0  0  0
   27.7627  -18.7916   -5.6523 C   0  0  0  0  0  0  0  0  0  0  0  0
   25.4443  -20.8727   -7.0712 C   0  0  0  0  0  0  0  0  0  0  0  0
   24.2786  -20.4383   -7.2258 O   0  0  0  0  0  0  0  0  0  0  0  0
   25.7690  -21.4325   -5.8461 O   0  0  0  0  0  0  0  0  0  0  0  0
  1  2  1  0
  3  2  1  0
  4  5  1  0
  4  3  1  0
  5  1  1  0
  6  8  1  0
  5  6  1  1
  7  6  2  0
  9 15  1  0
  9  8  1  0
  9 10  1  6
 11 10  1  0
 12 11  1  0
 13 12  1  0
 14 13  1  0
 15 17  1  0
 16 15  2  0
 17 18  1  0
 18 19  1  1
 18 26  1  0
 20 25  1  0
 20 19  1  0
 21 20  2  0
 22 21  1  0
 23 22  2  0
 23 24  1  0
 24 25  2  0
 26 27  2  0
 26 28  1  0
M  END
$$$$
