PKF.pdb
     RDKit          3D

 28 29  0  0  1  0  0  0  0  0999 V2000
   27.6560  -20.5083  -15.3447 N   0  0  0  0  0  0  0  0  0  0  0  0
   28.4091  -20.1574  -16.5356 C   0  0  0  0  0  0  0  0  0  0  0  0
   28.3079  -18.6347  -16.5004 C   0  0  0  0  0  0  0  0  0  0  0  0
   28.3906  -18.3451  -15.0009 C   0  0  0  0  0  0  0  0  0  0  0  0
   28.2366  -19.6624  -14.3452 C   0  0  1  0  0  0  0  0  0  0  0  0
   27.4588  -19.6358  -13.0867 C   0  0  0  0  0  0  0  0  0  0  0  0
   27.8819  -18.8753  -12.1901 O   0  0  0  0  0  0  0  0  0  0  0  0
   26.3048  -20.4190  -12.8976 N   0  0  0  0  0  0  0  0  0  0  0  0
   25.4022  -20.4033  -11.7983 C   0  0  1  0  0  0  0  0  0  0  0  0
   23.9808  -20.8767  -12.1421 C   0  0  0  0  0  0  0  0  0  0  0  0
   23.4848  -20.2238  -13.4037 C   0  0  0  0  0  0  0  0  0  0  0  0
   22.0578  -20.7101  -13.6383 C   0  0  0  0  0  0  0  0  0  0  0  0
   21.4478  -20.0180  -14.8404 C   0  0  0  0  0  0  0  0  0  0  0  0
   20.0963  -20.5100  -15.0291 N   0  0  0  0  0  0  0  0  0  0  0  0
   25.9083  -20.9189  -10.5381 C   0  0  0  0  0  0  0  0  0  0  0  0
   26.8850  -21.7494  -10.5948 O   0  0  0  0  0  0  0  0  0  0  0  0
   25.4196  -20.5862   -9.2484 N   0  0  0  0  0  0  0  0  0  0  0  0
   26.2051  -20.8278   -8.0516 C   0  0  1  0  0  0  0  0  0  0  0  0
   27.3343  -19.8561   -7.9829 C   0  0  0  0  0  0  0  0  0  0  0  0
   28.0564  -19.8716   -6.7080 C   0  0  0  0  0  0  0  0  0  0  0  0
   27.7956  -18.9084   -5.7577 C   0  0  0  0  0  0  0  0  0  0  0  0
   28.4810  -18.9351   -4.5611 C   0  0  0  0  0  0  0  0  0  0  0  0
   29.4232  -19.8854   -4.2640 C   0  0  0  0  0  0  0  0  0  0  0  0
   29.6830  -20.8446   -5.2104 C   0  0  0  0  0  0  0  0  0  0  0  0
   29.0027  -20.8439   -6.4360 C   0  0  0  0  0  0  0  0  0  0  0  0
   25.3421  -20.8551   -6.8457 C   0  0  0  0  0  0  0  0  0  0  0  0
   25.6880  -21.3905   -5.7663 O   0  0  0  0  0  0  0  0  0  0  0  0
   24.0907  -20.2633   -6.9027 O   0  0  0  0  0  0  0  0  0  0  0  0
  1  2  1  0
  3  2  1  0
  4  5  1  0
  4  3  1  0
  5  1  1  0
  6  8  1  0
  5  6  1  1
  7  6  2  0
  9 15  1  0
  9  8  1  0
  9 10  1  6
 11 10  1  0
 12 11  1  0
 13 12  1  0
 14 13  1  0
 15 17  1  0
 16 15  2  0
 17 18  1  0
 18 19  1  1
 18 26  1  0
 20 25  1  0
 20 19  1  0
 21 20  2  0
 22 21  1  0
 23 22  2  0
 23 24  1  0
 24 25  2  0
 26 27  2  0
 26 28  1  0
M  END
$$$$
