PKF.pdb
     RDKit          3D

 28 29  0  0  1  0  0  0  0  0999 V2000
   27.5522  -19.6670  -15.7085 N   0  0  0  0  0  0  0  0  0  0  0  0
   28.3010  -19.1074  -16.8197 C   0  0  0  0  0  0  0  0  0  0  0  0
   28.1409  -17.6135  -16.5498 C   0  0  0  0  0  0  0  0  0  0  0  0
   28.2001  -17.5582  -15.0226 C   0  0  0  0  0  0  0  0  0  0  0  0
   28.0916  -18.9663  -14.5817 C   0  0  1  0  0  0  0  0  0  0  0  0
   27.3032  -19.1648  -13.3455 C   0  0  0  0  0  0  0  0  0  0  0  0
   27.6696  -18.5132  -12.3441 O   0  0  0  0  0  0  0  0  0  0  0  0
   26.1995  -20.0362  -13.2875 N   0  0  0  0  0  0  0  0  0  0  0  0
   25.2654  -20.2025  -12.2277 C   0  0  1  0  0  0  0  0  0  0  0  0
   23.9779  -20.9391  -12.6310 C   0  0  0  0  0  0  0  0  0  0  0  0
   22.9510  -20.8717  -11.5334 C   0  0  0  0  0  0  0  0  0  0  0  0
   21.7627  -21.7246  -11.9674 C   0  0  0  0  0  0  0  0  0  0  0  0
   20.6472  -21.6475  -10.9449 C   0  0  0  0  0  0  0  0  0  0  0  0
   19.5196  -22.4258  -11.4213 N   0  0  0  0  0  0  0  0  0  0  0  0
   25.8080  -20.6191  -10.9462 C   0  0  0  0  0  0  0  0  0  0  0  0
   26.4458  -21.7323  -10.9141 O   0  0  0  0  0  0  0  0  0  0  0  0
   25.6965  -19.9051   -9.7254 N   0  0  0  0  0  0  0  0  0  0  0  0
   26.2808  -20.4067   -8.4947 C   0  0  1  0  0  0  0  0  0  0  0  0
   27.2904  -19.4363   -7.9817 C   0  0  0  0  0  0  0  0  0  0  0  0
   27.8079  -19.7634   -6.6505 C   0  0  0  0  0  0  0  0  0  0  0  0
   28.9871  -20.4651   -6.5240 C   0  0  0  0  0  0  0  0  0  0  0  0
   29.4643  -20.7653   -5.2652 C   0  0  0  0  0  0  0  0  0  0  0  0
   28.8156  -20.3957   -4.1155 C   0  0  0  0  0  0  0  0  0  0  0  0
   27.6413  -19.6969   -4.2416 C   0  0  0  0  0  0  0  0  0  0  0  0
   27.1309  -19.3769   -5.5072 C   0  0  0  0  0  0  0  0  0  0  0  0
   25.2276  -20.7739   -7.5171 C   0  0  0  0  0  0  0  0  0  0  0  0
   25.3804  -21.6610   -6.6446 O   0  0  0  0  0  0  0  0  0  0  0  0
   24.0116  -20.1114   -7.5603 O   0  0  0  0  0  0  0  0  0  0  0  0
  1  2  1  0
  3  2  1  0
  4  5  1  0
  4  3  1  0
  5  1  1  0
  6  8  1  0
  5  6  1  1
  7  6  2  0
  9 15  1  0
  9  8  1  0
  9 10  1  6
 11 10  1  0
 12 11  1  0
 13 12  1  0
 14 13  1  0
 15 17  1  0
 16 15  2  0
 17 18  1  0
 18 19  1  1
 18 26  1  0
 20 25  1  0
 20 19  1  0
 21 20  2  0
 22 21  1  0
 23 22  2  0
 23 24  1  0
 24 25  2  0
 26 27  2  0
 26 28  1  0
M  END
$$$$
