PKF.pdb
     RDKit          3D

 28 29  0  0  1  0  0  0  0  0999 V2000
   28.1505  -19.8279  -16.3381 N   0  0  0  0  0  0  0  0  0  0  0  0
   28.8989  -19.3083  -17.4688 C   0  0  0  0  0  0  0  0  0  0  0  0
   28.4480  -17.8499  -17.4651 C   0  0  0  0  0  0  0  0  0  0  0  0
   28.3374  -17.5551  -15.9685 C   0  0  0  0  0  0  0  0  0  0  0  0
   28.4364  -18.8750  -15.3075 C   0  0  1  0  0  0  0  0  0  0  0  0
   27.5718  -19.0332  -14.1173 C   0  0  0  0  0  0  0  0  0  0  0  0
   27.7625  -18.2258  -13.1828 O   0  0  0  0  0  0  0  0  0  0  0  0
   26.5857  -20.0336  -14.0300 N   0  0  0  0  0  0  0  0  0  0  0  0
   25.6152  -20.2246  -13.0077 C   0  0  1  0  0  0  0  0  0  0  0  0
   24.3614  -20.9887  -13.4626 C   0  0  0  0  0  0  0  0  0  0  0  0
   23.3275  -21.0284  -12.3702 C   0  0  0  0  0  0  0  0  0  0  0  0
   22.1309  -21.8109  -12.9030 C   0  0  0  0  0  0  0  0  0  0  0  0
   20.9717  -21.7438  -11.9295 C   0  0  0  0  0  0  0  0  0  0  0  0
   19.8985  -22.5881  -12.4191 N   0  0  0  0  0  0  0  0  0  0  0  0
   26.1169  -20.6331  -11.7072 C   0  0  0  0  0  0  0  0  0  0  0  0
   26.8040  -21.7160  -11.6581 O   0  0  0  0  0  0  0  0  0  0  0  0
   25.9160  -19.9417  -10.4848 N   0  0  0  0  0  0  0  0  0  0  0  0
   26.4286  -20.4552   -9.2273 C   0  0  1  0  0  0  0  0  0  0  0  0
   27.5168  -19.5679   -8.7245 C   0  0  0  0  0  0  0  0  0  0  0  0
   27.9580  -19.8800   -7.3626 C   0  0  0  0  0  0  0  0  0  0  0  0
   27.4021  -19.2169   -6.2901 C   0  0  0  0  0  0  0  0  0  0  0  0
   27.8251  -19.5211   -5.0131 C   0  0  0  0  0  0  0  0  0  0  0  0
   28.7852  -20.4640   -4.7517 C   0  0  0  0  0  0  0  0  0  0  0  0
   29.3389  -21.1243   -5.8198 C   0  0  0  0  0  0  0  0  0  0  0  0
   28.9298  -20.8372   -7.1294 C   0  0  0  0  0  0  0  0  0  0  0  0
   25.3285  -20.6885   -8.2603 C   0  0  0  0  0  0  0  0  0  0  0  0
   24.2494  -20.0508   -8.2814 O   0  0  0  0  0  0  0  0  0  0  0  0
   25.4894  -21.6558   -7.2815 O   0  0  0  0  0  0  0  0  0  0  0  0
  1  2  1  0
  3  2  1  0
  4  5  1  0
  4  3  1  0
  5  1  1  0
  6  8  1  0
  5  6  1  1
  7  6  2  0
  9 15  1  0
  9  8  1  0
  9 10  1  6
 11 10  1  0
 12 11  1  0
 13 12  1  0
 14 13  1  0
 15 17  1  0
 16 15  2  0
 17 18  1  0
 18 19  1  1
 18 26  1  0
 20 25  1  0
 20 19  1  0
 21 20  2  0
 22 21  1  0
 23 22  2  0
 23 24  1  0
 24 25  2  0
 26 27  2  0
 26 28  1  0
M  END
$$$$
