PKF.pdb
     RDKit          3D

 28 29  0  0  1  0  0  0  0  0999 V2000
   21.0949  -13.7542  -18.6943 N   0  0  0  0  0  0  0  0  0  0  0  0
   21.5153  -14.6263  -19.7764 C   0  0  0  0  0  0  0  0  0  0  0  0
   21.0620  -13.8175  -20.9890 C   0  0  0  0  0  0  0  0  0  0  0  0
   21.3422  -12.3834  -20.5374 C   0  0  0  0  0  0  0  0  0  0  0  0
   21.6275  -12.4845  -19.0892 C   0  0  1  0  0  0  0  0  0  0  0  0
   21.1059  -11.3612  -18.2796 C   0  0  0  0  0  0  0  0  0  0  0  0
   21.6629  -10.2547  -18.4436 O   0  0  0  0  0  0  0  0  0  0  0  0
   20.0419  -11.5173  -17.3717 N   0  0  0  0  0  0  0  0  0  0  0  0
   19.4139  -10.5212  -16.5737 C   0  0  1  0  0  0  0  0  0  0  0  0
   17.9441  -10.8177  -16.2353 C   0  0  0  0  0  0  0  0  0  0  0  0
   17.0774  -10.7192  -17.4613 C   0  0  0  0  0  0  0  0  0  0  0  0
   15.6349  -10.9471  -17.0197 C   0  0  0  0  0  0  0  0  0  0  0  0
   14.6855  -10.7849  -18.1895 C   0  0  0  0  0  0  0  0  0  0  0  0
   13.3218  -10.8375  -17.6976 N   0  0  0  0  0  0  0  0  0  0  0  0
   20.1854  -10.0060  -15.4559 C   0  0  0  0  0  0  0  0  0  0  0  0
   20.6368  -10.8612  -14.6120 O   0  0  0  0  0  0  0  0  0  0  0  0
   20.4858   -8.6409  -15.2129 N   0  0  0  0  0  0  0  0  0  0  0  0
   21.2100   -8.2208  -14.0269 C   0  0  1  0  0  0  0  0  0  0  0  0
   22.4793   -7.5449  -14.4221 C   0  0  0  0  0  0  0  0  0  0  0  0
   22.2928   -6.1936  -14.9570 C   0  0  0  0  0  0  0  0  0  0  0  0
   22.2688   -5.1126  -14.1027 C   0  0  0  0  0  0  0  0  0  0  0  0
   22.0940   -3.8457  -14.6191 C   0  0  0  0  0  0  0  0  0  0  0  0
   21.9406   -3.6027  -15.9595 C   0  0  0  0  0  0  0  0  0  0  0  0
   21.9645   -4.6793  -16.8102 C   0  0  0  0  0  0  0  0  0  0  0  0
   22.1404   -5.9790  -16.3155 C   0  0  0  0  0  0  0  0  0  0  0  0
   20.3412   -7.4222  -13.1285 C   0  0  0  0  0  0  0  0  0  0  0  0
   19.3124   -6.8239  -13.5222 O   0  0  0  0  0  0  0  0  0  0  0  0
   20.6725   -7.3253  -11.7866 O   0  0  0  0  0  0  0  0  0  0  0  0
  1  2  1  0
  3  2  1  0
  4  5  1  0
  4  3  1  0
  5  1  1  0
  6  8  1  0
  5  6  1  1
  7  6  2  0
  9 15  1  0
  9  8  1  0
  9 10  1  1
 11 10  1  0
 12 11  1  0
 13 12  1  0
 14 13  1  0
 15 17  1  0
 16 15  2  0
 17 18  1  0
 18 19  1  6
 18 26  1  0
 20 25  1  0
 20 19  1  0
 21 20  2  0
 22 21  1  0
 23 22  2  0
 23 24  1  0
 24 25  2  0
 26 27  2  0
 26 28  1  0
M  END
$$$$
