PKF.pdb
     RDKit          3D

 28 29  0  0  1  0  0  0  0  0999 V2000
   25.0989  -16.9232  -18.2550 N   0  0  0  0  0  0  0  0  0  0  0  0
   25.4273  -15.9927  -19.3203 C   0  0  0  0  0  0  0  0  0  0  0  0
   25.4450  -16.9304  -20.5246 C   0  0  0  0  0  0  0  0  0  0  0  0
   24.3030  -17.8929  -20.1950 C   0  0  0  0  0  0  0  0  0  0  0  0
   23.9614  -17.6158  -18.7824 C   0  0  1  0  0  0  0  0  0  0  0  0
   23.5947  -18.8118  -17.9922 C   0  0  0  0  0  0  0  0  0  0  0  0
   22.4184  -18.8598  -17.5735 O   0  0  0  0  0  0  0  0  0  0  0  0
   24.5108  -19.8451  -17.7204 N   0  0  0  0  0  0  0  0  0  0  0  0
   24.2713  -21.0803  -17.0569 C   0  0  1  0  0  0  0  0  0  0  0  0
   25.2424  -22.2057  -17.4485 C   0  0  0  0  0  0  0  0  0  0  0  0
   24.7663  -23.5348  -16.9285 C   0  0  0  0  0  0  0  0  0  0  0  0
   25.7364  -24.5974  -17.4363 C   0  0  0  0  0  0  0  0  0  0  0  0
   25.2143  -25.9871  -17.1328 C   0  0  0  0  0  0  0  0  0  0  0  0
   26.0796  -26.9625  -17.7683 N   0  0  0  0  0  0  0  0  0  0  0  0
   23.9948  -21.0071  -15.6328 C   0  0  0  0  0  0  0  0  0  0  0  0
   24.9453  -20.6021  -14.8715 O   0  0  0  0  0  0  0  0  0  0  0  0
   22.7668  -21.3430  -15.0067 N   0  0  0  0  0  0  0  0  0  0  0  0
   22.6382  -21.3920  -13.5615 C   0  0  1  0  0  0  0  0  0  0  0  0
   22.9487  -20.0540  -12.9803 C   0  0  0  0  0  0  0  0  0  0  0  0
   22.6945  -19.9567  -11.5406 C   0  0  0  0  0  0  0  0  0  0  0  0
   21.4865  -19.4741  -11.0862 C   0  0  0  0  0  0  0  0  0  0  0  0
   21.2592  -19.3890   -9.7284 C   0  0  0  0  0  0  0  0  0  0  0  0
   22.1880  -19.7657   -8.7931 C   0  0  0  0  0  0  0  0  0  0  0  0
   23.3911  -20.2463   -9.2458 C   0  0  0  0  0  0  0  0  0  0  0  0
   23.6516  -20.3447  -10.6196 C   0  0  0  0  0  0  0  0  0  0  0  0
   21.3210  -21.9453  -13.1634 C   0  0  0  0  0  0  0  0  0  0  0  0
   21.1495  -22.6324  -12.1289 O   0  0  0  0  0  0  0  0  0  0  0  0
   20.2189  -21.6978  -13.9657 O   0  0  0  0  0  0  0  0  0  0  0  0
  1  2  1  0
  3  2  1  0
  4  5  1  0
  4  3  1  0
  5  1  1  0
  6  8  1  0
  5  6  1  1
  7  6  2  0
  9 15  1  0
  9  8  1  0
  9 10  1  1
 11 10  1  0
 12 11  1  0
 13 12  1  0
 14 13  1  0
 15 17  1  0
 16 15  2  0
 17 18  1  0
 18 19  1  6
 18 26  1  0
 20 25  1  0
 20 19  1  0
 21 20  2  0
 22 21  1  0
 23 22  2  0
 23 24  1  0
 24 25  2  0
 26 27  2  0
 26 28  1  0
M  END
$$$$
