PKF.pdb
     RDKit          3D

 28 29  0  0  1  0  0  0  0  0999 V2000
   27.2993  -20.6247  -15.3507 N   0  0  0  0  0  0  0  0  0  0  0  0
   27.9483  -20.3411  -16.6183 C   0  0  0  0  0  0  0  0  0  0  0  0
   27.8394  -18.8192  -16.6620 C   0  0  0  0  0  0  0  0  0  0  0  0
   28.0443  -18.4435  -15.1937 C   0  0  0  0  0  0  0  0  0  0  0  0
   27.9549  -19.7212  -14.4531 C   0  0  1  0  0  0  0  0  0  0  0  0
   27.2843  -19.6241  -13.1378 C   0  0  0  0  0  0  0  0  0  0  0  0
   27.7263  -18.7577  -12.3533 O   0  0  0  0  0  0  0  0  0  0  0  0
   26.2072  -20.4555  -12.7781 N   0  0  0  0  0  0  0  0  0  0  0  0
   25.3918  -20.3840  -11.6147 C   0  0  1  0  0  0  0  0  0  0  0  0
   23.9818  -20.9689  -11.7954 C   0  0  0  0  0  0  0  0  0  0  0  0
   23.2186  -20.2207  -12.8544 C   0  0  0  0  0  0  0  0  0  0  0  0
   21.8158  -20.8177  -12.9134 C   0  0  0  0  0  0  0  0  0  0  0  0
   21.4298  -21.1361  -14.3437 C   0  0  0  0  0  0  0  0  0  0  0  0
   20.1393  -21.7986  -14.3449 N   0  0  0  0  0  0  0  0  0  0  0  0
   26.0244  -20.7441  -10.3577 C   0  0  0  0  0  0  0  0  0  0  0  0
   26.6102  -21.8847  -10.3023 O   0  0  0  0  0  0  0  0  0  0  0  0
   26.0536  -19.9473   -9.1843 N   0  0  0  0  0  0  0  0  0  0  0  0
   26.7339  -20.3903   -7.9807 C   0  0  1  0  0  0  0  0  0  0  0  0
   27.6959  -19.3439   -7.5290 C   0  0  0  0  0  0  0  0  0  0  0  0
   28.3293  -19.6340   -6.2400 C   0  0  0  0  0  0  0  0  0  0  0  0
   27.9477  -18.9381   -5.1136 C   0  0  0  0  0  0  0  0  0  0  0  0
   28.5506  -19.2218   -3.9061 C   0  0  0  0  0  0  0  0  0  0  0  0
   29.5255  -20.1755   -3.7667 C   0  0  0  0  0  0  0  0  0  0  0  0
   29.9056  -20.8685   -4.8885 C   0  0  0  0  0  0  0  0  0  0  0  0
   29.3112  -20.6028   -6.1299 C   0  0  0  0  0  0  0  0  0  0  0  0
   25.7606  -20.8191   -6.9470 C   0  0  0  0  0  0  0  0  0  0  0  0
   26.1016  -21.3055   -5.8431 O   0  0  0  0  0  0  0  0  0  0  0  0
   24.4059  -20.6803   -7.2023 O   0  0  0  0  0  0  0  0  0  0  0  0
  1  2  1  0
  3  2  1  0
  4  5  1  0
  4  3  1  0
  5  1  1  0
  6  8  1  0
  5  6  1  1
  7  6  2  0
  9 15  1  0
  9  8  1  0
  9 10  1  6
 11 10  1  0
 12 11  1  0
 13 12  1  0
 14 13  1  0
 15 17  1  0
 16 15  2  0
 17 18  1  0
 18 19  1  1
 18 26  1  0
 20 25  1  0
 20 19  1  0
 21 20  2  0
 22 21  1  0
 23 22  2  0
 23 24  1  0
 24 25  2  0
 26 27  2  0
 26 28  1  0
M  END
$$$$
