PKF.pdb
     RDKit          3D

 28 29  0  0  1  0  0  0  0  0999 V2000
   23.9356  -14.2781  -18.5391 N   0  0  0  0  0  0  0  0  0  0  0  0
   24.5518  -15.4812  -19.0694 C   0  0  0  0  0  0  0  0  0  0  0  0
   24.7164  -15.0960  -20.5372 C   0  0  0  0  0  0  0  0  0  0  0  0
   25.0688  -13.6110  -20.4386 C   0  0  0  0  0  0  0  0  0  0  0  0
   24.7931  -13.2423  -19.0326 C   0  0  1  0  0  0  0  0  0  0  0  0
   24.2268  -11.8873  -18.8518 C   0  0  0  0  0  0  0  0  0  0  0  0
   25.0493  -10.9514  -18.7568 O   0  0  0  0  0  0  0  0  0  0  0  0
   22.8405  -11.6524  -18.7887 N   0  0  0  0  0  0  0  0  0  0  0  0
   22.1624  -10.4034  -18.7294 C   0  0  1  0  0  0  0  0  0  0  0  0
   20.7568  -10.4183  -19.3514 C   0  0  0  0  0  0  0  0  0  0  0  0
   20.2099   -9.0228  -19.4829 C   0  0  0  0  0  0  0  0  0  0  0  0
   18.8057   -9.1365  -20.0688 C   0  0  0  0  0  0  0  0  0  0  0  0
   18.2091   -7.7627  -20.2982 C   0  0  0  0  0  0  0  0  0  0  0  0
   16.8662   -7.9165  -20.8247 N   0  0  0  0  0  0  0  0  0  0  0  0
   22.2445   -9.6815  -17.4715 C   0  0  0  0  0  0  0  0  0  0  0  0
   21.7736  -10.2645  -16.4296 O   0  0  0  0  0  0  0  0  0  0  0  0
   22.7994   -8.3884  -17.2907 N   0  0  0  0  0  0  0  0  0  0  0  0
   22.8513   -7.7589  -15.9835 C   0  0  1  0  0  0  0  0  0  0  0  0
   24.2669   -7.4600  -15.6217 C   0  0  0  0  0  0  0  0  0  0  0  0
   25.1335   -8.6408  -15.5822 C   0  0  0  0  0  0  0  0  0  0  0  0
   24.9336   -9.6093  -14.6225 C   0  0  0  0  0  0  0  0  0  0  0  0
   25.7554  -10.7167  -14.5972 C   0  0  0  0  0  0  0  0  0  0  0  0
   26.7767  -10.9065  -15.4917 C   0  0  0  0  0  0  0  0  0  0  0  0
   26.9757   -9.9419  -16.4474 C   0  0  0  0  0  0  0  0  0  0  0  0
   26.1571   -8.8052  -16.4987 C   0  0  0  0  0  0  0  0  0  0  0  0
   21.9397   -6.5907  -15.9194 C   0  0  0  0  0  0  0  0  0  0  0  0
   21.3663   -6.1117  -16.9259 O   0  0  0  0  0  0  0  0  0  0  0  0
   21.7025   -5.9912  -14.6930 O   0  0  0  0  0  0  0  0  0  0  0  0
  1  2  1  0
  3  2  1  0
  4  5  1  0
  4  3  1  0
  5  1  1  0
  6  8  1  0
  5  6  1  6
  7  6  2  0
  9 15  1  0
  9  8  1  0
  9 10  1  1
 11 10  1  0
 12 11  1  0
 13 12  1  0
 14 13  1  0
 15 17  1  0
 16 15  2  0
 17 18  1  0
 18 19  1  6
 18 26  1  0
 20 25  1  0
 20 19  1  0
 21 20  2  0
 22 21  1  0
 23 22  2  0
 23 24  1  0
 24 25  2  0
 26 27  2  0
 26 28  1  0
M  END
$$$$
