PKF.pdb
     RDKit          3D

 28 29  0  0  1  0  0  0  0  0999 V2000
   28.1550  -19.7059  -15.6504 N   0  0  0  0  0  0  0  0  0  0  0  0
   28.7264  -19.0446  -16.8099 C   0  0  0  0  0  0  0  0  0  0  0  0
   27.9469  -17.7322  -16.8045 C   0  0  0  0  0  0  0  0  0  0  0  0
   27.8155  -17.4466  -15.3078 C   0  0  0  0  0  0  0  0  0  0  0  0
   28.2407  -18.6957  -14.6385 C   0  0  1  0  0  0  0  0  0  0  0  0
   27.4735  -19.0319  -13.4188 C   0  0  0  0  0  0  0  0  0  0  0  0
   27.4177  -18.1472  -12.5381 O   0  0  0  0  0  0  0  0  0  0  0  0
   26.8373  -20.2757  -13.2479 N   0  0  0  0  0  0  0  0  0  0  0  0
   25.9380  -20.6689  -12.2184 C   0  0  1  0  0  0  0  0  0  0  0  0
   24.9397  -21.7608  -12.6357 C   0  0  0  0  0  0  0  0  0  0  0  0
   23.8191  -21.8773  -11.6384 C   0  0  0  0  0  0  0  0  0  0  0  0
   22.7055  -20.9380  -12.0917 C   0  0  0  0  0  0  0  0  0  0  0  0
   21.5632  -20.9430  -11.0962 C   0  0  0  0  0  0  0  0  0  0  0  0
   20.5439  -20.0147  -11.5471 N   0  0  0  0  0  0  0  0  0  0  0  0
   26.5114  -20.8656  -10.8983 C   0  0  0  0  0  0  0  0  0  0  0  0
   27.4701  -21.7127  -10.7964 O   0  0  0  0  0  0  0  0  0  0  0  0
   26.1069  -20.2044   -9.7101 N   0  0  0  0  0  0  0  0  0  0  0  0
   26.6780  -20.5430   -8.4191 C   0  0  1  0  0  0  0  0  0  0  0  0
   27.5060  -19.4080   -7.9187 C   0  0  0  0  0  0  0  0  0  0  0  0
   28.0447  -19.6125   -6.5716 C   0  0  0  0  0  0  0  0  0  0  0  0
   27.5810  -18.8495   -5.5219 C   0  0  0  0  0  0  0  0  0  0  0  0
   28.0952  -19.0530   -4.2584 C   0  0  0  0  0  0  0  0  0  0  0  0
   29.0590  -19.9898   -3.9888 C   0  0  0  0  0  0  0  0  0  0  0  0
   29.5208  -20.7495   -5.0343 C   0  0  0  0  0  0  0  0  0  0  0  0
   29.0177  -20.5662   -6.3297 C   0  0  0  0  0  0  0  0  0  0  0  0
   25.6281  -21.0012   -7.4770 C   0  0  0  0  0  0  0  0  0  0  0  0
   25.8823  -21.4890   -6.3505 O   0  0  0  0  0  0  0  0  0  0  0  0
   24.2980  -20.8898   -7.8487 O   0  0  0  0  0  0  0  0  0  0  0  0
  1  2  1  0
  3  2  1  0
  4  5  1  0
  4  3  1  0
  5  1  1  0
  6  8  1  0
  5  6  1  1
  7  6  2  0
  9 15  1  0
  9  8  1  0
  9 10  1  6
 11 10  1  0
 12 11  1  0
 13 12  1  0
 14 13  1  0
 15 17  1  0
 16 15  2  0
 17 18  1  0
 18 19  1  1
 18 26  1  0
 20 25  1  0
 20 19  1  0
 21 20  2  0
 22 21  1  0
 23 22  2  0
 23 24  1  0
 24 25  2  0
 26 27  2  0
 26 28  1  0
M  END
$$$$
