PKF.pdb
     RDKit          3D

 28 29  0  0  1  0  0  0  0  0999 V2000
   23.5968  -18.1257  -14.3966 N   0  0  0  0  0  0  0  0  0  0  0  0
   22.5665  -17.4765  -15.1875 C   0  0  0  0  0  0  0  0  0  0  0  0
   21.6504  -18.6592  -15.4911 C   0  0  0  0  0  0  0  0  0  0  0  0
   21.7214  -19.4588  -14.1893 C   0  0  0  0  0  0  0  0  0  0  0  0
   22.8357  -18.8544  -13.4264 C   0  0  1  0  0  0  0  0  0  0  0  0
   23.6512  -19.8213  -12.6587 C   0  0  0  0  0  0  0  0  0  0  0  0
   23.0392  -20.5245  -11.8266 O   0  0  0  0  0  0  0  0  0  0  0  0
   25.0400  -19.9515  -12.8460 N   0  0  0  0  0  0  0  0  0  0  0  0
   25.9211  -20.9012  -12.2584 C   0  0  1  0  0  0  0  0  0  0  0  0
   27.0195  -21.4125  -13.2044 C   0  0  0  0  0  0  0  0  0  0  0  0
   26.4252  -21.9827  -14.4635 C   0  0  0  0  0  0  0  0  0  0  0  0
   27.5709  -22.5651  -15.2857 C   0  0  0  0  0  0  0  0  0  0  0  0
   27.0543  -23.1468  -16.5860 C   0  0  0  0  0  0  0  0  0  0  0  0
   28.1836  -23.5715  -17.3913 N   0  0  0  0  0  0  0  0  0  0  0  0
   26.3882  -20.6060  -10.9150 C   0  0  0  0  0  0  0  0  0  0  0  0
   27.5060  -19.9847  -10.8068 O   0  0  0  0  0  0  0  0  0  0  0  0
   25.7191  -20.9428   -9.7102 N   0  0  0  0  0  0  0  0  0  0  0  0
   26.4305  -21.0497   -8.4493 C   0  0  1  0  0  0  0  0  0  0  0  0
   27.2574  -19.8281   -8.2298 C   0  0  0  0  0  0  0  0  0  0  0  0
   27.8603  -19.7487   -6.8967 C   0  0  0  0  0  0  0  0  0  0  0  0
   28.8031  -20.6769   -6.5114 C   0  0  0  0  0  0  0  0  0  0  0  0
   29.3641  -20.5901   -5.2544 C   0  0  0  0  0  0  0  0  0  0  0  0
   29.0266  -19.6126   -4.3545 C   0  0  0  0  0  0  0  0  0  0  0  0
   28.0876  -18.6883   -4.7383 C   0  0  0  0  0  0  0  0  0  0  0  0
   27.4996  -18.7502   -6.0092 C   0  0  0  0  0  0  0  0  0  0  0  0
   25.5004  -21.3708   -7.3395 C   0  0  0  0  0  0  0  0  0  0  0  0
   24.2693  -21.1388   -7.3870 O   0  0  0  0  0  0  0  0  0  0  0  0
   26.0047  -21.9560   -6.1894 O   0  0  0  0  0  0  0  0  0  0  0  0
  1  2  1  0
  3  2  1  0
  4  5  1  0
  4  3  1  0
  5  1  1  0
  6  8  1  0
  5  6  1  6
  7  6  2  0
  9 15  1  0
  9  8  1  0
  9 10  1  6
 11 10  1  0
 12 11  1  0
 13 12  1  0
 14 13  1  0
 15 17  1  0
 16 15  2  0
 17 18  1  0
 18 19  1  1
 18 26  1  0
 20 25  1  0
 20 19  1  0
 21 20  2  0
 22 21  1  0
 23 22  2  0
 23 24  1  0
 24 25  2  0
 26 27  2  0
 26 28  1  0
M  END
$$$$
