PKF.pdb
     RDKit          3D

 28 29  0  0  1  0  0  0  0  0999 V2000
   26.4220  -13.3127  -16.1738 N   0  0  0  0  0  0  0  0  0  0  0  0
   27.7712  -13.8074  -15.9656 C   0  0  0  0  0  0  0  0  0  0  0  0
   28.5717  -12.8223  -16.8135 C   0  0  0  0  0  0  0  0  0  0  0  0
   27.8135  -11.5144  -16.5822 C   0  0  0  0  0  0  0  0  0  0  0  0
   26.5569  -11.9114  -15.9098 C   0  0  1  0  0  0  0  0  0  0  0  0
   25.3684  -11.1291  -16.3157 C   0  0  0  0  0  0  0  0  0  0  0  0
   25.5408  -10.2928  -17.2280 O   0  0  0  0  0  0  0  0  0  0  0  0
   24.1080  -11.3075  -15.7154 N   0  0  0  0  0  0  0  0  0  0  0  0
   22.8773  -10.6781  -16.0512 C   0  0  1  0  0  0  0  0  0  0  0  0
   21.6635  -11.6213  -16.0435 C   0  0  0  0  0  0  0  0  0  0  0  0
   20.4395  -10.9301  -16.5803 C   0  0  0  0  0  0  0  0  0  0  0  0
   19.2914  -11.9339  -16.5332 C   0  0  0  0  0  0  0  0  0  0  0  0
   18.0438  -11.3494  -17.1641 C   0  0  0  0  0  0  0  0  0  0  0  0
   17.0194  -12.3751  -17.2152 N   0  0  0  0  0  0  0  0  0  0  0  0
   22.6244   -9.3843  -15.4412 C   0  0  0  0  0  0  0  0  0  0  0  0
   22.6534   -9.3253  -14.1594 O   0  0  0  0  0  0  0  0  0  0  0  0
   22.3484   -8.1784  -16.1355 N   0  0  0  0  0  0  0  0  0  0  0  0
   22.0589   -6.9433  -15.4296 C   0  0  1  0  0  0  0  0  0  0  0  0
   23.0166   -5.8817  -15.8537 C   0  0  0  0  0  0  0  0  0  0  0  0
   22.6613   -4.5386  -15.3880 C   0  0  0  0  0  0  0  0  0  0  0  0
   22.2181   -3.5933  -16.2873 C   0  0  0  0  0  0  0  0  0  0  0  0
   21.8853   -2.3332  -15.8358 C   0  0  0  0  0  0  0  0  0  0  0  0
   21.9744   -1.9671  -14.5178 C   0  0  0  0  0  0  0  0  0  0  0  0
   22.4159   -2.9086  -13.6222 C   0  0  0  0  0  0  0  0  0  0  0  0
   22.7615   -4.1978  -14.0506 C   0  0  0  0  0  0  0  0  0  0  0  0
   20.6292   -6.5739  -15.5687 C   0  0  0  0  0  0  0  0  0  0  0  0
   19.8557   -7.1212  -16.3894 O   0  0  0  0  0  0  0  0  0  0  0  0
   20.1119   -5.5768  -14.7576 O   0  0  0  0  0  0  0  0  0  0  0  0
  1  2  1  0
  3  2  1  0
  4  5  1  0
  4  3  1  0
  5  1  1  0
  6  8  1  0
  5  6  1  6
  7  6  2  0
  9 15  1  0
  9  8  1  0
  9 10  1  1
 11 10  1  0
 12 11  1  0
 13 12  1  0
 14 13  1  0
 15 17  1  0
 16 15  2  0
 17 18  1  0
 18 19  1  6
 18 26  1  0
 20 25  1  0
 20 19  1  0
 21 20  2  0
 22 21  1  0
 23 22  2  0
 23 24  1  0
 24 25  2  0
 26 27  2  0
 26 28  1  0
M  END
$$$$
