PKF.pdb
     RDKit          3D

 28 29  0  0  1  0  0  0  0  0999 V2000
   26.8006  -16.7592  -17.3136 N   0  0  0  0  0  0  0  0  0  0  0  0
   27.6425  -15.6162  -17.0079 C   0  0  0  0  0  0  0  0  0  0  0  0
   26.9809  -15.1064  -15.7302 C   0  0  0  0  0  0  0  0  0  0  0  0
   26.5737  -16.4097  -15.0412 C   0  0  0  0  0  0  0  0  0  0  0  0
   26.7586  -17.4611  -16.0657 C   0  0  1  0  0  0  0  0  0  0  0  0
   25.7384  -18.5324  -16.0386 C   0  0  0  0  0  0  0  0  0  0  0  0
   24.5511  -18.1706  -16.1829 O   0  0  0  0  0  0  0  0  0  0  0  0
   26.0738  -19.8877  -15.8609 N   0  0  0  0  0  0  0  0  0  0  0  0
   25.2024  -20.9829  -15.6065 C   0  0  1  0  0  0  0  0  0  0  0  0
   25.8627  -22.3629  -15.7569 C   0  0  0  0  0  0  0  0  0  0  0  0
   26.5453  -22.4920  -17.0915 C   0  0  0  0  0  0  0  0  0  0  0  0
   27.6192  -23.5669  -16.9525 C   0  0  0  0  0  0  0  0  0  0  0  0
   26.9893  -24.9399  -16.8336 C   0  0  0  0  0  0  0  0  0  0  0  0
   28.0341  -25.9434  -16.9086 N   0  0  0  0  0  0  0  0  0  0  0  0
   24.3368  -20.8652  -14.4459 C   0  0  0  0  0  0  0  0  0  0  0  0
   24.8689  -20.4371  -13.3592 O   0  0  0  0  0  0  0  0  0  0  0  0
   22.9543  -21.1809  -14.4054 N   0  0  0  0  0  0  0  0  0  0  0  0
   22.1922  -21.1038  -13.1721 C   0  0  1  0  0  0  0  0  0  0  0  0
   21.9584  -19.6760  -12.8103 C   0  0  0  0  0  0  0  0  0  0  0  0
   21.0664  -19.4910  -11.6626 C   0  0  0  0  0  0  0  0  0  0  0  0
   19.7169  -19.2985  -11.8640 C   0  0  0  0  0  0  0  0  0  0  0  0
   18.8878  -19.1271  -10.7751 C   0  0  0  0  0  0  0  0  0  0  0  0
   19.3445  -19.1386   -9.4826 C   0  0  0  0  0  0  0  0  0  0  0  0
   20.6885  -19.3303   -9.2822 C   0  0  0  0  0  0  0  0  0  0  0  0
   21.5564  -19.5074  -10.3686 C   0  0  0  0  0  0  0  0  0  0  0  0
   20.9614  -21.9273  -13.2553 C   0  0  0  0  0  0  0  0  0  0  0  0
   20.4445  -22.4911  -12.2621 O   0  0  0  0  0  0  0  0  0  0  0  0
   20.3439  -22.0887  -14.4850 O   0  0  0  0  0  0  0  0  0  0  0  0
  1  2  1  0
  3  2  1  0
  4  5  1  0
  4  3  1  0
  5  1  1  0
  6  8  1  0
  5  6  1  6
  7  6  2  0
  9 15  1  0
  9  8  1  0
  9 10  1  1
 11 10  1  0
 12 11  1  0
 13 12  1  0
 14 13  1  0
 15 17  1  0
 16 15  2  0
 17 18  1  0
 18 19  1  6
 18 26  1  0
 20 25  1  0
 20 19  1  0
 21 20  2  0
 22 21  1  0
 23 22  2  0
 23 24  1  0
 24 25  2  0
 26 27  2  0
 26 28  1  0
M  END
$$$$
