PKF.pdb
     RDKit          3D

 28 29  0  0  1  0  0  0  0  0999 V2000
   27.0839  -21.8899  -16.3619 N   0  0  0  0  0  0  0  0  0  0  0  0
   27.9071  -22.0943  -17.5405 C   0  0  0  0  0  0  0  0  0  0  0  0
   28.8667  -20.9125  -17.4285 C   0  0  0  0  0  0  0  0  0  0  0  0
   29.0830  -20.8208  -15.9172 C   0  0  0  0  0  0  0  0  0  0  0  0
   28.0571  -21.7082  -15.3267 C   0  0  1  0  0  0  0  0  0  0  0  0
   27.4704  -21.2136  -14.0616 C   0  0  0  0  0  0  0  0  0  0  0  0
   28.2556  -21.0924  -13.0971 O   0  0  0  0  0  0  0  0  0  0  0  0
   26.1053  -20.8939  -13.9384 N   0  0  0  0  0  0  0  0  0  0  0  0
   25.4242  -20.3689  -12.8054 C   0  0  1  0  0  0  0  0  0  0  0  0
   23.9329  -20.0814  -13.0429 C   0  0  0  0  0  0  0  0  0  0  0  0
   23.2461  -19.6985  -11.7601 C   0  0  0  0  0  0  0  0  0  0  0  0
   21.9841  -20.5485  -11.6470 C   0  0  0  0  0  0  0  0  0  0  0  0
   21.1629  -20.1293  -10.4446 C   0  0  0  0  0  0  0  0  0  0  0  0
   20.0007  -20.9919  -10.3465 N   0  0  0  0  0  0  0  0  0  0  0  0
   25.7082  -21.0014  -11.5290 C   0  0  0  0  0  0  0  0  0  0  0  0
   25.3551  -22.2275  -11.3913 O   0  0  0  0  0  0  0  0  0  0  0  0
   26.3422  -20.3851  -10.4194 N   0  0  0  0  0  0  0  0  0  0  0  0
   26.5840  -21.1076   -9.1837 C   0  0  1  0  0  0  0  0  0  0  0  0
   27.9695  -20.8375   -8.7025 C   0  0  0  0  0  0  0  0  0  0  0  0
   28.0301  -20.2465   -7.3631 C   0  0  0  0  0  0  0  0  0  0  0  0
   27.9279  -21.0524   -6.2501 C   0  0  0  0  0  0  0  0  0  0  0  0
   27.9879  -20.4838   -4.9949 C   0  0  0  0  0  0  0  0  0  0  0  0
   28.1465  -19.1370   -4.7946 C   0  0  0  0  0  0  0  0  0  0  0  0
   28.2482  -18.3344   -5.9032 C   0  0  0  0  0  0  0  0  0  0  0  0
   28.1908  -18.8828   -7.1919 C   0  0  0  0  0  0  0  0  0  0  0  0
   25.5211  -20.8283   -8.1877 C   0  0  0  0  0  0  0  0  0  0  0  0
   24.8493  -19.7699   -8.1795 O   0  0  0  0  0  0  0  0  0  0  0  0
   25.2481  -21.7755   -7.2141 O   0  0  0  0  0  0  0  0  0  0  0  0
  1  2  1  0
  3  2  1  0
  4  5  1  0
  4  3  1  0
  5  1  1  0
  6  8  1  0
  5  6  1  1
  7  6  2  0
  9 15  1  0
  9  8  1  0
  9 10  1  6
 11 10  1  0
 12 11  1  0
 13 12  1  0
 14 13  1  0
 15 17  1  0
 16 15  2  0
 17 18  1  0
 18 19  1  1
 18 26  1  0
 20 25  1  0
 20 19  1  0
 21 20  2  0
 22 21  1  0
 23 22  2  0
 23 24  1  0
 24 25  2  0
 26 27  2  0
 26 28  1  0
M  END
$$$$
