EFY.pdb
     RDKit          3D

 33 34  0  0  1  0  0  0  0  0999 V2000
   29.1808  -26.9045  -20.6543 N   0  0  0  0  0  0  0  0  0  0  0  0
   28.1132  -26.4076  -19.8264 C   0  0  1  0  0  0  0  0  0  0  0  0
   26.9999  -25.7861  -20.6467 C   0  0  0  0  0  0  0  0  0  0  0  0
   27.0400  -24.2847  -20.5995 C   0  0  0  0  0  0  0  0  0  0  0  0
   28.2381  -23.8165  -21.3336 C   0  0  0  0  0  0  0  0  0  0  0  0
   29.2462  -23.4237  -20.7048 O   0  0  0  0  0  0  0  0  0  0  0  0
   27.5032  -27.6018  -19.1321 C   0  0  0  0  0  0  0  0  0  0  0  0
   27.3831  -28.7002  -19.7154 O   0  0  0  0  0  0  0  0  0  0  0  0
   28.2589  -23.8072  -22.7118 O   0  0  0  0  0  0  0  0  0  0  0  0
   27.0869  -27.4006  -17.8106 N   0  0  0  0  0  0  0  0  0  0  0  0
   26.6142  -28.5856  -17.0202 C   0  0  1  0  0  0  0  0  0  0  0  0
   27.5522  -28.8226  -15.9080 C   0  0  0  0  0  0  0  0  0  0  0  0
   28.8064  -29.4398  -16.3008 C   0  0  0  0  0  0  0  0  0  0  0  0
   29.8897  -28.6836  -16.7662 C   0  0  0  0  0  0  0  0  0  0  0  0
   31.0874  -29.2823  -17.0782 C   0  0  0  0  0  0  0  0  0  0  0  0
   31.2946  -30.6373  -16.9555 C   0  0  0  0  0  0  0  0  0  0  0  0
   30.2336  -31.3865  -16.4987 C   0  0  0  0  0  0  0  0  0  0  0  0
   29.0257  -30.7972  -16.1821 C   0  0  0  0  0  0  0  0  0  0  0  0
   25.1951  -28.3974  -16.7623 C   0  0  0  0  0  0  0  0  0  0  0  0
   24.7911  -27.3305  -16.1565 O   0  0  0  0  0  0  0  0  0  0  0  0
   16.4726  -28.2957  -16.4487 O   0  0  0  0  0  0  0  0  0  0  0  0
   17.8089  -28.3981  -16.7997 C   0  0  0  0  0  0  0  0  0  0  0  0
   18.6538  -27.3201  -16.6644 C   0  0  0  0  0  0  0  0  0  0  0  0
   19.9942  -27.4264  -17.0177 C   0  0  0  0  0  0  0  0  0  0  0  0
   20.5304  -28.5905  -17.5098 C   0  0  0  0  0  0  0  0  0  0  0  0
   21.9263  -28.8007  -17.9161 C   0  0  0  0  0  0  0  0  0  0  0  0
   22.7840  -29.0880  -16.7286 C   0  0  2  0  0  0  0  0  0  0  0  0
   24.1814  -29.2812  -17.1239 N   0  0  0  0  0  0  0  0  0  0  0  0
   22.3106  -30.2650  -16.0308 C   0  0  0  0  0  0  0  0  0  0  0  0
   21.2983  -30.2349  -15.3100 O   0  0  0  0  0  0  0  0  0  0  0  0
   19.6416  -29.6619  -17.6324 C   0  0  0  0  0  0  0  0  0  0  0  0
   18.3219  -29.5781  -17.2910 C   0  0  0  0  0  0  0  0  0  0  0  0
   22.9637  -31.4779  -16.1391 O   0  0  0  0  0  0  0  0  0  0  0  0
  2  1  1  6
  2  3  1  0
  3  4  1  0
  4  5  1  0
  5  6  2  0
  5  9  1  0
  7  2  1  0
  7  8  2  0
 10  7  1  0
 11 10  1  0
 11 12  1  1
 12 13  1  0
 13 18  1  0
 13 14  2  0
 14 15  1  0
 15 16  2  0
 17 16  1  0
 18 17  2  0
 19 11  1  0
 20 19  2  0
 22 32  2  0
 22 21  1  0
 23 22  1  0
 24 25  1  0
 24 23  2  0
 25 31  2  0
 26 25  1  0
 27 26  1  6
 27 28  1  0
 28 19  1  0
 29 33  1  0
 29 27  1  0
 30 29  2  0
 31 32  1  0
M  END
$$$$
