EFY.pdb
     RDKit          3D

 33 34  0  0  1  0  0  0  0  0999 V2000
   27.3926  -21.8344  -18.2371 N   0  0  0  0  0  0  0  0  0  0  0  0
   26.4593  -20.8572  -17.7409 C   0  0  1  0  0  0  0  0  0  0  0  0
   25.2923  -20.6540  -18.6871 C   0  0  0  0  0  0  0  0  0  0  0  0
   25.6282  -19.6941  -19.7933 C   0  0  0  0  0  0  0  0  0  0  0  0
   25.7544  -18.3335  -19.2219 C   0  0  0  0  0  0  0  0  0  0  0  0
   26.8812  -17.8816  -18.9188 O   0  0  0  0  0  0  0  0  0  0  0  0
   25.8714  -21.4178  -16.4679 C   0  0  0  0  0  0  0  0  0  0  0  0
   25.3505  -22.5532  -16.4386 O   0  0  0  0  0  0  0  0  0  0  0  0
   24.6383  -17.5508  -19.0174 O   0  0  0  0  0  0  0  0  0  0  0  0
   25.9473  -20.5938  -15.3385 N   0  0  0  0  0  0  0  0  0  0  0  0
   25.3742  -21.0961  -14.0456 C   0  0  1  0  0  0  0  0  0  0  0  0
   26.0447  -20.4085  -12.9271 C   0  0  0  0  0  0  0  0  0  0  0  0
   25.5046  -20.7248  -11.6170 C   0  0  0  0  0  0  0  0  0  0  0  0
   24.3662  -20.0844  -11.1113 C   0  0  0  0  0  0  0  0  0  0  0  0
   23.8379  -20.4399   -9.8927 C   0  0  0  0  0  0  0  0  0  0  0  0
   24.3836  -21.4291   -9.1068 C   0  0  0  0  0  0  0  0  0  0  0  0
   25.5030  -22.0625   -9.5980 C   0  0  0  0  0  0  0  0  0  0  0  0
   26.0432  -21.7147  -10.8202 C   0  0  0  0  0  0  0  0  0  0  0  0
   23.9254  -21.0632  -14.1709 C   0  0  0  0  0  0  0  0  0  0  0  0
   23.3363  -19.9601  -14.4946 O   0  0  0  0  0  0  0  0  0  0  0  0
   15.3125  -22.9603  -14.2495 O   0  0  0  0  0  0  0  0  0  0  0  0
   16.6947  -23.0538  -14.2359 C   0  0  0  0  0  0  0  0  0  0  0  0
   17.4227  -22.8458  -15.3853 C   0  0  0  0  0  0  0  0  0  0  0  0
   18.8097  -22.9406  -15.3680 C   0  0  0  0  0  0  0  0  0  0  0  0
   19.5076  -23.2409  -14.2246 C   0  0  0  0  0  0  0  0  0  0  0  0
   20.9660  -23.3700  -14.1053 C   0  0  0  0  0  0  0  0  0  0  0  0
   21.6123  -22.0255  -14.0513 C   0  0  2  0  0  0  0  0  0  0  0  0
   23.0705  -22.1456  -13.9791 N   0  0  0  0  0  0  0  0  0  0  0  0
   21.1307  -21.2740  -12.9112 C   0  0  0  0  0  0  0  0  0  0  0  0
   20.3544  -20.3123  -13.0424 O   0  0  0  0  0  0  0  0  0  0  0  0
   18.7338  -23.4449  -13.0790 C   0  0  0  0  0  0  0  0  0  0  0  0
   17.3710  -23.3565  -13.0748 C   0  0  0  0  0  0  0  0  0  0  0  0
   21.5119  -21.5970  -11.6228 O   0  0  0  0  0  0  0  0  0  0  0  0
  2  1  1  6
  2  3  1  0
  3  4  1  0
  4  5  1  0
  5  6  2  0
  5  9  1  0
  7  2  1  0
  7  8  2  0
 10  7  1  0
 11 10  1  0
 11 12  1  1
 12 13  1  0
 13 18  1  0
 13 14  2  0
 14 15  1  0
 15 16  2  0
 17 16  1  0
 18 17  2  0
 19 11  1  0
 20 19  2  0
 22 32  2  0
 22 21  1  0
 23 22  1  0
 24 25  1  0
 24 23  2  0
 25 31  2  0
 26 25  1  0
 27 26  1  1
 27 28  1  0
 28 19  1  0
 29 33  1  0
 29 27  1  0
 30 29  2  0
 31 32  1  0
M  END
$$$$
