EFY.pdb
     RDKit          3D

 33 34  0  0  1  0  0  0  0  0999 V2000
   25.6237    3.6096   -7.4808 N   0  0  0  0  0  0  0  0  0  0  0  0
   26.5296    4.4688   -6.7644 C   0  0  1  0  0  0  0  0  0  0  0  0
   26.0852    5.9179   -6.7985 C   0  0  0  0  0  0  0  0  0  0  0  0
   24.6253    6.0489   -7.1296 C   0  0  0  0  0  0  0  0  0  0  0  0
   24.4636    5.9957   -8.6009 C   0  0  0  0  0  0  0  0  0  0  0  0
   23.5146    5.3549   -9.1056 O   0  0  0  0  0  0  0  0  0  0  0  0
   26.4780    4.0505   -5.3143 C   0  0  0  0  0  0  0  0  0  0  0  0
   26.4496    4.8967   -4.3955 O   0  0  0  0  0  0  0  0  0  0  0  0
   25.3514    6.6477   -9.4296 O   0  0  0  0  0  0  0  0  0  0  0  0
   26.4641    2.6720   -5.0704 N   0  0  0  0  0  0  0  0  0  0  0  0
   26.3805    2.1969   -3.6492 C   0  0  1  0  0  0  0  0  0  0  0  0
   25.1314    1.4339   -3.4735 C   0  0  0  0  0  0  0  0  0  0  0  0
   25.0158    0.7569   -2.1942 C   0  0  0  0  0  0  0  0  0  0  0  0
   25.5810   -0.5050   -1.9707 C   0  0  0  0  0  0  0  0  0  0  0  0
   25.5092   -1.1027   -0.7347 C   0  0  0  0  0  0  0  0  0  0  0  0
   24.8890   -0.5106    0.3417 C   0  0  0  0  0  0  0  0  0  0  0  0
   24.3311    0.7300    0.1288 C   0  0  0  0  0  0  0  0  0  0  0  0
   24.3964    1.3408   -1.1079 C   0  0  0  0  0  0  0  0  0  0  0  0
   27.6641    1.5998   -3.3147 C   0  0  0  0  0  0  0  0  0  0  0  0
   28.1584    0.6792   -4.0740 O   0  0  0  0  0  0  0  0  0  0  0  0
   35.5632   -1.0684   -1.4770 O   0  0  0  0  0  0  0  0  0  0  0  0
   34.3828   -0.4526   -1.8600 C   0  0  0  0  0  0  0  0  0  0  0  0
   34.3710    0.8740   -2.2266 C   0  0  0  0  0  0  0  0  0  0  0  0
   33.1846    1.4888   -2.6102 C   0  0  0  0  0  0  0  0  0  0  0  0
   31.9889    0.8149   -2.6414 C   0  0  0  0  0  0  0  0  0  0  0  0
   30.6856    1.3745   -3.0239 C   0  0  0  0  0  0  0  0  0  0  0  0
   29.7074    1.2477   -1.9035 C   0  0  2  0  0  0  0  0  0  0  0  0
   28.4544    1.9379   -2.2191 N   0  0  0  0  0  0  0  0  0  0  0  0
   30.2623    1.7861   -0.6793 C   0  0  0  0  0  0  0  0  0  0  0  0
   29.8704    2.8652   -0.2027 O   0  0  0  0  0  0  0  0  0  0  0  0
   32.0416   -0.5292   -2.2628 C   0  0  0  0  0  0  0  0  0  0  0  0
   33.1962   -1.1517   -1.8828 C   0  0  0  0  0  0  0  0  0  0  0  0
   31.2526    1.1195    0.0168 O   0  0  0  0  0  0  0  0  0  0  0  0
  2  1  1  6
  2  3  1  0
  3  4  1  0
  4  5  1  0
  5  6  2  0
  5  9  1  0
  7  2  1  0
  7  8  2  0
 10  7  1  0
 11 10  1  0
 11 12  1  6
 12 13  1  0
 13 18  1  0
 13 14  2  0
 14 15  1  0
 15 16  2  0
 17 16  1  0
 18 17  2  0
 19 11  1  0
 20 19  2  0
 22 32  2  0
 22 21  1  0
 23 22  1  0
 24 25  1  0
 24 23  2  0
 25 31  2  0
 26 25  1  0
 27 26  1  6
 27 28  1  0
 28 19  1  0
 29 33  1  0
 29 27  1  0
 30 29  2  0
 31 32  1  0
M  END
$$$$
