EFY.pdb
     RDKit          3D

 33 34  0  0  1  0  0  0  0  0999 V2000
   28.7669  -21.3860  -14.9008 N   0  0  0  0  0  0  0  0  0  0  0  0
   27.8002  -20.3718  -14.5708 C   0  0  1  0  0  0  0  0  0  0  0  0
   27.0421  -19.8902  -15.7923 C   0  0  0  0  0  0  0  0  0  0  0  0
   27.9184  -19.0948  -16.7183 C   0  0  0  0  0  0  0  0  0  0  0  0
   28.3006  -17.8319  -16.0455 C   0  0  0  0  0  0  0  0  0  0  0  0
   27.4375  -17.1554  -15.4426 O   0  0  0  0  0  0  0  0  0  0  0  0
   26.7741  -21.0188  -13.6713 C   0  0  0  0  0  0  0  0  0  0  0  0
   26.4023  -22.1975  -13.8539 O   0  0  0  0  0  0  0  0  0  0  0  0
   29.6049  -17.3871  -16.0741 O   0  0  0  0  0  0  0  0  0  0  0  0
   26.2740  -20.2226  -12.6340 N   0  0  0  0  0  0  0  0  0  0  0  0
   25.2535  -20.8135  -11.7057 C   0  0  1  0  0  0  0  0  0  0  0  0
   25.3466  -20.1357  -10.3999 C   0  0  0  0  0  0  0  0  0  0  0  0
   26.5302  -20.4744   -9.6301 C   0  0  0  0  0  0  0  0  0  0  0  0
   27.4833  -21.3866  -10.1007 C   0  0  0  0  0  0  0  0  0  0  0  0
   28.6254  -21.6494   -9.3818 C   0  0  0  0  0  0  0  0  0  0  0  0
   28.9001  -21.0443   -8.1766 C   0  0  0  0  0  0  0  0  0  0  0  0
   27.9672  -20.1466   -7.7083 C   0  0  0  0  0  0  0  0  0  0  0  0
   26.8162  -19.8741   -8.4207 C   0  0  0  0  0  0  0  0  0  0  0  0
   23.9896  -20.8624  -12.4241 C   0  0  0  0  0  0  0  0  0  0  0  0
   23.6397  -19.8683  -13.1711 O   0  0  0  0  0  0  0  0  0  0  0  0
   15.8775  -22.9536  -15.2015 O   0  0  0  0  0  0  0  0  0  0  0  0
   17.1774  -23.0124  -14.7262 C   0  0  0  0  0  0  0  0  0  0  0  0
   18.2446  -22.9181  -15.5902 C   0  0  0  0  0  0  0  0  0  0  0  0
   19.5479  -22.9775  -15.1098 C   0  0  0  0  0  0  0  0  0  0  0  0
   19.8285  -23.1305  -13.7746 C   0  0  0  0  0  0  0  0  0  0  0  0
   21.1654  -23.2108  -13.1712 C   0  0  0  0  0  0  0  0  0  0  0  0
   21.7701  -21.8519  -13.0451 C   0  0  2  0  0  0  0  0  0  0  0  0
   23.0822  -21.9184  -12.3970 N   0  0  0  0  0  0  0  0  0  0  0  0
   20.9001  -20.9752  -12.2894 C   0  0  0  0  0  0  0  0  0  0  0  0
   20.0424  -20.2675  -12.8448 O   0  0  0  0  0  0  0  0  0  0  0  0
   18.7193  -23.2223  -12.9296 C   0  0  0  0  0  0  0  0  0  0  0  0
   17.4317  -23.1661  -13.3813 C   0  0  0  0  0  0  0  0  0  0  0  0
   20.9836  -20.8896  -10.9127 O   0  0  0  0  0  0  0  0  0  0  0  0
  2  1  1  6
  2  3  1  0
  3  4  1  0
  4  5  1  0
  5  6  2  0
  5  9  1  0
  7  2  1  0
  7  8  2  0
 10  7  1  0
 11 10  1  0
 11 12  1  1
 12 13  1  0
 13 18  1  0
 13 14  2  0
 14 15  1  0
 15 16  2  0
 17 16  1  0
 18 17  2  0
 19 11  1  0
 20 19  2  0
 22 32  2  0
 22 21  1  0
 23 22  1  0
 24 25  1  0
 24 23  2  0
 25 31  2  0
 26 25  1  0
 27 26  1  1
 27 28  1  0
 28 19  1  0
 29 33  1  0
 29 27  1  0
 30 29  2  0
 31 32  1  0
M  END
$$$$
