EFY.pdb
     RDKit          3D

 33 34  0  0  1  0  0  0  0  0999 V2000
   26.6432  -23.7393  -16.4904 N   0  0  0  0  0  0  0  0  0  0  0  0
   26.7831  -22.3677  -16.0765 C   0  0  1  0  0  0  0  0  0  0  0  0
   25.9818  -21.4250  -16.9528 C   0  0  0  0  0  0  0  0  0  0  0  0
   26.5470  -21.3346  -18.3422 C   0  0  0  0  0  0  0  0  0  0  0  0
   27.8811  -20.6950  -18.2735 C   0  0  0  0  0  0  0  0  0  0  0  0
   28.8916  -21.3036  -18.6910 O   0  0  0  0  0  0  0  0  0  0  0  0
   26.1846  -22.2625  -14.6941 C   0  0  0  0  0  0  0  0  0  0  0  0
   25.2604  -23.0193  -14.3278 O   0  0  0  0  0  0  0  0  0  0  0  0
   28.0268  -19.4276  -17.7516 O   0  0  0  0  0  0  0  0  0  0  0  0
   26.7254  -21.2753  -13.8616 N   0  0  0  0  0  0  0  0  0  0  0  0
   26.2236  -21.1745  -12.4507 C   0  0  1  0  0  0  0  0  0  0  0  0
   27.3292  -20.7329  -11.5812 C   0  0  0  0  0  0  0  0  0  0  0  0
   26.9342  -20.4184  -10.2199 C   0  0  0  0  0  0  0  0  0  0  0  0
   25.9633  -19.4494   -9.9360 C   0  0  0  0  0  0  0  0  0  0  0  0
   25.5627  -19.2080   -8.6432 C   0  0  0  0  0  0  0  0  0  0  0  0
   26.0801  -19.8900   -7.5656 C   0  0  0  0  0  0  0  0  0  0  0  0
   27.0350  -20.8438   -7.8378 C   0  0  0  0  0  0  0  0  0  0  0  0
   27.4460  -21.0956   -9.1317 C   0  0  0  0  0  0  0  0  0  0  0  0
   24.9717  -20.4348  -12.4868 C   0  0  0  0  0  0  0  0  0  0  0  0
   24.9234  -19.2877  -13.0787 O   0  0  0  0  0  0  0  0  0  0  0  0
   17.4574  -18.4047  -15.7864 O   0  0  0  0  0  0  0  0  0  0  0  0
   18.6468  -18.9449  -15.3249 C   0  0  0  0  0  0  0  0  0  0  0  0
   18.7147  -20.2646  -14.9401 C   0  0  0  0  0  0  0  0  0  0  0  0
   19.9099  -20.8033  -14.4775 C   0  0  0  0  0  0  0  0  0  0  0  0
   21.0595  -20.0587  -14.3835 C   0  0  0  0  0  0  0  0  0  0  0  0
   22.3645  -20.5317  -13.9030 C   0  0  0  0  0  0  0  0  0  0  0  0
   22.4648  -20.3885  -12.4206 C   0  0  2  0  0  0  0  0  0  0  0  0
   23.7650  -20.8562  -11.9340 N   0  0  0  0  0  0  0  0  0  0  0  0
   21.4070  -21.1281  -11.7644 C   0  0  0  0  0  0  0  0  0  0  0  0
   20.3774  -20.5684  -11.3503 O   0  0  0  0  0  0  0  0  0  0  0  0
   20.9505  -18.7241  -14.7832 C   0  0  0  0  0  0  0  0  0  0  0  0
   19.7863  -18.1758  -15.2405 C   0  0  0  0  0  0  0  0  0  0  0  0
   21.4950  -22.4938  -11.5728 O   0  0  0  0  0  0  0  0  0  0  0  0
  2  1  1  6
  2  3  1  0
  3  4  1  0
  4  5  1  0
  5  6  2  0
  5  9  1  0
  7  2  1  0
  7  8  2  0
 10  7  1  0
 11 10  1  0
 11 12  1  1
 12 13  1  0
 13 18  1  0
 13 14  2  0
 14 15  1  0
 15 16  2  0
 17 16  1  0
 18 17  2  0
 19 11  1  0
 20 19  2  0
 22 32  2  0
 22 21  1  0
 23 22  1  0
 24 25  1  0
 24 23  2  0
 25 31  2  0
 26 25  1  0
 27 26  1  6
 27 28  1  0
 28 19  1  0
 29 33  1  0
 29 27  1  0
 30 29  2  0
 31 32  1  0
M  END
$$$$
