EFY.pdb
     RDKit          3D

 33 34  0  0  1  0  0  0  0  0999 V2000
   25.1753  -24.3091  -14.2215 N   0  0  0  0  0  0  0  0  0  0  0  0
   24.0428  -23.6524  -14.8201 C   0  0  1  0  0  0  0  0  0  0  0  0
   23.2631  -24.5807  -15.7304 C   0  0  0  0  0  0  0  0  0  0  0  0
   23.2774  -25.9979  -15.2309 C   0  0  0  0  0  0  0  0  0  0  0  0
   21.9020  -26.3771  -14.8332 C   0  0  0  0  0  0  0  0  0  0  0  0
   21.2489  -25.6457  -14.0557 O   0  0  0  0  0  0  0  0  0  0  0  0
   23.1037  -23.2842  -13.6963 C   0  0  0  0  0  0  0  0  0  0  0  0
   23.0910  -23.9263  -12.6246 O   0  0  0  0  0  0  0  0  0  0  0  0
   21.3259  -27.5343  -15.3116 O   0  0  0  0  0  0  0  0  0  0  0  0
   22.2601  -22.1917  -13.9307 N   0  0  0  0  0  0  0  0  0  0  0  0
   21.4202  -21.6793  -12.7974 C   0  0  1  0  0  0  0  0  0  0  0  0
   21.9463  -20.3712  -12.3667 C   0  0  0  0  0  0  0  0  0  0  0  0
   23.1511  -20.4443  -11.5596 C   0  0  0  0  0  0  0  0  0  0  0  0
   23.1017  -20.5744  -10.1659 C   0  0  0  0  0  0  0  0  0  0  0  0
   24.2540  -20.6998   -9.4265 C   0  0  0  0  0  0  0  0  0  0  0  0
   25.5060  -20.7054   -9.9977 C   0  0  0  0  0  0  0  0  0  0  0  0
   25.5617  -20.5777  -11.3674 C   0  0  0  0  0  0  0  0  0  0  0  0
   24.4118  -20.4509  -12.1212 C   0  0  0  0  0  0  0  0  0  0  0  0
   20.0270  -21.8221  -13.1902 C   0  0  0  0  0  0  0  0  0  0  0  0
   19.6809  -21.5942  -14.4136 O   0  0  0  0  0  0  0  0  0  0  0  0
   19.6987  -28.3699  -12.0402 O   0  0  0  0  0  0  0  0  0  0  0  0
   19.0061  -27.1701  -12.0515 C   0  0  0  0  0  0  0  0  0  0  0  0
   18.1849  -26.8446  -13.1070 C   0  0  0  0  0  0  0  0  0  0  0  0
   17.4915  -25.6396  -13.1150 C   0  0  0  0  0  0  0  0  0  0  0  0
   17.5905  -24.7324  -12.0894 C   0  0  0  0  0  0  0  0  0  0  0  0
   16.9069  -23.4347  -12.0080 C   0  0  0  0  0  0  0  0  0  0  0  0
   17.6156  -22.4121  -12.8328 C   0  0  2  0  0  0  0  0  0  0  0  0
   18.9833  -22.2042  -12.3511 N   0  0  0  0  0  0  0  0  0  0  0  0
   16.8981  -21.1546  -12.8124 C   0  0  0  0  0  0  0  0  0  0  0  0
   17.4178  -20.1121  -12.3788 O   0  0  0  0  0  0  0  0  0  0  0  0
   18.4333  -25.0986  -11.0366 C   0  0  0  0  0  0  0  0  0  0  0  0
   19.1229  -26.2771  -11.0094 C   0  0  0  0  0  0  0  0  0  0  0  0
   15.6010  -21.0579  -13.2791 O   0  0  0  0  0  0  0  0  0  0  0  0
  2  1  1  1
  2  3  1  0
  3  4  1  0
  4  5  1  0
  5  6  2  0
  5  9  1  0
  7  2  1  0
  7  8  2  0
 10  7  1  0
 11 10  1  0
 11 12  1  6
 12 13  1  0
 13 18  1  0
 13 14  2  0
 14 15  1  0
 15 16  2  0
 17 16  1  0
 18 17  2  0
 19 11  1  0
 20 19  2  0
 22 32  2  0
 22 21  1  0
 23 22  1  0
 24 25  1  0
 24 23  2  0
 25 31  2  0
 26 25  1  0
 27 26  1  1
 27 28  1  0
 28 19  1  0
 29 33  1  0
 29 27  1  0
 30 29  2  0
 31 32  1  0
M  END
$$$$
