EFY.pdb
     RDKit          3D

 33 34  0  0  1  0  0  0  0  0999 V2000
   26.7502  -20.5831  -17.4412 N   0  0  0  0  0  0  0  0  0  0  0  0
   26.4276  -19.8945  -16.2190 C   0  0  1  0  0  0  0  0  0  0  0  0
   26.0164  -18.4567  -16.4683 C   0  0  0  0  0  0  0  0  0  0  0  0
   27.1514  -17.6352  -17.0114 C   0  0  0  0  0  0  0  0  0  0  0  0
   27.1205  -17.6986  -18.4908 C   0  0  0  0  0  0  0  0  0  0  0  0
   26.0536  -17.4792  -19.1067 O   0  0  0  0  0  0  0  0  0  0  0  0
   25.2153  -20.5799  -15.6352 C   0  0  0  0  0  0  0  0  0  0  0  0
   24.2500  -20.9148  -16.3544 O   0  0  0  0  0  0  0  0  0  0  0  0
   28.2605  -17.9984  -19.2053 O   0  0  0  0  0  0  0  0  0  0  0  0
   25.2434  -20.8125  -14.2549 N   0  0  0  0  0  0  0  0  0  0  0  0
   24.0949  -21.5483  -13.6290 C   0  0  1  0  0  0  0  0  0  0  0  0
   24.6015  -22.3567  -12.5051 C   0  0  0  0  0  0  0  0  0  0  0  0
   25.0388  -21.5825  -11.3572 C   0  0  0  0  0  0  0  0  0  0  0  0
   24.1350  -21.0994  -10.4023 C   0  0  0  0  0  0  0  0  0  0  0  0
   24.5763  -20.4179   -9.2928 C   0  0  0  0  0  0  0  0  0  0  0  0
   25.9090  -20.1714   -9.0539 C   0  0  0  0  0  0  0  0  0  0  0  0
   26.8027  -20.6434   -9.9888 C   0  0  0  0  0  0  0  0  0  0  0  0
   26.3722  -21.3291  -11.1073 C   0  0  0  0  0  0  0  0  0  0  0  0
   23.0233  -20.5865  -13.4231 C   0  0  0  0  0  0  0  0  0  0  0  0
   23.2812  -19.4522  -12.8614 O   0  0  0  0  0  0  0  0  0  0  0  0
   16.4903  -14.9787  -13.2206 O   0  0  0  0  0  0  0  0  0  0  0  0
   17.5088  -15.8742  -13.5036 C   0  0  0  0  0  0  0  0  0  0  0  0
   18.7238  -15.7790  -12.8642 C   0  0  0  0  0  0  0  0  0  0  0  0
   19.7437  -16.6793  -13.1508 C   0  0  0  0  0  0  0  0  0  0  0  0
   19.5911  -17.6886  -14.0688 C   0  0  0  0  0  0  0  0  0  0  0  0
   20.6059  -18.6818  -14.4451 C   0  0  0  0  0  0  0  0  0  0  0  0
   20.6419  -19.8001  -13.4569 C   0  0  2  0  0  0  0  0  0  0  0  0
   21.6924  -20.7644  -13.7923 N   0  0  0  0  0  0  0  0  0  0  0  0
   19.3623  -20.4757  -13.4052 C   0  0  0  0  0  0  0  0  0  0  0  0
   19.0890  -21.4180  -14.1684 O   0  0  0  0  0  0  0  0  0  0  0  0
   18.3442  -17.7526  -14.6965 C   0  0  0  0  0  0  0  0  0  0  0  0
   17.3297  -16.8783  -14.4292 C   0  0  0  0  0  0  0  0  0  0  0  0
   18.3873  -20.1033  -12.4995 O   0  0  0  0  0  0  0  0  0  0  0  0
  2  1  1  6
  2  3  1  0
  3  4  1  0
  4  5  1  0
  5  6  2  0
  5  9  1  0
  7  2  1  0
  7  8  2  0
 10  7  1  0
 11 10  1  0
 11 12  1  1
 12 13  1  0
 13 18  1  0
 13 14  2  0
 14 15  1  0
 15 16  2  0
 17 16  1  0
 18 17  2  0
 19 11  1  0
 20 19  2  0
 22 32  2  0
 22 21  1  0
 23 22  1  0
 24 25  1  0
 24 23  2  0
 25 31  2  0
 26 25  1  0
 27 26  1  6
 27 28  1  0
 28 19  1  0
 29 33  1  0
 29 27  1  0
 30 29  2  0
 31 32  1  0
M  END
$$$$
