EFY.pdb
     RDKit          3D

 33 34  0  0  1  0  0  0  0  0999 V2000
   18.3463  -13.2073  -17.7612 N   0  0  0  0  0  0  0  0  0  0  0  0
   18.8809  -12.0272  -18.3886 C   0  0  1  0  0  0  0  0  0  0  0  0
   17.9734  -11.5059  -19.4855 C   0  0  0  0  0  0  0  0  0  0  0  0
   17.9534  -12.4199  -20.6781 C   0  0  0  0  0  0  0  0  0  0  0  0
   19.1405  -12.1351  -21.5168 C   0  0  0  0  0  0  0  0  0  0  0  0
   19.6850  -11.0093  -21.4730 O   0  0  0  0  0  0  0  0  0  0  0  0
   18.9215  -10.9482  -17.3328 C   0  0  0  0  0  0  0  0  0  0  0  0
   17.9795  -10.7932  -16.5268 O   0  0  0  0  0  0  0  0  0  0  0  0
   19.6586  -13.1011  -22.3525 O   0  0  0  0  0  0  0  0  0  0  0  0
   20.0678  -10.1445  -17.3164 N   0  0  0  0  0  0  0  0  0  0  0  0
   20.1556   -9.0429  -16.3010 C   0  0  1  0  0  0  0  0  0  0  0  0
   21.4152   -9.1864  -15.5486 C   0  0  0  0  0  0  0  0  0  0  0  0
   21.6687   -8.1231  -14.5928 C   0  0  0  0  0  0  0  0  0  0  0  0
   21.3712   -8.2650  -13.2315 C   0  0  0  0  0  0  0  0  0  0  0  0
   21.6725   -7.2676  -12.3345 C   0  0  0  0  0  0  0  0  0  0  0  0
   22.2744   -6.0882  -12.7097 C   0  0  0  0  0  0  0  0  0  0  0  0
   22.5694   -5.9422  -14.0466 C   0  0  0  0  0  0  0  0  0  0  0  0
   22.2717   -6.9365  -14.9574 C   0  0  0  0  0  0  0  0  0  0  0  0
   19.8403   -7.7974  -16.9830 C   0  0  0  0  0  0  0  0  0  0  0  0
   20.3317   -7.5681  -18.1554 O   0  0  0  0  0  0  0  0  0  0  0  0
   16.8890   -0.3524  -20.3733 O   0  0  0  0  0  0  0  0  0  0  0  0
   17.0957   -1.5986  -19.8045 C   0  0  0  0  0  0  0  0  0  0  0  0
   18.1383   -2.3949  -20.2206 C   0  0  0  0  0  0  0  0  0  0  0  0
   18.3427   -3.6450  -19.6476 C   0  0  0  0  0  0  0  0  0  0  0  0
   17.5292   -4.1371  -18.6572 C   0  0  0  0  0  0  0  0  0  0  0  0
   17.6574   -5.4424  -17.9958 C   0  0  0  0  0  0  0  0  0  0  0  0
   18.8829   -5.4848  -17.1446 C   0  0  2  0  0  0  0  0  0  0  0  0
   19.0213   -6.7863  -16.4867 N   0  0  0  0  0  0  0  0  0  0  0  0
   18.8455   -4.4379  -16.1450 C   0  0  0  0  0  0  0  0  0  0  0  0
   19.0229   -3.2439  -16.4415 O   0  0  0  0  0  0  0  0  0  0  0  0
   16.4825   -3.2998  -18.2620 C   0  0  0  0  0  0  0  0  0  0  0  0
   16.2646   -2.0688  -18.8118 C   0  0  0  0  0  0  0  0  0  0  0  0
   18.6064   -4.7214  -14.8138 O   0  0  0  0  0  0  0  0  0  0  0  0
  2  1  1  1
  2  3  1  0
  3  4  1  0
  4  5  1  0
  5  6  2  0
  5  9  1  0
  7  2  1  0
  7  8  2  0
 10  7  1  0
 11 10  1  0
 11 12  1  6
 12 13  1  0
 13 18  1  0
 13 14  2  0
 14 15  1  0
 15 16  2  0
 17 16  1  0
 18 17  2  0
 19 11  1  0
 20 19  2  0
 22 32  2  0
 22 21  1  0
 23 22  1  0
 24 25  1  0
 24 23  2  0
 25 31  2  0
 26 25  1  0
 27 26  1  1
 27 28  1  0
 28 19  1  0
 29 33  1  0
 29 27  1  0
 30 29  2  0
 31 32  1  0
M  END
$$$$
