EFY.pdb
     RDKit          3D

 33 34  0  0  1  0  0  0  0  0999 V2000
   29.0852  -22.3226  -17.1365 N   0  0  0  0  0  0  0  0  0  0  0  0
   28.0911  -21.2822  -17.1738 C   0  0  1  0  0  0  0  0  0  0  0  0
   27.2125  -21.3794  -18.4055 C   0  0  0  0  0  0  0  0  0  0  0  0
   28.0205  -21.5886  -19.6552 C   0  0  0  0  0  0  0  0  0  0  0  0
   29.0052  -20.4889  -19.7758 C   0  0  0  0  0  0  0  0  0  0  0  0
   28.6227  -19.2976  -19.7501 O   0  0  0  0  0  0  0  0  0  0  0  0
   27.1781  -21.5041  -15.9916 C   0  0  0  0  0  0  0  0  0  0  0  0
   26.0627  -22.0508  -16.1267 O   0  0  0  0  0  0  0  0  0  0  0  0
   30.3490  -20.7612  -19.9174 O   0  0  0  0  0  0  0  0  0  0  0  0
   27.6565  -21.0635  -14.7518 N   0  0  0  0  0  0  0  0  0  0  0  0
   26.7647  -21.1954  -13.5519 C   0  0  1  0  0  0  0  0  0  0  0  0
   27.5525  -20.9134  -12.3382 C   0  0  0  0  0  0  0  0  0  0  0  0
   26.7633  -20.7834  -11.1264 C   0  0  0  0  0  0  0  0  0  0  0  0
   26.1383  -21.8850  -10.5282 C   0  0  0  0  0  0  0  0  0  0  0  0
   25.4438  -21.7496   -9.3495 C   0  0  0  0  0  0  0  0  0  0  0  0
   25.3204  -20.5456   -8.6942 C   0  0  0  0  0  0  0  0  0  0  0  0
   25.9323  -19.4586   -9.2770 C   0  0  0  0  0  0  0  0  0  0  0  0
   26.6327  -19.5816  -10.4607 C   0  0  0  0  0  0  0  0  0  0  0  0
   25.5471  -20.4505  -13.8318 C   0  0  0  0  0  0  0  0  0  0  0  0
   25.6177  -19.3182  -14.4493 O   0  0  0  0  0  0  0  0  0  0  0  0
   18.3019  -16.8433  -16.5133 O   0  0  0  0  0  0  0  0  0  0  0  0
   19.4094  -17.6220  -16.2195 C   0  0  0  0  0  0  0  0  0  0  0  0
   19.2932  -18.9878  -16.0958 C   0  0  0  0  0  0  0  0  0  0  0  0
   20.4068  -19.7662  -15.8009 C   0  0  0  0  0  0  0  0  0  0  0  0
   21.6537  -19.2202  -15.6219 C   0  0  0  0  0  0  0  0  0  0  0  0
   22.8857  -19.9534  -15.3024 C   0  0  0  0  0  0  0  0  0  0  0  0
   23.0699  -20.0573  -13.8247 C   0  0  2  0  0  0  0  0  0  0  0  0
   24.2562  -20.8521  -13.4974 N   0  0  0  0  0  0  0  0  0  0  0  0
   21.9030  -20.6510  -13.2063 C   0  0  0  0  0  0  0  0  0  0  0  0
   21.7197  -21.8804  -13.2013 O   0  0  0  0  0  0  0  0  0  0  0  0
   21.7311  -17.8313  -15.7556 C   0  0  0  0  0  0  0  0  0  0  0  0
   20.6497  -17.0490  -16.0449 C   0  0  0  0  0  0  0  0  0  0  0  0
   20.9410  -19.8741  -12.5894 O   0  0  0  0  0  0  0  0  0  0  0  0
  2  1  1  6
  2  3  1  0
  3  4  1  0
  4  5  1  0
  5  6  2  0
  5  9  1  0
  7  2  1  0
  7  8  2  0
 10  7  1  0
 11 10  1  0
 11 12  1  1
 12 13  1  0
 13 18  1  0
 13 14  2  0
 14 15  1  0
 15 16  2  0
 17 16  1  0
 18 17  2  0
 19 11  1  0
 20 19  2  0
 22 32  2  0
 22 21  1  0
 23 22  1  0
 24 25  1  0
 24 23  2  0
 25 31  2  0
 26 25  1  0
 27 26  1  6
 27 28  1  0
 28 19  1  0
 29 33  1  0
 29 27  1  0
 30 29  2  0
 31 32  1  0
M  END
$$$$
