EFY.pdb
     RDKit          3D

 33 34  0  0  1  0  0  0  0  0999 V2000
   28.3787  -24.3693  -16.1789 N   0  0  0  0  0  0  0  0  0  0  0  0
   27.0395  -24.1544  -16.6612 C   0  0  1  0  0  0  0  0  0  0  0  0
   26.2194  -25.4295  -16.6485 C   0  0  0  0  0  0  0  0  0  0  0  0
   25.4942  -25.6425  -17.9473 C   0  0  0  0  0  0  0  0  0  0  0  0
   26.4921  -25.8402  -19.0237 C   0  0  0  0  0  0  0  0  0  0  0  0
   27.4456  -26.6336  -18.8582 O   0  0  0  0  0  0  0  0  0  0  0  0
   26.3670  -23.2162  -15.6876 C   0  0  0  0  0  0  0  0  0  0  0  0
   25.9247  -23.6248  -14.5928 O   0  0  0  0  0  0  0  0  0  0  0  0
   26.3847  -25.1567  -20.2159 O   0  0  0  0  0  0  0  0  0  0  0  0
   26.2731  -21.8774  -16.0863 N   0  0  0  0  0  0  0  0  0  0  0  0
   25.8020  -20.8633  -15.0853 C   0  0  1  0  0  0  0  0  0  0  0  0
   26.9176  -19.9543  -14.7654 C   0  0  0  0  0  0  0  0  0  0  0  0
   27.8609  -20.4791  -13.7943 C   0  0  0  0  0  0  0  0  0  0  0  0
   29.0800  -21.0505  -14.1804 C   0  0  0  0  0  0  0  0  0  0  0  0
   29.9838  -21.4890  -13.2418 C   0  0  0  0  0  0  0  0  0  0  0  0
   29.7529  -21.3962  -11.8883 C   0  0  0  0  0  0  0  0  0  0  0  0
   28.5562  -20.8357  -11.5019 C   0  0  0  0  0  0  0  0  0  0  0  0
   27.6401  -20.3916  -12.4347 C   0  0  0  0  0  0  0  0  0  0  0  0
   24.5340  -20.3362  -15.5648 C   0  0  0  0  0  0  0  0  0  0  0  0
   24.2555  -20.3877  -16.8251 O   0  0  0  0  0  0  0  0  0  0  0  0
   19.5273  -24.2795  -12.6219 O   0  0  0  0  0  0  0  0  0  0  0  0
   19.9610  -23.0209  -13.0058 C   0  0  0  0  0  0  0  0  0  0  0  0
   20.8672  -22.3270  -12.2367 C   0  0  0  0  0  0  0  0  0  0  0  0
   21.3002  -21.0642  -12.6250 C   0  0  0  0  0  0  0  0  0  0  0  0
   20.8529  -20.4590  -13.7732 C   0  0  0  0  0  0  0  0  0  0  0  0
   21.2431  -19.1307  -14.2643 C   0  0  0  0  0  0  0  0  0  0  0  0
   22.2881  -19.2458  -15.3240 C   0  0  2  0  0  0  0  0  0  0  0  0
   23.5417  -19.7653  -14.7719 N   0  0  0  0  0  0  0  0  0  0  0  0
   22.5280  -17.9599  -15.9448 C   0  0  0  0  0  0  0  0  0  0  0  0
   23.5972  -17.3463  -15.7860 O   0  0  0  0  0  0  0  0  0  0  0  0
   19.9344  -21.1947  -14.5268 C   0  0  0  0  0  0  0  0  0  0  0  0
   19.4966  -22.4362  -14.1631 C   0  0  0  0  0  0  0  0  0  0  0  0
   21.5766  -17.3586  -16.7466 O   0  0  0  0  0  0  0  0  0  0  0  0
  2  1  1  1
  2  3  1  0
  3  4  1  0
  4  5  1  0
  5  6  2  0
  5  9  1  0
  7  2  1  0
  7  8  2  0
 10  7  1  0
 11 10  1  0
 11 12  1  6
 12 13  1  0
 13 18  1  0
 13 14  2  0
 14 15  1  0
 15 16  2  0
 17 16  1  0
 18 17  2  0
 19 11  1  0
 20 19  2  0
 22 32  2  0
 22 21  1  0
 23 22  1  0
 24 25  1  0
 24 23  2  0
 25 31  2  0
 26 25  1  0
 27 26  1  1
 27 28  1  0
 28 19  1  0
 29 33  1  0
 29 27  1  0
 30 29  2  0
 31 32  1  0
M  END
$$$$
