EFY.pdb
     RDKit          3D

 33 34  0  0  1  0  0  0  0  0999 V2000
   29.1734  -22.3563  -17.2503 N   0  0  0  0  0  0  0  0  0  0  0  0
   27.8873  -21.7097  -17.2396 C   0  0  1  0  0  0  0  0  0  0  0  0
   26.9668  -22.2577  -18.3124 C   0  0  0  0  0  0  0  0  0  0  0  0
   25.6356  -21.5606  -18.3183 C   0  0  0  0  0  0  0  0  0  0  0  0
   24.7572  -22.2187  -19.3128 C   0  0  0  0  0  0  0  0  0  0  0  0
   23.9908  -23.1428  -18.9597 O   0  0  0  0  0  0  0  0  0  0  0  0
   27.2367  -22.0472  -15.9193 C   0  0  0  0  0  0  0  0  0  0  0  0
   27.1379  -23.2297  -15.5281 O   0  0  0  0  0  0  0  0  0  0  0  0
   24.7720  -21.8244  -20.6335 O   0  0  0  0  0  0  0  0  0  0  0  0
   26.7584  -20.9637  -15.1728 N   0  0  0  0  0  0  0  0  0  0  0  0
   26.2220  -21.2239  -13.7955 C   0  0  1  0  0  0  0  0  0  0  0  0
   26.9577  -20.3867  -12.8306 C   0  0  0  0  0  0  0  0  0  0  0  0
   26.4284  -20.4213  -11.4790 C   0  0  0  0  0  0  0  0  0  0  0  0
   26.8981  -21.3310  -10.5231 C   0  0  0  0  0  0  0  0  0  0  0  0
   26.4237  -21.3084   -9.2329 C   0  0  0  0  0  0  0  0  0  0  0  0
   25.4751  -20.4074   -8.8060 C   0  0  0  0  0  0  0  0  0  0  0  0
   25.0090  -19.5104   -9.7408 C   0  0  0  0  0  0  0  0  0  0  0  0
   25.4772  -19.5230  -11.0397 C   0  0  0  0  0  0  0  0  0  0  0  0
   24.7710  -21.1580  -13.8749 C   0  0  0  0  0  0  0  0  0  0  0  0
   24.2090  -20.1877  -14.5161 O   0  0  0  0  0  0  0  0  0  0  0  0
   16.1989  -21.8624  -12.4745 O   0  0  0  0  0  0  0  0  0  0  0  0
   17.5609  -22.1109  -12.4244 C   0  0  0  0  0  0  0  0  0  0  0  0
   18.1464  -22.5764  -11.2690 C   0  0  0  0  0  0  0  0  0  0  0  0
   19.5135  -22.8247  -11.2222 C   0  0  0  0  0  0  0  0  0  0  0  0
   20.3310  -22.6213  -12.3063 C   0  0  0  0  0  0  0  0  0  0  0  0
   21.7817  -22.8464  -12.3552 C   0  0  0  0  0  0  0  0  0  0  0  0
   22.4432  -21.8370  -13.2337 C   0  0  2  0  0  0  0  0  0  0  0  0
   23.8862  -22.0763  -13.3154 N   0  0  0  0  0  0  0  0  0  0  0  0
   22.2012  -20.4968  -12.7419 C   0  0  0  0  0  0  0  0  0  0  0  0
   22.7272  -20.0791  -11.6961 O   0  0  0  0  0  0  0  0  0  0  0  0
   19.6998  -22.1487  -13.4600 C   0  0  0  0  0  0  0  0  0  0  0  0
   18.3589  -21.8986  -13.5267 C   0  0  0  0  0  0  0  0  0  0  0  0
   21.3750  -19.6197  -13.4184 O   0  0  0  0  0  0  0  0  0  0  0  0
  2  1  1  1
  2  3  1  0
  3  4  1  0
  4  5  1  0
  5  6  2  0
  5  9  1  0
  7  2  1  0
  7  8  2  0
 10  7  1  0
 11 10  1  0
 11 12  1  1
 12 13  1  0
 13 18  1  0
 13 14  2  0
 14 15  1  0
 15 16  2  0
 17 16  1  0
 18 17  2  0
 19 11  1  0
 20 19  2  0
 22 32  2  0
 22 21  1  0
 23 22  1  0
 24 25  1  0
 24 23  2  0
 25 31  2  0
 26 25  1  0
 27 26  1  1
 27 28  1  0
 28 19  1  0
 29 33  1  0
 29 27  1  0
 30 29  2  0
 31 32  1  0
M  END
$$$$
