EFY.pdb
     RDKit          3D

 33 34  0  0  1  0  0  0  0  0999 V2000
   22.0039  -10.1735  -22.0480 N   0  0  0  0  0  0  0  0  0  0  0  0
   22.9243   -9.7930  -21.0086 C   0  0  1  0  0  0  0  0  0  0  0  0
   23.7390   -8.5725  -21.3898 C   0  0  0  0  0  0  0  0  0  0  0  0
   23.0477   -7.7404  -22.4327 C   0  0  0  0  0  0  0  0  0  0  0  0
   23.0859   -6.3208  -22.0123 C   0  0  0  0  0  0  0  0  0  0  0  0
   24.0275   -5.9010  -21.3029 O   0  0  0  0  0  0  0  0  0  0  0  0
   22.0947   -9.3846  -19.8148 C   0  0  0  0  0  0  0  0  0  0  0  0
   20.8763   -9.1315  -19.9272 O   0  0  0  0  0  0  0  0  0  0  0  0
   22.0903   -5.4475  -22.3945 O   0  0  0  0  0  0  0  0  0  0  0  0
   22.7705   -9.3092  -18.5910 N   0  0  0  0  0  0  0  0  0  0  0  0
   21.9801   -8.9955  -17.3544 C   0  0  1  0  0  0  0  0  0  0  0  0
   22.5882   -9.6959  -16.2086 C   0  0  0  0  0  0  0  0  0  0  0  0
   21.9651   -9.4084  -14.9290 C   0  0  0  0  0  0  0  0  0  0  0  0
   20.7787  -10.0343  -14.5260 C   0  0  0  0  0  0  0  0  0  0  0  0
   20.2367   -9.7905  -13.2863 C   0  0  0  0  0  0  0  0  0  0  0  0
   20.8144   -8.9319  -12.3790 C   0  0  0  0  0  0  0  0  0  0  0  0
   21.9808   -8.3131  -12.7689 C   0  0  0  0  0  0  0  0  0  0  0  0
   22.5351   -8.5495  -14.0113 C   0  0  0  0  0  0  0  0  0  0  0  0
   21.7824   -7.5548  -17.3191 C   0  0  0  0  0  0  0  0  0  0  0  0
   22.7198   -6.7702  -17.7364 O   0  0  0  0  0  0  0  0  0  0  0  0
   14.4669   -5.6532  -18.5930 O   0  0  0  0  0  0  0  0  0  0  0  0
   15.8362   -5.4760  -18.4796 C   0  0  0  0  0  0  0  0  0  0  0  0
   16.7082   -6.3089  -19.1431 C   0  0  0  0  0  0  0  0  0  0  0  0
   18.0818   -6.1282  -19.0270 C   0  0  0  0  0  0  0  0  0  0  0  0
   18.6252   -5.1285  -18.2588 C   0  0  0  0  0  0  0  0  0  0  0  0
   20.0567   -4.8604  -18.0671 C   0  0  0  0  0  0  0  0  0  0  0  0
   20.5358   -5.4461  -16.7804 C   0  0  2  0  0  0  0  0  0  0  0  0
   20.6350   -6.9049  -16.8716 N   0  0  0  0  0  0  0  0  0  0  0  0
   19.6468   -5.0877  -15.6951 C   0  0  0  0  0  0  0  0  0  0  0  0
   19.4419   -3.9024  -15.3820 O   0  0  0  0  0  0  0  0  0  0  0  0
   17.7082   -4.3040  -17.6013 C   0  0  0  0  0  0  0  0  0  0  0  0
   16.3558   -4.4646  -17.7022 C   0  0  0  0  0  0  0  0  0  0  0  0
   18.9826   -6.0511  -14.9602 O   0  0  0  0  0  0  0  0  0  0  0  0
  2  1  1  6
  2  3  1  0
  3  4  1  0
  4  5  1  0
  5  6  2  0
  5  9  1  0
  7  2  1  0
  7  8  2  0
 10  7  1  0
 11 10  1  0
 11 12  1  1
 12 13  1  0
 13 18  1  0
 13 14  2  0
 14 15  1  0
 15 16  2  0
 17 16  1  0
 18 17  2  0
 19 11  1  0
 20 19  2  0
 22 32  2  0
 22 21  1  0
 23 22  1  0
 24 25  1  0
 24 23  2  0
 25 31  2  0
 26 25  1  0
 27 26  1  6
 27 28  1  0
 28 19  1  0
 29 33  1  0
 29 27  1  0
 30 29  2  0
 31 32  1  0
M  END
$$$$
