YQS.pdb
     RDKit          3D

 28 28  0  0  1  0  0  0  0  0999 V2000
   23.4145  -21.5906   -6.4654 O   0  0  0  0  0  0  0  0  0  0  0  0
   23.9720  -21.1831   -7.6661 C   0  0  0  0  0  0  0  0  0  0  0  0
   25.3428  -20.9234   -7.7629 C   0  0  0  0  0  0  0  0  0  0  0  0
   25.8613  -20.5224   -8.9693 C   0  0  0  0  0  0  0  0  0  0  0  0
   25.0990  -20.3605  -10.1002 C   0  0  0  0  0  0  0  0  0  0  0  0
   25.6447  -19.9252  -11.3931 C   0  0  0  0  0  0  0  0  0  0  0  0
   25.6016  -21.1154  -12.3522 C   0  0  2  0  0  0  0  0  0  0  0  0
   26.8173  -21.8840  -12.2772 N   0  0  0  0  0  0  0  0  0  0  0  0
   25.4257  -20.5218  -13.7109 C   0  0  0  0  0  0  0  0  0  0  0  0
   26.4011  -19.9499  -14.2595 O   0  0  0  0  0  0  0  0  0  0  0  0
   23.7459  -20.6198   -9.9923 C   0  0  0  0  0  0  0  0  0  0  0  0
   23.2071  -21.0203   -8.8002 C   0  0  0  0  0  0  0  0  0  0  0  0
   25.5286  -20.4042  -18.8694 N   0  0  0  0  0  0  0  0  0  0  0  0
   26.3022  -21.2056  -17.9830 C   0  0  0  0  0  0  0  0  0  0  0  0
   27.4984  -21.4397  -18.2779 O   0  0  0  0  0  0  0  0  0  0  0  0
   25.6997  -21.7602  -16.7207 C   0  0  0  0  0  0  0  0  0  0  0  0
   24.2726  -21.3432  -16.5825 C   0  0  0  0  0  0  0  0  0  0  0  0
   24.0512  -20.1124  -15.7247 C   0  0  2  0  0  0  0  0  0  0  0  0
   24.1694  -20.6160  -14.3468 N   0  0  0  0  0  0  0  0  0  0  0  0
   22.7096  -19.5334  -15.8319 C   0  0  0  0  0  0  0  0  0  0  0  0
   21.9093  -19.5114  -14.8265 O   0  0  0  0  0  0  0  0  0  0  0  0
   21.4321  -16.0918  -17.1879 O   0  0  0  0  0  0  0  0  0  0  0  0
   20.7820  -16.9939  -16.3116 C   0  0  0  0  0  0  0  0  0  0  0  0
   20.8416  -18.3322  -17.0105 C   0  0  2  0  0  0  0  0  0  0  0  0
   22.1389  -18.9447  -16.9993 N   0  0  0  0  0  0  0  0  0  0  0  0
   20.4336  -18.1047  -18.4152 C   0  0  0  0  0  0  0  0  0  0  0  0
   19.1268  -17.6874  -18.7279 O   0  0  0  0  0  0  0  0  0  0  0  0
   21.2575  -18.2848  -19.3332 O   0  0  0  0  0  0  0  0  0  0  0  0
  2  1  1  0
  3  2  2  0
  4  3  1  0
  5  4  2  0
  5 11  1  0
  6  5  1  0
  7  6  1  0
  7  9  1  0
  7  8  1  6
  9 10  2  0
 11 12  2  0
 12  2  1  0
 14 13  1  0
 15 14  2  0
 16 14  1  0
 17 16  1  0
 18 17  1  6
 19  9  1  0
 19 18  1  0
 20 18  1  0
 20 21  2  0
 22 23  1  0
 24 23  1  1
 24 25  1  0
 25 20  1  0
 26 24  1  0
 26 27  1  0
 28 26  2  0
M  END
$$$$
