YQS.pdb
     RDKit          3D

 28 28  0  0  1  0  0  0  0  0999 V2000
   32.3575   -9.8182  -18.2956 O   0  0  0  0  0  0  0  0  0  0  0  0
   30.9840   -9.9773  -18.2129 C   0  0  0  0  0  0  0  0  0  0  0  0
   30.1843   -8.9795  -17.6464 C   0  0  0  0  0  0  0  0  0  0  0  0
   28.8262   -9.1705  -17.5821 C   0  0  0  0  0  0  0  0  0  0  0  0
   28.2019  -10.3011  -18.0494 C   0  0  0  0  0  0  0  0  0  0  0  0
   26.7502  -10.5163  -17.9781 C   0  0  0  0  0  0  0  0  0  0  0  0
   26.3759  -10.7521  -16.5143 C   0  0  2  0  0  0  0  0  0  0  0  0
   26.9897  -11.9539  -16.0110 N   0  0  0  0  0  0  0  0  0  0  0  0
   24.8871  -10.8640  -16.5001 C   0  0  0  0  0  0  0  0  0  0  0  0
   24.3589  -12.0034  -16.5470 O   0  0  0  0  0  0  0  0  0  0  0  0
   29.0022  -11.2802  -18.6067 C   0  0  0  0  0  0  0  0  0  0  0  0
   30.3580  -11.1115  -18.6812 C   0  0  0  0  0  0  0  0  0  0  0  0
   21.5867   -6.6632  -13.6289 N   0  0  0  0  0  0  0  0  0  0  0  0
   22.1767   -6.2923  -14.8702 C   0  0  0  0  0  0  0  0  0  0  0  0
   22.3743   -5.0751  -15.0985 O   0  0  0  0  0  0  0  0  0  0  0  0
   22.5549   -7.3356  -15.8862 C   0  0  0  0  0  0  0  0  0  0  0  0
   22.2464   -8.7072  -15.3829 C   0  0  0  0  0  0  0  0  0  0  0  0
   22.6480   -9.8316  -16.3177 C   0  0  2  0  0  0  0  0  0  0  0  0
   24.1082   -9.6889  -16.4352 N   0  0  0  0  0  0  0  0  0  0  0  0
   22.1170   -9.7068  -17.6775 C   0  0  0  0  0  0  0  0  0  0  0  0
   22.8974   -9.6569  -18.6974 O   0  0  0  0  0  0  0  0  0  0  0  0
   20.1203  -11.2189  -21.2525 O   0  0  0  0  0  0  0  0  0  0  0  0
   20.5787  -11.2363  -19.9132 C   0  0  0  0  0  0  0  0  0  0  0  0
   20.2672   -9.8598  -19.3734 C   0  0  2  0  0  0  0  0  0  0  0  0
   20.7388   -9.6307  -18.0381 N   0  0  0  0  0  0  0  0  0  0  0  0
   18.7944   -9.7118  -19.3912 C   0  0  0  0  0  0  0  0  0  0  0  0
   18.1460   -9.0825  -20.4697 O   0  0  0  0  0  0  0  0  0  0  0  0
   18.1194  -10.1498  -18.4391 O   0  0  0  0  0  0  0  0  0  0  0  0
  2  1  1  0
  3  2  2  0
  4  3  1  0
  5  4  2  0
  5 11  1  0
  6  5  1  0
  7  6  1  0
  7  9  1  0
  7  8  1  6
  9 10  2  0
 11 12  2  0
 12  2  1  0
 14 13  1  0
 15 14  2  0
 16 14  1  0
 17 16  1  0
 18 17  1  1
 19  9  1  0
 19 18  1  0
 20 18  1  0
 20 21  2  0
 22 23  1  0
 24 23  1  1
 24 25  1  0
 25 20  1  0
 26 24  1  0
 26 27  1  0
 28 26  2  0
M  END
$$$$
