YQS.pdb
     RDKit          3D

 28 28  0  0  1  0  0  0  0  0999 V2000
   21.6606  -13.9833  -21.5681 O   0  0  0  0  0  0  0  0  0  0  0  0
   21.5301  -15.1126  -20.7767 C   0  0  0  0  0  0  0  0  0  0  0  0
   20.6008  -15.1466  -19.7321 C   0  0  0  0  0  0  0  0  0  0  0  0
   20.4977  -16.2832  -18.9688 C   0  0  0  0  0  0  0  0  0  0  0  0
   21.2659  -17.4024  -19.1772 C   0  0  0  0  0  0  0  0  0  0  0  0
   21.1667  -18.6200  -18.3608 C   0  0  0  0  0  0  0  0  0  0  0  0
   21.7481  -18.3149  -16.9797 C   0  0  2  0  0  0  0  0  0  0  0  0
   23.1739  -18.1242  -17.0498 N   0  0  0  0  0  0  0  0  0  0  0  0
   21.4064  -19.4990  -16.1368 C   0  0  0  0  0  0  0  0  0  0  0  0
   22.2794  -20.3811  -15.9386 O   0  0  0  0  0  0  0  0  0  0  0  0
   22.1807  -17.3570  -20.2119 C   0  0  0  0  0  0  0  0  0  0  0  0
   22.3010  -16.2349  -20.9856 C   0  0  0  0  0  0  0  0  0  0  0  0
   20.8788  -19.1513  -10.8324 N   0  0  0  0  0  0  0  0  0  0  0  0
   20.5432  -18.2131  -11.8490 C   0  0  0  0  0  0  0  0  0  0  0  0
   20.5591  -16.9917  -11.5647 O   0  0  0  0  0  0  0  0  0  0  0  0
   20.1773  -18.6746  -13.2335 C   0  0  0  0  0  0  0  0  0  0  0  0
   20.1086  -20.1649  -13.2986 C   0  0  0  0  0  0  0  0  0  0  0  0
   19.8323  -20.7279  -14.6792 C   0  0  2  0  0  0  0  0  0  0  0  0
   20.1123  -19.6005  -15.5831 N   0  0  0  0  0  0  0  0  0  0  0  0
   18.4342  -21.0983  -14.9130 C   0  0  0  0  0  0  0  0  0  0  0  0
   17.5683  -20.2298  -15.2973 O   0  0  0  0  0  0  0  0  0  0  0  0
   14.7524  -24.2151  -15.2191 O   0  0  0  0  0  0  0  0  0  0  0  0
   16.1269  -24.1487  -14.8864 C   0  0  0  0  0  0  0  0  0  0  0  0
   16.4840  -22.6837  -14.9826 C   0  0  2  0  0  0  0  0  0  0  0  0
   17.8724  -22.4005  -14.7584 N   0  0  0  0  0  0  0  0  0  0  0  0
   15.6815  -21.9752  -13.9602 C   0  0  0  0  0  0  0  0  0  0  0  0
   14.2944  -21.8048  -14.1231 O   0  0  0  0  0  0  0  0  0  0  0  0
   16.2408  -21.5235  -12.9418 O   0  0  0  0  0  0  0  0  0  0  0  0
  2  1  1  0
  3  2  2  0
  4  3  1  0
  5  4  2  0
  5 11  1  0
  6  5  1  0
  7  6  1  0
  7  9  1  0
  7  8  1  6
  9 10  2  0
 11 12  2  0
 12  2  1  0
 14 13  1  0
 15 14  2  0
 16 14  1  0
 17 16  1  0
 18 17  1  1
 19  9  1  0
 19 18  1  0
 20 18  1  0
 20 21  2  0
 22 23  1  0
 24 23  1  1
 24 25  1  0
 25 20  1  0
 26 24  1  0
 26 27  1  0
 28 26  2  0
M  END
$$$$
