YQS.pdb
     RDKit          3D

 28 28  0  0  1  0  0  0  0  0999 V2000
   11.7895   -4.5167   -6.9152 O   0  0  0  0  0  0  0  0  0  0  0  0
   12.8106   -5.2824   -7.4534 C   0  0  0  0  0  0  0  0  0  0  0  0
   12.5259   -6.4645   -8.1444 C   0  0  0  0  0  0  0  0  0  0  0  0
   13.5631   -7.1978   -8.6657 C   0  0  0  0  0  0  0  0  0  0  0  0
   14.8808   -6.8299   -8.5449 C   0  0  0  0  0  0  0  0  0  0  0  0
   15.9968   -7.6123   -9.0936 C   0  0  0  0  0  0  0  0  0  0  0  0
   15.4743   -8.4130  -10.2871 C   0  0  2  0  0  0  0  0  0  0  0  0
   15.0535   -9.7295   -9.8819 N   0  0  0  0  0  0  0  0  0  0  0  0
   16.6177   -8.4867  -11.2445 C   0  0  0  0  0  0  0  0  0  0  0  0
   17.4583   -9.4130  -11.1232 O   0  0  0  0  0  0  0  0  0  0  0  0
   15.1498   -5.6602   -7.8599 C   0  0  0  0  0  0  0  0  0  0  0  0
   14.1323   -4.9134   -7.3317 C   0  0  0  0  0  0  0  0  0  0  0  0
   15.6926   -7.8890  -17.0451 N   0  0  0  0  0  0  0  0  0  0  0  0
   15.4769   -8.9595  -16.1318 C   0  0  0  0  0  0  0  0  0  0  0  0
   14.6994   -9.8846  -16.4673 O   0  0  0  0  0  0  0  0  0  0  0  0
   16.1650   -8.9819  -14.7940 C   0  0  0  0  0  0  0  0  0  0  0  0
   16.9771   -7.7453  -14.5908 C   0  0  0  0  0  0  0  0  0  0  0  0
   17.7610   -7.7068  -13.2932 C   0  0  2  0  0  0  0  0  0  0  0  0
   16.7283   -7.5152  -12.2621 N   0  0  0  0  0  0  0  0  0  0  0  0
   18.6733   -6.5670  -13.1710 C   0  0  0  0  0  0  0  0  0  0  0  0
   18.2692   -5.4331  -12.7209 O   0  0  0  0  0  0  0  0  0  0  0  0
   22.2786   -6.2205  -11.9239 O   0  0  0  0  0  0  0  0  0  0  0  0
   22.3010   -5.5683  -13.1802 C   0  0  0  0  0  0  0  0  0  0  0  0
   20.8484   -5.3615  -13.5414 C   0  0  2  0  0  0  0  0  0  0  0  0
   20.0585   -6.5587  -13.5122 N   0  0  0  0  0  0  0  0  0  0  0  0
   20.8192   -4.8039  -14.9124 C   0  0  0  0  0  0  0  0  0  0  0  0
   21.3135   -3.5134  -15.1766 O   0  0  0  0  0  0  0  0  0  0  0  0
   20.3508   -5.4855  -15.8450 O   0  0  0  0  0  0  0  0  0  0  0  0
  2  1  1  0
  3  2  2  0
  4  3  1  0
  5  4  2  0
  5 11  1  0
  6  5  1  0
  7  6  1  0
  7  9  1  0
  7  8  1  1
  9 10  2  0
 11 12  2  0
 12  2  1  0
 14 13  1  0
 15 14  2  0
 16 14  1  0
 17 16  1  0
 18 17  1  6
 19  9  1  0
 19 18  1  0
 20 18  1  0
 20 21  2  0
 22 23  1  0
 24 23  1  6
 24 25  1  0
 25 20  1  0
 26 24  1  0
 26 27  1  0
 28 26  2  0
M  END
$$$$
