YQS.pdb
     RDKit          3D

 28 28  0  0  1  0  0  0  0  0999 V2000
   28.5137  -19.9867   -6.1447 O   0  0  0  0  0  0  0  0  0  0  0  0
   27.9598  -20.0700   -7.4115 C   0  0  0  0  0  0  0  0  0  0  0  0
   28.7199  -20.5281   -8.4924 C   0  0  0  0  0  0  0  0  0  0  0  0
   28.1378  -20.5987   -9.7339 C   0  0  0  0  0  0  0  0  0  0  0  0
   26.8343  -20.2403   -9.9759 C   0  0  0  0  0  0  0  0  0  0  0  0
   26.2059  -20.3063  -11.3024 C   0  0  0  0  0  0  0  0  0  0  0  0
   25.5789  -21.6918  -11.4629 C   0  0  2  0  0  0  0  0  0  0  0  0
   26.5924  -22.7126  -11.5341 N   0  0  0  0  0  0  0  0  0  0  0  0
   24.7943  -21.6259  -12.7315 C   0  0  0  0  0  0  0  0  0  0  0  0
   24.7122  -22.6511  -13.4538 O   0  0  0  0  0  0  0  0  0  0  0  0
   26.0932  -19.7889   -8.9003 C   0  0  0  0  0  0  0  0  0  0  0  0
   26.6524  -19.7099   -7.6541 C   0  0  0  0  0  0  0  0  0  0  0  0
   21.1397  -23.6377  -12.9290 N   0  0  0  0  0  0  0  0  0  0  0  0
   20.1497  -22.6149  -12.9441 C   0  0  0  0  0  0  0  0  0  0  0  0
   18.9574  -22.9396  -13.1581 O   0  0  0  0  0  0  0  0  0  0  0  0
   20.5237  -21.1766  -12.7093 C   0  0  0  0  0  0  0  0  0  0  0  0
   21.9881  -21.0413  -12.4502 C   0  0  0  0  0  0  0  0  0  0  0  0
   22.7882  -20.4776  -13.6085 C   0  0  2  0  0  0  0  0  0  0  0  0
   24.1643  -20.4151  -13.0901 N   0  0  0  0  0  0  0  0  0  0  0  0
   22.4313  -19.1060  -13.9797 C   0  0  0  0  0  0  0  0  0  0  0  0
   22.0966  -18.2393  -13.0918 O   0  0  0  0  0  0  0  0  0  0  0  0
   22.4298  -17.8713  -17.7855 O   0  0  0  0  0  0  0  0  0  0  0  0
   22.5138  -16.7305  -16.9513 C   0  0  0  0  0  0  0  0  0  0  0  0
   22.0701  -17.2074  -15.5879 C   0  0  2  0  0  0  0  0  0  0  0  0
   22.4098  -18.5716  -15.3023 N   0  0  0  0  0  0  0  0  0  0  0  0
   20.5978  -17.0618  -15.5371 C   0  0  0  0  0  0  0  0  0  0  0  0
   19.9933  -15.7983  -15.6706 O   0  0  0  0  0  0  0  0  0  0  0  0
   19.8839  -18.0706  -15.3742 O   0  0  0  0  0  0  0  0  0  0  0  0
  2  1  1  0
  3  2  2  0
  4  3  1  0
  5  4  2  0
  5 11  1  0
  6  5  1  0
  7  6  1  0
  7  9  1  0
  7  8  1  6
  9 10  2  0
 11 12  2  0
 12  2  1  0
 14 13  1  0
 15 14  2  0
 16 14  1  0
 17 16  1  0
 18 17  1  1
 19  9  1  0
 19 18  1  0
 20 18  1  0
 20 21  2  0
 22 23  1  0
 24 23  1  6
 24 25  1  0
 25 20  1  0
 26 24  1  0
 26 27  1  0
 28 26  2  0
M  END
$$$$
