YQS.pdb
     RDKit          3D

 28 28  0  0  1  0  0  0  0  0999 V2000
   27.4959  -11.0936  -16.1534 O   0  0  0  0  0  0  0  0  0  0  0  0
   26.2466  -10.5076  -16.0327 C   0  0  0  0  0  0  0  0  0  0  0  0
   25.3292  -10.5631  -17.0869 C   0  0  0  0  0  0  0  0  0  0  0  0
   24.0995   -9.9724  -16.9318 C   0  0  0  0  0  0  0  0  0  0  0  0
   23.7158   -9.3222  -15.7844 C   0  0  0  0  0  0  0  0  0  0  0  0
   22.4047   -8.6816  -15.6129 C   0  0  0  0  0  0  0  0  0  0  0  0
   21.5696   -9.5523  -14.6732 C   0  0  2  0  0  0  0  0  0  0  0  0
   21.4535  -10.8955  -15.1799 N   0  0  0  0  0  0  0  0  0  0  0  0
   20.2339   -8.8888  -14.6024 C   0  0  0  0  0  0  0  0  0  0  0  0
   19.3448   -9.2141  -15.4289 O   0  0  0  0  0  0  0  0  0  0  0  0
   24.6307   -9.2736  -14.7498 C   0  0  0  0  0  0  0  0  0  0  0  0
   25.8621   -9.8551  -14.8820 C   0  0  0  0  0  0  0  0  0  0  0  0
   17.6377   -7.0151   -9.4867 N   0  0  0  0  0  0  0  0  0  0  0  0
   17.3116   -8.2076  -10.1923 C   0  0  0  0  0  0  0  0  0  0  0  0
   16.7381   -9.1331   -9.5699 O   0  0  0  0  0  0  0  0  0  0  0  0
   17.6468   -8.3560  -11.6515 C   0  0  0  0  0  0  0  0  0  0  0  0
   18.3114   -7.1252  -12.1743 C   0  0  0  0  0  0  0  0  0  0  0  0
   18.7168   -7.1939  -13.6339 C   0  0  2  0  0  0  0  0  0  0  0  0
   20.0012   -7.9124  -13.6105 N   0  0  0  0  0  0  0  0  0  0  0  0
   18.9907   -5.8922  -14.2478 C   0  0  0  0  0  0  0  0  0  0  0  0
   20.1916   -5.4513  -14.3713 O   0  0  0  0  0  0  0  0  0  0  0  0
   19.4710   -2.7175  -17.2142 O   0  0  0  0  0  0  0  0  0  0  0  0
   19.2389   -4.0096  -16.6843 C   0  0  0  0  0  0  0  0  0  0  0  0
   18.3670   -3.7857  -15.4707 C   0  0  2  0  0  0  0  0  0  0  0  0
   18.0185   -4.9862  -14.7669 N   0  0  0  0  0  0  0  0  0  0  0  0
   17.1257   -3.1332  -15.9448 C   0  0  0  0  0  0  0  0  0  0  0  0
   17.0742   -1.7417  -16.1462 O   0  0  0  0  0  0  0  0  0  0  0  0
   16.1128   -3.8245  -16.1686 O   0  0  0  0  0  0  0  0  0  0  0  0
  2  1  1  0
  3  2  2  0
  4  3  1  0
  5  4  2  0
  5 11  1  0
  6  5  1  0
  7  6  1  0
  7  9  1  0
  7  8  1  6
  9 10  2  0
 11 12  2  0
 12  2  1  0
 14 13  1  0
 15 14  2  0
 16 14  1  0
 17 16  1  0
 18 17  1  1
 19  9  1  0
 19 18  1  0
 20 18  1  0
 20 21  2  0
 22 23  1  0
 24 23  1  6
 24 25  1  0
 25 20  1  0
 26 24  1  0
 26 27  1  0
 28 26  2  0
M  END
$$$$
