YQS.pdb
     RDKit          3D

 28 28  0  0  1  0  0  0  0  0999 V2000
   29.0056  -27.9846  -17.2560 O   0  0  0  0  0  0  0  0  0  0  0  0
   28.6663  -26.7036  -16.8528 C   0  0  0  0  0  0  0  0  0  0  0  0
   29.6459  -25.7131  -16.7290 C   0  0  0  0  0  0  0  0  0  0  0  0
   29.2733  -24.4540  -16.3281 C   0  0  0  0  0  0  0  0  0  0  0  0
   27.9757  -24.1090  -16.0386 C   0  0  0  0  0  0  0  0  0  0  0  0
   27.5696  -22.7660  -15.6024 C   0  0  0  0  0  0  0  0  0  0  0  0
   27.1922  -21.9569  -16.8439 C   0  0  2  0  0  0  0  0  0  0  0  0
   28.3674  -21.4877  -17.5319 N   0  0  0  0  0  0  0  0  0  0  0  0
   26.3754  -20.8142  -16.3375 C   0  0  0  0  0  0  0  0  0  0  0  0
   26.9593  -19.7831  -15.9188 O   0  0  0  0  0  0  0  0  0  0  0  0
   27.0167  -25.0960  -16.1642 C   0  0  0  0  0  0  0  0  0  0  0  0
   27.3649  -26.3580  -16.5621 C   0  0  0  0  0  0  0  0  0  0  0  0
   22.7779  -18.0359  -19.5635 N   0  0  0  0  0  0  0  0  0  0  0  0
   22.4375  -17.3597  -18.3580 C   0  0  0  0  0  0  0  0  0  0  0  0
   21.7580  -16.3083  -18.4333 O   0  0  0  0  0  0  0  0  0  0  0  0
   22.8825  -17.8926  -17.0232 C   0  0  0  0  0  0  0  0  0  0  0  0
   23.7748  -19.0780  -17.1923 C   0  0  0  0  0  0  0  0  0  0  0  0
   24.1863  -19.7525  -15.8980 C   0  0  2  0  0  0  0  0  0  0  0  0
   24.9680  -20.9186  -16.3402 N   0  0  0  0  0  0  0  0  0  0  0  0
   23.0707  -20.2857  -15.1121 C   0  0  0  0  0  0  0  0  0  0  0  0
   22.5962  -21.4588  -15.3365 O   0  0  0  0  0  0  0  0  0  0  0  0
   19.8139  -20.1432  -11.5386 O   0  0  0  0  0  0  0  0  0  0  0  0
   20.7850  -19.3457  -12.1906 C   0  0  0  0  0  0  0  0  0  0  0  0
   21.3446  -20.2244  -13.2850 C   0  0  2  0  0  0  0  0  0  0  0  0
   22.3966  -19.6164  -14.0477 N   0  0  0  0  0  0  0  0  0  0  0  0
   20.2227  -20.5495  -14.1943 C   0  0  0  0  0  0  0  0  0  0  0  0
   19.4584  -21.7160  -14.0079 O   0  0  0  0  0  0  0  0  0  0  0  0
   19.9509  -19.7808  -15.1372 O   0  0  0  0  0  0  0  0  0  0  0  0
  2  1  1  0
  3  2  2  0
  4  3  1  0
  5  4  2  0
  5 11  1  0
  6  5  1  0
  7  6  1  0
  7  9  1  0
  7  8  1  1
  9 10  2  0
 11 12  2  0
 12  2  1  0
 14 13  1  0
 15 14  2  0
 16 14  1  0
 17 16  1  0
 18 17  1  6
 19  9  1  0
 19 18  1  0
 20 18  1  0
 20 21  2  0
 22 23  1  0
 24 23  1  1
 24 25  1  0
 25 20  1  0
 26 24  1  0
 26 27  1  0
 28 26  2  0
M  END
$$$$
