YQS.pdb
     RDKit          3D

 28 28  0  0  1  0  0  0  0  0999 V2000
   21.3463   -1.5066  -14.4300 O   0  0  0  0  0  0  0  0  0  0  0  0
   21.1052   -2.8593  -14.2549 C   0  0  0  0  0  0  0  0  0  0  0  0
   19.8361   -3.3141  -13.8826 C   0  0  0  0  0  0  0  0  0  0  0  0
   19.6328   -4.6621  -13.7191 C   0  0  0  0  0  0  0  0  0  0  0  0
   20.6189   -5.6001  -13.9035 C   0  0  0  0  0  0  0  0  0  0  0  0
   20.4115   -7.0435  -13.7239 C   0  0  0  0  0  0  0  0  0  0  0  0
   20.4274   -7.3431  -12.2243 C   0  0  2  0  0  0  0  0  0  0  0  0
   21.2147   -8.5150  -11.9397 N   0  0  0  0  0  0  0  0  0  0  0  0
   18.9978   -7.5533  -11.8482 C   0  0  0  0  0  0  0  0  0  0  0  0
   18.4332   -8.6296  -12.1679 O   0  0  0  0  0  0  0  0  0  0  0  0
   21.8688   -5.1389  -14.2709 C   0  0  0  0  0  0  0  0  0  0  0  0
   22.0945   -3.8000  -14.4393 C   0  0  0  0  0  0  0  0  0  0  0  0
   15.8288   -8.1073   -7.9215 N   0  0  0  0  0  0  0  0  0  0  0  0
   14.9043   -7.0597   -8.1942 C   0  0  0  0  0  0  0  0  0  0  0  0
   13.7497   -7.1401   -7.7113 O   0  0  0  0  0  0  0  0  0  0  0  0
   15.3018   -5.8823   -9.0424 C   0  0  0  0  0  0  0  0  0  0  0  0
   16.7182   -6.0070   -9.4985 C   0  0  0  0  0  0  0  0  0  0  0  0
   16.9023   -6.7684  -10.7970 C   0  0  2  0  0  0  0  0  0  0  0  0
   18.3143   -6.5394  -11.1438 N   0  0  0  0  0  0  0  0  0  0  0  0
   16.1186   -6.2479  -11.9200 C   0  0  0  0  0  0  0  0  0  0  0  0
   16.2897   -5.0511  -12.3561 O   0  0  0  0  0  0  0  0  0  0  0  0
   14.0431   -8.5591  -14.4816 O   0  0  0  0  0  0  0  0  0  0  0  0
   14.3316   -7.2627  -14.9721 C   0  0  0  0  0  0  0  0  0  0  0  0
   14.3944   -6.3834  -13.7450 C   0  0  2  0  0  0  0  0  0  0  0  0
   15.1162   -6.9574  -12.6460 N   0  0  0  0  0  0  0  0  0  0  0  0
   12.9984   -6.1336  -13.3204 C   0  0  0  0  0  0  0  0  0  0  0  0
   12.0819   -5.5105  -14.1872 O   0  0  0  0  0  0  0  0  0  0  0  0
   12.6295   -6.4792  -12.1810 O   0  0  0  0  0  0  0  0  0  0  0  0
  2  1  1  0
  3  2  2  0
  4  3  1  0
  5  4  2  0
  5 11  1  0
  6  5  1  0
  7  6  1  0
  7  9  1  0
  7  8  1  6
  9 10  2  0
 11 12  2  0
 12  2  1  0
 14 13  1  0
 15 14  2  0
 16 14  1  0
 17 16  1  0
 18 17  1  1
 19  9  1  0
 19 18  1  0
 20 18  1  0
 20 21  2  0
 22 23  1  0
 24 23  1  6
 24 25  1  0
 25 20  1  0
 26 24  1  0
 26 27  1  0
 28 26  2  0
M  END
$$$$
