YQS.pdb
     RDKit          3D

 28 28  0  0  1  0  0  0  0  0999 V2000
   27.9181  -19.6222   -6.0139 O   0  0  0  0  0  0  0  0  0  0  0  0
   27.3313  -20.0156   -7.2053 C   0  0  0  0  0  0  0  0  0  0  0  0
   28.0820  -20.0734   -8.3839 C   0  0  0  0  0  0  0  0  0  0  0  0
   27.4678  -20.4689   -9.5464 C   0  0  0  0  0  0  0  0  0  0  0  0
   26.1407  -20.8155   -9.6166 C   0  0  0  0  0  0  0  0  0  0  0  0
   25.4742  -21.2332  -10.8577 C   0  0  0  0  0  0  0  0  0  0  0  0
   24.4881  -20.1358  -11.2601 C   0  0  2  0  0  0  0  0  0  0  0  0
   23.1812  -20.3881  -10.7096 N   0  0  0  0  0  0  0  0  0  0  0  0
   24.4553  -20.1619  -12.7526 C   0  0  0  0  0  0  0  0  0  0  0  0
   23.4923  -20.7229  -13.3335 O   0  0  0  0  0  0  0  0  0  0  0  0
   25.4090  -20.7543   -8.4459 C   0  0  0  0  0  0  0  0  0  0  0  0
   26.0000  -20.3628   -7.2757 C   0  0  0  0  0  0  0  0  0  0  0  0
   27.1189  -15.3000  -15.1608 N   0  0  0  0  0  0  0  0  0  0  0  0
   26.5358  -15.8323  -16.3453 C   0  0  0  0  0  0  0  0  0  0  0  0
   26.6209  -15.1672  -17.4051 O   0  0  0  0  0  0  0  0  0  0  0  0
   25.8326  -17.1624  -16.3277 C   0  0  0  0  0  0  0  0  0  0  0  0
   25.9033  -17.7856  -14.9725 C   0  0  0  0  0  0  0  0  0  0  0  0
   25.2433  -19.1466  -14.8646 C   0  0  2  0  0  0  0  0  0  0  0  0
   25.5055  -19.5572  -13.4757 N   0  0  0  0  0  0  0  0  0  0  0  0
   25.8431  -20.1790  -15.7135 C   0  0  0  0  0  0  0  0  0  0  0  0
   26.3431  -21.2505  -15.2099 O   0  0  0  0  0  0  0  0  0  0  0  0
   23.7341  -22.5429  -18.7442 O   0  0  0  0  0  0  0  0  0  0  0  0
   23.9950  -21.4950  -17.8288 C   0  0  0  0  0  0  0  0  0  0  0  0
   25.4687  -21.1979  -17.9814 C   0  0  2  0  0  0  0  0  0  0  0  0
   25.9468  -20.1422  -17.1358 N   0  0  0  0  0  0  0  0  0  0  0  0
   25.6881  -20.8141  -19.3941 C   0  0  0  0  0  0  0  0  0  0  0  0
   25.4171  -19.5062  -19.8363 O   0  0  0  0  0  0  0  0  0  0  0  0
   26.1183  -21.6596  -20.2028 O   0  0  0  0  0  0  0  0  0  0  0  0
  2  1  1  0
  3  2  2  0
  4  3  1  0
  5  4  2  0
  5 11  1  0
  6  5  1  0
  7  6  1  0
  7  9  1  0
  7  8  1  1
  9 10  2  0
 11 12  2  0
 12  2  1  0
 14 13  1  0
 15 14  2  0
 16 14  1  0
 17 16  1  0
 18 17  1  6
 19  9  1  0
 19 18  1  0
 20 18  1  0
 20 21  2  0
 22 23  1  0
 24 23  1  6
 24 25  1  0
 25 20  1  0
 26 24  1  0
 26 27  1  0
 28 26  2  0
M  END
$$$$
