YQS.pdb
     RDKit          3D

 28 28  0  0  1  0  0  0  0  0999 V2000
   19.4750  -17.9268  -15.9333 O   0  0  0  0  0  0  0  0  0  0  0  0
   19.5355  -16.5709  -16.2099 C   0  0  0  0  0  0  0  0  0  0  0  0
   19.4229  -15.6289  -15.1823 C   0  0  0  0  0  0  0  0  0  0  0  0
   19.4886  -14.2931  -15.4928 C   0  0  0  0  0  0  0  0  0  0  0  0
   19.6613  -13.8251  -16.7725 C   0  0  0  0  0  0  0  0  0  0  0  0
   19.7258  -12.3976  -17.1141 C   0  0  0  0  0  0  0  0  0  0  0  0
   18.3181  -11.8142  -16.9862 C   0  0  2  0  0  0  0  0  0  0  0  0
   17.4063  -12.4603  -17.8950 N   0  0  0  0  0  0  0  0  0  0  0  0
   18.4604  -10.3637  -17.3107 C   0  0  0  0  0  0  0  0  0  0  0  0
   17.8558   -9.8981  -18.3092 O   0  0  0  0  0  0  0  0  0  0  0  0
   19.7711  -14.7652  -17.7795 C   0  0  0  0  0  0  0  0  0  0  0  0
   19.7083  -16.1017  -17.4935 C   0  0  0  0  0  0  0  0  0  0  0  0
   15.9168   -6.6960  -14.8370 N   0  0  0  0  0  0  0  0  0  0  0  0
   16.5803   -5.7474  -15.6655 C   0  0  0  0  0  0  0  0  0  0  0  0
   16.2359   -4.5438  -15.5909 O   0  0  0  0  0  0  0  0  0  0  0  0
   17.6698   -6.1774  -16.6098 C   0  0  0  0  0  0  0  0  0  0  0  0
   17.8764   -7.6550  -16.5489 C   0  0  0  0  0  0  0  0  0  0  0  0
   19.3078   -8.1054  -16.7682 C   0  0  2  0  0  0  0  0  0  0  0  0
   19.2702   -9.5502  -16.4898 N   0  0  0  0  0  0  0  0  0  0  0  0
   20.2729   -7.5349  -15.8251 C   0  0  0  0  0  0  0  0  0  0  0  0
   20.2843   -7.8836  -14.5881 O   0  0  0  0  0  0  0  0  0  0  0  0
   23.9472   -5.8339  -16.5694 O   0  0  0  0  0  0  0  0  0  0  0  0
   23.1728   -5.0429  -15.6870 C   0  0  0  0  0  0  0  0  0  0  0  0
   22.1254   -5.9815  -15.1346 C   0  0  2  0  0  0  0  0  0  0  0  0
   21.2786   -6.5706  -16.1316 N   0  0  0  0  0  0  0  0  0  0  0  0
   21.2878   -5.1939  -14.2021 C   0  0  0  0  0  0  0  0  0  0  0  0
   21.6002   -5.1290  -12.8318 O   0  0  0  0  0  0  0  0  0  0  0  0
   20.2932   -4.5801  -14.6356 O   0  0  0  0  0  0  0  0  0  0  0  0
  2  1  1  0
  3  2  2  0
  4  3  1  0
  5  4  2  0
  5 11  1  0
  6  5  1  0
  7  6  1  0
  7  9  1  0
  7  8  1  6
  9 10  2  0
 11 12  2  0
 12  2  1  0
 14 13  1  0
 15 14  2  0
 16 14  1  0
 17 16  1  0
 18 17  1  1
 19  9  1  0
 19 18  1  0
 20 18  1  0
 20 21  2  0
 22 23  1  0
 24 23  1  6
 24 25  1  0
 25 20  1  0
 26 24  1  0
 26 27  1  0
 28 26  2  0
M  END
$$$$
