YQS.pdb
     RDKit          3D

 28 28  0  0  1  0  0  0  0  0999 V2000
   29.2522  -19.9731   -4.9192 O   0  0  0  0  0  0  0  0  0  0  0  0
   28.7561  -19.9491   -6.2122 C   0  0  0  0  0  0  0  0  0  0  0  0
   29.4839  -20.5136   -7.2647 C   0  0  0  0  0  0  0  0  0  0  0  0
   28.9609  -20.4728   -8.5335 C   0  0  0  0  0  0  0  0  0  0  0  0
   27.7476  -19.9016   -8.8299 C   0  0  0  0  0  0  0  0  0  0  0  0
   27.1840  -19.8477  -10.1857 C   0  0  0  0  0  0  0  0  0  0  0  0
   26.0013  -20.8151  -10.2476 C   0  0  2  0  0  0  0  0  0  0  0  0
   26.4474  -22.1616  -10.4973 N   0  0  0  0  0  0  0  0  0  0  0  0
   25.1431  -20.3190  -11.3642 C   0  0  0  0  0  0  0  0  0  0  0  0
   25.3829  -19.1918  -11.8656 O   0  0  0  0  0  0  0  0  0  0  0  0
   27.0377  -19.3469   -7.7820 C   0  0  0  0  0  0  0  0  0  0  0  0
   27.5393  -19.3757   -6.5093 C   0  0  0  0  0  0  0  0  0  0  0  0
   25.4023  -21.0568  -16.5883 N   0  0  0  0  0  0  0  0  0  0  0  0
   25.2893  -22.2075  -15.7580 C   0  0  0  0  0  0  0  0  0  0  0  0
   25.7986  -23.2830  -16.1538 O   0  0  0  0  0  0  0  0  0  0  0  0
   24.5752  -22.1367  -14.4356 C   0  0  0  0  0  0  0  0  0  0  0  0
   24.1142  -20.7450  -14.1518 C   0  0  0  0  0  0  0  0  0  0  0  0
   23.2422  -20.6042  -12.9191 C   0  0  2  0  0  0  0  0  0  0  0  0
   24.0833  -21.1261  -11.8298 N   0  0  0  0  0  0  0  0  0  0  0  0
   22.0351  -21.4343  -12.9337 C   0  0  0  0  0  0  0  0  0  0  0  0
   22.0891  -22.6959  -12.6946 O   0  0  0  0  0  0  0  0  0  0  0  0
   18.3916  -19.8376  -12.9288 O   0  0  0  0  0  0  0  0  0  0  0  0
   18.3453  -21.1832  -12.4910 C   0  0  0  0  0  0  0  0  0  0  0  0
   19.5596  -21.8386  -13.1068 C   0  0  2  0  0  0  0  0  0  0  0  0
   20.7077  -20.9831  -13.1973 N   0  0  0  0  0  0  0  0  0  0  0  0
   19.1748  -22.2665  -14.4706 C   0  0  0  0  0  0  0  0  0  0  0  0
   18.1628  -23.2240  -14.6672 O   0  0  0  0  0  0  0  0  0  0  0  0
   19.7542  -21.7730  -15.4579 O   0  0  0  0  0  0  0  0  0  0  0  0
  2  1  1  0
  3  2  2  0
  4  3  1  0
  5  4  2  0
  5 11  1  0
  6  5  1  0
  7  6  1  0
  7  9  1  0
  7  8  1  6
  9 10  2  0
 11 12  2  0
 12  2  1  0
 14 13  1  0
 15 14  2  0
 16 14  1  0
 17 16  1  0
 18 17  1  6
 19  9  1  0
 19 18  1  0
 20 18  1  0
 20 21  2  0
 22 23  1  0
 24 23  1  6
 24 25  1  0
 25 20  1  0
 26 24  1  0
 26 27  1  0
 28 26  2  0
M  END
$$$$
