QDF.pdb
     RDKit          3D

 29 29  0  0  1  0  0  0  0  0999 V2000
   17.7571  -11.5207  -21.8981 N   0  0  0  0  0  0  0  0  0  0  0  0
   16.8317  -12.2181  -21.0652 C   0  0  0  0  0  0  0  0  0  0  0  0
   16.3460  -13.2660  -21.5467 O   0  0  0  0  0  0  0  0  0  0  0  0
   16.4518  -11.7660  -19.7364 C   0  0  0  0  0  0  0  0  0  0  0  0
   17.0806  -10.5372  -19.2068 C   0  0  0  0  0  0  0  0  0  0  0  0
   17.0521  -10.3553  -17.7146 C   0  0  2  0  0  0  0  0  0  0  0  0
   15.7616  -10.3751  -17.1061 N   0  0  0  0  0  0  0  0  0  0  0  0
   17.8200   -9.1063  -17.4314 C   0  0  0  0  0  0  0  0  0  0  0  0
   18.9397   -8.9574  -18.0009 O   0  0  0  0  0  0  0  0  0  0  0  0
   17.3998   -8.0707  -16.5753 N   0  0  0  0  0  0  0  0  0  0  0  0
   18.2000   -6.8865  -16.3139 C   0  0  1  0  0  0  0  0  0  0  0  0
   17.4521   -5.8752  -15.4896 C   0  0  0  0  0  0  0  0  0  0  0  0
   16.2696   -5.3050  -16.1724 C   0  0  0  0  0  0  0  0  0  0  0  0
   16.1341   -5.1873  -17.4124 O   0  0  0  0  0  0  0  0  0  0  0  0
   19.4134   -7.2763  -15.5722 C   0  0  0  0  0  0  0  0  0  0  0  0
   19.4286   -8.3364  -14.9050 O   0  0  0  0  0  0  0  0  0  0  0  0
   15.2292   -4.8666  -15.3657 O   0  0  0  0  0  0  0  0  0  0  0  0
   20.5651   -6.4654  -15.6046 N   0  0  0  0  0  0  0  0  0  0  0  0
   21.7882   -6.9345  -14.9592 C   0  0  1  0  0  0  0  0  0  0  0  0
   22.2194   -8.1581  -15.6963 C   0  0  0  0  0  0  0  0  0  0  0  0
   23.5409   -8.6731  -15.2955 C   0  0  0  0  0  0  0  0  0  0  0  0
   23.6439   -9.4700  -14.1944 C   0  0  0  0  0  0  0  0  0  0  0  0
   24.8836   -9.9488  -13.8310 C   0  0  0  0  0  0  0  0  0  0  0  0
   26.0074   -9.6454  -14.5446 C   0  0  0  0  0  0  0  0  0  0  0  0
   25.8950   -8.8367  -15.6600 C   0  0  0  0  0  0  0  0  0  0  0  0
   24.6664   -8.3524  -16.0340 C   0  0  0  0  0  0  0  0  0  0  0  0
   22.7873   -5.8660  -14.9689 C   0  0  0  0  0  0  0  0  0  0  0  0
   23.6855   -5.6430  -13.9486 O   0  0  0  0  0  0  0  0  0  0  0  0
   22.8688   -5.0667  -15.9619 O   0  0  0  0  0  0  0  0  0  0  0  0
  2  3  2  0
  2  1  1  0
  4  2  1  0
  5  4  1  0
  5  6  1  0
  6  8  1  0
  6  7  1  6
  8  9  2  0
 10 11  1  0
 10  8  1  0
 11 12  1  1
 13 12  1  0
 14 13  2  0
 15 11  1  0
 15 16  2  0
 17 13  1  0
 18 15  1  0
 19 18  1  0
 19 27  1  0
 19 20  1  6
 21 20  1  0
 22 21  2  0
 23 22  1  0
 24 23  2  0
 24 25  1  0
 25 26  2  0
 26 21  1  0
 27 28  1  0
 29 27  2  0
M  END
$$$$
