QDF.pdb
     RDKit          3D

 29 29  0  0  1  0  0  0  0  0999 V2000
   12.5303  -11.8103  -15.7084 N   0  0  0  0  0  0  0  0  0  0  0  0
   12.6269  -13.1977  -15.3884 C   0  0  0  0  0  0  0  0  0  0  0  0
   11.5596  -13.7549  -15.0474 O   0  0  0  0  0  0  0  0  0  0  0  0
   13.8719  -13.9471  -15.4412 C   0  0  0  0  0  0  0  0  0  0  0  0
   15.1104  -13.2257  -15.8035 C   0  0  0  0  0  0  0  0  0  0  0  0
   15.5644  -13.3421  -17.2320 C   0  0  2  0  0  0  0  0  0  0  0  0
   16.1100  -14.6038  -17.6147 N   0  0  0  0  0  0  0  0  0  0  0  0
   16.4957  -12.1991  -17.4688 C   0  0  0  0  0  0  0  0  0  0  0  0
   17.7353  -12.4461  -17.5213 O   0  0  0  0  0  0  0  0  0  0  0  0
   16.1076  -10.8567  -17.6396 N   0  0  0  0  0  0  0  0  0  0  0  0
   17.0532   -9.7883  -17.9141 C   0  0  1  0  0  0  0  0  0  0  0  0
   16.4249   -8.6723  -18.7022 C   0  0  0  0  0  0  0  0  0  0  0  0
   17.3605   -7.5751  -19.0344 C   0  0  0  0  0  0  0  0  0  0  0  0
   17.2360   -6.3813  -18.6750 O   0  0  0  0  0  0  0  0  0  0  0  0
   17.5390   -9.2322  -16.6377 C   0  0  0  0  0  0  0  0  0  0  0  0
   16.7969   -9.2339  -15.6286 O   0  0  0  0  0  0  0  0  0  0  0  0
   18.4645   -7.9036  -19.8081 O   0  0  0  0  0  0  0  0  0  0  0  0
   18.8374   -8.6946  -16.5379 N   0  0  0  0  0  0  0  0  0  0  0  0
   19.3121   -8.2072  -15.2457 C   0  0  1  0  0  0  0  0  0  0  0  0
   20.7506   -8.5902  -15.1455 C   0  0  0  0  0  0  0  0  0  0  0  0
   21.4265   -8.0962  -13.9325 C   0  0  0  0  0  0  0  0  0  0  0  0
   21.9449   -6.8355  -13.9205 C   0  0  0  0  0  0  0  0  0  0  0  0
   22.5714   -6.3826  -12.7801 C   0  0  0  0  0  0  0  0  0  0  0  0
   22.6851   -7.1632  -11.6657 C   0  0  0  0  0  0  0  0  0  0  0  0
   22.1569   -8.4405  -11.6855 C   0  0  0  0  0  0  0  0  0  0  0  0
   21.5299   -8.9051  -12.8146 C   0  0  0  0  0  0  0  0  0  0  0  0
   19.0852   -6.7650  -15.1533 C   0  0  0  0  0  0  0  0  0  0  0  0
   19.0348   -5.9226  -16.2420 O   0  0  0  0  0  0  0  0  0  0  0  0
   18.9188   -6.2088  -14.0156 O   0  0  0  0  0  0  0  0  0  0  0  0
  2  3  2  0
  2  1  1  0
  4  2  1  0
  5  4  1  0
  5  6  1  0
  6  8  1  0
  6  7  1  1
  8  9  2  0
 10 11  1  0
 10  8  1  0
 11 12  1  6
 13 12  1  0
 14 13  2  0
 15 11  1  0
 15 16  2  0
 17 13  1  0
 18 15  1  0
 19 18  1  0
 19 27  1  0
 19 20  1  6
 21 20  1  0
 22 21  2  0
 23 22  1  0
 24 23  2  0
 24 25  1  0
 25 26  2  0
 26 21  1  0
 27 28  1  0
 29 27  2  0
M  END
$$$$
