QDF.pdb
     RDKit          3D

 29 29  0  0  1  0  0  0  0  0999 V2000
   17.1679  -10.0715  -14.8328 N   0  0  0  0  0  0  0  0  0  0  0  0
   17.9525  -11.2346  -14.5715 C   0  0  0  0  0  0  0  0  0  0  0  0
   18.3298  -11.3841  -13.3878 O   0  0  0  0  0  0  0  0  0  0  0  0
   18.3124  -12.2043  -15.5935 C   0  0  0  0  0  0  0  0  0  0  0  0
   17.8628  -11.9613  -16.9808 C   0  0  0  0  0  0  0  0  0  0  0  0
   18.9344  -11.8847  -18.0326 C   0  0  2  0  0  0  0  0  0  0  0  0
   19.9573  -12.8767  -17.9575 N   0  0  0  0  0  0  0  0  0  0  0  0
   19.4612  -10.4881  -17.9914 C   0  0  0  0  0  0  0  0  0  0  0  0
   20.5749  -10.2916  -17.4246 O   0  0  0  0  0  0  0  0  0  0  0  0
   18.8169   -9.3603  -18.5344 N   0  0  0  0  0  0  0  0  0  0  0  0
   19.4751   -8.0754  -18.6984 C   0  0  1  0  0  0  0  0  0  0  0  0
   18.7559   -7.1991  -19.6864 C   0  0  0  0  0  0  0  0  0  0  0  0
   19.4946   -5.9668  -20.0404 C   0  0  0  0  0  0  0  0  0  0  0  0
   20.6390   -5.6635  -19.6303 O   0  0  0  0  0  0  0  0  0  0  0  0
   19.5030   -7.3767  -17.4001 C   0  0  0  0  0  0  0  0  0  0  0  0
   18.5590   -7.5196  -16.5892 O   0  0  0  0  0  0  0  0  0  0  0  0
   18.8608   -5.0789  -20.8978 O   0  0  0  0  0  0  0  0  0  0  0  0
   20.5863   -6.5439  -17.0573 N   0  0  0  0  0  0  0  0  0  0  0  0
   20.6048   -5.8974  -15.7480 C   0  0  1  0  0  0  0  0  0  0  0  0
   21.9894   -6.0511  -15.2137 C   0  0  0  0  0  0  0  0  0  0  0  0
   22.3125   -7.4122  -14.7498 C   0  0  0  0  0  0  0  0  0  0  0  0
   23.1005   -8.2137  -15.5211 C   0  0  0  0  0  0  0  0  0  0  0  0
   23.3992   -9.4829  -15.0760 C   0  0  0  0  0  0  0  0  0  0  0  0
   22.9267   -9.9556  -13.8855 C   0  0  0  0  0  0  0  0  0  0  0  0
   22.1282   -9.1370  -13.1089 C   0  0  0  0  0  0  0  0  0  0  0  0
   21.8224   -7.8701  -13.5395 C   0  0  0  0  0  0  0  0  0  0  0  0
   20.1845   -4.5028  -15.8849 C   0  0  0  0  0  0  0  0  0  0  0  0
   20.0764   -3.6244  -14.8293 O   0  0  0  0  0  0  0  0  0  0  0  0
   19.8894   -4.0268  -17.0328 O   0  0  0  0  0  0  0  0  0  0  0  0
  2  3  2  0
  2  1  1  0
  4  2  1  0
  5  4  1  0
  5  6  1  0
  6  8  1  0
  6  7  1  1
  8  9  2  0
 10 11  1  0
 10  8  1  0
 11 12  1  6
 13 12  1  0
 14 13  2  0
 15 11  1  0
 15 16  2  0
 17 13  1  0
 18 15  1  0
 19 18  1  0
 19 27  1  0
 19 20  1  6
 21 20  1  0
 22 21  2  0
 23 22  1  0
 24 23  2  0
 24 25  1  0
 25 26  2  0
 26 21  1  0
 27 28  1  0
 29 27  2  0
M  END
$$$$
