QDF.pdb
     RDKit          3D

 29 29  0  0  1  0  0  0  0  0999 V2000
   12.6153  -12.7693  -10.9880 N   0  0  0  0  0  0  0  0  0  0  0  0
   11.8478  -11.8317  -11.7420 C   0  0  0  0  0  0  0  0  0  0  0  0
   10.6386  -11.7419  -11.4328 O   0  0  0  0  0  0  0  0  0  0  0  0
   12.4032  -11.0181  -12.8116 C   0  0  0  0  0  0  0  0  0  0  0  0
   13.8540  -11.1086  -13.0811 C   0  0  0  0  0  0  0  0  0  0  0  0
   14.2804  -12.0647  -14.1601 C   0  0  2  0  0  0  0  0  0  0  0  0
   13.9872  -13.4418  -13.9281 N   0  0  0  0  0  0  0  0  0  0  0  0
   15.7303  -11.8018  -14.4022 C   0  0  0  0  0  0  0  0  0  0  0  0
   16.5641  -12.2774  -13.5784 O   0  0  0  0  0  0  0  0  0  0  0  0
   16.2530  -11.0616  -15.4796 N   0  0  0  0  0  0  0  0  0  0  0  0
   17.6782  -10.9108  -15.7186 C   0  0  1  0  0  0  0  0  0  0  0  0
   18.0552  -11.2966  -17.1223 C   0  0  0  0  0  0  0  0  0  0  0  0
   19.5026  -11.1781  -17.4061 C   0  0  0  0  0  0  0  0  0  0  0  0
   20.3857  -10.8887  -16.5657 O   0  0  0  0  0  0  0  0  0  0  0  0
   18.0569   -9.5007  -15.5125 C   0  0  0  0  0  0  0  0  0  0  0  0
   17.2643   -8.5842  -15.8306 O   0  0  0  0  0  0  0  0  0  0  0  0
   19.9073  -11.4081  -18.7132 O   0  0  0  0  0  0  0  0  0  0  0  0
   19.3086   -9.1681  -14.9580 N   0  0  0  0  0  0  0  0  0  0  0  0
   19.7282   -7.7697  -14.9271 C   0  0  1  0  0  0  0  0  0  0  0  0
   21.0145   -7.7249  -14.1724 C   0  0  0  0  0  0  0  0  0  0  0  0
   21.6892   -6.4149  -14.2015 C   0  0  0  0  0  0  0  0  0  0  0  0
   22.7780   -6.2395  -15.0027 C   0  0  0  0  0  0  0  0  0  0  0  0
   23.3988   -5.0097  -15.0248 C   0  0  0  0  0  0  0  0  0  0  0  0
   22.9513   -3.9663  -14.2665 C   0  0  0  0  0  0  0  0  0  0  0  0
   21.8465   -4.1518  -13.4567 C   0  0  0  0  0  0  0  0  0  0  0  0
   21.2179   -5.3715  -13.4244 C   0  0  0  0  0  0  0  0  0  0  0  0
   19.8368   -7.2611  -16.2945 C   0  0  0  0  0  0  0  0  0  0  0  0
   20.4100   -7.9617  -17.3329 O   0  0  0  0  0  0  0  0  0  0  0  0
   19.3874   -6.1027  -16.5905 O   0  0  0  0  0  0  0  0  0  0  0  0
  2  3  2  0
  2  1  1  0
  4  2  1  0
  5  4  1  0
  5  6  1  0
  6  8  1  0
  6  7  1  1
  8  9  2  0
 10 11  1  0
 10  8  1  0
 11 12  1  6
 13 12  1  0
 14 13  2  0
 15 11  1  0
 15 16  2  0
 17 13  1  0
 18 15  1  0
 19 18  1  0
 19 27  1  0
 19 20  1  6
 21 20  1  0
 22 21  2  0
 23 22  1  0
 24 23  2  0
 24 25  1  0
 25 26  2  0
 26 21  1  0
 27 28  1  0
 29 27  2  0
M  END
$$$$
