QDF.pdb
     RDKit          3D

 29 29  0  0  1  0  0  0  0  0999 V2000
   20.2827  -14.5804  -15.7933 N   0  0  0  0  0  0  0  0  0  0  0  0
   19.7108  -14.0657  -16.9952 C   0  0  0  0  0  0  0  0  0  0  0  0
   20.4393  -14.1154  -18.0114 O   0  0  0  0  0  0  0  0  0  0  0  0
   18.3699  -13.5081  -17.0695 C   0  0  0  0  0  0  0  0  0  0  0  0
   18.2156  -12.1097  -17.5240 C   0  0  0  0  0  0  0  0  0  0  0  0
   17.6578  -11.1344  -16.5250 C   0  0  2  0  0  0  0  0  0  0  0  0
   16.2558  -11.2265  -16.2758 N   0  0  0  0  0  0  0  0  0  0  0  0
   18.0897   -9.7788  -16.9787 C   0  0  0  0  0  0  0  0  0  0  0  0
   18.5082   -9.6571  -18.1662 O   0  0  0  0  0  0  0  0  0  0  0  0
   18.0712   -8.6136  -16.1889 N   0  0  0  0  0  0  0  0  0  0  0  0
   18.4676   -7.3097  -16.6928 C   0  0  1  0  0  0  0  0  0  0  0  0
   17.2864   -6.5092  -17.1672 C   0  0  0  0  0  0  0  0  0  0  0  0
   17.6358   -5.1509  -17.6389 C   0  0  0  0  0  0  0  0  0  0  0  0
   17.2575   -4.0795  -17.1108 O   0  0  0  0  0  0  0  0  0  0  0  0
   19.1302   -6.5548  -15.6132 C   0  0  0  0  0  0  0  0  0  0  0  0
   18.6231   -6.5193  -14.4684 O   0  0  0  0  0  0  0  0  0  0  0  0
   18.4501   -5.0650  -18.7591 O   0  0  0  0  0  0  0  0  0  0  0  0
   20.3360   -5.8673  -15.8548 N   0  0  0  0  0  0  0  0  0  0  0  0
   20.9855   -5.1555  -14.7575 C   0  0  1  0  0  0  0  0  0  0  0  0
   22.3653   -5.7116  -14.6434 C   0  0  0  0  0  0  0  0  0  0  0  0
   22.4161   -7.1327  -14.2559 C   0  0  0  0  0  0  0  0  0  0  0  0
   22.9265   -8.0474  -15.1283 C   0  0  0  0  0  0  0  0  0  0  0  0
   22.9725   -9.3726  -14.7543 C   0  0  0  0  0  0  0  0  0  0  0  0
   22.5210   -9.7903  -13.5354 C   0  0  0  0  0  0  0  0  0  0  0  0
   22.0048   -8.8568  -12.6561 C   0  0  0  0  0  0  0  0  0  0  0  0
   21.9527   -7.5331  -13.0150 C   0  0  0  0  0  0  0  0  0  0  0  0
   20.9568   -3.7171  -15.0223 C   0  0  0  0  0  0  0  0  0  0  0  0
   21.4318   -2.7641  -14.1484 O   0  0  0  0  0  0  0  0  0  0  0  0
   20.4712   -3.2711  -16.1163 O   0  0  0  0  0  0  0  0  0  0  0  0
  2  3  2  0
  2  1  1  0
  4  2  1  0
  5  4  1  0
  5  6  1  0
  6  8  1  0
  6  7  1  6
  8  9  2  0
 10 11  1  0
 10  8  1  0
 11 12  1  1
 13 12  1  0
 14 13  2  0
 15 11  1  0
 15 16  2  0
 17 13  1  0
 18 15  1  0
 19 18  1  0
 19 27  1  0
 19 20  1  6
 21 20  1  0
 22 21  2  0
 23 22  1  0
 24 23  2  0
 24 25  1  0
 25 26  2  0
 26 21  1  0
 27 28  1  0
 29 27  2  0
M  END
$$$$
