QDF.pdb
     RDKit          3D

 29 29  0  0  1  0  0  0  0  0999 V2000
   28.4332  -21.6226  -14.7268 N   0  0  0  0  0  0  0  0  0  0  0  0
   29.1233  -20.6622  -15.5255 C   0  0  0  0  0  0  0  0  0  0  0  0
   29.9777  -21.1220  -16.3157 O   0  0  0  0  0  0  0  0  0  0  0  0
   28.8767  -19.2312  -15.4489 C   0  0  0  0  0  0  0  0  0  0  0  0
   27.8223  -18.7489  -14.5317 C   0  0  0  0  0  0  0  0  0  0  0  0
   26.4020  -19.0569  -14.9166 C   0  0  2  0  0  0  0  0  0  0  0  0
   25.8001  -18.1655  -15.8544 N   0  0  0  0  0  0  0  0  0  0  0  0
   25.6387  -19.1739  -13.6385 C   0  0  0  0  0  0  0  0  0  0  0  0
   25.0555  -18.1405  -13.2002 O   0  0  0  0  0  0  0  0  0  0  0  0
   25.5126  -20.3480  -12.8721 N   0  0  0  0  0  0  0  0  0  0  0  0
   24.7307  -20.4145  -11.6492 C   0  0  1  0  0  0  0  0  0  0  0  0
   23.5878  -21.3847  -11.7666 C   0  0  0  0  0  0  0  0  0  0  0  0
   22.2552  -20.7415  -11.7609 C   0  0  0  0  0  0  0  0  0  0  0  0
   21.7300  -20.1513  -12.7333 O   0  0  0  0  0  0  0  0  0  0  0  0
   25.5989  -20.8594  -10.5434 C   0  0  0  0  0  0  0  0  0  0  0  0
   26.4147  -21.7931  -10.7215 O   0  0  0  0  0  0  0  0  0  0  0  0
   21.5339  -20.8013  -10.5770 O   0  0  0  0  0  0  0  0  0  0  0  0
   25.5220  -20.2428   -9.2789 N   0  0  0  0  0  0  0  0  0  0  0  0
   26.4353  -20.6653   -8.2207 C   0  0  1  0  0  0  0  0  0  0  0  0
   27.1983  -19.4527   -7.8039 C   0  0  0  0  0  0  0  0  0  0  0  0
   28.0208  -19.6397   -6.5952 C   0  0  0  0  0  0  0  0  0  0  0  0
   27.7129  -18.9483   -5.4615 C   0  0  0  0  0  0  0  0  0  0  0  0
   28.4862  -19.1335   -4.3364 C   0  0  0  0  0  0  0  0  0  0  0  0
   29.5496  -19.9898   -4.3296 C   0  0  0  0  0  0  0  0  0  0  0  0
   29.8556  -20.6875   -5.4831 C   0  0  0  0  0  0  0  0  0  0  0  0
   29.0940  -20.5131   -6.6115 C   0  0  0  0  0  0  0  0  0  0  0  0
   25.6733  -21.2771   -7.1321 C   0  0  0  0  0  0  0  0  0  0  0  0
   24.2972  -21.3117   -7.0806 O   0  0  0  0  0  0  0  0  0  0  0  0
   26.2774  -21.8240   -6.1485 O   0  0  0  0  0  0  0  0  0  0  0  0
  2  3  2  0
  2  1  1  0
  4  2  1  0
  5  4  1  0
  5  6  1  0
  6  8  1  0
  6  7  1  6
  8  9  2  0
 10 11  1  0
 10  8  1  0
 11 12  1  6
 13 12  1  0
 14 13  2  0
 15 11  1  0
 15 16  2  0
 17 13  1  0
 18 15  1  0
 19 18  1  0
 19 27  1  0
 19 20  1  1
 21 20  1  0
 22 21  2  0
 23 22  1  0
 24 23  2  0
 24 25  1  0
 25 26  2  0
 26 21  1  0
 27 28  1  0
 29 27  2  0
M  END
$$$$
