QDF.pdb
     RDKit          3D

 29 29  0  0  1  0  0  0  0  0999 V2000
   28.5950  -23.5395  -15.4927 N   0  0  0  0  0  0  0  0  0  0  0  0
   27.9190  -23.3446  -16.7343 C   0  0  0  0  0  0  0  0  0  0  0  0
   28.1916  -24.1650  -17.6390 O   0  0  0  0  0  0  0  0  0  0  0  0
   26.9695  -22.2686  -16.9691 C   0  0  0  0  0  0  0  0  0  0  0  0
   26.6757  -21.3373  -15.8591 C   0  0  0  0  0  0  0  0  0  0  0  0
   25.7352  -21.8321  -14.7956 C   0  0  2  0  0  0  0  0  0  0  0  0
   25.3527  -23.2038  -14.8871 N   0  0  0  0  0  0  0  0  0  0  0  0
   24.5739  -20.8934  -14.7954 C   0  0  0  0  0  0  0  0  0  0  0  0
   24.7834  -19.6920  -14.4591 O   0  0  0  0  0  0  0  0  0  0  0  0
   23.2526  -21.2354  -15.1405 N   0  0  0  0  0  0  0  0  0  0  0  0
   22.1345  -20.3189  -14.9959 C   0  0  1  0  0  0  0  0  0  0  0  0
   21.7075  -19.7425  -16.3175 C   0  0  0  0  0  0  0  0  0  0  0  0
   21.3504  -18.3078  -16.2562 C   0  0  0  0  0  0  0  0  0  0  0  0
   20.9816  -17.6094  -17.2288 O   0  0  0  0  0  0  0  0  0  0  0  0
   20.9869  -21.0429  -14.4185 C   0  0  0  0  0  0  0  0  0  0  0  0
   21.1283  -22.2165  -14.0040 O   0  0  0  0  0  0  0  0  0  0  0  0
   21.4334  -17.6923  -15.0153 O   0  0  0  0  0  0  0  0  0  0  0  0
   19.7232  -20.4267  -14.3264 N   0  0  0  0  0  0  0  0  0  0  0  0
   18.5879  -21.1954  -13.8237 C   0  0  1  0  0  0  0  0  0  0  0  0
   18.8966  -21.5371  -12.4045 C   0  0  0  0  0  0  0  0  0  0  0  0
   17.8045  -22.2283  -11.6961 C   0  0  0  0  0  0  0  0  0  0  0  0
   17.5893  -23.5544  -11.9272 C   0  0  0  0  0  0  0  0  0  0  0  0
   16.5680  -24.1913  -11.2567 C   0  0  0  0  0  0  0  0  0  0  0  0
   15.7692  -23.5287  -10.3696 C   0  0  0  0  0  0  0  0  0  0  0  0
   15.9936  -22.1840  -10.1405 C   0  0  0  0  0  0  0  0  0  0  0  0
   17.0074  -21.5364  -10.8012 C   0  0  0  0  0  0  0  0  0  0  0  0
   17.3605  -20.4152  -13.9816 C   0  0  0  0  0  0  0  0  0  0  0  0
   17.2858  -19.0522  -13.7964 O   0  0  0  0  0  0  0  0  0  0  0  0
   16.2677  -20.9895  -14.3094 O   0  0  0  0  0  0  0  0  0  0  0  0
  2  3  2  0
  2  1  1  0
  4  2  1  0
  5  4  1  0
  5  6  1  0
  6  8  1  0
  6  7  1  6
  8  9  2  0
 10 11  1  0
 10  8  1  0
 11 12  1  6
 13 12  1  0
 14 13  2  0
 15 11  1  0
 15 16  2  0
 17 13  1  0
 18 15  1  0
 19 18  1  0
 19 27  1  0
 19 20  1  1
 21 20  1  0
 22 21  2  0
 23 22  1  0
 24 23  2  0
 24 25  1  0
 25 26  2  0
 26 21  1  0
 27 28  1  0
 29 27  2  0
M  END
$$$$
