TLF.pdb
     RDKit          3D

 27 27  0  0  1  0  0  0  0  0999 V2000
   28.5295  -19.2677  -16.3017 C   0  0  0  0  0  0  0  0  0  0  0  0
   27.5564  -19.7313  -15.2448 C   0  0  1  0  0  0  0  0  0  0  0  0
   26.2853  -19.8713  -15.7990 O   0  0  0  0  0  0  0  0  0  0  0  0
   28.0044  -21.0129  -14.5782 C   0  0  2  0  0  0  0  0  0  0  0  0
   27.8489  -22.0805  -15.5484 N   0  0  0  0  0  0  0  0  0  0  0  0
   27.1234  -21.2770  -13.4103 C   0  0  0  0  0  0  0  0  0  0  0  0
   26.1863  -22.1308  -13.5698 O   0  0  0  0  0  0  0  0  0  0  0  0
   26.0667  -19.5061   -7.4812 C   0  0  0  0  0  0  0  0  0  0  0  0
   25.7730  -20.3779   -8.6600 C   0  0  2  0  0  0  0  0  0  0  0  0
   25.3619  -21.7821   -8.2455 C   0  0  0  0  0  0  0  0  0  0  0  0
   26.7282  -20.3510   -9.7795 C   0  0  0  0  0  0  0  0  0  0  0  0
   26.3560  -20.8241  -11.1104 C   0  0  2  0  0  0  0  0  0  0  0  0
   27.2950  -20.6223  -12.1618 N   0  0  0  0  0  0  0  0  0  0  0  0
   25.0199  -20.3696  -11.5653 C   0  0  0  0  0  0  0  0  0  0  0  0
   24.8306  -19.1737  -11.9765 O   0  0  0  0  0  0  0  0  0  0  0  0
   23.8768  -21.2188  -11.5775 N   0  0  0  0  0  0  0  0  0  0  0  0
   22.5951  -20.7133  -12.0212 C   0  0  1  0  0  0  0  0  0  0  0  0
   22.3482  -21.2846  -13.4043 C   0  0  0  0  0  0  0  0  0  0  0  0
   20.9908  -20.9905  -13.9010 C   0  0  0  0  0  0  0  0  0  0  0  0
   19.9030  -21.8162  -13.7276 C   0  0  0  0  0  0  0  0  0  0  0  0
   18.6547  -21.5190  -14.1955 C   0  0  0  0  0  0  0  0  0  0  0  0
   18.4518  -20.3217  -14.8872 C   0  0  0  0  0  0  0  0  0  0  0  0
   19.5170  -19.4734  -15.0783 C   0  0  0  0  0  0  0  0  0  0  0  0
   20.7585  -19.8011  -14.5958 C   0  0  0  0  0  0  0  0  0  0  0  0
   21.5135  -21.0041  -11.0808 C   0  0  0  0  0  0  0  0  0  0  0  0
   21.6669  -22.0613  -10.1912 O   0  0  0  0  0  0  0  0  0  0  0  0
   20.4382  -20.3654  -11.0107 O   0  0  0  0  0  0  0  0  0  0  0  0
  2  1  1  6
  2  4  1  0
  3  2  1  0
  4  5  1  6
  6  7  2  0
  6  4  1  0
  9 11  1  0
  9  8  1  1
 10  9  1  0
 12 11  1  1
 12 13  1  0
 13  6  1  0
 14 12  1  0
 15 14  2  0
 16 14  1  0
 17 16  1  0
 18 19  1  0
 17 18  1  6
 19 24  2  0
 20 21  2  0
 20 19  1  0
 21 22  1  0
 22 23  2  0
 24 23  1  0
 25 17  1  0
 25 26  1  0
 27 25  2  0
M  END
$$$$
