TLF.pdb
     RDKit          3D

 27 27  0  0  1  0  0  0  0  0999 V2000
   20.8587  -19.3795  -13.6799 C   0  0  0  0  0  0  0  0  0  0  0  0
   21.8780  -20.0644  -12.8021 C   0  0  1  0  0  0  0  0  0  0  0  0
   21.2340  -20.8931  -11.8852 O   0  0  0  0  0  0  0  0  0  0  0  0
   22.9008  -20.8342  -13.6077 C   0  0  2  0  0  0  0  0  0  0  0  0
   22.2177  -21.9695  -14.1992 N   0  0  0  0  0  0  0  0  0  0  0  0
   23.9629  -21.3226  -12.6894 C   0  0  0  0  0  0  0  0  0  0  0  0
   23.8253  -22.5012  -12.2152 O   0  0  0  0  0  0  0  0  0  0  0  0
   27.1412  -19.3681  -13.8491 C   0  0  0  0  0  0  0  0  0  0  0  0
   28.0060  -19.9361  -12.7696 C   0  0  2  0  0  0  0  0  0  0  0  0
   29.4400  -20.1405  -13.2328 C   0  0  0  0  0  0  0  0  0  0  0  0
   27.4709  -21.0679  -11.9956 C   0  0  0  0  0  0  0  0  0  0  0  0
   26.1013  -21.0642  -11.4878 C   0  0  2  0  0  0  0  0  0  0  0  0
   25.0904  -20.5336  -12.3388 N   0  0  0  0  0  0  0  0  0  0  0  0
   25.9553  -20.4680  -10.1381 C   0  0  0  0  0  0  0  0  0  0  0  0
   25.3830  -19.3368   -9.9710 O   0  0  0  0  0  0  0  0  0  0  0  0
   26.4315  -21.1036   -8.9560 N   0  0  0  0  0  0  0  0  0  0  0  0
   26.3919  -20.4101   -7.6862 C   0  0  1  0  0  0  0  0  0  0  0  0
   26.8898  -21.3827   -6.6343 C   0  0  0  0  0  0  0  0  0  0  0  0
   27.8699  -20.7689   -5.7187 C   0  0  0  0  0  0  0  0  0  0  0  0
   27.5403  -20.0959   -4.5637 C   0  0  0  0  0  0  0  0  0  0  0  0
   28.4683  -19.5385   -3.7308 C   0  0  0  0  0  0  0  0  0  0  0  0
   29.8245  -19.6459   -4.0500 C   0  0  0  0  0  0  0  0  0  0  0  0
   30.1889  -20.3116   -5.1966 C   0  0  0  0  0  0  0  0  0  0  0  0
   29.2325  -20.8606   -6.0123 C   0  0  0  0  0  0  0  0  0  0  0  0
   27.1392  -19.1530   -7.7022 C   0  0  0  0  0  0  0  0  0  0  0  0
   26.7200  -18.1152   -6.8776 O   0  0  0  0  0  0  0  0  0  0  0  0
   28.1463  -18.9308   -8.4132 O   0  0  0  0  0  0  0  0  0  0  0  0
  2  1  1  6
  2  4  1  0
  3  2  1  0
  4  5  1  1
  6  7  2  0
  6  4  1  0
  9 11  1  0
  9  8  1  6
 10  9  1  0
 12 11  1  6
 12 13  1  0
 13  6  1  0
 14 12  1  0
 15 14  2  0
 16 14  1  0
 17 16  1  0
 18 19  1  0
 17 18  1  1
 19 24  2  0
 20 21  2  0
 20 19  1  0
 21 22  1  0
 22 23  2  0
 24 23  1  0
 25 17  1  0
 25 26  1  0
 27 25  2  0
M  END
$$$$
