TLF.pdb
     RDKit          3D

 27 27  0  0  1  0  0  0  0  0999 V2000
   21.2696   -8.5733  -19.7667 C   0  0  0  0  0  0  0  0  0  0  0  0
   20.6202   -9.8783  -19.3740 C   0  0  1  0  0  0  0  0  0  0  0  0
   19.7834  -10.3187  -20.3978 O   0  0  0  0  0  0  0  0  0  0  0  0
   21.6380  -10.9360  -19.0092 C   0  0  2  0  0  0  0  0  0  0  0  0
   20.9065  -12.1528  -18.7095 N   0  0  0  0  0  0  0  0  0  0  0  0
   22.3737  -10.4925  -17.7959 C   0  0  0  0  0  0  0  0  0  0  0  0
   21.7114  -10.4277  -16.7051 O   0  0  0  0  0  0  0  0  0  0  0  0
   25.2600  -11.8803  -14.6694 C   0  0  0  0  0  0  0  0  0  0  0  0
   26.0058  -11.4183  -15.8803 C   0  0  2  0  0  0  0  0  0  0  0  0
   27.4870  -11.7542  -15.8031 C   0  0  0  0  0  0  0  0  0  0  0  0
   25.7363  -10.0550  -16.3649 C   0  0  0  0  0  0  0  0  0  0  0  0
   24.3785   -9.6072  -16.6644 C   0  0  2  0  0  0  0  0  0  0  0  0
   23.7517  -10.1503  -17.8219 N   0  0  0  0  0  0  0  0  0  0  0  0
   24.2129   -8.1337  -16.6746 C   0  0  0  0  0  0  0  0  0  0  0  0
   24.7170   -7.4161  -17.6052 O   0  0  0  0  0  0  0  0  0  0  0  0
   23.4923   -7.4293  -15.6684 N   0  0  0  0  0  0  0  0  0  0  0  0
   23.3367   -5.9926  -15.7508 C   0  0  1  0  0  0  0  0  0  0  0  0
   22.5725   -5.7022  -17.0283 C   0  0  0  0  0  0  0  0  0  0  0  0
   21.1166   -5.8740  -16.8650 C   0  0  0  0  0  0  0  0  0  0  0  0
   20.2528   -4.8721  -16.4838 C   0  0  0  0  0  0  0  0  0  0  0  0
   18.9069   -5.0569  -16.3424 C   0  0  0  0  0  0  0  0  0  0  0  0
   18.3608   -6.3187  -16.5924 C   0  0  0  0  0  0  0  0  0  0  0  0
   19.1953   -7.3425  -16.9749 C   0  0  0  0  0  0  0  0  0  0  0  0
   20.5429   -7.1243  -17.1080 C   0  0  0  0  0  0  0  0  0  0  0  0
   22.7035   -5.4209  -14.5630 C   0  0  0  0  0  0  0  0  0  0  0  0
   22.2661   -6.2784  -13.5599 O   0  0  0  0  0  0  0  0  0  0  0  0
   22.5191   -4.1966  -14.3722 O   0  0  0  0  0  0  0  0  0  0  0  0
  2  1  1  6
  2  4  1  0
  3  2  1  0
  4  5  1  1
  6  7  2  0
  6  4  1  0
  9 11  1  0
  9  8  1  1
 10  9  1  0
 12 11  1  6
 12 13  1  0
 13  6  1  0
 14 12  1  0
 15 14  2  0
 16 14  1  0
 17 16  1  0
 18 19  1  0
 17 18  1  6
 19 24  2  0
 20 21  2  0
 20 19  1  0
 21 22  1  0
 22 23  2  0
 24 23  1  0
 25 17  1  0
 25 26  1  0
 27 25  2  0
M  END
$$$$
