TLF.pdb
     RDKit          3D

 27 27  0  0  1  0  0  0  0  0999 V2000
   25.7532  -18.1214  -16.0179 C   0  0  0  0  0  0  0  0  0  0  0  0
   25.9216  -19.0856  -17.1672 C   0  0  1  0  0  0  0  0  0  0  0  0
   25.7896  -18.4081  -18.3780 O   0  0  0  0  0  0  0  0  0  0  0  0
   27.2362  -19.8306  -17.1001 C   0  0  2  0  0  0  0  0  0  0  0  0
   27.2105  -20.8443  -18.1379 N   0  0  0  0  0  0  0  0  0  0  0  0
   27.3449  -20.4888  -15.7716 C   0  0  0  0  0  0  0  0  0  0  0  0
   26.6382  -21.5363  -15.5819 O   0  0  0  0  0  0  0  0  0  0  0  0
   30.7550  -20.8595  -10.5456 C   0  0  0  0  0  0  0  0  0  0  0  0
   29.4864  -21.0771  -11.3067 C   0  0  2  0  0  0  0  0  0  0  0  0
   28.9881  -22.5092  -11.1917 C   0  0  0  0  0  0  0  0  0  0  0  0
   29.4134  -20.5368  -12.6739 C   0  0  0  0  0  0  0  0  0  0  0  0
   28.1798  -20.6002  -13.4535 C   0  0  2  0  0  0  0  0  0  0  0  0
   28.1895  -19.9949  -14.7423 N   0  0  0  0  0  0  0  0  0  0  0  0
   26.9731  -20.1487  -12.7194 C   0  0  0  0  0  0  0  0  0  0  0  0
   26.7173  -18.9054  -12.5648 O   0  0  0  0  0  0  0  0  0  0  0  0
   26.0319  -21.0521  -12.1483 N   0  0  0  0  0  0  0  0  0  0  0  0
   24.9576  -20.5578  -11.3137 C   0  0  1  0  0  0  0  0  0  0  0  0
   23.6605  -20.8415  -12.0469 C   0  0  0  0  0  0  0  0  0  0  0  0
   22.4807  -20.3354  -11.3204 C   0  0  0  0  0  0  0  0  0  0  0  0
   21.9293  -19.0876  -11.5055 C   0  0  0  0  0  0  0  0  0  0  0  0
   20.8338  -18.6437  -10.8212 C   0  0  0  0  0  0  0  0  0  0  0  0
   20.2286  -19.4834   -9.8823 C   0  0  0  0  0  0  0  0  0  0  0  0
   20.7538  -20.7368   -9.6723 C   0  0  0  0  0  0  0  0  0  0  0  0
   21.8553  -21.1528  -10.3760 C   0  0  0  0  0  0  0  0  0  0  0  0
   24.9850  -21.1169   -9.9626 C   0  0  0  0  0  0  0  0  0  0  0  0
   24.6783  -20.2880   -8.8895 O   0  0  0  0  0  0  0  0  0  0  0  0
   25.2685  -22.3058   -9.6881 O   0  0  0  0  0  0  0  0  0  0  0  0
  2  1  1  1
  2  4  1  0
  3  2  1  0
  4  5  1  6
  6  7  2  0
  6  4  1  0
  9 11  1  0
  9  8  1  6
 10  9  1  0
 12 11  1  1
 12 13  1  0
 13  6  1  0
 14 12  1  0
 15 14  2  0
 16 14  1  0
 17 16  1  0
 18 19  1  0
 17 18  1  6
 19 24  2  0
 20 21  2  0
 20 19  1  0
 21 22  1  0
 22 23  2  0
 24 23  1  0
 25 17  1  0
 25 26  1  0
 27 25  2  0
M  END
$$$$
