TLF.pdb
     RDKit          3D

 27 27  0  0  1  0  0  0  0  0999 V2000
   23.5703  -16.4884  -15.3191 C   0  0  0  0  0  0  0  0  0  0  0  0
   24.0716  -17.7862  -14.7334 C   0  0  1  0  0  0  0  0  0  0  0  0
   23.0222  -18.6977  -14.6325 O   0  0  0  0  0  0  0  0  0  0  0  0
   25.2216  -18.3649  -15.5271 C   0  0  2  0  0  0  0  0  0  0  0  0
   24.7181  -18.6741  -16.8523 N   0  0  0  0  0  0  0  0  0  0  0  0
   25.6743  -19.6180  -14.8677 C   0  0  0  0  0  0  0  0  0  0  0  0
   25.3293  -20.7203  -15.4142 O   0  0  0  0  0  0  0  0  0  0  0  0
   29.5956  -20.7247  -14.6980 C   0  0  0  0  0  0  0  0  0  0  0  0
   29.3618  -20.2992  -13.2838 C   0  0  2  0  0  0  0  0  0  0  0  0
   30.6489  -20.2692  -12.4745 C   0  0  0  0  0  0  0  0  0  0  0  0
   28.2312  -20.9124  -12.5681 C   0  0  0  0  0  0  0  0  0  0  0  0
   26.8701  -20.8458  -13.0941 C   0  0  2  0  0  0  0  0  0  0  0  0
   26.4563  -19.6169  -13.6823 N   0  0  0  0  0  0  0  0  0  0  0  0
   25.8276  -21.2979  -12.1414 C   0  0  0  0  0  0  0  0  0  0  0  0
   25.8847  -22.4523  -11.5944 O   0  0  0  0  0  0  0  0  0  0  0  0
   24.7126  -20.4915  -11.7748 N   0  0  0  0  0  0  0  0  0  0  0  0
   23.6971  -21.0097  -10.8831 C   0  0  1  0  0  0  0  0  0  0  0  0
   23.5580  -20.0167   -9.7451 C   0  0  0  0  0  0  0  0  0  0  0  0
   24.7212  -20.0329   -8.8382 C   0  0  0  0  0  0  0  0  0  0  0  0
   25.7297  -19.0959   -8.8494 C   0  0  0  0  0  0  0  0  0  0  0  0
   26.7956  -19.1322   -7.9962 C   0  0  0  0  0  0  0  0  0  0  0  0
   26.8846  -20.1642   -7.0581 C   0  0  0  0  0  0  0  0  0  0  0  0
   25.8942  -21.1173   -7.0194 C   0  0  0  0  0  0  0  0  0  0  0  0
   24.8364  -21.0525   -7.8903 C   0  0  0  0  0  0  0  0  0  0  0  0
   22.4309  -21.2827  -11.5620 C   0  0  0  0  0  0  0  0  0  0  0  0
   21.3848  -21.8333  -10.8304 O   0  0  0  0  0  0  0  0  0  0  0  0
   22.2079  -21.0566  -12.7738 O   0  0  0  0  0  0  0  0  0  0  0  0
  2  1  1  6
  2  4  1  0
  3  2  1  0
  4  5  1  6
  6  7  2  0
  6  4  1  0
  9 11  1  0
  9  8  1  6
 10  9  1  0
 12 11  1  1
 12 13  1  0
 13  6  1  0
 14 12  1  0
 15 14  2  0
 16 14  1  0
 17 16  1  0
 18 19  1  0
 17 18  1  1
 19 24  2  0
 20 21  2  0
 20 19  1  0
 21 22  1  0
 22 23  2  0
 24 23  1  0
 25 17  1  0
 25 26  1  0
 27 25  2  0
M  END
$$$$
