TLF.pdb
     RDKit          3D

 27 27  0  0  1  0  0  0  0  0999 V2000
   17.2172  -10.0376  -19.6958 C   0  0  0  0  0  0  0  0  0  0  0  0
   18.0176   -9.4996  -18.5345 C   0  0  1  0  0  0  0  0  0  0  0  0
   17.2363   -8.6206  -17.7867 O   0  0  0  0  0  0  0  0  0  0  0  0
   18.5781  -10.6039  -17.6663 C   0  0  2  0  0  0  0  0  0  0  0  0
   17.4514  -11.3000  -17.0736 N   0  0  0  0  0  0  0  0  0  0  0  0
   19.4015   -9.9936  -16.5895 C   0  0  0  0  0  0  0  0  0  0  0  0
   18.8174   -9.7453  -15.4804 O   0  0  0  0  0  0  0  0  0  0  0  0
   22.5317  -11.4477  -13.8059 C   0  0  0  0  0  0  0  0  0  0  0  0
   23.1801  -10.9782  -15.0688 C   0  0  2  0  0  0  0  0  0  0  0  0
   24.6554  -11.3425  -15.1248 C   0  0  0  0  0  0  0  0  0  0  0  0
   22.8970   -9.6018  -15.5066 C   0  0  0  0  0  0  0  0  0  0  0  0
   21.5279   -9.1266  -15.6894 C   0  0  2  0  0  0  0  0  0  0  0  0
   20.7782   -9.6903  -16.7608 N   0  0  0  0  0  0  0  0  0  0  0  0
   21.3982   -7.6502  -15.7364 C   0  0  0  0  0  0  0  0  0  0  0  0
   21.5255   -7.0078  -16.8346 O   0  0  0  0  0  0  0  0  0  0  0  0
   21.1257   -6.8606  -14.5830 N   0  0  0  0  0  0  0  0  0  0  0  0
   21.1227   -5.4158  -14.6701 C   0  0  1  0  0  0  0  0  0  0  0  0
   19.7123   -4.9558  -14.3543 C   0  0  0  0  0  0  0  0  0  0  0  0
   18.8017   -5.1005  -15.5057 C   0  0  0  0  0  0  0  0  0  0  0  0
   17.8171   -6.0577  -15.6035 C   0  0  0  0  0  0  0  0  0  0  0  0
   16.9845   -6.1686  -16.6806 C   0  0  0  0  0  0  0  0  0  0  0  0
   17.1236   -5.2752  -17.7462 C   0  0  0  0  0  0  0  0  0  0  0  0
   18.0973   -4.3064  -17.6812 C   0  0  0  0  0  0  0  0  0  0  0  0
   18.9177   -4.2215  -16.5852 C   0  0  0  0  0  0  0  0  0  0  0  0
   22.1324   -4.7932  -13.8148 C   0  0  0  0  0  0  0  0  0  0  0  0
   22.3182   -3.4176  -13.8918 O   0  0  0  0  0  0  0  0  0  0  0  0
   22.8583   -5.4113  -13.0022 O   0  0  0  0  0  0  0  0  0  0  0  0
  2  1  1  6
  2  4  1  0
  3  2  1  0
  4  5  1  1
  6  7  2  0
  6  4  1  0
  9 11  1  0
  9  8  1  1
 10  9  1  0
 12 11  1  6
 12 13  1  0
 13  6  1  0
 14 12  1  0
 15 14  2  0
 16 14  1  0
 17 16  1  0
 18 19  1  0
 17 18  1  1
 19 24  2  0
 20 21  2  0
 20 19  1  0
 21 22  1  0
 22 23  2  0
 24 23  1  0
 25 17  1  0
 25 26  1  0
 27 25  2  0
M  END
$$$$
