TLF.pdb
     RDKit          3D

 27 27  0  0  1  0  0  0  0  0999 V2000
   26.5206  -14.2237  -15.5877 C   0  0  0  0  0  0  0  0  0  0  0  0
   25.8215  -15.5547  -15.4522 C   0  0  1  0  0  0  0  0  0  0  0  0
   24.8625  -15.6910  -16.4542 O   0  0  0  0  0  0  0  0  0  0  0  0
   26.7925  -16.7143  -15.4659 C   0  0  2  0  0  0  0  0  0  0  0  0
   27.3964  -16.7551  -16.7846 N   0  0  0  0  0  0  0  0  0  0  0  0
   26.0369  -17.9728  -15.2313 C   0  0  0  0  0  0  0  0  0  0  0  0
   25.8962  -18.7611  -16.2270 O   0  0  0  0  0  0  0  0  0  0  0  0
   27.2839  -21.6383  -13.3432 C   0  0  0  0  0  0  0  0  0  0  0  0
   26.6683  -20.7532  -12.3070 C   0  0  2  0  0  0  0  0  0  0  0  0
   26.9174  -21.2638  -10.8965 C   0  0  0  0  0  0  0  0  0  0  0  0
   25.2858  -20.3020  -12.5337 C   0  0  0  0  0  0  0  0  0  0  0  0
   24.9064  -19.5902  -13.7516 C   0  0  2  0  0  0  0  0  0  0  0  0
   25.4858  -18.3072  -13.9659 N   0  0  0  0  0  0  0  0  0  0  0  0
   23.4428  -19.4996  -13.9716 C   0  0  0  0  0  0  0  0  0  0  0  0
   22.6819  -18.9034  -13.1346 O   0  0  0  0  0  0  0  0  0  0  0  0
   22.7959  -20.0581  -15.1107 N   0  0  0  0  0  0  0  0  0  0  0  0
   21.3543  -20.0077  -15.2308 C   0  0  1  0  0  0  0  0  0  0  0  0
   21.0434  -19.4994  -16.6256 C   0  0  0  0  0  0  0  0  0  0  0  0
   21.3853  -18.0745  -16.7948 C   0  0  0  0  0  0  0  0  0  0  0  0
   22.5906  -17.6154  -17.2763 C   0  0  0  0  0  0  0  0  0  0  0  0
   22.8813  -16.2893  -17.4261 C   0  0  0  0  0  0  0  0  0  0  0  0
   21.9204  -15.3360  -17.0786 C   0  0  0  0  0  0  0  0  0  0  0  0
   20.7054  -15.7599  -16.5942 C   0  0  0  0  0  0  0  0  0  0  0  0
   20.4443  -17.0994  -16.4556 C   0  0  0  0  0  0  0  0  0  0  0  0
   20.7145  -21.2886  -14.9330 C   0  0  0  0  0  0  0  0  0  0  0  0
   19.3406  -21.3172  -14.7231 O   0  0  0  0  0  0  0  0  0  0  0  0
   21.3162  -22.3842  -14.8497 O   0  0  0  0  0  0  0  0  0  0  0  0
  2  1  1  6
  2  4  1  0
  3  2  1  0
  4  5  1  6
  6  7  2  0
  6  4  1  0
  9 11  1  0
  9  8  1  6
 10  9  1  0
 12 11  1  1
 12 13  1  0
 13  6  1  0
 14 12  1  0
 15 14  2  0
 16 14  1  0
 17 16  1  0
 18 19  1  0
 17 18  1  6
 19 24  2  0
 20 21  2  0
 20 19  1  0
 21 22  1  0
 22 23  2  0
 24 23  1  0
 25 17  1  0
 25 26  1  0
 27 25  2  0
M  END
$$$$
