TLF.pdb
     RDKit          3D

 27 27  0  0  1  0  0  0  0  0999 V2000
   15.9509  -14.4294    4.9326 C   0  0  0  0  0  0  0  0  0  0  0  0
   16.9045  -13.3337    4.5215 C   0  0  1  0  0  0  0  0  0  0  0  0
   16.1970  -12.1605    4.2656 O   0  0  0  0  0  0  0  0  0  0  0  0
   17.9880  -13.1030    5.5512 C   0  0  2  0  0  0  0  0  0  0  0  0
   18.8612  -12.0665    5.0331 N   0  0  0  0  0  0  0  0  0  0  0  0
   18.7626  -14.3606    5.7193 C   0  0  0  0  0  0  0  0  0  0  0  0
   19.7086  -14.5768    4.8879 O   0  0  0  0  0  0  0  0  0  0  0  0
   20.2281  -18.9510    9.5715 C   0  0  0  0  0  0  0  0  0  0  0  0
   20.3738  -18.2689    8.2488 C   0  0  2  0  0  0  0  0  0  0  0  0
   21.8087  -18.2956    7.7458 C   0  0  0  0  0  0  0  0  0  0  0  0
   19.7163  -16.9627    8.0822 C   0  0  0  0  0  0  0  0  0  0  0  0
   19.1709  -16.5429    6.7938 C   0  0  2  0  0  0  0  0  0  0  0  0
   18.4834  -15.2967    6.7501 N   0  0  0  0  0  0  0  0  0  0  0  0
   18.3435  -17.5723    6.1196 C   0  0  0  0  0  0  0  0  0  0  0  0
   17.0705  -17.5832    6.2396 O   0  0  0  0  0  0  0  0  0  0  0  0
   18.8993  -18.5997    5.3051 N   0  0  0  0  0  0  0  0  0  0  0  0
   18.0434  -19.6026    4.7079 C   0  0  1  0  0  0  0  0  0  0  0  0
   18.2842  -19.5562    3.2111 C   0  0  0  0  0  0  0  0  0  0  0  0
   17.6792  -18.3681    2.5800 C   0  0  0  0  0  0  0  0  0  0  0  0
   16.3485  -18.2578    2.2448 C   0  0  0  0  0  0  0  0  0  0  0  0
   15.8123  -17.1443    1.6632 C   0  0  0  0  0  0  0  0  0  0  0  0
   16.6397  -16.0526    1.3868 C   0  0  0  0  0  0  0  0  0  0  0  0
   17.9744  -16.1291    1.7086 C   0  0  0  0  0  0  0  0  0  0  0  0
   18.4821  -17.2619    2.2921 C   0  0  0  0  0  0  0  0  0  0  0  0
   18.2449  -20.9340    5.2786 C   0  0  0  0  0  0  0  0  0  0  0  0
   17.3586  -21.9492    4.9371 O   0  0  0  0  0  0  0  0  0  0  0  0
   19.1696  -21.2400    6.0663 O   0  0  0  0  0  0  0  0  0  0  0  0
  2  1  1  1
  2  4  1  0
  3  2  1  0
  4  5  1  6
  6  7  2  0
  6  4  1  0
  9 11  1  0
  9  8  1  1
 10  9  1  0
 12 11  1  1
 12 13  1  0
 13  6  1  0
 14 12  1  0
 15 14  2  0
 16 14  1  0
 17 16  1  0
 18 19  1  0
 17 18  1  6
 19 24  2  0
 20 21  2  0
 20 19  1  0
 21 22  1  0
 22 23  2  0
 24 23  1  0
 25 17  1  0
 25 26  1  0
 27 25  2  0
M  END
$$$$
