TLF.pdb
     RDKit          3D

 27 27  0  0  1  0  0  0  0  0999 V2000
   36.9734  -27.1735    1.9621 C   0  0  0  0  0  0  0  0  0  0  0  0
   36.9661  -26.5965    3.3570 C   0  0  1  0  0  0  0  0  0  0  0  0
   36.3323  -27.4774    4.2315 O   0  0  0  0  0  0  0  0  0  0  0  0
   38.3576  -26.2547    3.8414 C   0  0  2  0  0  0  0  0  0  0  0  0
   39.0976  -27.4989    3.9391 N   0  0  0  0  0  0  0  0  0  0  0  0
   38.2555  -25.6354    5.1889 C   0  0  0  0  0  0  0  0  0  0  0  0
   38.0703  -26.4226    6.1783 O   0  0  0  0  0  0  0  0  0  0  0  0
   41.1520  -23.9784    7.8245 C   0  0  0  0  0  0  0  0  0  0  0  0
   40.6126  -22.8088    7.0648 C   0  0  2  0  0  0  0  0  0  0  0  0
   41.3988  -21.5362    7.3386 C   0  0  0  0  0  0  0  0  0  0  0  0
   39.1541  -22.6113    7.0676 C   0  0  0  0  0  0  0  0  0  0  0  0
   38.2383  -23.6899    6.7048 C   0  0  2  0  0  0  0  0  0  0  0  0
   38.3561  -24.2338    5.3941 N   0  0  0  0  0  0  0  0  0  0  0  0
   36.8111  -23.3921    6.9752 C   0  0  0  0  0  0  0  0  0  0  0  0
   36.2104  -22.4307    6.3836 O   0  0  0  0  0  0  0  0  0  0  0  0
   36.0247  -24.1439    7.8941 N   0  0  0  0  0  0  0  0  0  0  0  0
   34.7057  -23.6846    8.2743 C   0  0  1  0  0  0  0  0  0  0  0  0
   33.7197  -24.3290    7.3187 C   0  0  0  0  0  0  0  0  0  0  0  0
   33.3416  -23.4321    6.2103 C   0  0  0  0  0  0  0  0  0  0  0  0
   33.8392  -23.5251    4.9300 C   0  0  0  0  0  0  0  0  0  0  0  0
   33.4702  -22.6829    3.9200 C   0  0  0  0  0  0  0  0  0  0  0  0
   32.5428  -21.6702    4.1796 C   0  0  0  0  0  0  0  0  0  0  0  0
   32.0257  -21.5489    5.4479 C   0  0  0  0  0  0  0  0  0  0  0  0
   32.4168  -22.4109    6.4406 C   0  0  0  0  0  0  0  0  0  0  0  0
   34.3959  -23.9474    9.6791 C   0  0  0  0  0  0  0  0  0  0  0  0
   35.3109  -24.6624   10.4435 O   0  0  0  0  0  0  0  0  0  0  0  0
   33.3517  -23.5735   10.2614 O   0  0  0  0  0  0  0  0  0  0  0  0
  2  1  1  6
  2  4  1  0
  3  2  1  0
  4  5  1  1
  6  7  2  0
  6  4  1  0
  9 11  1  0
  9  8  1  1
 10  9  1  0
 12 11  1  6
 12 13  1  0
 13  6  1  0
 14 12  1  0
 15 14  2  0
 16 14  1  0
 17 16  1  0
 18 19  1  0
 17 18  1  6
 19 24  2  0
 20 21  2  0
 20 19  1  0
 21 22  1  0
 22 23  2  0
 24 23  1  0
 25 17  1  0
 25 26  1  0
 27 25  2  0
M  END
$$$$
