TLF.pdb
     RDKit          3D

 27 27  0  0  1  0  0  0  0  0999 V2000
   23.6737  -17.2617  -13.7000 C   0  0  0  0  0  0  0  0  0  0  0  0
   23.3466  -18.7312  -13.5886 C   0  0  1  0  0  0  0  0  0  0  0  0
   22.0036  -18.9427  -13.8950 O   0  0  0  0  0  0  0  0  0  0  0  0
   24.2446  -19.5839  -14.4570 C   0  0  2  0  0  0  0  0  0  0  0  0
   23.3892  -20.4814  -15.2107 N   0  0  0  0  0  0  0  0  0  0  0  0
   25.1417  -20.3804  -13.5790 C   0  0  0  0  0  0  0  0  0  0  0  0
   24.7877  -21.5808  -13.3213 O   0  0  0  0  0  0  0  0  0  0  0  0
   30.9484  -21.0678  -11.5243 C   0  0  0  0  0  0  0  0  0  0  0  0
   29.4872  -21.3819  -11.4766 C   0  0  2  0  0  0  0  0  0  0  0  0
   29.2173  -22.8725  -11.6103 C   0  0  0  0  0  0  0  0  0  0  0  0
   28.5860  -20.5459  -12.2861 C   0  0  0  0  0  0  0  0  0  0  0  0
   27.1346  -20.6356  -12.1484 C   0  0  2  0  0  0  0  0  0  0  0  0
   26.3443  -19.8534  -13.0381 N   0  0  0  0  0  0  0  0  0  0  0  0
   26.6418  -20.4345  -10.7644 C   0  0  0  0  0  0  0  0  0  0  0  0
   26.4575  -19.2616  -10.2898 O   0  0  0  0  0  0  0  0  0  0  0  0
   26.3433  -21.5142   -9.8851 N   0  0  0  0  0  0  0  0  0  0  0  0
   25.7635  -21.2585   -8.5838 C   0  0  1  0  0  0  0  0  0  0  0  0
   26.0760  -19.8158   -8.2352 C   0  0  0  0  0  0  0  0  0  0  0  0
   26.7777  -19.6878   -6.9441 C   0  0  0  0  0  0  0  0  0  0  0  0
   26.6058  -20.5407   -5.8772 C   0  0  0  0  0  0  0  0  0  0  0  0
   27.2705  -20.4015   -4.6922 C   0  0  0  0  0  0  0  0  0  0  0  0
   28.1742  -19.3470   -4.5357 C   0  0  0  0  0  0  0  0  0  0  0  0
   28.3700  -18.4761   -5.5817 C   0  0  0  0  0  0  0  0  0  0  0  0
   27.6867  -18.6433   -6.7592 C   0  0  0  0  0  0  0  0  0  0  0  0
   24.3343  -21.5635   -8.5290 C   0  0  0  0  0  0  0  0  0  0  0  0
   23.6223  -21.6483   -9.7200 O   0  0  0  0  0  0  0  0  0  0  0  0
   23.6863  -21.7581   -7.4747 O   0  0  0  0  0  0  0  0  0  0  0  0
  2  1  1  6
  2  4  1  0
  3  2  1  0
  4  5  1  1
  6  7  2  0
  6  4  1  0
  9 11  1  0
  9  8  1  6
 10  9  1  0
 12 11  1  1
 12 13  1  0
 13  6  1  0
 14 12  1  0
 15 14  2  0
 16 14  1  0
 17 16  1  0
 18 19  1  0
 17 18  1  6
 19 24  2  0
 20 21  2  0
 20 19  1  0
 21 22  1  0
 22 23  2  0
 24 23  1  0
 25 17  1  0
 25 26  1  0
 27 25  2  0
M  END
$$$$
