TLF.pdb
     RDKit          3D

 27 27  0  0  1  0  0  0  0  0999 V2000
   27.4789  -17.2706  -17.3932 C   0  0  0  0  0  0  0  0  0  0  0  0
   26.5161  -18.0892  -16.5675 C   0  0  1  0  0  0  0  0  0  0  0  0
   25.4987  -18.5865  -17.3798 O   0  0  0  0  0  0  0  0  0  0  0  0
   27.2107  -19.2051  -15.8192 C   0  0  2  0  0  0  0  0  0  0  0  0
   27.7068  -20.1436  -16.8083 N   0  0  0  0  0  0  0  0  0  0  0  0
   26.2172  -19.8869  -14.9485 C   0  0  0  0  0  0  0  0  0  0  0  0
   25.7261  -20.9862  -15.3764 O   0  0  0  0  0  0  0  0  0  0  0  0
   25.4730  -20.7683   -9.1754 C   0  0  0  0  0  0  0  0  0  0  0  0
   25.2544  -21.0320  -10.6309 C   0  0  2  0  0  0  0  0  0  0  0  0
   26.3570  -21.8917  -11.2290 C   0  0  0  0  0  0  0  0  0  0  0  0
   24.8735  -19.8905  -11.4783 C   0  0  0  0  0  0  0  0  0  0  0  0
   24.8020  -20.0111  -12.9323 C   0  0  2  0  0  0  0  0  0  0  0  0
   25.8151  -19.3603  -13.6925 N   0  0  0  0  0  0  0  0  0  0  0  0
   23.4775  -19.6714  -13.5059 C   0  0  0  0  0  0  0  0  0  0  0  0
   23.0657  -18.4617  -13.5532 O   0  0  0  0  0  0  0  0  0  0  0  0
   22.5900  -20.6508  -14.0360 N   0  0  0  0  0  0  0  0  0  0  0  0
   21.2832  -20.2652  -14.5246 C   0  0  1  0  0  0  0  0  0  0  0  0
   21.1049  -20.9229  -15.8796 C   0  0  0  0  0  0  0  0  0  0  0  0
   21.5491  -20.0575  -16.9884 C   0  0  0  0  0  0  0  0  0  0  0  0
   21.5750  -20.4391  -18.3109 C   0  0  0  0  0  0  0  0  0  0  0  0
   21.9887  -19.6168  -19.3199 C   0  0  0  0  0  0  0  0  0  0  0  0
   22.4103  -18.3199  -19.0146 C   0  0  0  0  0  0  0  0  0  0  0  0
   22.3973  -17.9060  -17.7033 C   0  0  0  0  0  0  0  0  0  0  0  0
   21.9760  -18.7563  -16.7129 C   0  0  0  0  0  0  0  0  0  0  0  0
   20.2084  -20.5874  -13.5866 C   0  0  0  0  0  0  0  0  0  0  0  0
   18.9347  -20.0867  -13.8311 O   0  0  0  0  0  0  0  0  0  0  0  0
   20.3451  -21.2917  -12.5597 O   0  0  0  0  0  0  0  0  0  0  0  0
  2  1  1  6
  2  4  1  0
  3  2  1  0
  4  5  1  6
  6  7  2  0
  6  4  1  0
  9 11  1  0
  9  8  1  1
 10  9  1  0
 12 11  1  1
 12 13  1  0
 13  6  1  0
 14 12  1  0
 15 14  2  0
 16 14  1  0
 17 16  1  0
 18 19  1  0
 17 18  1  6
 19 24  2  0
 20 21  2  0
 20 19  1  0
 21 22  1  0
 22 23  2  0
 24 23  1  0
 25 17  1  0
 25 26  1  0
 27 25  2  0
M  END
$$$$
