ATE.pdb
     RDKit          3D

 22 21  0  0  1  0  0  0  0  0999 V2000
    9.1845  -17.4588   15.2553 C   0  0  0  0  0  0  0  0  0  0  0  0
    8.7103  -16.0287   14.9738 C   0  0  2  0  0  0  0  0  0  0  0  0
    9.2044  -15.6969   13.6565 N   0  0  0  0  0  0  0  0  0  0  0  0
    9.2757  -15.1412   16.0209 C   0  0  0  0  0  0  0  0  0  0  0  0
   10.4511  -14.6566   15.9069 O   0  0  0  0  0  0  0  0  0  0  0  0
    7.1090  -14.4126   19.8036 C   0  0  0  0  0  0  0  0  0  0  0  0
    7.7663  -13.3574   18.9434 C   0  0  1  0  0  0  0  0  0  0  0  0
    8.3643  -12.4754   19.8904 O   0  0  0  0  0  0  0  0  0  0  0  0
    8.9503  -13.9406   18.1909 C   0  0  2  0  0  0  0  0  0  0  0  0
    8.4741  -14.8456   17.1530 N   0  0  0  0  0  0  0  0  0  0  0  0
    9.9019  -14.6737   19.0234 C   0  0  0  0  0  0  0  0  0  0  0  0
    9.7063  -15.9424   19.1408 O   0  0  0  0  0  0  0  0  0  0  0  0
   11.0081  -14.1609   19.7130 N   0  0  0  0  0  0  0  0  0  0  0  0
   11.8717  -14.9989   20.5852 C   0  0  1  0  0  0  0  0  0  0  0  0
   13.1272  -14.2826   20.8765 C   0  0  0  0  0  0  0  0  0  0  0  0
   14.4073  -15.0075   20.6706 C   0  0  0  0  0  0  0  0  0  0  0  0
   14.8341  -15.1555   19.2749 C   0  0  0  0  0  0  0  0  0  0  0  0
   14.2861  -16.0563   18.5390 O   0  0  0  0  0  0  0  0  0  0  0  0
   11.1216  -15.4547   21.7351 C   0  0  0  0  0  0  0  0  0  0  0  0
   10.0107  -14.9600   22.1044 O   0  0  0  0  0  0  0  0  0  0  0  0
   15.8049  -14.3876   18.6580 O   0  0  0  0  0  0  0  0  0  0  0  0
   11.5759  -16.5122   22.5595 O   0  0  0  0  0  0  0  0  0  0  0  0
  2  4  1  0
  2  1  1  1
  2  3  1  0
  4  5  2  0
  7  6  1  1
  7  9  1  0
  8  7  1  0
  9 11  1  0
  9 10  1  6
 10  4  1  0
 11 12  2  0
 11 13  1  0
 13 14  1  0
 14 15  1  1
 15 16  1  0
 16 17  1  0
 17 21  1  0
 18 17  2  0
 19 14  1  0
 20 19  2  0
 22 19  1  0
M  END
$$$$
