ATE.pdb
     RDKit          3D

 22 21  0  0  1  0  0  0  0  0999 V2000
    8.6110  -12.7560   17.8007 C   0  0  0  0  0  0  0  0  0  0  0  0
    9.3692  -14.0081   18.2552 C   0  0  2  0  0  0  0  0  0  0  0  0
    8.4679  -15.1185   18.0444 N   0  0  0  0  0  0  0  0  0  0  0  0
    9.7205  -13.8397   19.6877 C   0  0  0  0  0  0  0  0  0  0  0  0
   10.5636  -12.9556   20.0577 O   0  0  0  0  0  0  0  0  0  0  0  0
    7.2197  -13.4178   22.4106 C   0  0  0  0  0  0  0  0  0  0  0  0
    8.1065  -14.5583   22.8558 C   0  0  1  0  0  0  0  0  0  0  0  0
    7.4113  -15.7198   22.4087 O   0  0  0  0  0  0  0  0  0  0  0  0
    9.3981  -14.5766   22.0560 C   0  0  2  0  0  0  0  0  0  0  0  0
    9.0936  -14.6883   20.6355 N   0  0  0  0  0  0  0  0  0  0  0  0
   10.3168  -15.6585   22.4044 C   0  0  0  0  0  0  0  0  0  0  0  0
   10.1636  -16.7706   21.7707 O   0  0  0  0  0  0  0  0  0  0  0  0
   11.3505  -15.6325   23.3493 N   0  0  0  0  0  0  0  0  0  0  0  0
   12.0699  -16.8565   23.7887 C   0  0  1  0  0  0  0  0  0  0  0  0
   13.5243  -16.6147   23.7607 C   0  0  0  0  0  0  0  0  0  0  0  0
   14.1150  -16.0610   22.5153 C   0  0  0  0  0  0  0  0  0  0  0  0
   15.5779  -15.9520   22.5022 C   0  0  0  0  0  0  0  0  0  0  0  0
   16.1359  -14.8865   22.9566 O   0  0  0  0  0  0  0  0  0  0  0  0
   11.5302  -17.3244   25.0466 C   0  0  0  0  0  0  0  0  0  0  0  0
   11.8832  -18.4035   25.6176 O   0  0  0  0  0  0  0  0  0  0  0  0
   16.4403  -16.9246   22.0298 O   0  0  0  0  0  0  0  0  0  0  0  0
   10.5430  -16.6007   25.7581 O   0  0  0  0  0  0  0  0  0  0  0  0
  2  4  1  0
  2  1  1  1
  2  3  1  0
  4  5  2  0
  7  6  1  6
  7  9  1  0
  8  7  1  0
  9 11  1  0
  9 10  1  6
 10  4  1  0
 11 12  2  0
 11 13  1  0
 13 14  1  0
 14 15  1  1
 15 16  1  0
 16 17  1  0
 17 21  1  0
 18 17  2  0
 19 14  1  0
 20 19  2  0
 22 19  1  0
M  END
$$$$
