ATE.pdb
     RDKit          3D

 22 21  0  0  1  0  0  0  0  0999 V2000
    8.9423  -17.8582   16.7582 C   0  0  0  0  0  0  0  0  0  0  0  0
    8.6082  -16.3639   16.6875 C   0  0  2  0  0  0  0  0  0  0  0  0
    9.1138  -15.9021   15.4144 N   0  0  0  0  0  0  0  0  0  0  0  0
    9.2736  -15.6883   17.8296 C   0  0  0  0  0  0  0  0  0  0  0  0
   10.4740  -15.2649   17.7336 O   0  0  0  0  0  0  0  0  0  0  0  0
    7.4000  -12.9193   19.6237 C   0  0  0  0  0  0  0  0  0  0  0  0
    7.9489  -13.8426   20.6875 C   0  0  1  0  0  0  0  0  0  0  0  0
    6.8829  -14.7602   20.9198 O   0  0  0  0  0  0  0  0  0  0  0  0
    9.0600  -14.7110   20.1220 C   0  0  2  0  0  0  0  0  0  0  0  0
    8.5392  -15.5256   19.0320 N   0  0  0  0  0  0  0  0  0  0  0  0
    9.6881  -15.6067   21.0912 C   0  0  0  0  0  0  0  0  0  0  0  0
    9.3204  -16.8417   21.0565 O   0  0  0  0  0  0  0  0  0  0  0  0
   10.6479  -15.2832   22.0587 N   0  0  0  0  0  0  0  0  0  0  0  0
   11.2365  -16.2926   22.9772 C   0  0  1  0  0  0  0  0  0  0  0  0
   12.6552  -15.9739   23.2220 C   0  0  0  0  0  0  0  0  0  0  0  0
   13.6456  -16.3602   22.1844 C   0  0  0  0  0  0  0  0  0  0  0  0
   14.9997  -15.8282   22.3720 C   0  0  0  0  0  0  0  0  0  0  0  0
   15.7259  -16.2744   23.3347 O   0  0  0  0  0  0  0  0  0  0  0  0
   10.4076  -16.4352   24.1541 C   0  0  0  0  0  0  0  0  0  0  0  0
    9.4622  -15.6434   24.4616 O   0  0  0  0  0  0  0  0  0  0  0  0
   15.5860  -14.8576   21.5801 O   0  0  0  0  0  0  0  0  0  0  0  0
   10.5879  -17.4924   25.0785 O   0  0  0  0  0  0  0  0  0  0  0  0
  2  4  1  0
  2  1  1  1
  2  3  1  0
  4  5  2  0
  7  6  1  6
  7  9  1  0
  8  7  1  0
  9 11  1  0
  9 10  1  6
 10  4  1  0
 11 12  2  0
 11 13  1  0
 13 14  1  0
 14 15  1  1
 15 16  1  0
 16 17  1  0
 17 21  1  0
 18 17  2  0
 19 14  1  0
 20 19  2  0
 22 19  1  0
M  END
$$$$
