ATE.pdb
     RDKit          3D

 22 21  0  0  1  0  0  0  0  0999 V2000
    8.0058  -12.2305   19.8873 C   0  0  0  0  0  0  0  0  0  0  0  0
    8.2747  -13.6299   19.3226 C   0  0  2  0  0  0  0  0  0  0  0  0
    7.2651  -13.8529   18.3124 N   0  0  0  0  0  0  0  0  0  0  0  0
    8.1722  -14.6044   20.4376 C   0  0  0  0  0  0  0  0  0  0  0  0
    7.0363  -14.9458   20.9094 O   0  0  0  0  0  0  0  0  0  0  0  0
    8.6571  -17.8654   20.3035 C   0  0  0  0  0  0  0  0  0  0  0  0
    9.6514  -17.5265   21.3906 C   0  0  1  0  0  0  0  0  0  0  0  0
   10.8668  -17.3064   20.6786 O   0  0  0  0  0  0  0  0  0  0  0  0
    9.3367  -16.1713   22.0012 C   0  0  2  0  0  0  0  0  0  0  0  0
    9.3716  -15.1469   20.9657 N   0  0  0  0  0  0  0  0  0  0  0  0
   10.2425  -15.7586   23.0714 C   0  0  0  0  0  0  0  0  0  0  0  0
   11.2514  -15.0349   22.7248 O   0  0  0  0  0  0  0  0  0  0  0  0
   10.1456  -16.0559   24.4368 N   0  0  0  0  0  0  0  0  0  0  0  0
   11.2256  -15.7398   25.4076 C   0  0  1  0  0  0  0  0  0  0  0  0
   10.6706  -15.7030   26.7733 C   0  0  0  0  0  0  0  0  0  0  0  0
   11.6083  -15.4660   27.9007 C   0  0  0  0  0  0  0  0  0  0  0  0
   11.0032  -15.4583   29.2370 C   0  0  0  0  0  0  0  0  0  0  0  0
   10.8265  -16.5710   29.8567 O   0  0  0  0  0  0  0  0  0  0  0  0
   12.3499  -16.6272   25.2050 C   0  0  0  0  0  0  0  0  0  0  0  0
   13.5659  -16.2769   25.3220 O   0  0  0  0  0  0  0  0  0  0  0  0
   10.5919  -14.3244   29.9136 O   0  0  0  0  0  0  0  0  0  0  0  0
   12.1811  -17.9879   24.8521 O   0  0  0  0  0  0  0  0  0  0  0  0
  2  4  1  0
  2  1  1  1
  2  3  1  0
  4  5  2  0
  7  6  1  6
  7  9  1  0
  8  7  1  0
  9 11  1  0
  9 10  1  6
 10  4  1  0
 11 12  2  0
 11 13  1  0
 13 14  1  0
 14 15  1  1
 15 16  1  0
 16 17  1  0
 17 21  1  0
 18 17  2  0
 19 14  1  0
 20 19  2  0
 22 19  1  0
M  END
$$$$
