ATE.pdb
     RDKit          3D

 22 21  0  0  1  0  0  0  0  0999 V2000
    8.4118  -18.6723   17.6891 C   0  0  0  0  0  0  0  0  0  0  0  0
    8.0319  -17.1975   17.5156 C   0  0  2  0  0  0  0  0  0  0  0  0
    8.4118  -16.8440   16.1664 N   0  0  0  0  0  0  0  0  0  0  0  0
    8.7755  -16.4077   18.5290 C   0  0  0  0  0  0  0  0  0  0  0  0
    9.9811  -16.0426   18.3221 O   0  0  0  0  0  0  0  0  0  0  0  0
    6.8045  -13.6121   20.5696 C   0  0  0  0  0  0  0  0  0  0  0  0
    7.6597  -14.4489   21.4936 C   0  0  1  0  0  0  0  0  0  0  0  0
    6.7789  -15.4850   21.9216 O   0  0  0  0  0  0  0  0  0  0  0  0
    8.7337  -15.1845   20.7103 C   0  0  2  0  0  0  0  0  0  0  0  0
    8.1100  -16.0691   19.7348 N   0  0  0  0  0  0  0  0  0  0  0  0
    9.6433  -15.9864   21.5261 C   0  0  0  0  0  0  0  0  0  0  0  0
    9.4528  -17.2613   21.5170 O   0  0  0  0  0  0  0  0  0  0  0  0
   10.7041  -15.5341   22.3212 N   0  0  0  0  0  0  0  0  0  0  0  0
   11.6069  -16.4559   23.0587 C   0  0  1  0  0  0  0  0  0  0  0  0
   13.0037  -16.0073   22.9103 C   0  0  0  0  0  0  0  0  0  0  0  0
   14.0625  -16.7824   23.6065 C   0  0  0  0  0  0  0  0  0  0  0  0
   15.4259  -16.2592   23.4670 C   0  0  0  0  0  0  0  0  0  0  0  0
   16.1535  -16.1048   24.5158 O   0  0  0  0  0  0  0  0  0  0  0  0
   11.1384  -16.6282   24.4164 C   0  0  0  0  0  0  0  0  0  0  0  0
   10.3442  -15.8289   25.0043 O   0  0  0  0  0  0  0  0  0  0  0  0
   16.0197  -15.9054   22.2691 O   0  0  0  0  0  0  0  0  0  0  0  0
   11.5365  -17.7262   25.2167 O   0  0  0  0  0  0  0  0  0  0  0  0
  2  4  1  0
  2  1  1  1
  2  3  1  0
  4  5  2  0
  7  6  1  6
  7  9  1  0
  8  7  1  0
  9 11  1  0
  9 10  1  6
 10  4  1  0
 11 12  2  0
 11 13  1  0
 13 14  1  0
 14 15  1  1
 15 16  1  0
 16 17  1  0
 17 21  1  0
 18 17  2  0
 19 14  1  0
 20 19  2  0
 22 19  1  0
M  END
$$$$
