ATE.pdb
     RDKit          3D

 22 21  0  0  1  0  0  0  0  0999 V2000
    7.7020  -11.8217   26.4760 C   0  0  0  0  0  0  0  0  0  0  0  0
    6.6086  -12.4291   25.5900 C   0  0  2  0  0  0  0  0  0  0  0  0
    5.4240  -12.5059   26.4149 N   0  0  0  0  0  0  0  0  0  0  0  0
    7.0666  -13.7696   25.1464 C   0  0  0  0  0  0  0  0  0  0  0  0
    6.9599  -14.7865   25.9107 O   0  0  0  0  0  0  0  0  0  0  0  0
    6.5361  -14.5612   21.4033 C   0  0  0  0  0  0  0  0  0  0  0  0
    7.8503  -15.1913   21.8046 C   0  0  1  0  0  0  0  0  0  0  0  0
    8.8245  -14.2488   21.3631 O   0  0  0  0  0  0  0  0  0  0  0  0
    8.0044  -15.1932   23.3161 C   0  0  2  0  0  0  0  0  0  0  0  0
    7.6269  -13.8908   23.8491 N   0  0  0  0  0  0  0  0  0  0  0  0
    9.3518  -15.4995   23.7922 C   0  0  0  0  0  0  0  0  0  0  0  0
   10.1104  -14.4925   24.0608 O   0  0  0  0  0  0  0  0  0  0  0  0
    9.9217  -16.7631   23.9937 N   0  0  0  0  0  0  0  0  0  0  0  0
   11.3151  -16.9498   24.4758 C   0  0  1  0  0  0  0  0  0  0  0  0
   11.3528  -18.0293   25.4795 C   0  0  0  0  0  0  0  0  0  0  0  0
   10.3685  -17.9825   26.5910 C   0  0  0  0  0  0  0  0  0  0  0  0
   10.4984  -19.0420   27.5972 C   0  0  0  0  0  0  0  0  0  0  0  0
   11.4226  -18.9581   28.4872 O   0  0  0  0  0  0  0  0  0  0  0  0
   12.2130  -17.0991   23.3515 C   0  0  0  0  0  0  0  0  0  0  0  0
   11.8320  -17.2862   22.1536 O   0  0  0  0  0  0  0  0  0  0  0  0
    9.6891  -20.1607   27.6783 O   0  0  0  0  0  0  0  0  0  0  0  0
   13.6201  -17.0477   23.4997 O   0  0  0  0  0  0  0  0  0  0  0  0
  2  4  1  0
  2  1  1  1
  2  3  1  0
  4  5  2  0
  7  6  1  1
  7  9  1  0
  8  7  1  0
  9 11  1  0
  9 10  1  6
 10  4  1  0
 11 12  2  0
 11 13  1  0
 13 14  1  0
 14 15  1  1
 15 16  1  0
 16 17  1  0
 17 21  1  0
 18 17  2  0
 19 14  1  0
 20 19  2  0
 22 19  1  0
M  END
$$$$
