ATE.pdb
     RDKit          3D

 22 21  0  0  1  0  0  0  0  0999 V2000
    7.6287  -13.5380   17.8553 C   0  0  0  0  0  0  0  0  0  0  0  0
    8.2928  -14.8167   18.3779 C   0  0  2  0  0  0  0  0  0  0  0  0
    7.2250  -15.7731   18.5643 N   0  0  0  0  0  0  0  0  0  0  0  0
    8.9787  -14.4916   19.6537 C   0  0  0  0  0  0  0  0  0  0  0  0
    9.9932  -13.7172   19.6753 O   0  0  0  0  0  0  0  0  0  0  0  0
    6.9548  -13.5151   22.8039 C   0  0  0  0  0  0  0  0  0  0  0  0
    7.9307  -14.6079   23.1765 C   0  0  1  0  0  0  0  0  0  0  0  0
    7.1814  -15.8064   22.9909 O   0  0  0  0  0  0  0  0  0  0  0  0
    9.0412  -14.7094   22.1446 C   0  0  2  0  0  0  0  0  0  0  0  0
    8.4762  -15.0651   20.8495 N   0  0  0  0  0  0  0  0  0  0  0  0
   10.0831  -15.6838   22.4626 C   0  0  0  0  0  0  0  0  0  0  0  0
    9.9084  -16.8801   22.0155 O   0  0  0  0  0  0  0  0  0  0  0  0
   11.2561  -15.4730   23.1985 N   0  0  0  0  0  0  0  0  0  0  0  0
   12.2314  -16.5570   23.4859 C   0  0  1  0  0  0  0  0  0  0  0  0
   13.6013  -16.0712   23.2375 C   0  0  0  0  0  0  0  0  0  0  0  0
   14.7314  -16.9855   23.5435 C   0  0  0  0  0  0  0  0  0  0  0  0
   16.0720  -16.4185   23.3615 C   0  0  0  0  0  0  0  0  0  0  0  0
   16.9430  -16.5427   24.2991 O   0  0  0  0  0  0  0  0  0  0  0  0
   11.9846  -17.1109   24.7992 C   0  0  0  0  0  0  0  0  0  0  0  0
   11.3153  -16.5248   25.7068 O   0  0  0  0  0  0  0  0  0  0  0  0
   16.4985  -15.7400   22.2343 O   0  0  0  0  0  0  0  0  0  0  0  0
   12.4805  -18.3791   25.1869 O   0  0  0  0  0  0  0  0  0  0  0  0
  2  4  1  0
  2  1  1  1
  2  3  1  0
  4  5  2  0
  7  6  1  6
  7  9  1  0
  8  7  1  0
  9 11  1  0
  9 10  1  6
 10  4  1  0
 11 12  2  0
 11 13  1  0
 13 14  1  0
 14 15  1  1
 15 16  1  0
 16 17  1  0
 17 21  1  0
 18 17  2  0
 19 14  1  0
 20 19  2  0
 22 19  1  0
M  END
$$$$
