ATE.pdb
     RDKit          3D

 22 21  0  0  1  0  0  0  0  0999 V2000
    8.5262  -18.9083   18.4169 C   0  0  0  0  0  0  0  0  0  0  0  0
    8.1597  -17.4873   17.9746 C   0  0  2  0  0  0  0  0  0  0  0  0
    8.6208  -17.3631   16.6101 N   0  0  0  0  0  0  0  0  0  0  0  0
    8.8420  -16.5315   18.8826 C   0  0  0  0  0  0  0  0  0  0  0  0
   10.0364  -16.1447   18.6518 O   0  0  0  0  0  0  0  0  0  0  0  0
    7.1238  -13.3256   20.1996 C   0  0  0  0  0  0  0  0  0  0  0  0
    7.6744  -14.0957   21.3782 C   0  0  1  0  0  0  0  0  0  0  0  0
    6.5825  -14.9179   21.7832 O   0  0  0  0  0  0  0  0  0  0  0  0
    8.7295  -15.0897   20.9233 C   0  0  2  0  0  0  0  0  0  0  0  0
    8.1308  -16.0590   20.0150 N   0  0  0  0  0  0  0  0  0  0  0  0
    9.3784  -15.8290   22.0043 C   0  0  0  0  0  0  0  0  0  0  0  0
    8.9167  -17.0062   22.2548 O   0  0  0  0  0  0  0  0  0  0  0  0
   10.4484  -15.4104   22.8054 N   0  0  0  0  0  0  0  0  0  0  0  0
   10.9364  -16.1942   23.9700 C   0  0  1  0  0  0  0  0  0  0  0  0
   12.4041  -16.0860   24.0616 C   0  0  0  0  0  0  0  0  0  0  0  0
   13.2175  -16.7104   22.9868 C   0  0  0  0  0  0  0  0  0  0  0  0
   14.6598  -16.4510   23.0522 C   0  0  0  0  0  0  0  0  0  0  0  0
   15.1300  -15.7354   24.0114 O   0  0  0  0  0  0  0  0  0  0  0  0
   10.1993  -15.8266   25.1592 C   0  0  0  0  0  0  0  0  0  0  0  0
   10.3075  -16.4197   26.2780 O   0  0  0  0  0  0  0  0  0  0  0  0
   15.5913  -16.9227   22.1451 O   0  0  0  0  0  0  0  0  0  0  0  0
    9.2773  -14.7522   25.1715 O   0  0  0  0  0  0  0  0  0  0  0  0
  2  4  1  0
  2  1  1  1
  2  3  1  0
  4  5  2  0
  7  6  1  6
  7  9  1  0
  8  7  1  0
  9 11  1  0
  9 10  1  6
 10  4  1  0
 11 12  2  0
 11 13  1  0
 13 14  1  0
 14 15  1  1
 15 16  1  0
 16 17  1  0
 17 21  1  0
 18 17  2  0
 19 14  1  0
 20 19  2  0
 22 19  1  0
M  END
$$$$
