ATE.pdb
     RDKit          3D

 22 21  0  0  1  0  0  0  0  0999 V2000
    8.1279  -19.1349   18.7136 C   0  0  0  0  0  0  0  0  0  0  0  0
    7.8654  -17.6500   18.4383 C   0  0  2  0  0  0  0  0  0  0  0  0
    8.2604  -17.4230   17.0664 N   0  0  0  0  0  0  0  0  0  0  0  0
    8.6786  -16.8538   19.3914 C   0  0  0  0  0  0  0  0  0  0  0  0
    9.8908  -16.5521   19.1283 O   0  0  0  0  0  0  0  0  0  0  0  0
    6.8151  -13.9226   21.4193 C   0  0  0  0  0  0  0  0  0  0  0  0
    7.7145  -14.7439   22.3149 C   0  0  1  0  0  0  0  0  0  0  0  0
    6.8544  -15.7683   22.8079 O   0  0  0  0  0  0  0  0  0  0  0  0
    8.7453  -15.4984   21.4925 C   0  0  2  0  0  0  0  0  0  0  0  0
    8.0722  -16.4365   20.6037 N   0  0  0  0  0  0  0  0  0  0  0  0
    9.7236  -16.2479   22.2782 C   0  0  0  0  0  0  0  0  0  0  0  0
    9.5241  -17.5167   22.3876 O   0  0  0  0  0  0  0  0  0  0  0  0
   10.8593  -15.7508   22.9302 N   0  0  0  0  0  0  0  0  0  0  0  0
   11.8321  -16.6275   23.6329 C   0  0  1  0  0  0  0  0  0  0  0  0
   13.2068  -16.2000   23.3136 C   0  0  0  0  0  0  0  0  0  0  0  0
   14.3307  -16.9382   23.9447 C   0  0  0  0  0  0  0  0  0  0  0  0
   15.6712  -16.4135   23.6621 C   0  0  0  0  0  0  0  0  0  0  0  0
   16.6915  -16.9453   24.2360 O   0  0  0  0  0  0  0  0  0  0  0  0
   11.5039  -16.7050   25.0396 C   0  0  0  0  0  0  0  0  0  0  0  0
   10.7579  -15.8734   25.6453 O   0  0  0  0  0  0  0  0  0  0  0  0
   15.9461  -15.3635   22.8050 O   0  0  0  0  0  0  0  0  0  0  0  0
   11.9993  -17.7371   25.8726 O   0  0  0  0  0  0  0  0  0  0  0  0
  2  4  1  0
  2  1  1  1
  2  3  1  0
  4  5  2  0
  7  6  1  6
  7  9  1  0
  8  7  1  0
  9 11  1  0
  9 10  1  6
 10  4  1  0
 11 12  2  0
 11 13  1  0
 13 14  1  0
 14 15  1  1
 15 16  1  0
 16 17  1  0
 17 21  1  0
 18 17  2  0
 19 14  1  0
 20 19  2  0
 22 19  1  0
M  END
$$$$
