ATE.pdb
     RDKit          3D

 22 21  0  0  1  0  0  0  0  0999 V2000
    7.8021  -15.6050   15.7357 C   0  0  0  0  0  0  0  0  0  0  0  0
    8.4391  -16.4398   16.8523 C   0  0  2  0  0  0  0  0  0  0  0  0
    7.3772  -17.2576   17.3939 N   0  0  0  0  0  0  0  0  0  0  0  0
    8.9960  -15.5075   17.8643 C   0  0  0  0  0  0  0  0  0  0  0  0
    9.9622  -14.7249   17.5753 O   0  0  0  0  0  0  0  0  0  0  0  0
    7.0702  -13.1824   20.2333 C   0  0  0  0  0  0  0  0  0  0  0  0
    7.9252  -14.0972   21.0803 C   0  0  1  0  0  0  0  0  0  0  0  0
    7.0547  -15.1839   21.3865 O   0  0  0  0  0  0  0  0  0  0  0  0
    9.0214  -14.7338   20.2427 C   0  0  2  0  0  0  0  0  0  0  0  0
    8.4254  -15.5094   19.1628 N   0  0  0  0  0  0  0  0  0  0  0  0
    9.9223  -15.6145   20.9835 C   0  0  0  0  0  0  0  0  0  0  0  0
    9.8583  -16.8711   20.7034 O   0  0  0  0  0  0  0  0  0  0  0  0
   10.8531  -15.2555   21.9668 N   0  0  0  0  0  0  0  0  0  0  0  0
   11.7376  -16.2443   22.6367 C   0  0  1  0  0  0  0  0  0  0  0  0
   13.1453  -15.8309   22.4899 C   0  0  0  0  0  0  0  0  0  0  0  0
   14.1878  -16.6616   23.1455 C   0  0  0  0  0  0  0  0  0  0  0  0
   15.5672  -16.1884   22.9869 C   0  0  0  0  0  0  0  0  0  0  0  0
   15.7822  -14.9542   22.6973 O   0  0  0  0  0  0  0  0  0  0  0  0
   11.2843  -16.4779   23.9905 C   0  0  0  0  0  0  0  0  0  0  0  0
   11.7697  -17.3626   24.7630 O   0  0  0  0  0  0  0  0  0  0  0  0
   16.6956  -16.9760   23.1257 O   0  0  0  0  0  0  0  0  0  0  0  0
   10.2400  -15.7221   24.5758 O   0  0  0  0  0  0  0  0  0  0  0  0
  2  4  1  0
  2  1  1  6
  2  3  1  0
  4  5  2  0
  7  6  1  6
  7  9  1  0
  8  7  1  0
  9 11  1  0
  9 10  1  6
 10  4  1  0
 11 12  2  0
 11 13  1  0
 13 14  1  0
 14 15  1  1
 15 16  1  0
 16 17  1  0
 17 21  1  0
 18 17  2  0
 19 14  1  0
 20 19  2  0
 22 19  1  0
M  END
$$$$
