ATE.pdb
     RDKit          3D

 22 21  0  0  1  0  0  0  0  0999 V2000
    7.8974  -18.7107   17.8031 C   0  0  0  0  0  0  0  0  0  0  0  0
    7.7731  -17.2421   17.3820 C   0  0  2  0  0  0  0  0  0  0  0  0
    8.2264  -17.1807   16.0108 N   0  0  0  0  0  0  0  0  0  0  0  0
    8.6239  -16.4294   18.2872 C   0  0  0  0  0  0  0  0  0  0  0  0
    9.8765  -16.3049   18.0753 O   0  0  0  0  0  0  0  0  0  0  0  0
    7.1636  -13.0327   19.8451 C   0  0  0  0  0  0  0  0  0  0  0  0
    7.8240  -13.8908   20.9001 C   0  0  1  0  0  0  0  0  0  0  0  0
    6.7555  -14.6905   21.4012 O   0  0  0  0  0  0  0  0  0  0  0  0
    8.7639  -14.8985   20.2601 C   0  0  2  0  0  0  0  0  0  0  0  0
    8.0072  -15.7943   19.3953 N   0  0  0  0  0  0  0  0  0  0  0  0
    9.5165  -15.7186   21.2072 C   0  0  0  0  0  0  0  0  0  0  0  0
    9.0191  -16.8735   21.4909 O   0  0  0  0  0  0  0  0  0  0  0  0
   10.7208  -15.3995   21.8473 N   0  0  0  0  0  0  0  0  0  0  0  0
   11.4600  -16.3668   22.6997 C   0  0  1  0  0  0  0  0  0  0  0  0
   12.8861  -15.9954   22.7505 C   0  0  0  0  0  0  0  0  0  0  0  0
   13.7878  -16.8070   23.6076 C   0  0  0  0  0  0  0  0  0  0  0  0
   15.2017  -16.4167   23.5875 C   0  0  0  0  0  0  0  0  0  0  0  0
   16.1078  -17.3277   23.5404 O   0  0  0  0  0  0  0  0  0  0  0  0
   10.7971  -16.5093   23.9776 C   0  0  0  0  0  0  0  0  0  0  0  0
   10.0150  -15.6408   24.4767 O   0  0  0  0  0  0  0  0  0  0  0  0
   15.6640  -15.1135   23.6153 O   0  0  0  0  0  0  0  0  0  0  0  0
   10.9711  -17.6538   24.7926 O   0  0  0  0  0  0  0  0  0  0  0  0
  2  4  1  0
  2  1  1  1
  2  3  1  0
  4  5  2  0
  7  6  1  6
  7  9  1  0
  8  7  1  0
  9 11  1  0
  9 10  1  6
 10  4  1  0
 11 12  2  0
 11 13  1  0
 13 14  1  0
 14 15  1  1
 15 16  1  0
 16 17  1  0
 17 21  1  0
 18 17  2  0
 19 14  1  0
 20 19  2  0
 22 19  1  0
M  END
$$$$
