ATE.pdb
     RDKit          3D

 22 21  0  0  1  0  0  0  0  0999 V2000
    8.7807  -19.2741   18.8512 C   0  0  0  0  0  0  0  0  0  0  0  0
    8.4444  -17.8150   18.5234 C   0  0  2  0  0  0  0  0  0  0  0  0
    8.9928  -17.5650   17.2094 N   0  0  0  0  0  0  0  0  0  0  0  0
    9.0672  -16.9543   19.5601 C   0  0  0  0  0  0  0  0  0  0  0  0
   10.2758  -16.5592   19.4468 O   0  0  0  0  0  0  0  0  0  0  0  0
    6.9348  -14.0086   21.0375 C   0  0  0  0  0  0  0  0  0  0  0  0
    7.5955  -14.7758   22.1602 C   0  0  1  0  0  0  0  0  0  0  0  0
    6.6245  -15.7579   22.5140 O   0  0  0  0  0  0  0  0  0  0  0  0
    8.7647  -15.5921   21.6359 C   0  0  2  0  0  0  0  0  0  0  0  0
    8.2828  -16.5821   20.6816 N   0  0  0  0  0  0  0  0  0  0  0  0
    9.5286  -16.2951   22.6646 C   0  0  0  0  0  0  0  0  0  0  0  0
    9.2344  -17.5359   22.8532 O   0  0  0  0  0  0  0  0  0  0  0  0
   10.5485  -15.7803   23.4750 N   0  0  0  0  0  0  0  0  0  0  0  0
   11.2160  -16.5809   24.5344 C   0  0  1  0  0  0  0  0  0  0  0  0
   12.6493  -16.2384   24.5869 C   0  0  0  0  0  0  0  0  0  0  0  0
   13.6203  -17.2155   24.0310 C   0  0  0  0  0  0  0  0  0  0  0  0
   14.9398  -16.6730   23.6897 C   0  0  0  0  0  0  0  0  0  0  0  0
   15.0349  -15.4621   23.2677 O   0  0  0  0  0  0  0  0  0  0  0  0
   10.4900  -16.4589   25.7797 C   0  0  0  0  0  0  0  0  0  0  0  0
    9.5634  -15.6139   25.9859 O   0  0  0  0  0  0  0  0  0  0  0  0
   16.1310  -17.3693   23.7842 O   0  0  0  0  0  0  0  0  0  0  0  0
   10.7604  -17.2902   26.8934 O   0  0  0  0  0  0  0  0  0  0  0  0
  2  4  1  0
  2  1  1  1
  2  3  1  0
  4  5  2  0
  7  6  1  6
  7  9  1  0
  8  7  1  0
  9 11  1  0
  9 10  1  6
 10  4  1  0
 11 12  2  0
 11 13  1  0
 13 14  1  0
 14 15  1  1
 15 16  1  0
 16 17  1  0
 17 21  1  0
 18 17  2  0
 19 14  1  0
 20 19  2  0
 22 19  1  0
M  END
$$$$
