ATE.pdb
     RDKit          3D

 22 21  0  0  1  0  0  0  0  0999 V2000
    9.1925  -17.1912   15.4530 C   0  0  0  0  0  0  0  0  0  0  0  0
    8.8236  -15.7047   15.5117 C   0  0  2  0  0  0  0  0  0  0  0  0
    9.2438  -15.1395   14.2492 N   0  0  0  0  0  0  0  0  0  0  0  0
    9.5408  -15.0968   16.6605 C   0  0  0  0  0  0  0  0  0  0  0  0
   10.7622  -14.7402   16.5582 O   0  0  0  0  0  0  0  0  0  0  0  0
    7.4332  -12.6015   18.9217 C   0  0  0  0  0  0  0  0  0  0  0  0
    8.2764  -13.5149   19.7820 C   0  0  1  0  0  0  0  0  0  0  0  0
    7.4084  -14.6108   20.0611 O   0  0  0  0  0  0  0  0  0  0  0  0
    9.3968  -14.1366   18.9655 C   0  0  2  0  0  0  0  0  0  0  0  0
    8.8319  -14.9227   17.8765 N   0  0  0  0  0  0  0  0  0  0  0  0
   10.2971  -15.0027   19.7242 C   0  0  0  0  0  0  0  0  0  0  0  0
   10.0746  -16.2702   19.6504 O   0  0  0  0  0  0  0  0  0  0  0  0
   11.3795  -14.6192   20.5261 N   0  0  0  0  0  0  0  0  0  0  0  0
   12.2244  -15.5979   21.2590 C   0  0  1  0  0  0  0  0  0  0  0  0
   13.6245  -15.1353   21.2698 C   0  0  0  0  0  0  0  0  0  0  0  0
   14.3555  -15.0957   19.9773 C   0  0  0  0  0  0  0  0  0  0  0  0
   15.7164  -14.5510   20.0356 C   0  0  0  0  0  0  0  0  0  0  0  0
   16.1952  -13.9365   19.0127 O   0  0  0  0  0  0  0  0  0  0  0  0
   11.6428  -15.8850   22.5520 C   0  0  0  0  0  0  0  0  0  0  0  0
   12.0601  -16.7935   23.3366 O   0  0  0  0  0  0  0  0  0  0  0  0
   16.5593  -14.6412   21.1284 O   0  0  0  0  0  0  0  0  0  0  0  0
   10.5367  -15.1601   23.0578 O   0  0  0  0  0  0  0  0  0  0  0  0
  2  4  1  0
  2  1  1  6
  2  3  1  0
  4  5  2  0
  7  6  1  6
  7  9  1  0
  8  7  1  0
  9 11  1  0
  9 10  1  6
 10  4  1  0
 11 12  2  0
 11 13  1  0
 13 14  1  0
 14 15  1  1
 15 16  1  0
 16 17  1  0
 17 21  1  0
 18 17  2  0
 19 14  1  0
 20 19  2  0
 22 19  1  0
M  END
$$$$
