ATE.pdb
     RDKit          3D

 22 21  0  0  1  0  0  0  0  0999 V2000
    8.3932  -19.3952   18.4919 C   0  0  0  0  0  0  0  0  0  0  0  0
    8.0426  -17.9716   18.0447 C   0  0  2  0  0  0  0  0  0  0  0  0
    8.4589  -17.8736   16.6638 N   0  0  0  0  0  0  0  0  0  0  0  0
    8.7763  -17.0206   18.9169 C   0  0  0  0  0  0  0  0  0  0  0  0
    9.9861  -16.6992   18.6667 O   0  0  0  0  0  0  0  0  0  0  0  0
    6.8988  -13.8456   20.4909 C   0  0  0  0  0  0  0  0  0  0  0  0
    7.6750  -14.6101   21.5389 C   0  0  1  0  0  0  0  0  0  0  0  0
    6.7257  -15.5451   22.0458 O   0  0  0  0  0  0  0  0  0  0  0  0
    8.7352  -15.4836   20.8896 C   0  0  2  0  0  0  0  0  0  0  0  0
    8.0967  -16.4778   20.0371 N   0  0  0  0  0  0  0  0  0  0  0  0
    9.6041  -16.1895   21.8291 C   0  0  0  0  0  0  0  0  0  0  0  0
    9.2913  -17.4112   22.0962 O   0  0  0  0  0  0  0  0  0  0  0  0
   10.7431  -15.6959   22.4779 N   0  0  0  0  0  0  0  0  0  0  0  0
   11.5975  -16.5377   23.3556 C   0  0  1  0  0  0  0  0  0  0  0  0
   13.0091  -16.1391   23.2047 C   0  0  0  0  0  0  0  0  0  0  0  0
   14.0299  -16.8774   23.9917 C   0  0  0  0  0  0  0  0  0  0  0  0
   15.4111  -16.4084   23.8357 C   0  0  0  0  0  0  0  0  0  0  0  0
   16.0026  -16.5513   22.7031 O   0  0  0  0  0  0  0  0  0  0  0  0
   11.0790  -16.5317   24.7060 C   0  0  0  0  0  0  0  0  0  0  0  0
   10.3126  -15.6315   25.1723 O   0  0  0  0  0  0  0  0  0  0  0  0
   16.1598  -15.8057   24.8302 O   0  0  0  0  0  0  0  0  0  0  0  0
   11.3913  -17.5516   25.6370 O   0  0  0  0  0  0  0  0  0  0  0  0
  2  4  1  0
  2  1  1  1
  2  3  1  0
  4  5  2  0
  7  6  1  6
  7  9  1  0
  8  7  1  0
  9 11  1  0
  9 10  1  1
 10  4  1  0
 11 12  2  0
 11 13  1  0
 13 14  1  0
 14 15  1  1
 15 16  1  0
 16 17  1  0
 17 21  1  0
 18 17  2  0
 19 14  1  0
 20 19  2  0
 22 19  1  0
M  END
$$$$
