EFF.pdb
     RDKit          3D

 32 33  0  0  1  0  0  0  0  0999 V2000
   11.8521  -16.2949   19.4968 N   0  0  0  0  0  0  0  0  0  0  0  0
   10.7389  -16.8906   20.1257 C   0  0  1  0  0  0  0  0  0  0  0  0
   10.9225  -18.3464   20.3752 C   0  0  0  0  0  0  0  0  0  0  0  0
   12.3211  -18.7425   20.6626 C   0  0  0  0  0  0  0  0  0  0  0  0
   12.5472  -20.1703   20.8657 C   0  0  0  0  0  0  0  0  0  0  0  0
   12.8016  -21.0038   19.9703 O   0  0  0  0  0  0  0  0  0  0  0  0
   10.4646  -16.2241   21.4540 C   0  0  0  0  0  0  0  0  0  0  0  0
   11.3880  -15.5615   21.9454 O   0  0  0  0  0  0  0  0  0  0  0  0
   12.4789  -20.6923   22.1846 O   0  0  0  0  0  0  0  0  0  0  0  0
    9.2184  -16.3787   22.0545 N   0  0  0  0  0  0  0  0  0  0  0  0
    8.8456  -15.7378   23.3307 C   0  0  1  0  0  0  0  0  0  0  0  0
    7.4536  -15.2365   23.1319 C   0  0  0  0  0  0  0  0  0  0  0  0
    6.8823  -14.4156   24.2101 C   0  0  0  0  0  0  0  0  0  0  0  0
    6.1426  -14.9263   25.2492 C   0  0  0  0  0  0  0  0  0  0  0  0
    5.6135  -14.1244   26.2474 C   0  0  0  0  0  0  0  0  0  0  0  0
    5.8068  -12.7652   26.2438 C   0  0  0  0  0  0  0  0  0  0  0  0
    6.5477  -12.2374   25.2068 C   0  0  0  0  0  0  0  0  0  0  0  0
    7.0757  -13.0310   24.2122 C   0  0  0  0  0  0  0  0  0  0  0  0
    8.9789  -16.7374   24.3909 C   0  0  0  0  0  0  0  0  0  0  0  0
    9.2980  -17.9345   24.0334 O   0  0  0  0  0  0  0  0  0  0  0  0
    8.7962  -16.5126   25.7921 N   0  0  0  0  0  0  0  0  0  0  0  0
    8.9424  -17.6114   26.6911 C   0  0  1  0  0  0  0  0  0  0  0  0
    9.2894  -17.1527   28.0999 C   0  0  0  0  0  0  0  0  0  0  0  0
   10.0555  -15.9230   28.1750 C   0  0  0  0  0  0  0  0  0  0  0  0
    9.4360  -14.6947   28.2132 C   0  0  0  0  0  0  0  0  0  0  0  0
   10.1888  -13.5136   28.2834 C   0  0  0  0  0  0  0  0  0  0  0  0
   11.5656  -13.5784   28.3145 C   0  0  0  0  0  0  0  0  0  0  0  0
   12.1867  -14.7893   28.2772 C   0  0  0  0  0  0  0  0  0  0  0  0
   11.4275  -15.9378   28.2083 C   0  0  0  0  0  0  0  0  0  0  0  0
    7.8078  -18.5435   26.6874 C   0  0  0  0  0  0  0  0  0  0  0  0
    6.7622  -18.1969   26.0495 O   0  0  0  0  0  0  0  0  0  0  0  0
    7.8019  -19.7508   27.3195 O   0  0  0  0  0  0  0  0  0  0  0  0
  2  3  1  0
  2  1  1  1
  3  4  1  0
  5  4  1  0
  6  5  2  0
  7  2  1  0
  7  8  2  0
  9  5  1  0
 10  7  1  0
 11 19  1  0
 11 10  1  0
 11 12  1  6
 13 12  1  0
 13 14  2  0
 15 14  1  0
 16 15  2  0
 17 18  2  0
 17 16  1  0
 18 13  1  0
 19 21  1  0
 20 19  2  0
 21 22  1  0
 22 30  1  0
 22 23  1  1
 24 23  1  0
 24 29  1  0
 25 24  2  0
 26 25  1  0
 26 27  2  0
 27 28  1  0
 28 29  2  0
 30 31  2  0
 30 32  1  0
M  END
$$$$
