EFF.pdb
     RDKit          3D

 32 33  0  0  1  0  0  0  0  0999 V2000
    8.9479  -17.9980   18.7895 N   0  0  0  0  0  0  0  0  0  0  0  0
   10.0868  -18.1338   19.6106 C   0  0  1  0  0  0  0  0  0  0  0  0
   11.3643  -18.0335   18.8535 C   0  0  0  0  0  0  0  0  0  0  0  0
   11.3392  -18.6952   17.5279 C   0  0  0  0  0  0  0  0  0  0  0  0
   12.5404  -18.5323   16.7146 C   0  0  0  0  0  0  0  0  0  0  0  0
   13.7097  -18.7733   17.0830 O   0  0  0  0  0  0  0  0  0  0  0  0
   10.0967  -17.0654   20.6793 C   0  0  0  0  0  0  0  0  0  0  0  0
   11.0784  -16.3112   20.7032 O   0  0  0  0  0  0  0  0  0  0  0  0
   12.4049  -18.0596   15.3824 O   0  0  0  0  0  0  0  0  0  0  0  0
    9.0303  -16.9758   21.5694 N   0  0  0  0  0  0  0  0  0  0  0  0
    8.9894  -16.0235   22.6962 C   0  0  1  0  0  0  0  0  0  0  0  0
    7.5800  -15.5345   22.7523 C   0  0  0  0  0  0  0  0  0  0  0  0
    7.2413  -14.6061   23.8414 C   0  0  0  0  0  0  0  0  0  0  0  0
    7.6215  -13.2861   23.8662 C   0  0  0  0  0  0  0  0  0  0  0  0
    7.2904  -12.4383   24.9107 C   0  0  0  0  0  0  0  0  0  0  0  0
    6.5575  -12.8843   25.9826 C   0  0  0  0  0  0  0  0  0  0  0  0
    6.1681  -14.2077   25.9721 C   0  0  0  0  0  0  0  0  0  0  0  0
    6.4952  -15.0542   24.9356 C   0  0  0  0  0  0  0  0  0  0  0  0
    9.4282  -16.7318   23.8990 C   0  0  0  0  0  0  0  0  0  0  0  0
    9.0030  -17.9387   24.0585 O   0  0  0  0  0  0  0  0  0  0  0  0
   10.2930  -16.2158   24.9154 N   0  0  0  0  0  0  0  0  0  0  0  0
   10.7130  -17.0831   25.9682 C   0  0  1  0  0  0  0  0  0  0  0  0
   11.6887  -16.3992   26.9148 C   0  0  0  0  0  0  0  0  0  0  0  0
   11.1074  -15.3752   27.7625 C   0  0  0  0  0  0  0  0  0  0  0  0
   10.8184  -14.1212   27.2749 C   0  0  0  0  0  0  0  0  0  0  0  0
   10.2587  -13.1400   28.1060 C   0  0  0  0  0  0  0  0  0  0  0  0
    9.9934  -13.4301   29.4275 C   0  0  0  0  0  0  0  0  0  0  0  0
   10.2760  -14.6681   29.9181 C   0  0  0  0  0  0  0  0  0  0  0  0
   10.8259  -15.6178   29.0837 C   0  0  0  0  0  0  0  0  0  0  0  0
    9.6083  -17.7215   26.6951 C   0  0  0  0  0  0  0  0  0  0  0  0
    8.4387  -17.2499   26.5227 O   0  0  0  0  0  0  0  0  0  0  0  0
    9.7536  -18.7822   27.5383 O   0  0  0  0  0  0  0  0  0  0  0  0
  2  3  1  0
  2  1  1  6
  3  4  1  0
  5  4  1  0
  6  5  2  0
  7  2  1  0
  7  8  2  0
  9  5  1  0
 10  7  1  0
 11 19  1  0
 11 10  1  0
 11 12  1  1
 13 12  1  0
 13 14  2  0
 15 14  1  0
 16 15  2  0
 17 18  2  0
 17 16  1  0
 18 13  1  0
 19 21  1  0
 20 19  2  0
 21 22  1  0
 22 30  1  0
 22 23  1  1
 24 23  1  0
 24 29  1  0
 25 24  2  0
 26 25  1  0
 26 27  2  0
 27 28  1  0
 28 29  2  0
 30 31  2  0
 30 32  1  0
M  END
$$$$
