EFF.pdb
     RDKit          3D

 32 33  0  0  1  0  0  0  0  0999 V2000
    9.1980  -18.6148   19.7606 N   0  0  0  0  0  0  0  0  0  0  0  0
   10.4466  -18.0784   20.1386 C   0  0  1  0  0  0  0  0  0  0  0  0
   11.0979  -17.2994   19.0503 C   0  0  0  0  0  0  0  0  0  0  0  0
   12.2194  -18.0036   18.3857 C   0  0  0  0  0  0  0  0  0  0  0  0
   12.9200  -17.2474   17.3521 C   0  0  0  0  0  0  0  0  0  0  0  0
   12.6452  -16.0852   16.9850 O   0  0  0  0  0  0  0  0  0  0  0  0
   10.2885  -17.1644   21.3316 C   0  0  0  0  0  0  0  0  0  0  0  0
   11.3168  -16.6211   21.7567 O   0  0  0  0  0  0  0  0  0  0  0  0
   14.0152  -17.8562   16.6838 O   0  0  0  0  0  0  0  0  0  0  0  0
    9.0270  -16.9760   21.8888 N   0  0  0  0  0  0  0  0  0  0  0  0
    8.7895  -16.1958   23.1190 C   0  0  1  0  0  0  0  0  0  0  0  0
    7.3688  -15.7449   23.0355 C   0  0  0  0  0  0  0  0  0  0  0  0
    6.8538  -14.9576   24.1659 C   0  0  0  0  0  0  0  0  0  0  0  0
    6.0652  -15.4781   25.1632 C   0  0  0  0  0  0  0  0  0  0  0  0
    5.5915  -14.7075   26.2126 C   0  0  0  0  0  0  0  0  0  0  0  0
    5.8925  -13.3712   26.3050 C   0  0  0  0  0  0  0  0  0  0  0  0
    6.6836  -12.8338   25.3109 C   0  0  0  0  0  0  0  0  0  0  0  0
    7.1569  -13.5964   24.2656 C   0  0  0  0  0  0  0  0  0  0  0  0
    9.0793  -17.0612   24.2626 C   0  0  0  0  0  0  0  0  0  0  0  0
    8.7306  -18.2989   24.1665 O   0  0  0  0  0  0  0  0  0  0  0  0
    9.7217  -16.6674   25.4790 N   0  0  0  0  0  0  0  0  0  0  0  0
   10.0090  -17.6633   26.4601 C   0  0  1  0  0  0  0  0  0  0  0  0
   11.1385  -17.2400   27.3878 C   0  0  0  0  0  0  0  0  0  0  0  0
   11.2360  -15.8122   27.6262 C   0  0  0  0  0  0  0  0  0  0  0  0
   11.0016  -15.2767   28.8721 C   0  0  0  0  0  0  0  0  0  0  0  0
   11.0969  -13.8944   29.0881 C   0  0  0  0  0  0  0  0  0  0  0  0
   11.4288  -13.0580   28.0435 C   0  0  0  0  0  0  0  0  0  0  0  0
   11.6625  -13.5792   26.8078 C   0  0  0  0  0  0  0  0  0  0  0  0
   11.5633  -14.9410   26.6175 C   0  0  0  0  0  0  0  0  0  0  0  0
    8.8331  -18.1220   27.2104 C   0  0  0  0  0  0  0  0  0  0  0  0
    7.7206  -17.5524   26.9689 O   0  0  0  0  0  0  0  0  0  0  0  0
    8.8553  -19.1143   28.1442 O   0  0  0  0  0  0  0  0  0  0  0  0
  2  3  1  0
  2  1  1  6
  3  4  1  0
  5  4  1  0
  6  5  2  0
  7  2  1  0
  7  8  2  0
  9  5  1  0
 10  7  1  0
 11 19  1  0
 11 10  1  0
 11 12  1  1
 13 12  1  0
 13 14  2  0
 15 14  1  0
 16 15  2  0
 17 18  2  0
 17 16  1  0
 18 13  1  0
 19 21  1  0
 20 19  2  0
 21 22  1  0
 22 30  1  0
 22 23  1  1
 24 23  1  0
 24 29  1  0
 25 24  2  0
 26 25  1  0
 26 27  2  0
 27 28  1  0
 28 29  2  0
 30 31  2  0
 30 32  1  0
M  END
$$$$
