EFF.pdb
     RDKit          3D

 32 33  0  0  1  0  0  0  0  0999 V2000
    9.4026  -17.1572   18.3949 N   0  0  0  0  0  0  0  0  0  0  0  0
    9.9232  -17.7263   19.5759 C   0  0  1  0  0  0  0  0  0  0  0  0
   11.2855  -18.2976   19.3942 C   0  0  0  0  0  0  0  0  0  0  0  0
   11.5145  -18.9134   18.0660 C   0  0  0  0  0  0  0  0  0  0  0  0
   12.3219  -20.1296   18.0612 C   0  0  0  0  0  0  0  0  0  0  0  0
   12.8334  -20.6703   19.0648 O   0  0  0  0  0  0  0  0  0  0  0  0
    9.9985  -16.6889   20.6723 C   0  0  0  0  0  0  0  0  0  0  0  0
   10.9761  -15.9291   20.6533 O   0  0  0  0  0  0  0  0  0  0  0  0
   12.5683  -20.7814   16.8239 O   0  0  0  0  0  0  0  0  0  0  0  0
    8.9928  -16.6320   21.6329 N   0  0  0  0  0  0  0  0  0  0  0  0
    9.0014  -15.6839   22.7640 C   0  0  1  0  0  0  0  0  0  0  0  0
    7.5858  -15.2350   22.9169 C   0  0  0  0  0  0  0  0  0  0  0  0
    7.2989  -14.3045   24.0190 C   0  0  0  0  0  0  0  0  0  0  0  0
    6.5441  -14.6326   25.1191 C   0  0  0  0  0  0  0  0  0  0  0  0
    6.2877  -13.7303   26.1386 C   0  0  0  0  0  0  0  0  0  0  0  0
    6.7827  -12.4504   26.0957 C   0  0  0  0  0  0  0  0  0  0  0  0
    7.5427  -12.1059   24.9972 C   0  0  0  0  0  0  0  0  0  0  0  0
    7.8002  -12.9999   23.9811 C   0  0  0  0  0  0  0  0  0  0  0  0
    9.5398  -16.3825   23.9314 C   0  0  0  0  0  0  0  0  0  0  0  0
    8.8346  -17.3469   24.4164 O   0  0  0  0  0  0  0  0  0  0  0  0
   10.7818  -16.1032   24.5848 N   0  0  0  0  0  0  0  0  0  0  0  0
   10.8368  -16.1527   26.0101 C   0  0  1  0  0  0  0  0  0  0  0  0
   10.7945  -14.7638   26.6305 C   0  0  0  0  0  0  0  0  0  0  0  0
   10.6649  -14.7395   28.0754 C   0  0  0  0  0  0  0  0  0  0  0  0
   11.3970  -15.5880   28.8742 C   0  0  0  0  0  0  0  0  0  0  0  0
   11.2603  -15.5556   30.2695 C   0  0  0  0  0  0  0  0  0  0  0  0
   10.3836  -14.6654   30.8524 C   0  0  0  0  0  0  0  0  0  0  0  0
    9.6556  -13.8224   30.0698 C   0  0  0  0  0  0  0  0  0  0  0  0
    9.8054  -13.8709   28.7003 C   0  0  0  0  0  0  0  0  0  0  0  0
    9.8448  -17.0491   26.6172 C   0  0  0  0  0  0  0  0  0  0  0  0
    8.6228  -16.8718   26.3081 O   0  0  0  0  0  0  0  0  0  0  0  0
   10.1465  -18.0547   27.4860 O   0  0  0  0  0  0  0  0  0  0  0  0
  2  3  1  0
  2  1  1  6
  3  4  1  0
  5  4  1  0
  6  5  2  0
  7  2  1  0
  7  8  2  0
  9  5  1  0
 10  7  1  0
 11 19  1  0
 11 10  1  0
 11 12  1  1
 13 12  1  0
 13 14  2  0
 15 14  1  0
 16 15  2  0
 17 18  2  0
 17 16  1  0
 18 13  1  0
 19 21  1  0
 20 19  2  0
 21 22  1  0
 22 30  1  0
 22 23  1  1
 24 23  1  0
 24 29  1  0
 25 24  2  0
 26 25  1  0
 26 27  2  0
 27 28  1  0
 28 29  2  0
 30 31  2  0
 30 32  1  0
M  END
$$$$
