EFF.pdb
     RDKit          3D

 32 33  0  0  1  0  0  0  0  0999 V2000
   10.0180  -17.1943   18.0764 N   0  0  0  0  0  0  0  0  0  0  0  0
    9.6520  -17.8344   19.2788 C   0  0  1  0  0  0  0  0  0  0  0  0
   10.4419  -19.0677   19.5444 C   0  0  0  0  0  0  0  0  0  0  0  0
   10.8309  -19.8150   18.3255 C   0  0  0  0  0  0  0  0  0  0  0  0
   11.6322  -21.0151   18.5457 C   0  0  0  0  0  0  0  0  0  0  0  0
   12.7748  -21.0476   19.0502 O   0  0  0  0  0  0  0  0  0  0  0  0
    9.8420  -16.9011   20.4521 C   0  0  0  0  0  0  0  0  0  0  0  0
   10.8825  -16.2299   20.4665 O   0  0  0  0  0  0  0  0  0  0  0  0
   11.0969  -22.2739   18.1642 O   0  0  0  0  0  0  0  0  0  0  0  0
    8.8657  -16.8363   21.4420 N   0  0  0  0  0  0  0  0  0  0  0  0
    8.9160  -15.8893   22.5730 C   0  0  1  0  0  0  0  0  0  0  0  0
    7.5109  -15.4218   22.7626 C   0  0  0  0  0  0  0  0  0  0  0  0
    7.2574  -14.5210   23.8971 C   0  0  0  0  0  0  0  0  0  0  0  0
    6.6380  -14.9117   25.0595 C   0  0  0  0  0  0  0  0  0  0  0  0
    6.4093  -14.0363   26.1086 C   0  0  0  0  0  0  0  0  0  0  0  0
    6.7962  -12.7211   26.0336 C   0  0  0  0  0  0  0  0  0  0  0  0
    7.4196  -12.3136   24.8724 C   0  0  0  0  0  0  0  0  0  0  0  0
    7.6492  -13.1807   23.8268 C   0  0  0  0  0  0  0  0  0  0  0  0
    9.4750  -16.5960   23.7258 C   0  0  0  0  0  0  0  0  0  0  0  0
    9.2638  -17.8660   23.7959 O   0  0  0  0  0  0  0  0  0  0  0  0
   10.2431  -16.0132   24.7831 N   0  0  0  0  0  0  0  0  0  0  0  0
   10.8740  -16.8733   25.7313 C   0  0  1  0  0  0  0  0  0  0  0  0
   11.7804  -16.1055   26.6824 C   0  0  0  0  0  0  0  0  0  0  0  0
   11.0919  -15.2612   27.6406 C   0  0  0  0  0  0  0  0  0  0  0  0
   10.9304  -15.6498   28.9509 C   0  0  0  0  0  0  0  0  0  0  0  0
   10.2607  -14.8250   29.8662 C   0  0  0  0  0  0  0  0  0  0  0  0
    9.7564  -13.6100   29.4535 C   0  0  0  0  0  0  0  0  0  0  0  0
    9.9118  -13.2176   28.1592 C   0  0  0  0  0  0  0  0  0  0  0  0
   10.5734  -14.0439   27.2760 C   0  0  0  0  0  0  0  0  0  0  0  0
    9.9452  -17.7502   26.4555 C   0  0  0  0  0  0  0  0  0  0  0  0
    8.6994  -17.5201   26.3317 O   0  0  0  0  0  0  0  0  0  0  0  0
   10.3290  -18.7905   27.2478 O   0  0  0  0  0  0  0  0  0  0  0  0
  2  3  1  0
  2  1  1  6
  3  4  1  0
  5  4  1  0
  6  5  2  0
  7  2  1  0
  7  8  2  0
  9  5  1  0
 10  7  1  0
 11 19  1  0
 11 10  1  0
 11 12  1  1
 13 12  1  0
 13 14  2  0
 15 14  1  0
 16 15  2  0
 17 18  2  0
 17 16  1  0
 18 13  1  0
 19 21  1  0
 20 19  2  0
 21 22  1  0
 22 30  1  0
 22 23  1  1
 24 23  1  0
 24 29  1  0
 25 24  2  0
 26 25  1  0
 26 27  2  0
 27 28  1  0
 28 29  2  0
 30 31  2  0
 30 32  1  0
M  END
$$$$
