EFF.pdb
     RDKit          3D

 32 33  0  0  1  0  0  0  0  0999 V2000
   10.2226  -17.0861   18.2181 N   0  0  0  0  0  0  0  0  0  0  0  0
   10.0033  -17.7690   19.4327 C   0  0  1  0  0  0  0  0  0  0  0  0
   11.0281  -18.8135   19.7053 C   0  0  0  0  0  0  0  0  0  0  0  0
   11.0690  -19.9021   18.7009 C   0  0  0  0  0  0  0  0  0  0  0  0
   11.9801  -21.0039   18.9961 C   0  0  0  0  0  0  0  0  0  0  0  0
   13.1960  -21.0420   18.7115 O   0  0  0  0  0  0  0  0  0  0  0  0
   10.0108  -16.7992   20.5916 C   0  0  0  0  0  0  0  0  0  0  0  0
   10.9894  -16.0456   20.6804 O   0  0  0  0  0  0  0  0  0  0  0  0
   11.4729  -22.1496   19.6645 O   0  0  0  0  0  0  0  0  0  0  0  0
    8.9458  -16.7933   21.4878 N   0  0  0  0  0  0  0  0  0  0  0  0
    8.8630  -15.8826   22.6463 C   0  0  1  0  0  0  0  0  0  0  0  0
    7.4244  -15.4962   22.7459 C   0  0  0  0  0  0  0  0  0  0  0  0
    7.0521  -14.5988   23.8499 C   0  0  0  0  0  0  0  0  0  0  0  0
    7.3762  -13.2644   23.8924 C   0  0  0  0  0  0  0  0  0  0  0  0
    7.0145  -12.4466   24.9506 C   0  0  0  0  0  0  0  0  0  0  0  0
    6.3064  -12.9387   26.0190 C   0  0  0  0  0  0  0  0  0  0  0  0
    5.9734  -14.2771   25.9908 C   0  0  0  0  0  0  0  0  0  0  0  0
    6.3309  -15.0939   24.9406 C   0  0  0  0  0  0  0  0  0  0  0  0
    9.3760  -16.5962   23.8160 C   0  0  0  0  0  0  0  0  0  0  0  0
    8.9803  -17.8120   23.9833 O   0  0  0  0  0  0  0  0  0  0  0  0
   10.2841  -16.0763   24.7920 N   0  0  0  0  0  0  0  0  0  0  0  0
   10.7774  -16.9487   25.8080 C   0  0  1  0  0  0  0  0  0  0  0  0
   11.7994  -16.2619   26.7021 C   0  0  0  0  0  0  0  0  0  0  0  0
   11.2569  -15.2564   27.5963 C   0  0  0  0  0  0  0  0  0  0  0  0
   11.0209  -15.5313   28.9239 C   0  0  0  0  0  0  0  0  0  0  0  0
   10.4940  -14.5507   29.7767 C   0  0  0  0  0  0  0  0  0  0  0  0
   10.2073  -13.2953   29.2842 C   0  0  0  0  0  0  0  0  0  0  0  0
   10.4378  -13.0146   27.9722 C   0  0  0  0  0  0  0  0  0  0  0  0
   10.9563  -13.9933   27.1514 C   0  0  0  0  0  0  0  0  0  0  0  0
    9.7264  -17.6092   26.5926 C   0  0  0  0  0  0  0  0  0  0  0  0
   10.0787  -18.5449   27.3803 O   0  0  0  0  0  0  0  0  0  0  0  0
    8.4038  -17.2861   26.5327 O   0  0  0  0  0  0  0  0  0  0  0  0
  2  3  1  0
  2  1  1  6
  3  4  1  0
  5  4  1  0
  6  5  2  0
  7  2  1  0
  7  8  2  0
  9  5  1  0
 10  7  1  0
 11 19  1  0
 11 10  1  0
 11 12  1  1
 13 12  1  0
 13 14  2  0
 15 14  1  0
 16 15  2  0
 17 18  2  0
 17 16  1  0
 18 13  1  0
 19 21  1  0
 20 19  2  0
 21 22  1  0
 22 30  1  0
 22 23  1  1
 24 23  1  0
 24 29  1  0
 25 24  2  0
 26 25  1  0
 26 27  2  0
 27 28  1  0
 28 29  2  0
 30 31  2  0
 30 32  1  0
M  END
$$$$
