EFF.pdb
     RDKit          3D

 32 33  0  0  1  0  0  0  0  0999 V2000
   11.5379  -16.8920   18.8469 N   0  0  0  0  0  0  0  0  0  0  0  0
   10.4912  -17.3254   19.6874 C   0  0  1  0  0  0  0  0  0  0  0  0
   10.6286  -18.7490   20.0996 C   0  0  0  0  0  0  0  0  0  0  0  0
   10.3398  -19.7246   19.0224 C   0  0  0  0  0  0  0  0  0  0  0  0
   10.4178  -21.1317   19.4031 C   0  0  0  0  0  0  0  0  0  0  0  0
   11.2704  -21.9510   18.9995 O   0  0  0  0  0  0  0  0  0  0  0  0
   10.4386  -16.4832   20.9410 C   0  0  0  0  0  0  0  0  0  0  0  0
   11.5246  -16.1367   21.4246 O   0  0  0  0  0  0  0  0  0  0  0  0
    9.4552  -21.6487   20.3102 O   0  0  0  0  0  0  0  0  0  0  0  0
    9.2044  -16.1411   21.4861 N   0  0  0  0  0  0  0  0  0  0  0  0
    9.0433  -15.5604   22.8334 C   0  0  1  0  0  0  0  0  0  0  0  0
    7.6689  -14.9779   22.8533 C   0  0  0  0  0  0  0  0  0  0  0  0
    7.2643  -14.2707   24.0776 C   0  0  0  0  0  0  0  0  0  0  0  0
    6.4689  -14.8236   25.0519 C   0  0  0  0  0  0  0  0  0  0  0  0
    6.1011  -14.1282   26.1923 C   0  0  0  0  0  0  0  0  0  0  0  0
    6.5203  -12.8380   26.4037 C   0  0  0  0  0  0  0  0  0  0  0  0
    7.3198  -12.2690   25.4342 C   0  0  0  0  0  0  0  0  0  0  0  0
    7.6880  -12.9568   24.2987 C   0  0  0  0  0  0  0  0  0  0  0  0
    9.2580  -16.6277   23.8110 C   0  0  0  0  0  0  0  0  0  0  0  0
    9.5452  -17.7975   23.3507 O   0  0  0  0  0  0  0  0  0  0  0  0
    9.1875  -16.4969   25.2341 N   0  0  0  0  0  0  0  0  0  0  0  0
   10.1777  -17.1409   26.0351 C   0  0  1  0  0  0  0  0  0  0  0  0
   11.1943  -16.1528   26.5882 C   0  0  0  0  0  0  0  0  0  0  0  0
   10.7053  -15.3003   27.6555 C   0  0  0  0  0  0  0  0  0  0  0  0
   10.3711  -15.8155   28.8870 C   0  0  0  0  0  0  0  0  0  0  0  0
    9.8974  -14.9803   29.9092 C   0  0  0  0  0  0  0  0  0  0  0  0
    9.7632  -13.6270   29.6826 C   0  0  0  0  0  0  0  0  0  0  0  0
   10.0917  -13.1090   28.4673 C   0  0  0  0  0  0  0  0  0  0  0  0
   10.5554  -13.9478   27.4765 C   0  0  0  0  0  0  0  0  0  0  0  0
    9.6278  -18.0020   27.0899 C   0  0  0  0  0  0  0  0  0  0  0  0
    8.3663  -17.9942   27.2593 O   0  0  0  0  0  0  0  0  0  0  0  0
   10.3776  -18.8059   27.8953 O   0  0  0  0  0  0  0  0  0  0  0  0
  2  3  1  0
  2  1  1  6
  3  4  1  0
  5  4  1  0
  6  5  2  0
  7  2  1  0
  7  8  2  0
  9  5  1  0
 10  7  1  0
 11 19  1  0
 11 10  1  0
 11 12  1  6
 13 12  1  0
 13 14  2  0
 15 14  1  0
 16 15  2  0
 17 18  2  0
 17 16  1  0
 18 13  1  0
 19 21  1  0
 20 19  2  0
 21 22  1  0
 22 30  1  0
 22 23  1  1
 24 23  1  0
 24 29  1  0
 25 24  2  0
 26 25  1  0
 26 27  2  0
 27 28  1  0
 28 29  2  0
 30 31  2  0
 30 32  1  0
M  END
$$$$
