EFF.pdb
     RDKit          3D

 32 33  0  0  1  0  0  0  0  0999 V2000
    9.0470  -19.1233   21.0444 N   0  0  0  0  0  0  0  0  0  0  0  0
   10.3554  -18.6074   21.1516 C   0  0  1  0  0  0  0  0  0  0  0  0
   10.9557  -18.2670   19.8328 C   0  0  0  0  0  0  0  0  0  0  0  0
    9.9953  -17.7050   18.8543 C   0  0  0  0  0  0  0  0  0  0  0  0
   10.5209  -17.4692   17.5130 C   0  0  0  0  0  0  0  0  0  0  0  0
   11.6999  -17.6609   17.1468 O   0  0  0  0  0  0  0  0  0  0  0  0
   10.3611  -17.3566   21.9997 C   0  0  0  0  0  0  0  0  0  0  0  0
   11.4030  -16.6875   21.9976 O   0  0  0  0  0  0  0  0  0  0  0  0
    9.6423  -16.9780   16.5113 O   0  0  0  0  0  0  0  0  0  0  0  0
    9.2252  -17.0174   22.7291 N   0  0  0  0  0  0  0  0  0  0  0  0
    9.1546  -15.8484   23.6273 C   0  0  1  0  0  0  0  0  0  0  0  0
    7.7496  -15.3538   23.5262 C   0  0  0  0  0  0  0  0  0  0  0  0
    7.3721  -14.2394   24.4084 C   0  0  0  0  0  0  0  0  0  0  0  0
    6.8023  -14.4050   25.6475 C   0  0  0  0  0  0  0  0  0  0  0  0
    6.4531  -13.3331   26.4527 C   0  0  0  0  0  0  0  0  0  0  0  0
    6.6634  -12.0394   26.0438 C   0  0  0  0  0  0  0  0  0  0  0  0
    7.2350  -11.8568   24.8016 C   0  0  0  0  0  0  0  0  0  0  0  0
    7.5838  -12.9198   23.9977 C   0  0  0  0  0  0  0  0  0  0  0  0
    9.5419  -16.2882   24.9680 C   0  0  0  0  0  0  0  0  0  0  0  0
    9.5094  -15.4065   25.9083 O   0  0  0  0  0  0  0  0  0  0  0  0
    9.9473  -17.6091   25.3398 N   0  0  0  0  0  0  0  0  0  0  0  0
   11.0961  -17.7688   26.1714 C   0  0  1  0  0  0  0  0  0  0  0  0
   10.7732  -17.5360   27.6401 C   0  0  0  0  0  0  0  0  0  0  0  0
   10.5456  -16.1511   28.0076 C   0  0  0  0  0  0  0  0  0  0  0  0
   10.0659  -15.8100   29.2516 C   0  0  0  0  0  0  0  0  0  0  0  0
    9.8482  -14.4673   29.5929 C   0  0  0  0  0  0  0  0  0  0  0  0
   10.1161  -13.4740   28.6751 C   0  0  0  0  0  0  0  0  0  0  0  0
   10.5910  -13.8024   27.4423 C   0  0  0  0  0  0  0  0  0  0  0  0
   10.7978  -15.1285   27.1276 C   0  0  0  0  0  0  0  0  0  0  0  0
   11.8126  -19.0341   25.9669 C   0  0  0  0  0  0  0  0  0  0  0  0
   12.9075  -19.1998   26.5946 O   0  0  0  0  0  0  0  0  0  0  0  0
   11.3827  -20.0386   25.1524 O   0  0  0  0  0  0  0  0  0  0  0  0
  2  3  1  0
  2  1  1  6
  3  4  1  0
  5  4  1  0
  6  5  2  0
  7  2  1  0
  7  8  2  0
  9  5  1  0
 10  7  1  0
 11 19  1  0
 11 10  1  0
 11 12  1  1
 13 12  1  0
 13 14  2  0
 15 14  1  0
 16 15  2  0
 17 18  2  0
 17 16  1  0
 18 13  1  0
 19 21  1  0
 20 19  2  0
 21 22  1  0
 22 30  1  0
 22 23  1  1
 24 23  1  0
 24 29  1  0
 25 24  2  0
 26 25  1  0
 26 27  2  0
 27 28  1  0
 28 29  2  0
 30 31  2  0
 30 32  1  0
M  END
$$$$
