CFL.pdb
     RDKit          3D

 26 26  0  0  1  0  0  0  0  0999 V2000
    6.6405  -19.2706   20.9565 N   0  0  0  0  0  0  0  0  0  0  0  0
    6.4668  -18.2458   21.9554 C   0  0  1  0  0  0  0  0  0  0  0  0
    6.1780  -18.8732   23.2844 C   0  0  0  0  0  0  0  0  0  0  0  0
    5.5899  -17.6982   24.5067 S   0  0  0  0  0  0  0  0  0  0  0  0
    7.7120  -17.4251   22.1149 C   0  0  0  0  0  0  0  0  0  0  0  0
    8.8357  -17.9398   22.0205 O   0  0  0  0  0  0  0  0  0  0  0  0
    7.5839  -16.0546   22.3748 N   0  0  0  0  0  0  0  0  0  0  0  0
    8.7017  -15.1467   22.5327 C   0  0  1  0  0  0  0  0  0  0  0  0
    8.2243  -13.7498   22.2009 C   0  0  0  0  0  0  0  0  0  0  0  0
    7.8519  -13.5630   20.7901 C   0  0  0  0  0  0  0  0  0  0  0  0
    6.5768  -13.8615   20.3703 C   0  0  0  0  0  0  0  0  0  0  0  0
    6.1950  -13.6901   19.0366 C   0  0  0  0  0  0  0  0  0  0  0  0
    7.0947  -13.2174   18.1183 C   0  0  0  0  0  0  0  0  0  0  0  0
    8.3731  -12.9139   18.5200 C   0  0  0  0  0  0  0  0  0  0  0  0
    8.7445  -13.0896   19.8591 C   0  0  0  0  0  0  0  0  0  0  0  0
    9.2049  -15.2850   23.9146 C   0  0  0  0  0  0  0  0  0  0  0  0
   10.4361  -15.2502   24.1317 O   0  0  0  0  0  0  0  0  0  0  0  0
    8.1210  -12.0902   26.8489 C   0  0  0  0  0  0  0  0  0  0  0  0
    7.1775  -13.2820   26.6987 C   0  0  2  0  0  0  0  0  0  0  0  0
    5.7747  -12.9393   27.0034 C   0  0  0  0  0  0  0  0  0  0  0  0
    7.7293  -14.5628   27.1672 C   0  0  0  0  0  0  0  0  0  0  0  0
    8.8389  -15.1631   26.3596 C   0  0  2  0  0  0  0  0  0  0  0  0
    8.3289  -15.4566   25.0059 N   0  0  0  0  0  0  0  0  0  0  0  0
    9.2793  -16.4462   26.8997 C   0  0  0  0  0  0  0  0  0  0  0  0
    9.7409  -16.5257   28.0571 O   0  0  0  0  0  0  0  0  0  0  0  0
    9.2150  -17.6351   26.1782 O   0  0  0  0  0  0  0  0  0  0  0  0
  2  5  1  0
  2  1  1  6
  3  2  1  0
  4  3  1  0
  5  6  2  0
  7  8  1  0
  7  5  1  0
  9 10  1  0
  8  9  1  1
 10 11  2  0
 11 12  1  0
 13 12  2  0
 14 13  1  0
 15 14  2  0
 15 10  1  0
 16  8  1  0
 17 16  2  0
 19 18  1  1
 19 21  1  0
 20 19  1  0
 22 21  1  1
 22 24  1  0
 22 23  1  0
 23 16  1  0
 24 26  1  0
 25 24  2  0
M  END
$$$$
