CFL.pdb
     RDKit          3D

 26 26  0  0  1  0  0  0  0  0999 V2000
   10.9707  -17.1526   18.8735 N   0  0  0  0  0  0  0  0  0  0  0  0
   10.2910  -17.6575   20.0403 C   0  0  1  0  0  0  0  0  0  0  0  0
   11.0329  -18.8356   20.5925 C   0  0  0  0  0  0  0  0  0  0  0  0
   10.6490  -20.3710   19.7466 S   0  0  0  0  0  0  0  0  0  0  0  0
   10.2321  -16.6236   21.1253 C   0  0  0  0  0  0  0  0  0  0  0  0
   11.1296  -15.7786   21.2552 O   0  0  0  0  0  0  0  0  0  0  0  0
    9.1364  -16.6281   21.9980 N   0  0  0  0  0  0  0  0  0  0  0  0
    8.8683  -15.5930   22.9754 C   0  0  1  0  0  0  0  0  0  0  0  0
    7.3714  -15.3813   23.0386 C   0  0  0  0  0  0  0  0  0  0  0  0
    6.9543  -14.3277   23.9767 C   0  0  0  0  0  0  0  0  0  0  0  0
    6.3919  -14.6665   25.1850 C   0  0  0  0  0  0  0  0  0  0  0  0
    5.9900  -13.6860   26.0968 C   0  0  0  0  0  0  0  0  0  0  0  0
    6.1520  -12.3593   25.7969 C   0  0  0  0  0  0  0  0  0  0  0  0
    6.7122  -12.0026   24.5941 C   0  0  0  0  0  0  0  0  0  0  0  0
    7.1113  -12.9936   23.6883 C   0  0  0  0  0  0  0  0  0  0  0  0
    9.4577  -16.0209   24.2605 C   0  0  0  0  0  0  0  0  0  0  0  0
    9.8432  -17.2022   24.4022 O   0  0  0  0  0  0  0  0  0  0  0  0
   10.1356  -14.0376   30.1146 C   0  0  0  0  0  0  0  0  0  0  0  0
   10.6064  -14.9475   28.9816 C   0  0  2  0  0  0  0  0  0  0  0  0
   12.0348  -15.3019   29.0925 C   0  0  0  0  0  0  0  0  0  0  0  0
   10.0391  -14.6267   27.6626 C   0  0  0  0  0  0  0  0  0  0  0  0
   10.2772  -15.6125   26.5602 C   0  0  2  0  0  0  0  0  0  0  0  0
    9.5996  -15.1275   25.3419 N   0  0  0  0  0  0  0  0  0  0  0  0
    9.6813  -16.9138   26.8489 C   0  0  0  0  0  0  0  0  0  0  0  0
   10.3946  -17.8790   27.1934 O   0  0  0  0  0  0  0  0  0  0  0  0
    8.3134  -17.1579   26.7615 O   0  0  0  0  0  0  0  0  0  0  0  0
  2  5  1  0
  2  1  1  6
  3  2  1  0
  4  3  1  0
  5  6  2  0
  7  8  1  0
  7  5  1  0
  9 10  1  0
  8  9  1  1
 10 11  2  0
 11 12  1  0
 13 12  2  0
 14 13  1  0
 15 14  2  0
 15 10  1  0
 16  8  1  0
 17 16  2  0
 19 18  1  1
 19 21  1  0
 20 19  1  0
 22 21  1  1
 22 24  1  0
 22 23  1  0
 23 16  1  0
 24 26  1  0
 25 24  2  0
M  END
$$$$
