CFL.pdb
     RDKit          3D

 26 26  0  0  1  0  0  0  0  0999 V2000
   11.8388  -16.7552   19.5116 N   0  0  0  0  0  0  0  0  0  0  0  0
   10.8520  -17.3110   20.4036 C   0  0  1  0  0  0  0  0  0  0  0  0
   11.3226  -18.6347   20.9230 C   0  0  0  0  0  0  0  0  0  0  0  0
   12.8042  -18.5120   21.9280 S   0  0  0  0  0  0  0  0  0  0  0  0
   10.6310  -16.4228   21.5918 C   0  0  0  0  0  0  0  0  0  0  0  0
   11.4598  -15.5571   21.9081 O   0  0  0  0  0  0  0  0  0  0  0  0
    9.4620  -16.5885   22.3456 N   0  0  0  0  0  0  0  0  0  0  0  0
    9.1016  -15.7663   23.4826 C   0  0  1  0  0  0  0  0  0  0  0  0
    7.6043  -15.5505   23.4519 C   0  0  0  0  0  0  0  0  0  0  0  0
    7.1258  -14.5344   24.4020 C   0  0  0  0  0  0  0  0  0  0  0  0
    7.3569  -13.2012   24.1570 C   0  0  0  0  0  0  0  0  0  0  0  0
    6.9103  -12.2146   25.0410 C   0  0  0  0  0  0  0  0  0  0  0  0
    6.2286  -12.5651   26.1762 C   0  0  0  0  0  0  0  0  0  0  0  0
    5.9886  -13.8925   26.4369 C   0  0  0  0  0  0  0  0  0  0  0  0
    6.4408  -14.8725   25.5441 C   0  0  0  0  0  0  0  0  0  0  0  0
    9.5736  -16.4510   24.7034 C   0  0  0  0  0  0  0  0  0  0  0  0
    9.9302  -17.6483   24.6434 O   0  0  0  0  0  0  0  0  0  0  0  0
   11.5462  -13.7676   27.3043 C   0  0  0  0  0  0  0  0  0  0  0  0
   10.3053  -14.1749   28.0964 C   0  0  2  0  0  0  0  0  0  0  0  0
   10.0129  -13.2519   29.2103 C   0  0  0  0  0  0  0  0  0  0  0  0
   10.1557  -15.6246   28.2976 C   0  0  0  0  0  0  0  0  0  0  0  0
   10.2547  -16.4952   27.0827 C   0  0  2  0  0  0  0  0  0  0  0  0
    9.6341  -15.7873   25.9458 N   0  0  0  0  0  0  0  0  0  0  0  0
    9.4988  -17.7353   27.2326 C   0  0  0  0  0  0  0  0  0  0  0  0
    9.9093  -18.6451   27.9828 O   0  0  0  0  0  0  0  0  0  0  0  0
    8.3010  -17.9788   26.5660 O   0  0  0  0  0  0  0  0  0  0  0  0
  2  5  1  0
  2  1  1  6
  3  2  1  0
  4  3  1  0
  5  6  2  0
  7  8  1  0
  7  5  1  0
  9 10  1  0
  8  9  1  1
 10 11  2  0
 11 12  1  0
 13 12  2  0
 14 13  1  0
 15 14  2  0
 15 10  1  0
 16  8  1  0
 17 16  2  0
 19 18  1  1
 19 21  1  0
 20 19  1  0
 22 21  1  1
 22 24  1  0
 22 23  1  0
 23 16  1  0
 24 26  1  0
 25 24  2  0
M  END
$$$$
