CFL.pdb
     RDKit          3D

 26 26  0  0  1  0  0  0  0  0999 V2000
   11.4267  -16.3445   19.3128 N   0  0  0  0  0  0  0  0  0  0  0  0
   10.8462  -17.1052   20.3911 C   0  0  1  0  0  0  0  0  0  0  0  0
   11.7602  -18.2290   20.7718 C   0  0  0  0  0  0  0  0  0  0  0  0
   10.8856  -19.6832   21.3554 S   0  0  0  0  0  0  0  0  0  0  0  0
   10.6548  -16.2572   21.6134 C   0  0  0  0  0  0  0  0  0  0  0  0
   11.5260  -15.4556   21.9806 O   0  0  0  0  0  0  0  0  0  0  0  0
    9.4645  -16.3867   22.3405 N   0  0  0  0  0  0  0  0  0  0  0  0
    9.1029  -15.5520   23.4680 C   0  0  1  0  0  0  0  0  0  0  0  0
    7.6630  -15.1216   23.2926 C   0  0  0  0  0  0  0  0  0  0  0  0
    7.1923  -14.1734   24.3141 C   0  0  0  0  0  0  0  0  0  0  0  0
    7.5890  -12.8576   24.2654 C   0  0  0  0  0  0  0  0  0  0  0  0
    7.1540  -11.9346   25.2209 C   0  0  0  0  0  0  0  0  0  0  0  0
    6.3174  -12.3313   26.2304 C   0  0  0  0  0  0  0  0  0  0  0  0
    5.9109  -13.6421   26.2945 C   0  0  0  0  0  0  0  0  0  0  0  0
    6.3531  -14.5583   25.3316 C   0  0  0  0  0  0  0  0  0  0  0  0
    9.3396  -16.3301   24.7010 C   0  0  0  0  0  0  0  0  0  0  0  0
    9.4395  -17.5753   24.6380 O   0  0  0  0  0  0  0  0  0  0  0  0
   11.5326  -13.9783   27.4262 C   0  0  0  0  0  0  0  0  0  0  0  0
   10.2205  -14.2428   28.1622 C   0  0  2  0  0  0  0  0  0  0  0  0
    9.9950  -13.3043   29.2787 C   0  0  0  0  0  0  0  0  0  0  0  0
    9.8905  -15.6663   28.3335 C   0  0  0  0  0  0  0  0  0  0  0  0
    9.9024  -16.5215   27.1038 C   0  0  2  0  0  0  0  0  0  0  0  0
    9.4572  -15.7037   25.9586 N   0  0  0  0  0  0  0  0  0  0  0  0
    8.9496  -17.6242   27.1926 C   0  0  0  0  0  0  0  0  0  0  0  0
    7.8704  -17.5859   26.5658 O   0  0  0  0  0  0  0  0  0  0  0  0
    9.1758  -18.7621   27.9622 O   0  0  0  0  0  0  0  0  0  0  0  0
  2  5  1  0
  2  1  1  6
  3  2  1  0
  4  3  1  0
  5  6  2  0
  7  8  1  0
  7  5  1  0
  9 10  1  0
  8  9  1  6
 10 11  2  0
 11 12  1  0
 13 12  2  0
 14 13  1  0
 15 14  2  0
 15 10  1  0
 16  8  1  0
 17 16  2  0
 19 18  1  1
 19 21  1  0
 20 19  1  0
 22 21  1  1
 22 24  1  0
 22 23  1  0
 23 16  1  0
 24 26  1  0
 25 24  2  0
M  END
$$$$
