CFL.pdb
     RDKit          3D

 26 26  0  0  1  0  0  0  0  0999 V2000
   11.6848  -16.7652   19.6631 N   0  0  0  0  0  0  0  0  0  0  0  0
   10.4154  -17.0013   20.3042 C   0  0  1  0  0  0  0  0  0  0  0  0
   10.2802  -18.4528   20.6480 C   0  0  0  0  0  0  0  0  0  0  0  0
   11.3233  -18.9532   22.0198 S   0  0  0  0  0  0  0  0  0  0  0  0
   10.3016  -16.2307   21.5859 C   0  0  0  0  0  0  0  0  0  0  0  0
   11.2772  -15.6341   22.0641 O   0  0  0  0  0  0  0  0  0  0  0  0
    9.0636  -16.1954   22.2403 N   0  0  0  0  0  0  0  0  0  0  0  0
    8.7849  -15.3952   23.4153 C   0  0  1  0  0  0  0  0  0  0  0  0
    7.3384  -14.9554   23.3533 C   0  0  0  0  0  0  0  0  0  0  0  0
    6.9634  -13.9811   24.3897 C   0  0  0  0  0  0  0  0  0  0  0  0
    6.1245  -14.3548   25.4132 C   0  0  0  0  0  0  0  0  0  0  0  0
    5.7549  -13.4504   26.4131 C   0  0  0  0  0  0  0  0  0  0  0  0
    6.2279  -12.1651   26.3878 C   0  0  0  0  0  0  0  0  0  0  0  0
    7.0671  -11.7744   25.3726 C   0  0  0  0  0  0  0  0  0  0  0  0
    7.4308  -12.6891   24.3761 C   0  0  0  0  0  0  0  0  0  0  0  0
    9.1023  -16.2119   24.6044 C   0  0  0  0  0  0  0  0  0  0  0  0
    9.2853  -17.4429   24.4793 O   0  0  0  0  0  0  0  0  0  0  0  0
   11.7521  -14.2368   27.9038 C   0  0  0  0  0  0  0  0  0  0  0  0
   10.2583  -14.3133   28.2141 C   0  0  2  0  0  0  0  0  0  0  0  0
    9.8382  -13.3334   29.2346 C   0  0  0  0  0  0  0  0  0  0  0  0
    9.7091  -15.6777   28.2492 C   0  0  0  0  0  0  0  0  0  0  0  0
    9.7610  -16.4663   26.9768 C   0  0  2  0  0  0  0  0  0  0  0  0
    9.2058  -15.6384   25.8882 N   0  0  0  0  0  0  0  0  0  0  0  0
    8.9175  -17.6567   27.0337 C   0  0  0  0  0  0  0  0  0  0  0  0
    9.2367  -18.6303   27.7472 O   0  0  0  0  0  0  0  0  0  0  0  0
    7.7319  -17.7814   26.3146 O   0  0  0  0  0  0  0  0  0  0  0  0
  2  5  1  0
  2  1  1  1
  3  2  1  0
  4  3  1  0
  5  6  2  0
  7  8  1  0
  7  5  1  0
  9 10  1  0
  8  9  1  1
 10 11  2  0
 11 12  1  0
 13 12  2  0
 14 13  1  0
 15 14  2  0
 15 10  1  0
 16  8  1  0
 17 16  2  0
 19 18  1  1
 19 21  1  0
 20 19  1  0
 22 21  1  1
 22 24  1  0
 22 23  1  0
 23 16  1  0
 24 26  1  0
 25 24  2  0
M  END
$$$$
