CFL.pdb
     RDKit          3D

 26 26  0  0  1  0  0  0  0  0999 V2000
   10.8236  -16.8416   18.7917 N   0  0  0  0  0  0  0  0  0  0  0  0
   10.3718  -17.4108   20.0367 C   0  0  1  0  0  0  0  0  0  0  0  0
   11.3562  -18.4322   20.5171 C   0  0  0  0  0  0  0  0  0  0  0  0
   10.8022  -19.3134   21.9790 S   0  0  0  0  0  0  0  0  0  0  0  0
   10.2631  -16.3642   21.1055 C   0  0  0  0  0  0  0  0  0  0  0  0
   11.0724  -15.4276   21.1705 O   0  0  0  0  0  0  0  0  0  0  0  0
    9.2227  -16.4628   22.0382 N   0  0  0  0  0  0  0  0  0  0  0  0
    8.9458  -15.4724   23.0586 C   0  0  1  0  0  0  0  0  0  0  0  0
    7.4495  -15.2527   23.1080 C   0  0  0  0  0  0  0  0  0  0  0  0
    7.0316  -14.1773   24.0206 C   0  0  0  0  0  0  0  0  0  0  0  0
    6.3229  -14.4792   25.1597 C   0  0  0  0  0  0  0  0  0  0  0  0
    5.9164  -13.4776   26.0461 C   0  0  0  0  0  0  0  0  0  0  0  0
    6.2211  -12.1668   25.7904 C   0  0  0  0  0  0  0  0  0  0  0  0
    6.9285  -11.8469   24.6569 C   0  0  0  0  0  0  0  0  0  0  0  0
    7.3308  -12.8589   23.7759 C   0  0  0  0  0  0  0  0  0  0  0  0
    9.5117  -15.9640   24.3314 C   0  0  0  0  0  0  0  0  0  0  0  0
    9.4234  -17.1776   24.6206 O   0  0  0  0  0  0  0  0  0  0  0  0
   10.2680  -13.9224   30.0251 C   0  0  0  0  0  0  0  0  0  0  0  0
   10.6526  -14.9716   28.9837 C   0  0  2  0  0  0  0  0  0  0  0  0
   11.9515  -15.6103   29.2721 C   0  0  0  0  0  0  0  0  0  0  0  0
   10.3129  -14.6123   27.5980 C   0  0  0  0  0  0  0  0  0  0  0  0
   10.5762  -15.6423   26.5427 C   0  0  2  0  0  0  0  0  0  0  0  0
   10.1544  -15.0963   25.2379 N   0  0  0  0  0  0  0  0  0  0  0  0
    9.7767  -16.8480   26.7406 C   0  0  0  0  0  0  0  0  0  0  0  0
   10.3179  -17.9252   27.0655 O   0  0  0  0  0  0  0  0  0  0  0  0
    8.3936  -16.8750   26.5840 O   0  0  0  0  0  0  0  0  0  0  0  0
  2  5  1  0
  2  1  1  6
  3  2  1  0
  4  3  1  0
  5  6  2  0
  7  8  1  0
  7  5  1  0
  9 10  1  0
  8  9  1  1
 10 11  2  0
 11 12  1  0
 13 12  2  0
 14 13  1  0
 15 14  2  0
 15 10  1  0
 16  8  1  0
 17 16  2  0
 19 18  1  1
 19 21  1  0
 20 19  1  0
 22 21  1  1
 22 24  1  0
 22 23  1  0
 23 16  1  0
 24 26  1  0
 25 24  2  0
M  END
$$$$
