CFL.pdb
     RDKit          3D

 26 26  0  0  1  0  0  0  0  0999 V2000
   10.4890  -18.1790   19.7741 N   0  0  0  0  0  0  0  0  0  0  0  0
    9.5906  -18.2184   20.9009 C   0  0  1  0  0  0  0  0  0  0  0  0
    9.9493  -19.3621   21.7989 C   0  0  0  0  0  0  0  0  0  0  0  0
   11.5569  -19.1737   22.5737 S   0  0  0  0  0  0  0  0  0  0  0  0
    9.6894  -16.9655   21.7194 C   0  0  0  0  0  0  0  0  0  0  0  0
   10.6789  -16.2233   21.6389 O   0  0  0  0  0  0  0  0  0  0  0  0
    8.6357  -16.6441   22.5847 N   0  0  0  0  0  0  0  0  0  0  0  0
    8.5761  -15.4372   23.3838 C   0  0  1  0  0  0  0  0  0  0  0  0
    7.1609  -15.2810   23.8960 C   0  0  0  0  0  0  0  0  0  0  0  0
    6.9591  -14.0992   24.7484 C   0  0  0  0  0  0  0  0  0  0  0  0
    7.4868  -12.8851   24.3763 C   0  0  0  0  0  0  0  0  0  0  0  0
    7.3073  -11.7453   25.1654 C   0  0  0  0  0  0  0  0  0  0  0  0
    6.5956  -11.8217   26.3333 C   0  0  0  0  0  0  0  0  0  0  0  0
    6.0611  -13.0267   26.7206 C   0  0  0  0  0  0  0  0  0  0  0  0
    6.2473  -14.1622   25.9219 C   0  0  0  0  0  0  0  0  0  0  0  0
    9.5821  -15.5564   24.4587 C   0  0  0  0  0  0  0  0  0  0  0  0
   10.4575  -14.6726   24.5885 O   0  0  0  0  0  0  0  0  0  0  0  0
   10.1604  -14.0027   29.3582 C   0  0  0  0  0  0  0  0  0  0  0  0
   10.5574  -14.5402   27.9847 C   0  0  2  0  0  0  0  0  0  0  0  0
   10.7682  -13.4676   26.9930 C   0  0  0  0  0  0  0  0  0  0  0  0
    9.8594  -15.7717   27.5837 C   0  0  0  0  0  0  0  0  0  0  0  0
   10.4974  -16.5978   26.5093 C   0  0  2  0  0  0  0  0  0  0  0  0
    9.5840  -16.6481   25.3509 N   0  0  0  0  0  0  0  0  0  0  0  0
   10.6846  -17.9857   26.9220 C   0  0  0  0  0  0  0  0  0  0  0  0
    9.7983  -18.8389   26.7091 O   0  0  0  0  0  0  0  0  0  0  0  0
   11.8345  -18.4377   27.5637 O   0  0  0  0  0  0  0  0  0  0  0  0
  2  5  1  0
  2  1  1  6
  3  2  1  0
  4  3  1  0
  5  6  2  0
  7  8  1  0
  7  5  1  0
  9 10  1  0
  8  9  1  1
 10 11  2  0
 11 12  1  0
 13 12  2  0
 14 13  1  0
 15 14  2  0
 15 10  1  0
 16  8  1  0
 17 16  2  0
 19 18  1  1
 19 21  1  0
 20 19  1  0
 22 21  1  1
 22 24  1  0
 22 23  1  0
 23 16  1  0
 24 26  1  0
 25 24  2  0
M  END
$$$$
