CFL.pdb
     RDKit          3D

 26 26  0  0  1  0  0  0  0  0999 V2000
   10.3265  -17.3335   19.0018 N   0  0  0  0  0  0  0  0  0  0  0  0
   10.1222  -17.8270   20.3409 C   0  0  1  0  0  0  0  0  0  0  0  0
   11.2261  -18.7693   20.7107 C   0  0  0  0  0  0  0  0  0  0  0  0
   11.0414  -20.3959   19.9756 S   0  0  0  0  0  0  0  0  0  0  0  0
   10.1408  -16.7095   21.3411 C   0  0  0  0  0  0  0  0  0  0  0  0
   11.0419  -15.8583   21.3349 O   0  0  0  0  0  0  0  0  0  0  0  0
    9.1141  -16.6422   22.2916 N   0  0  0  0  0  0  0  0  0  0  0  0
    9.0164  -15.6221   23.3155 C   0  0  1  0  0  0  0  0  0  0  0  0
    7.5566  -15.4568   23.6778 C   0  0  0  0  0  0  0  0  0  0  0  0
    7.2836  -14.3089   24.5564 C   0  0  0  0  0  0  0  0  0  0  0  0
    7.7887  -13.0687   24.2441 C   0  0  0  0  0  0  0  0  0  0  0  0
    7.5417  -11.9601   25.0591 C   0  0  0  0  0  0  0  0  0  0  0  0
    6.7849  -12.0944   26.1929 C   0  0  0  0  0  0  0  0  0  0  0  0
    6.2721  -13.3262   26.5205 C   0  0  0  0  0  0  0  0  0  0  0  0
    6.5260  -14.4299   25.6963 C   0  0  0  0  0  0  0  0  0  0  0  0
    9.8622  -16.0398   24.4522 C   0  0  0  0  0  0  0  0  0  0  0  0
   11.0173  -16.4695   24.2395 O   0  0  0  0  0  0  0  0  0  0  0  0
   10.7763  -13.4318   27.5932 C   0  0  0  0  0  0  0  0  0  0  0  0
    9.6199  -14.2562   28.1554 C   0  0  2  0  0  0  0  0  0  0  0  0
    8.9920  -13.6266   29.3334 C   0  0  0  0  0  0  0  0  0  0  0  0
    9.8414  -15.7106   28.1422 C   0  0  0  0  0  0  0  0  0  0  0  0
   10.3422  -16.3123   26.8651 C   0  0  2  0  0  0  0  0  0  0  0  0
    9.4004  -15.9672   25.7823 N   0  0  0  0  0  0  0  0  0  0  0  0
   10.3634  -17.7713   26.9166 C   0  0  0  0  0  0  0  0  0  0  0  0
   11.2960  -18.3754   27.4859 O   0  0  0  0  0  0  0  0  0  0  0  0
    9.3701  -18.5648   26.3490 O   0  0  0  0  0  0  0  0  0  0  0  0
  2  5  1  0
  2  1  1  6
  3  2  1  0
  4  3  1  0
  5  6  2  0
  7  8  1  0
  7  5  1  0
  9 10  1  0
  8  9  1  1
 10 11  2  0
 11 12  1  0
 13 12  2  0
 14 13  1  0
 15 14  2  0
 15 10  1  0
 16  8  1  0
 17 16  2  0
 19 18  1  1
 19 21  1  0
 20 19  1  0
 22 21  1  1
 22 24  1  0
 22 23  1  0
 23 16  1  0
 24 26  1  0
 25 24  2  0
M  END
$$$$
