CFL.pdb
     RDKit          3D

 26 26  0  0  1  0  0  0  0  0999 V2000
    8.8817  -16.2487   18.3616 N   0  0  0  0  0  0  0  0  0  0  0  0
    8.3262  -16.7699   19.5855 C   0  0  1  0  0  0  0  0  0  0  0  0
    8.7484  -18.1950   19.7706 C   0  0  0  0  0  0  0  0  0  0  0  0
    8.6251  -19.1683   18.2680 S   0  0  0  0  0  0  0  0  0  0  0  0
    8.8203  -16.0040   20.7767 C   0  0  0  0  0  0  0  0  0  0  0  0
    9.9699  -15.5417   20.8100 O   0  0  0  0  0  0  0  0  0  0  0  0
    7.9538  -15.8175   21.8614 N   0  0  0  0  0  0  0  0  0  0  0  0
    8.2726  -15.0277   23.0332 C   0  0  1  0  0  0  0  0  0  0  0  0
    6.9751  -14.5384   23.6387 C   0  0  0  0  0  0  0  0  0  0  0  0
    7.1460  -13.7688   24.8807 C   0  0  0  0  0  0  0  0  0  0  0  0
    7.2422  -12.3979   24.8322 C   0  0  0  0  0  0  0  0  0  0  0  0
    7.4014  -11.6417   25.9971 C   0  0  0  0  0  0  0  0  0  0  0  0
    7.4645  -12.2617   27.2169 C   0  0  0  0  0  0  0  0  0  0  0  0
    7.3701  -13.6307   27.2842 C   0  0  0  0  0  0  0  0  0  0  0  0
    7.2108  -14.3782   26.1104 C   0  0  0  0  0  0  0  0  0  0  0  0
    9.0670  -15.8741   23.9466 C   0  0  0  0  0  0  0  0  0  0  0  0
    8.7579  -17.0759   24.1032 O   0  0  0  0  0  0  0  0  0  0  0  0
   14.9214  -15.7913   25.8978 C   0  0  0  0  0  0  0  0  0  0  0  0
   13.5905  -16.5305   25.7735 C   0  0  2  0  0  0  0  0  0  0  0  0
   13.7569  -17.9358   25.3543 C   0  0  0  0  0  0  0  0  0  0  0  0
   12.4955  -15.7290   25.2051 C   0  0  0  0  0  0  0  0  0  0  0  0
   11.1206  -16.3215   25.2540 C   0  0  2  0  0  0  0  0  0  0  0  0
   10.1739  -15.3614   24.6535 N   0  0  0  0  0  0  0  0  0  0  0  0
   10.6582  -16.5238   26.6241 C   0  0  0  0  0  0  0  0  0  0  0  0
   10.7335  -17.6477   27.1627 O   0  0  0  0  0  0  0  0  0  0  0  0
   10.1169  -15.5027   27.4005 O   0  0  0  0  0  0  0  0  0  0  0  0
  2  5  1  0
  2  1  1  6
  3  2  1  0
  4  3  1  0
  5  6  2  0
  7  8  1  0
  7  5  1  0
  9 10  1  0
  8  9  1  1
 10 11  2  0
 11 12  1  0
 13 12  2  0
 14 13  1  0
 15 14  2  0
 15 10  1  0
 16  8  1  0
 17 16  2  0
 19 18  1  6
 19 21  1  0
 20 19  1  0
 22 21  1  1
 22 24  1  0
 22 23  1  0
 23 16  1  0
 24 26  1  0
 25 24  2  0
M  END
$$$$
