CFL.pdb
     RDKit          3D

 26 26  0  0  1  0  0  0  0  0999 V2000
   10.3478  -18.5639   19.6684 N   0  0  0  0  0  0  0  0  0  0  0  0
    9.6475  -18.5861   20.9283 C   0  0  1  0  0  0  0  0  0  0  0  0
   10.2704  -19.5982   21.8399 C   0  0  0  0  0  0  0  0  0  0  0  0
   10.2751  -21.2568   21.1547 S   0  0  0  0  0  0  0  0  0  0  0  0
    9.7300  -17.2578   21.6200 C   0  0  0  0  0  0  0  0  0  0  0  0
   10.6815  -16.4889   21.4203 O   0  0  0  0  0  0  0  0  0  0  0  0
    8.7050  -16.8963   22.5036 N   0  0  0  0  0  0  0  0  0  0  0  0
    8.5892  -15.5950   23.1294 C   0  0  1  0  0  0  0  0  0  0  0  0
    7.1726  -15.4416   23.6385 C   0  0  0  0  0  0  0  0  0  0  0  0
    6.9378  -14.2004   24.3924 C   0  0  0  0  0  0  0  0  0  0  0  0
    7.3526  -12.9946   23.8777 C   0  0  0  0  0  0  0  0  0  0  0  0
    7.1391  -11.7996   24.5710 C   0  0  0  0  0  0  0  0  0  0  0  0
    6.5071  -11.8123   25.7862 C   0  0  0  0  0  0  0  0  0  0  0  0
    6.0859  -13.0081   26.3156 C   0  0  0  0  0  0  0  0  0  0  0  0
    6.3051  -14.1992   25.6120 C   0  0  0  0  0  0  0  0  0  0  0  0
    9.6102  -15.5125   24.1937 C   0  0  0  0  0  0  0  0  0  0  0  0
   10.4410  -14.5777   24.1838 O   0  0  0  0  0  0  0  0  0  0  0  0
   10.1811  -15.5680   29.6995 C   0  0  0  0  0  0  0  0  0  0  0  0
   10.4047  -14.6764   28.4795 C   0  0  2  0  0  0  0  0  0  0  0  0
   10.3831  -13.2390   28.8135 C   0  0  0  0  0  0  0  0  0  0  0  0
    9.7472  -15.1451   27.2497 C   0  0  0  0  0  0  0  0  0  0  0  0
   10.4896  -16.1463   26.4190 C   0  0  2  0  0  0  0  0  0  0  0  0
    9.6755  -16.4662   25.2301 N   0  0  0  0  0  0  0  0  0  0  0  0
   10.6741  -17.4133   27.1207 C   0  0  0  0  0  0  0  0  0  0  0  0
   11.7327  -17.6514   27.7384 O   0  0  0  0  0  0  0  0  0  0  0  0
    9.7064  -18.4139   27.1467 O   0  0  0  0  0  0  0  0  0  0  0  0
  2  5  1  0
  2  1  1  6
  3  2  1  0
  4  3  1  0
  5  6  2  0
  7  8  1  0
  7  5  1  0
  9 10  1  0
  8  9  1  1
 10 11  2  0
 11 12  1  0
 13 12  2  0
 14 13  1  0
 15 14  2  0
 15 10  1  0
 16  8  1  0
 17 16  2  0
 19 18  1  1
 19 21  1  0
 20 19  1  0
 22 21  1  1
 22 24  1  0
 22 23  1  0
 23 16  1  0
 24 26  1  0
 25 24  2  0
M  END
$$$$
