CFL.pdb
     RDKit          3D

 26 26  0  0  1  0  0  0  0  0999 V2000
   10.5269  -17.2214   19.1183 N   0  0  0  0  0  0  0  0  0  0  0  0
    9.8347  -17.6630   20.3033 C   0  0  1  0  0  0  0  0  0  0  0  0
   10.4635  -18.9194   20.8224 C   0  0  0  0  0  0  0  0  0  0  0  0
   12.1875  -18.7109   21.2749 S   0  0  0  0  0  0  0  0  0  0  0  0
    9.9217  -16.6403   21.3970 C   0  0  0  0  0  0  0  0  0  0  0  0
   10.8336  -15.8010   21.4189 O   0  0  0  0  0  0  0  0  0  0  0  0
    8.9469  -16.6487   22.4029 N   0  0  0  0  0  0  0  0  0  0  0  0
    8.8397  -15.6458   23.4428 C   0  0  1  0  0  0  0  0  0  0  0  0
    7.3896  -15.5596   23.8662 C   0  0  0  0  0  0  0  0  0  0  0  0
    7.0778  -14.3895   24.7014 C   0  0  0  0  0  0  0  0  0  0  0  0
    6.3286  -14.5408   25.8445 C   0  0  0  0  0  0  0  0  0  0  0  0
    6.0205  -13.4468   26.6583 C   0  0  0  0  0  0  0  0  0  0  0  0
    6.4651  -12.1946   26.3256 C   0  0  0  0  0  0  0  0  0  0  0  0
    7.2150  -12.0248   25.1870 C   0  0  0  0  0  0  0  0  0  0  0  0
    7.5176  -13.1283   24.3791 C   0  0  0  0  0  0  0  0  0  0  0  0
    9.7519  -16.0313   24.5387 C   0  0  0  0  0  0  0  0  0  0  0  0
   10.9677  -16.2032   24.3010 O   0  0  0  0  0  0  0  0  0  0  0  0
   11.1793  -13.7263   27.6662 C   0  0  0  0  0  0  0  0  0  0  0  0
    9.8788  -14.3290   28.1941 C   0  0  2  0  0  0  0  0  0  0  0  0
    9.3475  -13.6012   29.3630 C   0  0  0  0  0  0  0  0  0  0  0  0
    9.8321  -15.7993   28.1728 C   0  0  0  0  0  0  0  0  0  0  0  0
   10.2819  -16.4774   26.9151 C   0  0  2  0  0  0  0  0  0  0  0  0
    9.2870  -16.2128   25.8573 N   0  0  0  0  0  0  0  0  0  0  0  0
   10.3246  -17.9297   27.0593 C   0  0  0  0  0  0  0  0  0  0  0  0
    9.3605  -18.6348   26.6956 O   0  0  0  0  0  0  0  0  0  0  0  0
   11.4155  -18.6067   27.5979 O   0  0  0  0  0  0  0  0  0  0  0  0
  2  5  1  0
  2  1  1  6
  3  2  1  0
  4  3  1  0
  5  6  2  0
  7  8  1  0
  7  5  1  0
  9 10  1  0
  8  9  1  1
 10 11  2  0
 11 12  1  0
 13 12  2  0
 14 13  1  0
 15 14  2  0
 15 10  1  0
 16  8  1  0
 17 16  2  0
 19 18  1  1
 19 21  1  0
 20 19  1  0
 22 21  1  1
 22 24  1  0
 22 23  1  0
 23 16  1  0
 24 26  1  0
 25 24  2  0
M  END
$$$$
