CFL.pdb
     RDKit          3D

 26 26  0  0  1  0  0  0  0  0999 V2000
    6.4831  -19.2331   21.0565 N   0  0  0  0  0  0  0  0  0  0  0  0
    6.3982  -18.1710   22.0275 C   0  0  1  0  0  0  0  0  0  0  0  0
    6.1414  -18.7433   23.3876 C   0  0  0  0  0  0  0  0  0  0  0  0
    5.8554  -17.4888   24.6386 S   0  0  0  0  0  0  0  0  0  0  0  0
    7.6837  -17.4023   22.1066 C   0  0  0  0  0  0  0  0  0  0  0  0
    8.7750  -17.9558   21.9084 O   0  0  0  0  0  0  0  0  0  0  0  0
    7.6312  -16.0360   22.4110 N   0  0  0  0  0  0  0  0  0  0  0  0
    8.7972  -15.1966   22.5964 C   0  0  1  0  0  0  0  0  0  0  0  0
    8.4241  -13.7811   22.2136 C   0  0  0  0  0  0  0  0  0  0  0  0
    8.0137  -13.6285   20.8092 C   0  0  0  0  0  0  0  0  0  0  0  0
    6.6794  -13.6478   20.4770 C   0  0  0  0  0  0  0  0  0  0  0  0
    6.2613  -13.5015   19.1511 C   0  0  0  0  0  0  0  0  0  0  0  0
    7.1842  -13.3349   18.1527 C   0  0  0  0  0  0  0  0  0  0  0  0
    8.5216  -13.3131   18.4664 C   0  0  0  0  0  0  0  0  0  0  0  0
    8.9290  -13.4606   19.7984 C   0  0  0  0  0  0  0  0  0  0  0  0
    9.2330  -15.3318   24.0013 C   0  0  0  0  0  0  0  0  0  0  0  0
   10.4499  -15.4545   24.2631 O   0  0  0  0  0  0  0  0  0  0  0  0
    8.1463  -12.0465   26.8778 C   0  0  0  0  0  0  0  0  0  0  0  0
    7.1827  -13.2289   26.7956 C   0  0  2  0  0  0  0  0  0  0  0  0
    5.7997  -12.8622   27.1574 C   0  0  0  0  0  0  0  0  0  0  0  0
    7.7403  -14.5071   27.2643 C   0  0  0  0  0  0  0  0  0  0  0  0
    8.8235  -15.1238   26.4335 C   0  0  2  0  0  0  0  0  0  0  0  0
    8.3081  -15.3265   25.0653 N   0  0  0  0  0  0  0  0  0  0  0  0
    9.1951  -16.4517   26.9136 C   0  0  0  0  0  0  0  0  0  0  0  0
    9.6799  -16.6044   28.0540 O   0  0  0  0  0  0  0  0  0  0  0  0
    9.0372  -17.6057   26.1508 O   0  0  0  0  0  0  0  0  0  0  0  0
  2  5  1  0
  2  1  1  6
  3  2  1  0
  4  3  1  0
  5  6  2  0
  7  8  1  0
  7  5  1  0
  9 10  1  0
  8  9  1  1
 10 11  2  0
 11 12  1  0
 13 12  2  0
 14 13  1  0
 15 14  2  0
 15 10  1  0
 16  8  1  0
 17 16  2  0
 19 18  1  1
 19 21  1  0
 20 19  1  0
 22 21  1  1
 22 24  1  0
 22 23  1  0
 23 16  1  0
 24 26  1  0
 25 24  2  0
M  END
$$$$
