CFL.pdb
     RDKit          3D

 26 26  0  0  1  0  0  0  0  0999 V2000
   11.2662  -17.0251   19.1002 N   0  0  0  0  0  0  0  0  0  0  0  0
   10.4192  -17.4769   20.1757 C   0  0  1  0  0  0  0  0  0  0  0  0
   10.9993  -18.7097   20.7978 C   0  0  0  0  0  0  0  0  0  0  0  0
   10.7881  -20.1769   19.7864 S   0  0  0  0  0  0  0  0  0  0  0  0
   10.3150  -16.4428   21.2570 C   0  0  0  0  0  0  0  0  0  0  0  0
   11.2375  -15.6428   21.4703 O   0  0  0  0  0  0  0  0  0  0  0  0
    9.1475  -16.3948   22.0296 N   0  0  0  0  0  0  0  0  0  0  0  0
    8.9014  -15.4233   23.0757 C   0  0  1  0  0  0  0  0  0  0  0  0
    7.4201  -15.1152   23.0933 C   0  0  0  0  0  0  0  0  0  0  0  0
    7.0138  -14.1867   24.1595 C   0  0  0  0  0  0  0  0  0  0  0  0
    6.3694  -14.6630   25.2771 C   0  0  0  0  0  0  0  0  0  0  0  0
    5.9755  -13.8037   26.3069 C   0  0  0  0  0  0  0  0  0  0  0  0
    6.2281  -12.4604   26.2171 C   0  0  0  0  0  0  0  0  0  0  0  0
    6.8710  -11.9671   25.1076 C   0  0  0  0  0  0  0  0  0  0  0  0
    7.2612  -12.8375   24.0819 C   0  0  0  0  0  0  0  0  0  0  0  0
    9.4009  -15.9894   24.3453 C   0  0  0  0  0  0  0  0  0  0  0  0
    9.5374  -17.2273   24.4601 O   0  0  0  0  0  0  0  0  0  0  0  0
   10.6736  -14.1918   30.1618 C   0  0  0  0  0  0  0  0  0  0  0  0
   10.8698  -15.2156   29.0454 C   0  0  2  0  0  0  0  0  0  0  0  0
   12.1301  -15.9716   29.1815 C   0  0  0  0  0  0  0  0  0  0  0  0
   10.4367  -14.7614   27.7147 C   0  0  0  0  0  0  0  0  0  0  0  0
   10.2527  -15.8115   26.6625 C   0  0  2  0  0  0  0  0  0  0  0  0
    9.7311  -15.1667   25.4416 N   0  0  0  0  0  0  0  0  0  0  0  0
    9.2486  -16.8007   27.0435 C   0  0  0  0  0  0  0  0  0  0  0  0
    8.0311  -16.5519   26.9223 O   0  0  0  0  0  0  0  0  0  0  0  0
    9.5743  -18.0544   27.5538 O   0  0  0  0  0  0  0  0  0  0  0  0
  2  5  1  0
  2  1  1  6
  3  2  1  0
  4  3  1  0
  5  6  2  0
  7  8  1  0
  7  5  1  0
  9 10  1  0
  8  9  1  1
 10 11  2  0
 11 12  1  0
 13 12  2  0
 14 13  1  0
 15 14  2  0
 15 10  1  0
 16  8  1  0
 17 16  2  0
 19 18  1  1
 19 21  1  0
 20 19  1  0
 22 21  1  1
 22 24  1  0
 22 23  1  0
 23 16  1  0
 24 26  1  0
 25 24  2  0
M  END
$$$$
