CFL.pdb
     RDKit          3D

 26 26  0  0  1  0  0  0  0  0999 V2000
    8.1734  -21.1932   23.6509 N   0  0  0  0  0  0  0  0  0  0  0  0
    7.3055  -20.0487   23.5275 C   0  0  1  0  0  0  0  0  0  0  0  0
    6.7294  -19.6994   24.8651 C   0  0  0  0  0  0  0  0  0  0  0  0
    7.9316  -18.9764   25.9843 S   0  0  0  0  0  0  0  0  0  0  0  0
    8.0578  -18.8454   23.0420 C   0  0  0  0  0  0  0  0  0  0  0  0
    9.2935  -18.7871   23.1203 O   0  0  0  0  0  0  0  0  0  0  0  0
    7.3351  -17.7782   22.4934 N   0  0  0  0  0  0  0  0  0  0  0  0
    7.9262  -16.5250   22.0708 C   0  0  1  0  0  0  0  0  0  0  0  0
    6.8557  -15.7088   21.3797 C   0  0  0  0  0  0  0  0  0  0  0  0
    7.3437  -14.4469   20.8023 C   0  0  0  0  0  0  0  0  0  0  0  0
    7.9071  -14.4374   19.5479 C   0  0  0  0  0  0  0  0  0  0  0  0
    8.3756  -13.2521   18.9737 C   0  0  0  0  0  0  0  0  0  0  0  0
    8.2793  -12.0701   19.6593 C   0  0  0  0  0  0  0  0  0  0  0  0
    7.7190  -12.0609   20.9137 C   0  0  0  0  0  0  0  0  0  0  0  0
    7.2530  -13.2547   21.4791 C   0  0  0  0  0  0  0  0  0  0  0  0
    8.4907  -15.8655   23.2659 C   0  0  0  0  0  0  0  0  0  0  0  0
    9.6438  -15.3832   23.2205 O   0  0  0  0  0  0  0  0  0  0  0  0
    5.9656  -12.2246   27.2241 C   0  0  0  0  0  0  0  0  0  0  0  0
    7.2399  -12.8432   26.6526 C   0  0  2  0  0  0  0  0  0  0  0  0
    8.0049  -11.8989   25.8151 C   0  0  0  0  0  0  0  0  0  0  0  0
    7.1023  -14.2442   26.2251 C   0  0  0  0  0  0  0  0  0  0  0  0
    8.2702  -14.8584   25.5162 C   0  0  2  0  0  0  0  0  0  0  0  0
    7.7601  -15.7631   24.4673 N   0  0  0  0  0  0  0  0  0  0  0  0
    9.0713  -15.6976   26.4027 C   0  0  0  0  0  0  0  0  0  0  0  0
    9.7323  -15.1921   27.3335 O   0  0  0  0  0  0  0  0  0  0  0  0
    9.1488  -17.0815   26.2718 O   0  0  0  0  0  0  0  0  0  0  0  0
  2  5  1  0
  2  1  1  1
  3  2  1  0
  4  3  1  0
  5  6  2  0
  7  8  1  0
  7  5  1  0
  9 10  1  0
  8  9  1  1
 10 11  2  0
 11 12  1  0
 13 12  2  0
 14 13  1  0
 15 14  2  0
 15 10  1  0
 16  8  1  0
 17 16  2  0
 19 18  1  6
 19 21  1  0
 20 19  1  0
 22 21  1  1
 22 24  1  0
 22 23  1  0
 23 16  1  0
 24 26  1  0
 25 24  2  0
M  END
$$$$
