RAC.pdb
     RDKit          3D

 23 22  0  0  1  0  0  0  0  0999 V2000
    7.1275  -12.9108   18.9368 N   0  0  0  0  0  0  0  0  0  0  0  0
    8.1616  -13.4927   18.1360 C   0  0  0  0  0  0  0  0  0  0  0  0
    9.1510  -12.7525   17.7464 N   0  0  0  0  0  0  0  0  0  0  0  0
    8.1240  -14.8573   17.7630 N   0  0  0  0  0  0  0  0  0  0  0  0
    7.3054  -15.8314   18.4891 C   0  0  0  0  0  0  0  0  0  0  0  0
    7.2440  -15.4806   19.9403 C   0  0  0  0  0  0  0  0  0  0  0  0
    6.5035  -16.4640   20.7840 C   0  0  0  0  0  0  0  0  0  0  0  0
    7.4376  -17.5004   21.3356 C   0  0  2  0  0  0  0  0  0  0  0  0
    6.9350  -18.8137   21.0307 N   0  0  0  0  0  0  0  0  0  0  0  0
    7.6892  -17.3153   22.7869 C   0  0  0  0  0  0  0  0  0  0  0  0
    6.7025  -17.3503   23.5654 O   0  0  0  0  0  0  0  0  0  0  0  0
    9.8915  -13.1442   17.1266 C   0  0  0  0  0  0  0  0  0  0  0  0
   10.6547  -17.0252   25.1305 C   0  0  1  0  0  0  0  0  0  0  0  0
    9.2196  -16.7534   24.7075 N   0  0  0  0  0  0  0  0  0  0  0  0
    8.9696  -17.1018   23.3494 C   0  0  0  0  0  0  0  0  0  0  0  0
    8.9393  -15.3327   25.0152 O   0  0  0  0  0  0  0  0  0  0  0  0
    9.3914  -14.4790   24.1929 N   0  0  0  0  0  0  0  0  0  0  0  0
    8.2159  -14.8884   26.1432 C   0  0  1  0  0  0  0  0  0  0  0  0
    8.1386  -13.4865   26.4222 C   0  0  0  0  0  0  0  0  0  0  0  0
    6.7603  -12.9147   26.2058 S   0  0  0  0  0  0  0  0  0  0  0  0
    5.5985  -13.8982   27.1957 C   0  0  0  0  0  0  0  0  0  0  0  0
    8.5442  -13.2481   27.8288 O   0  0  0  0  0  0  0  0  0  0  0  0
    8.5642  -12.0684   28.2410 O   0  0  0  0  0  0  0  0  0  0  0  0
  1  2  1  0
  2  3  2  0
  4  2  1  0
  5  4  1  0
  6  5  1  0
  7  6  1  0
  8  9  1  1
  8  7  1  0
  8 10  1  0
 10 11  2  0
 10 14  1  0
 13 12  1  1
 14 13  1  0
 15 13  1  0
 15 17  1  0
 16 15  2  0
 18 17  1  0
 18 21  1  0
 18 19  1  1
 20 19  1  0
 21 23  1  0
 22 21  2  0
M  END
$$$$
