RAC.pdb
     RDKit          3D

 23 22  0  0  1  0  0  0  0  0999 V2000
    8.9743  -13.1466   20.7432 N   0  0  0  0  0  0  0  0  0  0  0  0
    8.7460  -13.2937   19.3376 C   0  0  0  0  0  0  0  0  0  0  0  0
    8.7342  -12.2387   18.5856 N   0  0  0  0  0  0  0  0  0  0  0  0
    8.5337  -14.5660   18.7555 N   0  0  0  0  0  0  0  0  0  0  0  0
    7.3846  -15.3977   19.1215 C   0  0  0  0  0  0  0  0  0  0  0  0
    7.8250  -16.7962   19.4096 C   0  0  0  0  0  0  0  0  0  0  0  0
    8.2199  -17.0410   20.8277 C   0  0  0  0  0  0  0  0  0  0  0  0
    7.2317  -17.9433   21.5061 C   0  0  2  0  0  0  0  0  0  0  0  0
    6.1255  -18.1982   20.6222 N   0  0  0  0  0  0  0  0  0  0  0  0
    6.7929  -17.4098   22.8201 C   0  0  0  0  0  0  0  0  0  0  0  0
    5.8220  -16.6111   22.8375 O   0  0  0  0  0  0  0  0  0  0  0  0
    8.5515  -12.3211   17.5630 C   0  0  0  0  0  0  0  0  0  0  0  0
    7.3258  -18.0868   26.4823 C   0  0  1  0  0  0  0  0  0  0  0  0
    7.0795  -17.1507   25.3095 N   0  0  0  0  0  0  0  0  0  0  0  0
    7.3983  -17.7436   24.0544 C   0  0  0  0  0  0  0  0  0  0  0  0
    7.8321  -15.9057   25.5840 O   0  0  0  0  0  0  0  0  0  0  0  0
    9.0236  -15.8612   25.1506 N   0  0  0  0  0  0  0  0  0  0  0  0
    7.3101  -14.7957   26.2829 C   0  0  1  0  0  0  0  0  0  0  0  0
    8.1362  -13.6460   26.4953 C   0  0  0  0  0  0  0  0  0  0  0  0
    7.3508  -12.4119   26.8613 S   0  0  0  0  0  0  0  0  0  0  0  0
    5.9687  -12.2763   25.6915 C   0  0  0  0  0  0  0  0  0  0  0  0
    9.1067  -13.9385   27.5780 O   0  0  0  0  0  0  0  0  0  0  0  0
    8.9957  -15.0244   28.1868 O   0  0  0  0  0  0  0  0  0  0  0  0
  1  2  1  0
  2  3  2  0
  4  2  1  0
  5  4  1  0
  6  5  1  0
  7  6  1  0
  8  9  1  6
  8  7  1  0
  8 10  1  0
 10 11  2  0
 10 14  1  0
 13 12  1  6
 14 13  1  0
 15 13  1  0
 15 17  1  0
 16 15  2  0
 18 17  1  0
 18 21  1  0
 18 19  1  1
 20 19  1  0
 21 23  1  0
 22 21  2  0
M  END
$$$$
