RAC.pdb
     RDKit          3D

 23 22  0  0  1  0  0  0  0  0999 V2000
    8.6561  -15.4482   16.0455 N   0  0  0  0  0  0  0  0  0  0  0  0
    8.3068  -14.5595   17.1119 C   0  0  0  0  0  0  0  0  0  0  0  0
    7.7590  -13.4195   16.8306 N   0  0  0  0  0  0  0  0  0  0  0  0
    8.5476  -14.9013   18.4639 N   0  0  0  0  0  0  0  0  0  0  0  0
    7.4801  -14.8732   19.4667 C   0  0  0  0  0  0  0  0  0  0  0  0
    7.5059  -16.1203   20.2895 C   0  0  0  0  0  0  0  0  0  0  0  0
    7.7638  -15.8979   21.7425 C   0  0  0  0  0  0  0  0  0  0  0  0
    7.3012  -14.5337   22.1615 C   0  0  2  0  0  0  0  0  0  0  0  0
    7.4764  -13.6095   21.0727 N   0  0  0  0  0  0  0  0  0  0  0  0
    7.9658  -14.0720   23.4060 C   0  0  0  0  0  0  0  0  0  0  0  0
    9.2215  -14.1155   23.4547 O   0  0  0  0  0  0  0  0  0  0  0  0
    7.4105  -12.7989   17.5917 C   0  0  0  0  0  0  0  0  0  0  0  0
    6.9425  -12.4134   26.6700 C   0  0  2  0  0  0  0  0  0  0  0  0
    7.8881  -13.1845   25.7625 N   0  0  0  0  0  0  0  0  0  0  0  0
    7.2754  -13.5861   24.5412 C   0  0  0  0  0  0  0  0  0  0  0  0
    8.4237  -14.3142   26.5553 O   0  0  0  0  0  0  0  0  0  0  0  0
    7.6575  -15.3153   26.6972 N   0  0  0  0  0  0  0  0  0  0  0  0
    9.7058  -14.3373   27.1459 C   0  0  1  0  0  0  0  0  0  0  0  0
   10.1172  -15.4890   27.8900 C   0  0  0  0  0  0  0  0  0  0  0  0
   11.5075  -15.9553   27.5389 S   0  0  0  0  0  0  0  0  0  0  0  0
   11.6068  -16.0651   25.7292 C   0  0  0  0  0  0  0  0  0  0  0  0
   10.0653  -15.1753   29.3387 O   0  0  0  0  0  0  0  0  0  0  0  0
    9.7674  -14.0092   29.6755 O   0  0  0  0  0  0  0  0  0  0  0  0
  1  2  1  0
  2  3  2  0
  4  2  1  0
  5  4  1  0
  6  5  1  0
  7  6  1  0
  8  9  1  6
  8  7  1  0
  8 10  1  0
 10 11  2  0
 10 14  1  0
 13 12  1  6
 14 13  1  0
 15 13  1  0
 15 17  1  0
 16 15  2  0
 18 17  1  0
 18 21  1  0
 18 19  1  1
 20 19  1  0
 21 23  1  0
 22 21  2  0
M  END
$$$$
