RAC.pdb
     RDKit          3D

 23 22  0  0  1  0  0  0  0  0999 V2000
   12.8448  -20.6591   17.5198 N   0  0  0  0  0  0  0  0  0  0  0  0
   11.8005  -21.6290   17.3856 C   0  0  0  0  0  0  0  0  0  0  0  0
   11.4267  -21.9950   16.2003 N   0  0  0  0  0  0  0  0  0  0  0  0
   11.1704  -22.1940   18.5198 N   0  0  0  0  0  0  0  0  0  0  0  0
   11.5660  -21.8282   19.8821 C   0  0  0  0  0  0  0  0  0  0  0  0
   11.0690  -20.4598   20.2187 C   0  0  0  0  0  0  0  0  0  0  0  0
   10.1021  -20.4145   21.3545 C   0  0  0  0  0  0  0  0  0  0  0  0
    9.9131  -19.0060   21.8354 C   0  0  2  0  0  0  0  0  0  0  0  0
   10.4867  -18.0908   20.8848 N   0  0  0  0  0  0  0  0  0  0  0  0
   10.4459  -18.8035   23.2061 C   0  0  0  0  0  0  0  0  0  0  0  0
    9.9421  -19.4780   24.1400 O   0  0  0  0  0  0  0  0  0  0  0  0
   10.6399  -22.6675   16.0788 C   0  0  0  0  0  0  0  0  0  0  0  0
   13.5561  -17.7433   24.8336 C   0  0  2  0  0  0  0  0  0  0  0  0
   12.0357  -17.7139   24.8284 N   0  0  0  0  0  0  0  0  0  0  0  0
   11.4851  -17.8991   23.5280 C   0  0  0  0  0  0  0  0  0  0  0  0
   11.6253  -16.4441   25.4694 O   0  0  0  0  0  0  0  0  0  0  0  0
   11.5902  -15.4210   24.7201 N   0  0  0  0  0  0  0  0  0  0  0  0
   11.2802  -16.3135   26.8321 C   0  0  1  0  0  0  0  0  0  0  0  0
   10.8382  -15.0453   27.3278 C   0  0  0  0  0  0  0  0  0  0  0  0
    9.5602  -14.5705   26.6837 S   0  0  0  0  0  0  0  0  0  0  0  0
    9.0586  -13.0418   27.5253 C   0  0  0  0  0  0  0  0  0  0  0  0
   10.6327  -15.1415   28.7934 O   0  0  0  0  0  0  0  0  0  0  0  0
   10.4992  -16.2793   29.2930 O   0  0  0  0  0  0  0  0  0  0  0  0
  1  2  1  0
  2  3  2  0
  4  2  1  0
  5  4  1  0
  6  5  1  0
  7  6  1  0
  8  9  1  6
  8  7  1  0
  8 10  1  0
 10 11  2  0
 10 14  1  0
 13 12  1  1
 14 13  1  0
 15 13  1  0
 15 17  1  0
 16 15  2  0
 18 17  1  0
 18 21  1  0
 18 19  1  1
 20 19  1  0
 21 23  1  0
 22 21  2  0
M  END
$$$$
