RAC.pdb
     RDKit          3D

 23 22  0  0  1  0  0  0  0  0999 V2000
    8.3166  -12.4015   19.2827 N   0  0  0  0  0  0  0  0  0  0  0  0
    8.1324  -13.3440   18.2212 C   0  0  0  0  0  0  0  0  0  0  0  0
    7.9823  -12.9099   17.0097 N   0  0  0  0  0  0  0  0  0  0  0  0
    8.1111  -14.7371   18.4691 N   0  0  0  0  0  0  0  0  0  0  0  0
    8.2850  -15.2815   19.8179 C   0  0  0  0  0  0  0  0  0  0  0  0
    7.0148  -15.1609   20.5957 C   0  0  0  0  0  0  0  0  0  0  0  0
    7.0803  -15.7186   21.9783 C   0  0  0  0  0  0  0  0  0  0  0  0
    7.8258  -17.0205   21.9913 C   0  0  2  0  0  0  0  0  0  0  0  0
    6.9618  -18.0754   21.5320 N   0  0  0  0  0  0  0  0  0  0  0  0
    8.4195  -17.3154   23.3196 C   0  0  0  0  0  0  0  0  0  0  0  0
    7.6580  -17.3094   24.3201 O   0  0  0  0  0  0  0  0  0  0  0  0
    7.9056  -13.5790   16.2146 C   0  0  0  0  0  0  0  0  0  0  0  0
   11.7306  -18.5795   24.6674 C   0  0  1  0  0  0  0  0  0  0  0  0
   10.3784  -17.8954   24.7936 N   0  0  0  0  0  0  0  0  0  0  0  0
    9.7885  -17.6027   23.5308 C   0  0  0  0  0  0  0  0  0  0  0  0
   10.5755  -16.7010   25.6458 O   0  0  0  0  0  0  0  0  0  0  0  0
   10.9752  -15.6501   25.0581 N   0  0  0  0  0  0  0  0  0  0  0  0
   10.3490  -16.6688   27.0389 C   0  0  1  0  0  0  0  0  0  0  0  0
   10.5746  -15.4533   27.7606 C   0  0  0  0  0  0  0  0  0  0  0  0
    9.3774  -14.5366   27.7656 S   0  0  0  0  0  0  0  0  0  0  0  0
    9.7979  -13.0933   28.7840 C   0  0  0  0  0  0  0  0  0  0  0  0
   10.9374  -15.7802   29.1610 O   0  0  0  0  0  0  0  0  0  0  0  0
   10.7645  -16.9545   29.5524 O   0  0  0  0  0  0  0  0  0  0  0  0
  1  2  1  0
  2  3  2  0
  4  2  1  0
  5  4  1  0
  6  5  1  0
  7  6  1  0
  8  9  1  1
  8  7  1  0
  8 10  1  0
 10 11  2  0
 10 14  1  0
 13 12  1  1
 14 13  1  0
 15 13  1  0
 15 17  1  0
 16 15  2  0
 18 17  1  0
 18 21  1  0
 18 19  1  1
 20 19  1  0
 21 23  1  0
 22 21  2  0
M  END
$$$$
