RAC.pdb
     RDKit          3D

 23 22  0  0  1  0  0  0  0  0999 V2000
    8.3470  -15.4525   15.9574 N   0  0  0  0  0  0  0  0  0  0  0  0
    7.6595  -14.1972   15.9849 C   0  0  0  0  0  0  0  0  0  0  0  0
    7.3974  -13.5958   14.8676 N   0  0  0  0  0  0  0  0  0  0  0  0
    7.2617  -13.6022   17.2057 N   0  0  0  0  0  0  0  0  0  0  0  0
    7.2383  -14.3598   18.4593 C   0  0  0  0  0  0  0  0  0  0  0  0
    8.6288  -14.6998   18.8880 C   0  0  0  0  0  0  0  0  0  0  0  0
    9.0341  -14.1111   20.1980 C   0  0  0  0  0  0  0  0  0  0  0  0
    9.5768  -15.1704   21.1113 C   0  0  2  0  0  0  0  0  0  0  0  0
    9.4774  -16.4556   20.4720 N   0  0  0  0  0  0  0  0  0  0  0  0
    8.9245  -15.1515   22.4447 C   0  0  0  0  0  0  0  0  0  0  0  0
    8.7306  -14.0353   22.9903 O   0  0  0  0  0  0  0  0  0  0  0  0
    6.9275  -12.6657   14.8660 C   0  0  0  0  0  0  0  0  0  0  0  0
    7.6573  -17.7221   24.9579 C   0  0  2  0  0  0  0  0  0  0  0  0
    7.8939  -16.3173   24.4260 N   0  0  0  0  0  0  0  0  0  0  0  0
    8.5072  -16.3104   23.1406 C   0  0  0  0  0  0  0  0  0  0  0  0
    8.6697  -15.5896   25.4556 O   0  0  0  0  0  0  0  0  0  0  0  0
    9.9318  -15.7028   25.3939 N   0  0  0  0  0  0  0  0  0  0  0  0
    8.0970  -14.7981   26.4748 C   0  0  1  0  0  0  0  0  0  0  0  0
    8.9504  -14.0668   27.3613 C   0  0  0  0  0  0  0  0  0  0  0  0
    8.2675  -12.8830   27.9986 S   0  0  0  0  0  0  0  0  0  0  0  0
    7.2407  -12.0936   26.7259 C   0  0  0  0  0  0  0  0  0  0  0  0
    9.4356  -14.9755   28.4283 O   0  0  0  0  0  0  0  0  0  0  0  0
   10.2698  -14.5283   29.2445 O   0  0  0  0  0  0  0  0  0  0  0  0
  1  2  1  0
  2  3  2  0
  4  2  1  0
  5  4  1  0
  6  5  1  0
  7  6  1  0
  8  9  1  6
  8  7  1  0
  8 10  1  0
 10 11  2  0
 10 14  1  0
 13 12  1  6
 14 13  1  0
 15 13  1  0
 15 17  1  0
 16 15  2  0
 18 17  1  0
 18 21  1  0
 18 19  1  1
 20 19  1  0
 21 23  1  0
 22 21  2  0
M  END
$$$$
