RAC.pdb
     RDKit          3D

 23 22  0  0  1  0  0  0  0  0999 V2000
   10.0421  -15.2875   15.3387 N   0  0  0  0  0  0  0  0  0  0  0  0
    8.6752  -14.9867   15.6390 C   0  0  0  0  0  0  0  0  0  0  0  0
    8.0559  -14.0920   14.9357 N   0  0  0  0  0  0  0  0  0  0  0  0
    7.9892  -15.6462   16.6865 N   0  0  0  0  0  0  0  0  0  0  0  0
    8.0294  -15.1507   18.0645 C   0  0  0  0  0  0  0  0  0  0  0  0
    9.3797  -15.3818   18.6614 C   0  0  0  0  0  0  0  0  0  0  0  0
    9.5361  -14.8709   20.0548 C   0  0  0  0  0  0  0  0  0  0  0  0
    8.2382  -14.3201   20.5676 C   0  0  2  0  0  0  0  0  0  0  0  0
    7.9968  -13.0288   19.9806 N   0  0  0  0  0  0  0  0  0  0  0  0
    8.1895  -14.2838   22.0508 C   0  0  0  0  0  0  0  0  0  0  0  0
    8.7399  -13.3160   22.6351 O   0  0  0  0  0  0  0  0  0  0  0  0
    7.0387  -13.9177   15.0801 C   0  0  0  0  0  0  0  0  0  0  0  0
    6.4316  -16.2390   24.7978 C   0  0  2  0  0  0  0  0  0  0  0  0
    7.4042  -15.1999   24.2623 N   0  0  0  0  0  0  0  0  0  0  0  0
    7.5627  -15.2697   22.8486 C   0  0  0  0  0  0  0  0  0  0  0  0
    8.6715  -15.3680   25.0088 O   0  0  0  0  0  0  0  0  0  0  0  0
    9.5996  -15.9910   24.4090 N   0  0  0  0  0  0  0  0  0  0  0  0
    8.8971  -14.8858   26.3164 C   0  0  1  0  0  0  0  0  0  0  0  0
   10.1254  -15.2011   26.9806 C   0  0  0  0  0  0  0  0  0  0  0  0
   10.4234  -14.2851   28.1407 S   0  0  0  0  0  0  0  0  0  0  0  0
    9.9797  -12.5988   27.6342 C   0  0  0  0  0  0  0  0  0  0  0  0
   10.0667  -16.5989   27.4726 O   0  0  0  0  0  0  0  0  0  0  0  0
    8.9855  -17.2155   27.3584 O   0  0  0  0  0  0  0  0  0  0  0  0
  1  2  1  0
  2  3  2  0
  4  2  1  0
  5  4  1  0
  6  5  1  0
  7  6  1  0
  8  9  1  6
  8  7  1  0
  8 10  1  0
 10 11  2  0
 10 14  1  0
 13 12  1  6
 14 13  1  0
 15 13  1  0
 15 17  1  0
 16 15  2  0
 18 17  1  0
 18 21  1  0
 18 19  1  1
 20 19  1  0
 21 23  1  0
 22 21  2  0
M  END
$$$$
