RAC.pdb
     RDKit          3D

 23 22  0  0  1  0  0  0  0  0999 V2000
   11.7424  -20.6848   17.8831 N   0  0  0  0  0  0  0  0  0  0  0  0
   10.7733  -19.9095   18.5965 C   0  0  0  0  0  0  0  0  0  0  0  0
   10.2616  -20.3862   19.6872 N   0  0  0  0  0  0  0  0  0  0  0  0
   10.3646  -18.6358   18.1345 N   0  0  0  0  0  0  0  0  0  0  0  0
   10.9595  -18.0214   16.9451 C   0  0  0  0  0  0  0  0  0  0  0  0
   10.2960  -16.7162   16.6466 C   0  0  0  0  0  0  0  0  0  0  0  0
    8.8384  -16.8178   16.3432 C   0  0  0  0  0  0  0  0  0  0  0  0
    8.2589  -15.4632   16.0603 C   0  0  2  0  0  0  0  0  0  0  0  0
    8.8074  -14.9508   14.8327 N   0  0  0  0  0  0  0  0  0  0  0  0
    8.4428  -14.5245   17.1956 C   0  0  0  0  0  0  0  0  0  0  0  0
    9.4830  -13.8185   17.2142 O   0  0  0  0  0  0  0  0  0  0  0  0
    9.5392  -19.8479   20.2110 C   0  0  0  0  0  0  0  0  0  0  0  0
    6.4525  -13.3892   20.2345 C   0  0  1  0  0  0  0  0  0  0  0  0
    7.7122  -13.5392   19.3960 N   0  0  0  0  0  0  0  0  0  0  0  0
    7.5211  -14.3743   18.2583 C   0  0  0  0  0  0  0  0  0  0  0  0
    8.7824  -14.0112   20.3034 O   0  0  0  0  0  0  0  0  0  0  0  0
    8.9889  -13.3121   21.3417 N   0  0  0  0  0  0  0  0  0  0  0  0
    9.5644  -15.1656   20.0821 C   0  0  1  0  0  0  0  0  0  0  0  0
   10.2810  -15.7503   21.1747 C   0  0  0  0  0  0  0  0  0  0  0  0
    9.3786  -16.2549   22.2724 S   0  0  0  0  0  0  0  0  0  0  0  0
   10.4384  -16.8592   23.6172 C   0  0  0  0  0  0  0  0  0  0  0  0
   11.1022  -16.8772   20.6694 O   0  0  0  0  0  0  0  0  0  0  0  0
   11.9082  -17.4150   21.4588 O   0  0  0  0  0  0  0  0  0  0  0  0
  1  2  1  0
  2  3  2  0
  4  2  1  0
  5  4  1  0
  6  5  1  0
  7  6  1  0
  8  9  1  6
  8  7  1  0
  8 10  1  0
 10 11  2  0
 10 14  1  0
 13 12  1  6
 14 13  1  0
 15 13  1  0
 15 17  1  0
 16 15  2  0
 18 17  1  0
 18 21  1  0
 18 19  1  6
 20 19  1  0
 21 23  1  0
 22 21  2  0
M  END
$$$$
