RAC.pdb
     RDKit          3D

 23 22  0  0  1  0  0  0  0  0999 V2000
    7.5068  -12.8317   16.7763 N   0  0  0  0  0  0  0  0  0  0  0  0
    8.5154  -13.8475   16.7708 C   0  0  0  0  0  0  0  0  0  0  0  0
    8.5374  -14.7106   15.8047 N   0  0  0  0  0  0  0  0  0  0  0  0
    9.4861  -13.9269   17.7975 N   0  0  0  0  0  0  0  0  0  0  0  0
    9.1077  -13.9846   19.2115 C   0  0  0  0  0  0  0  0  0  0  0  0
    7.8265  -14.7356   19.3772 C   0  0  0  0  0  0  0  0  0  0  0  0
    7.3447  -14.8344   20.7862 C   0  0  0  0  0  0  0  0  0  0  0  0
    7.4613  -16.2427   21.2900 C   0  0  2  0  0  0  0  0  0  0  0  0
    6.4256  -17.0517   20.7042 N   0  0  0  0  0  0  0  0  0  0  0  0
    7.4603  -16.3115   22.7729 C   0  0  0  0  0  0  0  0  0  0  0  0
    6.3853  -16.0583   23.3740 O   0  0  0  0  0  0  0  0  0  0  0  0
    9.2571  -15.4641   15.7860 C   0  0  0  0  0  0  0  0  0  0  0  0
    9.6189  -17.7273   25.4998 C   0  0  1  0  0  0  0  0  0  0  0  0
    8.6164  -16.7114   24.9751 N   0  0  0  0  0  0  0  0  0  0  0  0
    8.5928  -16.6439   23.5527 C   0  0  0  0  0  0  0  0  0  0  0  0
    8.9309  -15.4183   25.6237 O   0  0  0  0  0  0  0  0  0  0  0  0
    9.9334  -14.7889   25.1674 N   0  0  0  0  0  0  0  0  0  0  0  0
    8.1957  -14.8627   26.6933 C   0  0  1  0  0  0  0  0  0  0  0  0
    8.5990  -13.6054   27.2463 C   0  0  0  0  0  0  0  0  0  0  0  0
    7.4469  -12.8044   27.7983 S   0  0  0  0  0  0  0  0  0  0  0  0
    6.1704  -12.7229   26.5096 C   0  0  0  0  0  0  0  0  0  0  0  0
    9.5830  -13.8446   28.3300 O   0  0  0  0  0  0  0  0  0  0  0  0
    9.7968  -15.0261   28.6771 O   0  0  0  0  0  0  0  0  0  0  0  0
  1  2  1  0
  2  3  2  0
  4  2  1  0
  5  4  1  0
  6  5  1  0
  7  6  1  0
  8  9  1  6
  8  7  1  0
  8 10  1  0
 10 11  2  0
 10 14  1  0
 13 12  1  6
 14 13  1  0
 15 13  1  0
 15 17  1  0
 16 15  2  0
 18 17  1  0
 18 21  1  0
 18 19  1  1
 20 19  1  0
 21 23  1  0
 22 21  2  0
M  END
$$$$
