RAC.pdb
     RDKit          3D

 23 22  0  0  1  0  0  0  0  0999 V2000
    8.1591  -12.9883   19.2276 N   0  0  0  0  0  0  0  0  0  0  0  0
    8.3634  -13.7964   18.0638 C   0  0  0  0  0  0  0  0  0  0  0  0
    8.7184  -13.2286   16.9547 N   0  0  0  0  0  0  0  0  0  0  0  0
    8.1854  -15.1998   18.1015 N   0  0  0  0  0  0  0  0  0  0  0  0
    7.1961  -15.8267   18.9815 C   0  0  0  0  0  0  0  0  0  0  0  0
    7.4626  -15.4637   20.4063 C   0  0  0  0  0  0  0  0  0  0  0  0
    8.0655  -16.5586   21.2216 C   0  0  0  0  0  0  0  0  0  0  0  0
    7.3192  -16.7332   22.5114 C   0  0  2  0  0  0  0  0  0  0  0  0
    6.0530  -17.3662   22.2539 N   0  0  0  0  0  0  0  0  0  0  0  0
    7.1711  -15.4557   23.2528 C   0  0  0  0  0  0  0  0  0  0  0  0
    6.4293  -14.5694   22.7578 O   0  0  0  0  0  0  0  0  0  0  0  0
    8.9065  -13.8014   16.1047 C   0  0  0  0  0  0  0  0  0  0  0  0
    6.1631  -13.9018   25.7793 C   0  0  2  0  0  0  0  0  0  0  0  0
    7.5922  -14.0072   25.2706 N   0  0  0  0  0  0  0  0  0  0  0  0
    7.8122  -15.1725   24.4817 C   0  0  0  0  0  0  0  0  0  0  0  0
    8.4800  -13.9161   26.4518 O   0  0  0  0  0  0  0  0  0  0  0  0
    8.3648  -12.8720   27.1632 N   0  0  0  0  0  0  0  0  0  0  0  0
    9.4220  -14.9011   26.8196 C   0  0  1  0  0  0  0  0  0  0  0  0
   10.2264  -14.7045   27.9874 C   0  0  0  0  0  0  0  0  0  0  0  0
    9.4123  -14.4642   29.2336 S   0  0  0  0  0  0  0  0  0  0  0  0
   10.5743  -14.1871   30.6010 C   0  0  0  0  0  0  0  0  0  0  0  0
   11.0830  -15.8975   28.1936 O   0  0  0  0  0  0  0  0  0  0  0  0
   10.6631  -16.9993   27.7791 O   0  0  0  0  0  0  0  0  0  0  0  0
  1  2  1  0
  2  3  2  0
  4  2  1  0
  5  4  1  0
  6  5  1  0
  7  6  1  0
  8  9  1  6
  8  7  1  0
  8 10  1  0
 10 11  2  0
 10 14  1  0
 13 12  1  6
 14 13  1  0
 15 13  1  0
 15 17  1  0
 16 15  2  0
 18 17  1  0
 18 21  1  0
 18 19  1  6
 20 19  1  0
 21 23  1  0
 22 21  2  0
M  END
$$$$
