RAC.pdb
     RDKit          3D

 23 22  0  0  1  0  0  0  0  0999 V2000
    6.8904  -12.5830   18.6466 N   0  0  0  0  0  0  0  0  0  0  0  0
    7.8599  -13.2439   17.8266 C   0  0  0  0  0  0  0  0  0  0  0  0
    7.6271  -13.3818   16.5595 N   0  0  0  0  0  0  0  0  0  0  0  0
    9.0645  -13.7482   18.3719 N   0  0  0  0  0  0  0  0  0  0  0  0
    9.0757  -14.8943   19.2842 C   0  0  0  0  0  0  0  0  0  0  0  0
    7.6808  -15.3527   19.5613 C   0  0  0  0  0  0  0  0  0  0  0  0
    7.4761  -15.9236   20.9248 C   0  0  0  0  0  0  0  0  0  0  0  0
    8.4079  -17.0748   21.1641 C   0  0  2  0  0  0  0  0  0  0  0  0
    7.8901  -18.2553   20.5249 N   0  0  0  0  0  0  0  0  0  0  0  0
    8.6793  -17.2879   22.6080 C   0  0  0  0  0  0  0  0  0  0  0  0
    7.7151  -17.1927   23.4093 O   0  0  0  0  0  0  0  0  0  0  0  0
    8.3610  -13.7643   15.9262 C   0  0  0  0  0  0  0  0  0  0  0  0
   11.5550  -18.4776   24.7739 C   0  0  1  0  0  0  0  0  0  0  0  0
   10.2517  -17.7350   24.5249 N   0  0  0  0  0  0  0  0  0  0  0  0
    9.9548  -17.5916   23.1393 C   0  0  0  0  0  0  0  0  0  0  0  0
   10.3433  -16.4458   25.2469 O   0  0  0  0  0  0  0  0  0  0  0  0
   10.9372  -15.5025   24.6412 N   0  0  0  0  0  0  0  0  0  0  0  0
    9.8200  -16.2155   26.5377 C   0  0  1  0  0  0  0  0  0  0  0  0
    9.9263  -14.9111   27.1178 C   0  0  0  0  0  0  0  0  0  0  0  0
    8.6031  -14.1940   27.2093 S   0  0  0  0  0  0  0  0  0  0  0  0
    8.9042  -12.5899   28.0051 C   0  0  0  0  0  0  0  0  0  0  0  0
   10.5054  -15.0302   28.4780 O   0  0  0  0  0  0  0  0  0  0  0  0
   10.5050  -16.1571   29.0185 O   0  0  0  0  0  0  0  0  0  0  0  0
  1  2  1  0
  2  3  2  0
  4  2  1  0
  5  4  1  0
  6  5  1  0
  7  6  1  0
  8  9  1  1
  8  7  1  0
  8 10  1  0
 10 11  2  0
 10 14  1  0
 13 12  1  1
 14 13  1  0
 15 13  1  0
 15 17  1  0
 16 15  2  0
 18 17  1  0
 18 21  1  0
 18 19  1  1
 20 19  1  0
 21 23  1  0
 22 21  2  0
M  END
$$$$
