RAC.pdb
     RDKit          3D

 23 22  0  0  1  0  0  0  0  0999 V2000
    9.8769  -14.8495   16.4286 N   0  0  0  0  0  0  0  0  0  0  0  0
    8.7617  -14.1246   15.8994 C   0  0  0  0  0  0  0  0  0  0  0  0
    8.5025  -14.2007   14.6322 N   0  0  0  0  0  0  0  0  0  0  0  0
    7.9392  -13.3286   16.7316 N   0  0  0  0  0  0  0  0  0  0  0  0
    8.0966  -13.3204   18.1880 C   0  0  0  0  0  0  0  0  0  0  0  0
    7.7937  -14.6707   18.7518 C   0  0  0  0  0  0  0  0  0  0  0  0
    7.8425  -14.7447   20.2415 C   0  0  0  0  0  0  0  0  0  0  0  0
    7.5011  -16.1263   20.7163 C   0  0  2  0  0  0  0  0  0  0  0  0
    6.4174  -16.6525   19.9296 N   0  0  0  0  0  0  0  0  0  0  0  0
    7.2127  -16.1655   22.1720 C   0  0  0  0  0  0  0  0  0  0  0  0
    6.1481  -15.6326   22.5765 O   0  0  0  0  0  0  0  0  0  0  0  0
    7.6995  -13.6761   14.2249 C   0  0  0  0  0  0  0  0  0  0  0  0
    8.6998  -17.7200   25.3002 C   0  0  1  0  0  0  0  0  0  0  0  0
    7.8856  -16.6819   24.5442 N   0  0  0  0  0  0  0  0  0  0  0  0
    8.0604  -16.7647   23.1331 C   0  0  0  0  0  0  0  0  0  0  0  0
    8.2401  -15.3596   25.1076 O   0  0  0  0  0  0  0  0  0  0  0  0
    9.3136  -14.8354   24.6809 N   0  0  0  0  0  0  0  0  0  0  0  0
    7.4693  -14.6690   26.0680 C   0  0  1  0  0  0  0  0  0  0  0  0
    7.9044  -13.3854   26.5287 C   0  0  0  0  0  0  0  0  0  0  0  0
    6.7775  -12.3934   26.6691 S   0  0  0  0  0  0  0  0  0  0  0  0
    5.3325  -13.2930   27.3015 C   0  0  0  0  0  0  0  0  0  0  0  0
    8.5750  -13.5425   27.8422 O   0  0  0  0  0  0  0  0  0  0  0  0
    8.4933  -14.6514   28.4130 O   0  0  0  0  0  0  0  0  0  0  0  0
  1  2  1  0
  2  3  2  0
  4  2  1  0
  5  4  1  0
  6  5  1  0
  7  6  1  0
  8  9  1  6
  8  7  1  0
  8 10  1  0
 10 11  2  0
 10 14  1  0
 13 12  1  6
 14 13  1  0
 15 13  1  0
 15 17  1  0
 16 15  2  0
 18 17  1  0
 18 21  1  0
 18 19  1  1
 20 19  1  0
 21 23  1  0
 22 21  2  0
M  END
$$$$
