RAC.pdb
     RDKit          3D

 23 22  0  0  1  0  0  0  0  0999 V2000
    7.5460  -13.1380   15.6746 N   0  0  0  0  0  0  0  0  0  0  0  0
    8.2202  -14.3790   15.4408 C   0  0  0  0  0  0  0  0  0  0  0  0
    7.8769  -15.1024   14.4221 N   0  0  0  0  0  0  0  0  0  0  0  0
    9.2516  -14.8296   16.2986 N   0  0  0  0  0  0  0  0  0  0  0  0
    9.2794  -14.4765   17.7201 C   0  0  0  0  0  0  0  0  0  0  0  0
    7.9047  -14.5483   18.3012 C   0  0  0  0  0  0  0  0  0  0  0  0
    7.8103  -14.1079   19.7239 C   0  0  0  0  0  0  0  0  0  0  0  0
    8.5650  -15.0441   20.6211 C   0  0  2  0  0  0  0  0  0  0  0  0
    8.5723  -16.3627   20.0453 N   0  0  0  0  0  0  0  0  0  0  0  0
    8.0403  -15.0376   22.0098 C   0  0  0  0  0  0  0  0  0  0  0  0
    7.7720  -13.9263   22.5333 O   0  0  0  0  0  0  0  0  0  0  0  0
    8.3696  -15.9982   14.2205 C   0  0  0  0  0  0  0  0  0  0  0  0
    7.2504  -17.6238   24.6977 C   0  0  2  0  0  0  0  0  0  0  0  0
    7.3289  -16.2205   24.1171 N   0  0  0  0  0  0  0  0  0  0  0  0
    7.8232  -16.2032   22.7815 C   0  0  0  0  0  0  0  0  0  0  0  0
    8.1341  -15.4079   25.0567 O   0  0  0  0  0  0  0  0  0  0  0  0
    9.3936  -15.5370   24.9759 N   0  0  0  0  0  0  0  0  0  0  0  0
    7.5914  -14.5211   26.0118 C   0  0  1  0  0  0  0  0  0  0  0  0
    8.4716  -13.7603   26.8459 C   0  0  0  0  0  0  0  0  0  0  0  0
    7.9987  -12.3464   27.0716 S   0  0  0  0  0  0  0  0  0  0  0  0
    6.1968  -12.4004   27.2888 C   0  0  0  0  0  0  0  0  0  0  0  0
    8.6054  -14.4392   28.1576 O   0  0  0  0  0  0  0  0  0  0  0  0
    7.8616  -15.4162   28.3904 O   0  0  0  0  0  0  0  0  0  0  0  0
  1  2  1  0
  2  3  2  0
  4  2  1  0
  5  4  1  0
  6  5  1  0
  7  6  1  0
  8  9  1  6
  8  7  1  0
  8 10  1  0
 10 11  2  0
 10 14  1  0
 13 12  1  6
 14 13  1  0
 15 13  1  0
 15 17  1  0
 16 15  2  0
 18 17  1  0
 18 21  1  0
 18 19  1  1
 20 19  1  0
 21 23  1  0
 22 21  2  0
M  END
$$$$
