RAC.pdb
     RDKit          3D

 23 22  0  0  1  0  0  0  0  0999 V2000
    9.4688  -13.7493   19.7784 N   0  0  0  0  0  0  0  0  0  0  0  0
    8.1686  -13.4436   19.2635 C   0  0  0  0  0  0  0  0  0  0  0  0
    8.0662  -12.8701   18.1061 N   0  0  0  0  0  0  0  0  0  0  0  0
    6.9961  -13.7549   19.9923 N   0  0  0  0  0  0  0  0  0  0  0  0
    7.0394  -14.0664   21.4230 C   0  0  0  0  0  0  0  0  0  0  0  0
    7.7051  -15.3850   21.6487 C   0  0  0  0  0  0  0  0  0  0  0  0
    6.7707  -16.5030   21.9712 C   0  0  0  0  0  0  0  0  0  0  0  0
    7.5190  -17.7951   22.1185 C   0  0  2  0  0  0  0  0  0  0  0  0
    6.5899  -18.8643   22.3711 N   0  0  0  0  0  0  0  0  0  0  0  0
    8.5817  -17.7148   23.1519 C   0  0  0  0  0  0  0  0  0  0  0  0
    8.2677  -17.9735   24.3416 O   0  0  0  0  0  0  0  0  0  0  0  0
    7.1337  -12.5847   17.7388 C   0  0  0  0  0  0  0  0  0  0  0  0
   12.3054  -16.9012   23.2569 C   0  0  1  0  0  0  0  0  0  0  0  0
   10.9584  -17.2697   23.8587 N   0  0  0  0  0  0  0  0  0  0  0  0
    9.9259  -17.3657   22.8824 C   0  0  0  0  0  0  0  0  0  0  0  0
   10.6755  -16.2814   24.9240 O   0  0  0  0  0  0  0  0  0  0  0  0
   11.5522  -16.1681   25.8339 N   0  0  0  0  0  0  0  0  0  0  0  0
    9.5146  -15.4800   24.9808 C   0  0  1  0  0  0  0  0  0  0  0  0
    9.3651  -14.5320   26.0430 C   0  0  0  0  0  0  0  0  0  0  0  0
    8.2874  -13.5112   25.7784 S   0  0  0  0  0  0  0  0  0  0  0  0
    8.1313  -12.4824   27.2665 C   0  0  0  0  0  0  0  0  0  0  0  0
    9.0468  -15.2550   27.2982 O   0  0  0  0  0  0  0  0  0  0  0  0
    8.6515  -16.4374   27.2093 O   0  0  0  0  0  0  0  0  0  0  0  0
  1  2  1  0
  2  3  2  0
  4  2  1  0
  5  4  1  0
  6  5  1  0
  7  6  1  0
  8  9  1  1
  8  7  1  0
  8 10  1  0
 10 11  2  0
 10 14  1  0
 13 12  1  6
 14 13  1  0
 15 13  1  0
 15 17  1  0
 16 15  2  0
 18 17  1  0
 18 21  1  0
 18 19  1  1
 20 19  1  0
 21 23  1  0
 22 21  2  0
M  END
$$$$
