SGR.pdb
     RDKit          3D

 22 21  0  0  1  0  0  0  0  0999 V2000
   17.0755  -22.2423  -10.4887 O   0  0  0  0  0  0  0  0  0  0  0  0
   18.2773  -22.4636   -9.8062 C   0  0  0  0  0  0  0  0  0  0  0  0
   18.6837  -23.9037   -9.9822 C   0  0  2  0  0  0  0  0  0  0  0  0
   18.5093  -24.2626  -11.3627 N   0  0  0  0  0  0  0  0  0  0  0  0
   17.7167  -24.7185   -9.1780 C   0  0  0  0  0  0  0  0  0  0  0  0
   16.8512  -25.4079   -9.7655 O   0  0  0  0  0  0  0  0  0  0  0  0
   17.7563  -24.7294   -7.7588 N   0  0  0  0  0  0  0  0  0  0  0  0
   16.8990  -25.5841   -6.9825 C   0  0  0  0  0  0  0  0  0  0  0  0
   17.0411  -25.2989   -5.5093 C   0  0  0  0  0  0  0  0  0  0  0  0
   17.9581  -24.5410   -5.1095 O   0  0  0  0  0  0  0  0  0  0  0  0
   12.9010  -20.5505   -0.8112 N   0  0  0  0  0  0  0  0  0  0  0  0
   12.7805  -20.7112   -2.2146 C   0  0  0  0  0  0  0  0  0  0  0  0
   12.4766  -19.6874   -2.9393 N   0  0  0  0  0  0  0  0  0  0  0  0
   12.9884  -21.9764   -2.8297 N   0  0  0  0  0  0  0  0  0  0  0  0
   13.9009  -22.9654   -2.2176 C   0  0  0  0  0  0  0  0  0  0  0  0
   13.9983  -24.1620   -3.0715 C   0  0  0  0  0  0  0  0  0  0  0  0
   14.8300  -25.2997   -2.6947 C   0  0  0  0  0  0  0  0  0  0  0  0
   16.2274  -25.5066   -3.1198 C   0  0  2  0  0  0  0  0  0  0  0  0
   16.1670  -25.8639   -4.5658 N   0  0  0  0  0  0  0  0  0  0  0  0
   17.1024  -26.4225   -2.4247 C   0  0  0  0  0  0  0  0  0  0  0  0
   17.6520  -27.5410   -3.1264 O   0  0  0  0  0  0  0  0  0  0  0  0
   17.4591  -26.3721   -1.2502 O   0  0  0  0  0  0  0  0  0  0  0  0
  1  2  1  0
  2  3  1  0
  3  4  1  6
  5  3  1  0
  5  7  1  0
  6  5  2  0
  8  7  1  0
  8  9  1  0
  9 19  1  0
  9 10  2  0
 11 12  1  0
 12 14  1  0
 12 13  2  0
 14 15  1  0
 16 15  1  0
 18 17  1  1
 17 16  1  0
 18 20  1  0
 19 18  1  0
 20 22  2  0
 20 21  1  0
M  END
$$$$
