SGR.pdb
     RDKit          3D

 22 21  0  0  1  0  0  0  0  0999 V2000
   27.1668  -18.0792  -19.6030 O   0  0  0  0  0  0  0  0  0  0  0  0
   26.2438  -17.8519  -18.5757 C   0  0  0  0  0  0  0  0  0  0  0  0
   26.4256  -18.9025  -17.5111 C   0  0  2  0  0  0  0  0  0  0  0  0
   26.0049  -20.1697  -18.0427 N   0  0  0  0  0  0  0  0  0  0  0  0
   25.4875  -18.5455  -16.3985 C   0  0  0  0  0  0  0  0  0  0  0  0
   25.6519  -17.4735  -15.7715 O   0  0  0  0  0  0  0  0  0  0  0  0
   24.4104  -19.3959  -16.0344 N   0  0  0  0  0  0  0  0  0  0  0  0
   23.5532  -19.0991  -14.9185 C   0  0  0  0  0  0  0  0  0  0  0  0
   22.4738  -20.1410  -14.7732 C   0  0  0  0  0  0  0  0  0  0  0  0
   22.3275  -21.0117  -15.6653 O   0  0  0  0  0  0  0  0  0  0  0  0
   19.1949  -24.1325   -8.0719 N   0  0  0  0  0  0  0  0  0  0  0  0
   19.1106  -24.9220   -9.2465 C   0  0  0  0  0  0  0  0  0  0  0  0
   19.2828  -26.1980   -9.1583 N   0  0  0  0  0  0  0  0  0  0  0  0
   18.8407  -24.3306  -10.5113 N   0  0  0  0  0  0  0  0  0  0  0  0
   19.8646  -23.5038  -11.1849 C   0  0  0  0  0  0  0  0  0  0  0  0
   19.3752  -22.1239  -11.3479 C   0  0  0  0  0  0  0  0  0  0  0  0
   20.1556  -21.1195  -12.0621 C   0  0  0  0  0  0  0  0  0  0  0  0
   20.5969  -21.2283  -13.4657 C   0  0  2  0  0  0  0  0  0  0  0  0
   21.6215  -20.1626  -13.6567 N   0  0  0  0  0  0  0  0  0  0  0  0
   19.6535  -21.2032  -14.5598 C   0  0  0  0  0  0  0  0  0  0  0  0
   19.1867  -19.9466  -15.0584 O   0  0  0  0  0  0  0  0  0  0  0  0
   19.1693  -22.1635  -15.1537 O   0  0  0  0  0  0  0  0  0  0  0  0
  1  2  1  0
  2  3  1  0
  3  4  1  6
  5  3  1  0
  5  7  1  0
  6  5  2  0
  8  7  1  0
  8  9  1  0
  9 19  1  0
  9 10  2  0
 11 12  1  0
 12 14  1  0
 12 13  2  0
 14 15  1  0
 16 15  1  0
 18 17  1  1
 17 16  1  0
 18 20  1  0
 19 18  1  0
 20 22  2  0
 20 21  1  0
M  END
$$$$
