SGR.pdb
     RDKit          3D

 22 21  0  0  1  0  0  0  0  0999 V2000
   27.4111  -17.5155  -18.2251 O   0  0  0  0  0  0  0  0  0  0  0  0
   27.0482  -18.4001  -17.2029 C   0  0  0  0  0  0  0  0  0  0  0  0
   28.0168  -19.5541  -17.1856 C   0  0  2  0  0  0  0  0  0  0  0  0
   27.6191  -20.5001  -18.1916 N   0  0  0  0  0  0  0  0  0  0  0  0
   27.8596  -20.2197  -15.8522 C   0  0  0  0  0  0  0  0  0  0  0  0
   27.0408  -21.1589  -15.7230 O   0  0  0  0  0  0  0  0  0  0  0  0
   28.6195  -19.8108  -14.7247 N   0  0  0  0  0  0  0  0  0  0  0  0
   28.4897  -20.4583  -13.4472 C   0  0  0  0  0  0  0  0  0  0  0  0
   27.2611  -19.9766  -12.7188 C   0  0  0  0  0  0  0  0  0  0  0  0
   26.6807  -18.9325  -13.1040 O   0  0  0  0  0  0  0  0  0  0  0  0
   20.3008  -22.0570  -15.4851 N   0  0  0  0  0  0  0  0  0  0  0  0
   20.0015  -21.0205  -14.5652 C   0  0  0  0  0  0  0  0  0  0  0  0
   18.8415  -20.4568  -14.6113 N   0  0  0  0  0  0  0  0  0  0  0  0
   20.9557  -20.5971  -13.5996 N   0  0  0  0  0  0  0  0  0  0  0  0
   22.2822  -21.2453  -13.5238 C   0  0  0  0  0  0  0  0  0  0  0  0
   23.1304  -20.5508  -12.5396 C   0  0  0  0  0  0  0  0  0  0  0  0
   24.4908  -20.9964  -12.2590 C   0  0  0  0  0  0  0  0  0  0  0  0
   25.3364  -20.4985  -11.1574 C   0  0  2  0  0  0  0  0  0  0  0  0
   26.7454  -20.6715  -11.6123 N   0  0  0  0  0  0  0  0  0  0  0  0
   25.1922  -20.9954   -9.8084 C   0  0  0  0  0  0  0  0  0  0  0  0
   24.1606  -20.4676   -8.9701 O   0  0  0  0  0  0  0  0  0  0  0  0
   25.8696  -21.8549   -9.2502 O   0  0  0  0  0  0  0  0  0  0  0  0
  1  2  1  0
  2  3  1  0
  3  4  1  6
  5  3  1  0
  5  7  1  0
  6  5  2  0
  8  7  1  0
  8  9  1  0
  9 19  1  0
  9 10  2  0
 11 12  1  0
 12 14  1  0
 12 13  2  0
 14 15  1  0
 16 15  1  0
 18 17  1  6
 17 16  1  0
 18 20  1  0
 19 18  1  0
 20 22  2  0
 20 21  1  0
M  END
$$$$
