SGR.pdb
     RDKit          3D

 22 21  0  0  1  0  0  0  0  0999 V2000
   22.1989   -6.9017  -15.9090 O   0  0  0  0  0  0  0  0  0  0  0  0
   22.6838   -8.2074  -15.7699 C   0  0  0  0  0  0  0  0  0  0  0  0
   21.6313   -9.0531  -15.1011 C   0  0  2  0  0  0  0  0  0  0  0  0
   20.3679   -8.7982  -15.7367 N   0  0  0  0  0  0  0  0  0  0  0  0
   21.5320   -8.5667  -13.6872 C   0  0  0  0  0  0  0  0  0  0  0  0
   22.4932   -8.7441  -12.9036 O   0  0  0  0  0  0  0  0  0  0  0  0
   20.3696   -7.9058  -13.2098 N   0  0  0  0  0  0  0  0  0  0  0  0
   20.2825   -7.3994  -11.8667 C   0  0  0  0  0  0  0  0  0  0  0  0
   18.9775   -6.6789  -11.6436 C   0  0  0  0  0  0  0  0  0  0  0  0
   18.3883   -6.1467  -12.6157 O   0  0  0  0  0  0  0  0  0  0  0  0
   12.4732   -9.8776   -6.9404 N   0  0  0  0  0  0  0  0  0  0  0  0
   11.9325   -8.7755   -7.6495 C   0  0  0  0  0  0  0  0  0  0  0  0
   10.6558   -8.5865   -7.6362 N   0  0  0  0  0  0  0  0  0  0  0  0
   12.7721   -7.8820   -8.3700 N   0  0  0  0  0  0  0  0  0  0  0  0
   14.2425   -8.0209   -8.3061 C   0  0  0  0  0  0  0  0  0  0  0  0
   14.8870   -6.9599   -9.0994 C   0  0  0  0  0  0  0  0  0  0  0  0
   16.3370   -6.8931   -9.2446 C   0  0  0  0  0  0  0  0  0  0  0  0
   17.0577   -5.9765  -10.1485 C   0  0  2  0  0  0  0  0  0  0  0  0
   18.3997   -6.5876  -10.3664 N   0  0  0  0  0  0  0  0  0  0  0  0
   17.2022   -4.5715   -9.8439 C   0  0  0  0  0  0  0  0  0  0  0  0
   16.1719   -3.6577  -10.2297 O   0  0  0  0  0  0  0  0  0  0  0  0
   18.1384   -4.0221   -9.2687 O   0  0  0  0  0  0  0  0  0  0  0  0
  1  2  1  0
  2  3  1  0
  3  4  1  6
  5  3  1  0
  5  7  1  0
  6  5  2  0
  8  7  1  0
  8  9  1  0
  9 19  1  0
  9 10  2  0
 11 12  1  0
 12 14  1  0
 12 13  2  0
 14 15  1  0
 16 15  1  0
 18 17  1  1
 17 16  1  0
 18 20  1  0
 19 18  1  0
 20 22  2  0
 20 21  1  0
M  END
$$$$
