SGR.pdb
     RDKit          3D

 22 21  0  0  1  0  0  0  0  0999 V2000
   20.2622   -9.3605  -17.0454 O   0  0  0  0  0  0  0  0  0  0  0  0
   20.2788   -9.4799  -15.6509 C   0  0  0  0  0  0  0  0  0  0  0  0
   21.2136   -8.4449  -15.0808 C   0  0  2  0  0  0  0  0  0  0  0  0
   22.5653   -8.8519  -15.3496 N   0  0  0  0  0  0  0  0  0  0  0  0
   21.0207   -8.4719  -13.5950 C   0  0  0  0  0  0  0  0  0  0  0  0
   21.8142   -9.1272  -12.8805 O   0  0  0  0  0  0  0  0  0  0  0  0
   19.9554   -7.7697  -12.9721 N   0  0  0  0  0  0  0  0  0  0  0  0
   19.7415   -7.8208  -11.5510 C   0  0  0  0  0  0  0  0  0  0  0  0
   18.5877   -6.9398  -11.1454 C   0  0  0  0  0  0  0  0  0  0  0  0
   18.2453   -5.9857  -11.8855 O   0  0  0  0  0  0  0  0  0  0  0  0
   11.5475   -9.4351   -6.3088 N   0  0  0  0  0  0  0  0  0  0  0  0
   11.3081   -8.0841   -6.6660 C   0  0  0  0  0  0  0  0  0  0  0  0
   10.1843   -7.5392   -6.3409 N   0  0  0  0  0  0  0  0  0  0  0  0
   12.2828   -7.3273   -7.3727 N   0  0  0  0  0  0  0  0  0  0  0  0
   13.5846   -7.9303   -7.7293 C   0  0  0  0  0  0  0  0  0  0  0  0
   14.4347   -6.9369   -8.4082 C   0  0  0  0  0  0  0  0  0  0  0  0
   15.7743   -7.2750   -8.8762 C   0  0  0  0  0  0  0  0  0  0  0  0
   16.6849   -6.3524   -9.5805 C   0  0  2  0  0  0  0  0  0  0  0  0
   17.8807   -7.1612   -9.9519 N   0  0  0  0  0  0  0  0  0  0  0  0
   17.1030   -5.1026   -8.9882 C   0  0  0  0  0  0  0  0  0  0  0  0
   18.2824   -5.0660   -8.1800 O   0  0  0  0  0  0  0  0  0  0  0  0
   16.5563   -4.0068   -9.0869 O   0  0  0  0  0  0  0  0  0  0  0  0
  1  2  1  0
  2  3  1  0
  3  4  1  1
  5  3  1  0
  5  7  1  0
  6  5  2  0
  8  7  1  0
  8  9  1  0
  9 19  1  0
  9 10  2  0
 11 12  1  0
 12 14  1  0
 12 13  2  0
 14 15  1  0
 16 15  1  0
 18 17  1  1
 17 16  1  0
 18 20  1  0
 19 18  1  0
 20 22  2  0
 20 21  1  0
M  END
$$$$
