SGR.pdb
     RDKit          3D

 22 21  0  0  1  0  0  0  0  0999 V2000
   27.4666  -20.5166   -4.1499 O   0  0  0  0  0  0  0  0  0  0  0  0
   28.7669  -20.0521   -4.3791 C   0  0  0  0  0  0  0  0  0  0  0  0
   28.7576  -19.1387   -5.5774 C   0  0  2  0  0  0  0  0  0  0  0  0
   27.5478  -18.3636   -5.5523 N   0  0  0  0  0  0  0  0  0  0  0  0
   28.7018  -20.0242   -6.7850 C   0  0  0  0  0  0  0  0  0  0  0  0
   29.6570  -20.7972   -7.0294 O   0  0  0  0  0  0  0  0  0  0  0  0
   27.5875  -20.0099   -7.6648 N   0  0  0  0  0  0  0  0  0  0  0  0
   27.5658  -20.7875   -8.8743 C   0  0  0  0  0  0  0  0  0  0  0  0
   26.2938  -20.5501   -9.6474 C   0  0  0  0  0  0  0  0  0  0  0  0
   25.3561  -19.9062   -9.1170 O   0  0  0  0  0  0  0  0  0  0  0  0
   20.6855  -18.6062  -14.7665 N   0  0  0  0  0  0  0  0  0  0  0  0
   21.7233  -18.0278  -15.5402 C   0  0  0  0  0  0  0  0  0  0  0  0
   21.4150  -17.2290  -16.5058 N   0  0  0  0  0  0  0  0  0  0  0  0
   23.0894  -18.3142  -15.2681 N   0  0  0  0  0  0  0  0  0  0  0  0
   23.4602  -19.1788  -14.1277 C   0  0  0  0  0  0  0  0  0  0  0  0
   24.9230  -19.3442  -14.0715 C   0  0  0  0  0  0  0  0  0  0  0  0
   25.5502  -20.2468  -13.1122 C   0  0  0  0  0  0  0  0  0  0  0  0
   24.9760  -20.6315  -11.8088 C   0  0  2  0  0  0  0  0  0  0  0  0
   26.1302  -21.0346  -10.9558 N   0  0  0  0  0  0  0  0  0  0  0  0
   23.9233  -21.6158  -11.7063 C   0  0  0  0  0  0  0  0  0  0  0  0
   24.2601  -23.0051  -11.6618 O   0  0  0  0  0  0  0  0  0  0  0  0
   22.7127  -21.4147  -11.6495 O   0  0  0  0  0  0  0  0  0  0  0  0
  1  2  1  0
  2  3  1  0
  3  4  1  1
  5  3  1  0
  5  7  1  0
  6  5  2  0
  8  7  1  0
  8  9  1  0
  9 19  1  0
  9 10  2  0
 11 12  1  0
 12 14  1  0
 12 13  2  0
 14 15  1  0
 16 15  1  0
 18 17  1  6
 17 16  1  0
 18 20  1  0
 19 18  1  0
 20 22  2  0
 20 21  1  0
M  END
$$$$
