SGR.pdb
     RDKit          3D

 22 21  0  0  1  0  0  0  0  0999 V2000
   17.9737  -23.9897  -10.4742 O   0  0  0  0  0  0  0  0  0  0  0  0
   18.8421  -24.2171   -9.4002 C   0  0  0  0  0  0  0  0  0  0  0  0
   18.8526  -25.6895   -9.0807 C   0  0  2  0  0  0  0  0  0  0  0  0
   18.8308  -26.4254  -10.3148 N   0  0  0  0  0  0  0  0  0  0  0  0
   17.5698  -25.9763   -8.3611 C   0  0  0  0  0  0  0  0  0  0  0  0
   16.7532  -26.7888   -8.8535 O   0  0  0  0  0  0  0  0  0  0  0  0
   17.2542  -25.3474   -7.1279 N   0  0  0  0  0  0  0  0  0  0  0  0
   16.0807  -25.6999   -6.3751 C   0  0  0  0  0  0  0  0  0  0  0  0
   15.9118  -24.7953   -5.1813 C   0  0  0  0  0  0  0  0  0  0  0  0
   16.8593  -24.0526   -4.8264 O   0  0  0  0  0  0  0  0  0  0  0  0
   12.1088  -19.0483   -0.0655 N   0  0  0  0  0  0  0  0  0  0  0  0
   11.7231  -18.8347   -1.4130 C   0  0  0  0  0  0  0  0  0  0  0  0
   10.8921  -17.8853   -1.6845 N   0  0  0  0  0  0  0  0  0  0  0  0
   12.2361  -19.6470   -2.4615 N   0  0  0  0  0  0  0  0  0  0  0  0
   12.4587  -21.0928   -2.2478 C   0  0  0  0  0  0  0  0  0  0  0  0
   13.0047  -21.7078   -3.4701 C   0  0  0  0  0  0  0  0  0  0  0  0
   13.2253  -23.1467   -3.5642 C   0  0  0  0  0  0  0  0  0  0  0  0
   14.5092  -23.8267   -3.3080 C   0  0  2  0  0  0  0  0  0  0  0  0
   14.7124  -24.7621   -4.4507 N   0  0  0  0  0  0  0  0  0  0  0  0
   14.7677  -24.5112   -2.0621 C   0  0  0  0  0  0  0  0  0  0  0  0
   15.2215  -23.7649   -0.9296 O   0  0  0  0  0  0  0  0  0  0  0  0
   14.6460  -25.7109   -1.8272 O   0  0  0  0  0  0  0  0  0  0  0  0
  1  2  1  0
  2  3  1  0
  3  4  1  6
  5  3  1  0
  5  7  1  0
  6  5  2  0
  8  7  1  0
  8  9  1  0
  9 19  1  0
  9 10  2  0
 11 12  1  0
 12 14  1  0
 12 13  2  0
 14 15  1  0
 16 15  1  0
 18 17  1  1
 17 16  1  0
 18 20  1  0
 19 18  1  0
 20 22  2  0
 20 21  1  0
M  END
$$$$
