SGR.pdb
     RDKit          3D

 22 21  0  0  1  0  0  0  0  0999 V2000
   26.7513  -20.9846  -18.5378 O   0  0  0  0  0  0  0  0  0  0  0  0
   27.3025  -20.0393  -17.6649 C   0  0  0  0  0  0  0  0  0  0  0  0
   28.2615  -20.7329  -16.7324 C   0  0  2  0  0  0  0  0  0  0  0  0
   28.9891  -21.7228  -17.4780 N   0  0  0  0  0  0  0  0  0  0  0  0
   27.4229  -21.4548  -15.7218 C   0  0  0  0  0  0  0  0  0  0  0  0
   27.9236  -22.3933  -15.0602 O   0  0  0  0  0  0  0  0  0  0  0  0
   26.0672  -21.1002  -15.4933 N   0  0  0  0  0  0  0  0  0  0  0  0
   25.2938  -21.6991  -14.4392 C   0  0  0  0  0  0  0  0  0  0  0  0
   23.8525  -21.2636  -14.5110 C   0  0  0  0  0  0  0  0  0  0  0  0
   23.5094  -20.3884  -15.3427 O   0  0  0  0  0  0  0  0  0  0  0  0
   16.6655  -22.8498  -16.8594 N   0  0  0  0  0  0  0  0  0  0  0  0
   16.2021  -22.8234  -15.5197 C   0  0  0  0  0  0  0  0  0  0  0  0
   14.9392  -22.6802  -15.2958 N   0  0  0  0  0  0  0  0  0  0  0  0
   17.1039  -22.9516  -14.4277 N   0  0  0  0  0  0  0  0  0  0  0  0
   18.5501  -22.7119  -14.6191 C   0  0  0  0  0  0  0  0  0  0  0  0
   19.2648  -22.8762  -13.3414 C   0  0  0  0  0  0  0  0  0  0  0  0
   20.7028  -22.6532  -13.2400 C   0  0  0  0  0  0  0  0  0  0  0  0
   21.4270  -21.5084  -13.8244 C   0  0  2  0  0  0  0  0  0  0  0  0
   22.8768  -21.8164  -13.6651 N   0  0  0  0  0  0  0  0  0  0  0  0
   21.1648  -20.1517  -13.4022 C   0  0  0  0  0  0  0  0  0  0  0  0
   20.2034  -19.3665  -14.1127 O   0  0  0  0  0  0  0  0  0  0  0  0
   21.6812  -19.5450  -12.4671 O   0  0  0  0  0  0  0  0  0  0  0  0
  1  2  1  0
  2  3  1  0
  3  4  1  6
  5  3  1  0
  5  7  1  0
  6  5  2  0
  8  7  1  0
  8  9  1  0
  9 19  1  0
  9 10  2  0
 11 12  1  0
 12 14  1  0
 12 13  2  0
 14 15  1  0
 16 15  1  0
 18 17  1  1
 17 16  1  0
 18 20  1  0
 19 18  1  0
 20 22  2  0
 20 21  1  0
M  END
$$$$
