SGR.pdb
     RDKit          3D

 22 21  0  0  1  0  0  0  0  0999 V2000
   16.9830  -17.2672    4.1401 O   0  0  0  0  0  0  0  0  0  0  0  0
   17.0085  -18.4117    3.3347 C   0  0  0  0  0  0  0  0  0  0  0  0
   16.1114  -19.4591    3.9417 C   0  0  2  0  0  0  0  0  0  0  0  0
   16.7583  -19.9956    5.1073 N   0  0  0  0  0  0  0  0  0  0  0  0
   16.0072  -20.5636    2.9342 C   0  0  0  0  0  0  0  0  0  0  0  0
   16.9053  -21.4351    2.8775 O   0  0  0  0  0  0  0  0  0  0  0  0
   14.9101  -20.6484    2.0369 N   0  0  0  0  0  0  0  0  0  0  0  0
   14.7979  -21.7107    1.0742 C   0  0  0  0  0  0  0  0  0  0  0  0
   13.5063  -21.6087    0.3039 C   0  0  0  0  0  0  0  0  0  0  0  0
   12.6664  -20.7292    0.6144 O   0  0  0  0  0  0  0  0  0  0  0  0
   12.6020  -19.4705   -5.5324 N   0  0  0  0  0  0  0  0  0  0  0  0
   13.0494  -20.5647   -6.3152 C   0  0  0  0  0  0  0  0  0  0  0  0
   14.0196  -20.3854   -7.1472 N   0  0  0  0  0  0  0  0  0  0  0  0
   12.4476  -21.8476   -6.1965 N   0  0  0  0  0  0  0  0  0  0  0  0
   11.6807  -22.2055   -4.9843 C   0  0  0  0  0  0  0  0  0  0  0  0
   12.5877  -22.7209   -3.9442 C   0  0  0  0  0  0  0  0  0  0  0  0
   12.0773  -23.2537   -2.6858 C   0  0  0  0  0  0  0  0  0  0  0  0
   11.8937  -22.4742   -1.4468 C   0  0  2  0  0  0  0  0  0  0  0  0
   13.2168  -22.4789   -0.7601 N   0  0  0  0  0  0  0  0  0  0  0  0
   10.8491  -22.7919   -0.5005 C   0  0  0  0  0  0  0  0  0  0  0  0
    9.5427  -22.2387   -0.6816 O   0  0  0  0  0  0  0  0  0  0  0  0
   10.9313  -23.5100    0.4930 O   0  0  0  0  0  0  0  0  0  0  0  0
  1  2  1  0
  2  3  1  0
  3  4  1  1
  5  3  1  0
  5  7  1  0
  6  5  2  0
  8  7  1  0
  8  9  1  0
  9 19  1  0
  9 10  2  0
 11 12  1  0
 12 14  1  0
 12 13  2  0
 14 15  1  0
 16 15  1  0
 18 17  1  6
 17 16  1  0
 18 20  1  0
 19 18  1  0
 20 22  2  0
 20 21  1  0
M  END
$$$$
