SGR.pdb
     RDKit          3D

 22 21  0  0  1  0  0  0  0  0999 V2000
   17.7166  -26.4543   -1.4807 O   0  0  0  0  0  0  0  0  0  0  0  0
   17.0188  -26.0533   -2.6260 C   0  0  0  0  0  0  0  0  0  0  0  0
   17.6456  -26.6998   -3.8340 C   0  0  2  0  0  0  0  0  0  0  0  0
   19.0315  -26.3232   -3.8869 N   0  0  0  0  0  0  0  0  0  0  0  0
   16.9698  -26.1048   -5.0319 C   0  0  0  0  0  0  0  0  0  0  0  0
   15.7197  -26.1257   -5.1101 O   0  0  0  0  0  0  0  0  0  0  0  0
   17.7143  -25.5142   -6.0868 N   0  0  0  0  0  0  0  0  0  0  0  0
   17.0719  -24.9020   -7.2185 C   0  0  0  0  0  0  0  0  0  0  0  0
   18.0854  -24.2824   -8.1463 C   0  0  0  0  0  0  0  0  0  0  0  0
   19.2603  -24.0957   -7.7463 O   0  0  0  0  0  0  0  0  0  0  0  0
   19.5481  -29.3826  -10.0075 N   0  0  0  0  0  0  0  0  0  0  0  0
   20.4708  -28.4975  -10.6202 C   0  0  0  0  0  0  0  0  0  0  0  0
   21.6946  -28.8764  -10.7757 N   0  0  0  0  0  0  0  0  0  0  0  0
   20.0683  -27.2072  -11.0623 N   0  0  0  0  0  0  0  0  0  0  0  0
   18.6486  -26.8011  -10.9924 C   0  0  0  0  0  0  0  0  0  0  0  0
   18.4594  -25.5018  -11.6604 C   0  0  0  0  0  0  0  0  0  0  0  0
   19.2210  -24.3233  -11.2614 C   0  0  0  0  0  0  0  0  0  0  0  0
   18.7274  -23.2557  -10.3708 C   0  0  2  0  0  0  0  0  0  0  0  0
   17.7461  -23.9062   -9.4565 N   0  0  0  0  0  0  0  0  0  0  0  0
   18.1710  -22.0297  -10.8950 C   0  0  0  0  0  0  0  0  0  0  0  0
   19.0080  -21.1359  -11.6339 O   0  0  0  0  0  0  0  0  0  0  0  0
   17.0158  -21.6254  -10.7882 O   0  0  0  0  0  0  0  0  0  0  0  0
  1  2  1  0
  2  3  1  0
  3  4  1  6
  5  3  1  0
  5  7  1  0
  6  5  2  0
  8  7  1  0
  8  9  1  0
  9 19  1  0
  9 10  2  0
 11 12  1  0
 12 14  1  0
 12 13  2  0
 14 15  1  0
 16 15  1  0
 18 17  1  6
 17 16  1  0
 18 20  1  0
 19 18  1  0
 20 22  2  0
 20 21  1  0
M  END
$$$$
