SGR.pdb
     RDKit          3D

 22 21  0  0  1  0  0  0  0  0999 V2000
   19.0433  -20.6672  -18.4938 O   0  0  0  0  0  0  0  0  0  0  0  0
   19.4026  -20.9791  -17.1774 C   0  0  0  0  0  0  0  0  0  0  0  0
   19.9148  -22.3953  -17.1308 C   0  0  2  0  0  0  0  0  0  0  0  0
   18.8039  -23.2894  -17.3085 N   0  0  0  0  0  0  0  0  0  0  0  0
   20.4487  -22.6077  -15.7468 C   0  0  0  0  0  0  0  0  0  0  0  0
   21.3958  -21.8989  -15.3342 O   0  0  0  0  0  0  0  0  0  0  0  0
   19.9057  -23.5974  -14.8858 N   0  0  0  0  0  0  0  0  0  0  0  0
   20.3617  -23.7575  -13.5313 C   0  0  0  0  0  0  0  0  0  0  0  0
   19.6389  -24.8897  -12.8474 C   0  0  0  0  0  0  0  0  0  0  0  0
   18.4474  -25.1396  -13.1525 O   0  0  0  0  0  0  0  0  0  0  0  0
   24.0364  -31.3473   -8.9404 N   0  0  0  0  0  0  0  0  0  0  0  0
   23.2252  -31.6772  -10.0555 C   0  0  0  0  0  0  0  0  0  0  0  0
   23.5163  -32.7216  -10.7556 N   0  0  0  0  0  0  0  0  0  0  0  0
   22.1034  -30.8784  -10.4098 N   0  0  0  0  0  0  0  0  0  0  0  0
   21.6887  -29.7478   -9.5523 C   0  0  0  0  0  0  0  0  0  0  0  0
   20.5550  -29.0349  -10.1662 C   0  0  0  0  0  0  0  0  0  0  0  0
   20.6941  -27.6711  -10.6648 C   0  0  0  0  0  0  0  0  0  0  0  0
   19.6123  -26.8776  -11.2783 C   0  0  2  0  0  0  0  0  0  0  0  0
   20.2694  -25.6777  -11.8703 N   0  0  0  0  0  0  0  0  0  0  0  0
   18.4468  -26.4764  -10.5244 C   0  0  0  0  0  0  0  0  0  0  0  0
   18.5019  -25.2970   -9.7172 O   0  0  0  0  0  0  0  0  0  0  0  0
   17.3553  -27.0383  -10.4769 O   0  0  0  0  0  0  0  0  0  0  0  0
  1  2  1  0
  2  3  1  0
  3  4  1  1
  5  3  1  0
  5  7  1  0
  6  5  2  0
  8  7  1  0
  8  9  1  0
  9 19  1  0
  9 10  2  0
 11 12  1  0
 12 14  1  0
 12 13  2  0
 14 15  1  0
 16 15  1  0
 18 17  1  1
 17 16  1  0
 18 20  1  0
 19 18  1  0
 20 22  2  0
 20 21  1  0
M  END
$$$$
