SGR.pdb
     RDKit          3D

 22 21  0  0  1  0  0  0  0  0999 V2000
   28.2858  -22.3041  -18.9385 O   0  0  0  0  0  0  0  0  0  0  0  0
   28.3061  -21.1861  -18.0966 C   0  0  0  0  0  0  0  0  0  0  0  0
   27.9264  -21.6144  -16.7028 C   0  0  2  0  0  0  0  0  0  0  0  0
   26.5788  -22.1130  -16.7288 N   0  0  0  0  0  0  0  0  0  0  0  0
   27.9330  -20.3742  -15.8616 C   0  0  0  0  0  0  0  0  0  0  0  0
   29.0225  -19.8217  -15.5838 O   0  0  0  0  0  0  0  0  0  0  0  0
   26.7291  -19.8057  -15.3684 N   0  0  0  0  0  0  0  0  0  0  0  0
   26.7332  -18.6966  -14.4531 C   0  0  0  0  0  0  0  0  0  0  0  0
   26.5395  -19.1656  -13.0338 C   0  0  0  0  0  0  0  0  0  0  0  0
   27.5352  -19.2890  -12.2796 O   0  0  0  0  0  0  0  0  0  0  0  0
   20.4338  -22.8900   -7.4176 N   0  0  0  0  0  0  0  0  0  0  0  0
   19.8875  -22.1885   -8.5219 C   0  0  0  0  0  0  0  0  0  0  0  0
   18.6599  -22.4042   -8.8567 N   0  0  0  0  0  0  0  0  0  0  0  0
   20.6687  -21.2573   -9.2601 N   0  0  0  0  0  0  0  0  0  0  0  0
   21.6633  -21.7303  -10.2463 C   0  0  0  0  0  0  0  0  0  0  0  0
   22.9643  -21.0828  -10.0048 C   0  0  0  0  0  0  0  0  0  0  0  0
   23.6178  -20.2815  -11.0339 C   0  0  0  0  0  0  0  0  0  0  0  0
   25.0760  -20.1861  -11.2362 C   0  0  2  0  0  0  0  0  0  0  0  0
   25.2640  -19.4701  -12.5300 N   0  0  0  0  0  0  0  0  0  0  0  0
   25.9239  -21.3553  -11.1951 C   0  0  0  0  0  0  0  0  0  0  0  0
   26.6881  -21.6300  -10.0178 O   0  0  0  0  0  0  0  0  0  0  0  0
   26.0896  -22.1920  -12.0793 O   0  0  0  0  0  0  0  0  0  0  0  0
  1  2  1  0
  2  3  1  0
  3  4  1  6
  5  3  1  0
  5  7  1  0
  6  5  2  0
  8  7  1  0
  8  9  1  0
  9 19  1  0
  9 10  2  0
 11 12  1  0
 12 14  1  0
 12 13  2  0
 14 15  1  0
 16 15  1  0
 18 17  1  6
 17 16  1  0
 18 20  1  0
 19 18  1  0
 20 22  2  0
 20 21  1  0
M  END
$$$$
