PFW.pdb
     RDKit          3D

 33 36  0  0  1  0  0  0  0  0999 V2000
   28.6149  -20.6041  -16.6462 N   0  0  0  0  0  0  0  0  0  0  0  0
   28.7743  -20.4507  -18.0560 C   0  0  0  0  0  0  0  0  0  0  0  0
   29.0376  -18.9879  -18.3314 C   0  0  0  0  0  0  0  0  0  0  0  0
   28.4706  -18.3387  -17.0646 C   0  0  0  0  0  0  0  0  0  0  0  0
   28.8424  -19.3401  -16.0258 C   0  0  1  0  0  0  0  0  0  0  0  0
   28.0745  -19.1752  -14.7640 C   0  0  0  0  0  0  0  0  0  0  0  0
   28.2352  -18.1100  -14.1284 O   0  0  0  0  0  0  0  0  0  0  0  0
   27.1897  -20.1503  -14.2632 N   0  0  0  0  0  0  0  0  0  0  0  0
   26.2929  -19.8229  -13.1701 C   0  0  1  0  0  0  0  0  0  0  0  0
   24.8667  -19.8112  -13.6247 C   0  0  0  0  0  0  0  0  0  0  0  0
   24.5553  -18.7128  -14.5688 C   0  0  0  0  0  0  0  0  0  0  0  0
   24.5581  -18.9348  -15.9298 C   0  0  0  0  0  0  0  0  0  0  0  0
   24.2785  -17.9548  -16.8517 C   0  0  0  0  0  0  0  0  0  0  0  0
   23.9807  -16.6870  -16.3941 C   0  0  0  0  0  0  0  0  0  0  0  0
   23.9720  -16.4409  -15.0334 C   0  0  0  0  0  0  0  0  0  0  0  0
   24.2582  -17.4484  -14.1149 C   0  0  0  0  0  0  0  0  0  0  0  0
   26.5665  -20.6927  -12.0137 C   0  0  0  0  0  0  0  0  0  0  0  0
   27.0115  -21.8611  -12.2438 O   0  0  0  0  0  0  0  0  0  0  0  0
   26.3605  -20.2909  -10.6710 N   0  0  0  0  0  0  0  0  0  0  0  0
   26.3203  -21.3003   -9.6232 C   0  0  1  0  0  0  0  0  0  0  0  0
   27.6576  -21.3665   -8.9251 C   0  0  0  0  0  0  0  0  0  0  0  0
   27.7791  -20.3316   -7.8959 C   0  0  0  0  0  0  0  0  0  0  0  0
   27.1836  -19.0770   -7.8741 C   0  0  0  0  0  0  0  0  0  0  0  0
   27.5766  -18.4117   -6.7818 N   0  0  0  0  0  0  0  0  0  0  0  0
   28.4159  -19.1771   -6.0675 C   0  0  0  0  0  0  0  0  0  0  0  0
   29.0927  -18.9959   -4.8641 C   0  0  0  0  0  0  0  0  0  0  0  0
   29.8896  -19.9830   -4.3400 C   0  0  0  0  0  0  0  0  0  0  0  0
   30.0349  -21.1869   -5.0061 C   0  0  0  0  0  0  0  0  0  0  0  0
   29.3700  -21.3737   -6.1969 C   0  0  0  0  0  0  0  0  0  0  0  0
   28.5557  -20.3764   -6.7424 C   0  0  0  0  0  0  0  0  0  0  0  0
   25.1752  -21.1905   -8.7458 C   0  0  0  0  0  0  0  0  0  0  0  0
   25.0134  -22.1317   -7.7092 O   0  0  0  0  0  0  0  0  0  0  0  0
   24.2732  -20.3217   -8.8021 O   0  0  0  0  0  0  0  0  0  0  0  0
  1  2  1  0
  2  3  1  0
  4  3  1  0
  5  4  1  0
  5  1  1  0
  5  6  1  1
  7  6  2  0
  8  6  1  0
  9  8  1  0
 10 11  1  0
  9 10  1  6
 11 16  2  0
 12 13  2  0
 12 11  1  0
 13 14  1  0
 14 15  2  0
 16 15  1  0
 17  9  1  0
 17 19  1  0
 18 17  2  0
 20 21  1  1
 20 19  1  0
 20 31  1  0
 22 30  1  0
 22 21  1  0
 23 22  2  0
 24 23  1  0
 24 25  1  0
 25 26  1  0
 25 30  2  0
 26 27  2  0
 27 28  1  0
 29 28  2  0
 30 29  1  0
 31 32  1  0
 33 31  2  0
M  END
$$$$
