PFW.pdb
     RDKit          3D

 33 36  0  0  1  0  0  0  0  0999 V2000
   27.4235  -19.7293  -13.5168 N   0  0  0  0  0  0  0  0  0  0  0  0
   28.2043  -19.4767  -14.6843 C   0  0  0  0  0  0  0  0  0  0  0  0
   28.9901  -20.7311  -14.9910 C   0  0  0  0  0  0  0  0  0  0  0  0
   28.9789  -21.4312  -13.6281 C   0  0  0  0  0  0  0  0  0  0  0  0
   27.6174  -21.0882  -13.1291 C   0  0  1  0  0  0  0  0  0  0  0  0
   27.4713  -21.2921  -11.6642 C   0  0  0  0  0  0  0  0  0  0  0  0
   27.0224  -22.3943  -11.2792 O   0  0  0  0  0  0  0  0  0  0  0  0
   27.8107  -20.3140  -10.7088 N   0  0  0  0  0  0  0  0  0  0  0  0
   27.5890  -20.5709   -9.2977 C   0  0  1  0  0  0  0  0  0  0  0  0
   28.7049  -20.0208   -8.4653 C   0  0  0  0  0  0  0  0  0  0  0  0
   28.3893  -19.9578   -7.0192 C   0  0  0  0  0  0  0  0  0  0  0  0
   28.0479  -18.7604   -6.4265 C   0  0  0  0  0  0  0  0  0  0  0  0
   27.7469  -18.6418   -5.0909 C   0  0  0  0  0  0  0  0  0  0  0  0
   27.7881  -19.7753   -4.3043 C   0  0  0  0  0  0  0  0  0  0  0  0
   28.1281  -20.9873   -4.8768 C   0  0  0  0  0  0  0  0  0  0  0  0
   28.4299  -21.0864   -6.2333 C   0  0  0  0  0  0  0  0  0  0  0  0
   26.2437  -20.1174   -8.9065 C   0  0  0  0  0  0  0  0  0  0  0  0
   26.1134  -18.9126   -8.5223 O   0  0  0  0  0  0  0  0  0  0  0  0
   25.1000  -20.9526   -8.9399 N   0  0  0  0  0  0  0  0  0  0  0  0
   23.8960  -20.4858   -9.6113 C   0  0  1  0  0  0  0  0  0  0  0  0
   24.2602  -19.8524  -10.9328 C   0  0  0  0  0  0  0  0  0  0  0  0
   23.0719  -19.3891  -11.6530 C   0  0  0  0  0  0  0  0  0  0  0  0
   21.9236  -18.8153  -11.1229 C   0  0  0  0  0  0  0  0  0  0  0  0
   21.0497  -18.5681  -12.1054 N   0  0  0  0  0  0  0  0  0  0  0  0
   21.5722  -18.9555  -13.2791 C   0  0  0  0  0  0  0  0  0  0  0  0
   21.1155  -18.9151  -14.5940 C   0  0  0  0  0  0  0  0  0  0  0  0
   21.8899  -19.3724  -15.6308 C   0  0  0  0  0  0  0  0  0  0  0  0
   23.1505  -19.8864  -15.3837 C   0  0  0  0  0  0  0  0  0  0  0  0
   23.6091  -19.9308  -14.0865 C   0  0  0  0  0  0  0  0  0  0  0  0
   22.8303  -19.4691  -13.0209 C   0  0  0  0  0  0  0  0  0  0  0  0
   22.8390  -21.4718   -9.6744 C   0  0  0  0  0  0  0  0  0  0  0  0
   23.0819  -22.6959  -10.3296 O   0  0  0  0  0  0  0  0  0  0  0  0
   21.6857  -21.3602   -9.1959 O   0  0  0  0  0  0  0  0  0  0  0  0
  1  2  1  0
  2  3  1  0
  4  3  1  0
  5  4  1  0
  5  1  1  0
  5  6  1  1
  7  6  2  0
  8  6  1  0
  9  8  1  0
 10 11  1  0
  9 10  1  1
 11 16  2  0
 12 13  2  0
 12 11  1  0
 13 14  1  0
 14 15  2  0
 16 15  1  0
 17  9  1  0
 17 19  1  0
 18 17  2  0
 20 21  1  6
 20 19  1  0
 20 31  1  0
 22 30  1  0
 22 21  1  0
 23 22  2  0
 24 23  1  0
 24 25  1  0
 25 26  1  0
 25 30  2  0
 26 27  2  0
 27 28  1  0
 29 28  2  0
 30 29  1  0
 31 32  1  0
 33 31  2  0
M  END
$$$$
