PFW.pdb
     RDKit          3D

 33 36  0  0  1  0  0  0  0  0999 V2000
   28.5281  -21.5859  -13.2115 N   0  0  0  0  0  0  0  0  0  0  0  0
   28.8042  -20.8973  -14.4305 C   0  0  0  0  0  0  0  0  0  0  0  0
   28.9955  -19.4351  -14.0983 C   0  0  0  0  0  0  0  0  0  0  0  0
   28.2751  -19.3386  -12.7495 C   0  0  0  0  0  0  0  0  0  0  0  0
   28.6157  -20.6531  -12.1360 C   0  0  1  0  0  0  0  0  0  0  0  0
   27.7276  -21.0063  -10.9979 C   0  0  0  0  0  0  0  0  0  0  0  0
   27.1382  -22.1083  -11.0493 O   0  0  0  0  0  0  0  0  0  0  0  0
   27.5255  -20.1674   -9.8843 N   0  0  0  0  0  0  0  0  0  0  0  0
   26.2523  -20.1811   -9.1877 C   0  0  1  0  0  0  0  0  0  0  0  0
   26.2911  -19.3093   -7.9714 C   0  0  0  0  0  0  0  0  0  0  0  0
   27.2872  -19.7425   -6.9641 C   0  0  0  0  0  0  0  0  0  0  0  0
   26.8984  -20.4737   -5.8615 C   0  0  0  0  0  0  0  0  0  0  0  0
   27.7770  -20.9011   -4.8951 C   0  0  0  0  0  0  0  0  0  0  0  0
   29.1131  -20.5833   -5.0341 C   0  0  0  0  0  0  0  0  0  0  0  0
   29.5262  -19.8506   -6.1317 C   0  0  0  0  0  0  0  0  0  0  0  0
   28.6194  -19.4268   -7.1006 C   0  0  0  0  0  0  0  0  0  0  0  0
   25.1584  -19.8834  -10.1276 C   0  0  0  0  0  0  0  0  0  0  0  0
   25.4139  -19.1186  -11.1104 O   0  0  0  0  0  0  0  0  0  0  0  0
   23.8490  -20.4060   -9.9893 N   0  0  0  0  0  0  0  0  0  0  0  0
   22.9050  -20.2631  -11.0879 C   0  0  1  0  0  0  0  0  0  0  0  0
   23.5108  -20.8117  -12.3576 C   0  0  0  0  0  0  0  0  0  0  0  0
   22.6193  -20.6230  -13.5043 C   0  0  0  0  0  0  0  0  0  0  0  0
   22.2198  -19.4266  -14.0856 C   0  0  0  0  0  0  0  0  0  0  0  0
   21.3677  -19.6756  -15.0867 N   0  0  0  0  0  0  0  0  0  0  0  0
   21.1814  -20.9997  -15.1989 C   0  0  0  0  0  0  0  0  0  0  0  0
   20.4307  -21.7945  -16.0615 C   0  0  0  0  0  0  0  0  0  0  0  0
   20.4441  -23.1633  -15.9610 C   0  0  0  0  0  0  0  0  0  0  0  0
   21.2119  -23.7823  -14.9907 C   0  0  0  0  0  0  0  0  0  0  0  0
   21.9562  -23.0038  -14.1334 C   0  0  0  0  0  0  0  0  0  0  0  0
   21.9511  -21.6085  -14.2241 C   0  0  0  0  0  0  0  0  0  0  0  0
   21.5746  -20.7446  -10.7852 C   0  0  0  0  0  0  0  0  0  0  0  0
   21.4197  -21.7890   -9.8514 O   0  0  0  0  0  0  0  0  0  0  0  0
   20.5002  -20.3253  -11.2765 O   0  0  0  0  0  0  0  0  0  0  0  0
  1  2  1  0
  2  3  1  0
  4  3  1  0
  5  4  1  0
  5  1  1  0
  5  6  1  1
  7  6  2  0
  8  6  1  0
  9  8  1  0
 10 11  1  0
  9 10  1  1
 11 16  2  0
 12 13  2  0
 12 11  1  0
 13 14  1  0
 14 15  2  0
 16 15  1  0
 17  9  1  0
 17 19  1  0
 18 17  2  0
 20 21  1  6
 20 19  1  0
 20 31  1  0
 22 30  1  0
 22 21  1  0
 23 22  2  0
 24 23  1  0
 24 25  1  0
 25 26  1  0
 25 30  2  0
 26 27  2  0
 27 28  1  0
 29 28  2  0
 30 29  1  0
 31 32  1  0
 33 31  2  0
M  END
$$$$
