PFW.pdb
     RDKit          3D

 33 36  0  0  1  0  0  0  0  0999 V2000
   27.8264  -19.3969  -14.9757 N   0  0  0  0  0  0  0  0  0  0  0  0
   27.7601  -18.2411  -15.8101 C   0  0  0  0  0  0  0  0  0  0  0  0
   27.2518  -17.0946  -14.9662 C   0  0  0  0  0  0  0  0  0  0  0  0
   26.5604  -17.8476  -13.8248 C   0  0  0  0  0  0  0  0  0  0  0  0
   27.4665  -19.0173  -13.6487 C   0  0  1  0  0  0  0  0  0  0  0  0
   26.8356  -20.1267  -12.8871 C   0  0  0  0  0  0  0  0  0  0  0  0
   26.8924  -21.2719  -13.3866 O   0  0  0  0  0  0  0  0  0  0  0  0
   26.1882  -19.9455  -11.6490 N   0  0  0  0  0  0  0  0  0  0  0  0
   25.5090  -21.0609  -11.0159 C   0  0  1  0  0  0  0  0  0  0  0  0
   25.5382  -20.9367   -9.5244 C   0  0  0  0  0  0  0  0  0  0  0  0
   26.8757  -20.5983   -8.9846 C   0  0  0  0  0  0  0  0  0  0  0  0
   28.0159  -21.1301   -9.5494 C   0  0  0  0  0  0  0  0  0  0  0  0
   29.2813  -20.8531   -9.0906 C   0  0  0  0  0  0  0  0  0  0  0  0
   29.4183  -20.0020   -8.0126 C   0  0  0  0  0  0  0  0  0  0  0  0
   28.2889  -19.4568   -7.4298 C   0  0  0  0  0  0  0  0  0  0  0  0
   27.0146  -19.7503   -7.9102 C   0  0  0  0  0  0  0  0  0  0  0  0
   24.1662  -21.2307  -11.5963 C   0  0  0  0  0  0  0  0  0  0  0  0
   23.1707  -20.8361  -10.9112 O   0  0  0  0  0  0  0  0  0  0  0  0
   23.9355  -21.8056  -12.8703 N   0  0  0  0  0  0  0  0  0  0  0  0
   22.9145  -21.2341  -13.7358 C   0  0  1  0  0  0  0  0  0  0  0  0
   23.1202  -19.7428  -13.8539 C   0  0  0  0  0  0  0  0  0  0  0  0
   22.0496  -18.9975  -13.1880 C   0  0  0  0  0  0  0  0  0  0  0  0
   21.4486  -19.2765  -11.9674 C   0  0  0  0  0  0  0  0  0  0  0  0
   20.4826  -18.3824  -11.7271 N   0  0  0  0  0  0  0  0  0  0  0  0
   20.4144  -17.5106  -12.7448 C   0  0  0  0  0  0  0  0  0  0  0  0
   19.6238  -16.3933  -13.0012 C   0  0  0  0  0  0  0  0  0  0  0  0
   19.7888  -15.6517  -14.1444 C   0  0  0  0  0  0  0  0  0  0  0  0
   20.7539  -16.0060  -15.0704 C   0  0  0  0  0  0  0  0  0  0  0  0
   21.5390  -17.1097  -14.8248 C   0  0  0  0  0  0  0  0  0  0  0  0
   21.3809  -17.8745  -13.6649 C   0  0  0  0  0  0  0  0  0  0  0  0
   22.7519  -21.9322  -14.9925 C   0  0  0  0  0  0  0  0  0  0  0  0
   21.4949  -21.9124  -15.6299 O   0  0  0  0  0  0  0  0  0  0  0  0
   23.6335  -22.5794  -15.6054 O   0  0  0  0  0  0  0  0  0  0  0  0
  1  2  1  0
  2  3  1  0
  4  3  1  0
  5  4  1  0
  5  1  1  0
  5  6  1  6
  7  6  2  0
  8  6  1  0
  9  8  1  0
 10 11  1  0
  9 10  1  1
 11 16  2  0
 12 13  2  0
 12 11  1  0
 13 14  1  0
 14 15  2  0
 16 15  1  0
 17  9  1  0
 17 19  1  0
 18 17  2  0
 20 21  1  6
 20 19  1  0
 20 31  1  0
 22 30  1  0
 22 21  1  0
 23 22  2  0
 24 23  1  0
 24 25  1  0
 25 26  1  0
 25 30  2  0
 26 27  2  0
 27 28  1  0
 29 28  2  0
 30 29  1  0
 31 32  1  0
 33 31  2  0
M  END
$$$$
