PFW.pdb
     RDKit          3D

 33 36  0  0  1  0  0  0  0  0999 V2000
   27.8869  -20.3813  -17.2711 N   0  0  0  0  0  0  0  0  0  0  0  0
   29.1021  -20.3471  -18.0185 C   0  0  0  0  0  0  0  0  0  0  0  0
   29.7054  -21.7325  -17.9771 C   0  0  0  0  0  0  0  0  0  0  0  0
   29.0226  -22.3185  -16.7369 C   0  0  0  0  0  0  0  0  0  0  0  0
   27.6612  -21.7211  -16.8371 C   0  0  1  0  0  0  0  0  0  0  0  0
   26.9054  -21.7894  -15.5592 C   0  0  0  0  0  0  0  0  0  0  0  0
   26.2661  -22.8386  -15.3249 O   0  0  0  0  0  0  0  0  0  0  0  0
   26.8793  -20.7412  -14.6184 N   0  0  0  0  0  0  0  0  0  0  0  0
   26.1825  -20.9159  -13.3573 C   0  0  1  0  0  0  0  0  0  0  0  0
   27.0231  -20.4580  -12.2062 C   0  0  0  0  0  0  0  0  0  0  0  0
   26.3275  -20.5289  -10.9002 C   0  0  0  0  0  0  0  0  0  0  0  0
   26.5003  -21.6170  -10.0708 C   0  0  0  0  0  0  0  0  0  0  0  0
   25.8804  -21.7375   -8.8502 C   0  0  0  0  0  0  0  0  0  0  0  0
   25.0445  -20.7210   -8.4339 C   0  0  0  0  0  0  0  0  0  0  0  0
   24.8559  -19.6200   -9.2491 C   0  0  0  0  0  0  0  0  0  0  0  0
   25.4938  -19.5169  -10.4833 C   0  0  0  0  0  0  0  0  0  0  0  0
   24.8454  -20.3030  -13.4292 C   0  0  0  0  0  0  0  0  0  0  0  0
   24.7569  -19.1300  -13.9113 O   0  0  0  0  0  0  0  0  0  0  0  0
   23.6657  -20.9542  -12.9922 N   0  0  0  0  0  0  0  0  0  0  0  0
   22.3708  -20.3650  -13.2995 C   0  0  1  0  0  0  0  0  0  0  0  0
   22.2633  -20.1123  -14.7843 C   0  0  0  0  0  0  0  0  0  0  0  0
   20.9669  -19.5298  -15.1385 C   0  0  0  0  0  0  0  0  0  0  0  0
   19.9971  -19.0245  -14.2824 C   0  0  0  0  0  0  0  0  0  0  0  0
   18.9368  -18.6213  -14.9920 N   0  0  0  0  0  0  0  0  0  0  0  0
   19.1615  -18.8375  -16.2971 C   0  0  0  0  0  0  0  0  0  0  0  0
   18.4222  -18.5954  -17.4521 C   0  0  0  0  0  0  0  0  0  0  0  0
   18.9195  -18.9047  -18.6935 C   0  0  0  0  0  0  0  0  0  0  0  0
   20.1770  -19.4681  -18.8186 C   0  0  0  0  0  0  0  0  0  0  0  0
   20.9139  -19.7115  -17.6817 C   0  0  0  0  0  0  0  0  0  0  0  0
   20.4191  -19.4021  -16.4110 C   0  0  0  0  0  0  0  0  0  0  0  0
   21.2511  -21.0703  -12.7147 C   0  0  0  0  0  0  0  0  0  0  0  0
   20.2997  -20.3465  -11.9681 O   0  0  0  0  0  0  0  0  0  0  0  0
   21.0189  -22.2995  -12.7970 O   0  0  0  0  0  0  0  0  0  0  0  0
  1  2  1  0
  2  3  1  0
  4  3  1  0
  5  4  1  0
  5  1  1  0
  5  6  1  1
  7  6  2  0
  8  6  1  0
  9  8  1  0
 10 11  1  0
  9 10  1  1
 11 16  2  0
 12 13  2  0
 12 11  1  0
 13 14  1  0
 14 15  2  0
 16 15  1  0
 17  9  1  0
 17 19  1  0
 18 17  2  0
 20 21  1  6
 20 19  1  0
 20 31  1  0
 22 30  1  0
 22 21  1  0
 23 22  2  0
 24 23  1  0
 24 25  1  0
 25 26  1  0
 25 30  2  0
 26 27  2  0
 27 28  1  0
 29 28  2  0
 30 29  1  0
 31 32  1  0
 33 31  2  0
M  END
$$$$
