PFW.pdb
     RDKit          3D

 33 36  0  0  1  0  0  0  0  0999 V2000
   28.6043  -19.6309  -13.4825 N   0  0  0  0  0  0  0  0  0  0  0  0
   29.3948  -19.7155  -14.6675 C   0  0  0  0  0  0  0  0  0  0  0  0
   29.4201  -21.1638  -15.0997 C   0  0  0  0  0  0  0  0  0  0  0  0
   29.0604  -21.8727  -13.7898 C   0  0  0  0  0  0  0  0  0  0  0  0
   28.0738  -20.9245  -13.2001 C   0  0  1  0  0  0  0  0  0  0  0  0
   27.8547  -21.1489  -11.7473 C   0  0  0  0  0  0  0  0  0  0  0  0
   27.0619  -22.0590  -11.4195 O   0  0  0  0  0  0  0  0  0  0  0  0
   28.4908  -20.3932  -10.7428 N   0  0  0  0  0  0  0  0  0  0  0  0
   28.1205  -20.5788   -9.3518 C   0  0  1  0  0  0  0  0  0  0  0  0
   29.2118  -20.1209   -8.4352 C   0  0  0  0  0  0  0  0  0  0  0  0
   28.8256  -20.1279   -7.0050 C   0  0  0  0  0  0  0  0  0  0  0  0
   28.1885  -19.0408   -6.4445 C   0  0  0  0  0  0  0  0  0  0  0  0
   27.8084  -18.9907   -5.1248 C   0  0  0  0  0  0  0  0  0  0  0  0
   28.0770  -20.0803   -4.3212 C   0  0  0  0  0  0  0  0  0  0  0  0
   28.7152  -21.1818   -4.8614 C   0  0  0  0  0  0  0  0  0  0  0  0
   29.0924  -21.2128   -6.2022 C   0  0  0  0  0  0  0  0  0  0  0  0
   26.8023  -19.9747   -9.0945 C   0  0  0  0  0  0  0  0  0  0  0  0
   26.6419  -18.7512   -9.4001 O   0  0  0  0  0  0  0  0  0  0  0  0
   25.7160  -20.6873   -8.5298 N   0  0  0  0  0  0  0  0  0  0  0  0
   24.3575  -20.3468   -8.9258 C   0  0  1  0  0  0  0  0  0  0  0  0
   24.2545  -20.3230  -10.4321 C   0  0  0  0  0  0  0  0  0  0  0  0
   22.8943  -20.0063  -10.8735 C   0  0  0  0  0  0  0  0  0  0  0  0
   22.0630  -18.9933  -10.4134 C   0  0  0  0  0  0  0  0  0  0  0  0
   20.8827  -19.0609  -11.0399 N   0  0  0  0  0  0  0  0  0  0  0  0
   20.8925  -20.0849  -11.9070 C   0  0  0  0  0  0  0  0  0  0  0  0
   19.9597  -20.5875  -12.8105 C   0  0  0  0  0  0  0  0  0  0  0  0
   20.2527  -21.6627  -13.6119 C   0  0  0  0  0  0  0  0  0  0  0  0
   21.4930  -22.2710  -13.5341 C   0  0  0  0  0  0  0  0  0  0  0  0
   22.4204  -21.7808  -12.6428 C   0  0  0  0  0  0  0  0  0  0  0  0
   22.1348  -20.6869  -11.8201 C   0  0  0  0  0  0  0  0  0  0  0  0
   23.3379  -21.1226   -8.2535 C   0  0  0  0  0  0  0  0  0  0  0  0
   23.6410  -22.4325   -7.8307 O   0  0  0  0  0  0  0  0  0  0  0  0
   22.1692  -20.7515   -7.9930 O   0  0  0  0  0  0  0  0  0  0  0  0
  1  2  1  0
  2  3  1  0
  4  3  1  0
  5  4  1  0
  5  1  1  0
  5  6  1  1
  7  6  2  0
  8  6  1  0
  9  8  1  0
 10 11  1  0
  9 10  1  1
 11 16  2  0
 12 13  2  0
 12 11  1  0
 13 14  1  0
 14 15  2  0
 16 15  1  0
 17  9  1  0
 17 19  1  0
 18 17  2  0
 20 21  1  6
 20 19  1  0
 20 31  1  0
 22 30  1  0
 22 21  1  0
 23 22  2  0
 24 23  1  0
 24 25  1  0
 25 26  1  0
 25 30  2  0
 26 27  2  0
 27 28  1  0
 29 28  2  0
 30 29  1  0
 31 32  1  0
 33 31  2  0
M  END
$$$$
