PFW.pdb
     RDKit          3D

 33 36  0  0  1  0  0  0  0  0999 V2000
   15.0520  -17.7189    3.8567 N   0  0  0  0  0  0  0  0  0  0  0  0
   14.0838  -17.4175    2.8526 C   0  0  0  0  0  0  0  0  0  0  0  0
   14.6705  -17.8119    1.5164 C   0  0  0  0  0  0  0  0  0  0  0  0
   16.1683  -17.8209    1.8389 C   0  0  0  0  0  0  0  0  0  0  0  0
   16.1691  -18.3488    3.2323 C   0  0  1  0  0  0  0  0  0  0  0  0
   17.4460  -18.0893    3.9472 C   0  0  0  0  0  0  0  0  0  0  0  0
   18.4845  -18.6000    3.4726 O   0  0  0  0  0  0  0  0  0  0  0  0
   17.5340  -17.3069    5.1154 N   0  0  0  0  0  0  0  0  0  0  0  0
   18.8292  -17.0395    5.7132 C   0  0  1  0  0  0  0  0  0  0  0  0
   18.8507  -15.7005    6.3823 C   0  0  0  0  0  0  0  0  0  0  0  0
   18.9133  -14.5651    5.4327 C   0  0  0  0  0  0  0  0  0  0  0  0
   19.0123  -13.2691    5.8934 C   0  0  0  0  0  0  0  0  0  0  0  0
   19.0726  -12.1779    5.0603 C   0  0  0  0  0  0  0  0  0  0  0  0
   19.0319  -12.3885    3.6967 C   0  0  0  0  0  0  0  0  0  0  0  0
   18.9326  -13.6797    3.2116 C   0  0  0  0  0  0  0  0  0  0  0  0
   18.8728  -14.7728    4.0732 C   0  0  0  0  0  0  0  0  0  0  0  0
   19.2325  -18.1664    6.5712 C   0  0  0  0  0  0  0  0  0  0  0  0
   18.3247  -18.7607    7.2336 O   0  0  0  0  0  0  0  0  0  0  0  0
   20.5710  -18.6148    6.6896 N   0  0  0  0  0  0  0  0  0  0  0  0
   20.8709  -19.7405    7.5621 C   0  0  1  0  0  0  0  0  0  0  0  0
   21.6195  -20.8006    6.7902 C   0  0  0  0  0  0  0  0  0  0  0  0
   20.7433  -21.4989    5.8469 C   0  0  0  0  0  0  0  0  0  0  0  0
   20.1672  -20.9970    4.6871 C   0  0  0  0  0  0  0  0  0  0  0  0
   19.3984  -21.9363    4.1241 N   0  0  0  0  0  0  0  0  0  0  0  0
   19.4390  -23.0537    4.8658 C   0  0  0  0  0  0  0  0  0  0  0  0
   18.8571  -24.3125    4.7390 C   0  0  0  0  0  0  0  0  0  0  0  0
   19.0955  -25.3028    5.6590 C   0  0  0  0  0  0  0  0  0  0  0  0
   19.9269  -25.0639    6.7389 C   0  0  0  0  0  0  0  0  0  0  0  0
   20.5053  -23.8218    6.8720 C   0  0  0  0  0  0  0  0  0  0  0  0
   20.2703  -22.8038    5.9427 C   0  0  0  0  0  0  0  0  0  0  0  0
   21.4700  -19.3624    8.8236 C   0  0  0  0  0  0  0  0  0  0  0  0
   21.6720  -20.3493    9.8094 O   0  0  0  0  0  0  0  0  0  0  0  0
   21.8450  -18.2134    9.1563 O   0  0  0  0  0  0  0  0  0  0  0  0
  1  2  1  0
  2  3  1  0
  4  3  1  0
  5  4  1  0
  5  1  1  0
  5  6  1  1
  7  6  2  0
  8  6  1  0
  9  8  1  0
 10 11  1  0
  9 10  1  1
 11 16  2  0
 12 13  2  0
 12 11  1  0
 13 14  1  0
 14 15  2  0
 16 15  1  0
 17  9  1  0
 17 19  1  0
 18 17  2  0
 20 21  1  6
 20 19  1  0
 20 31  1  0
 22 30  1  0
 22 21  1  0
 23 22  2  0
 24 23  1  0
 24 25  1  0
 25 26  1  0
 25 30  2  0
 26 27  2  0
 27 28  1  0
 29 28  2  0
 30 29  1  0
 31 32  1  0
 33 31  2  0
M  END
$$$$
