PFW.pdb
     RDKit          3D

 33 36  0  0  1  0  0  0  0  0999 V2000
   26.7854  -19.5470  -15.0919 N   0  0  0  0  0  0  0  0  0  0  0  0
   28.1220  -19.0552  -15.1803 C   0  0  0  0  0  0  0  0  0  0  0  0
   29.0413  -20.1244  -14.6355 C   0  0  0  0  0  0  0  0  0  0  0  0
   28.0707  -20.9451  -13.7799 C   0  0  0  0  0  0  0  0  0  0  0  0
   26.8281  -20.8852  -14.6001 C   0  0  1  0  0  0  0  0  0  0  0  0
   25.6104  -21.2516  -13.8307 C   0  0  0  0  0  0  0  0  0  0  0  0
   25.5879  -22.3812  -13.2941 O   0  0  0  0  0  0  0  0  0  0  0  0
   24.5011  -20.3958  -13.6834 N   0  0  0  0  0  0  0  0  0  0  0  0
   23.4105  -20.7676  -12.8010 C   0  0  1  0  0  0  0  0  0  0  0  0
   23.2636  -19.7876  -11.6790 C   0  0  0  0  0  0  0  0  0  0  0  0
   24.2251  -20.0052  -10.5732 C   0  0  0  0  0  0  0  0  0  0  0  0
   25.5602  -19.6991  -10.7333 C   0  0  0  0  0  0  0  0  0  0  0  0
   26.4967  -19.8809   -9.7442 C   0  0  0  0  0  0  0  0  0  0  0  0
   26.0819  -20.3947   -8.5320 C   0  0  0  0  0  0  0  0  0  0  0  0
   24.7478  -20.7092   -8.3486 C   0  0  0  0  0  0  0  0  0  0  0  0
   23.8138  -20.5172   -9.3643 C   0  0  0  0  0  0  0  0  0  0  0  0
   22.1847  -21.0013  -13.5829 C   0  0  0  0  0  0  0  0  0  0  0  0
   21.7228  -20.0320  -14.2635 O   0  0  0  0  0  0  0  0  0  0  0  0
   21.5048  -22.2437  -13.6126 N   0  0  0  0  0  0  0  0  0  0  0  0
   20.2707  -22.3628  -14.3749 C   0  0  1  0  0  0  0  0  0  0  0  0
   20.5552  -23.0042  -15.7120 C   0  0  0  0  0  0  0  0  0  0  0  0
   21.1979  -24.3110  -15.5559 C   0  0  0  0  0  0  0  0  0  0  0  0
   20.6601  -25.4645  -14.9999 C   0  0  0  0  0  0  0  0  0  0  0  0
   21.5797  -26.4364  -15.0036 N   0  0  0  0  0  0  0  0  0  0  0  0
   22.7179  -25.9756  -15.5445 C   0  0  0  0  0  0  0  0  0  0  0  0
   23.9585  -26.5510  -15.8070 C   0  0  0  0  0  0  0  0  0  0  0  0
   24.9635  -25.8334  -16.4062 C   0  0  0  0  0  0  0  0  0  0  0  0
   24.7579  -24.5125  -16.7630 C   0  0  0  0  0  0  0  0  0  0  0  0
   23.5347  -23.9359  -16.5060 C   0  0  0  0  0  0  0  0  0  0  0  0
   22.5026  -24.6551  -15.8955 C   0  0  0  0  0  0  0  0  0  0  0  0
   19.1766  -22.9508  -13.6330 C   0  0  0  0  0  0  0  0  0  0  0  0
   19.4426  -23.5696  -12.3948 O   0  0  0  0  0  0  0  0  0  0  0  0
   17.9712  -22.9760  -13.9764 O   0  0  0  0  0  0  0  0  0  0  0  0
  1  2  1  0
  2  3  1  0
  4  3  1  0
  5  4  1  0
  5  1  1  0
  5  6  1  1
  7  6  2  0
  8  6  1  0
  9  8  1  0
 10 11  1  0
  9 10  1  1
 11 16  2  0
 12 13  2  0
 12 11  1  0
 13 14  1  0
 14 15  2  0
 16 15  1  0
 17  9  1  0
 17 19  1  0
 18 17  2  0
 20 21  1  6
 20 19  1  0
 20 31  1  0
 22 30  1  0
 22 21  1  0
 23 22  2  0
 24 23  1  0
 24 25  1  0
 25 26  1  0
 25 30  2  0
 26 27  2  0
 27 28  1  0
 29 28  2  0
 30 29  1  0
 31 32  1  0
 33 31  2  0
M  END
$$$$
