PFW.pdb
     RDKit          3D

 33 36  0  0  1  0  0  0  0  0999 V2000
   16.2721  -17.4059    3.7790 N   0  0  0  0  0  0  0  0  0  0  0  0
   15.4473  -16.9993    2.6878 C   0  0  0  0  0  0  0  0  0  0  0  0
   16.3418  -16.8009    1.4855 C   0  0  0  0  0  0  0  0  0  0  0  0
   17.7049  -16.6035    2.1568 C   0  0  0  0  0  0  0  0  0  0  0  0
   17.6100  -17.5482    3.3053 C   0  0  1  0  0  0  0  0  0  0  0  0
   18.6224  -17.2787    4.3595 C   0  0  0  0  0  0  0  0  0  0  0  0
   19.8268  -17.3957    4.0431 O   0  0  0  0  0  0  0  0  0  0  0  0
   18.2883  -16.9041    5.6759 N   0  0  0  0  0  0  0  0  0  0  0  0
   19.3335  -16.5300    6.6107 C   0  0  1  0  0  0  0  0  0  0  0  0
   18.9906  -15.2612    7.3271 C   0  0  0  0  0  0  0  0  0  0  0  0
   19.3282  -14.0389    6.5611 C   0  0  0  0  0  0  0  0  0  0  0  0
   20.5464  -13.4162    6.7338 C   0  0  0  0  0  0  0  0  0  0  0  0
   20.9132  -12.2805    6.0525 C   0  0  0  0  0  0  0  0  0  0  0  0
   20.0198  -11.7365    5.1519 C   0  0  0  0  0  0  0  0  0  0  0  0
   18.7920  -12.3437    4.9622 C   0  0  0  0  0  0  0  0  0  0  0  0
   18.4392  -13.4949    5.6630 C   0  0  0  0  0  0  0  0  0  0  0  0
   19.6581  -17.6675    7.4880 C   0  0  0  0  0  0  0  0  0  0  0  0
   18.6925  -18.3522    7.9514 O   0  0  0  0  0  0  0  0  0  0  0  0
   20.9829  -18.0308    7.8339 N   0  0  0  0  0  0  0  0  0  0  0  0
   21.2035  -19.1773    8.7030 C   0  0  1  0  0  0  0  0  0  0  0  0
   22.0407  -20.2093    7.9858 C   0  0  0  0  0  0  0  0  0  0  0  0
   21.3051  -20.8235    6.8782 C   0  0  0  0  0  0  0  0  0  0  0  0
   20.8562  -20.2165    5.7125 C   0  0  0  0  0  0  0  0  0  0  0  0
   20.1892  -21.1074    4.9697 N   0  0  0  0  0  0  0  0  0  0  0  0
   20.1754  -22.2938    5.5963 C   0  0  0  0  0  0  0  0  0  0  0  0
   19.6517  -23.5436    5.2754 C   0  0  0  0  0  0  0  0  0  0  0  0
   19.8091  -24.6182    6.1147 C   0  0  0  0  0  0  0  0  0  0  0  0
   20.4980  -24.4755    7.3061 C   0  0  0  0  0  0  0  0  0  0  0  0
   21.0180  -23.2431    7.6312 C   0  0  0  0  0  0  0  0  0  0  0  0
   20.8643  -22.1400    6.7858 C   0  0  0  0  0  0  0  0  0  0  0  0
   21.6637  -18.8286   10.0296 C   0  0  0  0  0  0  0  0  0  0  0  0
   21.8321  -19.8493   10.9869 O   0  0  0  0  0  0  0  0  0  0  0  0
   21.9408  -17.6784   10.4443 O   0  0  0  0  0  0  0  0  0  0  0  0
  1  2  1  0
  2  3  1  0
  4  3  1  0
  5  4  1  0
  5  1  1  0
  5  6  1  1
  7  6  2  0
  8  6  1  0
  9  8  1  0
 10 11  1  0
  9 10  1  1
 11 16  2  0
 12 13  2  0
 12 11  1  0
 13 14  1  0
 14 15  2  0
 16 15  1  0
 17  9  1  0
 17 19  1  0
 18 17  2  0
 20 21  1  6
 20 19  1  0
 20 31  1  0
 22 30  1  0
 22 21  1  0
 23 22  2  0
 24 23  1  0
 24 25  1  0
 25 26  1  0
 25 30  2  0
 26 27  2  0
 27 28  1  0
 29 28  2  0
 30 29  1  0
 31 32  1  0
 33 31  2  0
M  END
$$$$
