PFW.pdb
     RDKit          3D

 33 36  0  0  1  0  0  0  0  0999 V2000
   30.3440  -20.9946  -10.5288 N   0  0  0  0  0  0  0  0  0  0  0  0
   31.7452  -21.2452  -10.4273 C   0  0  0  0  0  0  0  0  0  0  0  0
   31.9261  -22.5367   -9.6629 C   0  0  0  0  0  0  0  0  0  0  0  0
   30.5866  -22.6376   -8.9258 C   0  0  0  0  0  0  0  0  0  0  0  0
   29.6454  -22.0921   -9.9440 C   0  0  1  0  0  0  0  0  0  0  0  0
   28.3358  -21.6939   -9.3648 C   0  0  0  0  0  0  0  0  0  0  0  0
   27.6079  -22.6039   -8.9104 O   0  0  0  0  0  0  0  0  0  0  0  0
   27.8885  -20.3593   -9.3074 N   0  0  0  0  0  0  0  0  0  0  0  0
   26.5580  -20.0613   -8.8099 C   0  0  1  0  0  0  0  0  0  0  0  0
   26.5965  -18.9813   -7.7740 C   0  0  0  0  0  0  0  0  0  0  0  0
   27.4769  -19.2948   -6.6245 C   0  0  0  0  0  0  0  0  0  0  0  0
   27.1193  -20.2629   -5.7098 C   0  0  0  0  0  0  0  0  0  0  0  0
   27.8946  -20.5946   -4.6247 C   0  0  0  0  0  0  0  0  0  0  0  0
   29.0888  -19.9270   -4.4410 C   0  0  0  0  0  0  0  0  0  0  0  0
   29.4679  -18.9521   -5.3455 C   0  0  0  0  0  0  0  0  0  0  0  0
   28.6674  -18.6306   -6.4393 C   0  0  0  0  0  0  0  0  0  0  0  0
   25.6427  -19.8068   -9.9352 C   0  0  0  0  0  0  0  0  0  0  0  0
   25.8867  -18.8078  -10.6826 O   0  0  0  0  0  0  0  0  0  0  0  0
   24.5160  -20.6164  -10.2210 N   0  0  0  0  0  0  0  0  0  0  0  0
   23.7251  -20.3424  -11.4117 C   0  0  1  0  0  0  0  0  0  0  0  0
   24.6315  -20.2372  -12.6148 C   0  0  0  0  0  0  0  0  0  0  0  0
   25.0778  -21.5562  -13.0691 C   0  0  0  0  0  0  0  0  0  0  0  0
   24.7314  -22.7979  -12.5524 C   0  0  0  0  0  0  0  0  0  0  0  0
   25.3826  -23.7592  -13.2174 N   0  0  0  0  0  0  0  0  0  0  0  0
   26.1548  -23.2056  -14.1649 C   0  0  0  0  0  0  0  0  0  0  0  0
   27.0083  -23.7266  -15.1341 C   0  0  0  0  0  0  0  0  0  0  0  0
   27.6731  -22.9071  -16.0119 C   0  0  0  0  0  0  0  0  0  0  0  0
   27.5042  -21.5354  -15.9472 C   0  0  0  0  0  0  0  0  0  0  0  0
   26.6630  -21.0123  -14.9914 C   0  0  0  0  0  0  0  0  0  0  0  0
   25.9803  -21.8355  -14.0906 C   0  0  0  0  0  0  0  0  0  0  0  0
   22.5873  -21.2209  -11.5759 C   0  0  0  0  0  0  0  0  0  0  0  0
   22.4170  -22.2963  -10.6808 O   0  0  0  0  0  0  0  0  0  0  0  0
   21.6997  -21.1346  -12.4570 O   0  0  0  0  0  0  0  0  0  0  0  0
  1  2  1  0
  2  3  1  0
  4  3  1  0
  5  4  1  0
  5  1  1  0
  5  6  1  1
  7  6  2  0
  8  6  1  0
  9  8  1  0
 10 11  1  0
  9 10  1  1
 11 16  2  0
 12 13  2  0
 12 11  1  0
 13 14  1  0
 14 15  2  0
 16 15  1  0
 17  9  1  0
 17 19  1  0
 18 17  2  0
 20 21  1  6
 20 19  1  0
 20 31  1  0
 22 30  1  0
 22 21  1  0
 23 22  2  0
 24 23  1  0
 24 25  1  0
 25 26  1  0
 25 30  2  0
 26 27  2  0
 27 28  1  0
 29 28  2  0
 30 29  1  0
 31 32  1  0
 33 31  2  0
M  END
$$$$
