PFW.pdb
     RDKit          3D

 33 36  0  0  1  0  0  0  0  0999 V2000
   27.2082  -20.7981  -16.9224 N   0  0  0  0  0  0  0  0  0  0  0  0
   28.2608  -20.5827  -17.8616 C   0  0  0  0  0  0  0  0  0  0  0  0
   29.2891  -21.6714  -17.6559 C   0  0  0  0  0  0  0  0  0  0  0  0
   28.9687  -22.1184  -16.2257 C   0  0  0  0  0  0  0  0  0  0  0  0
   27.4837  -21.9983  -16.2026 C   0  0  1  0  0  0  0  0  0  0  0  0
   26.9275  -21.9800  -14.8245 C   0  0  0  0  0  0  0  0  0  0  0  0
   26.0990  -22.8686  -14.5272 O   0  0  0  0  0  0  0  0  0  0  0  0
   27.2876  -21.0213  -13.8571 N   0  0  0  0  0  0  0  0  0  0  0  0
   26.7606  -21.1188  -12.5083 C   0  0  1  0  0  0  0  0  0  0  0  0
   27.7708  -20.6706  -11.4986 C   0  0  0  0  0  0  0  0  0  0  0  0
   27.2405  -20.6120  -10.1165 C   0  0  0  0  0  0  0  0  0  0  0  0
   27.7608  -21.4228   -9.1298 C   0  0  0  0  0  0  0  0  0  0  0  0
   27.3081  -21.4125   -7.8323 C   0  0  0  0  0  0  0  0  0  0  0  0
   26.2834  -20.5494   -7.5001 C   0  0  0  0  0  0  0  0  0  0  0  0
   25.7459  -19.7269   -8.4732 C   0  0  0  0  0  0  0  0  0  0  0  0
   26.2191  -19.7525   -9.7832 C   0  0  0  0  0  0  0  0  0  0  0  0
   25.4575  -20.4378  -12.4241 C   0  0  0  0  0  0  0  0  0  0  0  0
   25.4315  -19.1825  -12.6227 O   0  0  0  0  0  0  0  0  0  0  0  0
   24.2445  -21.1106  -12.1368 N   0  0  0  0  0  0  0  0  0  0  0  0
   22.9790  -20.4610  -12.4450 C   0  0  1  0  0  0  0  0  0  0  0  0
   22.9679  -20.0218  -13.8897 C   0  0  0  0  0  0  0  0  0  0  0  0
   21.6990  -19.3843  -14.2484 C   0  0  0  0  0  0  0  0  0  0  0  0
   20.6882  -18.9582  -13.3965 C   0  0  0  0  0  0  0  0  0  0  0  0
   19.6731  -18.4646  -14.1148 N   0  0  0  0  0  0  0  0  0  0  0  0
   19.9676  -18.5432  -15.4215 C   0  0  0  0  0  0  0  0  0  0  0  0
   19.2959  -18.1671  -16.5819 C   0  0  0  0  0  0  0  0  0  0  0  0
   19.8582  -18.3494  -17.8207 C   0  0  0  0  0  0  0  0  0  0  0  0
   21.1151  -18.9160  -17.9377 C   0  0  0  0  0  0  0  0  0  0  0  0
   21.7853  -19.2915  -16.7955 C   0  0  0  0  0  0  0  0  0  0  0  0
   21.2239  -19.1122  -15.5275 C   0  0  0  0  0  0  0  0  0  0  0  0
   21.8159  -21.2109  -12.0229 C   0  0  0  0  0  0  0  0  0  0  0  0
   20.9031  -20.6146  -11.1296 O   0  0  0  0  0  0  0  0  0  0  0  0
   21.5129  -22.3761  -12.3722 O   0  0  0  0  0  0  0  0  0  0  0  0
  1  2  1  0
  2  3  1  0
  4  3  1  0
  5  4  1  0
  5  1  1  0
  5  6  1  1
  7  6  2  0
  8  6  1  0
  9  8  1  0
 10 11  1  0
  9 10  1  1
 11 16  2  0
 12 13  2  0
 12 11  1  0
 13 14  1  0
 14 15  2  0
 16 15  1  0
 17  9  1  0
 17 19  1  0
 18 17  2  0
 20 21  1  6
 20 19  1  0
 20 31  1  0
 22 30  1  0
 22 21  1  0
 23 22  2  0
 24 23  1  0
 24 25  1  0
 25 26  1  0
 25 30  2  0
 26 27  2  0
 27 28  1  0
 29 28  2  0
 30 29  1  0
 31 32  1  0
 33 31  2  0
M  END
$$$$
