PFW.pdb
     RDKit          3D

 33 36  0  0  1  0  0  0  0  0999 V2000
   28.2404  -22.9295  -16.9296 N   0  0  0  0  0  0  0  0  0  0  0  0
   28.5805  -22.9938  -18.3140 C   0  0  0  0  0  0  0  0  0  0  0  0
   29.4376  -21.7900  -18.6323 C   0  0  0  0  0  0  0  0  0  0  0  0
   29.0649  -20.8461  -17.4843 C   0  0  0  0  0  0  0  0  0  0  0  0
   28.9001  -21.8032  -16.3543 C   0  0  1  0  0  0  0  0  0  0  0  0
   28.1492  -21.2224  -15.2107 C   0  0  0  0  0  0  0  0  0  0  0  0
   28.6808  -20.2701  -14.5984 O   0  0  0  0  0  0  0  0  0  0  0  0
   26.8873  -21.6910  -14.7953 N   0  0  0  0  0  0  0  0  0  0  0  0
   26.0668  -20.8804  -13.9143 C   0  0  1  0  0  0  0  0  0  0  0  0
   24.7067  -20.6541  -14.4972 C   0  0  0  0  0  0  0  0  0  0  0  0
   23.7866  -19.9302  -13.5894 C   0  0  0  0  0  0  0  0  0  0  0  0
   22.9693  -20.6219  -12.7203 C   0  0  0  0  0  0  0  0  0  0  0  0
   22.0960  -20.0042  -11.8575 C   0  0  0  0  0  0  0  0  0  0  0  0
   22.0334  -18.6253  -11.8604 C   0  0  0  0  0  0  0  0  0  0  0  0
   22.8437  -17.9105  -12.7235 C   0  0  0  0  0  0  0  0  0  0  0  0
   23.7225  -18.5558  -13.5907 C   0  0  0  0  0  0  0  0  0  0  0  0
   26.0710  -21.4478  -12.5554 C   0  0  0  0  0  0  0  0  0  0  0  0
   25.9778  -22.7104  -12.4406 O   0  0  0  0  0  0  0  0  0  0  0  0
   26.1748  -20.6598  -11.3828 N   0  0  0  0  0  0  0  0  0  0  0  0
   26.1523  -21.3117  -10.0817 C   0  0  1  0  0  0  0  0  0  0  0  0
   27.5284  -21.2642   -9.4619 C   0  0  0  0  0  0  0  0  0  0  0  0
   27.5836  -20.3167   -8.3463 C   0  0  0  0  0  0  0  0  0  0  0  0
   26.8664  -19.1373   -8.1934 C   0  0  0  0  0  0  0  0  0  0  0  0
   27.2310  -18.5335   -7.0564 N   0  0  0  0  0  0  0  0  0  0  0  0
   28.1688  -19.2680   -6.4387 C   0  0  0  0  0  0  0  0  0  0  0  0
   28.8683  -19.1243   -5.2432 C   0  0  0  0  0  0  0  0  0  0  0  0
   29.7792  -20.0659   -4.8339 C   0  0  0  0  0  0  0  0  0  0  0  0
   30.0198  -21.1851   -5.6110 C   0  0  0  0  0  0  0  0  0  0  0  0
   29.3332  -21.3342   -6.7947 C   0  0  0  0  0  0  0  0  0  0  0  0
   28.4032  -20.3823   -7.2239 C   0  0  0  0  0  0  0  0  0  0  0  0
   25.0766  -20.8689   -9.2215 C   0  0  0  0  0  0  0  0  0  0  0  0
   24.7769  -21.6113   -8.0614 O   0  0  0  0  0  0  0  0  0  0  0  0
   24.3500  -19.8620   -9.3943 O   0  0  0  0  0  0  0  0  0  0  0  0
  1  2  1  0
  2  3  1  0
  4  3  1  0
  5  4  1  0
  5  1  1  0
  5  6  1  1
  7  6  2  0
  8  6  1  0
  9  8  1  0
 10 11  1  0
  9 10  1  6
 11 16  2  0
 12 13  2  0
 12 11  1  0
 13 14  1  0
 14 15  2  0
 16 15  1  0
 17  9  1  0
 17 19  1  0
 18 17  2  0
 20 21  1  1
 20 19  1  0
 20 31  1  0
 22 30  1  0
 22 21  1  0
 23 22  2  0
 24 23  1  0
 24 25  1  0
 25 26  1  0
 25 30  2  0
 26 27  2  0
 27 28  1  0
 29 28  2  0
 30 29  1  0
 31 32  1  0
 33 31  2  0
M  END
$$$$
