TLG.pdb
     RDKit          3D

 20 19  0  0  1  0  0  0  0  0999 V2000
    6.8168  -17.6809   21.2090 C   0  0  0  0  0  0  0  0  0  0  0  0
    8.1630  -17.1734   21.6229 C   0  0  1  0  0  0  0  0  0  0  0  0
    9.0975  -17.6287   20.6903 O   0  0  0  0  0  0  0  0  0  0  0  0
    8.2304  -15.6670   21.6168 C   0  0  2  0  0  0  0  0  0  0  0  0
    9.0567  -15.2142   20.5322 N   0  0  0  0  0  0  0  0  0  0  0  0
    8.6904  -15.0859   22.8735 C   0  0  0  0  0  0  0  0  0  0  0  0
    9.8666  -14.6763   22.9835 O   0  0  0  0  0  0  0  0  0  0  0  0
    7.5289  -11.4817   25.5913 C   0  0  0  0  0  0  0  0  0  0  0  0
    6.4863  -12.5889   25.5370 C   0  0  2  0  0  0  0  0  0  0  0  0
    5.2743  -12.1610   26.3224 C   0  0  0  0  0  0  0  0  0  0  0  0
    7.0698  -13.8776   26.0214 C   0  0  0  0  0  0  0  0  0  0  0  0
    8.2443  -14.3858   25.2596 C   0  0  2  0  0  0  0  0  0  0  0  0
    7.8269  -14.9721   23.9884 N   0  0  0  0  0  0  0  0  0  0  0  0
    8.9389  -15.4601   26.0154 C   0  0  0  0  0  0  0  0  0  0  0  0
    9.4276  -15.2881   27.1766 O   0  0  0  0  0  0  0  0  0  0  0  0
    9.1014  -16.7683   25.4748 N   0  0  0  0  0  0  0  0  0  0  0  0
    9.6910  -17.8169   26.2738 C   0  0  0  0  0  0  0  0  0  0  0  0
   11.1287  -17.9935   25.9444 C   0  0  0  0  0  0  0  0  0  0  0  0
   11.6698  -17.2260   25.1353 O   0  0  0  0  0  0  0  0  0  0  0  0
   11.9005  -18.9961   26.5134 O   0  0  0  0  0  0  0  0  0  0  0  0
  2  3  1  0
  2  1  1  6
  4  2  1  0
  4  5  1  6
  6  4  1  0
  6  7  2  0
  9 11  1  0
  9  8  1  1
 10  9  1  0
 12 11  1  1
 12 13  1  0
 13  6  1  0
 14 12  1  0
 15 14  2  0
 16 14  1  0
 17 16  1  0
 18 20  1  0
 18 17  1  0
 19 18  2  0
M  END
$$$$
