TLG.pdb
     RDKit          3D

 20 19  0  0  1  0  0  0  0  0999 V2000
    6.9125  -15.8258   19.9123 C   0  0  0  0  0  0  0  0  0  0  0  0
    7.1252  -15.8096   21.3941 C   0  0  1  0  0  0  0  0  0  0  0  0
    7.5377  -17.0864   21.7814 O   0  0  0  0  0  0  0  0  0  0  0  0
    8.2144  -14.8503   21.8027 C   0  0  2  0  0  0  0  0  0  0  0  0
    9.4338  -15.1640   21.1106 N   0  0  0  0  0  0  0  0  0  0  0  0
    8.4539  -14.7981   23.2409 C   0  0  0  0  0  0  0  0  0  0  0  0
    9.5794  -15.0884   23.7019 O   0  0  0  0  0  0  0  0  0  0  0  0
    8.0064  -11.4909   26.5861 C   0  0  0  0  0  0  0  0  0  0  0  0
    6.7206  -12.0266   25.9732 C   0  0  2  0  0  0  0  0  0  0  0  0
    5.5552  -11.2365   26.5083 C   0  0  0  0  0  0  0  0  0  0  0  0
    6.5952  -13.4948   26.2270 C   0  0  0  0  0  0  0  0  0  0  0  0
    7.6290  -14.3553   25.5875 C   0  0  2  0  0  0  0  0  0  0  0  0
    7.4300  -14.4217   24.1418 N   0  0  0  0  0  0  0  0  0  0  0  0
    7.5416  -15.7497   26.0931 C   0  0  0  0  0  0  0  0  0  0  0  0
    7.7134  -16.0578   27.3147 O   0  0  0  0  0  0  0  0  0  0  0  0
    7.2553  -16.8424   25.2247 N   0  0  0  0  0  0  0  0  0  0  0  0
    7.0906  -18.1733   25.7609 C   0  0  0  0  0  0  0  0  0  0  0  0
    8.4030  -18.7690   26.1205 C   0  0  0  0  0  0  0  0  0  0  0  0
    9.4400  -18.1101   25.9556 O   0  0  0  0  0  0  0  0  0  0  0  0
    8.5166  -20.0502   26.6405 O   0  0  0  0  0  0  0  0  0  0  0  0
  2  3  1  0
  2  1  1  6
  4  2  1  0
  4  5  1  6
  6  4  1  0
  6  7  2  0
  9 11  1  0
  9  8  1  1
 10  9  1  0
 12 11  1  1
 12 13  1  0
 13  6  1  0
 14 12  1  0
 15 14  2  0
 16 14  1  0
 17 16  1  0
 18 20  1  0
 18 17  1  0
 19 18  2  0
M  END
$$$$
