TLG.pdb
     RDKit          3D

 20 19  0  0  1  0  0  0  0  0999 V2000
    7.4347  -17.2143   20.0670 C   0  0  0  0  0  0  0  0  0  0  0  0
    7.8471  -16.8264   21.4529 C   0  0  1  0  0  0  0  0  0  0  0  0
    8.8676  -17.6914   21.8538 O   0  0  0  0  0  0  0  0  0  0  0  0
    8.4059  -15.4270   21.5101 C   0  0  2  0  0  0  0  0  0  0  0  0
    9.4850  -15.2876   20.5718 N   0  0  0  0  0  0  0  0  0  0  0  0
    8.8415  -15.0132   22.8396 C   0  0  0  0  0  0  0  0  0  0  0  0
   10.0439  -14.7439   23.0519 O   0  0  0  0  0  0  0  0  0  0  0  0
    7.8352  -11.5126   25.8422 C   0  0  0  0  0  0  0  0  0  0  0  0
    6.7122  -12.5044   25.5753 C   0  0  2  0  0  0  0  0  0  0  0  0
    5.4692  -12.0427   26.2899 C   0  0  0  0  0  0  0  0  0  0  0  0
    7.1321  -13.8845   25.9688 C   0  0  0  0  0  0  0  0  0  0  0  0
    8.3079  -14.4379   25.2411 C   0  0  2  0  0  0  0  0  0  0  0  0
    7.9246  -14.9069   23.9118 N   0  0  0  0  0  0  0  0  0  0  0  0
    8.8694  -15.6108   25.9601 C   0  0  0  0  0  0  0  0  0  0  0  0
    9.2449  -15.5669   27.1741 O   0  0  0  0  0  0  0  0  0  0  0  0
    9.0229  -16.8751   25.3212 N   0  0  0  0  0  0  0  0  0  0  0  0
    9.4665  -18.0226   26.0776 C   0  0  0  0  0  0  0  0  0  0  0  0
   10.9460  -18.1492   26.0351 C   0  0  0  0  0  0  0  0  0  0  0  0
   11.6166  -17.2936   25.4395 O   0  0  0  0  0  0  0  0  0  0  0  0
   11.6165  -19.2005   26.6433 O   0  0  0  0  0  0  0  0  0  0  0  0
  2  3  1  0
  2  1  1  6
  4  2  1  0
  4  5  1  6
  6  4  1  0
  6  7  2  0
  9 11  1  0
  9  8  1  1
 10  9  1  0
 12 11  1  1
 12 13  1  0
 13  6  1  0
 14 12  1  0
 15 14  2  0
 16 14  1  0
 17 16  1  0
 18 20  1  0
 18 17  1  0
 19 18  2  0
M  END
$$$$
