TLG.pdb
     RDKit          3D

 20 19  0  0  1  0  0  0  0  0999 V2000
    6.6810  -17.1431   20.5879 C   0  0  0  0  0  0  0  0  0  0  0  0
    7.2919  -16.6034   21.8437 C   0  0  1  0  0  0  0  0  0  0  0  0
    8.5646  -17.1631   21.9755 O   0  0  0  0  0  0  0  0  0  0  0  0
    7.4703  -15.1069   21.7928 C   0  0  2  0  0  0  0  0  0  0  0  0
    8.1526  -14.7319   20.5853 N   0  0  0  0  0  0  0  0  0  0  0  0
    8.1594  -14.5492   22.9515 C   0  0  0  0  0  0  0  0  0  0  0  0
    9.3099  -14.0747   22.8307 O   0  0  0  0  0  0  0  0  0  0  0  0
    7.6760  -11.0691   25.7873 C   0  0  0  0  0  0  0  0  0  0  0  0
    6.6185  -12.1518   25.9459 C   0  0  2  0  0  0  0  0  0  0  0  0
    5.5598  -11.6678   26.9018 C   0  0  0  0  0  0  0  0  0  0  0  0
    7.2497  -13.4369   26.3771 C   0  0  0  0  0  0  0  0  0  0  0  0
    8.2265  -14.0328   25.4237 C   0  0  2  0  0  0  0  0  0  0  0  0
    7.5504  -14.5309   24.2284 N   0  0  0  0  0  0  0  0  0  0  0  0
    8.9193  -15.1960   26.0360 C   0  0  0  0  0  0  0  0  0  0  0  0
    9.5364  -15.1316   27.1459 O   0  0  0  0  0  0  0  0  0  0  0  0
    8.9334  -16.4735   25.4054 N   0  0  0  0  0  0  0  0  0  0  0  0
    9.5666  -17.5976   26.0545 C   0  0  0  0  0  0  0  0  0  0  0  0
   10.9619  -17.7726   25.5758 C   0  0  0  0  0  0  0  0  0  0  0  0
   11.4313  -16.9734   24.7526 O   0  0  0  0  0  0  0  0  0  0  0  0
   11.7718  -18.8082   26.0189 O   0  0  0  0  0  0  0  0  0  0  0  0
  2  3  1  0
  2  1  1  6
  4  2  1  0
  4  5  1  6
  6  4  1  0
  6  7  2  0
  9 11  1  0
  9  8  1  1
 10  9  1  0
 12 11  1  1
 12 13  1  0
 13  6  1  0
 14 12  1  0
 15 14  2  0
 16 14  1  0
 17 16  1  0
 18 20  1  0
 18 17  1  0
 19 18  2  0
M  END
$$$$
