TLG.pdb
     RDKit          3D

 20 19  0  0  1  0  0  0  0  0999 V2000
    6.7541  -16.9014   21.5141 C   0  0  0  0  0  0  0  0  0  0  0  0
    7.7390  -15.9136   20.9706 C   0  0  1  0  0  0  0  0  0  0  0  0
    7.6589  -15.9516   19.5769 O   0  0  0  0  0  0  0  0  0  0  0  0
    7.4216  -14.5014   21.3933 C   0  0  2  0  0  0  0  0  0  0  0  0
    7.7264  -13.5870   20.3278 N   0  0  0  0  0  0  0  0  0  0  0  0
    8.0904  -14.0819   22.6202 C   0  0  0  0  0  0  0  0  0  0  0  0
    9.1562  -13.4306   22.5642 O   0  0  0  0  0  0  0  0  0  0  0  0
    7.6542  -11.2447   26.0721 C   0  0  0  0  0  0  0  0  0  0  0  0
    6.6152  -12.3553   26.0178 C   0  0  2  0  0  0  0  0  0  0  0  0
    5.5487  -12.0804   27.0453 C   0  0  0  0  0  0  0  0  0  0  0  0
    7.2682  -13.6883   26.1977 C   0  0  0  0  0  0  0  0  0  0  0  0
    8.2422  -14.0823   25.1420 C   0  0  2  0  0  0  0  0  0  0  0  0
    7.5561  -14.3977   23.8916 N   0  0  0  0  0  0  0  0  0  0  0  0
    8.9852  -15.3061   25.5395 C   0  0  0  0  0  0  0  0  0  0  0  0
    9.6287  -15.4041   26.6318 O   0  0  0  0  0  0  0  0  0  0  0  0
    9.0214  -16.4614   24.7066 N   0  0  0  0  0  0  0  0  0  0  0  0
    9.7691  -17.6280   25.1137 C   0  0  0  0  0  0  0  0  0  0  0  0
   11.1629  -17.5725   24.6031 C   0  0  0  0  0  0  0  0  0  0  0  0
   11.5300  -16.5979   23.9308 O   0  0  0  0  0  0  0  0  0  0  0  0
   12.0827  -18.5809   24.8515 O   0  0  0  0  0  0  0  0  0  0  0  0
  2  3  1  0
  2  1  1  1
  4  2  1  0
  4  5  1  6
  6  4  1  0
  6  7  2  0
  9 11  1  0
  9  8  1  1
 10  9  1  0
 12 11  1  1
 12 13  1  0
 13  6  1  0
 14 12  1  0
 15 14  2  0
 16 14  1  0
 17 16  1  0
 18 20  1  0
 18 17  1  0
 19 18  2  0
M  END
$$$$
