TLG.pdb
     RDKit          3D

 20 19  0  0  1  0  0  0  0  0999 V2000
    7.1191  -15.6476   18.9241 C   0  0  0  0  0  0  0  0  0  0  0  0
    7.5800  -15.2497   20.2918 C   0  0  1  0  0  0  0  0  0  0  0  0
    8.9314  -15.5840   20.4022 O   0  0  0  0  0  0  0  0  0  0  0  0
    7.4725  -13.7629   20.5190 C   0  0  2  0  0  0  0  0  0  0  0  0
    8.1483  -13.0529   19.4685 N   0  0  0  0  0  0  0  0  0  0  0  0
    7.9651  -13.3215   21.8194 C   0  0  0  0  0  0  0  0  0  0  0  0
    9.0105  -12.6401   21.8975 O   0  0  0  0  0  0  0  0  0  0  0  0
    5.6308  -12.4354   27.4633 C   0  0  0  0  0  0  0  0  0  0  0  0
    6.8953  -12.5245   26.6213 C   0  0  2  0  0  0  0  0  0  0  0  0
    7.6158  -11.2028   26.6760 C   0  0  0  0  0  0  0  0  0  0  0  0
    6.5633  -12.9501   25.2269 C   0  0  0  0  0  0  0  0  0  0  0  0
    7.7257  -13.2066   24.3318 C   0  0  2  0  0  0  0  0  0  0  0  0
    7.2801  -13.6496   23.0130 N   0  0  0  0  0  0  0  0  0  0  0  0
    8.5828  -14.2908   24.8773 C   0  0  0  0  0  0  0  0  0  0  0  0
    9.0198  -14.2967   26.0713 O   0  0  0  0  0  0  0  0  0  0  0  0
    8.9725  -15.4066   24.0815 N   0  0  0  0  0  0  0  0  0  0  0  0
    9.6646  -16.5222   24.6832 C   0  0  0  0  0  0  0  0  0  0  0  0
    9.9309  -17.5868   23.6819 C   0  0  0  0  0  0  0  0  0  0  0  0
    8.9819  -18.1223   23.0910 O   0  0  0  0  0  0  0  0  0  0  0  0
   11.2160  -18.0115   23.3774 O   0  0  0  0  0  0  0  0  0  0  0  0
  2  3  1  0
  2  1  1  6
  4  2  1  0
  4  5  1  6
  6  4  1  0
  6  7  2  0
  9 11  1  0
  9  8  1  1
 10  9  1  0
 12 11  1  1
 12 13  1  0
 13  6  1  0
 14 12  1  0
 15 14  2  0
 16 14  1  0
 17 16  1  0
 18 20  1  0
 18 17  1  0
 19 18  2  0
M  END
$$$$
