TLG.pdb
     RDKit          3D

 20 19  0  0  1  0  0  0  0  0999 V2000
    6.2591  -17.3170   21.6943 C   0  0  0  0  0  0  0  0  0  0  0  0
    7.6825  -16.8557   21.7455 C   0  0  1  0  0  0  0  0  0  0  0  0
    8.3273  -17.3288   20.6006 O   0  0  0  0  0  0  0  0  0  0  0  0
    7.7949  -15.3520   21.7266 C   0  0  2  0  0  0  0  0  0  0  0  0
    8.5450  -14.9276   20.5771 N   0  0  0  0  0  0  0  0  0  0  0  0
    8.3716  -14.7823   22.9396 C   0  0  0  0  0  0  0  0  0  0  0  0
    9.5429  -14.3449   22.9335 O   0  0  0  0  0  0  0  0  0  0  0  0
    7.6641  -11.2621   25.6479 C   0  0  0  0  0  0  0  0  0  0  0  0
    6.5976  -12.3452   25.7228 C   0  0  2  0  0  0  0  0  0  0  0  0
    5.4385  -11.8373   26.5395 C   0  0  0  0  0  0  0  0  0  0  0  0
    7.1798  -13.6125   26.2620 C   0  0  0  0  0  0  0  0  0  0  0  0
    8.2077  -14.2701   25.4081 C   0  0  2  0  0  0  0  0  0  0  0  0
    7.6286  -14.7107   24.1414 N   0  0  0  0  0  0  0  0  0  0  0  0
    8.7485  -15.4838   26.0732 C   0  0  0  0  0  0  0  0  0  0  0  0
    9.4528  -15.4409   27.1309 O   0  0  0  0  0  0  0  0  0  0  0  0
    8.5059  -16.7893   25.5565 N   0  0  0  0  0  0  0  0  0  0  0  0
    9.6075  -17.6906   25.3121 C   0  0  0  0  0  0  0  0  0  0  0  0
   10.4075  -17.9011   26.5460 C   0  0  0  0  0  0  0  0  0  0  0  0
   10.9205  -16.9274   27.1163 O   0  0  0  0  0  0  0  0  0  0  0  0
   10.6063  -19.1604   27.0932 O   0  0  0  0  0  0  0  0  0  0  0  0
  2  3  1  0
  2  1  1  6
  4  2  1  0
  4  5  1  6
  6  4  1  0
  6  7  2  0
  9 11  1  0
  9  8  1  1
 10  9  1  0
 12 11  1  1
 12 13  1  0
 13  6  1  0
 14 12  1  0
 15 14  2  0
 16 14  1  0
 17 16  1  0
 18 20  1  0
 18 17  1  0
 19 18  2  0
M  END
$$$$
