TLG.pdb
     RDKit          3D

 20 19  0  0  1  0  0  0  0  0999 V2000
    9.1066  -18.1277   21.7664 C   0  0  0  0  0  0  0  0  0  0  0  0
    7.6571  -18.1482   22.1404 C   0  0  1  0  0  0  0  0  0  0  0  0
    7.5743  -18.3169   23.5243 O   0  0  0  0  0  0  0  0  0  0  0  0
    6.9655  -16.8493   21.8113 C   0  0  2  0  0  0  0  0  0  0  0  0
    6.9830  -16.6265   20.3921 N   0  0  0  0  0  0  0  0  0  0  0  0
    7.5128  -15.6897   22.5073 C   0  0  0  0  0  0  0  0  0  0  0  0
    8.4006  -14.9939   21.9678 O   0  0  0  0  0  0  0  0  0  0  0  0
    5.9754  -12.0265   27.2554 C   0  0  0  0  0  0  0  0  0  0  0  0
    7.0605  -12.4502   26.2761 C   0  0  2  0  0  0  0  0  0  0  0  0
    7.3854  -11.2906   25.3714 C   0  0  0  0  0  0  0  0  0  0  0  0
    6.6370  -13.6731   25.5271 C   0  0  0  0  0  0  0  0  0  0  0  0
    7.6272  -14.2152   24.5556 C   0  0  2  0  0  0  0  0  0  0  0  0
    7.0582  -15.3263   23.7968 N   0  0  0  0  0  0  0  0  0  0  0  0
    8.8208  -14.7494   25.2611 C   0  0  0  0  0  0  0  0  0  0  0  0
    9.6368  -14.0135   25.9009 O   0  0  0  0  0  0  0  0  0  0  0  0
    9.1269  -16.1410   25.2624 N   0  0  0  0  0  0  0  0  0  0  0  0
   10.3368  -16.6185   25.8899 C   0  0  0  0  0  0  0  0  0  0  0  0
   10.0313  -17.3640   27.1380 C   0  0  0  0  0  0  0  0  0  0  0  0
    8.8507  -17.5367   27.4742 O   0  0  0  0  0  0  0  0  0  0  0  0
   11.0273  -17.8816   27.9534 O   0  0  0  0  0  0  0  0  0  0  0  0
  2  3  1  0
  2  1  1  1
  4  2  1  0
  4  5  1  6
  6  4  1  0
  6  7  2  0
  9 11  1  0
  9  8  1  1
 10  9  1  0
 12 11  1  1
 12 13  1  0
 13  6  1  0
 14 12  1  0
 15 14  2  0
 16 14  1  0
 17 16  1  0
 18 20  1  0
 18 17  1  0
 19 18  2  0
M  END
$$$$
