NHK.pdb
     RDKit          3D

 28 28  0  0  1  0  0  0  0  0999 V2000
   17.3332  -16.5762  -15.7726 N   0  0  0  0  0  0  0  0  0  0  0  0
   17.1842  -16.0922  -17.0998 C   0  0  0  0  0  0  0  0  0  0  0  0
   16.8991  -16.9056  -17.9969 O   0  0  0  0  0  0  0  0  0  0  0  0
   17.3633  -14.6670  -17.3986 C   0  0  0  0  0  0  0  0  0  0  0  0
   17.6287  -13.8410  -16.1967 C   0  0  2  0  0  0  0  0  0  0  0  0
   16.5616  -13.9530  -15.2075 N   0  0  0  0  0  0  0  0  0  0  0  0
   17.9810  -12.4216  -16.4446 C   0  0  0  0  0  0  0  0  0  0  0  0
   18.8346  -12.0350  -17.2786 O   0  0  0  0  0  0  0  0  0  0  0  0
   17.3375  -11.3678  -15.7125 N   0  0  0  0  0  0  0  0  0  0  0  0
   17.6986   -9.9283  -15.9875 C   0  0  1  0  0  0  0  0  0  0  0  0
   16.5967   -9.1476  -15.3710 C   0  0  0  0  0  0  0  0  0  0  0  0
   16.6849   -7.7031  -15.3109 C   0  0  0  0  0  0  0  0  0  0  0  0
   17.8203   -7.0470  -15.8252 C   0  0  0  0  0  0  0  0  0  0  0  0
   17.6800   -5.7250  -15.6653 N   0  0  0  0  0  0  0  0  0  0  0  0
   16.4998   -5.5138  -15.0693 C   0  0  0  0  0  0  0  0  0  0  0  0
   15.9296   -6.7100  -14.8703 N   0  0  0  0  0  0  0  0  0  0  0  0
   19.0376   -9.7163  -15.3932 C   0  0  0  0  0  0  0  0  0  0  0  0
   19.3126  -10.2432  -14.2557 O   0  0  0  0  0  0  0  0  0  0  0  0
   20.0723   -8.9713  -15.9836 N   0  0  0  0  0  0  0  0  0  0  0  0
   21.3591   -8.8293  -15.2690 C   0  0  1  0  0  0  0  0  0  0  0  0
   22.3485   -9.7352  -15.9548 C   0  0  0  0  0  0  0  0  0  0  0  0
   23.7276   -9.6753  -15.3882 C   0  0  0  0  0  0  0  0  0  0  0  0
   24.6242  -10.5948  -16.1625 C   0  0  0  0  0  0  0  0  0  0  0  0
   26.0262  -10.6690  -15.5914 C   0  0  0  0  0  0  0  0  0  0  0  0
   26.8813  -11.4407  -16.4561 N   0  0  0  0  0  0  0  0  0  0  0  0
   21.7695   -7.4124  -15.2344 C   0  0  0  0  0  0  0  0  0  0  0  0
   21.4539   -6.5583  -16.0932 O   0  0  0  0  0  0  0  0  0  0  0  0
   22.5657   -6.9683  -14.1807 O   0  0  0  0  0  0  0  0  0  0  0  0
  2  1  1  0
  2  3  2  0
  4  5  1  0
  4  2  1  0
  5  7  1  0
  5  6  1  1
  7  8  2  0
  9 10  1  0
  9  7  1  0
 11 12  1  0
 10 11  1  1
 12 16  1  0
 13 14  1  0
 13 12  2  0
 14 15  1  0
 15 16  2  0
 17 18  2  0
 17 10  1  0
 19 17  1  0
 20 19  1  0
 20 26  1  0
 20 21  1  6
 22 21  1  0
 23 22  1  0
 24 25  1  0
 24 23  1  0
 26 28  1  0
 27 26  2  0
M  END
$$$$
