NHK.pdb
     RDKit          3D

 28 28  0  0  1  0  0  0  0  0999 V2000
   29.2275  -20.5694  -11.5817 N   0  0  0  0  0  0  0  0  0  0  0  0
   28.0356  -20.9135  -10.8896 C   0  0  0  0  0  0  0  0  0  0  0  0
   28.0912  -21.8054  -10.0241 O   0  0  0  0  0  0  0  0  0  0  0  0
   26.7733  -20.2297  -11.1924 C   0  0  0  0  0  0  0  0  0  0  0  0
   25.7554  -21.1150  -11.8069 C   0  0  2  0  0  0  0  0  0  0  0  0
   26.2895  -21.8585  -12.9434 N   0  0  0  0  0  0  0  0  0  0  0  0
   24.4575  -20.4815  -12.1448 C   0  0  0  0  0  0  0  0  0  0  0  0
   23.7895  -19.7648  -11.3612 O   0  0  0  0  0  0  0  0  0  0  0  0
   23.8693  -20.6615  -13.4418 N   0  0  0  0  0  0  0  0  0  0  0  0
   22.5352  -20.0312  -13.7596 C   0  0  1  0  0  0  0  0  0  0  0  0
   22.6377  -19.6534  -15.1916 C   0  0  0  0  0  0  0  0  0  0  0  0
   21.5060  -19.0410  -15.8565 C   0  0  0  0  0  0  0  0  0  0  0  0
   20.3113  -18.8159  -15.1451 C   0  0  0  0  0  0  0  0  0  0  0  0
   19.4133  -18.2413  -15.9554 N   0  0  0  0  0  0  0  0  0  0  0  0
   19.9896  -18.0919  -17.1547 C   0  0  0  0  0  0  0  0  0  0  0  0
   21.2354  -18.5772  -17.0658 N   0  0  0  0  0  0  0  0  0  0  0  0
   21.5096  -21.0505  -13.4429 C   0  0  0  0  0  0  0  0  0  0  0  0
   21.7565  -22.2874  -13.6799 O   0  0  0  0  0  0  0  0  0  0  0  0
   20.2504  -20.7791  -12.8816 N   0  0  0  0  0  0  0  0  0  0  0  0
   19.3404  -21.9024  -12.5712 C   0  0  1  0  0  0  0  0  0  0  0  0
   19.2777  -22.0195  -11.0704 C   0  0  0  0  0  0  0  0  0  0  0  0
   19.0257  -23.4043  -10.5748 C   0  0  0  0  0  0  0  0  0  0  0  0
   18.8347  -23.3736   -9.0877 C   0  0  0  0  0  0  0  0  0  0  0  0
   18.6811  -24.7559   -8.4851 C   0  0  0  0  0  0  0  0  0  0  0  0
   18.6254  -24.6748   -7.0483 N   0  0  0  0  0  0  0  0  0  0  0  0
   18.0277  -21.6867  -13.2097 C   0  0  0  0  0  0  0  0  0  0  0  0
   17.4982  -20.5668  -13.3887 O   0  0  0  0  0  0  0  0  0  0  0  0
   17.3060  -22.7927  -13.6539 O   0  0  0  0  0  0  0  0  0  0  0  0
  2  1  1  0
  2  3  2  0
  4  5  1  0
  4  2  1  0
  5  7  1  0
  5  6  1  6
  7  8  2  0
  9 10  1  0
  9  7  1  0
 11 12  1  0
 10 11  1  6
 12 16  1  0
 13 14  1  0
 13 12  2  0
 14 15  1  0
 15 16  2  0
 17 18  2  0
 17 10  1  0
 19 17  1  0
 20 19  1  0
 20 26  1  0
 20 21  1  1
 22 21  1  0
 23 22  1  0
 24 25  1  0
 24 23  1  0
 26 28  1  0
 27 26  2  0
M  END
$$$$
