NHK.pdb
     RDKit          3D

 28 28  0  0  1  0  0  0  0  0999 V2000
   21.7627  -21.1489   -7.6178 N   0  0  0  0  0  0  0  0  0  0  0  0
   21.8892  -21.3108   -9.0234 C   0  0  0  0  0  0  0  0  0  0  0  0
   21.2778  -22.2476   -9.5677 O   0  0  0  0  0  0  0  0  0  0  0  0
   22.7216  -20.3923   -9.8083 C   0  0  0  0  0  0  0  0  0  0  0  0
   23.9889  -21.0005  -10.2787 C   0  0  2  0  0  0  0  0  0  0  0  0
   24.7285  -21.6361   -9.1929 N   0  0  0  0  0  0  0  0  0  0  0  0
   24.8727  -20.1253  -11.0869 C   0  0  0  0  0  0  0  0  0  0  0  0
   25.2801  -18.9954  -10.7247 O   0  0  0  0  0  0  0  0  0  0  0  0
   25.3295  -20.5406  -12.3828 N   0  0  0  0  0  0  0  0  0  0  0  0
   26.3595  -19.7189  -13.1191 C   0  0  1  0  0  0  0  0  0  0  0  0
   27.5945  -20.5407  -13.0643 C   0  0  0  0  0  0  0  0  0  0  0  0
   28.4474  -20.4800  -11.8952 C   0  0  0  0  0  0  0  0  0  0  0  0
   28.7639  -21.6604  -11.1949 C   0  0  0  0  0  0  0  0  0  0  0  0
   29.5617  -21.3635  -10.1614 N   0  0  0  0  0  0  0  0  0  0  0  0
   29.7654  -20.0403  -10.1762 C   0  0  0  0  0  0  0  0  0  0  0  0
   29.0895  -19.5407  -11.2197 N   0  0  0  0  0  0  0  0  0  0  0  0
   25.8112  -19.4849  -14.4740 C   0  0  0  0  0  0  0  0  0  0  0  0
   25.0987  -20.3953  -15.0312 O   0  0  0  0  0  0  0  0  0  0  0  0
   26.0005  -18.3149  -15.2287 N   0  0  0  0  0  0  0  0  0  0  0  0
   25.3722  -18.2060  -16.5628 C   0  0  1  0  0  0  0  0  0  0  0  0
   25.0933  -16.7450  -16.8027 C   0  0  0  0  0  0  0  0  0  0  0  0
   24.4264  -16.4554  -18.1058 C   0  0  0  0  0  0  0  0  0  0  0  0
   24.2921  -14.9716  -18.2773 C   0  0  0  0  0  0  0  0  0  0  0  0
   23.6629  -14.5865  -19.6014 C   0  0  0  0  0  0  0  0  0  0  0  0
   23.6862  -13.1566  -19.7722 N   0  0  0  0  0  0  0  0  0  0  0  0
   26.2364  -18.8259  -17.5856 C   0  0  0  0  0  0  0  0  0  0  0  0
   27.4842  -18.8944  -17.5172 O   0  0  0  0  0  0  0  0  0  0  0  0
   25.6453  -19.3818  -18.7183 O   0  0  0  0  0  0  0  0  0  0  0  0
  2  1  1  0
  2  3  2  0
  4  5  1  0
  4  2  1  0
  5  7  1  0
  5  6  1  1
  7  8  2  0
  9 10  1  0
  9  7  1  0
 11 12  1  0
 10 11  1  6
 12 16  1  0
 13 14  1  0
 13 12  2  0
 14 15  1  0
 15 16  2  0
 17 18  2  0
 17 10  1  0
 19 17  1  0
 20 19  1  0
 20 26  1  0
 20 21  1  6
 22 21  1  0
 23 22  1  0
 24 25  1  0
 24 23  1  0
 26 28  1  0
 27 26  2  0
M  END
$$$$
