NHK.pdb
     RDKit          3D

 28 28  0  0  1  0  0  0  0  0999 V2000
   24.9276  -21.5970   -8.7476 N   0  0  0  0  0  0  0  0  0  0  0  0
   25.6943  -20.4101   -8.6004 C   0  0  0  0  0  0  0  0  0  0  0  0
   25.8322  -19.9334   -7.4596 O   0  0  0  0  0  0  0  0  0  0  0  0
   26.3059  -19.7674   -9.7689 C   0  0  0  0  0  0  0  0  0  0  0  0
   26.0542  -20.4895  -11.0387 C   0  0  2  0  0  0  0  0  0  0  0  0
   26.8360  -21.7181  -11.1353 N   0  0  0  0  0  0  0  0  0  0  0  0
   26.1660  -19.6857  -12.2803 C   0  0  0  0  0  0  0  0  0  0  0  0
   25.6228  -18.5688  -12.4567 O   0  0  0  0  0  0  0  0  0  0  0  0
   26.9341  -20.1621  -13.3955 N   0  0  0  0  0  0  0  0  0  0  0  0
   27.0300  -19.3347  -14.6543 C   0  0  1  0  0  0  0  0  0  0  0  0
   28.2314  -19.8601  -15.3501 C   0  0  0  0  0  0  0  0  0  0  0  0
   28.6448  -19.2777  -16.6102 C   0  0  0  0  0  0  0  0  0  0  0  0
   27.8367  -18.3070  -17.2337 C   0  0  0  0  0  0  0  0  0  0  0  0
   28.4164  -17.9126  -18.3745 N   0  0  0  0  0  0  0  0  0  0  0  0
   29.5618  -18.5942  -18.5016 C   0  0  0  0  0  0  0  0  0  0  0  0
   29.6712  -19.3995  -17.4363 N   0  0  0  0  0  0  0  0  0  0  0  0
   25.7482  -19.5207  -15.3708 C   0  0  0  0  0  0  0  0  0  0  0  0
   25.2980  -20.7078  -15.5589 O   0  0  0  0  0  0  0  0  0  0  0  0
   24.9489  -18.4810  -15.8752 N   0  0  0  0  0  0  0  0  0  0  0  0
   23.7536  -18.8136  -16.6796 C   0  0  1  0  0  0  0  0  0  0  0  0
   22.5560  -18.6546  -15.7794 C   0  0  0  0  0  0  0  0  0  0  0  0
   21.4479  -19.6137  -16.0602 C   0  0  0  0  0  0  0  0  0  0  0  0
   20.2995  -19.3312  -15.1380 C   0  0  0  0  0  0  0  0  0  0  0  0
   19.1562  -20.3125  -15.3037 C   0  0  0  0  0  0  0  0  0  0  0  0
   18.1045  -20.0226  -14.3634 N   0  0  0  0  0  0  0  0  0  0  0  0
   23.7056  -17.9748  -17.8927 C   0  0  0  0  0  0  0  0  0  0  0  0
   23.3230  -16.7834  -17.9201 O   0  0  0  0  0  0  0  0  0  0  0  0
   24.1100  -18.5250  -19.1072 O   0  0  0  0  0  0  0  0  0  0  0  0
  2  1  1  0
  2  3  2  0
  4  5  1  0
  4  2  1  0
  5  7  1  0
  5  6  1  6
  7  8  2  0
  9 10  1  0
  9  7  1  0
 11 12  1  0
 10 11  1  6
 12 16  1  0
 13 14  1  0
 13 12  2  0
 14 15  1  0
 15 16  2  0
 17 18  2  0
 17 10  1  0
 19 17  1  0
 20 19  1  0
 20 26  1  0
 20 21  1  1
 22 21  1  0
 23 22  1  0
 24 25  1  0
 24 23  1  0
 26 28  1  0
 27 26  2  0
M  END
$$$$
