NHK.pdb
     RDKit          3D

 28 28  0  0  1  0  0  0  0  0999 V2000
   15.3610  -21.9081    0.4989 N   0  0  0  0  0  0  0  0  0  0  0  0
   15.3454  -21.4654    1.8487 C   0  0  0  0  0  0  0  0  0  0  0  0
   14.4773  -21.9258    2.6116 O   0  0  0  0  0  0  0  0  0  0  0  0
   16.3318  -20.4893    2.3251 C   0  0  0  0  0  0  0  0  0  0  0  0
   15.7459  -19.4246    3.1738 C   0  0  2  0  0  0  0  0  0  0  0  0
   14.7714  -18.6175    2.4467 N   0  0  0  0  0  0  0  0  0  0  0  0
   16.7106  -18.5676    3.9052 C   0  0  0  0  0  0  0  0  0  0  0  0
   17.7406  -18.9888    4.4843 O   0  0  0  0  0  0  0  0  0  0  0  0
   16.5100  -17.1490    3.9946 N   0  0  0  0  0  0  0  0  0  0  0  0
   17.5208  -16.2875    4.7118 C   0  0  1  0  0  0  0  0  0  0  0  0
   17.4690  -14.9868    3.9983 C   0  0  0  0  0  0  0  0  0  0  0  0
   18.3272  -13.8996    4.4219 C   0  0  0  0  0  0  0  0  0  0  0  0
   19.2090  -14.0823    5.5049 C   0  0  0  0  0  0  0  0  0  0  0  0
   19.8987  -12.9533    5.7117 N   0  0  0  0  0  0  0  0  0  0  0  0
   19.4903  -12.0590    4.8026 C   0  0  0  0  0  0  0  0  0  0  0  0
   18.5541  -12.6507    4.0484 N   0  0  0  0  0  0  0  0  0  0  0  0
   17.1014  -16.2513    6.1309 C   0  0  0  0  0  0  0  0  0  0  0  0
   15.8507  -16.2438    6.4183 O   0  0  0  0  0  0  0  0  0  0  0  0
   17.9772  -16.2303    7.2295 N   0  0  0  0  0  0  0  0  0  0  0  0
   17.4189  -16.1778    8.5977 C   0  0  1  0  0  0  0  0  0  0  0  0
   17.8116  -17.4595    9.2854 C   0  0  0  0  0  0  0  0  0  0  0  0
   17.3641  -17.5537   10.7058 C   0  0  0  0  0  0  0  0  0  0  0  0
   17.8564  -18.8404   11.2985 C   0  0  0  0  0  0  0  0  0  0  0  0
   17.4015  -19.0412   12.7303 C   0  0  0  0  0  0  0  0  0  0  0  0
   17.8117  -20.3352   13.2115 N   0  0  0  0  0  0  0  0  0  0  0  0
   17.8821  -14.9606    9.2913 C   0  0  0  0  0  0  0  0  0  0  0  0
   18.9906  -14.4111    9.1017 O   0  0  0  0  0  0  0  0  0  0  0  0
   17.0442  -14.3606   10.2290 O   0  0  0  0  0  0  0  0  0  0  0  0
  2  1  1  0
  2  3  2  0
  4  5  1  0
  4  2  1  0
  5  7  1  0
  5  6  1  6
  7  8  2  0
  9 10  1  0
  9  7  1  0
 11 12  1  0
 10 11  1  6
 12 16  1  0
 13 14  1  0
 13 12  2  0
 14 15  1  0
 15 16  2  0
 17 18  2  0
 17 10  1  0
 19 17  1  0
 20 19  1  0
 20 26  1  0
 20 21  1  1
 22 21  1  0
 23 22  1  0
 24 25  1  0
 24 23  1  0
 26 28  1  0
 27 26  2  0
M  END
$$$$
