NHK.pdb
     RDKit          3D

 28 28  0  0  1  0  0  0  0  0999 V2000
   27.6345  -14.2434  -15.0247 N   0  0  0  0  0  0  0  0  0  0  0  0
   26.2781  -14.3031  -15.4427 C   0  0  0  0  0  0  0  0  0  0  0  0
   25.6722  -15.3839  -15.3308 O   0  0  0  0  0  0  0  0  0  0  0  0
   25.6138  -13.1158  -15.9918 C   0  0  0  0  0  0  0  0  0  0  0  0
   24.3938  -13.4304  -16.7728 C   0  0  2  0  0  0  0  0  0  0  0  0
   24.6753  -14.3195  -17.8954 N   0  0  0  0  0  0  0  0  0  0  0  0
   23.5758  -12.2700  -17.2020 C   0  0  0  0  0  0  0  0  0  0  0  0
   23.7603  -11.6209  -18.2596 O   0  0  0  0  0  0  0  0  0  0  0  0
   22.4819  -11.8060  -16.3966 N   0  0  0  0  0  0  0  0  0  0  0  0
   21.5952  -10.6920  -16.8976 C   0  0  1  0  0  0  0  0  0  0  0  0
   20.2167  -11.1565  -16.6015 C   0  0  0  0  0  0  0  0  0  0  0  0
   19.5263  -12.0086  -17.5477 C   0  0  0  0  0  0  0  0  0  0  0  0
   20.1034  -12.2737  -18.8049 C   0  0  0  0  0  0  0  0  0  0  0  0
   19.2952  -13.0810  -19.5035 N   0  0  0  0  0  0  0  0  0  0  0  0
   18.2261  -13.3401  -18.7402 C   0  0  0  0  0  0  0  0  0  0  0  0
   18.3914  -12.6880  -17.5814 N   0  0  0  0  0  0  0  0  0  0  0  0
   22.0216   -9.4691  -16.1807 C   0  0  0  0  0  0  0  0  0  0  0  0
   22.3927   -9.5543  -14.9551 O   0  0  0  0  0  0  0  0  0  0  0  0
   22.0648   -8.1810  -16.7403 N   0  0  0  0  0  0  0  0  0  0  0  0
   22.4709   -7.0386  -15.8937 C   0  0  1  0  0  0  0  0  0  0  0  0
   22.7021   -5.8671  -16.8124 C   0  0  0  0  0  0  0  0  0  0  0  0
   23.0687   -4.6023  -16.1106 C   0  0  0  0  0  0  0  0  0  0  0  0
   23.2721   -3.5132  -17.1213 C   0  0  0  0  0  0  0  0  0  0  0  0
   23.5500   -2.1652  -16.4865 C   0  0  0  0  0  0  0  0  0  0  0  0
   23.5587   -1.1300  -17.4878 N   0  0  0  0  0  0  0  0  0  0  0  0
   21.4565   -6.7904  -14.8513 C   0  0  0  0  0  0  0  0  0  0  0  0
   20.2280   -6.9837  -14.9927 O   0  0  0  0  0  0  0  0  0  0  0  0
   21.8701   -6.3059  -13.6121 O   0  0  0  0  0  0  0  0  0  0  0  0
  2  1  1  0
  2  3  2  0
  4  5  1  0
  4  2  1  0
  5  7  1  0
  5  6  1  6
  7  8  2  0
  9 10  1  0
  9  7  1  0
 11 12  1  0
 10 11  1  1
 12 16  1  0
 13 14  1  0
 13 12  2  0
 14 15  1  0
 15 16  2  0
 17 18  2  0
 17 10  1  0
 19 17  1  0
 20 19  1  0
 20 26  1  0
 20 21  1  6
 22 21  1  0
 23 22  1  0
 24 25  1  0
 24 23  1  0
 26 28  1  0
 27 26  2  0
M  END
$$$$
