NHK.pdb
     RDKit          3D

 28 28  0  0  1  0  0  0  0  0999 V2000
   15.8296  -14.4344  -16.2427 N   0  0  0  0  0  0  0  0  0  0  0  0
   17.2073  -14.1086  -16.3607 C   0  0  0  0  0  0  0  0  0  0  0  0
   17.8942  -14.7360  -17.1867 O   0  0  0  0  0  0  0  0  0  0  0  0
   17.7993  -13.0570  -15.5264 C   0  0  0  0  0  0  0  0  0  0  0  0
   18.5238  -12.0242  -16.3047 C   0  0  2  0  0  0  0  0  0  0  0  0
   19.8540  -12.4716  -16.7050 N   0  0  0  0  0  0  0  0  0  0  0  0
   18.5741  -10.6691  -15.7036 C   0  0  0  0  0  0  0  0  0  0  0  0
   17.6010  -10.0959  -15.1574 O   0  0  0  0  0  0  0  0  0  0  0  0
   19.7904   -9.9068  -15.7143 N   0  0  0  0  0  0  0  0  0  0  0  0
   19.8321   -8.5430  -15.0689 C   0  0  1  0  0  0  0  0  0  0  0  0
   21.2756   -8.2919  -14.8307 C   0  0  0  0  0  0  0  0  0  0  0  0
   21.7152   -6.9828  -14.3937 C   0  0  0  0  0  0  0  0  0  0  0  0
   20.7649   -5.9978  -14.0611 C   0  0  0  0  0  0  0  0  0  0  0  0
   21.3974   -4.8794  -13.6843 N   0  0  0  0  0  0  0  0  0  0  0  0
   22.7133   -5.1139  -13.7640 C   0  0  0  0  0  0  0  0  0  0  0  0
   22.8724   -6.3745  -14.1892 N   0  0  0  0  0  0  0  0  0  0  0  0
   19.1735   -7.6160  -16.0165 C   0  0  0  0  0  0  0  0  0  0  0  0
   19.2863   -7.8200  -17.2786 O   0  0  0  0  0  0  0  0  0  0  0  0
   18.4046   -6.4991  -15.6481 N   0  0  0  0  0  0  0  0  0  0  0  0
   17.7923   -5.6635  -16.7032 C   0  0  1  0  0  0  0  0  0  0  0  0
   16.4481   -6.2656  -17.0201 C   0  0  0  0  0  0  0  0  0  0  0  0
   15.6290   -5.4647  -17.9763 C   0  0  0  0  0  0  0  0  0  0  0  0
   14.3489   -6.1908  -18.2647 C   0  0  0  0  0  0  0  0  0  0  0  0
   13.4943   -5.4885  -19.3010 C   0  0  0  0  0  0  0  0  0  0  0  0
   12.2295   -6.1613  -19.4494 N   0  0  0  0  0  0  0  0  0  0  0  0
   17.7292   -4.2556  -16.2663 C   0  0  0  0  0  0  0  0  0  0  0  0
   17.6360   -3.2740  -17.0373 O   0  0  0  0  0  0  0  0  0  0  0  0
   17.7747   -3.9718  -14.9029 O   0  0  0  0  0  0  0  0  0  0  0  0
  2  1  1  0
  2  3  2  0
  4  5  1  0
  4  2  1  0
  5  7  1  0
  5  6  1  1
  7  8  2  0
  9 10  1  0
  9  7  1  0
 11 12  1  0
 10 11  1  6
 12 16  1  0
 13 14  1  0
 13 12  2  0
 14 15  1  0
 15 16  2  0
 17 18  2  0
 17 10  1  0
 19 17  1  0
 20 19  1  0
 20 26  1  0
 20 21  1  1
 22 21  1  0
 23 22  1  0
 24 25  1  0
 24 23  1  0
 26 28  1  0
 27 26  2  0
M  END
$$$$
