NHK.pdb
     RDKit          3D

 28 28  0  0  1  0  0  0  0  0999 V2000
   25.2048  -24.4797  -15.3689 N   0  0  0  0  0  0  0  0  0  0  0  0
   24.6938  -23.2048  -15.7318 C   0  0  0  0  0  0  0  0  0  0  0  0
   25.4104  -22.4545  -16.4181 O   0  0  0  0  0  0  0  0  0  0  0  0
   23.3530  -22.7895  -15.3047 C   0  0  0  0  0  0  0  0  0  0  0  0
   23.3328  -21.4750  -14.6198 C   0  0  2  0  0  0  0  0  0  0  0  0
   24.3338  -21.3926  -13.5610 N   0  0  0  0  0  0  0  0  0  0  0  0
   22.0087  -21.0084  -14.1410 C   0  0  0  0  0  0  0  0  0  0  0  0
   21.0945  -21.7621  -13.7287 O   0  0  0  0  0  0  0  0  0  0  0  0
   21.6869  -19.6096  -14.1226 N   0  0  0  0  0  0  0  0  0  0  0  0
   20.3494  -19.1498  -13.5953 C   0  0  1  0  0  0  0  0  0  0  0  0
   20.6891  -18.1865  -12.5181 C   0  0  0  0  0  0  0  0  0  0  0  0
   20.8164  -18.6509  -11.1521 C   0  0  0  0  0  0  0  0  0  0  0  0
   20.5153  -19.9898  -10.8347 C   0  0  0  0  0  0  0  0  0  0  0  0
   20.7074  -20.1898   -9.5247 N   0  0  0  0  0  0  0  0  0  0  0  0
   21.1190  -19.0307   -8.9958 C   0  0  0  0  0  0  0  0  0  0  0  0
   21.1744  -18.1325   -9.9885 N   0  0  0  0  0  0  0  0  0  0  0  0
   19.6222  -18.5797  -14.7517 C   0  0  0  0  0  0  0  0  0  0  0  0
   20.2324  -18.4373  -15.8718 O   0  0  0  0  0  0  0  0  0  0  0  0
   18.2774  -18.1725  -14.7366 N   0  0  0  0  0  0  0  0  0  0  0  0
   17.6207  -17.8007  -16.0082 C   0  0  1  0  0  0  0  0  0  0  0  0
   17.8120  -18.9539  -16.9587 C   0  0  0  0  0  0  0  0  0  0  0  0
   17.1406  -18.7759  -18.2794 C   0  0  0  0  0  0  0  0  0  0  0  0
   17.5231  -19.9057  -19.1885 C   0  0  0  0  0  0  0  0  0  0  0  0
   16.9291  -19.7716  -20.5765 C   0  0  0  0  0  0  0  0  0  0  0  0
   17.3473  -20.8687  -21.4106 N   0  0  0  0  0  0  0  0  0  0  0  0
   16.2073  -17.4509  -15.7689 C   0  0  0  0  0  0  0  0  0  0  0  0
   15.5154  -17.8895  -14.8226 O   0  0  0  0  0  0  0  0  0  0  0  0
   15.5745  -16.5713  -16.6449 O   0  0  0  0  0  0  0  0  0  0  0  0
  2  1  1  0
  2  3  2  0
  4  5  1  0
  4  2  1  0
  5  7  1  0
  5  6  1  1
  7  8  2  0
  9 10  1  0
  9  7  1  0
 11 12  1  0
 10 11  1  1
 12 16  1  0
 13 14  1  0
 13 12  2  0
 14 15  1  0
 15 16  2  0
 17 18  2  0
 17 10  1  0
 19 17  1  0
 20 19  1  0
 20 26  1  0
 20 21  1  6
 22 21  1  0
 23 22  1  0
 24 25  1  0
 24 23  1  0
 26 28  1  0
 27 26  2  0
M  END
$$$$
