NHK.pdb
     RDKit          3D

 28 28  0  0  1  0  0  0  0  0999 V2000
   18.7838  -10.0626  -15.6301 N   0  0  0  0  0  0  0  0  0  0  0  0
   18.4477  -10.0802  -14.2499 C   0  0  0  0  0  0  0  0  0  0  0  0
   19.1518  -10.7566  -13.4789 O   0  0  0  0  0  0  0  0  0  0  0  0
   17.2976   -9.3172  -13.7524 C   0  0  0  0  0  0  0  0  0  0  0  0
   16.6063   -9.9673  -12.6137 C   0  0  2  0  0  0  0  0  0  0  0  0
   15.9266  -11.1954  -13.0133 N   0  0  0  0  0  0  0  0  0  0  0  0
   15.7118   -9.0984  -11.8105 C   0  0  0  0  0  0  0  0  0  0  0  0
   14.5757   -8.7132  -12.1774 O   0  0  0  0  0  0  0  0  0  0  0  0
   16.1143   -8.6303  -10.5145 N   0  0  0  0  0  0  0  0  0  0  0  0
   15.1827   -7.7642   -9.7020 C   0  0  1  0  0  0  0  0  0  0  0  0
   14.8893   -8.5725   -8.4919 C   0  0  0  0  0  0  0  0  0  0  0  0
   13.6402   -9.2998   -8.3983 C   0  0  0  0  0  0  0  0  0  0  0  0
   12.6549   -9.1335   -9.3910 C   0  0  0  0  0  0  0  0  0  0  0  0
   11.5972   -9.9014   -9.1002 N   0  0  0  0  0  0  0  0  0  0  0  0
   11.8707  -10.5500   -7.9611 C   0  0  0  0  0  0  0  0  0  0  0  0
   13.0940  -10.1717   -7.5664 N   0  0  0  0  0  0  0  0  0  0  0  0
   15.9039   -6.4947   -9.4590 C   0  0  0  0  0  0  0  0  0  0  0  0
   17.1859   -6.4777   -9.5148 O   0  0  0  0  0  0  0  0  0  0  0  0
   15.2921   -5.2633   -9.1695 N   0  0  0  0  0  0  0  0  0  0  0  0
   16.0582   -4.0131   -9.3610 C   0  0  1  0  0  0  0  0  0  0  0  0
   16.4232   -3.9370  -10.8207 C   0  0  0  0  0  0  0  0  0  0  0  0
   17.0421   -2.6422  -11.2299 C   0  0  0  0  0  0  0  0  0  0  0  0
   17.3323   -2.6722  -12.7009 C   0  0  0  0  0  0  0  0  0  0  0  0
   18.0543   -1.4301  -13.1840 C   0  0  0  0  0  0  0  0  0  0  0  0
   18.2622   -1.4911  -14.6079 N   0  0  0  0  0  0  0  0  0  0  0  0
   15.2777   -2.8576   -8.8785 C   0  0  0  0  0  0  0  0  0  0  0  0
   15.7727   -1.8226   -8.3782 O   0  0  0  0  0  0  0  0  0  0  0  0
   13.8882   -2.8968   -8.9755 O   0  0  0  0  0  0  0  0  0  0  0  0
  2  1  1  0
  2  3  2  0
  4  5  1  0
  4  2  1  0
  5  7  1  0
  5  6  1  6
  7  8  2  0
  9 10  1  0
  9  7  1  0
 11 12  1  0
 10 11  1  1
 12 16  1  0
 13 14  1  0
 13 12  2  0
 14 15  1  0
 15 16  2  0
 17 18  2  0
 17 10  1  0
 19 17  1  0
 20 19  1  0
 20 26  1  0
 20 21  1  6
 22 21  1  0
 23 22  1  0
 24 25  1  0
 24 23  1  0
 26 28  1  0
 27 26  2  0
M  END
$$$$
