NHK.pdb
     RDKit          3D

 28 28  0  0  1  0  0  0  0  0999 V2000
   17.1627  -17.0619  -17.2948 N   0  0  0  0  0  0  0  0  0  0  0  0
   16.8737  -15.9389  -16.4740 C   0  0  0  0  0  0  0  0  0  0  0  0
   16.0972  -16.0926  -15.5143 O   0  0  0  0  0  0  0  0  0  0  0  0
   17.4797  -14.6329  -16.7563 C   0  0  0  0  0  0  0  0  0  0  0  0
   17.1818  -13.6093  -15.7263 C   0  0  2  0  0  0  0  0  0  0  0  0
   15.7842  -13.6429  -15.3076 N   0  0  0  0  0  0  0  0  0  0  0  0
   17.6134  -12.2248  -16.0377 C   0  0  0  0  0  0  0  0  0  0  0  0
   18.5741  -11.9303  -16.7888 O   0  0  0  0  0  0  0  0  0  0  0  0
   16.9266  -11.0980  -15.4726 N   0  0  0  0  0  0  0  0  0  0  0  0
   17.3011   -9.6975  -15.8927 C   0  0  1  0  0  0  0  0  0  0  0  0
   16.1946   -8.8507  -15.3806 C   0  0  0  0  0  0  0  0  0  0  0  0
   16.2931   -7.4083  -15.4684 C   0  0  0  0  0  0  0  0  0  0  0  0
   16.6170   -6.8002  -16.6969 C   0  0  0  0  0  0  0  0  0  0  0  0
   16.6473   -5.4707  -16.5401 N   0  0  0  0  0  0  0  0  0  0  0  0
   16.3555   -5.2087  -15.2599 C   0  0  0  0  0  0  0  0  0  0  0  0
   16.1495   -6.3818  -14.6459 N   0  0  0  0  0  0  0  0  0  0  0  0
   18.6319   -9.4299  -15.3025 C   0  0  0  0  0  0  0  0  0  0  0  0
   18.8694   -9.7911  -14.0941 O   0  0  0  0  0  0  0  0  0  0  0  0
   19.6972   -8.8012  -15.9690 N   0  0  0  0  0  0  0  0  0  0  0  0
   20.9450   -8.5159  -15.2287 C   0  0  1  0  0  0  0  0  0  0  0  0
   22.0810   -9.0794  -16.0424 C   0  0  0  0  0  0  0  0  0  0  0  0
   23.4356   -8.7697  -15.4985 C   0  0  0  0  0  0  0  0  0  0  0  0
   24.4808   -9.3015  -16.4333 C   0  0  0  0  0  0  0  0  0  0  0  0
   24.4389   -8.6445  -17.7986 C   0  0  0  0  0  0  0  0  0  0  0  0
   25.6121   -8.9901  -18.5591 N   0  0  0  0  0  0  0  0  0  0  0  0
   21.0603   -7.0692  -14.9620 C   0  0  0  0  0  0  0  0  0  0  0  0
   20.6672   -6.1685  -15.7371 O   0  0  0  0  0  0  0  0  0  0  0  0
   21.6449   -6.6498  -13.7687 O   0  0  0  0  0  0  0  0  0  0  0  0
  2  1  1  0
  2  3  2  0
  4  5  1  0
  4  2  1  0
  5  7  1  0
  5  6  1  6
  7  8  2  0
  9 10  1  0
  9  7  1  0
 11 12  1  0
 10 11  1  1
 12 16  1  0
 13 14  1  0
 13 12  2  0
 14 15  1  0
 15 16  2  0
 17 18  2  0
 17 10  1  0
 19 17  1  0
 20 19  1  0
 20 26  1  0
 20 21  1  6
 22 21  1  0
 23 22  1  0
 24 25  1  0
 24 23  1  0
 26 28  1  0
 27 26  2  0
M  END
$$$$
