NHK.pdb
     RDKit          3D

 28 28  0  0  1  0  0  0  0  0999 V2000
   34.4303  -33.1439  -16.4616 N   0  0  0  0  0  0  0  0  0  0  0  0
   34.1028  -32.3628  -17.6021 C   0  0  0  0  0  0  0  0  0  0  0  0
   35.0150  -32.0571  -18.3908 O   0  0  0  0  0  0  0  0  0  0  0  0
   32.7207  -31.9306  -17.8384 C   0  0  0  0  0  0  0  0  0  0  0  0
   31.8011  -32.2590  -16.7232 C   0  0  2  0  0  0  0  0  0  0  0  0
   31.7027  -33.6977  -16.4988 N   0  0  0  0  0  0  0  0  0  0  0  0
   30.4572  -31.6336  -16.7793 C   0  0  0  0  0  0  0  0  0  0  0  0
   30.2051  -30.5360  -17.3320 O   0  0  0  0  0  0  0  0  0  0  0  0
   29.3234  -32.2772  -16.1786 N   0  0  0  0  0  0  0  0  0  0  0  0
   27.9461  -31.6795  -16.3344 C   0  0  1  0  0  0  0  0  0  0  0  0
   27.7141  -31.6652  -17.8006 C   0  0  0  0  0  0  0  0  0  0  0  0
   28.2188  -30.5663  -18.5978 C   0  0  0  0  0  0  0  0  0  0  0  0
   27.6064  -29.3005  -18.5163 C   0  0  0  0  0  0  0  0  0  0  0  0
   28.2392  -28.4474  -19.3317 N   0  0  0  0  0  0  0  0  0  0  0  0
   29.2305  -29.1207  -19.9291 C   0  0  0  0  0  0  0  0  0  0  0  0
   29.1938  -30.3800  -19.4727 N   0  0  0  0  0  0  0  0  0  0  0  0
   27.0299  -32.5414  -15.5542 C   0  0  0  0  0  0  0  0  0  0  0  0
   27.4974  -33.5713  -14.9476 O   0  0  0  0  0  0  0  0  0  0  0  0
   25.6496  -32.3240  -15.4065 N   0  0  0  0  0  0  0  0  0  0  0  0
   24.8710  -33.2059  -14.5106 C   0  0  1  0  0  0  0  0  0  0  0  0
   25.3992  -32.9966  -13.1152 C   0  0  0  0  0  0  0  0  0  0  0  0
   24.6819  -33.7783  -12.0659 C   0  0  0  0  0  0  0  0  0  0  0  0
   25.2776  -33.4735  -10.7238 C   0  0  0  0  0  0  0  0  0  0  0  0
   24.6457  -34.2752   -9.6033 C   0  0  0  0  0  0  0  0  0  0  0  0
   25.2377  -33.9242   -8.3381 N   0  0  0  0  0  0  0  0  0  0  0  0
   23.4282  -32.9306  -14.6517 C   0  0  0  0  0  0  0  0  0  0  0  0
   22.9476  -31.9004  -15.1755 O   0  0  0  0  0  0  0  0  0  0  0  0
   22.5148  -33.8689  -14.1758 O   0  0  0  0  0  0  0  0  0  0  0  0
  2  1  1  0
  2  3  2  0
  4  5  1  0
  4  2  1  0
  5  7  1  0
  5  6  1  6
  7  8  2  0
  9 10  1  0
  9  7  1  0
 11 12  1  0
 10 11  1  6
 12 16  1  0
 13 14  1  0
 13 12  2  0
 14 15  1  0
 15 16  2  0
 17 18  2  0
 17 10  1  0
 19 17  1  0
 20 19  1  0
 20 26  1  0
 20 21  1  1
 22 21  1  0
 23 22  1  0
 24 25  1  0
 24 23  1  0
 26 28  1  0
 27 26  2  0
M  END
$$$$
