NHK.pdb
     RDKit          3D

 28 28  0  0  1  0  0  0  0  0999 V2000
   26.4076  -21.1519   -7.8718 N   0  0  0  0  0  0  0  0  0  0  0  0
   25.4241  -21.0574   -8.8924 C   0  0  0  0  0  0  0  0  0  0  0  0
   24.3797  -21.7222   -8.7701 O   0  0  0  0  0  0  0  0  0  0  0  0
   25.6404  -20.1948  -10.0593 C   0  0  0  0  0  0  0  0  0  0  0  0
   25.5900  -20.9235  -11.3492 C   0  0  2  0  0  0  0  0  0  0  0  0
   26.7115  -21.8445  -11.5031 N   0  0  0  0  0  0  0  0  0  0  0  0
   25.4119  -20.0904  -12.5634 C   0  0  0  0  0  0  0  0  0  0  0  0
   26.3309  -19.4508  -13.1292 O   0  0  0  0  0  0  0  0  0  0  0  0
   24.1236  -19.9647  -13.1839 N   0  0  0  0  0  0  0  0  0  0  0  0
   23.9992  -19.3125  -14.5394 C   0  0  1  0  0  0  0  0  0  0  0  0
   24.6289  -20.2796  -15.4731 C   0  0  0  0  0  0  0  0  0  0  0  0
   26.0028  -20.0872  -15.8891 C   0  0  0  0  0  0  0  0  0  0  0  0
   26.6820  -18.9028  -15.5428 C   0  0  0  0  0  0  0  0  0  0  0  0
   27.9295  -18.9481  -16.0272 N   0  0  0  0  0  0  0  0  0  0  0  0
   28.0710  -20.1150  -16.6685 C   0  0  0  0  0  0  0  0  0  0  0  0
   26.9075  -20.7722  -16.5697 N   0  0  0  0  0  0  0  0  0  0  0  0
   22.5543  -19.0720  -14.7523 C   0  0  0  0  0  0  0  0  0  0  0  0
   21.7074  -19.9688  -14.3978 O   0  0  0  0  0  0  0  0  0  0  0  0
   22.0060  -17.9095  -15.3201 N   0  0  0  0  0  0  0  0  0  0  0  0
   20.5370  -17.7839  -15.4326 C   0  0  1  0  0  0  0  0  0  0  0  0
   20.2358  -16.3309  -15.6936 C   0  0  0  0  0  0  0  0  0  0  0  0
   18.7885  -16.0342  -15.9033 C   0  0  0  0  0  0  0  0  0  0  0  0
   18.6181  -14.5750  -16.2044 C   0  0  0  0  0  0  0  0  0  0  0  0
   17.1691  -14.1820  -16.4124 C   0  0  0  0  0  0  0  0  0  0  0  0
   17.0616  -12.7659  -16.6522 N   0  0  0  0  0  0  0  0  0  0  0  0
   20.0252  -18.6971  -16.4725 C   0  0  0  0  0  0  0  0  0  0  0  0
   18.8732  -19.1864  -16.4864 O   0  0  0  0  0  0  0  0  0  0  0  0
   20.8648  -19.0559  -17.5250 O   0  0  0  0  0  0  0  0  0  0  0  0
  2  1  1  0
  2  3  2  0
  4  5  1  0
  4  2  1  0
  5  7  1  0
  5  6  1  6
  7  8  2  0
  9 10  1  0
  9  7  1  0
 11 12  1  0
 10 11  1  6
 12 16  1  0
 13 14  1  0
 13 12  2  0
 14 15  1  0
 15 16  2  0
 17 18  2  0
 17 10  1  0
 19 17  1  0
 20 19  1  0
 20 26  1  0
 20 21  1  6
 22 21  1  0
 23 22  1  0
 24 25  1  0
 24 23  1  0
 26 28  1  0
 27 26  2  0
M  END
$$$$
