NHK.pdb
     RDKit          3D

 28 28  0  0  1  0  0  0  0  0999 V2000
   28.9714  -24.5824  -19.1314 N   0  0  0  0  0  0  0  0  0  0  0  0
   28.2651  -23.3504  -19.0925 C   0  0  0  0  0  0  0  0  0  0  0  0
   27.8298  -22.8848  -20.1608 O   0  0  0  0  0  0  0  0  0  0  0  0
   28.0574  -22.6496  -17.8204 C   0  0  0  0  0  0  0  0  0  0  0  0
   26.6479  -22.2537  -17.5882 C   0  0  2  0  0  0  0  0  0  0  0  0
   26.3907  -20.8762  -17.9957 N   0  0  0  0  0  0  0  0  0  0  0  0
   26.1100  -22.5192  -16.2316 C   0  0  0  0  0  0  0  0  0  0  0  0
   26.0105  -23.6582  -15.7154 O   0  0  0  0  0  0  0  0  0  0  0  0
   25.6542  -21.4417  -15.3998 N   0  0  0  0  0  0  0  0  0  0  0  0
   25.1249  -21.7287  -14.0157 C   0  0  1  0  0  0  0  0  0  0  0  0
   25.8011  -20.7317  -13.1483 C   0  0  0  0  0  0  0  0  0  0  0  0
   25.4846  -20.6750  -11.7361 C   0  0  0  0  0  0  0  0  0  0  0  0
   24.2764  -20.0894  -11.3102 C   0  0  0  0  0  0  0  0  0  0  0  0
   24.1982  -20.1532   -9.9750 N   0  0  0  0  0  0  0  0  0  0  0  0
   25.3093  -20.7564   -9.5342 C   0  0  0  0  0  0  0  0  0  0  0  0
   26.0567  -21.0557  -10.6053 N   0  0  0  0  0  0  0  0  0  0  0  0
   23.6525  -21.6023  -14.1010 C   0  0  0  0  0  0  0  0  0  0  0  0
   23.1396  -20.7315  -14.8919 O   0  0  0  0  0  0  0  0  0  0  0  0
   22.7339  -22.3795  -13.3754 N   0  0  0  0  0  0  0  0  0  0  0  0
   21.2854  -22.1486  -13.5627 C   0  0  1  0  0  0  0  0  0  0  0  0
   20.5627  -23.1247  -12.6711 C   0  0  0  0  0  0  0  0  0  0  0  0
   19.0781  -23.1060  -12.8202 C   0  0  0  0  0  0  0  0  0  0  0  0
   18.4839  -24.2306  -12.0256 C   0  0  0  0  0  0  0  0  0  0  0  0
   16.9811  -24.3386  -12.1910 C   0  0  0  0  0  0  0  0  0  0  0  0
   16.4520  -25.3602  -11.3245 N   0  0  0  0  0  0  0  0  0  0  0  0
   20.9553  -20.7357  -13.2944 C   0  0  0  0  0  0  0  0  0  0  0  0
   20.2699  -20.0089  -14.0484 O   0  0  0  0  0  0  0  0  0  0  0  0
   21.4285  -20.1449  -12.1246 O   0  0  0  0  0  0  0  0  0  0  0  0
  2  1  1  0
  2  3  2  0
  4  5  1  0
  4  2  1  0
  5  7  1  0
  5  6  1  1
  7  8  2  0
  9 10  1  0
  9  7  1  0
 11 12  1  0
 10 11  1  1
 12 16  1  0
 13 14  1  0
 13 12  2  0
 14 15  1  0
 15 16  2  0
 17 18  2  0
 17 10  1  0
 19 17  1  0
 20 19  1  0
 20 26  1  0
 20 21  1  1
 22 21  1  0
 23 22  1  0
 24 25  1  0
 24 23  1  0
 26 28  1  0
 27 26  2  0
M  END
$$$$
