NHK.pdb
     RDKit          3D

 28 28  0  0  1  0  0  0  0  0999 V2000
   25.4426  -12.3639  -20.0985 N   0  0  0  0  0  0  0  0  0  0  0  0
   24.0903  -12.7809  -20.2235 C   0  0  0  0  0  0  0  0  0  0  0  0
   23.8424  -13.7818  -20.9194 O   0  0  0  0  0  0  0  0  0  0  0  0
   23.0171  -12.0450  -19.5457 C   0  0  0  0  0  0  0  0  0  0  0  0
   23.5097  -10.9446  -18.6833 C   0  0  2  0  0  0  0  0  0  0  0  0
   24.5012  -11.4067  -17.7173 N   0  0  0  0  0  0  0  0  0  0  0  0
   22.4706  -10.1140  -18.0272 C   0  0  0  0  0  0  0  0  0  0  0  0
   21.5684   -9.4902  -18.6359 O   0  0  0  0  0  0  0  0  0  0  0  0
   22.4391   -9.9722  -16.5991 N   0  0  0  0  0  0  0  0  0  0  0  0
   21.3449   -9.1641  -15.9449 C   0  0  1  0  0  0  0  0  0  0  0  0
   21.1086   -9.8458  -14.6475 C   0  0  0  0  0  0  0  0  0  0  0  0
   20.1314   -9.3112  -13.7217 C   0  0  0  0  0  0  0  0  0  0  0  0
   19.3316   -8.2152  -14.1004 C   0  0  0  0  0  0  0  0  0  0  0  0
   18.5059   -7.8993  -13.0947 N   0  0  0  0  0  0  0  0  0  0  0  0
   18.7488   -8.7512  -12.0907 C   0  0  0  0  0  0  0  0  0  0  0  0
   19.7216   -9.5803  -12.4928 N   0  0  0  0  0  0  0  0  0  0  0  0
   21.8539   -7.7774  -15.8508 C   0  0  0  0  0  0  0  0  0  0  0  0
   23.0719   -7.5756  -15.5004 O   0  0  0  0  0  0  0  0  0  0  0  0
   21.1018   -6.6227  -16.1259 N   0  0  0  0  0  0  0  0  0  0  0  0
   21.7409   -5.2958  -15.9943 C   0  0  1  0  0  0  0  0  0  0  0  0
   21.0928   -4.3899  -17.0088 C   0  0  0  0  0  0  0  0  0  0  0  0
   21.5706   -2.9771  -16.9610 C   0  0  0  0  0  0  0  0  0  0  0  0
   20.8289   -2.1661  -17.9815 C   0  0  0  0  0  0  0  0  0  0  0  0
   21.3139   -0.7322  -18.0597 C   0  0  0  0  0  0  0  0  0  0  0  0
   20.6262   -0.0253  -19.1093 N   0  0  0  0  0  0  0  0  0  0  0  0
   21.6313   -4.8125  -14.6044 C   0  0  0  0  0  0  0  0  0  0  0  0
   20.6479   -5.0122  -13.8564 O   0  0  0  0  0  0  0  0  0  0  0  0
   22.6846   -4.0789  -14.0624 O   0  0  0  0  0  0  0  0  0  0  0  0
  2  1  1  0
  2  3  2  0
  4  5  1  0
  4  2  1  0
  5  7  1  0
  5  6  1  1
  7  8  2  0
  9 10  1  0
  9  7  1  0
 11 12  1  0
 10 11  1  1
 12 16  1  0
 13 14  1  0
 13 12  2  0
 14 15  1  0
 15 16  2  0
 17 18  2  0
 17 10  1  0
 19 17  1  0
 20 19  1  0
 20 26  1  0
 20 21  1  6
 22 21  1  0
 23 22  1  0
 24 25  1  0
 24 23  1  0
 26 28  1  0
 27 26  2  0
M  END
$$$$
