VIP.pdb
     RDKit          3D

 23 23  0  0  1  0  0  0  0  0999 V2000
   19.5658  -19.9811  -17.0017 C   0  0  0  0  0  0  0  0  0  0  0  0
   20.9284  -20.3547  -16.4756 C   0  0  2  0  0  0  0  0  0  0  0  0
   20.8559  -20.4050  -14.9797 C   0  0  0  0  0  0  0  0  0  0  0  0
   21.9834  -19.4003  -16.9676 C   0  0  2  0  0  0  0  0  0  0  0  0
   22.0798  -19.4081  -18.3936 N   0  0  0  0  0  0  0  0  0  0  0  0
   23.3022  -19.6353  -16.3246 C   0  0  0  0  0  0  0  0  0  0  0  0
   23.9553  -20.6714  -16.6015 O   0  0  0  0  0  0  0  0  0  0  0  0
   26.7481  -15.6227  -15.8527 C   0  0  0  0  0  0  0  0  0  0  0  0
   26.2266  -17.0630  -16.0764 C   0  0  0  0  0  0  0  0  0  0  0  0
   25.8708  -17.6037  -14.7540 C   0  0  2  0  0  0  0  0  0  0  0  0
   27.0592  -17.6700  -13.8051 C   0  0  0  0  0  0  0  0  0  0  0  0
   25.1629  -18.9501  -14.7380 C   0  0  2  0  0  0  0  0  0  0  0  0
   23.8472  -18.7208  -15.4043 N   0  0  0  0  0  0  0  0  0  0  0  0
   24.8076  -19.4250  -13.3860 C   0  0  0  0  0  0  0  0  0  0  0  0
   23.8366  -18.8814  -12.7656 O   0  0  0  0  0  0  0  0  0  0  0  0
   25.4732  -20.4733  -12.7016 N   0  0  0  0  0  0  0  0  0  0  0  0
   26.5691  -21.2572  -13.2478 C   0  0  0  0  0  0  0  0  0  0  0  0
   26.2858  -22.6457  -12.6700 C   0  0  0  0  0  0  0  0  0  0  0  0
   25.9036  -22.2991  -11.2652 C   0  0  0  0  0  0  0  0  0  0  0  0
   25.1999  -20.9839  -11.3671 C   0  0  1  0  0  0  0  0  0  0  0  0
   25.6968  -20.0172  -10.3584 C   0  0  0  0  0  0  0  0  0  0  0  0
   26.5702  -19.1590  -10.6288 O   0  0  0  0  0  0  0  0  0  0  0  0
   25.1775  -20.0666   -9.0778 O   0  0  0  0  0  0  0  0  0  0  0  0
  2  1  1  6
  2  3  1  0
  4  6  1  0
  4  2  1  0
  4  5  1  6
  6  7  2  0
  9  8  1  0
 10  9  1  0
 10 12  1  0
 10 11  1  1
 12 14  1  0
 13  6  1  0
 12 13  1  6
 14 16  1  0
 14 15  2  0
 16 17  1  0
 18 17  1  0
 19 18  1  0
 20 16  1  0
 20 19  1  0
 20 21  1  1
 22 21  2  0
 23 21  1  0
M  END
$$$$
