VIP.pdb
     RDKit          3D

 23 23  0  0  1  0  0  0  0  0999 V2000
   19.5965  -21.4559  -14.5526 C   0  0  0  0  0  0  0  0  0  0  0  0
   20.7834  -20.5376  -14.4077 C   0  0  2  0  0  0  0  0  0  0  0  0
   21.5011  -20.4879  -15.7222 C   0  0  0  0  0  0  0  0  0  0  0  0
   21.6790  -20.9775  -13.2806 C   0  0  2  0  0  0  0  0  0  0  0  0
   20.9771  -21.0280  -12.0366 N   0  0  0  0  0  0  0  0  0  0  0  0
   22.9125  -20.1546  -13.1847 C   0  0  0  0  0  0  0  0  0  0  0  0
   22.8841  -19.0569  -12.5756 O   0  0  0  0  0  0  0  0  0  0  0  0
   27.0449  -21.9465  -10.8547 C   0  0  0  0  0  0  0  0  0  0  0  0
   26.0160  -20.9270  -11.4011 C   0  0  0  0  0  0  0  0  0  0  0  0
   26.3307  -20.7163  -12.8239 C   0  0  2  0  0  0  0  0  0  0  0  0
   27.7607  -20.2452  -13.0479 C   0  0  0  0  0  0  0  0  0  0  0  0
   25.3931  -19.8034  -13.5996 C   0  0  2  0  0  0  0  0  0  0  0  0
   24.1252  -20.5737  -13.7627 N   0  0  0  0  0  0  0  0  0  0  0  0
   25.8316  -19.5284  -14.9824 C   0  0  0  0  0  0  0  0  0  0  0  0
   25.7597  -20.4511  -15.8580 O   0  0  0  0  0  0  0  0  0  0  0  0
   26.3352  -18.2820  -15.4330 N   0  0  0  0  0  0  0  0  0  0  0  0
   26.5991  -17.1353  -14.5791 C   0  0  0  0  0  0  0  0  0  0  0  0
   26.1995  -15.9668  -15.4831 C   0  0  0  0  0  0  0  0  0  0  0  0
   26.7871  -16.4008  -16.7891 C   0  0  0  0  0  0  0  0  0  0  0  0
   26.6630  -17.8908  -16.7953 C   0  0  1  0  0  0  0  0  0  0  0  0
   27.9298  -18.5443  -17.2042 C   0  0  0  0  0  0  0  0  0  0  0  0
   28.6829  -19.1160  -16.3806 O   0  0  0  0  0  0  0  0  0  0  0  0
   28.2895  -18.5206  -18.5392 O   0  0  0  0  0  0  0  0  0  0  0  0
  2  1  1  6
  2  3  1  0
  4  6  1  0
  4  2  1  0
  4  5  1  1
  6  7  2  0
  9  8  1  0
 10  9  1  0
 10 12  1  0
 10 11  1  1
 12 14  1  0
 13  6  1  0
 12 13  1  6
 14 16  1  0
 14 15  2  0
 16 17  1  0
 18 17  1  0
 19 18  1  0
 20 16  1  0
 20 19  1  0
 20 21  1  1
 22 21  2  0
 23 21  1  0
M  END
$$$$
