VIP.pdb
     RDKit          3D

 23 23  0  0  1  0  0  0  0  0999 V2000
   19.4195  -12.9227    6.5327 C   0  0  0  0  0  0  0  0  0  0  0  0
   19.1596  -13.1305    5.0622 C   0  0  2  0  0  0  0  0  0  0  0  0
   19.5941  -11.8972    4.3303 C   0  0  0  0  0  0  0  0  0  0  0  0
   17.7158  -13.4713    4.8064 C   0  0  2  0  0  0  0  0  0  0  0  0
   16.8403  -12.4355    5.2575 N   0  0  0  0  0  0  0  0  0  0  0  0
   17.3395  -14.7946    5.3677 C   0  0  0  0  0  0  0  0  0  0  0  0
   16.6643  -14.8546    6.4247 O   0  0  0  0  0  0  0  0  0  0  0  0
   14.8098  -18.3253    2.5604 C   0  0  0  0  0  0  0  0  0  0  0  0
   15.2923  -17.5214    3.7922 C   0  0  0  0  0  0  0  0  0  0  0  0
   16.6178  -18.0472    4.1587 C   0  0  2  0  0  0  0  0  0  0  0  0
   16.5969  -19.5385    4.4628 C   0  0  0  0  0  0  0  0  0  0  0  0
   17.3437  -17.3328    5.2887 C   0  0  2  0  0  0  0  0  0  0  0  0
   17.7215  -15.9961    4.7427 N   0  0  0  0  0  0  0  0  0  0  0  0
   18.6322  -17.9512    5.6594 C   0  0  0  0  0  0  0  0  0  0  0  0
   19.5773  -17.9902    4.8060 O   0  0  0  0  0  0  0  0  0  0  0  0
   18.9168  -18.5166    6.9280 N   0  0  0  0  0  0  0  0  0  0  0  0
   18.0546  -18.4161    8.0944 C   0  0  0  0  0  0  0  0  0  0  0  0
   19.0712  -18.2927    9.2317 C   0  0  0  0  0  0  0  0  0  0  0  0
   20.0867  -19.3120    8.8204 C   0  0  0  0  0  0  0  0  0  0  0  0
   20.0955  -19.2708    7.3258 C   0  0  1  0  0  0  0  0  0  0  0  0
   20.0306  -20.6316    6.7399 C   0  0  0  0  0  0  0  0  0  0  0  0
   18.9745  -21.0990    6.2514 O   0  0  0  0  0  0  0  0  0  0  0  0
   21.1746  -21.4082    6.7339 O   0  0  0  0  0  0  0  0  0  0  0  0
  2  1  1  1
  2  3  1  0
  4  6  1  0
  4  2  1  0
  4  5  1  1
  6  7  2  0
  9  8  1  0
 10  9  1  0
 10 12  1  0
 10 11  1  1
 12 14  1  0
 13  6  1  0
 12 13  1  6
 14 16  1  0
 14 15  2  0
 16 17  1  0
 18 17  1  0
 19 18  1  0
 20 16  1  0
 20 19  1  0
 20 21  1  6
 22 21  2  0
 23 21  1  0
M  END
$$$$
