VIP.pdb
     RDKit          3D

 23 23  0  0  1  0  0  0  0  0999 V2000
   17.6719  -10.1675  -20.8306 C   0  0  0  0  0  0  0  0  0  0  0  0
   17.8630   -9.6707  -19.4199 C   0  0  2  0  0  0  0  0  0  0  0  0
   18.4570   -8.2964  -19.4832 C   0  0  0  0  0  0  0  0  0  0  0  0
   18.7055  -10.6240  -18.6154 C   0  0  2  0  0  0  0  0  0  0  0  0
   18.1225  -11.9278  -18.5608 N   0  0  0  0  0  0  0  0  0  0  0  0
   19.0130  -10.1003  -17.2593 C   0  0  0  0  0  0  0  0  0  0  0  0
   18.1868  -10.2595  -16.3272 O   0  0  0  0  0  0  0  0  0  0  0  0
   23.5259  -10.6303  -13.7132 C   0  0  0  0  0  0  0  0  0  0  0  0
   22.3944   -9.5922  -13.9090 C   0  0  0  0  0  0  0  0  0  0  0  0
   21.7592   -9.8849  -15.2046 C   0  0  2  0  0  0  0  0  0  0  0  0
   22.7562   -9.9248  -16.3542 C   0  0  0  0  0  0  0  0  0  0  0  0
   20.5926   -8.9951  -15.6063 C   0  0  2  0  0  0  0  0  0  0  0  0
   20.2160   -9.4236  -16.9856 N   0  0  0  0  0  0  0  0  0  0  0  0
   20.9481   -7.5697  -15.7531 C   0  0  0  0  0  0  0  0  0  0  0  0
   21.8143   -7.2259  -16.6219 O   0  0  0  0  0  0  0  0  0  0  0  0
   20.3832   -6.5176  -14.9888 N   0  0  0  0  0  0  0  0  0  0  0  0
   19.3362   -6.6836  -13.9937 C   0  0  0  0  0  0  0  0  0  0  0  0
   18.5119   -5.4082  -14.1835 C   0  0  0  0  0  0  0  0  0  0  0  0
   19.5950   -4.3872  -14.3387 C   0  0  0  0  0  0  0  0  0  0  0  0
   20.7016   -5.0994  -15.0484 C   0  0  1  0  0  0  0  0  0  0  0  0
   22.0126   -4.8610  -14.3974 C   0  0  0  0  0  0  0  0  0  0  0  0
   22.5357   -5.6969  -13.6228 O   0  0  0  0  0  0  0  0  0  0  0  0
   22.6775   -3.6764  -14.6554 O   0  0  0  0  0  0  0  0  0  0  0  0
  2  1  1  6
  2  3  1  0
  4  6  1  0
  4  2  1  0
  4  5  1  1
  6  7  2  0
  9  8  1  0
 10  9  1  0
 10 12  1  0
 10 11  1  6
 12 14  1  0
 13  6  1  0
 12 13  1  6
 14 16  1  0
 14 15  2  0
 16 17  1  0
 18 17  1  0
 19 18  1  0
 20 16  1  0
 20 19  1  0
 20 21  1  1
 22 21  2  0
 23 21  1  0
M  END
$$$$
