VIP.pdb
     RDKit          3D

 23 23  0  0  1  0  0  0  0  0999 V2000
   19.2443  -15.6455  -16.5289 C   0  0  0  0  0  0  0  0  0  0  0  0
   20.3486  -16.5297  -17.0505 C   0  0  2  0  0  0  0  0  0  0  0  0
   19.7238  -17.7324  -17.6897 C   0  0  0  0  0  0  0  0  0  0  0  0
   21.3152  -16.8976  -15.9568 C   0  0  2  0  0  0  0  0  0  0  0  0
   20.6941  -17.7000  -14.9502 N   0  0  0  0  0  0  0  0  0  0  0  0
   21.9900  -15.7083  -15.3752 C   0  0  0  0  0  0  0  0  0  0  0  0
   21.5680  -15.2153  -14.3002 O   0  0  0  0  0  0  0  0  0  0  0  0
   26.9046  -15.9796  -16.0633 C   0  0  0  0  0  0  0  0  0  0  0  0
   25.9413  -15.3332  -15.0383 C   0  0  0  0  0  0  0  0  0  0  0  0
   25.2992  -14.1911  -15.7098 C   0  0  2  0  0  0  0  0  0  0  0  0
   26.0526  -12.8850  -15.5012 C   0  0  0  0  0  0  0  0  0  0  0  0
   23.8290  -13.9572  -15.3967 C   0  0  2  0  0  0  0  0  0  0  0  0
   23.1004  -15.1115  -16.0004 N   0  0  0  0  0  0  0  0  0  0  0  0
   23.2538  -12.7740  -16.0669 C   0  0  0  0  0  0  0  0  0  0  0  0
   23.0668  -12.7963  -17.3269 O   0  0  0  0  0  0  0  0  0  0  0  0
   22.8739  -11.5800  -15.4034 N   0  0  0  0  0  0  0  0  0  0  0  0
   23.0662  -11.3204  -13.9858 C   0  0  0  0  0  0  0  0  0  0  0  0
   21.8075  -10.5237  -13.6348 C   0  0  0  0  0  0  0  0  0  0  0  0
   21.7069   -9.6112  -14.8166 C   0  0  0  0  0  0  0  0  0  0  0  0
   22.2168  -10.4128  -15.9711 C   0  0  1  0  0  0  0  0  0  0  0  0
   23.1915   -9.6449  -16.7831 C   0  0  0  0  0  0  0  0  0  0  0  0
   24.4220   -9.8846  -16.7529 O   0  0  0  0  0  0  0  0  0  0  0  0
   22.7244   -8.6316  -17.5998 O   0  0  0  0  0  0  0  0  0  0  0  0
  2  1  1  1
  2  3  1  0
  4  6  1  0
  4  2  1  0
  4  5  1  1
  6  7  2  0
  9  8  1  0
 10  9  1  0
 10 12  1  0
 10 11  1  1
 12 14  1  0
 13  6  1  0
 12 13  1  6
 14 16  1  0
 14 15  2  0
 16 17  1  0
 18 17  1  0
 19 18  1  0
 20 16  1  0
 20 19  1  0
 20 21  1  1
 22 21  2  0
 23 21  1  0
M  END
$$$$
