VIP.pdb
     RDKit          3D

 23 23  0  0  1  0  0  0  0  0999 V2000
   28.0244  -18.0530  -14.8205 C   0  0  0  0  0  0  0  0  0  0  0  0
   27.5797  -19.3817  -15.3773 C   0  0  2  0  0  0  0  0  0  0  0  0
   28.2078  -19.5587  -16.7263 C   0  0  0  0  0  0  0  0  0  0  0  0
   26.0783  -19.4777  -15.4259 C   0  0  2  0  0  0  0  0  0  0  0  0
   25.5218  -18.5774  -16.3864 N   0  0  0  0  0  0  0  0  0  0  0  0
   25.4575  -19.3079  -14.0867 C   0  0  0  0  0  0  0  0  0  0  0  0
   25.0804  -18.1696  -13.7139 O   0  0  0  0  0  0  0  0  0  0  0  0
   21.6213  -19.3330  -12.5388 C   0  0  0  0  0  0  0  0  0  0  0  0
   22.3181  -20.5874  -13.1197 C   0  0  0  0  0  0  0  0  0  0  0  0
   23.2611  -21.0700  -12.0971 C   0  0  2  0  0  0  0  0  0  0  0  0
   22.6105  -21.2483  -10.7326 C   0  0  0  0  0  0  0  0  0  0  0  0
   24.5422  -20.2687  -11.9215 C   0  0  2  0  0  0  0  0  0  0  0  0
   25.2774  -20.3970  -13.2140 N   0  0  0  0  0  0  0  0  0  0  0  0
   25.4689  -20.8311  -10.9190 C   0  0  0  0  0  0  0  0  0  0  0  0
   25.9476  -21.9988  -11.0934 O   0  0  0  0  0  0  0  0  0  0  0  0
   25.8891  -20.1562   -9.7451 N   0  0  0  0  0  0  0  0  0  0  0  0
   25.5197  -18.7949   -9.3925 C   0  0  0  0  0  0  0  0  0  0  0  0
   26.7999  -18.2791   -8.7312 C   0  0  0  0  0  0  0  0  0  0  0  0
   27.1884  -19.4603   -7.8985 C   0  0  0  0  0  0  0  0  0  0  0  0
   26.7627  -20.6530   -8.6933 C   0  0  1  0  0  0  0  0  0  0  0  0
   26.0229  -21.6312   -7.8595 C   0  0  0  0  0  0  0  0  0  0  0  0
   26.5950  -22.3476   -7.0040 O   0  0  0  0  0  0  0  0  0  0  0  0
   24.6568  -21.7548   -8.0340 O   0  0  0  0  0  0  0  0  0  0  0  0
  2  1  1  6
  2  3  1  0
  4  6  1  0
  4  2  1  0
  4  5  1  6
  6  7  2  0
  9  8  1  0
 10  9  1  0
 10 12  1  0
 10 11  1  1
 12 14  1  0
 13  6  1  0
 12 13  1  6
 14 16  1  0
 14 15  2  0
 16 17  1  0
 18 17  1  0
 19 18  1  0
 20 16  1  0
 20 19  1  0
 20 21  1  1
 22 21  2  0
 23 21  1  0
M  END
$$$$
