VIP.pdb
     RDKit          3D

 23 23  0  0  1  0  0  0  0  0999 V2000
   21.1558  -20.5915  -15.6318 C   0  0  0  0  0  0  0  0  0  0  0  0
   21.1749  -21.6517  -14.5600 C   0  0  2  0  0  0  0  0  0  0  0  0
   19.8799  -22.4032  -14.6206 C   0  0  0  0  0  0  0  0  0  0  0  0
   21.4272  -21.0509  -13.2030 C   0  0  2  0  0  0  0  0  0  0  0  0
   20.3515  -20.2046  -12.7913 N   0  0  0  0  0  0  0  0  0  0  0  0
   22.7370  -20.3532  -13.1285 C   0  0  0  0  0  0  0  0  0  0  0  0
   22.7754  -19.0982  -13.1167 O   0  0  0  0  0  0  0  0  0  0  0  0
   25.7642  -21.2249   -9.1780 C   0  0  0  0  0  0  0  0  0  0  0  0
   25.2038  -20.3887  -10.3540 C   0  0  0  0  0  0  0  0  0  0  0  0
   25.8289  -20.9011  -11.5846 C   0  0  2  0  0  0  0  0  0  0  0  0
   27.3399  -20.7175  -11.5988 C   0  0  0  0  0  0  0  0  0  0  0  0
   25.2660  -20.3833  -12.8996 C   0  0  2  0  0  0  0  0  0  0  0  0
   23.9494  -21.0653  -13.0700 N   0  0  0  0  0  0  0  0  0  0  0  0
   26.0429  -20.7915  -14.0869 C   0  0  0  0  0  0  0  0  0  0  0  0
   25.9811  -21.9978  -14.4922 O   0  0  0  0  0  0  0  0  0  0  0  0
   26.8726  -19.9242  -14.8416 N   0  0  0  0  0  0  0  0  0  0  0  0
   27.3286  -18.6168  -14.3979 C   0  0  0  0  0  0  0  0  0  0  0  0
   27.3081  -17.8139  -15.7006 C   0  0  0  0  0  0  0  0  0  0  0  0
   27.8885  -18.8065  -16.6584 C   0  0  0  0  0  0  0  0  0  0  0  0
   27.4075  -20.1379  -16.1774 C   0  0  1  0  0  0  0  0  0  0  0  0
   28.5095  -21.1283  -16.1143 C   0  0  0  0  0  0  0  0  0  0  0  0
   29.0122  -21.5000  -15.0273 O   0  0  0  0  0  0  0  0  0  0  0  0
   28.9964  -21.6575  -17.2953 O   0  0  0  0  0  0  0  0  0  0  0  0
  2  1  1  6
  2  3  1  0
  4  6  1  0
  4  2  1  0
  4  5  1  6
  6  7  2  0
  9  8  1  0
 10  9  1  0
 10 12  1  0
 10 11  1  1
 12 14  1  0
 13  6  1  0
 12 13  1  6
 14 16  1  0
 14 15  2  0
 16 17  1  0
 18 17  1  0
 19 18  1  0
 20 16  1  0
 20 19  1  0
 20 21  1  1
 22 21  2  0
 23 21  1  0
M  END
$$$$
