VIP.pdb
     RDKit          3D

 23 23  0  0  1  0  0  0  0  0999 V2000
   29.3380  -21.4584  -14.1577 C   0  0  0  0  0  0  0  0  0  0  0  0
   28.8412  -20.6359  -12.9958 C   0  0  2  0  0  0  0  0  0  0  0  0
   29.6313  -21.0158  -11.7805 C   0  0  0  0  0  0  0  0  0  0  0  0
   27.3597  -20.8130  -12.7961 C   0  0  2  0  0  0  0  0  0  0  0  0
   26.6178  -20.3925  -13.9431 N   0  0  0  0  0  0  0  0  0  0  0  0
   26.8744  -20.1567  -11.5545 C   0  0  0  0  0  0  0  0  0  0  0  0
   26.7238  -18.9104  -11.5258 O   0  0  0  0  0  0  0  0  0  0  0  0
   22.2392  -20.8073   -9.9506 C   0  0  0  0  0  0  0  0  0  0  0  0
   23.6530  -20.2364  -10.2181 C   0  0  0  0  0  0  0  0  0  0  0  0
   24.5307  -20.7377   -9.1476 C   0  0  2  0  0  0  0  0  0  0  0  0
   23.9706  -20.4785   -7.7561 C   0  0  0  0  0  0  0  0  0  0  0  0
   25.9784  -20.2714   -9.1812 C   0  0  2  0  0  0  0  0  0  0  0  0
   26.5750  -20.8987  -10.3970 N   0  0  0  0  0  0  0  0  0  0  0  0
   26.8000  -20.7848   -8.0671 C   0  0  0  0  0  0  0  0  0  0  0  0
   26.9735  -22.0409   -7.9431 O   0  0  0  0  0  0  0  0  0  0  0  0
   27.4378  -19.9708   -7.0972 N   0  0  0  0  0  0  0  0  0  0  0  0
   27.3948  -18.5177   -7.0746 C   0  0  0  0  0  0  0  0  0  0  0  0
   28.7997  -18.1656   -6.5800 C   0  0  0  0  0  0  0  0  0  0  0  0
   28.9846  -19.1802   -5.4957 C   0  0  0  0  0  0  0  0  0  0  0  0
   28.2575  -20.3963   -5.9732 C   0  0  1  0  0  0  0  0  0  0  0  0
   27.3869  -20.9645   -4.9158 C   0  0  0  0  0  0  0  0  0  0  0  0
   26.1362  -20.8930   -4.9701 O   0  0  0  0  0  0  0  0  0  0  0  0
   27.9774  -21.5935   -3.8352 O   0  0  0  0  0  0  0  0  0  0  0  0
  2  1  1  6
  2  3  1  0
  4  6  1  0
  4  2  1  0
  4  5  1  6
  6  7  2  0
  9  8  1  0
 10  9  1  0
 10 12  1  0
 10 11  1  1
 12 14  1  0
 13  6  1  0
 12 13  1  6
 14 16  1  0
 14 15  2  0
 16 17  1  0
 18 17  1  0
 19 18  1  0
 20 16  1  0
 20 19  1  0
 20 21  1  1
 22 21  2  0
 23 21  1  0
M  END
$$$$
