VIP.pdb
     RDKit          3D

 23 23  0  0  1  0  0  0  0  0999 V2000
   23.5218  -21.3221  -12.2033 C   0  0  0  0  0  0  0  0  0  0  0  0
   24.3877  -20.0883  -12.1711 C   0  0  2  0  0  0  0  0  0  0  0  0
   24.3844  -19.4772  -13.5394 C   0  0  0  0  0  0  0  0  0  0  0  0
   25.7771  -20.4096  -11.6891 C   0  0  2  0  0  0  0  0  0  0  0  0
   26.4787  -21.2418  -12.6154 N   0  0  0  0  0  0  0  0  0  0  0  0
   25.7811  -20.9844  -10.3189 C   0  0  0  0  0  0  0  0  0  0  0  0
   25.8641  -22.2278  -10.1644 O   0  0  0  0  0  0  0  0  0  0  0  0
   28.5129  -18.5557   -6.3726 C   0  0  0  0  0  0  0  0  0  0  0  0
   27.9252  -19.6791   -7.2608 C   0  0  0  0  0  0  0  0  0  0  0  0
   26.4900  -19.7725   -6.9457 C   0  0  2  0  0  0  0  0  0  0  0  0
   26.2275  -20.0786   -5.4779 C   0  0  0  0  0  0  0  0  0  0  0  0
   25.6686  -20.7310   -7.7946 C   0  0  2  0  0  0  0  0  0  0  0  0
   25.6938  -20.1675   -9.1764 N   0  0  0  0  0  0  0  0  0  0  0  0
   24.2351  -20.7662   -7.4427 C   0  0  0  0  0  0  0  0  0  0  0  0
   23.5020  -19.7560   -7.6980 O   0  0  0  0  0  0  0  0  0  0  0  0
   23.5843  -21.8676   -6.8316 N   0  0  0  0  0  0  0  0  0  0  0  0
   24.2352  -23.1118   -6.4542 C   0  0  0  0  0  0  0  0  0  0  0  0
   23.1462  -24.1443   -6.7545 C   0  0  0  0  0  0  0  0  0  0  0  0
   21.9342  -23.4454   -6.2233 C   0  0  0  0  0  0  0  0  0  0  0  0
   22.1774  -21.9934   -6.4838 C   0  0  1  0  0  0  0  0  0  0  0  0
   21.8899  -21.1664   -5.2869 C   0  0  0  0  0  0  0  0  0  0  0  0
   22.7998  -20.7252   -4.5454 O   0  0  0  0  0  0  0  0  0  0  0  0
   20.5734  -20.8741   -4.9812 O   0  0  0  0  0  0  0  0  0  0  0  0
  2  1  1  6
  2  3  1  0
  4  6  1  0
  4  2  1  0
  4  5  1  6
  6  7  2  0
  9  8  1  0
 10  9  1  0
 10 12  1  0
 10 11  1  1
 12 14  1  0
 13  6  1  0
 12 13  1  6
 14 16  1  0
 14 15  2  0
 16 17  1  0
 18 17  1  0
 19 18  1  0
 20 16  1  0
 20 19  1  0
 20 21  1  1
 22 21  2  0
 23 21  1  0
M  END
$$$$
