YHP.pdb
     RDKit          3D

 30 32  0  0  1  0  0  0  0  0999 V2000
   29.8384  -27.1818  -16.5999 O   0  0  0  0  0  0  0  0  0  0  0  0
   29.2096  -25.9927  -16.3004 C   0  0  0  0  0  0  0  0  0  0  0  0
   27.8747  -25.9276  -15.9406 C   0  0  0  0  0  0  0  0  0  0  0  0
   27.2558  -24.7377  -15.6437 C   0  0  0  0  0  0  0  0  0  0  0  0
   27.9982  -23.5796  -15.7101 C   0  0  0  0  0  0  0  0  0  0  0  0
   27.4036  -22.2552  -15.4108 C   0  0  0  0  0  0  0  0  0  0  0  0
   26.4768  -21.8554  -16.5009 C   0  0  2  0  0  0  0  0  0  0  0  0
   27.2126  -21.2428  -17.6200 N   0  0  0  0  0  0  0  0  0  0  0  0
   25.4228  -20.9016  -16.0813 C   0  0  0  0  0  0  0  0  0  0  0  0
   25.6263  -19.6856  -15.8319 O   0  0  0  0  0  0  0  0  0  0  0  0
   29.3204  -23.6467  -16.0667 C   0  0  0  0  0  0  0  0  0  0  0  0
   29.9432  -24.8323  -16.3641 C   0  0  0  0  0  0  0  0  0  0  0  0
   24.0559  -21.3199  -15.9276 N   0  0  0  0  0  0  0  0  0  0  0  0
   23.0183  -20.3788  -15.4825 C   0  0  1  0  0  0  0  0  0  0  0  0
   22.2092  -19.9162  -16.6758 C   0  0  0  0  0  0  0  0  0  0  0  0
   22.9758  -18.9870  -17.5358 C   0  0  0  0  0  0  0  0  0  0  0  0
   23.4595  -19.1920  -18.8102 C   0  0  0  0  0  0  0  0  0  0  0  0
   24.1091  -18.0709  -19.2300 N   0  0  0  0  0  0  0  0  0  0  0  0
   24.0320  -17.1790  -18.2318 C   0  0  0  0  0  0  0  0  0  0  0  0
   23.3408  -17.7414  -17.2017 N   0  0  0  0  0  0  0  0  0  0  0  0
   22.0999  -21.1003  -14.5719 C   0  0  0  0  0  0  0  0  0  0  0  0
   21.7558  -22.2901  -14.9084 O   0  0  0  0  0  0  0  0  0  0  0  0
   21.5860  -20.5749  -13.3749 N   0  0  0  0  0  0  0  0  0  0  0  0
   21.9774  -19.3306  -12.7466 C   0  0  0  0  0  0  0  0  0  0  0  0
   21.7978  -19.6914  -11.2592 C   0  0  0  0  0  0  0  0  0  0  0  0
   20.4569  -20.3965  -11.3057 C   0  0  0  0  0  0  0  0  0  0  0  0
   20.5725  -21.2200  -12.5650 C   0  0  1  0  0  0  0  0  0  0  0  0
   19.3004  -21.3864  -13.2746 C   0  0  0  0  0  0  0  0  0  0  0  0
   18.4057  -22.1248  -12.8323 O   0  0  0  0  0  0  0  0  0  0  0  0
   19.0800  -20.7119  -14.4631 O   0  0  0  0  0  0  0  0  0  0  0  0
  2  1  1  0
  3  2  2  0
  4  3  1  0
  5  4  2  0
  5 11  1  0
  6  5  1  0
  7  6  1  0
  7  8  1  6
  9  7  1  0
  9 10  2  0
 11 12  2  0
 12  2  1  0
 13  9  1  0
 14 15  1  6
 14 13  1  0
 16 15  1  0
 16 17  2  0
 16 20  1  0
 17 18  1  0
 18 19  1  0
 20 19  2  0
 21 14  1  0
 22 21  2  0
 23 27  1  0
 23 21  1  0
 24 23  1  0
 25 24  1  0
 25 26  1  0
 26 27  1  0
 27 28  1  6
 28 29  2  0
 28 30  1  0
M  END
$$$$
