YHP.pdb
     RDKit          3D

 30 32  0  0  1  0  0  0  0  0999 V2000
   18.0771  -15.9396  -16.3229 O   0  0  0  0  0  0  0  0  0  0  0  0
   18.9878  -16.7376  -15.6648 C   0  0  0  0  0  0  0  0  0  0  0  0
   20.3545  -16.5417  -15.7618 C   0  0  0  0  0  0  0  0  0  0  0  0
   21.2553  -17.3421  -15.1023 C   0  0  0  0  0  0  0  0  0  0  0  0
   20.7703  -18.3689  -14.3229 C   0  0  0  0  0  0  0  0  0  0  0  0
   21.6761  -19.2805  -13.5842 C   0  0  0  0  0  0  0  0  0  0  0  0
   22.5082  -20.0557  -14.5401 C   0  0  2  0  0  0  0  0  0  0  0  0
   21.7009  -21.0698  -15.2394 N   0  0  0  0  0  0  0  0  0  0  0  0
   23.6595  -20.7504  -13.9167 C   0  0  0  0  0  0  0  0  0  0  0  0
   23.5826  -21.8568  -13.3231 O   0  0  0  0  0  0  0  0  0  0  0  0
   19.4160  -18.5608  -14.2284 C   0  0  0  0  0  0  0  0  0  0  0  0
   18.5122  -17.7644  -14.8849 C   0  0  0  0  0  0  0  0  0  0  0  0
   24.9809  -20.1849  -13.9522 N   0  0  0  0  0  0  0  0  0  0  0  0
   26.0734  -20.7545  -13.1509 C   0  0  1  0  0  0  0  0  0  0  0  0
   27.4036  -20.2957  -13.7102 C   0  0  0  0  0  0  0  0  0  0  0  0
   28.5426  -20.8084  -12.9161 C   0  0  0  0  0  0  0  0  0  0  0  0
   29.4268  -20.1072  -12.1246 C   0  0  0  0  0  0  0  0  0  0  0  0
   30.3221  -20.9738  -11.5745 N   0  0  0  0  0  0  0  0  0  0  0  0
   30.0012  -22.1984  -12.0165 C   0  0  0  0  0  0  0  0  0  0  0  0
   28.9165  -22.0928  -12.8335 N   0  0  0  0  0  0  0  0  0  0  0  0
   25.9608  -20.2241  -11.7728 C   0  0  0  0  0  0  0  0  0  0  0  0
   25.8369  -18.9534  -11.6421 O   0  0  0  0  0  0  0  0  0  0  0  0
   25.9791  -21.0116  -10.6098 N   0  0  0  0  0  0  0  0  0  0  0  0
   26.1326  -22.4501  -10.5504 C   0  0  0  0  0  0  0  0  0  0  0  0
   25.2758  -22.7791   -9.3125 C   0  0  0  0  0  0  0  0  0  0  0  0
   25.7391  -21.6952   -8.3597 C   0  0  0  0  0  0  0  0  0  0  0  0
   25.8318  -20.4918   -9.2654 C   0  0  1  0  0  0  0  0  0  0  0  0
   26.9036  -19.5621   -8.8961 C   0  0  0  0  0  0  0  0  0  0  0  0
   28.0037  -19.5832   -9.4714 O   0  0  0  0  0  0  0  0  0  0  0  0
   26.6975  -18.6373   -7.8872 O   0  0  0  0  0  0  0  0  0  0  0  0
  2  1  1  0
  3  2  2  0
  4  3  1  0
  5  4  2  0
  5 11  1  0
  6  5  1  0
  7  6  1  0
  7  8  1  1
  9  7  1  0
  9 10  2  0
 11 12  2  0
 12  2  1  0
 13  9  1  0
 14 15  1  6
 14 13  1  0
 16 15  1  0
 16 17  2  0
 16 20  1  0
 17 18  1  0
 18 19  1  0
 20 19  2  0
 21 14  1  0
 22 21  2  0
 23 27  1  0
 23 21  1  0
 24 23  1  0
 25 24  1  0
 25 26  1  0
 26 27  1  0
 27 28  1  1
 28 29  2  0
 28 30  1  0
M  END
$$$$
