YHP.pdb
     RDKit          3D

 30 32  0  0  1  0  0  0  0  0999 V2000
   15.5609  -21.6900  -15.5212 O   0  0  0  0  0  0  0  0  0  0  0  0
   16.9027  -21.9506  -15.3456 C   0  0  0  0  0  0  0  0  0  0  0  0
   17.7199  -21.1494  -14.5673 C   0  0  0  0  0  0  0  0  0  0  0  0
   19.0567  -21.4167  -14.3977 C   0  0  0  0  0  0  0  0  0  0  0  0
   19.5885  -22.5200  -15.0276 C   0  0  0  0  0  0  0  0  0  0  0  0
   21.0223  -22.8737  -14.9000 C   0  0  0  0  0  0  0  0  0  0  0  0
   21.8145  -22.1703  -15.9415 C   0  0  2  0  0  0  0  0  0  0  0  0
   21.6972  -22.8510  -17.2422 N   0  0  0  0  0  0  0  0  0  0  0  0
   23.2579  -22.0497  -15.6268 C   0  0  0  0  0  0  0  0  0  0  0  0
   24.1840  -22.3822  -16.4104 O   0  0  0  0  0  0  0  0  0  0  0  0
   18.7768  -23.3122  -15.7979 C   0  0  0  0  0  0  0  0  0  0  0  0
   17.4413  -23.0498  -15.9705 C   0  0  0  0  0  0  0  0  0  0  0  0
   23.7055  -21.5276  -14.3642 N   0  0  0  0  0  0  0  0  0  0  0  0
   25.0541  -20.9641  -14.2096 C   0  0  1  0  0  0  0  0  0  0  0  0
   25.2213  -19.7869  -15.1472 C   0  0  0  0  0  0  0  0  0  0  0  0
   26.5609  -19.1696  -15.0246 C   0  0  0  0  0  0  0  0  0  0  0  0
   27.5790  -19.4853  -14.1506 C   0  0  0  0  0  0  0  0  0  0  0  0
   28.6410  -18.6647  -14.3827 N   0  0  0  0  0  0  0  0  0  0  0  0
   28.2907  -17.8486  -15.3873 C   0  0  0  0  0  0  0  0  0  0  0  0
   27.0227  -18.1598  -15.7751 N   0  0  0  0  0  0  0  0  0  0  0  0
   25.1865  -20.4555  -12.8250 C   0  0  0  0  0  0  0  0  0  0  0  0
   24.3141  -19.6017  -12.4283 O   0  0  0  0  0  0  0  0  0  0  0  0
   26.1929  -20.8423  -11.9247 N   0  0  0  0  0  0  0  0  0  0  0  0
   27.4629  -21.4477  -12.2665 C   0  0  0  0  0  0  0  0  0  0  0  0
   27.6898  -22.3508  -11.0386 C   0  0  0  0  0  0  0  0  0  0  0  0
   27.3182  -21.3965   -9.9212 C   0  0  0  0  0  0  0  0  0  0  0  0
   26.1038  -20.7010  -10.4855 C   0  0  1  0  0  0  0  0  0  0  0  0
   25.9784  -19.3038  -10.0594 C   0  0  0  0  0  0  0  0  0  0  0  0
   26.4158  -18.3741  -10.7565 O   0  0  0  0  0  0  0  0  0  0  0  0
   25.3618  -19.0018   -8.8576 O   0  0  0  0  0  0  0  0  0  0  0  0
  2  1  1  0
  3  2  2  0
  4  3  1  0
  5  4  2  0
  5 11  1  0
  6  5  1  0
  7  6  1  0
  7  8  1  6
  9  7  1  0
  9 10  2  0
 11 12  2  0
 12  2  1  0
 13  9  1  0
 14 15  1  6
 14 13  1  0
 16 15  1  0
 16 17  2  0
 16 20  1  0
 17 18  1  0
 18 19  1  0
 20 19  2  0
 21 14  1  0
 22 21  2  0
 23 27  1  0
 23 21  1  0
 24 23  1  0
 25 24  1  0
 25 26  1  0
 26 27  1  0
 27 28  1  6
 28 29  2  0
 28 30  1  0
M  END
$$$$
