YHP.pdb
     RDKit          3D

 30 32  0  0  1  0  0  0  0  0999 V2000
   17.3125    0.7915  -15.4017 O   0  0  0  0  0  0  0  0  0  0  0  0
   17.6150   -0.5073  -15.0545 C   0  0  0  0  0  0  0  0  0  0  0  0
   18.6810   -1.1956  -15.6072 C   0  0  0  0  0  0  0  0  0  0  0  0
   18.9753   -2.4904  -15.2552 C   0  0  0  0  0  0  0  0  0  0  0  0
   18.1765   -3.1124  -14.3216 C   0  0  0  0  0  0  0  0  0  0  0  0
   18.4234   -4.5096  -13.8925 C   0  0  0  0  0  0  0  0  0  0  0  0
   17.5884   -5.4426  -14.6921 C   0  0  2  0  0  0  0  0  0  0  0  0
   16.1712   -5.3468  -14.3029 N   0  0  0  0  0  0  0  0  0  0  0  0
   17.9898   -6.8648  -14.5783 C   0  0  0  0  0  0  0  0  0  0  0  0
   17.4431   -7.6958  -13.8083 O   0  0  0  0  0  0  0  0  0  0  0  0
   17.1211   -2.4285  -13.7754 C   0  0  0  0  0  0  0  0  0  0  0  0
   16.8229   -1.1354  -14.1233 C   0  0  0  0  0  0  0  0  0  0  0  0
   19.0652   -7.4022  -15.3669 N   0  0  0  0  0  0  0  0  0  0  0  0
   19.4572   -8.8144  -15.2560 C   0  0  1  0  0  0  0  0  0  0  0  0
   18.6328   -9.6454  -16.2164 C   0  0  0  0  0  0  0  0  0  0  0  0
   19.0110  -11.0757  -16.1737 C   0  0  0  0  0  0  0  0  0  0  0  0
   19.7995  -11.7857  -17.0536 C   0  0  0  0  0  0  0  0  0  0  0  0
   19.8880  -13.0787  -16.6349 N   0  0  0  0  0  0  0  0  0  0  0  0
   19.1650  -13.1744  -15.5098 C   0  0  0  0  0  0  0  0  0  0  0  0
   18.6326  -11.9517  -15.2326 N   0  0  0  0  0  0  0  0  0  0  0  0
   20.8755   -8.9338  -15.6650 C   0  0  0  0  0  0  0  0  0  0  0  0
   21.2667   -8.2020  -16.6441 O   0  0  0  0  0  0  0  0  0  0  0  0
   21.8130   -9.7854  -15.0578 N   0  0  0  0  0  0  0  0  0  0  0  0
   21.5562  -10.7087  -13.9724 C   0  0  0  0  0  0  0  0  0  0  0  0
   22.9100  -10.6706  -13.2371 C   0  0  0  0  0  0  0  0  0  0  0  0
   23.8647  -10.7650  -14.4106 C   0  0  0  0  0  0  0  0  0  0  0  0
   23.2120   -9.8608  -15.4271 C   0  0  1  0  0  0  0  0  0  0  0  0
   23.4102  -10.2979  -16.8125 C   0  0  0  0  0  0  0  0  0  0  0  0
   24.2604   -9.7640  -17.5430 O   0  0  0  0  0  0  0  0  0  0  0  0
   22.6401  -11.3258  -17.3284 O   0  0  0  0  0  0  0  0  0  0  0  0
  2  1  1  0
  3  2  2  0
  4  3  1  0
  5  4  2  0
  5 11  1  0
  6  5  1  0
  7  6  1  0
  7  8  1  1
  9  7  1  0
  9 10  2  0
 11 12  2  0
 12  2  1  0
 13  9  1  0
 14 15  1  6
 14 13  1  0
 16 15  1  0
 16 17  2  0
 16 20  1  0
 17 18  1  0
 18 19  1  0
 20 19  2  0
 21 14  1  0
 22 21  2  0
 23 27  1  0
 23 21  1  0
 24 23  1  0
 25 24  1  0
 25 26  1  0
 26 27  1  0
 27 28  1  6
 28 29  2  0
 28 30  1  0
M  END
$$$$
