YHP.pdb
     RDKit          3D

 30 32  0  0  1  0  0  0  0  0999 V2000
   29.8124  -35.8610  -20.2016 O   0  0  0  0  0  0  0  0  0  0  0  0
   29.3745  -35.2271  -19.0590 C   0  0  0  0  0  0  0  0  0  0  0  0
   29.3265  -35.8605  -17.8293 C   0  0  0  0  0  0  0  0  0  0  0  0
   28.8884  -35.2209  -16.6953 C   0  0  0  0  0  0  0  0  0  0  0  0
   28.4867  -33.9076  -16.7985 C   0  0  0  0  0  0  0  0  0  0  0  0
   27.9955  -33.1489  -15.6237 C   0  0  0  0  0  0  0  0  0  0  0  0
   26.5197  -33.2795  -15.5143 C   0  0  2  0  0  0  0  0  0  0  0  0
   25.8455  -32.5855  -16.6246 N   0  0  0  0  0  0  0  0  0  0  0  0
   25.9567  -32.7533  -14.2483 C   0  0  0  0  0  0  0  0  0  0  0  0
   25.3538  -31.6541  -14.1439 O   0  0  0  0  0  0  0  0  0  0  0  0
   28.5353  -33.2823  -18.0178 C   0  0  0  0  0  0  0  0  0  0  0  0
   28.9719  -33.9164  -19.1532 C   0  0  0  0  0  0  0  0  0  0  0  0
   26.0676  -33.4902  -13.0187 N   0  0  0  0  0  0  0  0  0  0  0  0
   25.3527  -33.0614  -11.8082 C   0  0  1  0  0  0  0  0  0  0  0  0
   23.8610  -33.0831  -12.0671 C   0  0  0  0  0  0  0  0  0  0  0  0
   23.0866  -32.6981  -10.8659 C   0  0  0  0  0  0  0  0  0  0  0  0
   23.3808  -31.7378   -9.9217 C   0  0  0  0  0  0  0  0  0  0  0  0
   22.3946  -31.7142   -8.9825 N   0  0  0  0  0  0  0  0  0  0  0  0
   21.4979  -32.6465   -9.3355 C   0  0  0  0  0  0  0  0  0  0  0  0
   21.9236  -33.2433  -10.4834 N   0  0  0  0  0  0  0  0  0  0  0  0
   25.6345  -34.0407  -10.7337 C   0  0  0  0  0  0  0  0  0  0  0  0
   25.4173  -35.2780  -10.9967 O   0  0  0  0  0  0  0  0  0  0  0  0
   26.1205  -33.7093   -9.4582 N   0  0  0  0  0  0  0  0  0  0  0  0
   26.4088  -32.3771   -8.9697 C   0  0  0  0  0  0  0  0  0  0  0  0
   27.5913  -32.6677   -8.0252 C   0  0  0  0  0  0  0  0  0  0  0  0
   27.0728  -33.8950   -7.3026 C   0  0  0  0  0  0  0  0  0  0  0  0
   26.4242  -34.6739   -8.4206 C   0  0  1  0  0  0  0  0  0  0  0  0
   25.2480  -35.4391   -7.9956 C   0  0  0  0  0  0  0  0  0  0  0  0
   25.3627  -36.5130   -7.3832 O   0  0  0  0  0  0  0  0  0  0  0  0
   23.9782  -34.9653   -8.2768 O   0  0  0  0  0  0  0  0  0  0  0  0
  2  1  1  0
  3  2  2  0
  4  3  1  0
  5  4  2  0
  5 11  1  0
  6  5  1  0
  7  6  1  0
  7  8  1  6
  9  7  1  0
  9 10  2  0
 11 12  2  0
 12  2  1  0
 13  9  1  0
 14 15  1  6
 14 13  1  0
 16 15  1  0
 16 17  2  0
 16 20  1  0
 17 18  1  0
 18 19  1  0
 20 19  2  0
 21 14  1  0
 22 21  2  0
 23 27  1  0
 23 21  1  0
 24 23  1  0
 25 24  1  0
 25 26  1  0
 26 27  1  0
 27 28  1  1
 28 29  2  0
 28 30  1  0
M  END
$$$$
