YHP.pdb
     RDKit          3D

 30 32  0  0  1  0  0  0  0  0999 V2000
   20.6288  -10.3987  -25.8869 O   0  0  0  0  0  0  0  0  0  0  0  0
   20.3479   -9.9472  -24.6155 C   0  0  0  0  0  0  0  0  0  0  0  0
   19.0930  -10.0675  -24.0442 C   0  0  0  0  0  0  0  0  0  0  0  0
   18.8219   -9.6146  -22.7760 C   0  0  0  0  0  0  0  0  0  0  0  0
   19.8397   -9.0237  -22.0606 C   0  0  0  0  0  0  0  0  0  0  0  0
   19.6273   -8.5038  -20.6888 C   0  0  0  0  0  0  0  0  0  0  0  0
   20.2981   -9.3871  -19.7004 C   0  0  2  0  0  0  0  0  0  0  0  0
   19.6896  -10.7283  -19.6939 N   0  0  0  0  0  0  0  0  0  0  0  0
   20.2680   -8.8740  -18.3102 C   0  0  0  0  0  0  0  0  0  0  0  0
   19.2939   -9.0097  -17.5259 O   0  0  0  0  0  0  0  0  0  0  0  0
   21.0819   -8.9057  -22.6287 C   0  0  0  0  0  0  0  0  0  0  0  0
   21.3580   -9.3564  -23.8947 C   0  0  0  0  0  0  0  0  0  0  0  0
   21.3873   -8.1654  -17.7517 N   0  0  0  0  0  0  0  0  0  0  0  0
   21.4092   -7.7736  -16.3353 C   0  0  1  0  0  0  0  0  0  0  0  0
   22.6590   -8.3203  -15.6782 C   0  0  0  0  0  0  0  0  0  0  0  0
   22.6080   -9.7926  -15.5343 C   0  0  0  0  0  0  0  0  0  0  0  0
   21.5620  -10.6493  -15.8021 C   0  0  0  0  0  0  0  0  0  0  0  0
   21.9465  -11.9271  -15.5288 N   0  0  0  0  0  0  0  0  0  0  0  0
   23.2144  -11.8685  -15.0967 C   0  0  0  0  0  0  0  0  0  0  0  0
   23.6133  -10.5662  -15.1017 N   0  0  0  0  0  0  0  0  0  0  0  0
   21.4769   -6.2959  -16.2654 C   0  0  0  0  0  0  0  0  0  0  0  0
   22.1153   -5.6936  -17.2018 O   0  0  0  0  0  0  0  0  0  0  0  0
   20.8935   -5.5165  -15.2530 N   0  0  0  0  0  0  0  0  0  0  0  0
   20.0332   -5.9944  -14.1910 C   0  0  0  0  0  0  0  0  0  0  0  0
   19.1105   -4.7751  -13.9989 C   0  0  0  0  0  0  0  0  0  0  0  0
   20.1286   -3.6524  -14.0168 C   0  0  0  0  0  0  0  0  0  0  0  0
   21.0596   -4.0830  -15.1236 C   0  0  1  0  0  0  0  0  0  0  0  0
   22.4547   -3.6913  -14.9008 C   0  0  0  0  0  0  0  0  0  0  0  0
   22.8234   -2.5128  -15.0300 O   0  0  0  0  0  0  0  0  0  0  0  0
   23.3897   -4.6456  -14.5385 O   0  0  0  0  0  0  0  0  0  0  0  0
  2  1  1  0
  3  2  2  0
  4  3  1  0
  5  4  2  0
  5 11  1  0
  6  5  1  0
  7  6  1  0
  7  8  1  1
  9  7  1  0
  9 10  2  0
 11 12  2  0
 12  2  1  0
 13  9  1  0
 14 15  1  6
 14 13  1  0
 16 15  1  0
 16 17  2  0
 16 20  1  0
 17 18  1  0
 18 19  1  0
 20 19  2  0
 21 14  1  0
 22 21  2  0
 23 27  1  0
 23 21  1  0
 24 23  1  0
 25 24  1  0
 25 26  1  0
 26 27  1  0
 27 28  1  1
 28 29  2  0
 28 30  1  0
M  END
$$$$
