YHP.pdb
     RDKit          3D

 30 32  0  0  1  0  0  0  0  0999 V2000
   29.7789  -19.9608  -18.3723 O   0  0  0  0  0  0  0  0  0  0  0  0
   29.2548  -19.6408  -17.1385 C   0  0  0  0  0  0  0  0  0  0  0  0
   28.3784  -18.5856  -16.9541 C   0  0  0  0  0  0  0  0  0  0  0  0
   27.8607  -18.2737  -15.7205 C   0  0  0  0  0  0  0  0  0  0  0  0
   28.2337  -19.0430  -14.6408 C   0  0  0  0  0  0  0  0  0  0  0  0
   27.7246  -18.7684  -13.2760 C   0  0  0  0  0  0  0  0  0  0  0  0
   26.8434  -19.8777  -12.8288 C   0  0  2  0  0  0  0  0  0  0  0  0
   25.6960  -20.0385  -13.7380 N   0  0  0  0  0  0  0  0  0  0  0  0
   26.3087  -19.7116  -11.4565 C   0  0  0  0  0  0  0  0  0  0  0  0
   25.4820  -18.8249  -11.1208 O   0  0  0  0  0  0  0  0  0  0  0  0
   29.1020  -20.0878  -14.8261 C   0  0  0  0  0  0  0  0  0  0  0  0
   29.6217  -20.4036  -16.0558 C   0  0  0  0  0  0  0  0  0  0  0  0
   26.7145  -20.5823  -10.3868 N   0  0  0  0  0  0  0  0  0  0  0  0
   26.1706  -20.4250   -9.0305 C   0  0  1  0  0  0  0  0  0  0  0  0
   25.1296  -21.4946   -8.7755 C   0  0  0  0  0  0  0  0  0  0  0  0
   23.8583  -21.2057   -9.4762 C   0  0  0  0  0  0  0  0  0  0  0  0
   22.8078  -20.4136   -9.0648 C   0  0  0  0  0  0  0  0  0  0  0  0
   21.8354  -20.4261  -10.0184 N   0  0  0  0  0  0  0  0  0  0  0  0
   22.2727  -21.2147  -11.0107 C   0  0  0  0  0  0  0  0  0  0  0  0
   23.5055  -21.6874  -10.6760 N   0  0  0  0  0  0  0  0  0  0  0  0
   27.2726  -20.6338   -8.0635 C   0  0  0  0  0  0  0  0  0  0  0  0
   28.0290  -21.6541   -8.2482 O   0  0  0  0  0  0  0  0  0  0  0  0
   27.5439  -19.7968   -6.9686 N   0  0  0  0  0  0  0  0  0  0  0  0
   26.9145  -18.5240   -6.6854 C   0  0  0  0  0  0  0  0  0  0  0  0
   28.0786  -17.7722   -6.0113 C   0  0  0  0  0  0  0  0  0  0  0  0
   28.5986  -18.8473   -5.0781 C   0  0  0  0  0  0  0  0  0  0  0  0
   28.5249  -20.0828   -5.9414 C   0  0  1  0  0  0  0  0  0  0  0  0
   28.2204  -21.3046   -5.1906 C   0  0  0  0  0  0  0  0  0  0  0  0
   27.1558  -21.9200   -5.3624 O   0  0  0  0  0  0  0  0  0  0  0  0
   29.1300  -21.7924   -4.2683 O   0  0  0  0  0  0  0  0  0  0  0  0
  2  1  1  0
  3  2  2  0
  4  3  1  0
  5  4  2  0
  5 11  1  0
  6  5  1  0
  7  6  1  0
  7  8  1  6
  9  7  1  0
  9 10  2  0
 11 12  2  0
 12  2  1  0
 13  9  1  0
 14 15  1  1
 14 13  1  0
 16 15  1  0
 16 17  2  0
 16 20  1  0
 17 18  1  0
 18 19  1  0
 20 19  2  0
 21 14  1  0
 22 21  2  0
 23 27  1  0
 23 21  1  0
 24 23  1  0
 25 24  1  0
 25 26  1  0
 26 27  1  0
 27 28  1  1
 28 29  2  0
 28 30  1  0
M  END
$$$$
