YHP.pdb
     RDKit          3D

 30 32  0  0  1  0  0  0  0  0999 V2000
   28.2731  -20.1206   -5.8192 O   0  0  0  0  0  0  0  0  0  0  0  0
   27.8403  -20.1110   -7.1276 C   0  0  0  0  0  0  0  0  0  0  0  0
   26.5786  -19.6726   -7.4900 C   0  0  0  0  0  0  0  0  0  0  0  0
   26.1554  -19.6664   -8.7969 C   0  0  0  0  0  0  0  0  0  0  0  0
   27.0237  -20.1134   -9.7680 C   0  0  0  0  0  0  0  0  0  0  0  0
   26.6415  -20.1442  -11.1998 C   0  0  0  0  0  0  0  0  0  0  0  0
   25.6185  -21.1964  -11.4309 C   0  0  2  0  0  0  0  0  0  0  0  0
   26.2290  -22.5367  -11.4183 N   0  0  0  0  0  0  0  0  0  0  0  0
   24.8784  -21.0526  -12.7069 C   0  0  0  0  0  0  0  0  0  0  0  0
   25.3275  -21.3997  -13.8295 O   0  0  0  0  0  0  0  0  0  0  0  0
   28.2731  -20.5470   -9.4064 C   0  0  0  0  0  0  0  0  0  0  0  0
   28.7007  -20.5551   -8.1029 C   0  0  0  0  0  0  0  0  0  0  0  0
   23.5564  -20.4884  -12.7436 N   0  0  0  0  0  0  0  0  0  0  0  0
   22.7669  -20.4814  -13.9832 C   0  0  1  0  0  0  0  0  0  0  0  0
   21.3166  -20.7742  -13.6611 C   0  0  0  0  0  0  0  0  0  0  0  0
   21.0895  -22.2128  -13.3970 C   0  0  0  0  0  0  0  0  0  0  0  0
   21.9763  -23.2615  -13.5146 C   0  0  0  0  0  0  0  0  0  0  0  0
   21.3493  -24.4208  -13.1711 N   0  0  0  0  0  0  0  0  0  0  0  0
   20.0892  -24.1002  -12.8438 C   0  0  0  0  0  0  0  0  0  0  0  0
   19.9355  -22.7540  -12.9829 N   0  0  0  0  0  0  0  0  0  0  0  0
   22.8301  -19.1204  -14.5638 C   0  0  0  0  0  0  0  0  0  0  0  0
   22.9289  -18.1377  -13.7442 O   0  0  0  0  0  0  0  0  0  0  0  0
   22.7910  -18.8359  -15.9387 N   0  0  0  0  0  0  0  0  0  0  0  0
   22.7736  -19.8045  -17.0148 C   0  0  0  0  0  0  0  0  0  0  0  0
   23.5514  -19.0386  -18.1026 C   0  0  0  0  0  0  0  0  0  0  0  0
   22.9067  -17.6713  -17.9925 C   0  0  0  0  0  0  0  0  0  0  0  0
   22.7737  -17.5000  -16.4992 C   0  0  1  0  0  0  0  0  0  0  0  0
   21.5894  -16.7330  -16.1009 C   0  0  0  0  0  0  0  0  0  0  0  0
   20.5274  -17.2978  -15.7933 O   0  0  0  0  0  0  0  0  0  0  0  0
   21.6435  -15.3504  -16.0631 O   0  0  0  0  0  0  0  0  0  0  0  0
  2  1  1  0
  3  2  2  0
  4  3  1  0
  5  4  2  0
  5 11  1  0
  6  5  1  0
  7  6  1  0
  7  8  1  6
  9  7  1  0
  9 10  2  0
 11 12  2  0
 12  2  1  0
 13  9  1  0
 14 15  1  1
 14 13  1  0
 16 15  1  0
 16 17  2  0
 16 20  1  0
 17 18  1  0
 18 19  1  0
 20 19  2  0
 21 14  1  0
 22 21  2  0
 23 27  1  0
 23 21  1  0
 24 23  1  0
 25 24  1  0
 25 26  1  0
 26 27  1  0
 27 28  1  6
 28 29  2  0
 28 30  1  0
M  END
$$$$
