YHP.pdb
     RDKit          3D

 30 32  0  0  1  0  0  0  0  0999 V2000
   10.4658  -10.7958  -16.9400 O   0  0  0  0  0  0  0  0  0  0  0  0
   11.6734  -10.4530  -16.3712 C   0  0  0  0  0  0  0  0  0  0  0  0
   12.0547  -10.8916  -15.1151 C   0  0  0  0  0  0  0  0  0  0  0  0
   13.2605  -10.5449  -14.5557 C   0  0  0  0  0  0  0  0  0  0  0  0
   14.1080   -9.7344  -15.2780 C   0  0  0  0  0  0  0  0  0  0  0  0
   15.4237   -9.3103  -14.7430 C   0  0  0  0  0  0  0  0  0  0  0  0
   16.5118  -10.0809  -15.3984 C   0  0  2  0  0  0  0  0  0  0  0  0
   16.4668  -11.4983  -15.0012 N   0  0  0  0  0  0  0  0  0  0  0  0
   17.8740   -9.5757  -15.1050 C   0  0  0  0  0  0  0  0  0  0  0  0
   18.4116   -9.6069  -13.9681 O   0  0  0  0  0  0  0  0  0  0  0  0
   13.7280   -9.3013  -16.5221 C   0  0  0  0  0  0  0  0  0  0  0  0
   12.5251   -9.6447  -17.0853 C   0  0  0  0  0  0  0  0  0  0  0  0
   18.6943   -8.9991  -16.1354 N   0  0  0  0  0  0  0  0  0  0  0  0
   20.0687   -8.5593  -15.8561 C   0  0  1  0  0  0  0  0  0  0  0  0
   20.9692   -8.9502  -17.0089 C   0  0  0  0  0  0  0  0  0  0  0  0
   21.1587  -10.4160  -17.0888 C   0  0  0  0  0  0  0  0  0  0  0  0
   22.1471  -11.1899  -16.5194 C   0  0  0  0  0  0  0  0  0  0  0  0
   21.9412  -12.4954  -16.8486 N   0  0  0  0  0  0  0  0  0  0  0  0
   20.8400  -12.5357  -17.6126 C   0  0  0  0  0  0  0  0  0  0  0  0
   20.3667  -11.2666  -17.7563 N   0  0  0  0  0  0  0  0  0  0  0  0
   20.0718   -7.0811  -15.7673 C   0  0  0  0  0  0  0  0  0  0  0  0
   19.1434   -6.4543  -16.3937 O   0  0  0  0  0  0  0  0  0  0  0  0
   21.0135   -6.3260  -15.0488 N   0  0  0  0  0  0  0  0  0  0  0  0
   22.0928   -6.8487  -14.2374 C   0  0  0  0  0  0  0  0  0  0  0  0
   22.1780   -5.7674  -13.1427 C   0  0  0  0  0  0  0  0  0  0  0  0
   22.0947   -4.5116  -13.9873 C   0  0  0  0  0  0  0  0  0  0  0  0
   21.0392   -4.8782  -15.0015 C   0  0  1  0  0  0  0  0  0  0  0  0
   21.2567   -4.2714  -16.3184 C   0  0  0  0  0  0  0  0  0  0  0  0
   21.8160   -4.8969  -17.2335 O   0  0  0  0  0  0  0  0  0  0  0  0
   20.8345   -2.9753  -16.5590 O   0  0  0  0  0  0  0  0  0  0  0  0
  2  1  1  0
  3  2  2  0
  4  3  1  0
  5  4  2  0
  5 11  1  0
  6  5  1  0
  7  6  1  0
  7  8  1  1
  9  7  1  0
  9 10  2  0
 11 12  2  0
 12  2  1  0
 13  9  1  0
 14 15  1  6
 14 13  1  0
 16 15  1  0
 16 17  2  0
 16 20  1  0
 17 18  1  0
 18 19  1  0
 20 19  2  0
 21 14  1  0
 22 21  2  0
 23 27  1  0
 23 21  1  0
 24 23  1  0
 25 24  1  0
 25 26  1  0
 26 27  1  0
 27 28  1  6
 28 29  2  0
 28 30  1  0
M  END
$$$$
