YHP.pdb
     RDKit          3D

 30 32  0  0  1  0  0  0  0  0999 V2000
   29.1448  -20.4082   -4.8214 O   0  0  0  0  0  0  0  0  0  0  0  0
   28.6988  -20.2234   -6.1122 C   0  0  0  0  0  0  0  0  0  0  0  0
   29.5513  -20.2376   -7.2025 C   0  0  0  0  0  0  0  0  0  0  0  0
   29.0981  -20.0525   -8.4860 C   0  0  0  0  0  0  0  0  0  0  0  0
   27.7503  -19.8469   -8.6808 C   0  0  0  0  0  0  0  0  0  0  0  0
   27.1826  -19.6333  -10.0333 C   0  0  0  0  0  0  0  0  0  0  0  0
   26.9498  -20.9404  -10.6998 C   0  0  2  0  0  0  0  0  0  0  0  0
   28.2207  -21.6474  -10.9318 N   0  0  0  0  0  0  0  0  0  0  0  0
   26.2477  -20.8408  -12.0013 C   0  0  0  0  0  0  0  0  0  0  0  0
   26.8274  -20.7671  -13.1152 O   0  0  0  0  0  0  0  0  0  0  0  0
   26.9078  -19.8334   -7.5991 C   0  0  0  0  0  0  0  0  0  0  0  0
   27.3552  -20.0179   -6.3154 C   0  0  0  0  0  0  0  0  0  0  0  0
   24.8120  -20.8213  -12.0753 N   0  0  0  0  0  0  0  0  0  0  0  0
   24.1163  -20.8896  -13.3682 C   0  0  1  0  0  0  0  0  0  0  0  0
   24.2024  -22.2987  -13.9155 C   0  0  0  0  0  0  0  0  0  0  0  0
   25.4784  -22.5376  -14.6266 C   0  0  0  0  0  0  0  0  0  0  0  0
   26.2816  -23.6576  -14.6037 C   0  0  0  0  0  0  0  0  0  0  0  0
   27.3634  -23.4512  -15.4051 N   0  0  0  0  0  0  0  0  0  0  0  0
   27.2371  -22.2199  -15.9207 C   0  0  0  0  0  0  0  0  0  0  0  0
   26.0873  -21.6671  -15.4437 N   0  0  0  0  0  0  0  0  0  0  0  0
   22.6852  -20.5852  -13.1397 C   0  0  0  0  0  0  0  0  0  0  0  0
   22.1586  -21.0242  -12.0547 O   0  0  0  0  0  0  0  0  0  0  0  0
   21.8732  -19.8537  -14.0221 N   0  0  0  0  0  0  0  0  0  0  0  0
   22.2986  -19.2171  -15.2510 C   0  0  0  0  0  0  0  0  0  0  0  0
   21.3589  -17.9961  -15.2817 C   0  0  0  0  0  0  0  0  0  0  0  0
   20.0430  -18.6507  -14.9114 C   0  0  0  0  0  0  0  0  0  0  0  0
   20.4586  -19.6111  -13.8242 C   0  0  1  0  0  0  0  0  0  0  0  0
   19.6691  -20.8463  -13.8008 C   0  0  0  0  0  0  0  0  0  0  0  0
   20.0584  -21.8729  -14.3806 O   0  0  0  0  0  0  0  0  0  0  0  0
   18.4634  -20.8816  -13.1220 O   0  0  0  0  0  0  0  0  0  0  0  0
  2  1  1  0
  3  2  2  0
  4  3  1  0
  5  4  2  0
  5 11  1  0
  6  5  1  0
  7  6  1  0
  7  8  1  6
  9  7  1  0
  9 10  2  0
 11 12  2  0
 12  2  1  0
 13  9  1  0
 14 15  1  1
 14 13  1  0
 16 15  1  0
 16 17  2  0
 16 20  1  0
 17 18  1  0
 18 19  1  0
 20 19  2  0
 21 14  1  0
 22 21  2  0
 23 27  1  0
 23 21  1  0
 24 23  1  0
 25 24  1  0
 25 26  1  0
 26 27  1  0
 27 28  1  6
 28 29  2  0
 28 30  1  0
M  END
$$$$
