YHP.pdb
     RDKit          3D

 30 32  0  0  1  0  0  0  0  0999 V2000
   19.5968  -11.5287    4.1361 O   0  0  0  0  0  0  0  0  0  0  0  0
   19.2456  -12.8527    4.2866 C   0  0  0  0  0  0  0  0  0  0  0  0
   18.9836  -13.6796    3.2081 C   0  0  0  0  0  0  0  0  0  0  0  0
   18.6341  -14.9985    3.3673 C   0  0  0  0  0  0  0  0  0  0  0  0
   18.5448  -15.5020    4.6462 C   0  0  0  0  0  0  0  0  0  0  0  0
   18.1679  -16.9123    4.9032 C   0  0  0  0  0  0  0  0  0  0  0  0
   16.7751  -17.1578    4.4486 C   0  0  2  0  0  0  0  0  0  0  0  0
   15.8238  -16.3041    5.1801 N   0  0  0  0  0  0  0  0  0  0  0  0
   16.3263  -18.5622    4.6007 C   0  0  0  0  0  0  0  0  0  0  0  0
   15.4864  -18.9492    5.4535 O   0  0  0  0  0  0  0  0  0  0  0  0
   18.8049  -14.6809    5.7129 C   0  0  0  0  0  0  0  0  0  0  0  0
   19.1544  -13.3632    5.5594 C   0  0  0  0  0  0  0  0  0  0  0  0
   16.8396  -19.6056    3.7552 N   0  0  0  0  0  0  0  0  0  0  0  0
   16.3963  -20.9982    3.9117 C   0  0  1  0  0  0  0  0  0  0  0  0
   16.7447  -21.7833    2.6648 C   0  0  0  0  0  0  0  0  0  0  0  0
   16.0172  -21.2835    1.4766 C   0  0  0  0  0  0  0  0  0  0  0  0
   16.5027  -20.5551    0.4118 C   0  0  0  0  0  0  0  0  0  0  0  0
   15.4880  -20.3058   -0.4619 N   0  0  0  0  0  0  0  0  0  0  0  0
   14.3850  -20.8706    0.0503 C   0  0  0  0  0  0  0  0  0  0  0  0
   14.7122  -21.4651    1.2313 N   0  0  0  0  0  0  0  0  0  0  0  0
   17.1440  -21.5971    5.0410 C   0  0  0  0  0  0  0  0  0  0  0  0
   18.2876  -21.0872    5.3228 O   0  0  0  0  0  0  0  0  0  0  0  0
   16.6891  -22.6753    5.8180 N   0  0  0  0  0  0  0  0  0  0  0  0
   15.4053  -23.3347    5.7017 C   0  0  0  0  0  0  0  0  0  0  0  0
   15.1531  -23.7319    7.1692 C   0  0  0  0  0  0  0  0  0  0  0  0
   16.5154  -24.2794    7.5455 C   0  0  0  0  0  0  0  0  0  0  0  0
   17.4490  -23.2954    6.8843 C   0  0  1  0  0  0  0  0  0  0  0  0
   18.6987  -23.9000    6.4128 C   0  0  0  0  0  0  0  0  0  0  0  0
   18.8967  -24.1166    5.2064 O   0  0  0  0  0  0  0  0  0  0  0  0
   19.6860  -24.2407    7.3212 O   0  0  0  0  0  0  0  0  0  0  0  0
  2  1  1  0
  3  2  2  0
  4  3  1  0
  5  4  2  0
  5 11  1  0
  6  5  1  0
  7  6  1  0
  7  8  1  1
  9  7  1  0
  9 10  2  0
 11 12  2  0
 12  2  1  0
 13  9  1  0
 14 15  1  6
 14 13  1  0
 16 15  1  0
 16 17  2  0
 16 20  1  0
 17 18  1  0
 18 19  1  0
 20 19  2  0
 21 14  1  0
 22 21  2  0
 23 27  1  0
 23 21  1  0
 24 23  1  0
 25 24  1  0
 25 26  1  0
 26 27  1  0
 27 28  1  6
 28 29  2  0
 28 30  1  0
M  END
$$$$
