YHP.pdb
     RDKit          3D

 30 32  0  0  1  0  0  0  0  0999 V2000
   10.3047  -17.7337    1.7473 O   0  0  0  0  0  0  0  0  0  0  0  0
   11.4792  -17.6358    2.4615 C   0  0  0  0  0  0  0  0  0  0  0  0
   12.2261  -18.7447    2.8196 C   0  0  0  0  0  0  0  0  0  0  0  0
   13.3960  -18.6379    3.5317 C   0  0  0  0  0  0  0  0  0  0  0  0
   13.8286  -17.3818    3.8951 C   0  0  0  0  0  0  0  0  0  0  0  0
   15.0768  -17.1817    4.6690 C   0  0  0  0  0  0  0  0  0  0  0  0
   16.1713  -16.7436    3.7651 C   0  0  2  0  0  0  0  0  0  0  0  0
   16.6433  -17.8605    2.9291 N   0  0  0  0  0  0  0  0  0  0  0  0
   17.3486  -16.1800    4.4673 C   0  0  0  0  0  0  0  0  0  0  0  0
   18.3936  -16.8286    4.7314 O   0  0  0  0  0  0  0  0  0  0  0  0
   13.0869  -16.2849    3.5390 C   0  0  0  0  0  0  0  0  0  0  0  0
   11.9181  -16.3860    2.8279 C   0  0  0  0  0  0  0  0  0  0  0  0
   17.3714  -14.8109    4.9057 N   0  0  0  0  0  0  0  0  0  0  0  0
   18.5453  -14.2513    5.5906 C   0  0  1  0  0  0  0  0  0  0  0  0
   18.4432  -12.7409    5.6175 C   0  0  0  0  0  0  0  0  0  0  0  0
   19.5981  -12.1218    6.3057 C   0  0  0  0  0  0  0  0  0  0  0  0
   20.7958  -11.6993    5.7700 C   0  0  0  0  0  0  0  0  0  0  0  0
   21.5765  -11.1883    6.7622 N   0  0  0  0  0  0  0  0  0  0  0  0
   20.8759  -11.2904    7.9009 C   0  0  0  0  0  0  0  0  0  0  0  0
   19.6713  -11.8596    7.6180 N   0  0  0  0  0  0  0  0  0  0  0  0
   18.5316  -14.7257    6.9934 C   0  0  0  0  0  0  0  0  0  0  0  0
   17.3895  -14.8078    7.5732 O   0  0  0  0  0  0  0  0  0  0  0  0
   19.6742  -15.0896    7.7248 N   0  0  0  0  0  0  0  0  0  0  0  0
   21.0356  -15.1145    7.2326 C   0  0  0  0  0  0  0  0  0  0  0  0
   21.6135  -16.2882    8.0470 C   0  0  0  0  0  0  0  0  0  0  0  0
   21.0654  -15.9663    9.4230 C   0  0  0  0  0  0  0  0  0  0  0  0
   19.6598  -15.5155    9.1096 C   0  0  1  0  0  0  0  0  0  0  0  0
   19.1617  -14.4775   10.0172 C   0  0  0  0  0  0  0  0  0  0  0  0
   19.2026  -13.2756    9.7086 O   0  0  0  0  0  0  0  0  0  0  0  0
   18.6326  -14.8316   11.2463 O   0  0  0  0  0  0  0  0  0  0  0  0
  2  1  1  0
  3  2  2  0
  4  3  1  0
  5  4  2  0
  5 11  1  0
  6  5  1  0
  7  6  1  0
  7  8  1  1
  9  7  1  0
  9 10  2  0
 11 12  2  0
 12  2  1  0
 13  9  1  0
 14 15  1  1
 14 13  1  0
 16 15  1  0
 16 17  2  0
 16 20  1  0
 17 18  1  0
 18 19  1  0
 20 19  2  0
 21 14  1  0
 22 21  2  0
 23 27  1  0
 23 21  1  0
 24 23  1  0
 25 24  1  0
 25 26  1  0
 26 27  1  0
 27 28  1  1
 28 29  2  0
 28 30  1  0
M  END
$$$$
