YHP.pdb
     RDKit          3D

 30 32  0  0  1  0  0  0  0  0999 V2000
   29.9565  -24.2917  -17.8305 O   0  0  0  0  0  0  0  0  0  0  0  0
   29.0614  -23.6332  -17.0155 C   0  0  0  0  0  0  0  0  0  0  0  0
   27.8766  -24.2106  -16.5930 C   0  0  0  0  0  0  0  0  0  0  0  0
   26.9901  -23.5467  -15.7804 C   0  0  0  0  0  0  0  0  0  0  0  0
   27.3016  -22.2662  -15.3805 C   0  0  0  0  0  0  0  0  0  0  0  0
   26.3958  -21.4805  -14.5091 C   0  0  0  0  0  0  0  0  0  0  0  0
   25.2275  -21.0002  -15.2910 C   0  0  2  0  0  0  0  0  0  0  0  0
   25.6473  -20.0527  -16.3375 N   0  0  0  0  0  0  0  0  0  0  0  0
   24.1843  -20.3344  -14.4753 C   0  0  0  0  0  0  0  0  0  0  0  0
   24.3126  -19.1980  -13.9514 O   0  0  0  0  0  0  0  0  0  0  0  0
   28.4759  -21.6964  -15.8002 C   0  0  0  0  0  0  0  0  0  0  0  0
   29.3647  -22.3550  -16.6116 C   0  0  0  0  0  0  0  0  0  0  0  0
   22.9178  -20.9664  -14.2228 N   0  0  0  0  0  0  0  0  0  0  0  0
   21.8838  -20.3020  -13.4169 C   0  0  1  0  0  0  0  0  0  0  0  0
   20.6354  -20.1119  -14.2524 C   0  0  0  0  0  0  0  0  0  0  0  0
   19.5836  -19.3776  -13.5140 C   0  0  0  0  0  0  0  0  0  0  0  0
   19.2612  -18.0388  -13.5763 C   0  0  0  0  0  0  0  0  0  0  0  0
   18.2262  -17.7860  -12.7278 N   0  0  0  0  0  0  0  0  0  0  0  0
   17.9072  -18.9503  -12.1443 C   0  0  0  0  0  0  0  0  0  0  0  0
   18.7368  -19.9171  -12.6263 N   0  0  0  0  0  0  0  0  0  0  0  0
   21.5346  -21.1935  -12.2871 C   0  0  0  0  0  0  0  0  0  0  0  0
   21.3109  -22.4272  -12.5616 O   0  0  0  0  0  0  0  0  0  0  0  0
   21.4340  -20.7834  -10.9475 N   0  0  0  0  0  0  0  0  0  0  0  0
   21.6335  -19.4405  -10.4444 C   0  0  0  0  0  0  0  0  0  0  0  0
   22.2218  -19.7405   -9.0520 C   0  0  0  0  0  0  0  0  0  0  0  0
   21.2885  -20.8413   -8.5888 C   0  0  0  0  0  0  0  0  0  0  0  0
   21.1198  -21.6653   -9.8417 C   0  0  1  0  0  0  0  0  0  0  0  0
   19.7941  -22.2791   -9.9646 C   0  0  0  0  0  0  0  0  0  0  0  0
   18.9972  -21.9242  -10.8481 O   0  0  0  0  0  0  0  0  0  0  0  0
   19.4110  -23.2759   -9.0839 O   0  0  0  0  0  0  0  0  0  0  0  0
  2  1  1  0
  3  2  2  0
  4  3  1  0
  5  4  2  0
  5 11  1  0
  6  5  1  0
  7  6  1  0
  7  8  1  6
  9  7  1  0
  9 10  2  0
 11 12  2  0
 12  2  1  0
 13  9  1  0
 14 15  1  6
 14 13  1  0
 16 15  1  0
 16 17  2  0
 16 20  1  0
 17 18  1  0
 18 19  1  0
 20 19  2  0
 21 14  1  0
 22 21  2  0
 23 27  1  0
 23 21  1  0
 24 23  1  0
 25 24  1  0
 25 26  1  0
 26 27  1  0
 27 28  1  6
 28 29  2  0
 28 30  1  0
M  END
$$$$
