PCK.pdb
     RDKit          3D

 23 23  0  0  1  0  0  0  0  0999 V2000
   22.7108   -9.2349  -17.3264 N   0  0  0  0  0  0  0  0  0  0  0  0
   23.4039  -10.2257  -18.1469 C   0  0  0  0  0  0  0  0  0  0  0  0
   23.9034  -11.2897  -17.2152 C   0  0  0  0  0  0  0  0  0  0  0  0
   23.3950  -10.8438  -15.8378 C   0  0  0  0  0  0  0  0  0  0  0  0
   22.1982  -10.0235  -16.2226 C   0  0  1  0  0  0  0  0  0  0  0  0
   21.7045   -9.1596  -15.1231 C   0  0  0  0  0  0  0  0  0  0  0  0
   21.1962   -9.7037  -14.1088 O   0  0  0  0  0  0  0  0  0  0  0  0
   21.7693   -7.7511  -15.1424 N   0  0  0  0  0  0  0  0  0  0  0  0
   21.3419   -6.8986  -14.0503 C   0  0  1  0  0  0  0  0  0  0  0  0
   22.0488   -5.5546  -14.2690 C   0  0  0  0  0  0  0  0  0  0  0  0
   21.6082   -4.5315  -12.8158 S   0  0  0  0  0  0  0  0  0  0  0  0
   19.8741   -6.7244  -14.0240 C   0  0  0  0  0  0  0  0  0  0  0  0
   19.2836   -6.4756  -15.0999 O   0  0  0  0  0  0  0  0  0  0  0  0
   19.1076   -6.8260  -12.8399 N   0  0  0  0  0  0  0  0  0  0  0  0
   17.6403   -6.7885  -12.8450 C   0  0  1  0  0  0  0  0  0  0  0  0
   17.1553   -7.5399  -11.6415 C   0  0  0  0  0  0  0  0  0  0  0  0
   15.6700   -7.5915  -11.5071 C   0  0  0  0  0  0  0  0  0  0  0  0
   15.3105   -8.3215  -10.2100 C   0  0  0  0  0  0  0  0  0  0  0  0
   13.8063   -8.4289  -10.0644 C   0  0  0  0  0  0  0  0  0  0  0  0
   13.4168   -9.0781   -8.8505 N   0  0  0  0  0  0  0  0  0  0  0  0
   17.1537   -5.4075  -12.8190 C   0  0  0  0  0  0  0  0  0  0  0  0
   17.8743   -4.5119  -12.3075 O   0  0  0  0  0  0  0  0  0  0  0  0
   15.9359   -5.0278  -13.3323 O   0  0  0  0  0  0  0  0  0  0  0  0
  1  2  1  0
  2  3  1  0
  4  3  1  0
  5  1  1  0
  5  4  1  0
  5  6  1  1
  6  7  2  0
  8  6  1  0
  9  8  1  0
  9 12  1  0
  9 10  1  6
 11 10  1  0
 12 14  1  0
 13 12  2  0
 14 15  1  0
 15 21  1  0
 16 17  1  0
 15 16  1  1
 18 19  1  0
 18 17  1  0
 19 20  1  0
 21 22  2  0
 21 23  1  0
M  END
$$$$
