PCK.pdb
     RDKit          3D

 23 23  0  0  1  0  0  0  0  0999 V2000
   27.5565  -13.9077  -17.8915 N   0  0  0  0  0  0  0  0  0  0  0  0
   28.2665  -15.1055  -18.3349 C   0  0  0  0  0  0  0  0  0  0  0  0
   28.1122  -16.1295  -17.2498 C   0  0  0  0  0  0  0  0  0  0  0  0
   27.2288  -15.4328  -16.2064 C   0  0  0  0  0  0  0  0  0  0  0  0
   26.4934  -14.4439  -17.0636 C   0  0  1  0  0  0  0  0  0  0  0  0
   25.8254  -13.3760  -16.2810 C   0  0  0  0  0  0  0  0  0  0  0  0
   24.9332  -13.7002  -15.4552 O   0  0  0  0  0  0  0  0  0  0  0  0
   26.1302  -12.0048  -16.4050 N   0  0  0  0  0  0  0  0  0  0  0  0
   25.4811  -10.9520  -15.6485 C   0  0  1  0  0  0  0  0  0  0  0  0
   26.5938  -10.2730  -14.8393 C   0  0  0  0  0  0  0  0  0  0  0  0
   27.8059   -9.6840  -16.0789 S   0  0  0  0  0  0  0  0  0  0  0  0
   24.7980   -9.9782  -16.5263 C   0  0  0  0  0  0  0  0  0  0  0  0
   25.4112   -9.5466  -17.5292 O   0  0  0  0  0  0  0  0  0  0  0  0
   23.4847   -9.5126  -16.2847 N   0  0  0  0  0  0  0  0  0  0  0  0
   22.8092   -8.5613  -17.1753 C   0  0  1  0  0  0  0  0  0  0  0  0
   21.3358   -8.8309  -17.1064 C   0  0  0  0  0  0  0  0  0  0  0  0
   20.5111   -7.9679  -18.0018 C   0  0  0  0  0  0  0  0  0  0  0  0
   19.0307   -8.2949  -17.7864 C   0  0  0  0  0  0  0  0  0  0  0  0
   18.1706   -7.5113  -18.7568 C   0  0  0  0  0  0  0  0  0  0  0  0
   16.7746   -7.7773  -18.5919 N   0  0  0  0  0  0  0  0  0  0  0  0
   23.0980   -7.1811  -16.7798 C   0  0  0  0  0  0  0  0  0  0  0  0
   22.9514   -6.2575  -17.6215 O   0  0  0  0  0  0  0  0  0  0  0  0
   23.5244   -6.8317  -15.5201 O   0  0  0  0  0  0  0  0  0  0  0  0
  1  2  1  0
  2  3  1  0
  4  3  1  0
  5  1  1  0
  5  4  1  0
  5  6  1  1
  6  7  2  0
  8  6  1  0
  9  8  1  0
  9 12  1  0
  9 10  1  6
 11 10  1  0
 12 14  1  0
 13 12  2  0
 14 15  1  0
 15 21  1  0
 16 17  1  0
 15 16  1  1
 18 19  1  0
 18 17  1  0
 19 20  1  0
 21 22  2  0
 21 23  1  0
M  END
$$$$
