PCK.pdb
     RDKit          3D

 23 23  0  0  1  0  0  0  0  0999 V2000
   24.4863  -13.1953  -15.4054 N   0  0  0  0  0  0  0  0  0  0  0  0
   25.3332  -14.3842  -15.4722 C   0  0  0  0  0  0  0  0  0  0  0  0
   25.3215  -14.8473  -16.8987 C   0  0  0  0  0  0  0  0  0  0  0  0
   24.4548  -13.8058  -17.6188 C   0  0  0  0  0  0  0  0  0  0  0  0
   24.6335  -12.6128  -16.7253 C   0  0  1  0  0  0  0  0  0  0  0  0
   23.6280  -11.5492  -16.9633 C   0  0  0  0  0  0  0  0  0  0  0  0
   23.6693  -10.9099  -18.0462 O   0  0  0  0  0  0  0  0  0  0  0  0
   22.6170  -11.2051  -16.0425 N   0  0  0  0  0  0  0  0  0  0  0  0
   21.5822  -10.2214  -16.2952 C   0  0  1  0  0  0  0  0  0  0  0  0
   20.2728  -10.8606  -15.8148 C   0  0  0  0  0  0  0  0  0  0  0  0
   18.9917   -9.5717  -16.0392 S   0  0  0  0  0  0  0  0  0  0  0  0
   21.8399   -8.9502  -15.5860 C   0  0  0  0  0  0  0  0  0  0  0  0
   22.1701   -8.9969  -14.3789 O   0  0  0  0  0  0  0  0  0  0  0  0
   21.7304   -7.6852  -16.2085 N   0  0  0  0  0  0  0  0  0  0  0  0
   22.0082   -6.4306  -15.4989 C   0  0  1  0  0  0  0  0  0  0  0  0
   21.8483   -5.3034  -16.4747 C   0  0  0  0  0  0  0  0  0  0  0  0
   22.2129   -3.9630  -15.9296 C   0  0  0  0  0  0  0  0  0  0  0  0
   22.1510   -2.9305  -17.0587 C   0  0  0  0  0  0  0  0  0  0  0  0
   22.6796   -1.5935  -16.5808 C   0  0  0  0  0  0  0  0  0  0  0  0
   22.4817   -0.5501  -17.5393 N   0  0  0  0  0  0  0  0  0  0  0  0
   21.0985   -6.2608  -14.3640 C   0  0  0  0  0  0  0  0  0  0  0  0
   21.5714   -5.9614  -13.2372 O   0  0  0  0  0  0  0  0  0  0  0  0
   19.7350   -6.4096  -14.4622 O   0  0  0  0  0  0  0  0  0  0  0  0
  1  2  1  0
  2  3  1  0
  4  3  1  0
  5  1  1  0
  5  4  1  0
  5  6  1  6
  6  7  2  0
  8  6  1  0
  9  8  1  0
  9 12  1  0
  9 10  1  1
 11 10  1  0
 12 14  1  0
 13 12  2  0
 14 15  1  0
 15 21  1  0
 16 17  1  0
 15 16  1  6
 18 19  1  0
 18 17  1  0
 19 20  1  0
 21 22  2  0
 21 23  1  0
M  END
$$$$
