PCK.pdb
     RDKit          3D

 23 23  0  0  1  0  0  0  0  0999 V2000
   17.3634  -24.4184   -7.9336 N   0  0  0  0  0  0  0  0  0  0  0  0
   17.7198  -23.8982   -9.2518 C   0  0  0  0  0  0  0  0  0  0  0  0
   18.6835  -24.8743   -9.8587 C   0  0  0  0  0  0  0  0  0  0  0  0
   18.7922  -25.9883   -8.8092 C   0  0  0  0  0  0  0  0  0  0  0  0
   17.4724  -25.8541   -8.1068 C   0  0  1  0  0  0  0  0  0  0  0  0
   17.4296  -26.5616   -6.8042 C   0  0  0  0  0  0  0  0  0  0  0  0
   17.4690  -27.8192   -6.7981 O   0  0  0  0  0  0  0  0  0  0  0  0
   17.3467  -25.9069   -5.5581 N   0  0  0  0  0  0  0  0  0  0  0  0
   17.2799  -26.5885   -4.2800 C   0  0  1  0  0  0  0  0  0  0  0  0
   18.3293  -25.9098   -3.3901 C   0  0  0  0  0  0  0  0  0  0  0  0
   18.4678  -26.9722   -1.9052 S   0  0  0  0  0  0  0  0  0  0  0  0
   15.9352  -26.4983   -3.6726 C   0  0  0  0  0  0  0  0  0  0  0  0
   15.4139  -25.3670   -3.5429 O   0  0  0  0  0  0  0  0  0  0  0  0
   15.2118  -27.6305   -3.2317 N   0  0  0  0  0  0  0  0  0  0  0  0
   13.8523  -27.5344   -2.6867 C   0  0  1  0  0  0  0  0  0  0  0  0
   13.1273  -28.8016   -3.0285 C   0  0  0  0  0  0  0  0  0  0  0  0
   12.9546  -29.0346   -4.4922 C   0  0  0  0  0  0  0  0  0  0  0  0
   12.2134  -30.3577   -4.7037 C   0  0  0  0  0  0  0  0  0  0  0  0
   12.1551  -30.7001   -6.1784 C   0  0  0  0  0  0  0  0  0  0  0  0
   11.5249  -31.9604   -6.4253 N   0  0  0  0  0  0  0  0  0  0  0  0
   13.8847  -27.3363   -1.2360 C   0  0  0  0  0  0  0  0  0  0  0  0
   14.9573  -27.5429   -0.6117 O   0  0  0  0  0  0  0  0  0  0  0  0
   12.7929  -26.9283   -0.5066 O   0  0  0  0  0  0  0  0  0  0  0  0
  1  2  1  0
  2  3  1  0
  4  3  1  0
  5  1  1  0
  5  4  1  0
  5  6  1  1
  6  7  2  0
  8  6  1  0
  9  8  1  0
  9 12  1  0
  9 10  1  1
 11 10  1  0
 12 14  1  0
 13 12  2  0
 14 15  1  0
 15 21  1  0
 16 17  1  0
 15 16  1  1
 18 19  1  0
 18 17  1  0
 19 20  1  0
 21 22  2  0
 21 23  1  0
M  END
$$$$
