PCK.pdb
     RDKit          3D

 23 23  0  0  1  0  0  0  0  0999 V2000
   16.1450  -10.9616  -12.9502 N   0  0  0  0  0  0  0  0  0  0  0  0
   15.2307  -11.9600  -13.5003 C   0  0  0  0  0  0  0  0  0  0  0  0
   13.9709  -11.2370  -13.8743 C   0  0  0  0  0  0  0  0  0  0  0  0
   14.2732   -9.7700  -13.5411 C   0  0  0  0  0  0  0  0  0  0  0  0
   15.7700   -9.7502  -13.6535 C   0  0  1  0  0  0  0  0  0  0  0  0
   16.3861   -8.5517  -13.0346 C   0  0  0  0  0  0  0  0  0  0  0  0
   16.2564   -7.4402  -13.6098 O   0  0  0  0  0  0  0  0  0  0  0  0
   17.1164   -8.5792  -11.8286 N   0  0  0  0  0  0  0  0  0  0  0  0
   17.6996   -7.4099  -11.1999 C   0  0  1  0  0  0  0  0  0  0  0  0
   17.7732   -7.7347   -9.7022 C   0  0  0  0  0  0  0  0  0  0  0  0
   16.0385   -7.7217   -9.1163 S   0  0  0  0  0  0  0  0  0  0  0  0
   19.0410   -7.1010  -11.7392 C   0  0  0  0  0  0  0  0  0  0  0  0
   19.9209   -7.9910  -11.6955 O   0  0  0  0  0  0  0  0  0  0  0  0
   19.3749   -5.8471  -12.3014 N   0  0  0  0  0  0  0  0  0  0  0  0
   20.6245   -5.6208  -13.0374 C   0  0  1  0  0  0  0  0  0  0  0  0
   20.6385   -6.5449  -14.2182 C   0  0  0  0  0  0  0  0  0  0  0  0
   21.8114   -6.3670  -15.1233 C   0  0  0  0  0  0  0  0  0  0  0  0
   21.8034   -7.4788  -16.1762 C   0  0  0  0  0  0  0  0  0  0  0  0
   22.9398   -7.2831  -17.1589 C   0  0  0  0  0  0  0  0  0  0  0  0
   22.9849   -8.3065  -18.1575 N   0  0  0  0  0  0  0  0  0  0  0  0
   20.7272   -4.2269  -13.4747 C   0  0  0  0  0  0  0  0  0  0  0  0
   21.8576   -3.7550  -13.7620 O   0  0  0  0  0  0  0  0  0  0  0  0
   19.6408   -3.3924  -13.5935 O   0  0  0  0  0  0  0  0  0  0  0  0
  1  2  1  0
  2  3  1  0
  4  3  1  0
  5  1  1  0
  5  4  1  0
  5  6  1  1
  6  7  2  0
  8  6  1  0
  9  8  1  0
  9 12  1  0
  9 10  1  1
 11 10  1  0
 12 14  1  0
 13 12  2  0
 14 15  1  0
 15 21  1  0
 16 17  1  0
 15 16  1  6
 18 19  1  0
 18 17  1  0
 19 20  1  0
 21 22  2  0
 21 23  1  0
M  END
$$$$
