PCK.pdb
     RDKit          3D

 23 23  0  0  1  0  0  0  0  0999 V2000
   27.5122  -19.0702  -15.4483 N   0  0  0  0  0  0  0  0  0  0  0  0
   28.5949  -18.6725  -16.3456 C   0  0  0  0  0  0  0  0  0  0  0  0
   29.6180  -19.7685  -16.3055 C   0  0  0  0  0  0  0  0  0  0  0  0
   29.0022  -20.8156  -15.3680 C   0  0  0  0  0  0  0  0  0  0  0  0
   27.5390  -20.5182  -15.5233 C   0  0  1  0  0  0  0  0  0  0  0  0
   26.7030  -21.1310  -14.4628 C   0  0  0  0  0  0  0  0  0  0  0  0
   26.6235  -22.3853  -14.4053 O   0  0  0  0  0  0  0  0  0  0  0  0
   25.9832  -20.3885  -13.5041 N   0  0  0  0  0  0  0  0  0  0  0  0
   25.1992  -20.9768  -12.4356 C   0  0  1  0  0  0  0  0  0  0  0  0
   25.6666  -20.2874  -11.1471 C   0  0  0  0  0  0  0  0  0  0  0  0
   24.5748  -20.9333   -9.8267 S   0  0  0  0  0  0  0  0  0  0  0  0
   23.7481  -20.7833  -12.6408 C   0  0  0  0  0  0  0  0  0  0  0  0
   23.3183  -19.6179  -12.8001 O   0  0  0  0  0  0  0  0  0  0  0  0
   22.8243  -21.8537  -12.6654 N   0  0  0  0  0  0  0  0  0  0  0  0
   21.3848  -21.6484  -12.8662 C   0  0  1  0  0  0  0  0  0  0  0  0
   20.7217  -22.9932  -12.8609 C   0  0  0  0  0  0  0  0  0  0  0  0
   19.2458  -22.9510  -13.0768 C   0  0  0  0  0  0  0  0  0  0  0  0
   18.7201  -24.3822  -13.2185 C   0  0  0  0  0  0  0  0  0  0  0  0
   17.2139  -24.3775  -13.3815 C   0  0  0  0  0  0  0  0  0  0  0  0
   16.8098  -24.4061  -14.7536 N   0  0  0  0  0  0  0  0  0  0  0  0
   20.8275  -20.7967  -11.8133 C   0  0  0  0  0  0  0  0  0  0  0  0
   21.1614  -21.0005  -10.6174 O   0  0  0  0  0  0  0  0  0  0  0  0
   19.9483  -19.7691  -12.0617 O   0  0  0  0  0  0  0  0  0  0  0  0
  1  2  1  0
  2  3  1  0
  4  3  1  0
  5  1  1  0
  5  4  1  0
  5  6  1  1
  6  7  2  0
  8  6  1  0
  9  8  1  0
  9 12  1  0
  9 10  1  1
 11 10  1  0
 12 14  1  0
 13 12  2  0
 14 15  1  0
 15 21  1  0
 16 17  1  0
 15 16  1  1
 18 19  1  0
 18 17  1  0
 19 20  1  0
 21 22  2  0
 21 23  1  0
M  END
$$$$
