PCK.pdb
     RDKit          3D

 23 23  0  0  1  0  0  0  0  0999 V2000
   22.1918  -12.3671  -18.6885 N   0  0  0  0  0  0  0  0  0  0  0  0
   21.7410  -13.5738  -19.3785 C   0  0  0  0  0  0  0  0  0  0  0  0
   21.2634  -14.5260  -18.3227 C   0  0  0  0  0  0  0  0  0  0  0  0
   21.4339  -13.7434  -17.0139 C   0  0  0  0  0  0  0  0  0  0  0  0
   21.3486  -12.3290  -17.5093 C   0  0  1  0  0  0  0  0  0  0  0  0
   21.8394  -11.3349  -16.5244 C   0  0  0  0  0  0  0  0  0  0  0  0
   21.2242  -11.2101  -15.4339 O   0  0  0  0  0  0  0  0  0  0  0  0
   22.9645  -10.5113  -16.7349 N   0  0  0  0  0  0  0  0  0  0  0  0
   23.4684   -9.5541  -15.7694 C   0  0  1  0  0  0  0  0  0  0  0  0
   24.9897   -9.5245  -15.9664 C   0  0  0  0  0  0  0  0  0  0  0  0
   25.6162  -11.0339  -15.1405 S   0  0  0  0  0  0  0  0  0  0  0  0
   22.8851   -8.2098  -15.9643 C   0  0  0  0  0  0  0  0  0  0  0  0
   22.9244   -7.7027  -17.1087 O   0  0  0  0  0  0  0  0  0  0  0  0
   22.2854   -7.4715  -14.9179 N   0  0  0  0  0  0  0  0  0  0  0  0
   21.7089   -6.1374  -15.1241 C   0  0  1  0  0  0  0  0  0  0  0  0
   20.2197   -6.2528  -14.9927 C   0  0  0  0  0  0  0  0  0  0  0  0
   19.5657   -7.0336  -16.0832 C   0  0  0  0  0  0  0  0  0  0  0  0
   18.0590   -7.0979  -15.8176 C   0  0  0  0  0  0  0  0  0  0  0  0
   17.3681   -7.9128  -16.8918 C   0  0  0  0  0  0  0  0  0  0  0  0
   15.9587   -8.0263  -16.6740 N   0  0  0  0  0  0  0  0  0  0  0  0
   22.2385   -5.1836  -14.1472 C   0  0  0  0  0  0  0  0  0  0  0  0
   22.8395   -5.6162  -13.1299 O   0  0  0  0  0  0  0  0  0  0  0  0
   22.1167   -3.8207  -14.2821 O   0  0  0  0  0  0  0  0  0  0  0  0
  1  2  1  0
  2  3  1  0
  4  3  1  0
  5  1  1  0
  5  4  1  0
  5  6  1  1
  6  7  2  0
  8  6  1  0
  9  8  1  0
  9 12  1  0
  9 10  1  6
 11 10  1  0
 12 14  1  0
 13 12  2  0
 14 15  1  0
 15 21  1  0
 16 17  1  0
 15 16  1  1
 18 19  1  0
 18 17  1  0
 19 20  1  0
 21 22  2  0
 21 23  1  0
M  END
$$$$
