PCK.pdb
     RDKit          3D

 23 23  0  0  1  0  0  0  0  0999 V2000
   29.8398  -22.7218  -18.1865 N   0  0  0  0  0  0  0  0  0  0  0  0
   30.8167  -23.6806  -18.6980 C   0  0  0  0  0  0  0  0  0  0  0  0
   31.4886  -24.2951  -17.5060 C   0  0  0  0  0  0  0  0  0  0  0  0
   30.7808  -23.6484  -16.3080 C   0  0  0  0  0  0  0  0  0  0  0  0
   29.4527  -23.2958  -16.9122 C   0  0  1  0  0  0  0  0  0  0  0  0
   28.6780  -22.3299  -16.0961 C   0  0  0  0  0  0  0  0  0  0  0  0
   28.2926  -22.6794  -14.9505 O   0  0  0  0  0  0  0  0  0  0  0  0
   28.3421  -21.0301  -16.5276 N   0  0  0  0  0  0  0  0  0  0  0  0
   27.5817  -20.0791  -15.7403 C   0  0  1  0  0  0  0  0  0  0  0  0
   28.0950  -18.6928  -16.1511 C   0  0  0  0  0  0  0  0  0  0  0  0
   27.2289  -17.5093  -15.0549 S   0  0  0  0  0  0  0  0  0  0  0  0
   26.1279  -20.1960  -15.9813 C   0  0  0  0  0  0  0  0  0  0  0  0
   25.7249  -20.2915  -17.1632 O   0  0  0  0  0  0  0  0  0  0  0  0
   25.1727  -20.2047  -14.9386 N   0  0  0  0  0  0  0  0  0  0  0  0
   23.7325  -20.3355  -15.1898 C   0  0  1  0  0  0  0  0  0  0  0  0
   23.0358  -20.3916  -13.8632 C   0  0  0  0  0  0  0  0  0  0  0  0
   21.5499  -20.4948  -13.9537 C   0  0  0  0  0  0  0  0  0  0  0  0
   21.0473  -21.4445  -12.8627 C   0  0  0  0  0  0  0  0  0  0  0  0
   19.5492  -21.6373  -12.9801 C   0  0  0  0  0  0  0  0  0  0  0  0
   18.9945  -22.3275  -11.8565 N   0  0  0  0  0  0  0  0  0  0  0  0
   23.2369  -19.2088  -15.9831 C   0  0  0  0  0  0  0  0  0  0  0  0
   23.6534  -18.0489  -15.7298 O   0  0  0  0  0  0  0  0  0  0  0  0
   22.3298  -19.3492  -17.0070 O   0  0  0  0  0  0  0  0  0  0  0  0
  1  2  1  0
  2  3  1  0
  4  3  1  0
  5  1  1  0
  5  4  1  0
  5  6  1  1
  6  7  2  0
  8  6  1  0
  9  8  1  0
  9 12  1  0
  9 10  1  6
 11 10  1  0
 12 14  1  0
 13 12  2  0
 14 15  1  0
 15 21  1  0
 16 17  1  0
 15 16  1  1
 18 19  1  0
 18 17  1  0
 19 20  1  0
 21 22  2  0
 21 23  1  0
M  END
$$$$
