PCK.pdb
     RDKit          3D

 23 23  0  0  1  0  0  0  0  0999 V2000
   20.1663  -10.4717  -14.6383 N   0  0  0  0  0  0  0  0  0  0  0  0
   20.1295  -11.7107  -15.4121 C   0  0  0  0  0  0  0  0  0  0  0  0
   18.6882  -11.9881  -15.7211 C   0  0  0  0  0  0  0  0  0  0  0  0
   17.9424  -10.7942  -15.1106 C   0  0  0  0  0  0  0  0  0  0  0  0
   19.0135   -9.7427  -15.1309 C   0  0  1  0  0  0  0  0  0  0  0  0
   18.7025   -8.5757  -14.2704 C   0  0  0  0  0  0  0  0  0  0  0  0
   17.7607   -7.8117  -14.6056 O   0  0  0  0  0  0  0  0  0  0  0  0
   19.4032   -8.2646  -13.0869 N   0  0  0  0  0  0  0  0  0  0  0  0
   19.1207   -7.1160  -12.2482 C   0  0  1  0  0  0  0  0  0  0  0  0
   19.4295   -7.5615  -10.8129 C   0  0  0  0  0  0  0  0  0  0  0  0
   19.1542   -6.0791   -9.7740 S   0  0  0  0  0  0  0  0  0  0  0  0
   19.9363   -5.9414  -12.6229 C   0  0  0  0  0  0  0  0  0  0  0  0
   21.1822   -6.0255  -12.5283 O   0  0  0  0  0  0  0  0  0  0  0  0
   19.3737   -4.7282  -13.0829 N   0  0  0  0  0  0  0  0  0  0  0  0
   20.1944   -3.6152  -13.5749 C   0  0  1  0  0  0  0  0  0  0  0  0
   20.1272   -3.6192  -15.0728 C   0  0  0  0  0  0  0  0  0  0  0  0
   20.8338   -2.4765  -15.7223 C   0  0  0  0  0  0  0  0  0  0  0  0
   20.7593   -2.6418  -17.2428 C   0  0  0  0  0  0  0  0  0  0  0  0
   21.3681   -1.4394  -17.9348 C   0  0  0  0  0  0  0  0  0  0  0  0
   21.2942   -1.5304  -19.3606 N   0  0  0  0  0  0  0  0  0  0  0  0
   19.7145   -2.3381  -13.0425 C   0  0  0  0  0  0  0  0  0  0  0  0
   18.4910   -2.2020  -12.7825 O   0  0  0  0  0  0  0  0  0  0  0  0
   20.5386   -1.2634  -12.8045 O   0  0  0  0  0  0  0  0  0  0  0  0
  1  2  1  0
  2  3  1  0
  4  3  1  0
  5  1  1  0
  5  4  1  0
  5  6  1  1
  6  7  2  0
  8  6  1  0
  9  8  1  0
  9 12  1  0
  9 10  1  1
 11 10  1  0
 12 14  1  0
 13 12  2  0
 14 15  1  0
 15 21  1  0
 16 17  1  0
 15 16  1  6
 18 19  1  0
 18 17  1  0
 19 20  1  0
 21 22  2  0
 21 23  1  0
M  END
$$$$
