PCK.pdb
     RDKit          3D

 23 23  0  0  1  0  0  0  0  0999 V2000
   21.6871  -16.7034  -17.1594 N   0  0  0  0  0  0  0  0  0  0  0  0
   22.6095  -16.1063  -18.1228 C   0  0  0  0  0  0  0  0  0  0  0  0
   23.6624  -17.1347  -18.4121 C   0  0  0  0  0  0  0  0  0  0  0  0
   23.2285  -18.3516  -17.5842 C   0  0  0  0  0  0  0  0  0  0  0  0
   21.7497  -18.1168  -17.4777 C   0  0  1  0  0  0  0  0  0  0  0  0
   21.1025  -18.9380  -16.4260 C   0  0  0  0  0  0  0  0  0  0  0  0
   20.9023  -20.1596  -16.6511 O   0  0  0  0  0  0  0  0  0  0  0  0
   20.6925  -18.4307  -15.1758 N   0  0  0  0  0  0  0  0  0  0  0  0
   20.0572  -19.2232  -14.1411 C   0  0  1  0  0  0  0  0  0  0  0  0
   20.5411  -18.6353  -12.8092 C   0  0  0  0  0  0  0  0  0  0  0  0
   19.5936  -17.0838  -12.5900 S   0  0  0  0  0  0  0  0  0  0  0  0
   18.5825  -19.1768  -14.2335 C   0  0  0  0  0  0  0  0  0  0  0  0
   18.0373  -18.0885  -14.5279 O   0  0  0  0  0  0  0  0  0  0  0  0
   17.7607  -20.3046  -14.0045 N   0  0  0  0  0  0  0  0  0  0  0  0
   16.2949  -20.2288  -14.0231 C   0  0  1  0  0  0  0  0  0  0  0  0
   15.8057  -21.0380  -15.1868 C   0  0  0  0  0  0  0  0  0  0  0  0
   16.7568  -22.0930  -15.6444 C   0  0  0  0  0  0  0  0  0  0  0  0
   16.2293  -22.7131  -16.9413 C   0  0  0  0  0  0  0  0  0  0  0  0
   17.1713  -23.7941  -17.4306 C   0  0  0  0  0  0  0  0  0  0  0  0
   16.7973  -24.3102  -18.7113 N   0  0  0  0  0  0  0  0  0  0  0  0
   15.7304  -20.7364  -12.7708 C   0  0  0  0  0  0  0  0  0  0  0  0
   16.5045  -21.1777  -11.8825 O   0  0  0  0  0  0  0  0  0  0  0  0
   14.3814  -20.7559  -12.5056 O   0  0  0  0  0  0  0  0  0  0  0  0
  1  2  1  0
  2  3  1  0
  4  3  1  0
  5  1  1  0
  5  4  1  0
  5  6  1  1
  6  7  2  0
  8  6  1  0
  9  8  1  0
  9 12  1  0
  9 10  1  1
 11 10  1  0
 12 14  1  0
 13 12  2  0
 14 15  1  0
 15 21  1  0
 16 17  1  0
 15 16  1  6
 18 19  1  0
 18 17  1  0
 19 20  1  0
 21 22  2  0
 21 23  1  0
M  END
$$$$
