PCK.pdb
     RDKit          3D

 23 23  0  0  1  0  0  0  0  0999 V2000
   22.3276  -19.0359  -16.4303 N   0  0  0  0  0  0  0  0  0  0  0  0
   22.9991  -18.4967  -17.6109 C   0  0  0  0  0  0  0  0  0  0  0  0
   24.4540  -18.3762  -17.2670 C   0  0  0  0  0  0  0  0  0  0  0  0
   24.5442  -18.9321  -15.8397 C   0  0  0  0  0  0  0  0  0  0  0  0
   23.3561  -19.8491  -15.8106 C   0  0  1  0  0  0  0  0  0  0  0  0
   22.9688  -20.2596  -14.4393 C   0  0  0  0  0  0  0  0  0  0  0  0
   23.8165  -20.8542  -13.7244 O   0  0  0  0  0  0  0  0  0  0  0  0
   21.6964  -20.0232  -13.8794 N   0  0  0  0  0  0  0  0  0  0  0  0
   21.2802  -20.4894  -12.5710 C   0  0  1  0  0  0  0  0  0  0  0  0
   20.8439  -19.2360  -11.8010 C   0  0  0  0  0  0  0  0  0  0  0  0
   19.3708  -18.6083  -12.6890 S   0  0  0  0  0  0  0  0  0  0  0  0
   20.1750  -21.4675  -12.6561 C   0  0  0  0  0  0  0  0  0  0  0  0
   19.4174  -21.4264  -13.6524 O   0  0  0  0  0  0  0  0  0  0  0  0
   19.9349  -22.4464  -11.6642 N   0  0  0  0  0  0  0  0  0  0  0  0
   18.8764  -23.4552  -11.7920 C   0  0  1  0  0  0  0  0  0  0  0  0
   19.1516  -24.5416  -10.7958 C   0  0  0  0  0  0  0  0  0  0  0  0
   18.2000  -25.6893  -10.8602 C   0  0  0  0  0  0  0  0  0  0  0  0
   18.6594  -26.7750   -9.8830 C   0  0  0  0  0  0  0  0  0  0  0  0
   17.8167  -28.0233  -10.0469 C   0  0  0  0  0  0  0  0  0  0  0  0
   18.1780  -29.0551   -9.1241 N   0  0  0  0  0  0  0  0  0  0  0  0
   17.5588  -22.8619  -11.5543 C   0  0  0  0  0  0  0  0  0  0  0  0
   17.4558  -21.8945  -10.7564 O   0  0  0  0  0  0  0  0  0  0  0  0
   16.4104  -23.3074  -12.1653 O   0  0  0  0  0  0  0  0  0  0  0  0
  1  2  1  0
  2  3  1  0
  4  3  1  0
  5  1  1  0
  5  4  1  0
  5  6  1  1
  6  7  2  0
  8  6  1  0
  9  8  1  0
  9 12  1  0
  9 10  1  1
 11 10  1  0
 12 14  1  0
 13 12  2  0
 14 15  1  0
 15 21  1  0
 16 17  1  0
 15 16  1  1
 18 19  1  0
 18 17  1  0
 19 20  1  0
 21 22  2  0
 21 23  1  0
M  END
$$$$
