PCK.pdb
     RDKit          3D

 23 23  0  0  1  0  0  0  0  0999 V2000
   24.6591  -11.8385  -15.9812 N   0  0  0  0  0  0  0  0  0  0  0  0
   25.4535  -13.0222  -16.3020 C   0  0  0  0  0  0  0  0  0  0  0  0
   24.6285  -13.8608  -17.2326 C   0  0  0  0  0  0  0  0  0  0  0  0
   23.3520  -13.0353  -17.4413 C   0  0  0  0  0  0  0  0  0  0  0  0
   23.8580  -11.6474  -17.1748 C   0  0  1  0  0  0  0  0  0  0  0  0
   22.7720  -10.6638  -16.9466 C   0  0  0  0  0  0  0  0  0  0  0  0
   22.0703  -10.3003  -17.9257 O   0  0  0  0  0  0  0  0  0  0  0  0
   22.4724  -10.1038  -15.6875 N   0  0  0  0  0  0  0  0  0  0  0  0
   21.4168   -9.1378  -15.4534 C   0  0  1  0  0  0  0  0  0  0  0  0
   20.6543   -9.6435  -14.2218 C   0  0  0  0  0  0  0  0  0  0  0  0
   19.3441   -8.4012  -13.9174 S   0  0  0  0  0  0  0  0  0  0  0  0
   21.9498   -7.7784  -15.2223 C   0  0  0  0  0  0  0  0  0  0  0  0
   22.9368   -7.6458  -14.4629 O   0  0  0  0  0  0  0  0  0  0  0  0
   21.3961   -6.6223  -15.8194 N   0  0  0  0  0  0  0  0  0  0  0  0
   21.9288   -5.2766  -15.5749 C   0  0  1  0  0  0  0  0  0  0  0  0
   21.3137   -4.3475  -16.5783 C   0  0  0  0  0  0  0  0  0  0  0  0
   21.8215   -2.9460  -16.5095 C   0  0  0  0  0  0  0  0  0  0  0  0
   21.2375   -2.1449  -17.6766 C   0  0  0  0  0  0  0  0  0  0  0  0
   21.8081   -0.7415  -17.6911 C   0  0  0  0  0  0  0  0  0  0  0  0
   21.2614    0.0630  -18.7402 N   0  0  0  0  0  0  0  0  0  0  0  0
   21.6250   -4.8350  -14.2121 C   0  0  0  0  0  0  0  0  0  0  0  0
   22.4504   -4.1051  -13.6047 O   0  0  0  0  0  0  0  0  0  0  0  0
   20.4695   -5.1760  -13.5493 O   0  0  0  0  0  0  0  0  0  0  0  0
  1  2  1  0
  2  3  1  0
  4  3  1  0
  5  1  1  0
  5  4  1  0
  5  6  1  1
  6  7  2  0
  8  6  1  0
  9  8  1  0
  9 12  1  0
  9 10  1  1
 11 10  1  0
 12 14  1  0
 13 12  2  0
 14 15  1  0
 15 21  1  0
 16 17  1  0
 15 16  1  6
 18 19  1  0
 18 17  1  0
 19 20  1  0
 21 22  2  0
 21 23  1  0
M  END
$$$$
