PCK.pdb
     RDKit          3D

 23 23  0  0  1  0  0  0  0  0999 V2000
   25.4275  -12.2115  -16.4330 N   0  0  0  0  0  0  0  0  0  0  0  0
   26.2652  -13.3913  -16.6370 C   0  0  0  0  0  0  0  0  0  0  0  0
   25.6733  -14.1519  -17.7863 C   0  0  0  0  0  0  0  0  0  0  0  0
   24.4873  -13.2860  -18.2314 C   0  0  0  0  0  0  0  0  0  0  0  0
   24.9284  -11.9291  -17.7650 C   0  0  1  0  0  0  0  0  0  0  0  0
   23.8270  -10.9367  -17.7316 C   0  0  0  0  0  0  0  0  0  0  0  0
   23.2862  -10.5974  -18.8158 O   0  0  0  0  0  0  0  0  0  0  0  0
   23.3419  -10.3425  -16.5483 N   0  0  0  0  0  0  0  0  0  0  0  0
   22.2500   -9.3897  -16.5009 C   0  0  1  0  0  0  0  0  0  0  0  0
   21.1689  -10.0375  -15.6261 C   0  0  0  0  0  0  0  0  0  0  0  0
   21.9229  -10.2050  -13.9659 S   0  0  0  0  0  0  0  0  0  0  0  0
   22.6727   -8.0887  -15.9402 C   0  0  0  0  0  0  0  0  0  0  0  0
   23.7669   -8.0276  -15.3343 O   0  0  0  0  0  0  0  0  0  0  0  0
   21.8979   -6.9115  -16.0572 N   0  0  0  0  0  0  0  0  0  0  0  0
   22.3762   -5.6036  -15.5933 C   0  0  1  0  0  0  0  0  0  0  0  0
   21.8268   -4.5574  -16.5164 C   0  0  0  0  0  0  0  0  0  0  0  0
   22.2226   -3.1616  -16.1675 C   0  0  0  0  0  0  0  0  0  0  0  0
   21.6611   -2.2043  -17.2225 C   0  0  0  0  0  0  0  0  0  0  0  0
   22.0958   -0.7828  -16.9299 C   0  0  0  0  0  0  0  0  0  0  0  0
   21.7059    0.1334  -17.9571 N   0  0  0  0  0  0  0  0  0  0  0  0
   21.9477   -5.3499  -14.2162 C   0  0  0  0  0  0  0  0  0  0  0  0
   20.9177   -5.9242  -13.7777 O   0  0  0  0  0  0  0  0  0  0  0  0
   22.6194   -4.5084  -13.3609 O   0  0  0  0  0  0  0  0  0  0  0  0
  1  2  1  0
  2  3  1  0
  4  3  1  0
  5  1  1  0
  5  4  1  0
  5  6  1  1
  6  7  2  0
  8  6  1  0
  9  8  1  0
  9 12  1  0
  9 10  1  1
 11 10  1  0
 12 14  1  0
 13 12  2  0
 14 15  1  0
 15 21  1  0
 16 17  1  0
 15 16  1  6
 18 19  1  0
 18 17  1  0
 19 20  1  0
 21 22  2  0
 21 23  1  0
M  END
$$$$
