MEF.pdb
     RDKit          3D

 29 29  0  0  1  0  0  0  0  0999 V2000
    8.4481  -11.3374   21.0106 C   0  0  0  0  0  0  0  0  0  0  0  0
    7.2671  -12.0366   19.8224 S   0  0  0  0  0  0  0  0  0  0  0  0
    7.3265  -13.8207   19.8189 C   0  0  0  0  0  0  0  0  0  0  0  0
    7.8820  -14.4111   21.0849 C   0  0  0  0  0  0  0  0  0  0  0  0
    8.0100  -15.9137   21.0207 C   0  0  2  0  0  0  0  0  0  0  0  0
    6.7377  -16.5497   20.7278 N   0  0  0  0  0  0  0  0  0  0  0  0
    8.5146  -16.4763   22.3005 C   0  0  0  0  0  0  0  0  0  0  0  0
    7.7422  -17.0521   23.1198 O   0  0  0  0  0  0  0  0  0  0  0  0
    9.8910  -16.3930   22.6634 N   0  0  0  0  0  0  0  0  0  0  0  0
   10.4436  -17.1956   23.7655 C   0  0  1  0  0  0  0  0  0  0  0  0
   11.8310  -17.5579   23.3592 C   0  0  0  0  0  0  0  0  0  0  0  0
   11.9554  -18.4741   22.1921 C   0  0  0  0  0  0  0  0  0  0  0  0
   13.3480  -18.8040   21.8164 C   0  0  0  0  0  0  0  0  0  0  0  0
   13.7878  -18.6509   20.6515 O   0  0  0  0  0  0  0  0  0  0  0  0
   10.5124  -16.2921   24.9523 C   0  0  0  0  0  0  0  0  0  0  0  0
   11.2187  -15.2544   24.8062 O   0  0  0  0  0  0  0  0  0  0  0  0
   14.1694  -19.3055   22.8422 O   0  0  0  0  0  0  0  0  0  0  0  0
    9.8286  -16.5907   26.1506 N   0  0  0  0  0  0  0  0  0  0  0  0
   10.0829  -15.8516   27.3603 C   0  0  1  0  0  0  0  0  0  0  0  0
    8.7788  -15.3824   27.9100 C   0  0  0  0  0  0  0  0  0  0  0  0
    8.1076  -14.3446   27.0897 C   0  0  0  0  0  0  0  0  0  0  0  0
    8.5746  -13.0509   27.1125 C   0  0  0  0  0  0  0  0  0  0  0  0
    7.9445  -12.0942   26.3439 C   0  0  0  0  0  0  0  0  0  0  0  0
    6.8568  -12.3641   25.5419 C   0  0  0  0  0  0  0  0  0  0  0  0
    6.4025  -13.6630   25.5307 C   0  0  0  0  0  0  0  0  0  0  0  0
    7.0226  -14.6267   26.2930 C   0  0  0  0  0  0  0  0  0  0  0  0
   10.9073  -16.6437   28.2869 C   0  0  0  0  0  0  0  0  0  0  0  0
   11.4307  -16.0902   29.4454 O   0  0  0  0  0  0  0  0  0  0  0  0
   11.1622  -17.8478   28.0546 O   0  0  0  0  0  0  0  0  0  0  0  0
  2  1  1  0
  3  4  1  0
  3  2  1  0
  4  5  1  0
  5  6  1  1
  7  8  2  0
  7  5  1  0
  9  7  1  0
 10  9  1  0
 10 11  1  6
 12 13  1  0
 12 11  1  0
 13 14  2  0
 15 10  1  0
 16 15  2  0
 17 13  1  0
 18 15  1  0
 19 18  1  0
 19 20  1  1
 20 21  1  0
 21 26  2  0
 21 22  1  0
 22 23  2  0
 23 24  1  0
 25 24  2  0
 26 25  1  0
 27 19  1  0
 28 27  1  0
 29 27  2  0
M  END
$$$$
