MEF.pdb
     RDKit          3D

 29 29  0  0  1  0  0  0  0  0999 V2000
    7.4473  -11.7401   21.2076 C   0  0  0  0  0  0  0  0  0  0  0  0
    7.8346  -12.8959   19.8625 S   0  0  0  0  0  0  0  0  0  0  0  0
    7.7474  -14.5910   20.4155 C   0  0  0  0  0  0  0  0  0  0  0  0
    8.1338  -15.5924   19.3631 C   0  0  0  0  0  0  0  0  0  0  0  0
    8.1260  -17.0115   19.8774 C   0  0  2  0  0  0  0  0  0  0  0  0
    6.7754  -17.4903   20.1135 N   0  0  0  0  0  0  0  0  0  0  0  0
    8.8813  -17.1374   21.1512 C   0  0  0  0  0  0  0  0  0  0  0  0
    8.3279  -17.5527   22.2098 O   0  0  0  0  0  0  0  0  0  0  0  0
   10.2630  -16.7963   21.2387 N   0  0  0  0  0  0  0  0  0  0  0  0
   11.0442  -17.0665   22.4556 C   0  0  1  0  0  0  0  0  0  0  0  0
   12.4709  -16.8343   22.0922 C   0  0  0  0  0  0  0  0  0  0  0  0
   13.4646  -17.0114   23.1868 C   0  0  0  0  0  0  0  0  0  0  0  0
   14.8723  -16.8141   22.7759 C   0  0  0  0  0  0  0  0  0  0  0  0
   15.5383  -17.7058   22.1970 O   0  0  0  0  0  0  0  0  0  0  0  0
   10.6320  -16.0401   23.4585 C   0  0  0  0  0  0  0  0  0  0  0  0
   10.4645  -14.8725   23.0049 O   0  0  0  0  0  0  0  0  0  0  0  0
   15.4385  -15.5604   23.0691 O   0  0  0  0  0  0  0  0  0  0  0  0
   10.4457  -16.3673   24.8189 N   0  0  0  0  0  0  0  0  0  0  0  0
    9.6799  -15.5174   25.6939 C   0  0  1  0  0  0  0  0  0  0  0  0
    8.4857  -15.0261   24.9487 C   0  0  0  0  0  0  0  0  0  0  0  0
    7.6376  -14.0771   25.7107 C   0  0  0  0  0  0  0  0  0  0  0  0
    8.1797  -12.9016   26.1763 C   0  0  0  0  0  0  0  0  0  0  0  0
    7.3814  -12.0251   26.8816 C   0  0  0  0  0  0  0  0  0  0  0  0
    6.0510  -12.2630   27.1511 C   0  0  0  0  0  0  0  0  0  0  0  0
    5.5246  -13.4433   26.6782 C   0  0  0  0  0  0  0  0  0  0  0  0
    6.3106  -14.3260   25.9731 C   0  0  0  0  0  0  0  0  0  0  0  0
    9.3902  -16.2067   26.9615 C   0  0  0  0  0  0  0  0  0  0  0  0
    9.0991  -17.5619   26.9994 O   0  0  0  0  0  0  0  0  0  0  0  0
    9.3979  -15.5860   28.0493 O   0  0  0  0  0  0  0  0  0  0  0  0
  2  1  1  0
  3  4  1  0
  3  2  1  0
  4  5  1  0
  5  6  1  1
  7  8  2  0
  7  5  1  0
  9  7  1  0
 10  9  1  0
 10 11  1  6
 12 13  1  0
 12 11  1  0
 13 14  2  0
 15 10  1  0
 16 15  2  0
 17 13  1  0
 18 15  1  0
 19 18  1  0
 19 20  1  6
 20 21  1  0
 21 26  2  0
 21 22  1  0
 22 23  2  0
 23 24  1  0
 25 24  2  0
 26 25  1  0
 27 19  1  0
 28 27  1  0
 29 27  2  0
M  END
$$$$
