MEF.pdb
     RDKit          3D

 29 29  0  0  1  0  0  0  0  0999 V2000
    8.3778  -11.8619   20.5463 C   0  0  0  0  0  0  0  0  0  0  0  0
    7.1660  -12.3503   21.8065 S   0  0  0  0  0  0  0  0  0  0  0  0
    7.0167  -14.1260   21.9124 C   0  0  0  0  0  0  0  0  0  0  0  0
    7.6433  -14.8567   20.7577 C   0  0  0  0  0  0  0  0  0  0  0  0
    7.5887  -16.3566   20.9178 C   0  0  2  0  0  0  0  0  0  0  0  0
    6.2211  -16.8418   20.9753 N   0  0  0  0  0  0  0  0  0  0  0  0
    8.2805  -16.8015   22.1558 C   0  0  0  0  0  0  0  0  0  0  0  0
    7.6383  -17.2645   23.1420 O   0  0  0  0  0  0  0  0  0  0  0  0
    9.6982  -16.7269   22.2888 N   0  0  0  0  0  0  0  0  0  0  0  0
   10.4095  -17.4650   23.3440 C   0  0  1  0  0  0  0  0  0  0  0  0
   11.8377  -17.5184   22.9216 C   0  0  0  0  0  0  0  0  0  0  0  0
   12.1616  -18.4656   21.8194 C   0  0  0  0  0  0  0  0  0  0  0  0
   13.4753  -18.2357   21.1785 C   0  0  0  0  0  0  0  0  0  0  0  0
   14.5573  -18.3141   21.8086 O   0  0  0  0  0  0  0  0  0  0  0  0
   10.3065  -16.6361   24.5816 C   0  0  0  0  0  0  0  0  0  0  0  0
   10.8048  -15.4774   24.5037 O   0  0  0  0  0  0  0  0  0  0  0  0
   13.4548  -17.9199   19.8081 O   0  0  0  0  0  0  0  0  0  0  0  0
    9.6907  -17.1278   25.7528 N   0  0  0  0  0  0  0  0  0  0  0  0
    9.8512  -16.4595   27.0185 C   0  0  1  0  0  0  0  0  0  0  0  0
    8.5021  -16.0766   27.5247 C   0  0  0  0  0  0  0  0  0  0  0  0
    7.9757  -14.8086   26.9629 C   0  0  0  0  0  0  0  0  0  0  0  0
    6.7986  -14.8157   26.2510 C   0  0  0  0  0  0  0  0  0  0  0  0
    6.3168  -13.6305   25.7351 C   0  0  0  0  0  0  0  0  0  0  0  0
    6.9570  -12.4205   25.8942 C   0  0  0  0  0  0  0  0  0  0  0  0
    8.1330  -12.4311   26.6089 C   0  0  0  0  0  0  0  0  0  0  0  0
    8.6241  -13.6071   27.1288 C   0  0  0  0  0  0  0  0  0  0  0  0
   10.6583  -17.2783   27.9372 C   0  0  0  0  0  0  0  0  0  0  0  0
   11.1377  -18.5251   27.5656 O   0  0  0  0  0  0  0  0  0  0  0  0
   10.9371  -16.8707   29.0882 O   0  0  0  0  0  0  0  0  0  0  0  0
  2  1  1  0
  3  4  1  0
  3  2  1  0
  4  5  1  0
  5  6  1  1
  7  8  2  0
  7  5  1  0
  9  7  1  0
 10  9  1  0
 10 11  1  6
 12 13  1  0
 12 11  1  0
 13 14  2  0
 15 10  1  0
 16 15  2  0
 17 13  1  0
 18 15  1  0
 19 18  1  0
 19 20  1  1
 20 21  1  0
 21 26  2  0
 21 22  1  0
 22 23  2  0
 23 24  1  0
 25 24  2  0
 26 25  1  0
 27 19  1  0
 28 27  1  0
 29 27  2  0
M  END
$$$$
