MEF.pdb
     RDKit          3D

 29 29  0  0  1  0  0  0  0  0999 V2000
    8.3315  -11.9691   20.6562 C   0  0  0  0  0  0  0  0  0  0  0  0
    7.2880  -12.5837   19.3040 S   0  0  0  0  0  0  0  0  0  0  0  0
    6.6312  -14.2021   19.6727 C   0  0  0  0  0  0  0  0  0  0  0  0
    7.0142  -14.7162   21.0324 C   0  0  0  0  0  0  0  0  0  0  0  0
    8.4658  -15.1214   21.1153 C   0  0  2  0  0  0  0  0  0  0  0  0
    8.8773  -15.8878   19.9523 N   0  0  0  0  0  0  0  0  0  0  0  0
    8.7370  -15.9463   22.3215 C   0  0  0  0  0  0  0  0  0  0  0  0
    7.8146  -16.2636   23.1265 O   0  0  0  0  0  0  0  0  0  0  0  0
   10.0477  -16.4174   22.6268 N   0  0  0  0  0  0  0  0  0  0  0  0
   10.2865  -17.3589   23.7315 C   0  0  1  0  0  0  0  0  0  0  0  0
   11.6201  -17.9718   23.4728 C   0  0  0  0  0  0  0  0  0  0  0  0
   11.6992  -18.9096   22.3190 C   0  0  0  0  0  0  0  0  0  0  0  0
   13.0423  -19.4857   22.0871 C   0  0  0  0  0  0  0  0  0  0  0  0
   13.3394  -20.1056   21.0377 O   0  0  0  0  0  0  0  0  0  0  0  0
   10.3698  -16.5375   24.9756 C   0  0  0  0  0  0  0  0  0  0  0  0
   11.0765  -15.4932   24.8919 O   0  0  0  0  0  0  0  0  0  0  0  0
   13.9858  -19.3033   23.1141 O   0  0  0  0  0  0  0  0  0  0  0  0
    9.6985  -16.9152   26.1585 N   0  0  0  0  0  0  0  0  0  0  0  0
    9.8384  -16.1537   27.3729 C   0  0  1  0  0  0  0  0  0  0  0  0
    8.4858  -15.6962   27.8018 C   0  0  0  0  0  0  0  0  0  0  0  0
    8.0095  -14.4699   27.1163 C   0  0  0  0  0  0  0  0  0  0  0  0
    6.8342  -14.5016   26.4020 C   0  0  0  0  0  0  0  0  0  0  0  0
    6.3993  -13.3550   25.7704 C   0  0  0  0  0  0  0  0  0  0  0  0
    7.0852  -12.1604   25.8145 C   0  0  0  0  0  0  0  0  0  0  0  0
    8.2586  -12.1460   26.5332 C   0  0  0  0  0  0  0  0  0  0  0  0
    8.7032  -13.2835   27.1679 C   0  0  0  0  0  0  0  0  0  0  0  0
   10.5918  -16.9187   28.3793 C   0  0  0  0  0  0  0  0  0  0  0  0
   11.0733  -16.3201   29.5336 O   0  0  0  0  0  0  0  0  0  0  0  0
   10.8218  -18.1398   28.2217 O   0  0  0  0  0  0  0  0  0  0  0  0
  2  1  1  0
  3  4  1  0
  3  2  1  0
  4  5  1  0
  5  6  1  6
  7  8  2  0
  7  5  1  0
  9  7  1  0
 10  9  1  0
 10 11  1  6
 12 13  1  0
 12 11  1  0
 13 14  2  0
 15 10  1  0
 16 15  2  0
 17 13  1  0
 18 15  1  0
 19 18  1  0
 19 20  1  1
 20 21  1  0
 21 26  2  0
 21 22  1  0
 22 23  2  0
 23 24  1  0
 25 24  2  0
 26 25  1  0
 27 19  1  0
 28 27  1  0
 29 27  2  0
M  END
$$$$
