MEF.pdb
     RDKit          3D

 29 29  0  0  1  0  0  0  0  0999 V2000
    6.7296  -13.0527   26.2790 C   0  0  0  0  0  0  0  0  0  0  0  0
    7.4164  -12.1139   24.8854 S   0  0  0  0  0  0  0  0  0  0  0  0
    7.9739  -13.1984   23.5818 C   0  0  0  0  0  0  0  0  0  0  0  0
    6.8669  -13.9735   22.9233 C   0  0  0  0  0  0  0  0  0  0  0  0
    7.3694  -14.9179   21.8585 C   0  0  2  0  0  0  0  0  0  0  0  0
    6.2779  -15.6037   21.1894 N   0  0  0  0  0  0  0  0  0  0  0  0
    8.2751  -15.9512   22.4250 C   0  0  0  0  0  0  0  0  0  0  0  0
    7.8233  -16.9909   22.9856 O   0  0  0  0  0  0  0  0  0  0  0  0
    9.6934  -15.8184   22.3629 N   0  0  0  0  0  0  0  0  0  0  0  0
   10.5848  -16.9274   22.7367 C   0  0  1  0  0  0  0  0  0  0  0  0
   11.8126  -16.7701   21.9065 C   0  0  0  0  0  0  0  0  0  0  0  0
   12.8735  -17.7962   22.1021 C   0  0  0  0  0  0  0  0  0  0  0  0
   14.0549  -17.6324   21.2265 C   0  0  0  0  0  0  0  0  0  0  0  0
   14.0231  -17.8765   19.9963 O   0  0  0  0  0  0  0  0  0  0  0  0
   10.9450  -16.7147   24.1700 C   0  0  0  0  0  0  0  0  0  0  0  0
   10.9826  -15.5096   24.5487 O   0  0  0  0  0  0  0  0  0  0  0  0
   15.2346  -17.1832   21.8469 O   0  0  0  0  0  0  0  0  0  0  0  0
   11.2224  -17.7974   25.0321 N   0  0  0  0  0  0  0  0  0  0  0  0
   11.1976  -17.6385   26.4634 C   0  0  1  0  0  0  0  0  0  0  0  0
    9.8465  -17.1491   26.8608 C   0  0  0  0  0  0  0  0  0  0  0  0
    9.8499  -15.8325   27.5443 C   0  0  0  0  0  0  0  0  0  0  0  0
    9.4980  -14.7012   26.8452 C   0  0  0  0  0  0  0  0  0  0  0  0
    9.5023  -13.4823   27.4912 C   0  0  0  0  0  0  0  0  0  0  0  0
    9.8442  -13.3302   28.8176 C   0  0  0  0  0  0  0  0  0  0  0  0
   10.1935  -14.4718   29.5021 C   0  0  0  0  0  0  0  0  0  0  0  0
   10.1931  -15.6938   28.8689 C   0  0  0  0  0  0  0  0  0  0  0  0
   11.6395  -18.8744   27.1289 C   0  0  0  0  0  0  0  0  0  0  0  0
   12.0142  -19.9945   26.4025 O   0  0  0  0  0  0  0  0  0  0  0  0
   11.6899  -18.9514   28.3780 O   0  0  0  0  0  0  0  0  0  0  0  0
  2  1  1  0
  3  4  1  0
  3  2  1  0
  4  5  1  0
  5  6  1  1
  7  8  2  0
  7  5  1  0
  9  7  1  0
 10  9  1  0
 10 11  1  6
 12 13  1  0
 12 11  1  0
 13 14  2  0
 15 10  1  0
 16 15  2  0
 17 13  1  0
 18 15  1  0
 19 18  1  0
 19 20  1  1
 20 21  1  0
 21 26  2  0
 21 22  1  0
 22 23  2  0
 23 24  1  0
 25 24  2  0
 26 25  1  0
 27 19  1  0
 28 27  1  0
 29 27  2  0
M  END
$$$$
