MEF.pdb
     RDKit          3D

 29 29  0  0  1  0  0  0  0  0999 V2000
    6.3526  -12.3794   26.7962 C   0  0  0  0  0  0  0  0  0  0  0  0
    6.0506  -12.8930   25.0815 S   0  0  0  0  0  0  0  0  0  0  0  0
    7.3094  -14.0217   24.5088 C   0  0  0  0  0  0  0  0  0  0  0  0
    7.0716  -14.5394   23.1176 C   0  0  0  0  0  0  0  0  0  0  0  0
    8.2093  -15.3917   22.6100 C   0  0  2  0  0  0  0  0  0  0  0  0
    7.8981  -15.9946   21.3260 N   0  0  0  0  0  0  0  0  0  0  0  0
    8.5387  -16.4878   23.5581 C   0  0  0  0  0  0  0  0  0  0  0  0
    8.0906  -16.4961   24.7408 O   0  0  0  0  0  0  0  0  0  0  0  0
    9.3741  -17.5794   23.1790 N   0  0  0  0  0  0  0  0  0  0  0  0
   10.8392  -17.4960   23.2823 C   0  0  1  0  0  0  0  0  0  0  0  0
   11.2454  -16.3149   22.4691 C   0  0  0  0  0  0  0  0  0  0  0  0
   12.7098  -16.0781   22.3411 C   0  0  0  0  0  0  0  0  0  0  0  0
   13.3167  -16.6354   21.1121 C   0  0  0  0  0  0  0  0  0  0  0  0
   14.0210  -17.6736   21.1174 O   0  0  0  0  0  0  0  0  0  0  0  0
   11.1460  -17.2185   24.7169 C   0  0  0  0  0  0  0  0  0  0  0  0
   12.2700  -16.6856   24.9399 O   0  0  0  0  0  0  0  0  0  0  0  0
   13.0636  -15.9362   19.9182 O   0  0  0  0  0  0  0  0  0  0  0  0
   10.2316  -17.5360   25.7443 N   0  0  0  0  0  0  0  0  0  0  0  0
   10.6205  -17.4932   27.1304 C   0  0  1  0  0  0  0  0  0  0  0  0
    9.5650  -16.7692   27.8949 C   0  0  0  0  0  0  0  0  0  0  0  0
    9.6853  -15.2912   27.8533 C   0  0  0  0  0  0  0  0  0  0  0  0
   10.7872  -14.6816   28.4073 C   0  0  0  0  0  0  0  0  0  0  0  0
   10.8902  -13.3068   28.3609 C   0  0  0  0  0  0  0  0  0  0  0  0
    9.9378  -12.4958   27.7826 C   0  0  0  0  0  0  0  0  0  0  0  0
    8.8422  -13.1216   27.2332 C   0  0  0  0  0  0  0  0  0  0  0  0
    8.7278  -14.4926   27.2729 C   0  0  0  0  0  0  0  0  0  0  0  0
   10.9371  -18.8441   27.6209 C   0  0  0  0  0  0  0  0  0  0  0  0
   11.4514  -19.0518   28.8917 O   0  0  0  0  0  0  0  0  0  0  0  0
   10.7505  -19.8517   26.9005 O   0  0  0  0  0  0  0  0  0  0  0  0
  2  1  1  0
  3  4  1  0
  3  2  1  0
  4  5  1  0
  5  6  1  6
  7  8  2  0
  7  5  1  0
  9  7  1  0
 10  9  1  0
 10 11  1  6
 12 13  1  0
 12 11  1  0
 13 14  2  0
 15 10  1  0
 16 15  2  0
 17 13  1  0
 18 15  1  0
 19 18  1  0
 19 20  1  1
 20 21  1  0
 21 26  2  0
 21 22  1  0
 22 23  2  0
 23 24  1  0
 25 24  2  0
 26 25  1  0
 27 19  1  0
 28 27  1  0
 29 27  2  0
M  END
$$$$
