MEF.pdb
     RDKit          3D

 29 29  0  0  1  0  0  0  0  0999 V2000
    7.7431  -11.7938   20.9100 C   0  0  0  0  0  0  0  0  0  0  0  0
    7.6424  -12.4235   19.2104 S   0  0  0  0  0  0  0  0  0  0  0  0
    7.0809  -14.1177   19.1762 C   0  0  0  0  0  0  0  0  0  0  0  0
    7.1573  -14.8084   20.5093 C   0  0  0  0  0  0  0  0  0  0  0  0
    8.5773  -15.0423   20.9645 C   0  0  2  0  0  0  0  0  0  0  0  0
    9.3567  -15.7402   19.9572 N   0  0  0  0  0  0  0  0  0  0  0  0
    8.6274  -15.8455   22.2140 C   0  0  0  0  0  0  0  0  0  0  0  0
    7.7499  -15.7203   23.1161 O   0  0  0  0  0  0  0  0  0  0  0  0
    9.6656  -16.7930   22.4535 N   0  0  0  0  0  0  0  0  0  0  0  0
    9.6722  -17.6353   23.6595 C   0  0  1  0  0  0  0  0  0  0  0  0
   10.7798  -18.6153   23.4744 C   0  0  0  0  0  0  0  0  0  0  0  0
   10.9375  -19.6380   24.5451 C   0  0  0  0  0  0  0  0  0  0  0  0
   12.0660  -20.5727   24.3398 C   0  0  0  0  0  0  0  0  0  0  0  0
   13.2648  -20.2080   24.3997 O   0  0  0  0  0  0  0  0  0  0  0  0
   10.0144  -16.7355   24.8009 C   0  0  0  0  0  0  0  0  0  0  0  0
   11.0020  -15.9698   24.6132 O   0  0  0  0  0  0  0  0  0  0  0  0
   11.7272  -21.9109   24.0698 O   0  0  0  0  0  0  0  0  0  0  0  0
    9.2745  -16.7507   26.0029 N   0  0  0  0  0  0  0  0  0  0  0  0
    9.6907  -15.9801   27.1463 C   0  0  1  0  0  0  0  0  0  0  0  0
    8.5095  -15.2357   27.6694 C   0  0  0  0  0  0  0  0  0  0  0  0
    8.0875  -14.0895   26.8275 C   0  0  0  0  0  0  0  0  0  0  0  0
    8.8733  -12.9620   26.7684 C   0  0  0  0  0  0  0  0  0  0  0  0
    8.4727  -11.9029   25.9805 C   0  0  0  0  0  0  0  0  0  0  0  0
    7.3121  -11.9094   25.2374 C   0  0  0  0  0  0  0  0  0  0  0  0
    6.5378  -13.0449   25.3078 C   0  0  0  0  0  0  0  0  0  0  0  0
    6.9266  -14.1083   26.0902 C   0  0  0  0  0  0  0  0  0  0  0  0
   10.3778  -16.8372   28.1256 C   0  0  0  0  0  0  0  0  0  0  0  0
   10.5090  -18.2032   27.9270 O   0  0  0  0  0  0  0  0  0  0  0  0
   10.8665  -16.3553   29.1733 O   0  0  0  0  0  0  0  0  0  0  0  0
  2  1  1  0
  3  4  1  0
  3  2  1  0
  4  5  1  0
  5  6  1  6
  7  8  2  0
  7  5  1  0
  9  7  1  0
 10  9  1  0
 10 11  1  6
 12 13  1  0
 12 11  1  0
 13 14  2  0
 15 10  1  0
 16 15  2  0
 17 13  1  0
 18 15  1  0
 19 18  1  0
 19 20  1  1
 20 21  1  0
 21 26  2  0
 21 22  1  0
 22 23  2  0
 23 24  1  0
 25 24  2  0
 26 25  1  0
 27 19  1  0
 28 27  1  0
 29 27  2  0
M  END
$$$$
