MEF.pdb
     RDKit          3D

 29 29  0  0  1  0  0  0  0  0999 V2000
    8.6270  -11.9885   20.3013 C   0  0  0  0  0  0  0  0  0  0  0  0
    7.2393  -12.5281   21.3398 S   0  0  0  0  0  0  0  0  0  0  0  0
    7.1242  -14.3085   21.3986 C   0  0  0  0  0  0  0  0  0  0  0  0
    7.5763  -14.9870   20.1356 C   0  0  0  0  0  0  0  0  0  0  0  0
    7.5098  -16.4922   20.2262 C   0  0  2  0  0  0  0  0  0  0  0  0
    6.1384  -16.9689   20.2596 N   0  0  0  0  0  0  0  0  0  0  0  0
    8.1962  -16.9992   21.4431 C   0  0  0  0  0  0  0  0  0  0  0  0
    7.5681  -17.6276   22.3432 O   0  0  0  0  0  0  0  0  0  0  0  0
    9.5927  -16.8009   21.6520 N   0  0  0  0  0  0  0  0  0  0  0  0
   10.3091  -17.4798   22.7429 C   0  0  1  0  0  0  0  0  0  0  0  0
   11.7374  -17.5466   22.3222 C   0  0  0  0  0  0  0  0  0  0  0  0
   12.7274  -16.9524   23.2623 C   0  0  0  0  0  0  0  0  0  0  0  0
   13.9796  -17.7275   23.4058 C   0  0  0  0  0  0  0  0  0  0  0  0
   15.1084  -17.2395   23.1576 O   0  0  0  0  0  0  0  0  0  0  0  0
   10.2024  -16.5891   23.9365 C   0  0  0  0  0  0  0  0  0  0  0  0
   10.1817  -15.3496   23.6906 O   0  0  0  0  0  0  0  0  0  0  0  0
   13.8439  -19.0583   23.8405 O   0  0  0  0  0  0  0  0  0  0  0  0
   10.1302  -17.1114   25.2459 N   0  0  0  0  0  0  0  0  0  0  0  0
    9.5325  -16.3590   26.3187 C   0  0  1  0  0  0  0  0  0  0  0  0
    8.1676  -15.9346   25.8945 C   0  0  0  0  0  0  0  0  0  0  0  0
    7.9269  -14.4735   25.9829 C   0  0  0  0  0  0  0  0  0  0  0  0
    8.9422  -13.6392   26.3896 C   0  0  0  0  0  0  0  0  0  0  0  0
    8.7082  -12.2818   26.4658 C   0  0  0  0  0  0  0  0  0  0  0  0
    7.4966  -11.7043   26.1531 C   0  0  0  0  0  0  0  0  0  0  0  0
    6.4919  -12.5530   25.7480 C   0  0  0  0  0  0  0  0  0  0  0  0
    6.7129  -13.9091   25.6678 C   0  0  0  0  0  0  0  0  0  0  0  0
    9.5919  -17.1177   27.5783 C   0  0  0  0  0  0  0  0  0  0  0  0
    9.7659  -16.4833   28.7989 O   0  0  0  0  0  0  0  0  0  0  0  0
    9.4867  -18.3658   27.5848 O   0  0  0  0  0  0  0  0  0  0  0  0
  2  1  1  0
  3  4  1  0
  3  2  1  0
  4  5  1  0
  5  6  1  1
  7  8  2  0
  7  5  1  0
  9  7  1  0
 10  9  1  0
 10 11  1  6
 12 13  1  0
 12 11  1  0
 13 14  2  0
 15 10  1  0
 16 15  2  0
 17 13  1  0
 18 15  1  0
 19 18  1  0
 19 20  1  6
 20 21  1  0
 21 26  2  0
 21 22  1  0
 22 23  2  0
 23 24  1  0
 25 24  2  0
 26 25  1  0
 27 19  1  0
 28 27  1  0
 29 27  2  0
M  END
$$$$
