MEF.pdb
     RDKit          3D

 29 29  0  0  1  0  0  0  0  0999 V2000
    7.5303  -13.8346   16.2389 C   0  0  0  0  0  0  0  0  0  0  0  0
    6.7141  -13.7164   17.8560 S   0  0  0  0  0  0  0  0  0  0  0  0
    7.8884  -13.8750   19.1910 C   0  0  0  0  0  0  0  0  0  0  0  0
    7.2619  -13.8372   20.5570 C   0  0  0  0  0  0  0  0  0  0  0  0
    8.2842  -13.8147   21.6672 C   0  0  2  0  0  0  0  0  0  0  0  0
    9.6266  -13.5972   21.1577 N   0  0  0  0  0  0  0  0  0  0  0  0
    8.2902  -15.0884   22.4330 C   0  0  0  0  0  0  0  0  0  0  0  0
    7.2393  -15.5411   22.9716 O   0  0  0  0  0  0  0  0  0  0  0  0
    9.4795  -15.8580   22.5959 N   0  0  0  0  0  0  0  0  0  0  0  0
    9.4981  -17.0758   23.4209 C   0  0  1  0  0  0  0  0  0  0  0  0
   10.6299  -17.9025   22.9140 C   0  0  0  0  0  0  0  0  0  0  0  0
   10.4297  -18.5468   21.5867 C   0  0  0  0  0  0  0  0  0  0  0  0
   11.6371  -18.5799   20.7320 C   0  0  0  0  0  0  0  0  0  0  0  0
   12.4395  -19.5443   20.7334 O   0  0  0  0  0  0  0  0  0  0  0  0
    9.8110  -16.6375   24.8135 C   0  0  0  0  0  0  0  0  0  0  0  0
   10.8041  -15.8647   24.9307 O   0  0  0  0  0  0  0  0  0  0  0  0
   11.8472  -17.4621   19.9045 O   0  0  0  0  0  0  0  0  0  0  0  0
    9.0398  -17.0660   25.9154 N   0  0  0  0  0  0  0  0  0  0  0  0
    9.3526  -16.6431   27.2562 C   0  0  1  0  0  0  0  0  0  0  0  0
    8.1377  -16.0133   27.8482 C   0  0  0  0  0  0  0  0  0  0  0  0
    7.7723  -14.7070   27.2478 C   0  0  0  0  0  0  0  0  0  0  0  0
    6.6790  -14.6210   26.4173 C   0  0  0  0  0  0  0  0  0  0  0  0
    6.3466  -13.4008   25.8663 C   0  0  0  0  0  0  0  0  0  0  0  0
    7.0580  -12.2445   26.1037 C   0  0  0  0  0  0  0  0  0  0  0  0
    8.1486  -12.3481   26.9367 C   0  0  0  0  0  0  0  0  0  0  0  0
    8.4904  -13.5598   27.4927 C   0  0  0  0  0  0  0  0  0  0  0  0
    9.9239  -17.7569   28.0300 C   0  0  0  0  0  0  0  0  0  0  0  0
   10.5732  -17.5433   29.2363 O   0  0  0  0  0  0  0  0  0  0  0  0
    9.8402  -18.9371   27.6191 O   0  0  0  0  0  0  0  0  0  0  0  0
  2  1  1  0
  3  4  1  0
  3  2  1  0
  4  5  1  0
  5  6  1  6
  7  8  2  0
  7  5  1  0
  9  7  1  0
 10  9  1  0
 10 11  1  6
 12 13  1  0
 12 11  1  0
 13 14  2  0
 15 10  1  0
 16 15  2  0
 17 13  1  0
 18 15  1  0
 19 18  1  0
 19 20  1  1
 20 21  1  0
 21 26  2  0
 21 22  1  0
 22 23  2  0
 23 24  1  0
 25 24  2  0
 26 25  1  0
 27 19  1  0
 28 27  1  0
 29 27  2  0
M  END
$$$$
