MEF.pdb
     RDKit          3D

 29 29  0  0  1  0  0  0  0  0999 V2000
    6.0604  -13.9953   16.6791 C   0  0  0  0  0  0  0  0  0  0  0  0
    7.7688  -13.4211   16.8953 S   0  0  0  0  0  0  0  0  0  0  0  0
    8.1748  -13.2212   18.6221 C   0  0  0  0  0  0  0  0  0  0  0  0
    7.1911  -13.8708   19.5550 C   0  0  0  0  0  0  0  0  0  0  0  0
    7.5824  -13.7295   21.0059 C   0  0  2  0  0  0  0  0  0  0  0  0
    8.7691  -12.9076   21.1651 N   0  0  0  0  0  0  0  0  0  0  0  0
    7.8575  -15.0496   21.6308 C   0  0  0  0  0  0  0  0  0  0  0  0
    6.9422  -15.9067   21.7958 O   0  0  0  0  0  0  0  0  0  0  0  0
    9.1642  -15.4107   22.0727 N   0  0  0  0  0  0  0  0  0  0  0  0
    9.4183  -16.6917   22.7498 C   0  0  1  0  0  0  0  0  0  0  0  0
   10.7669  -17.1384   22.2989 C   0  0  0  0  0  0  0  0  0  0  0  0
   11.2537  -18.4280   22.8618 C   0  0  0  0  0  0  0  0  0  0  0  0
   12.5929  -18.8391   22.3855 C   0  0  0  0  0  0  0  0  0  0  0  0
   13.4745  -19.2907   23.1554 O   0  0  0  0  0  0  0  0  0  0  0  0
    9.4766  -16.3923   24.2114 C   0  0  0  0  0  0  0  0  0  0  0  0
   10.2507  -15.4502   24.5435 O   0  0  0  0  0  0  0  0  0  0  0  0
   12.8359  -18.6981   21.0073 O   0  0  0  0  0  0  0  0  0  0  0  0
    8.7121  -17.1215   25.1475 N   0  0  0  0  0  0  0  0  0  0  0  0
    8.8340  -16.8801   26.5621 C   0  0  1  0  0  0  0  0  0  0  0  0
    7.5509  -16.3023   27.0548 C   0  0  0  0  0  0  0  0  0  0  0  0
    7.4277  -14.8363   26.8644 C   0  0  0  0  0  0  0  0  0  0  0  0
    8.3800  -13.9979   27.3961 C   0  0  0  0  0  0  0  0  0  0  0  0
    8.2571  -12.6365   27.2111 C   0  0  0  0  0  0  0  0  0  0  0  0
    7.2187  -12.0586   26.5132 C   0  0  0  0  0  0  0  0  0  0  0  0
    6.2750  -12.9114   25.9878 C   0  0  0  0  0  0  0  0  0  0  0  0
    6.3864  -14.2716   26.1655 C   0  0  0  0  0  0  0  0  0  0  0  0
    9.2839  -18.0964   27.2577 C   0  0  0  0  0  0  0  0  0  0  0  0
    9.4588  -19.2947   26.5824 O   0  0  0  0  0  0  0  0  0  0  0  0
    9.5230  -18.0849   28.4871 O   0  0  0  0  0  0  0  0  0  0  0  0
  2  1  1  0
  3  4  1  0
  3  2  1  0
  4  5  1  0
  5  6  1  6
  7  8  2  0
  7  5  1  0
  9  7  1  0
 10  9  1  0
 10 11  1  6
 12 13  1  0
 12 11  1  0
 13 14  2  0
 15 10  1  0
 16 15  2  0
 17 13  1  0
 18 15  1  0
 19 18  1  0
 19 20  1  1
 20 21  1  0
 21 26  2  0
 21 22  1  0
 22 23  2  0
 23 24  1  0
 25 24  2  0
 26 25  1  0
 27 19  1  0
 28 27  1  0
 29 27  2  0
M  END
$$$$
