MEF.pdb
     RDKit          3D

 29 29  0  0  1  0  0  0  0  0999 V2000
    7.9321  -11.4766   20.9305 C   0  0  0  0  0  0  0  0  0  0  0  0
    7.3496  -12.4896   19.5414 S   0  0  0  0  0  0  0  0  0  0  0  0
    6.5037  -13.9538   20.1132 C   0  0  0  0  0  0  0  0  0  0  0  0
    7.1925  -14.6436   21.2577 C   0  0  0  0  0  0  0  0  0  0  0  0
    7.7575  -15.9893   20.8727 C   0  0  2  0  0  0  0  0  0  0  0  0
    6.7193  -16.8995   20.4226 N   0  0  0  0  0  0  0  0  0  0  0  0
    8.4637  -16.6335   22.0109 C   0  0  0  0  0  0  0  0  0  0  0  0
    7.8445  -17.3362   22.8607 O   0  0  0  0  0  0  0  0  0  0  0  0
    9.8699  -16.4892   22.1972 N   0  0  0  0  0  0  0  0  0  0  0  0
   10.5919  -17.2640   23.2183 C   0  0  1  0  0  0  0  0  0  0  0  0
   12.0381  -17.1557   22.8750 C   0  0  0  0  0  0  0  0  0  0  0  0
   12.9796  -17.9014   23.7551 C   0  0  0  0  0  0  0  0  0  0  0  0
   14.0005  -18.6915   23.0321 C   0  0  0  0  0  0  0  0  0  0  0  0
   13.9603  -19.9434   22.9607 O   0  0  0  0  0  0  0  0  0  0  0  0
   10.3550  -16.5711   24.5196 C   0  0  0  0  0  0  0  0  0  0  0  0
   10.7887  -15.3864   24.5922 O   0  0  0  0  0  0  0  0  0  0  0  0
   15.0352  -17.9625   22.4185 O   0  0  0  0  0  0  0  0  0  0  0  0
    9.6896  -17.2099   25.5880 N   0  0  0  0  0  0  0  0  0  0  0  0
    9.6516  -16.6229   26.9027 C   0  0  1  0  0  0  0  0  0  0  0  0
    8.2663  -16.1370   27.1630 C   0  0  0  0  0  0  0  0  0  0  0  0
    8.0279  -14.7280   26.7651 C   0  0  0  0  0  0  0  0  0  0  0  0
    8.8735  -13.7407   27.2152 C   0  0  0  0  0  0  0  0  0  0  0  0
    8.6441  -12.4340   26.8371 C   0  0  0  0  0  0  0  0  0  0  0  0
    7.5999  -12.0547   26.0215 C   0  0  0  0  0  0  0  0  0  0  0  0
    6.7637  -13.0546   25.5802 C   0  0  0  0  0  0  0  0  0  0  0  0
    6.9821  -14.3621   25.9503 C   0  0  0  0  0  0  0  0  0  0  0  0
   10.1878  -17.5595   27.9032 C   0  0  0  0  0  0  0  0  0  0  0  0
   10.3934  -17.1747   29.2193 O   0  0  0  0  0  0  0  0  0  0  0  0
   10.4761  -18.7384   27.5934 O   0  0  0  0  0  0  0  0  0  0  0  0
  2  1  1  0
  3  4  1  0
  3  2  1  0
  4  5  1  0
  5  6  1  1
  7  8  2  0
  7  5  1  0
  9  7  1  0
 10  9  1  0
 10 11  1  6
 12 13  1  0
 12 11  1  0
 13 14  2  0
 15 10  1  0
 16 15  2  0
 17 13  1  0
 18 15  1  0
 19 18  1  0
 19 20  1  1
 20 21  1  0
 21 26  2  0
 21 22  1  0
 22 23  2  0
 23 24  1  0
 25 24  2  0
 26 25  1  0
 27 19  1  0
 28 27  1  0
 29 27  2  0
M  END
$$$$
