MEF.pdb
     RDKit          3D

 29 29  0  0  1  0  0  0  0  0999 V2000
    6.9589  -10.9678   21.5681 C   0  0  0  0  0  0  0  0  0  0  0  0
    8.1465  -12.0191   20.6851 S   0  0  0  0  0  0  0  0  0  0  0  0
    7.7190  -13.7463   20.8284 C   0  0  0  0  0  0  0  0  0  0  0  0
    8.6855  -14.6690   20.1396 C   0  0  0  0  0  0  0  0  0  0  0  0
    8.3143  -16.1238   20.2944 C   0  0  2  0  0  0  0  0  0  0  0  0
    6.9796  -16.3947   19.7902 N   0  0  0  0  0  0  0  0  0  0  0  0
    8.3578  -16.5525   21.7168 C   0  0  0  0  0  0  0  0  0  0  0  0
    7.3014  -16.8141   22.3611 O   0  0  0  0  0  0  0  0  0  0  0  0
    9.5907  -16.6885   22.4201 N   0  0  0  0  0  0  0  0  0  0  0  0
    9.6939  -17.5111   23.6353 C   0  0  1  0  0  0  0  0  0  0  0  0
   10.8520  -18.4244   23.4203 C   0  0  0  0  0  0  0  0  0  0  0  0
   10.5946  -19.6239   22.5766 C   0  0  0  0  0  0  0  0  0  0  0  0
   11.0818  -20.8963   23.1536 C   0  0  0  0  0  0  0  0  0  0  0  0
   11.7439  -20.9457   24.2180 O   0  0  0  0  0  0  0  0  0  0  0  0
   10.0223  -16.5755   24.7516 C   0  0  0  0  0  0  0  0  0  0  0  0
   10.8532  -15.6653   24.4724 O   0  0  0  0  0  0  0  0  0  0  0  0
   10.7631  -22.0671   22.4422 O   0  0  0  0  0  0  0  0  0  0  0  0
    9.4355  -16.7115   26.0282 N   0  0  0  0  0  0  0  0  0  0  0  0
    9.8810  -15.9172   27.1440 C   0  0  1  0  0  0  0  0  0  0  0  0
    8.6831  -15.3617   27.8363 C   0  0  0  0  0  0  0  0  0  0  0  0
    8.0299  -14.2382   27.1210 C   0  0  0  0  0  0  0  0  0  0  0  0
    6.8085  -14.4324   26.5188 C   0  0  0  0  0  0  0  0  0  0  0  0
    6.2088  -13.3802   25.8583 C   0  0  0  0  0  0  0  0  0  0  0  0
    6.7719  -12.1257   25.7655 C   0  0  0  0  0  0  0  0  0  0  0  0
    7.9937  -11.9486   26.3734 C   0  0  0  0  0  0  0  0  0  0  0  0
    8.6022  -12.9905   27.0355 C   0  0  0  0  0  0  0  0  0  0  0  0
   10.7976  -16.6909   27.9967 C   0  0  0  0  0  0  0  0  0  0  0  0
   11.4976  -16.0957   29.0350 O   0  0  0  0  0  0  0  0  0  0  0  0
   10.9735  -17.9166   27.8081 O   0  0  0  0  0  0  0  0  0  0  0  0
  2  1  1  0
  3  4  1  0
  3  2  1  0
  4  5  1  0
  5  6  1  1
  7  8  2  0
  7  5  1  0
  9  7  1  0
 10  9  1  0
 10 11  1  6
 12 13  1  0
 12 11  1  0
 13 14  2  0
 15 10  1  0
 16 15  2  0
 17 13  1  0
 18 15  1  0
 19 18  1  0
 19 20  1  1
 20 21  1  0
 21 26  2  0
 21 22  1  0
 22 23  2  0
 23 24  1  0
 25 24  2  0
 26 25  1  0
 27 19  1  0
 28 27  1  0
 29 27  2  0
M  END
$$$$
