LMW.pdb
     RDKit          3D

 31 32  0  0  1  0  0  0  0  0999 V2000
   10.5180  -19.1842   16.5341 C   0  0  0  0  0  0  0  0  0  0  0  0
    9.4769  -18.1009   16.8098 C   0  0  2  0  0  0  0  0  0  0  0  0
    9.4146  -17.2174   15.5987 C   0  0  0  0  0  0  0  0  0  0  0  0
    9.8732  -17.3612   18.0460 C   0  0  0  0  0  0  0  0  0  0  0  0
    9.8937  -18.1915   19.3018 C   0  0  2  0  0  0  0  0  0  0  0  0
    8.6667  -18.9888   19.4026 N   0  0  0  0  0  0  0  0  0  0  0  0
   10.0016  -17.3869   20.5417 C   0  0  0  0  0  0  0  0  0  0  0  0
   11.0131  -16.6602   20.6890 O   0  0  0  0  0  0  0  0  0  0  0  0
    6.4707  -13.8465   26.5983 C   0  0  0  0  0  0  0  0  0  0  0  0
    6.2775  -15.1173   25.3433 S   0  0  0  0  0  0  0  0  0  0  0  0
    7.9071  -15.5742   24.6938 C   0  0  0  0  0  0  0  0  0  0  0  0
    7.7746  -16.3752   23.4159 C   0  0  0  0  0  0  0  0  0  0  0  0
    9.1219  -16.6140   22.7661 C   0  0  2  0  0  0  0  0  0  0  0  0
    8.9869  -17.4211   21.5629 N   0  0  0  0  0  0  0  0  0  0  0  0
    9.9496  -17.3402   23.7586 C   0  0  0  0  0  0  0  0  0  0  0  0
    9.8828  -18.5823   23.7972 O   0  0  0  0  0  0  0  0  0  0  0  0
   10.7960  -16.6427   24.6409 N   0  0  0  0  0  0  0  0  0  0  0  0
   11.7067  -17.3556   25.5496 C   0  0  1  0  0  0  0  0  0  0  0  0
   12.3778  -16.3192   26.3643 C   0  0  0  0  0  0  0  0  0  0  0  0
   11.5875  -15.6652   27.4062 C   0  0  0  0  0  0  0  0  0  0  0  0
   11.4632  -16.0667   28.7366 C   0  0  0  0  0  0  0  0  0  0  0  0
   10.6214  -15.2205   29.3400 N   0  0  0  0  0  0  0  0  0  0  0  0
   10.1872  -14.2851   28.4778 C   0  0  0  0  0  0  0  0  0  0  0  0
    9.3357  -13.2121   28.6430 C   0  0  0  0  0  0  0  0  0  0  0  0
    9.1021  -12.4044   27.5362 C   0  0  0  0  0  0  0  0  0  0  0  0
    9.6861  -12.6504   26.3225 C   0  0  0  0  0  0  0  0  0  0  0  0
   10.5307  -13.7241   26.1763 C   0  0  0  0  0  0  0  0  0  0  0  0
   10.7900  -14.5569   27.2586 C   0  0  0  0  0  0  0  0  0  0  0  0
   11.0321  -18.3725   26.3333 C   0  0  0  0  0  0  0  0  0  0  0  0
    9.7913  -18.4113   26.5577 O   0  0  0  0  0  0  0  0  0  0  0  0
   11.7788  -19.4146   26.8974 O   0  0  0  0  0  0  0  0  0  0  0  0
  2  1  1  6
  2  3  1  0
  4  2  1  0
  5  4  1  0
  5  6  1  1
  7  5  1  0
  7  8  2  0
  9 10  1  0
 10 11  1  0
 11 12  1  0
 13 12  1  1
 13 14  1  0
 14  7  1  0
 15 13  1  0
 16 15  2  0
 17 15  1  0
 18 17  1  0
 18 19  1  1
 19 20  1  0
 20 28  1  0
 20 21  2  0
 21 22  1  0
 23 24  2  0
 23 22  1  0
 25 24  1  0
 26 25  2  0
 27 26  1  0
 27 28  2  0
 28 23  1  0
 29 18  1  0
 30 29  2  0
 31 29  1  0
M  END
$$$$
