LMW.pdb
     RDKit          3D

 31 32  0  0  1  0  0  0  0  0999 V2000
    8.9444  -12.9626   18.7356 C   0  0  0  0  0  0  0  0  0  0  0  0
    7.6619  -13.2549   19.5124 C   0  0  2  0  0  0  0  0  0  0  0  0
    7.1786  -11.9566   20.0886 C   0  0  0  0  0  0  0  0  0  0  0  0
    7.9607  -14.2774   20.5600 C   0  0  0  0  0  0  0  0  0  0  0  0
    8.3029  -15.6449   20.0309 C   0  0  2  0  0  0  0  0  0  0  0  0
    7.1395  -16.2350   19.3603 N   0  0  0  0  0  0  0  0  0  0  0  0
    8.7365  -16.5950   21.0825 C   0  0  0  0  0  0  0  0  0  0  0  0
    7.8541  -17.1372   21.7899 O   0  0  0  0  0  0  0  0  0  0  0  0
   14.7623  -19.1842   21.7196 C   0  0  0  0  0  0  0  0  0  0  0  0
   13.8322  -20.1720   22.8970 S   0  0  0  0  0  0  0  0  0  0  0  0
   12.2618  -19.3458   23.2675 C   0  0  0  0  0  0  0  0  0  0  0  0
   11.8456  -18.4397   22.1283 C   0  0  0  0  0  0  0  0  0  0  0  0
   10.5244  -17.7562   22.4144 C   0  0  2  0  0  0  0  0  0  0  0  0
   10.1253  -16.9034   21.3050 N   0  0  0  0  0  0  0  0  0  0  0  0
   10.7283  -16.9279   23.6267 C   0  0  0  0  0  0  0  0  0  0  0  0
   11.5794  -16.0206   23.5936 O   0  0  0  0  0  0  0  0  0  0  0  0
    9.9757  -17.1589   24.7936 N   0  0  0  0  0  0  0  0  0  0  0  0
   10.4511  -16.7093   26.1108 C   0  0  1  0  0  0  0  0  0  0  0  0
   10.0057  -15.3064   26.2579 C   0  0  0  0  0  0  0  0  0  0  0  0
    8.5706  -15.0422   26.1648 C   0  0  0  0  0  0  0  0  0  0  0  0
    7.5624  -15.9771   25.9281 C   0  0  0  0  0  0  0  0  0  0  0  0
    6.3995  -15.3182   25.8809 N   0  0  0  0  0  0  0  0  0  0  0  0
    6.5899  -14.0017   26.0746 C   0  0  0  0  0  0  0  0  0  0  0  0
    5.7030  -12.9462   26.1274 C   0  0  0  0  0  0  0  0  0  0  0  0
    6.2268  -11.6819   26.3709 C   0  0  0  0  0  0  0  0  0  0  0  0
    7.5679  -11.4752   26.5532 C   0  0  0  0  0  0  0  0  0  0  0  0
    8.4365  -12.5383   26.4964 C   0  0  0  0  0  0  0  0  0  0  0  0
    7.9529  -13.8187   26.2543 C   0  0  0  0  0  0  0  0  0  0  0  0
   10.0183  -17.5784   27.1882 C   0  0  0  0  0  0  0  0  0  0  0  0
    9.2053  -18.5353   27.0665 O   0  0  0  0  0  0  0  0  0  0  0  0
   10.5235  -17.3783   28.4790 O   0  0  0  0  0  0  0  0  0  0  0  0
  2  1  1  1
  2  3  1  0
  4  2  1  0
  5  4  1  0
  5  6  1  1
  7  5  1  0
  7  8  2  0
  9 10  1  0
 10 11  1  0
 11 12  1  0
 13 12  1  6
 13 14  1  0
 14  7  1  0
 15 13  1  0
 16 15  2  0
 17 15  1  0
 18 17  1  0
 18 19  1  1
 19 20  1  0
 20 28  1  0
 20 21  2  0
 21 22  1  0
 23 24  2  0
 23 22  1  0
 25 24  1  0
 26 25  2  0
 27 26  1  0
 27 28  2  0
 28 23  1  0
 29 18  1  0
 30 29  2  0
 31 29  1  0
M  END
$$$$
