LMW.pdb
     RDKit          3D

 31 32  0  0  1  0  0  0  0  0999 V2000
    9.5192  -13.7151   19.1244 C   0  0  0  0  0  0  0  0  0  0  0  0
    8.0867  -13.3743   19.5311 C   0  0  2  0  0  0  0  0  0  0  0  0
    8.0545  -11.9175   19.8886 C   0  0  0  0  0  0  0  0  0  0  0  0
    7.6901  -14.2582   20.6685 C   0  0  0  0  0  0  0  0  0  0  0  0
    7.6781  -15.7303   20.3524 C   0  0  2  0  0  0  0  0  0  0  0  0
    6.4265  -16.0944   19.6800 N   0  0  0  0  0  0  0  0  0  0  0  0
    7.8044  -16.5940   21.5501 C   0  0  0  0  0  0  0  0  0  0  0  0
    6.8224  -16.6766   22.3259 O   0  0  0  0  0  0  0  0  0  0  0  0
   11.0932  -22.5373   25.4851 C   0  0  0  0  0  0  0  0  0  0  0  0
   11.0231  -21.6282   23.9373 S   0  0  0  0  0  0  0  0  0  0  0  0
   10.1727  -20.0498   24.2046 C   0  0  0  0  0  0  0  0  0  0  0  0
    9.9166  -19.3441   22.8898 C   0  0  0  0  0  0  0  0  0  0  0  0
    9.1543  -18.0507   23.0911 C   0  0  2  0  0  0  0  0  0  0  0  0
    9.0098  -17.3277   21.8367 N   0  0  0  0  0  0  0  0  0  0  0  0
    9.9451  -17.2354   24.0437 C   0  0  0  0  0  0  0  0  0  0  0  0
   11.0641  -16.8218   23.6897 O   0  0  0  0  0  0  0  0  0  0  0  0
    9.4436  -16.9321   25.3235 N   0  0  0  0  0  0  0  0  0  0  0  0
   10.2822  -16.2732   26.3363 C   0  0  1  0  0  0  0  0  0  0  0  0
    9.8228  -14.8690   26.4081 C   0  0  0  0  0  0  0  0  0  0  0  0
    8.4004  -14.6135   26.1857 C   0  0  0  0  0  0  0  0  0  0  0  0
    7.4163  -15.5599   25.8986 C   0  0  0  0  0  0  0  0  0  0  0  0
    6.2610  -14.9074   25.7308 N   0  0  0  0  0  0  0  0  0  0  0  0
    6.4335  -13.5842   25.8929 C   0  0  0  0  0  0  0  0  0  0  0  0
    5.5446  -12.5307   25.8337 C   0  0  0  0  0  0  0  0  0  0  0  0
    6.0451  -11.2568   26.0754 C   0  0  0  0  0  0  0  0  0  0  0  0
    7.3660  -11.0388   26.3620 C   0  0  0  0  0  0  0  0  0  0  0  0
    8.2372  -12.1000   26.4160 C   0  0  0  0  0  0  0  0  0  0  0  0
    7.7765  -13.3900   26.1797 C   0  0  0  0  0  0  0  0  0  0  0  0
   10.2639  -16.9626   27.6122 C   0  0  0  0  0  0  0  0  0  0  0  0
    9.5004  -17.9224   27.9075 O   0  0  0  0  0  0  0  0  0  0  0  0
   11.1519  -16.5676   28.6206 O   0  0  0  0  0  0  0  0  0  0  0  0
  2  1  1  1
  2  3  1  0
  4  2  1  0
  5  4  1  0
  5  6  1  1
  7  5  1  0
  7  8  2  0
  9 10  1  0
 10 11  1  0
 11 12  1  0
 13 12  1  6
 13 14  1  0
 14  7  1  0
 15 13  1  0
 16 15  2  0
 17 15  1  0
 18 17  1  0
 18 19  1  1
 19 20  1  0
 20 28  1  0
 20 21  2  0
 21 22  1  0
 23 24  2  0
 23 22  1  0
 25 24  1  0
 26 25  2  0
 27 26  1  0
 27 28  2  0
 28 23  1  0
 29 18  1  0
 30 29  2  0
 31 29  1  0
M  END
$$$$
