LMW.pdb
     RDKit          3D

 31 32  0  0  1  0  0  0  0  0999 V2000
    5.9487  -20.5431   24.3772 C   0  0  0  0  0  0  0  0  0  0  0  0
    7.3720  -21.0974   24.3528 C   0  0  2  0  0  0  0  0  0  0  0  0
    7.8125  -21.2703   25.7766 C   0  0  0  0  0  0  0  0  0  0  0  0
    8.2400  -20.1508   23.5894 C   0  0  0  0  0  0  0  0  0  0  0  0
    7.7520  -19.8210   22.2037 C   0  0  2  0  0  0  0  0  0  0  0  0
    8.0230  -20.9371   21.2916 N   0  0  0  0  0  0  0  0  0  0  0  0
    8.3856  -18.6127   21.6249 C   0  0  0  0  0  0  0  0  0  0  0  0
    9.5018  -18.7397   21.0674 O   0  0  0  0  0  0  0  0  0  0  0  0
    7.9787  -11.1045   19.7917 C   0  0  0  0  0  0  0  0  0  0  0  0
    6.9890  -12.6037   19.7788 S   0  0  0  0  0  0  0  0  0  0  0  0
    8.0844  -14.0479   19.7978 C   0  0  0  0  0  0  0  0  0  0  0  0
    7.4072  -15.2316   20.4553 C   0  0  0  0  0  0  0  0  0  0  0  0
    8.4122  -16.1506   21.1184 C   0  0  2  0  0  0  0  0  0  0  0  0
    7.7573  -17.3186   21.6878 N   0  0  0  0  0  0  0  0  0  0  0  0
    9.0551  -15.3673   22.2003 C   0  0  0  0  0  0  0  0  0  0  0  0
    8.7008  -14.1871   22.3742 O   0  0  0  0  0  0  0  0  0  0  0  0
   10.0460  -15.9433   23.0174 N   0  0  0  0  0  0  0  0  0  0  0  0
    9.8195  -16.1618   24.4541 C   0  0  1  0  0  0  0  0  0  0  0  0
    8.3688  -16.4017   24.6155 C   0  0  0  0  0  0  0  0  0  0  0  0
    7.6446  -15.5448   25.5531 C   0  0  0  0  0  0  0  0  0  0  0  0
    6.7665  -15.9580   26.5555 C   0  0  0  0  0  0  0  0  0  0  0  0
    6.2925  -14.8622   27.1582 N   0  0  0  0  0  0  0  0  0  0  0  0
    6.8126  -13.7524   26.6060 C   0  0  0  0  0  0  0  0  0  0  0  0
    6.6369  -12.4155   26.8983 C   0  0  0  0  0  0  0  0  0  0  0  0
    7.3511  -11.4955   26.1396 C   0  0  0  0  0  0  0  0  0  0  0  0
    8.1995  -11.8844   25.1378 C   0  0  0  0  0  0  0  0  0  0  0  0
    8.3613  -13.2202   24.8602 C   0  0  0  0  0  0  0  0  0  0  0  0
    7.6647  -14.1722   25.5954 C   0  0  0  0  0  0  0  0  0  0  0  0
   10.6528  -17.2171   24.9976 C   0  0  0  0  0  0  0  0  0  0  0  0
   10.7691  -18.3742   24.5088 O   0  0  0  0  0  0  0  0  0  0  0  0
   11.4091  -16.9719   26.1506 O   0  0  0  0  0  0  0  0  0  0  0  0
  2  1  1  1
  2  3  1  0
  4  2  1  0
  5  4  1  0
  5  6  1  6
  7  5  1  0
  7  8  2  0
  9 10  1  0
 10 11  1  0
 11 12  1  0
 13 12  1  1
 13 14  1  0
 14  7  1  0
 15 13  1  0
 16 15  2  0
 17 15  1  0
 18 17  1  0
 18 19  1  6
 19 20  1  0
 20 28  1  0
 20 21  2  0
 21 22  1  0
 23 24  2  0
 23 22  1  0
 25 24  1  0
 26 25  2  0
 27 26  1  0
 27 28  2  0
 28 23  1  0
 29 18  1  0
 30 29  2  0
 31 29  1  0
M  END
$$$$
