LMW.pdb
     RDKit          3D

 31 32  0  0  1  0  0  0  0  0999 V2000
   13.8458  -14.6045   20.1419 C   0  0  0  0  0  0  0  0  0  0  0  0
   12.7110  -14.3613   19.1485 C   0  0  2  0  0  0  0  0  0  0  0  0
   12.8859  -12.9777   18.5950 C   0  0  0  0  0  0  0  0  0  0  0  0
   11.4085  -14.5403   19.8582 C   0  0  0  0  0  0  0  0  0  0  0  0
   11.2047  -15.8988   20.4747 C   0  0  2  0  0  0  0  0  0  0  0  0
   11.1620  -16.9282   19.4308 N   0  0  0  0  0  0  0  0  0  0  0  0
    9.9518  -16.0112   21.2584 C   0  0  0  0  0  0  0  0  0  0  0  0
    9.7969  -15.2449   22.2391 O   0  0  0  0  0  0  0  0  0  0  0  0
    2.7553  -19.2733   22.0978 C   0  0  0  0  0  0  0  0  0  0  0  0
    4.3057  -19.3175   21.1913 S   0  0  0  0  0  0  0  0  0  0  0  0
    5.4836  -18.1725   21.9579 C   0  0  0  0  0  0  0  0  0  0  0  0
    6.7462  -18.0610   21.1299 C   0  0  0  0  0  0  0  0  0  0  0  0
    7.7168  -17.0624   21.7260 C   0  0  2  0  0  0  0  0  0  0  0  0
    8.9263  -16.9649   20.9231 N   0  0  0  0  0  0  0  0  0  0  0  0
    8.0602  -17.5597   23.0796 C   0  0  0  0  0  0  0  0  0  0  0  0
    9.0888  -18.2458   23.2203 O   0  0  0  0  0  0  0  0  0  0  0  0
    7.2424  -17.2632   24.1863 N   0  0  0  0  0  0  0  0  0  0  0  0
    7.7590  -17.3432   25.5611 C   0  0  1  0  0  0  0  0  0  0  0  0
    6.9077  -16.4514   26.3785 C   0  0  0  0  0  0  0  0  0  0  0  0
    7.4011  -15.0994   26.6362 C   0  0  0  0  0  0  0  0  0  0  0  0
    6.7942  -13.9019   26.2565 C   0  0  0  0  0  0  0  0  0  0  0  0
    7.5879  -12.9005   26.6515 N   0  0  0  0  0  0  0  0  0  0  0  0
    8.6822  -13.3760   27.2705 C   0  0  0  0  0  0  0  0  0  0  0  0
    9.7564  -12.7349   27.8525 C   0  0  0  0  0  0  0  0  0  0  0  0
   10.7335  -13.5293   28.4409 C   0  0  0  0  0  0  0  0  0  0  0  0
   10.6484  -14.8957   28.4509 C   0  0  0  0  0  0  0  0  0  0  0  0
    9.5717  -15.5171   27.8657 C   0  0  0  0  0  0  0  0  0  0  0  0
    8.5731  -14.7586   27.2658 C   0  0  0  0  0  0  0  0  0  0  0  0
    7.8263  -18.7052   26.0550 C   0  0  0  0  0  0  0  0  0  0  0  0
    8.3470  -19.0552   27.1495 O   0  0  0  0  0  0  0  0  0  0  0  0
    7.2764  -19.7422   25.2911 O   0  0  0  0  0  0  0  0  0  0  0  0
  2  1  1  1
  2  3  1  0
  4  2  1  0
  5  4  1  0
  5  6  1  6
  7  5  1  0
  7  8  2  0
  9 10  1  0
 10 11  1  0
 11 12  1  0
 13 12  1  6
 13 14  1  0
 14  7  1  0
 15 13  1  0
 16 15  2  0
 17 15  1  0
 18 17  1  0
 18 19  1  1
 19 20  1  0
 20 28  1  0
 20 21  2  0
 21 22  1  0
 23 24  2  0
 23 22  1  0
 25 24  1  0
 26 25  2  0
 27 26  1  0
 27 28  2  0
 28 23  1  0
 29 18  1  0
 30 29  2  0
 31 29  1  0
M  END
$$$$
