LMW.pdb
     RDKit          3D

 31 32  0  0  1  0  0  0  0  0999 V2000
    7.9596  -20.0569   18.0555 C   0  0  0  0  0  0  0  0  0  0  0  0
    7.3327  -18.6657   17.9838 C   0  0  2  0  0  0  0  0  0  0  0  0
    7.0407  -18.3771   16.5407 C   0  0  0  0  0  0  0  0  0  0  0  0
    8.2808  -17.6829   18.5902 C   0  0  0  0  0  0  0  0  0  0  0  0
    8.6151  -17.9349   20.0365 C   0  0  2  0  0  0  0  0  0  0  0  0
    7.3949  -18.2296   20.7952 N   0  0  0  0  0  0  0  0  0  0  0  0
    9.2816  -16.7885   20.6983 C   0  0  0  0  0  0  0  0  0  0  0  0
   10.4320  -16.4703   20.3130 O   0  0  0  0  0  0  0  0  0  0  0  0
    7.2099  -12.5347   25.9398 C   0  0  0  0  0  0  0  0  0  0  0  0
    7.6636  -11.6964   24.4171 S   0  0  0  0  0  0  0  0  0  0  0  0
    8.8804  -12.6963   23.5194 C   0  0  0  0  0  0  0  0  0  0  0  0
    8.2535  -13.9726   22.9996 C   0  0  0  0  0  0  0  0  0  0  0  0
    9.2702  -14.8444   22.2918 C   0  0  2  0  0  0  0  0  0  0  0  0
    8.6472  -16.0451   21.7558 N   0  0  0  0  0  0  0  0  0  0  0  0
   10.2838  -15.2231   23.3050 C   0  0  0  0  0  0  0  0  0  0  0  0
   10.9562  -14.3240   23.8418 O   0  0  0  0  0  0  0  0  0  0  0  0
   10.4841  -16.5713   23.6566 N   0  0  0  0  0  0  0  0  0  0  0  0
   11.3989  -16.9494   24.7444 C   0  0  1  0  0  0  0  0  0  0  0  0
   10.5820  -17.6728   25.7432 C   0  0  0  0  0  0  0  0  0  0  0  0
    9.4555  -16.9557   26.3387 C   0  0  0  0  0  0  0  0  0  0  0  0
    8.1004  -17.1716   26.0869 C   0  0  0  0  0  0  0  0  0  0  0  0
    7.4064  -16.2812   26.8039 N   0  0  0  0  0  0  0  0  0  0  0  0
    8.2327  -15.4931   27.5132 C   0  0  0  0  0  0  0  0  0  0  0  0
    7.9822  -14.4612   28.3942 C   0  0  0  0  0  0  0  0  0  0  0  0
    9.0781  -13.8499   28.9918 C   0  0  0  0  0  0  0  0  0  0  0  0
   10.3623  -14.2442   28.7272 C   0  0  0  0  0  0  0  0  0  0  0  0
   10.5928  -15.2732   27.8464 C   0  0  0  0  0  0  0  0  0  0  0  0
    9.5241  -15.9104   27.2269 C   0  0  0  0  0  0  0  0  0  0  0  0
   12.5487  -17.6976   24.2737 C   0  0  0  0  0  0  0  0  0  0  0  0
   12.7417  -18.0564   23.0798 O   0  0  0  0  0  0  0  0  0  0  0  0
   13.5496  -18.0649   25.1819 O   0  0  0  0  0  0  0  0  0  0  0  0
  2  1  1  6
  2  3  1  0
  4  2  1  0
  5  4  1  0
  5  6  1  1
  7  5  1  0
  7  8  2  0
  9 10  1  0
 10 11  1  0
 11 12  1  0
 13 12  1  1
 13 14  1  0
 14  7  1  0
 15 13  1  0
 16 15  2  0
 17 15  1  0
 18 17  1  0
 18 19  1  1
 19 20  1  0
 20 28  1  0
 20 21  2  0
 21 22  1  0
 23 24  2  0
 23 22  1  0
 25 24  1  0
 26 25  2  0
 27 26  1  0
 27 28  2  0
 28 23  1  0
 29 18  1  0
 30 29  2  0
 31 29  1  0
M  END
$$$$
