LMW.pdb
     RDKit          3D

 31 32  0  0  1  0  0  0  0  0999 V2000
    8.0932  -13.7880   18.8574 C   0  0  0  0  0  0  0  0  0  0  0  0
    7.4059  -13.6219   20.2115 C   0  0  2  0  0  0  0  0  0  0  0  0
    7.4728  -12.1677   20.5751 C   0  0  0  0  0  0  0  0  0  0  0  0
    8.0929  -14.4994   21.2066 C   0  0  0  0  0  0  0  0  0  0  0  0
    7.8580  -15.9747   21.0187 C   0  0  2  0  0  0  0  0  0  0  0  0
    6.4195  -16.2579   20.9764 N   0  0  0  0  0  0  0  0  0  0  0  0
    8.4417  -16.8089   22.0957 C   0  0  0  0  0  0  0  0  0  0  0  0
    7.8653  -16.8251   23.2094 O   0  0  0  0  0  0  0  0  0  0  0  0
   12.6201  -14.1546   19.0044 C   0  0  0  0  0  0  0  0  0  0  0  0
   12.8997  -13.7257   20.7263 S   0  0  0  0  0  0  0  0  0  0  0  0
   12.5522  -15.1671   21.7694 C   0  0  0  0  0  0  0  0  0  0  0  0
   11.1898  -15.7471   21.4537 C   0  0  0  0  0  0  0  0  0  0  0  0
   10.9426  -17.0339   22.2137 C   0  0  2  0  0  0  0  0  0  0  0  0
    9.6358  -17.5879   21.8937 N   0  0  0  0  0  0  0  0  0  0  0  0
   10.9958  -16.6928   23.6553 C   0  0  0  0  0  0  0  0  0  0  0  0
   12.0402  -16.1939   24.1126 O   0  0  0  0  0  0  0  0  0  0  0  0
    9.8892  -16.9261   24.4934 N   0  0  0  0  0  0  0  0  0  0  0  0
    9.9411  -16.6182   25.9307 C   0  0  1  0  0  0  0  0  0  0  0  0
    8.5401  -16.6080   26.4054 C   0  0  0  0  0  0  0  0  0  0  0  0
    7.6395  -15.6133   25.8246 C   0  0  0  0  0  0  0  0  0  0  0  0
    6.5662  -15.8573   24.9672 C   0  0  0  0  0  0  0  0  0  0  0  0
    6.0302  -14.6765   24.6401 N   0  0  0  0  0  0  0  0  0  0  0  0
    6.6931  -13.6709   25.2370 C   0  0  0  0  0  0  0  0  0  0  0  0
    6.4997  -12.3051   25.2130 C   0  0  0  0  0  0  0  0  0  0  0  0
    7.3626  -11.5232   25.9721 C   0  0  0  0  0  0  0  0  0  0  0  0
    8.3702  -12.0715   26.7195 C   0  0  0  0  0  0  0  0  0  0  0  0
    8.5484  -13.4338   26.7307 C   0  0  0  0  0  0  0  0  0  0  0  0
    7.7072  -14.2509   25.9846 C   0  0  0  0  0  0  0  0  0  0  0  0
   10.8032  -17.5236   26.6659 C   0  0  0  0  0  0  0  0  0  0  0  0
   11.1375  -17.3862   27.8745 O   0  0  0  0  0  0  0  0  0  0  0  0
   11.3213  -18.6548   26.0229 O   0  0  0  0  0  0  0  0  0  0  0  0
  2  1  1  6
  2  3  1  0
  4  2  1  0
  5  4  1  0
  5  6  1  1
  7  5  1  0
  7  8  2  0
  9 10  1  0
 10 11  1  0
 11 12  1  0
 13 12  1  6
 13 14  1  0
 14  7  1  0
 15 13  1  0
 16 15  2  0
 17 15  1  0
 18 17  1  0
 18 19  1  1
 19 20  1  0
 20 28  1  0
 20 21  2  0
 21 22  1  0
 23 24  2  0
 23 22  1  0
 25 24  1  0
 26 25  2  0
 27 26  1  0
 27 28  2  0
 28 23  1  0
 29 18  1  0
 30 29  2  0
 31 29  1  0
M  END
$$$$
