LMW.pdb
     RDKit          3D

 31 32  0  0  1  0  0  0  0  0999 V2000
    9.0717  -12.3814   19.1682 C   0  0  0  0  0  0  0  0  0  0  0  0
    7.9211  -13.3384   18.8615 C   0  0  2  0  0  0  0  0  0  0  0  0
    6.6959  -12.5067   18.6199 C   0  0  0  0  0  0  0  0  0  0  0  0
    7.7640  -14.2801   20.0108 C   0  0  0  0  0  0  0  0  0  0  0  0
    9.0475  -14.8858   20.5134 C   0  0  2  0  0  0  0  0  0  0  0  0
    9.6397  -15.7462   19.4836 N   0  0  0  0  0  0  0  0  0  0  0  0
    8.8754  -15.7098   21.7331 C   0  0  0  0  0  0  0  0  0  0  0  0
    8.1941  -15.2379   22.6744 O   0  0  0  0  0  0  0  0  0  0  0  0
    9.4238  -22.5173   23.0568 C   0  0  0  0  0  0  0  0  0  0  0  0
    9.5961  -21.6234   21.5081 S   0  0  0  0  0  0  0  0  0  0  0  0
    9.0018  -19.9246   21.7245 C   0  0  0  0  0  0  0  0  0  0  0  0
    9.7312  -19.2371   22.8592 C   0  0  0  0  0  0  0  0  0  0  0  0
    9.2439  -17.8162   23.0546 C   0  0  2  0  0  0  0  0  0  0  0  0
    9.4636  -17.0182   21.8579 N   0  0  0  0  0  0  0  0  0  0  0  0
   10.0273  -17.2491   24.1781 C   0  0  0  0  0  0  0  0  0  0  0  0
   11.2325  -16.9967   23.9980 O   0  0  0  0  0  0  0  0  0  0  0  0
    9.4238  -16.9988   25.4249 N   0  0  0  0  0  0  0  0  0  0  0  0
   10.2156  -16.5522   26.5811 C   0  0  1  0  0  0  0  0  0  0  0  0
    9.6694  -15.2356   26.9766 C   0  0  0  0  0  0  0  0  0  0  0  0
    8.3366  -14.8851   26.4880 C   0  0  0  0  0  0  0  0  0  0  0  0
    7.3399  -15.7685   26.0723 C   0  0  0  0  0  0  0  0  0  0  0  0
    6.2940  -15.0402   25.6670 N   0  0  0  0  0  0  0  0  0  0  0  0
    6.5501  -13.7268   25.7948 C   0  0  0  0  0  0  0  0  0  0  0  0
    5.7811  -12.6134   25.5255 C   0  0  0  0  0  0  0  0  0  0  0  0
    6.3405  -11.3694   25.7933 C   0  0  0  0  0  0  0  0  0  0  0  0
    7.6038  -11.2370   26.3041 C   0  0  0  0  0  0  0  0  0  0  0  0
    8.3555  -12.3570   26.5654 C   0  0  0  0  0  0  0  0  0  0  0  0
    7.8330  -13.6197   26.3109 C   0  0  0  0  0  0  0  0  0  0  0  0
   10.2351  -17.5262   27.6555 C   0  0  0  0  0  0  0  0  0  0  0  0
    9.5226  -18.5661   27.7051 O   0  0  0  0  0  0  0  0  0  0  0  0
   11.1032  -17.3390   28.7384 O   0  0  0  0  0  0  0  0  0  0  0  0
  2  1  1  1
  2  3  1  0
  4  2  1  0
  5  4  1  0
  5  6  1  6
  7  5  1  0
  7  8  2  0
  9 10  1  0
 10 11  1  0
 11 12  1  0
 13 12  1  6
 13 14  1  0
 14  7  1  0
 15 13  1  0
 16 15  2  0
 17 15  1  0
 18 17  1  0
 18 19  1  1
 19 20  1  0
 20 28  1  0
 20 21  2  0
 21 22  1  0
 23 24  2  0
 23 22  1  0
 25 24  1  0
 26 25  2  0
 27 26  1  0
 27 28  2  0
 28 23  1  0
 29 18  1  0
 30 29  2  0
 31 29  1  0
M  END
$$$$
