LMW.pdb
     RDKit          3D

 31 32  0  0  1  0  0  0  0  0999 V2000
    8.2952  -20.5234   17.7949 C   0  0  0  0  0  0  0  0  0  0  0  0
    7.2666  -19.3943   17.8241 C   0  0  2  0  0  0  0  0  0  0  0  0
    6.7954  -19.1779   16.4162 C   0  0  0  0  0  0  0  0  0  0  0  0
    7.9072  -18.1798   18.4131 C   0  0  0  0  0  0  0  0  0  0  0  0
    8.4017  -18.3464   19.8255 C   0  0  2  0  0  0  0  0  0  0  0  0
    7.3031  -18.7683   20.7010 N   0  0  0  0  0  0  0  0  0  0  0  0
    8.9759  -17.1076   20.4016 C   0  0  0  0  0  0  0  0  0  0  0  0
   10.1040  -16.7357   19.9990 O   0  0  0  0  0  0  0  0  0  0  0  0
    6.7796  -13.1682   26.4834 C   0  0  0  0  0  0  0  0  0  0  0  0
    6.9662  -12.8764   24.7206 S   0  0  0  0  0  0  0  0  0  0  0  0
    7.5684  -14.3877   23.9211 C   0  0  0  0  0  0  0  0  0  0  0  0
    7.7241  -14.1847   22.4288 C   0  0  0  0  0  0  0  0  0  0  0  0
    8.8168  -15.0649   21.8580 C   0  0  2  0  0  0  0  0  0  0  0  0
    8.2779  -16.3352   21.3965 N   0  0  0  0  0  0  0  0  0  0  0  0
    9.7839  -15.3070   22.9551 C   0  0  0  0  0  0  0  0  0  0  0  0
   10.4979  -14.3635   23.3405 O   0  0  0  0  0  0  0  0  0  0  0  0
    9.8947  -16.5768   23.5523 N   0  0  0  0  0  0  0  0  0  0  0  0
   10.9141  -16.8534   24.5758 C   0  0  1  0  0  0  0  0  0  0  0  0
   10.1855  -17.3337   25.7702 C   0  0  0  0  0  0  0  0  0  0  0  0
    9.3413  -16.3713   26.4765 C   0  0  0  0  0  0  0  0  0  0  0  0
    7.9480  -16.3054   26.4511 C   0  0  0  0  0  0  0  0  0  0  0  0
    7.5764  -15.2603   27.1984 N   0  0  0  0  0  0  0  0  0  0  0  0
    8.6505  -14.6373   27.7134 C   0  0  0  0  0  0  0  0  0  0  0  0
    8.7626  -13.5415   28.5442 C   0  0  0  0  0  0  0  0  0  0  0  0
   10.0428  -13.1527   28.9211 C   0  0  0  0  0  0  0  0  0  0  0  0
   11.1590  -13.8201   28.4932 C   0  0  0  0  0  0  0  0  0  0  0  0
   11.0282  -14.9089   27.6654 C   0  0  0  0  0  0  0  0  0  0  0  0
    9.7654  -15.3296   27.2647 C   0  0  0  0  0  0  0  0  0  0  0  0
   11.9420  -17.7642   24.1097 C   0  0  0  0  0  0  0  0  0  0  0  0
   11.9317  -18.3630   22.9994 O   0  0  0  0  0  0  0  0  0  0  0  0
   13.0533  -18.0217   24.9222 O   0  0  0  0  0  0  0  0  0  0  0  0
  2  1  1  6
  2  3  1  0
  4  2  1  0
  5  4  1  0
  5  6  1  1
  7  5  1  0
  7  8  2  0
  9 10  1  0
 10 11  1  0
 11 12  1  0
 13 12  1  1
 13 14  1  0
 14  7  1  0
 15 13  1  0
 16 15  2  0
 17 15  1  0
 18 17  1  0
 18 19  1  1
 19 20  1  0
 20 28  1  0
 20 21  2  0
 21 22  1  0
 23 24  2  0
 23 22  1  0
 25 24  1  0
 26 25  2  0
 27 26  1  0
 27 28  2  0
 28 23  1  0
 29 18  1  0
 30 29  2  0
 31 29  1  0
M  END
$$$$
