LMW.pdb
     RDKit          3D

 31 32  0  0  1  0  0  0  0  0999 V2000
   11.9724  -21.2285   18.9303 C   0  0  0  0  0  0  0  0  0  0  0  0
   10.7337  -20.4988   18.4137 C   0  0  2  0  0  0  0  0  0  0  0  0
   10.7700  -20.5556   16.9149 C   0  0  0  0  0  0  0  0  0  0  0  0
   10.7487  -19.1007   18.9405 C   0  0  0  0  0  0  0  0  0  0  0  0
   10.7276  -18.9893   20.4418 C   0  0  2  0  0  0  0  0  0  0  0  0
    9.4994  -19.5859   20.9774 N   0  0  0  0  0  0  0  0  0  0  0  0
   10.7914  -17.5923   20.9327 C   0  0  0  0  0  0  0  0  0  0  0  0
   11.9099  -17.0258   20.9605 O   0  0  0  0  0  0  0  0  0  0  0  0
    6.4334  -12.7080   19.8607 C   0  0  0  0  0  0  0  0  0  0  0  0
    8.0418  -12.2821   20.5381 S   0  0  0  0  0  0  0  0  0  0  0  0
    8.3941  -13.3439   21.9645 C   0  0  0  0  0  0  0  0  0  0  0  0
    8.3369  -14.8064   21.5772 C   0  0  0  0  0  0  0  0  0  0  0  0
    9.6902  -15.4725   21.7156 C   0  0  2  0  0  0  0  0  0  0  0  0
    9.6165  -16.8841   21.3703 N   0  0  0  0  0  0  0  0  0  0  0  0
   10.0902  -15.3309   23.1360 C   0  0  0  0  0  0  0  0  0  0  0  0
   10.6975  -14.3025   23.4855 O   0  0  0  0  0  0  0  0  0  0  0  0
    9.7901  -16.3367   24.0739 N   0  0  0  0  0  0  0  0  0  0  0  0
   10.2461  -16.2410   25.4690 C   0  0  1  0  0  0  0  0  0  0  0  0
    9.0559  -16.4821   26.3137 C   0  0  0  0  0  0  0  0  0  0  0  0
    7.8682  -15.6708   26.0512 C   0  0  0  0  0  0  0  0  0  0  0  0
    6.6483  -16.1158   25.5409 C   0  0  0  0  0  0  0  0  0  0  0  0
    5.8463  -15.0526   25.4186 N   0  0  0  0  0  0  0  0  0  0  0  0
    6.4735  -13.9342   25.8219 C   0  0  0  0  0  0  0  0  0  0  0  0
    6.0511  -12.6226   25.8937 C   0  0  0  0  0  0  0  0  0  0  0  0
    6.9523  -11.6864   26.3869 C   0  0  0  0  0  0  0  0  0  0  0  0
    8.2134  -12.0355   26.7896 C   0  0  0  0  0  0  0  0  0  0  0  0
    8.6171  -13.3465   26.7101 C   0  0  0  0  0  0  0  0  0  0  0  0
    7.7461  -14.3135   26.2219 C   0  0  0  0  0  0  0  0  0  0  0  0
   11.3584  -17.1262   25.7559 C   0  0  0  0  0  0  0  0  0  0  0  0
   11.8521  -17.9574   24.9453 O   0  0  0  0  0  0  0  0  0  0  0  0
   11.9653  -17.0824   27.0174 O   0  0  0  0  0  0  0  0  0  0  0  0
  2  1  1  1
  2  3  1  0
  4  2  1  0
  5  4  1  0
  5  6  1  6
  7  5  1  0
  7  8  2  0
  9 10  1  0
 10 11  1  0
 11 12  1  0
 13 12  1  1
 13 14  1  0
 14  7  1  0
 15 13  1  0
 16 15  2  0
 17 15  1  0
 18 17  1  0
 18 19  1  1
 19 20  1  0
 20 28  1  0
 20 21  2  0
 21 22  1  0
 23 24  2  0
 23 22  1  0
 25 24  1  0
 26 25  2  0
 27 26  1  0
 27 28  2  0
 28 23  1  0
 29 18  1  0
 30 29  2  0
 31 29  1  0
M  END
$$$$
