LMW.pdb
     RDKit          3D

 31 32  0  0  1  0  0  0  0  0999 V2000
    7.7525  -20.8031   15.8050 C   0  0  0  0  0  0  0  0  0  0  0  0
    7.8331  -19.2777   15.7828 C   0  0  2  0  0  0  0  0  0  0  0  0
    8.1111  -18.8620   14.3682 C   0  0  0  0  0  0  0  0  0  0  0  0
    8.8994  -18.8420   16.7343 C   0  0  0  0  0  0  0  0  0  0  0  0
    8.5559  -19.0098   18.1907 C   0  0  2  0  0  0  0  0  0  0  0  0
    7.1015  -18.9703   18.3765 N   0  0  0  0  0  0  0  0  0  0  0  0
    9.1419  -17.9634   19.0614 C   0  0  0  0  0  0  0  0  0  0  0  0
   10.3730  -18.0106   19.2963 O   0  0  0  0  0  0  0  0  0  0  0  0
    7.9010  -11.5159   19.9428 C   0  0  0  0  0  0  0  0  0  0  0  0
    7.6599  -12.5714   18.5093 S   0  0  0  0  0  0  0  0  0  0  0  0
    8.4409  -14.1798   18.8083 C   0  0  0  0  0  0  0  0  0  0  0  0
    8.3743  -14.5488   20.2751 C   0  0  0  0  0  0  0  0  0  0  0  0
    8.9385  -15.9317   20.5276 C   0  0  2  0  0  0  0  0  0  0  0  0
    8.3414  -16.9119   19.6332 N   0  0  0  0  0  0  0  0  0  0  0  0
    8.6072  -16.2759   21.9309 C   0  0  0  0  0  0  0  0  0  0  0  0
    7.4117  -16.2890   22.2761 O   0  0  0  0  0  0  0  0  0  0  0  0
    9.6215  -16.5835   22.8572 N   0  0  0  0  0  0  0  0  0  0  0  0
    9.8470  -15.7500   24.0479 C   0  0  1  0  0  0  0  0  0  0  0  0
    8.5191  -15.5341   24.6629 C   0  0  0  0  0  0  0  0  0  0  0  0
    8.4729  -14.7957   25.9240 C   0  0  0  0  0  0  0  0  0  0  0  0
    9.1875  -15.0832   27.0874 C   0  0  0  0  0  0  0  0  0  0  0  0
    8.8286  -14.1905   28.0163 N   0  0  0  0  0  0  0  0  0  0  0  0
    7.9179  -13.3323   27.5253 C   0  0  0  0  0  0  0  0  0  0  0  0
    7.2783  -12.2507   28.0951 C   0  0  0  0  0  0  0  0  0  0  0  0
    6.3892  -11.5401   27.2974 C   0  0  0  0  0  0  0  0  0  0  0  0
    6.1462  -11.8870   25.9954 C   0  0  0  0  0  0  0  0  0  0  0  0
    6.7918  -12.9677   25.4449 C   0  0  0  0  0  0  0  0  0  0  0  0
    7.6882  -13.7053   26.2094 C   0  0  0  0  0  0  0  0  0  0  0  0
   10.8269  -16.3202   24.9524 C   0  0  0  0  0  0  0  0  0  0  0  0
   11.1469  -17.5395   25.0005 O   0  0  0  0  0  0  0  0  0  0  0  0
   11.4983  -15.4856   25.8547 O   0  0  0  0  0  0  0  0  0  0  0  0
  2  1  1  6
  2  3  1  0
  4  2  1  0
  5  4  1  0
  5  6  1  6
  7  5  1  0
  7  8  2  0
  9 10  1  0
 10 11  1  0
 11 12  1  0
 13 12  1  6
 13 14  1  0
 14  7  1  0
 15 13  1  0
 16 15  2  0
 17 15  1  0
 18 17  1  0
 18 19  1  1
 19 20  1  0
 20 28  1  0
 20 21  2  0
 21 22  1  0
 23 24  2  0
 23 22  1  0
 25 24  1  0
 26 25  2  0
 27 26  1  0
 27 28  2  0
 28 23  1  0
 29 18  1  0
 30 29  2  0
 31 29  1  0
M  END
$$$$
