LMW.pdb
     RDKit          3D

 31 32  0  0  1  0  0  0  0  0999 V2000
   11.5919  -21.1790   18.7319 C   0  0  0  0  0  0  0  0  0  0  0  0
   10.3241  -20.6342   18.0763 C   0  0  2  0  0  0  0  0  0  0  0  0
   10.4864  -20.7801   16.5919 C   0  0  0  0  0  0  0  0  0  0  0  0
   10.1392  -19.2139   18.5015 C   0  0  0  0  0  0  0  0  0  0  0  0
   10.0260  -19.0075   19.9887 C   0  0  2  0  0  0  0  0  0  0  0  0
    8.8740  -19.7459   20.5169 N   0  0  0  0  0  0  0  0  0  0  0  0
    9.8578  -17.5875   20.3781 C   0  0  0  0  0  0  0  0  0  0  0  0
   10.8027  -16.7954   20.1487 O   0  0  0  0  0  0  0  0  0  0  0  0
    7.5198  -11.1867   20.5429 C   0  0  0  0  0  0  0  0  0  0  0  0
    7.8675  -12.9455   20.4282 S   0  0  0  0  0  0  0  0  0  0  0  0
    6.8311  -13.8423   21.6147 C   0  0  0  0  0  0  0  0  0  0  0  0
    7.0291  -15.3376   21.4834 C   0  0  0  0  0  0  0  0  0  0  0  0
    8.4908  -15.6923   21.3047 C   0  0  2  0  0  0  0  0  0  0  0  0
    8.6531  -17.1065   21.0033 N   0  0  0  0  0  0  0  0  0  0  0  0
    9.1638  -15.3795   22.5879 C   0  0  0  0  0  0  0  0  0  0  0  0
    9.5155  -14.2061   22.8071 O   0  0  0  0  0  0  0  0  0  0  0  0
    9.4014  -16.3865   23.5424 N   0  0  0  0  0  0  0  0  0  0  0  0
   10.0993  -16.0942   24.8037 C   0  0  1  0  0  0  0  0  0  0  0  0
    9.1171  -16.3226   25.8859 C   0  0  0  0  0  0  0  0  0  0  0  0
    7.9045  -15.5056   25.8782 C   0  0  0  0  0  0  0  0  0  0  0  0
    6.6057  -15.9403   25.6121 C   0  0  0  0  0  0  0  0  0  0  0  0
    5.8001  -14.8744   25.6698 N   0  0  0  0  0  0  0  0  0  0  0  0
    6.4997  -13.7639   25.9602 C   0  0  0  0  0  0  0  0  0  0  0  0
    6.1059  -12.4535   26.1372 C   0  0  0  0  0  0  0  0  0  0  0  0
    7.0911  -11.5271   26.4583 C   0  0  0  0  0  0  0  0  0  0  0  0
    8.4054  -11.8846   26.5968 C   0  0  0  0  0  0  0  0  0  0  0  0
    8.7795  -13.1942   26.4161 C   0  0  0  0  0  0  0  0  0  0  0  0
    7.8247  -14.1515   26.0933 C   0  0  0  0  0  0  0  0  0  0  0  0
   11.3252  -16.8546   24.9538 C   0  0  0  0  0  0  0  0  0  0  0  0
   11.7340  -17.7379   24.1513 O   0  0  0  0  0  0  0  0  0  0  0  0
   12.1522  -16.6158   26.0585 O   0  0  0  0  0  0  0  0  0  0  0  0
  2  1  1  1
  2  3  1  0
  4  2  1  0
  5  4  1  0
  5  6  1  6
  7  5  1  0
  7  8  2  0
  9 10  1  0
 10 11  1  0
 11 12  1  0
 13 12  1  1
 13 14  1  0
 14  7  1  0
 15 13  1  0
 16 15  2  0
 17 15  1  0
 18 17  1  0
 18 19  1  1
 19 20  1  0
 20 28  1  0
 20 21  2  0
 21 22  1  0
 23 24  2  0
 23 22  1  0
 25 24  1  0
 26 25  2  0
 27 26  1  0
 27 28  2  0
 28 23  1  0
 29 18  1  0
 30 29  2  0
 31 29  1  0
M  END
$$$$
