RLD.pdb
     RDKit          3D

 28 27  0  0  1  0  0  0  0  0999 V2000
    7.3991  -12.6919   18.4028 N   0  0  0  0  0  0  0  0  0  0  0  0
    8.2218  -13.3134   17.4021 C   0  0  0  0  0  0  0  0  0  0  0  0
    7.7849  -13.3194   16.2048 N   0  0  0  0  0  0  0  0  0  0  0  0
    9.4611  -13.8778   17.7981 N   0  0  0  0  0  0  0  0  0  0  0  0
    9.4546  -15.0915   18.5853 C   0  0  0  0  0  0  0  0  0  0  0  0
    8.6422  -14.9675   19.8299 C   0  0  0  0  0  0  0  0  0  0  0  0
    9.3634  -15.0920   21.1118 C   0  0  0  0  0  0  0  0  0  0  0  0
    8.7300  -15.9157   22.1737 C   0  0  2  0  0  0  0  0  0  0  0  0
    7.2711  -15.8349   21.9911 N   0  0  0  0  0  0  0  0  0  0  0  0
    9.0448  -15.4117   23.5453 C   0  0  0  0  0  0  0  0  0  0  0  0
   10.1501  -14.8188   23.7858 O   0  0  0  0  0  0  0  0  0  0  0  0
    8.2587  -13.6964   15.3700 C   0  0  0  0  0  0  0  0  0  0  0  0
    7.7364  -12.0476   25.7875 C   0  0  2  0  0  0  0  0  0  0  0  0
    6.7126  -13.2077   25.7022 C   0  0  0  0  0  0  0  0  0  0  0  0
    5.4266  -12.6374   26.1982 C   0  0  0  0  0  0  0  0  0  0  0  0
    7.2688  -14.3071   26.5143 C   0  0  2  0  0  0  0  0  0  0  0  0
    8.4807  -15.0154   25.9896 N   0  0  0  0  0  0  0  0  0  0  0  0
    8.1656  -15.5530   24.6421 C   0  0  0  0  0  0  0  0  0  0  0  0
    8.8655  -16.1860   26.8037 O   0  0  0  0  0  0  0  0  0  0  0  0
    9.1543  -15.9989   28.0329 N   0  0  0  0  0  0  0  0  0  0  0  0
    8.9322  -17.5168   26.3071 C   0  0  1  0  0  0  0  0  0  0  0  0
    9.4869  -18.5657   27.1793 C   0  0  0  0  0  0  0  0  0  0  0  0
    8.8762  -19.8992   26.8280 C   0  0  0  0  0  0  0  0  0  0  0  0
    7.4905  -20.0764   27.2981 O   0  0  0  0  0  0  0  0  0  0  0  0
    6.9858  -19.1419   28.0054 C   0  0  0  0  0  0  0  0  0  0  0  0
   10.9431  -18.6374   26.9065 O   0  0  0  0  0  0  0  0  0  0  0  0
   11.4277  -17.8962   25.9841 O   0  0  0  0  0  0  0  0  0  0  0  0
    6.6738  -21.1537   27.0556 O   0  0  0  0  0  0  0  0  0  0  0  0
  2  1  1  0
  2  4  1  0
  3  2  2  0
  5  4  1  0
  6  5  1  0
  7  6  1  0
  8 10  1  0
  8  9  1  6
  8  7  1  0
 10 11  2  0
 13 12  1  6
 13 14  1  0
 15 13  1  0
 16 15  1  6
 16 17  1  0
 17 10  1  0
 18 16  1  0
 19 18  2  0
 20 18  1  0
 21 20  1  0
 21 22  1  1
 22 23  1  0
 23 27  1  0
 23 24  2  0
 25 21  1  0
 26 25  2  0
 28 25  1  0
M  END
$$$$
