RLD.pdb
     RDKit          3D

 28 27  0  0  1  0  0  0  0  0999 V2000
    9.6580  -14.5473   16.6517 N   0  0  0  0  0  0  0  0  0  0  0  0
    8.4843  -13.9519   16.0751 C   0  0  0  0  0  0  0  0  0  0  0  0
    8.2066  -14.2530   14.8683 N   0  0  0  0  0  0  0  0  0  0  0  0
    7.7080  -13.0734   16.8731 N   0  0  0  0  0  0  0  0  0  0  0  0
    8.0797  -12.8768   18.2573 C   0  0  0  0  0  0  0  0  0  0  0  0
    8.5474  -14.1321   18.9129 C   0  0  0  0  0  0  0  0  0  0  0  0
    8.8323  -14.0623   20.3596 C   0  0  0  0  0  0  0  0  0  0  0  0
    8.4848  -15.2503   21.1814 C   0  0  2  0  0  0  0  0  0  0  0  0
    7.0303  -15.4550   21.0782 N   0  0  0  0  0  0  0  0  0  0  0  0
    8.8150  -15.0561   22.6262 C   0  0  0  0  0  0  0  0  0  0  0  0
   10.0242  -14.8943   23.0041 O   0  0  0  0  0  0  0  0  0  0  0  0
    7.3894  -13.9438   14.3205 C   0  0  0  0  0  0  0  0  0  0  0  0
    7.6661  -11.9151   25.8093 C   0  0  2  0  0  0  0  0  0  0  0  0
    6.5398  -12.8831   25.3667 C   0  0  0  0  0  0  0  0  0  0  0  0
    5.3061  -12.3908   26.0454 C   0  0  0  0  0  0  0  0  0  0  0  0
    6.9801  -14.2345   25.7632 C   0  0  2  0  0  0  0  0  0  0  0  0
    8.1815  -14.8054   25.0727 N   0  0  0  0  0  0  0  0  0  0  0  0
    7.8389  -15.0392   23.6473 C   0  0  0  0  0  0  0  0  0  0  0  0
    8.5845  -16.1226   25.6053 O   0  0  0  0  0  0  0  0  0  0  0  0
    7.7784  -17.1027   25.4676 N   0  0  0  0  0  0  0  0  0  0  0  0
    9.8205  -16.3742   26.2619 C   0  0  1  0  0  0  0  0  0  0  0  0
   10.0891  -17.7346   26.7576 C   0  0  0  0  0  0  0  0  0  0  0  0
   11.3187  -18.2910   26.0844 C   0  0  0  0  0  0  0  0  0  0  0  0
   11.7533  -19.6020   26.5991 O   0  0  0  0  0  0  0  0  0  0  0  0
   11.0204  -20.1589   27.4829 C   0  0  0  0  0  0  0  0  0  0  0  0
   10.3668  -17.6246   28.2104 O   0  0  0  0  0  0  0  0  0  0  0  0
   10.6835  -18.6841   28.8525 O   0  0  0  0  0  0  0  0  0  0  0  0
   12.8779  -20.2972   26.2268 O   0  0  0  0  0  0  0  0  0  0  0  0
  2  1  1  0
  2  4  1  0
  3  2  2  0
  5  4  1  0
  6  5  1  0
  7  6  1  0
  8 10  1  0
  8  9  1  1
  8  7  1  0
 10 11  2  0
 13 12  1  6
 13 14  1  0
 15 13  1  0
 16 15  1  6
 16 17  1  0
 17 10  1  0
 18 16  1  0
 19 18  2  0
 20 18  1  0
 21 20  1  0
 21 22  1  1
 22 23  1  0
 23 27  1  0
 23 24  2  0
 25 21  1  0
 26 25  2  0
 28 25  1  0
M  END
$$$$
