RLD.pdb
     RDKit          3D

 28 27  0  0  1  0  0  0  0  0999 V2000
    9.4323  -12.8768   16.8834 N   0  0  0  0  0  0  0  0  0  0  0  0
    8.0943  -13.3313   16.6231 C   0  0  0  0  0  0  0  0  0  0  0  0
    7.8021  -13.6359   15.4205 N   0  0  0  0  0  0  0  0  0  0  0  0
    7.1842  -13.4162   17.7073 N   0  0  0  0  0  0  0  0  0  0  0  0
    7.6783  -13.2048   19.0504 C   0  0  0  0  0  0  0  0  0  0  0  0
    7.9990  -14.4798   19.7546 C   0  0  0  0  0  0  0  0  0  0  0  0
    7.5157  -14.6143   21.1429 C   0  0  0  0  0  0  0  0  0  0  0  0
    8.3023  -15.4809   22.0581 C   0  0  2  0  0  0  0  0  0  0  0  0
    7.5547  -16.7368   22.2367 N   0  0  0  0  0  0  0  0  0  0  0  0
    8.4827  -14.8636   23.4075 C   0  0  0  0  0  0  0  0  0  0  0  0
    8.2891  -13.6139   23.5854 O   0  0  0  0  0  0  0  0  0  0  0  0
    6.8946  -13.9735   15.0656 C   0  0  0  0  0  0  0  0  0  0  0  0
    8.2258  -12.0662   25.8507 C   0  0  2  0  0  0  0  0  0  0  0  0
    7.2160  -13.1798   25.4743 C   0  0  0  0  0  0  0  0  0  0  0  0
    5.8741  -12.6325   25.8280 C   0  0  0  0  0  0  0  0  0  0  0  0
    7.6261  -14.3790   26.2299 C   0  0  2  0  0  0  0  0  0  0  0  0
    8.9547  -14.9887   25.8997 N   0  0  0  0  0  0  0  0  0  0  0  0
    8.8700  -15.5997   24.5493 C   0  0  0  0  0  0  0  0  0  0  0  0
    9.3295  -16.0892   26.8104 O   0  0  0  0  0  0  0  0  0  0  0  0
    9.4237  -15.8362   28.0579 N   0  0  0  0  0  0  0  0  0  0  0  0
    9.5904  -17.4217   26.3876 C   0  0  1  0  0  0  0  0  0  0  0  0
   10.0348  -18.4035   27.3912 C   0  0  0  0  0  0  0  0  0  0  0  0
    9.7871  -19.8019   26.8837 C   0  0  0  0  0  0  0  0  0  0  0  0
    8.4944  -19.9804   26.1987 O   0  0  0  0  0  0  0  0  0  0  0  0
    7.6336  -19.0455   26.3148 C   0  0  0  0  0  0  0  0  0  0  0  0
   11.4975  -18.2250   27.5607 O   0  0  0  0  0  0  0  0  0  0  0  0
   12.1030  -17.3968   26.7975 O   0  0  0  0  0  0  0  0  0  0  0  0
    8.1102  -21.0593   25.4405 O   0  0  0  0  0  0  0  0  0  0  0  0
  2  1  1  0
  2  4  1  0
  3  2  2  0
  5  4  1  0
  6  5  1  0
  7  6  1  0
  8 10  1  0
  8  9  1  1
  8  7  1  0
 10 11  2  0
 13 12  1  6
 13 14  1  0
 15 13  1  0
 16 15  1  6
 16 17  1  0
 17 10  1  0
 18 16  1  0
 19 18  2  0
 20 18  1  0
 21 20  1  0
 21 22  1  1
 22 23  1  0
 23 27  1  0
 23 24  2  0
 25 21  1  0
 26 25  2  0
 28 25  1  0
M  END
$$$$
