RLD.pdb
     RDKit          3D

 28 27  0  0  1  0  0  0  0  0999 V2000
    7.5509  -12.5073   18.4653 N   0  0  0  0  0  0  0  0  0  0  0  0
    7.8653  -13.5093   17.4847 C   0  0  0  0  0  0  0  0  0  0  0  0
    7.0388  -13.6735   16.5285 N   0  0  0  0  0  0  0  0  0  0  0  0
    9.0653  -14.2503   17.6332 N   0  0  0  0  0  0  0  0  0  0  0  0
    9.7172  -14.2699   18.9245 C   0  0  0  0  0  0  0  0  0  0  0  0
    9.8269  -15.6437   19.4946 C   0  0  0  0  0  0  0  0  0  0  0  0
   10.5421  -15.7772   20.7789 C   0  0  0  0  0  0  0  0  0  0  0  0
    9.8641  -16.5356   21.8617 C   0  0  2  0  0  0  0  0  0  0  0  0
    8.4712  -16.7644   21.4423 N   0  0  0  0  0  0  0  0  0  0  0  0
    9.8322  -15.7781   23.1499 C   0  0  0  0  0  0  0  0  0  0  0  0
   10.9078  -15.3249   23.6681 O   0  0  0  0  0  0  0  0  0  0  0  0
    7.1322  -14.3156   15.7268 C   0  0  0  0  0  0  0  0  0  0  0  0
    5.6413  -12.6496   26.3060 C   0  0  1  0  0  0  0  0  0  0  0  0
    7.1050  -13.1489   26.4032 C   0  0  0  0  0  0  0  0  0  0  0  0
    7.9405  -11.9146   26.4635 C   0  0  0  0  0  0  0  0  0  0  0  0
    7.3274  -14.0027   25.2204 C   0  0  2  0  0  0  0  0  0  0  0  0
    8.6270  -14.7436   25.1316 N   0  0  0  0  0  0  0  0  0  0  0  0
    8.6420  -15.5183   23.8652 C   0  0  0  0  0  0  0  0  0  0  0  0
    8.8009  -15.7395   26.2081 O   0  0  0  0  0  0  0  0  0  0  0  0
    8.8742  -15.3219   27.4120 N   0  0  0  0  0  0  0  0  0  0  0  0
    8.8887  -17.1423   25.9915 C   0  0  1  0  0  0  0  0  0  0  0  0
    9.0517  -18.0250   27.1589 C   0  0  0  0  0  0  0  0  0  0  0  0
    8.4075  -19.3607   26.8843 C   0  0  0  0  0  0  0  0  0  0  0  0
    6.9468  -19.3043   26.6957 O   0  0  0  0  0  0  0  0  0  0  0  0
    6.3684  -18.1883   26.9156 C   0  0  0  0  0  0  0  0  0  0  0  0
   10.5072  -18.2425   27.3437 O   0  0  0  0  0  0  0  0  0  0  0  0
   11.3095  -17.7794   26.4622 O   0  0  0  0  0  0  0  0  0  0  0  0
    6.1298  -20.3373   26.3058 O   0  0  0  0  0  0  0  0  0  0  0  0
  2  1  1  0
  2  4  1  0
  3  2  2  0
  5  4  1  0
  6  5  1  0
  7  6  1  0
  8 10  1  0
  8  9  1  6
  8  7  1  0
 10 11  2  0
 13 12  1  1
 13 14  1  0
 15 13  1  0
 16 15  1  6
 16 17  1  0
 17 10  1  0
 18 16  1  0
 19 18  2  0
 20 18  1  0
 21 20  1  0
 21 22  1  1
 22 23  1  0
 23 27  1  0
 23 24  2  0
 25 21  1  0
 26 25  2  0
 28 25  1  0
M  END
$$$$
