RLD.pdb
     RDKit          3D

 28 27  0  0  1  0  0  0  0  0999 V2000
    7.2959  -13.1992   16.3606 N   0  0  0  0  0  0  0  0  0  0  0  0
    8.6107  -13.7535   16.5292 C   0  0  0  0  0  0  0  0  0  0  0  0
    9.4901  -13.4525   15.6572 N   0  0  0  0  0  0  0  0  0  0  0  0
    8.8541  -14.5939   17.6453 N   0  0  0  0  0  0  0  0  0  0  0  0
    7.7257  -15.1719   18.3419 C   0  0  0  0  0  0  0  0  0  0  0  0
    7.1653  -14.2648   19.3848 C   0  0  0  0  0  0  0  0  0  0  0  0
    7.9958  -14.0333   20.5829 C   0  0  0  0  0  0  0  0  0  0  0  0
    8.2570  -15.1981   21.4674 C   0  0  2  0  0  0  0  0  0  0  0  0
    6.9646  -15.8469   21.7451 N   0  0  0  0  0  0  0  0  0  0  0  0
    8.8528  -14.7930   22.7771 C   0  0  0  0  0  0  0  0  0  0  0  0
    9.9649  -14.1670   22.8231 O   0  0  0  0  0  0  0  0  0  0  0  0
   10.4260  -13.8710   15.5451 C   0  0  0  0  0  0  0  0  0  0  0  0
    7.5637  -11.7492   25.7267 C   0  0  2  0  0  0  0  0  0  0  0  0
    6.7294  -13.0536   25.6657 C   0  0  0  0  0  0  0  0  0  0  0  0
    5.5193  -12.7881   26.4967 C   0  0  0  0  0  0  0  0  0  0  0  0
    7.6104  -14.1285   26.1617 C   0  0  2  0  0  0  0  0  0  0  0  0
    8.7702  -14.5298   25.3016 N   0  0  0  0  0  0  0  0  0  0  0  0
    8.2438  -15.0675   24.0219 C   0  0  0  0  0  0  0  0  0  0  0  0
    9.5767  -15.6192   25.8880 O   0  0  0  0  0  0  0  0  0  0  0  0
   10.0117  -15.4756   27.0793 N   0  0  0  0  0  0  0  0  0  0  0  0
    9.8995  -16.8272   25.2106 C   0  0  1  0  0  0  0  0  0  0  0  0
   10.8227  -17.7726   25.8606 C   0  0  0  0  0  0  0  0  0  0  0  0
   10.1682  -19.1260   25.9808 C   0  0  0  0  0  0  0  0  0  0  0  0
    9.1338  -19.2107   27.0273 O   0  0  0  0  0  0  0  0  0  0  0  0
    9.4929  -18.9759   28.2291 C   0  0  0  0  0  0  0  0  0  0  0  0
   12.0058  -17.9076   24.9762 O   0  0  0  0  0  0  0  0  0  0  0  0
   11.9712  -17.3556   23.8233 O   0  0  0  0  0  0  0  0  0  0  0  0
    7.8080  -19.5211   26.8467 O   0  0  0  0  0  0  0  0  0  0  0  0
  2  1  1  0
  2  4  1  0
  3  2  2  0
  5  4  1  0
  6  5  1  0
  7  6  1  0
  8 10  1  0
  8  9  1  1
  8  7  1  0
 10 11  2  0
 13 12  1  6
 13 14  1  0
 15 13  1  0
 16 15  1  6
 16 17  1  0
 17 10  1  0
 18 16  1  0
 19 18  2  0
 20 18  1  0
 21 20  1  0
 21 22  1  1
 22 23  1  0
 23 27  1  0
 23 24  2  0
 25 21  1  0
 26 25  2  0
 28 25  1  0
M  END
$$$$
