RLD.pdb
     RDKit          3D

 28 27  0  0  1  0  0  0  0  0999 V2000
    8.2535  -14.0665   16.3498 N   0  0  0  0  0  0  0  0  0  0  0  0
    7.8798  -13.4332   17.5842 C   0  0  0  0  0  0  0  0  0  0  0  0
    8.3971  -12.2970   17.8404 N   0  0  0  0  0  0  0  0  0  0  0  0
    6.9648  -14.0999   18.4383 N   0  0  0  0  0  0  0  0  0  0  0  0
    7.3337  -15.3869   18.9865 C   0  0  0  0  0  0  0  0  0  0  0  0
    8.5782  -15.3294   19.8063 C   0  0  0  0  0  0  0  0  0  0  0  0
    8.4269  -14.9355   21.2209 C   0  0  0  0  0  0  0  0  0  0  0  0
    8.8258  -15.9282   22.2518 C   0  0  2  0  0  0  0  0  0  0  0  0
    7.6444  -16.7511   22.5604 N   0  0  0  0  0  0  0  0  0  0  0  0
    9.2713  -15.2782   23.5220 C   0  0  0  0  0  0  0  0  0  0  0  0
   10.4255  -14.7388   23.6101 O   0  0  0  0  0  0  0  0  0  0  0  0
    8.1560  -11.6628   18.6171 C   0  0  0  0  0  0  0  0  0  0  0  0
    7.5420  -11.7759   25.4726 C   0  0  2  0  0  0  0  0  0  0  0  0
    6.8170  -13.1194   25.7385 C   0  0  0  0  0  0  0  0  0  0  0  0
    5.5183  -12.7491   26.3720 C   0  0  0  0  0  0  0  0  0  0  0  0
    7.7259  -13.9164   26.5848 C   0  0  2  0  0  0  0  0  0  0  0  0
    8.9174  -14.5440   25.9273 N   0  0  0  0  0  0  0  0  0  0  0  0
    8.4683  -15.2175   24.6828 C   0  0  0  0  0  0  0  0  0  0  0  0
    9.5418  -15.6014   26.7476 O   0  0  0  0  0  0  0  0  0  0  0  0
    9.9053  -15.3094   27.9358 N   0  0  0  0  0  0  0  0  0  0  0  0
    9.7629  -16.9331   26.3002 C   0  0  1  0  0  0  0  0  0  0  0  0
   10.4471  -17.8737   27.2033 C   0  0  0  0  0  0  0  0  0  0  0  0
    9.5015  -18.9782   27.6037 C   0  0  0  0  0  0  0  0  0  0  0  0
   10.0970  -19.9996   28.4837 O   0  0  0  0  0  0  0  0  0  0  0  0
   10.8806  -19.5960   29.4065 C   0  0  0  0  0  0  0  0  0  0  0  0
   11.5670  -18.4771   26.4405 O   0  0  0  0  0  0  0  0  0  0  0  0
   11.5110  -18.4644   25.1631 O   0  0  0  0  0  0  0  0  0  0  0  0
    9.8987  -21.3570   28.4158 O   0  0  0  0  0  0  0  0  0  0  0  0
  2  1  1  0
  2  4  1  0
  3  2  2  0
  5  4  1  0
  6  5  1  0
  7  6  1  0
  8 10  1  0
  8  9  1  1
  8  7  1  0
 10 11  2  0
 13 12  1  6
 13 14  1  0
 15 13  1  0
 16 15  1  6
 16 17  1  0
 17 10  1  0
 18 16  1  0
 19 18  2  0
 20 18  1  0
 21 20  1  0
 21 22  1  6
 22 23  1  0
 23 27  1  0
 23 24  2  0
 25 21  1  0
 26 25  2  0
 28 25  1  0
M  END
$$$$
