RLD.pdb
     RDKit          3D

 28 27  0  0  1  0  0  0  0  0999 V2000
    9.0137  -12.4193   17.9075 N   0  0  0  0  0  0  0  0  0  0  0  0
    8.0201  -13.3165   17.3858 C   0  0  0  0  0  0  0  0  0  0  0  0
    8.2580  -13.8642   16.2599 N   0  0  0  0  0  0  0  0  0  0  0  0
    6.8437  -13.5411   18.1454 N   0  0  0  0  0  0  0  0  0  0  0  0
    6.9603  -14.1781   19.4390 C   0  0  0  0  0  0  0  0  0  0  0  0
    8.2006  -14.9959   19.5697 C   0  0  0  0  0  0  0  0  0  0  0  0
    9.0072  -14.7933   20.7892 C   0  0  0  0  0  0  0  0  0  0  0  0
    8.9164  -15.8319   21.8477 C   0  0  2  0  0  0  0  0  0  0  0  0
    7.5510  -16.3824   21.8174 N   0  0  0  0  0  0  0  0  0  0  0  0
    9.1501  -15.2712   23.2134 C   0  0  0  0  0  0  0  0  0  0  0  0
   10.2166  -14.6208   23.4790 O   0  0  0  0  0  0  0  0  0  0  0  0
    7.6129  -14.4397   15.6975 C   0  0  0  0  0  0  0  0  0  0  0  0
    5.5529  -12.6748   26.7404 C   0  0  1  0  0  0  0  0  0  0  0  0
    6.9941  -12.8996   26.2171 C   0  0  0  0  0  0  0  0  0  0  0  0
    7.0398  -12.2302   24.8848 C   0  0  0  0  0  0  0  0  0  0  0  0
    7.2000  -14.3606   26.1951 C   0  0  2  0  0  0  0  0  0  0  0  0
    8.4916  -14.8728   25.6336 N   0  0  0  0  0  0  0  0  0  0  0  0
    8.2324  -15.4181   24.2774 C   0  0  0  0  0  0  0  0  0  0  0  0
    9.0571  -15.9942   26.4108 O   0  0  0  0  0  0  0  0  0  0  0  0
    9.3875  -15.7821   27.6252 N   0  0  0  0  0  0  0  0  0  0  0  0
    9.2554  -17.3040   25.8937 C   0  0  1  0  0  0  0  0  0  0  0  0
    9.8850  -18.3142   26.7608 C   0  0  0  0  0  0  0  0  0  0  0  0
    9.2261  -19.6539   26.5473 C   0  0  0  0  0  0  0  0  0  0  0  0
    7.9239  -19.8055   27.2207 O   0  0  0  0  0  0  0  0  0  0  0  0
    7.7488  -19.1681   28.3123 C   0  0  0  0  0  0  0  0  0  0  0  0
   11.3044  -18.4250   26.3449 O   0  0  0  0  0  0  0  0  0  0  0  0
   12.0752  -19.2002   27.0082 O   0  0  0  0  0  0  0  0  0  0  0  0
    6.8651  -20.5704   26.7958 O   0  0  0  0  0  0  0  0  0  0  0  0
  2  1  1  0
  2  4  1  0
  3  2  2  0
  5  4  1  0
  6  5  1  0
  7  6  1  0
  8 10  1  0
  8  9  1  1
  8  7  1  0
 10 11  2  0
 13 12  1  1
 13 14  1  0
 15 13  1  0
 16 15  1  6
 16 17  1  0
 17 10  1  0
 18 16  1  0
 19 18  2  0
 20 18  1  0
 21 20  1  0
 21 22  1  1
 22 23  1  0
 23 27  1  0
 23 24  2  0
 25 21  1  0
 26 25  2  0
 28 25  1  0
M  END
$$$$
