RLD.pdb
     RDKit          3D

 28 27  0  0  1  0  0  0  0  0999 V2000
    6.5363  -18.1583   17.0377 N   0  0  0  0  0  0  0  0  0  0  0  0
    7.5060  -17.6324   16.1170 C   0  0  0  0  0  0  0  0  0  0  0  0
    7.2916  -17.8122   14.8736 N   0  0  0  0  0  0  0  0  0  0  0  0
    8.6342  -16.9489   16.6376 N   0  0  0  0  0  0  0  0  0  0  0  0
    8.8061  -16.8791   18.0723 C   0  0  0  0  0  0  0  0  0  0  0  0
    8.5918  -15.5058   18.6130 C   0  0  0  0  0  0  0  0  0  0  0  0
    7.5032  -15.3387   19.5959 C   0  0  0  0  0  0  0  0  0  0  0  0
    7.2637  -13.9703   20.1225 C   0  0  2  0  0  0  0  0  0  0  0  0
    7.8951  -13.0175   19.1943 N   0  0  0  0  0  0  0  0  0  0  0  0
    7.8772  -13.7663   21.4702 C   0  0  0  0  0  0  0  0  0  0  0  0
    9.0959  -13.4019   21.5849 O   0  0  0  0  0  0  0  0  0  0  0  0
    7.8905  -17.5154   14.0881 C   0  0  0  0  0  0  0  0  0  0  0  0
    5.7998  -12.5340   27.0620 C   0  0  1  0  0  0  0  0  0  0  0  0
    7.0849  -13.0338   26.3548 C   0  0  0  0  0  0  0  0  0  0  0  0
    8.1307  -12.0182   26.6714 C   0  0  0  0  0  0  0  0  0  0  0  0
    6.7438  -13.1618   24.9249 C   0  0  2  0  0  0  0  0  0  0  0  0
    7.7886  -13.7215   24.0079 N   0  0  0  0  0  0  0  0  0  0  0  0
    7.1710  -13.9577   22.6787 C   0  0  0  0  0  0  0  0  0  0  0  0
    8.3008  -15.0354   24.4466 O   0  0  0  0  0  0  0  0  0  0  0  0
    7.5281  -16.0471   24.3540 N   0  0  0  0  0  0  0  0  0  0  0  0
    9.6075  -15.2504   24.9648 C   0  0  1  0  0  0  0  0  0  0  0  0
   10.0431  -16.6335   25.2219 C   0  0  0  0  0  0  0  0  0  0  0  0
   11.5161  -16.7690   24.9279 C   0  0  0  0  0  0  0  0  0  0  0  0
   11.8249  -17.5400   23.7103 O   0  0  0  0  0  0  0  0  0  0  0  0
   10.8417  -18.0172   23.0516 C   0  0  0  0  0  0  0  0  0  0  0  0
    9.8333  -16.8974   26.6664 O   0  0  0  0  0  0  0  0  0  0  0  0
    9.6451  -15.9021   27.4468 O   0  0  0  0  0  0  0  0  0  0  0  0
   13.0732  -17.8057   23.2025 O   0  0  0  0  0  0  0  0  0  0  0  0
  2  1  1  0
  2  4  1  0
  3  2  2  0
  5  4  1  0
  6  5  1  0
  7  6  1  0
  8 10  1  0
  8  9  1  6
  8  7  1  0
 10 11  2  0
 13 12  1  1
 13 14  1  0
 15 13  1  0
 16 15  1  6
 16 17  1  0
 17 10  1  0
 18 16  1  0
 19 18  2  0
 20 18  1  0
 21 20  1  0
 21 22  1  1
 22 23  1  0
 23 27  1  0
 23 24  2  0
 25 21  1  0
 26 25  2  0
 28 25  1  0
M  END
$$$$
