RLD.pdb
     RDKit          3D

 28 27  0  0  1  0  0  0  0  0999 V2000
    8.9244  -12.7558   19.0360 N   0  0  0  0  0  0  0  0  0  0  0  0
    8.2065  -13.2243   17.8829 C   0  0  0  0  0  0  0  0  0  0  0  0
    7.5485  -12.3632   17.2122 N   0  0  0  0  0  0  0  0  0  0  0  0
    8.2709  -14.6033   17.5583 N   0  0  0  0  0  0  0  0  0  0  0  0
    9.0851  -15.4749   18.3770 C   0  0  0  0  0  0  0  0  0  0  0  0
    8.4743  -15.7516   19.7091 C   0  0  0  0  0  0  0  0  0  0  0  0
    9.3156  -15.4946   20.8945 C   0  0  0  0  0  0  0  0  0  0  0  0
    9.2311  -16.4668   22.0148 C   0  0  2  0  0  0  0  0  0  0  0  0
    7.8668  -17.0208   22.0237 N   0  0  0  0  0  0  0  0  0  0  0  0
    9.4689  -15.8233   23.3428 C   0  0  0  0  0  0  0  0  0  0  0  0
   10.5306  -15.1479   23.5608 O   0  0  0  0  0  0  0  0  0  0  0  0
    7.0578  -12.5121   16.3173 C   0  0  0  0  0  0  0  0  0  0  0  0
    8.0402  -12.3933   25.8345 C   0  0  2  0  0  0  0  0  0  0  0  0
    7.0134  -13.5285   25.5937 C   0  0  0  0  0  0  0  0  0  0  0  0
    5.7228  -13.0165   26.1392 C   0  0  0  0  0  0  0  0  0  0  0  0
    7.5541  -14.7224   26.2717 C   0  0  2  0  0  0  0  0  0  0  0  0
    8.8318  -15.3024   25.7454 N   0  0  0  0  0  0  0  0  0  0  0  0
    8.5605  -15.9154   24.4208 C   0  0  0  0  0  0  0  0  0  0  0  0
    9.3623  -16.3941   26.5867 O   0  0  0  0  0  0  0  0  0  0  0  0
    9.6074  -16.1466   27.8146 N   0  0  0  0  0  0  0  0  0  0  0  0
    9.6161  -17.7124   26.1176 C   0  0  2  0  0  0  0  0  0  0  0  0
   10.5658  -18.5539   26.8649 C   0  0  0  0  0  0  0  0  0  0  0  0
   11.9788  -18.1161   26.5706 C   0  0  0  0  0  0  0  0  0  0  0  0
   12.5871  -18.7717   25.3990 O   0  0  0  0  0  0  0  0  0  0  0  0
   11.8337  -18.9957   24.3937 C   0  0  0  0  0  0  0  0  0  0  0  0
   10.3044  -18.3335   28.3082 O   0  0  0  0  0  0  0  0  0  0  0  0
    9.7366  -17.2449   28.6656 O   0  0  0  0  0  0  0  0  0  0  0  0
   13.8939  -19.1748   25.2715 O   0  0  0  0  0  0  0  0  0  0  0  0
  2  1  1  0
  2  4  1  0
  3  2  2  0
  5  4  1  0
  6  5  1  0
  7  6  1  0
  8 10  1  0
  8  9  1  1
  8  7  1  0
 10 11  2  0
 13 12  1  6
 13 14  1  0
 15 13  1  0
 16 15  1  6
 16 17  1  0
 17 10  1  0
 18 16  1  0
 19 18  2  0
 20 18  1  0
 21 20  1  0
 21 22  1  6
 22 23  1  0
 23 27  1  0
 23 24  2  0
 25 21  1  0
 26 25  2  0
 28 25  1  0
M  END
$$$$
