IKP.pdb
     RDKit          3D

 25 25  0  0  1  0  0  0  0  0999 V2000
    8.0598  -12.2345   18.3975 C   0  0  0  0  0  0  0  0  0  0  0  0
    8.2522  -13.6724   18.8120 C   0  0  0  0  0  0  0  0  0  0  0  0
    7.6022  -13.9218   20.1411 C   0  0  2  0  0  0  0  0  0  0  0  0
    8.2231  -13.0330   21.1989 C   0  0  0  0  0  0  0  0  0  0  0  0
    7.6538  -15.3715   20.5331 C   0  0  2  0  0  0  0  0  0  0  0  0
    6.9196  -16.2024   19.6079 N   0  0  0  0  0  0  0  0  0  0  0  0
    7.1424  -15.5645   21.9172 C   0  0  0  0  0  0  0  0  0  0  0  0
    5.8952  -15.4808   22.0960 O   0  0  0  0  0  0  0  0  0  0  0  0
    7.9946  -15.8314   23.0055 N   0  0  0  0  0  0  0  0  0  0  0  0
    7.4880  -16.0138   24.3785 C   0  0  1  0  0  0  0  0  0  0  0  0
    7.7305  -17.4582   24.7577 C   0  0  0  0  0  0  0  0  0  0  0  0
    7.4171  -17.7161   26.1885 C   0  0  0  0  0  0  0  0  0  0  0  0
    7.7292  -19.1704   26.5671 C   0  0  0  0  0  0  0  0  0  0  0  0
    7.2519  -19.3698   27.9761 C   0  0  0  0  0  0  0  0  0  0  0  0
    7.4536  -20.7273   28.4284 N   0  0  0  0  0  0  0  0  0  0  0  0
    8.2940  -15.1179   25.2206 C   0  0  0  0  0  0  0  0  0  0  0  0
    9.5731  -15.2101   25.0828 O   0  0  0  0  0  0  0  0  0  0  0  0
    7.8498  -14.1747   26.1429 N   0  0  0  0  0  0  0  0  0  0  0  0
    6.4589  -13.7460   26.3307 C   0  0  0  0  0  0  0  0  0  0  0  0
    6.5942  -12.2578   26.6304 C   0  0  0  0  0  0  0  0  0  0  0  0
    7.8528  -12.2190   27.4773 C   0  0  0  0  0  0  0  0  0  0  0  0
    8.6818  -13.4236   27.0671 C   0  0  1  0  0  0  0  0  0  0  0  0
    9.0295  -14.2520   28.2295 C   0  0  0  0  0  0  0  0  0  0  0  0
    8.3895  -15.4863   28.3585 O   0  0  0  0  0  0  0  0  0  0  0  0
    9.8494  -13.9567   29.1220 O   0  0  0  0  0  0  0  0  0  0  0  0
  1  2  1  0
  3  5  1  0
  3  2  1  0
  3  4  1  1
  5  6  1  6
  7  5  1  0
  8  7  2  0
  9  7  1  0
 10 11  1  1
 10  9  1  0
 11 12  1  0
 13 12  1  0
 13 14  1  0
 14 15  1  0
 16 17  2  0
 16 10  1  0
 18 16  1  0
 19 18  1  0
 20 21  1  0
 20 19  1  0
 21 22  1  0
 22 18  1  0
 22 23  1  1
 24 23  1  0
 25 23  2  0
M  END
$$$$
