IKP.pdb
     RDKit          3D

 25 25  0  0  1  0  0  0  0  0999 V2000
    8.1746  -12.1333   18.4405 C   0  0  0  0  0  0  0  0  0  0  0  0
    8.3968  -13.5779   18.8147 C   0  0  0  0  0  0  0  0  0  0  0  0
    7.7075  -13.8916   20.1100 C   0  0  2  0  0  0  0  0  0  0  0  0
    8.2431  -13.0021   21.2129 C   0  0  0  0  0  0  0  0  0  0  0  0
    7.8128  -15.3468   20.4692 C   0  0  2  0  0  0  0  0  0  0  0  0
    7.1686  -16.1880   19.4879 N   0  0  0  0  0  0  0  0  0  0  0  0
    7.2435  -15.6015   21.8203 C   0  0  0  0  0  0  0  0  0  0  0  0
    5.9869  -15.5696   21.9401 O   0  0  0  0  0  0  0  0  0  0  0  0
    8.0521  -15.8703   22.9408 N   0  0  0  0  0  0  0  0  0  0  0  0
    7.4898  -16.0812   24.2878 C   0  0  1  0  0  0  0  0  0  0  0  0
    7.7610  -17.5205   24.6665 C   0  0  0  0  0  0  0  0  0  0  0  0
    7.3227  -17.8205   26.0557 C   0  0  0  0  0  0  0  0  0  0  0  0
    7.6708  -19.2643   26.4433 C   0  0  0  0  0  0  0  0  0  0  0  0
    7.0699  -19.5132   27.7960 C   0  0  0  0  0  0  0  0  0  0  0  0
    7.2871  -20.8701   28.2429 N   0  0  0  0  0  0  0  0  0  0  0  0
    8.2275  -15.1679   25.1728 C   0  0  0  0  0  0  0  0  0  0  0  0
    9.5029  -15.1092   24.9894 O   0  0  0  0  0  0  0  0  0  0  0  0
    7.7212  -14.3505   26.1792 N   0  0  0  0  0  0  0  0  0  0  0  0
    6.3094  -14.2347   26.5626 C   0  0  0  0  0  0  0  0  0  0  0  0
    6.1632  -12.7548   26.8967 C   0  0  0  0  0  0  0  0  0  0  0  0
    7.4873  -12.4511   27.5730 C   0  0  0  0  0  0  0  0  0  0  0  0
    8.4910  -13.4443   27.0140 C   0  0  1  0  0  0  0  0  0  0  0  0
    9.1616  -14.1868   28.0898 C   0  0  0  0  0  0  0  0  0  0  0  0
   10.1206  -13.5075   28.8438 O   0  0  0  0  0  0  0  0  0  0  0  0
    8.9554  -15.3777   28.3982 O   0  0  0  0  0  0  0  0  0  0  0  0
  1  2  1  0
  3  5  1  0
  3  2  1  0
  3  4  1  1
  5  6  1  6
  7  5  1  0
  8  7  2  0
  9  7  1  0
 10 11  1  1
 10  9  1  0
 11 12  1  0
 13 12  1  0
 13 14  1  0
 14 15  1  0
 16 17  2  0
 16 10  1  0
 18 16  1  0
 19 18  1  0
 20 21  1  0
 20 19  1  0
 21 22  1  0
 22 18  1  0
 22 23  1  1
 24 23  1  0
 25 23  2  0
M  END
$$$$
