IKP.pdb
     RDKit          3D

 25 25  0  0  1  0  0  0  0  0999 V2000
   10.3330  -14.1733   29.3829 C   0  0  0  0  0  0  0  0  0  0  0  0
    9.0361  -14.7697   28.8942 C   0  0  0  0  0  0  0  0  0  0  0  0
    9.1624  -15.1823   27.4572 C   0  0  2  0  0  0  0  0  0  0  0  0
    9.7202  -14.0390   26.6348 C   0  0  0  0  0  0  0  0  0  0  0  0
    7.8627  -15.6873   26.8971 C   0  0  2  0  0  0  0  0  0  0  0  0
    7.3356  -16.7844   27.6744 N   0  0  0  0  0  0  0  0  0  0  0  0
    8.0211  -16.0928   25.4740 C   0  0  0  0  0  0  0  0  0  0  0  0
    8.1387  -17.3256   25.2276 O   0  0  0  0  0  0  0  0  0  0  0  0
    8.0426  -15.1580   24.4217 N   0  0  0  0  0  0  0  0  0  0  0  0
    8.2432  -15.5564   23.0159 C   0  0  1  0  0  0  0  0  0  0  0  0
    7.8793  -14.3659   22.1563 C   0  0  0  0  0  0  0  0  0  0  0  0
    8.1475  -14.6196   20.7156 C   0  0  0  0  0  0  0  0  0  0  0  0
    7.7921  -13.3924   19.8649 C   0  0  0  0  0  0  0  0  0  0  0  0
    8.0018  -13.7771   18.4294 C   0  0  0  0  0  0  0  0  0  0  0  0
    7.5987  -12.7261   17.5233 N   0  0  0  0  0  0  0  0  0  0  0  0
    9.6756  -15.8631   22.8915 C   0  0  0  0  0  0  0  0  0  0  0  0
   10.4790  -15.0850   23.5340 O   0  0  0  0  0  0  0  0  0  0  0  0
   10.2747  -16.8944   22.1738 N   0  0  0  0  0  0  0  0  0  0  0  0
    9.5763  -17.8751   21.3347 C   0  0  0  0  0  0  0  0  0  0  0  0
   10.3623  -19.1582   21.5773 C   0  0  0  0  0  0  0  0  0  0  0  0
   11.7872  -18.6439   21.6674 C   0  0  0  0  0  0  0  0  0  0  0  0
   11.6935  -17.2055   22.1454 C   0  0  1  0  0  0  0  0  0  0  0  0
   12.3976  -16.2940   21.2333 C   0  0  0  0  0  0  0  0  0  0  0  0
   11.6330  -15.6067   20.2885 O   0  0  0  0  0  0  0  0  0  0  0  0
   13.6250  -16.0722   21.2208 O   0  0  0  0  0  0  0  0  0  0  0  0
  1  2  1  0
  3  5  1  0
  3  2  1  0
  3  4  1  6
  5  6  1  1
  7  5  1  0
  8  7  2  0
  9  7  1  0
 10 11  1  6
 10  9  1  0
 11 12  1  0
 13 12  1  0
 13 14  1  0
 14 15  1  0
 16 17  2  0
 16 10  1  0
 18 16  1  0
 19 18  1  0
 20 21  1  0
 20 19  1  0
 21 22  1  0
 22 18  1  0
 22 23  1  6
 24 23  1  0
 25 23  2  0
M  END
$$$$
