IKP.pdb
     RDKit          3D

 25 25  0  0  1  0  0  0  0  0999 V2000
    8.0348  -12.1637   18.6797 C   0  0  0  0  0  0  0  0  0  0  0  0
    8.2116  -13.6291   18.9926 C   0  0  0  0  0  0  0  0  0  0  0  0
    7.5785  -13.9591   20.3123 C   0  0  2  0  0  0  0  0  0  0  0  0
    8.1677  -13.0897   21.4039 C   0  0  0  0  0  0  0  0  0  0  0  0
    7.6909  -15.4203   20.6442 C   0  0  2  0  0  0  0  0  0  0  0  0
    6.9974  -16.2426   19.6808 N   0  0  0  0  0  0  0  0  0  0  0  0
    7.1820  -15.6926   22.0159 C   0  0  0  0  0  0  0  0  0  0  0  0
    5.9323  -15.6566   22.1931 O   0  0  0  0  0  0  0  0  0  0  0  0
    8.0392  -15.9819   23.0944 N   0  0  0  0  0  0  0  0  0  0  0  0
    7.5448  -16.1425   24.4746 C   0  0  1  0  0  0  0  0  0  0  0  0
    7.6711  -17.6080   24.8284 C   0  0  0  0  0  0  0  0  0  0  0  0
    7.3250  -17.8668   26.2515 C   0  0  0  0  0  0  0  0  0  0  0  0
    7.4791  -19.3551   26.5938 C   0  0  0  0  0  0  0  0  0  0  0  0
    7.0015  -19.5330   28.0055 C   0  0  0  0  0  0  0  0  0  0  0  0
    7.0145  -20.9202   28.4101 N   0  0  0  0  0  0  0  0  0  0  0  0
    8.4394  -15.3313   25.3130 C   0  0  0  0  0  0  0  0  0  0  0  0
    9.7036  -15.5132   25.1328 O   0  0  0  0  0  0  0  0  0  0  0  0
    8.0938  -14.3835   26.2721 N   0  0  0  0  0  0  0  0  0  0  0  0
    6.7299  -13.9551   26.6035 C   0  0  0  0  0  0  0  0  0  0  0  0
    6.8939  -12.4651   26.8793 C   0  0  0  0  0  0  0  0  0  0  0  0
    8.2349  -12.4207   27.5883 C   0  0  0  0  0  0  0  0  0  0  0  0
    9.0177  -13.6267   27.0992 C   0  0  1  0  0  0  0  0  0  0  0  0
    9.4874  -14.4485   28.2228 C   0  0  0  0  0  0  0  0  0  0  0  0
   10.5165  -13.9342   29.0142 O   0  0  0  0  0  0  0  0  0  0  0  0
    9.0517  -15.5729   28.5418 O   0  0  0  0  0  0  0  0  0  0  0  0
  1  2  1  0
  3  5  1  0
  3  2  1  0
  3  4  1  1
  5  6  1  6
  7  5  1  0
  8  7  2  0
  9  7  1  0
 10 11  1  1
 10  9  1  0
 11 12  1  0
 13 12  1  0
 13 14  1  0
 14 15  1  0
 16 17  2  0
 16 10  1  0
 18 16  1  0
 19 18  1  0
 20 21  1  0
 20 19  1  0
 21 22  1  0
 22 18  1  0
 22 23  1  1
 24 23  1  0
 25 23  2  0
M  END
$$$$
