IKP.pdb
     RDKit          3D

 25 25  0  0  1  0  0  0  0  0999 V2000
    7.7102  -11.9405   20.0559 C   0  0  0  0  0  0  0  0  0  0  0  0
    7.2032  -13.3516   20.2233 C   0  0  0  0  0  0  0  0  0  0  0  0
    8.3537  -14.3117   20.3008 C   0  0  2  0  0  0  0  0  0  0  0  0
    9.1376  -14.2900   19.0049 C   0  0  0  0  0  0  0  0  0  0  0  0
    7.9078  -15.7016   20.6574 C   0  0  2  0  0  0  0  0  0  0  0  0
    7.0124  -16.2475   19.6645 N   0  0  0  0  0  0  0  0  0  0  0  0
    7.2650  -15.7238   21.9994 C   0  0  0  0  0  0  0  0  0  0  0  0
    6.0521  -15.3804   22.0717 O   0  0  0  0  0  0  0  0  0  0  0  0
    7.9595  -16.1088   23.1618 N   0  0  0  0  0  0  0  0  0  0  0  0
    7.3496  -16.0458   24.5031 C   0  0  1  0  0  0  0  0  0  0  0  0
    7.2341  -17.4664   25.0103 C   0  0  0  0  0  0  0  0  0  0  0  0
    6.4149  -18.3141   24.1036 C   0  0  0  0  0  0  0  0  0  0  0  0
    6.3496  -19.7609   24.6121 C   0  0  0  0  0  0  0  0  0  0  0  0
    5.5772  -20.5496   23.5951 C   0  0  0  0  0  0  0  0  0  0  0  0
    6.3750  -21.6008   23.0064 N   0  0  0  0  0  0  0  0  0  0  0  0
    8.2913  -15.2781   25.3310 C   0  0  0  0  0  0  0  0  0  0  0  0
    9.5435  -15.5127   25.1294 O   0  0  0  0  0  0  0  0  0  0  0  0
    8.0017  -14.3220   26.3002 N   0  0  0  0  0  0  0  0  0  0  0  0
    6.6832  -13.7306   26.5562 C   0  0  0  0  0  0  0  0  0  0  0  0
    7.0152  -12.2831   26.8988 C   0  0  0  0  0  0  0  0  0  0  0  0
    8.2974  -12.4332   27.6967 C   0  0  0  0  0  0  0  0  0  0  0  0
    8.9533  -13.7155   27.2152 C   0  0  1  0  0  0  0  0  0  0  0  0
    9.2340  -14.6235   28.3355 C   0  0  0  0  0  0  0  0  0  0  0  0
   10.2513  -14.2625   29.2212 O   0  0  0  0  0  0  0  0  0  0  0  0
    8.6457  -15.6971   28.5748 O   0  0  0  0  0  0  0  0  0  0  0  0
  1  2  1  0
  3  5  1  0
  3  2  1  0
  3  4  1  6
  5  6  1  6
  7  5  1  0
  8  7  2  0
  9  7  1  0
 10 11  1  1
 10  9  1  0
 11 12  1  0
 13 12  1  0
 13 14  1  0
 14 15  1  0
 16 17  2  0
 16 10  1  0
 18 16  1  0
 19 18  1  0
 20 21  1  0
 20 19  1  0
 21 22  1  0
 22 18  1  0
 22 23  1  1
 24 23  1  0
 25 23  2  0
M  END
$$$$
