IKP.pdb
     RDKit          3D

 25 25  0  0  1  0  0  0  0  0999 V2000
    8.3526  -11.8705   19.8563 C   0  0  0  0  0  0  0  0  0  0  0  0
    7.6433  -13.1854   20.0664 C   0  0  0  0  0  0  0  0  0  0  0  0
    8.6374  -14.3070   20.1368 C   0  0  2  0  0  0  0  0  0  0  0  0
    9.4856  -14.3300   18.8820 C   0  0  0  0  0  0  0  0  0  0  0  0
    7.9772  -15.6337   20.3857 C   0  0  2  0  0  0  0  0  0  0  0  0
    7.0020  -15.9453   19.3671 N   0  0  0  0  0  0  0  0  0  0  0  0
    7.3447  -15.6663   21.7324 C   0  0  0  0  0  0  0  0  0  0  0  0
    6.1023  -15.4510   21.7995 O   0  0  0  0  0  0  0  0  0  0  0  0
    8.0800  -15.9249   22.9046 N   0  0  0  0  0  0  0  0  0  0  0  0
    7.4340  -16.1043   24.2182 C   0  0  1  0  0  0  0  0  0  0  0  0
    7.5320  -17.5726   24.5692 C   0  0  0  0  0  0  0  0  0  0  0  0
    7.0886  -17.8404   25.9633 C   0  0  0  0  0  0  0  0  0  0  0  0
    7.3511  -19.3014   26.3536 C   0  0  0  0  0  0  0  0  0  0  0  0
    6.9019  -19.4636   27.7765 C   0  0  0  0  0  0  0  0  0  0  0  0
    7.1889  -20.7846   28.2871 N   0  0  0  0  0  0  0  0  0  0  0  0
    8.2211  -15.2958   25.1607 C   0  0  0  0  0  0  0  0  0  0  0  0
    9.5001  -15.3192   24.9957 O   0  0  0  0  0  0  0  0  0  0  0  0
    7.7587  -14.4996   26.2047 N   0  0  0  0  0  0  0  0  0  0  0  0
    6.3586  -14.3566   26.6204 C   0  0  0  0  0  0  0  0  0  0  0  0
    6.2625  -12.8857   27.0079 C   0  0  0  0  0  0  0  0  0  0  0  0
    7.6078  -12.6439   27.6671 C   0  0  0  0  0  0  0  0  0  0  0  0
    8.5708  -13.6456   27.0541 C   0  0  1  0  0  0  0  0  0  0  0  0
    9.2399  -14.4441   28.0900 C   0  0  0  0  0  0  0  0  0  0  0  0
   10.2678  -13.8350   28.8126 O   0  0  0  0  0  0  0  0  0  0  0  0
    8.9763  -15.6259   28.3898 O   0  0  0  0  0  0  0  0  0  0  0  0
  1  2  1  0
  3  5  1  0
  3  2  1  0
  3  4  1  6
  5  6  1  6
  7  5  1  0
  8  7  2  0
  9  7  1  0
 10 11  1  1
 10  9  1  0
 11 12  1  0
 13 12  1  0
 13 14  1  0
 14 15  1  0
 16 17  2  0
 16 10  1  0
 18 16  1  0
 19 18  1  0
 20 21  1  0
 20 19  1  0
 21 22  1  0
 22 18  1  0
 22 23  1  1
 24 23  1  0
 25 23  2  0
M  END
$$$$
