IKP.pdb
     RDKit          3D

 25 25  0  0  1  0  0  0  0  0999 V2000
    7.9639  -11.8957   19.7973 C   0  0  0  0  0  0  0  0  0  0  0  0
    7.3965  -13.2745   20.0280 C   0  0  0  0  0  0  0  0  0  0  0  0
    8.5028  -14.2845   20.1133 C   0  0  2  0  0  0  0  0  0  0  0  0
    9.3419  -14.2447   18.8527 C   0  0  0  0  0  0  0  0  0  0  0  0
    7.9863  -15.6674   20.3937 C   0  0  2  0  0  0  0  0  0  0  0  0
    7.0594  -16.1084   19.3779 N   0  0  0  0  0  0  0  0  0  0  0  0
    7.3488  -15.7325   21.7369 C   0  0  0  0  0  0  0  0  0  0  0  0
    6.0874  -15.7072   21.7865 O   0  0  0  0  0  0  0  0  0  0  0  0
    8.0998  -15.8194   22.9244 N   0  0  0  0  0  0  0  0  0  0  0  0
    7.4698  -16.0051   24.2449 C   0  0  1  0  0  0  0  0  0  0  0  0
    7.6319  -17.4621   24.6181 C   0  0  0  0  0  0  0  0  0  0  0  0
    7.1875  -17.7304   26.0118 C   0  0  0  0  0  0  0  0  0  0  0  0
    7.7326  -19.0743   26.5146 C   0  0  0  0  0  0  0  0  0  0  0  0
    7.2209  -19.2605   27.9132 C   0  0  0  0  0  0  0  0  0  0  0  0
    7.6935  -20.4924   28.5025 N   0  0  0  0  0  0  0  0  0  0  0  0
    8.2275  -15.1491   25.1694 C   0  0  0  0  0  0  0  0  0  0  0  0
    9.5120  -15.1980   25.0621 O   0  0  0  0  0  0  0  0  0  0  0  0
    7.7326  -14.2844   26.1414 N   0  0  0  0  0  0  0  0  0  0  0  0
    6.3151  -14.0294   26.4225 C   0  0  0  0  0  0  0  0  0  0  0  0
    6.2913  -12.5419   26.7537 C   0  0  0  0  0  0  0  0  0  0  0  0
    7.5865  -12.3692   27.5255 C   0  0  0  0  0  0  0  0  0  0  0  0
    8.5254  -13.4573   27.0347 C   0  0  1  0  0  0  0  0  0  0  0  0
    9.0400  -14.2608   28.1518 C   0  0  0  0  0  0  0  0  0  0  0  0
    8.5915  -15.5787   28.2608 O   0  0  0  0  0  0  0  0  0  0  0  0
    9.8470  -13.8761   29.0216 O   0  0  0  0  0  0  0  0  0  0  0  0
  1  2  1  0
  3  5  1  0
  3  2  1  0
  3  4  1  6
  5  6  1  6
  7  5  1  0
  8  7  2  0
  9  7  1  0
 10 11  1  1
 10  9  1  0
 11 12  1  0
 13 12  1  0
 13 14  1  0
 14 15  1  0
 16 17  2  0
 16 10  1  0
 18 16  1  0
 19 18  1  0
 20 21  1  0
 20 19  1  0
 21 22  1  0
 22 18  1  0
 22 23  1  1
 24 23  1  0
 25 23  2  0
M  END
$$$$
