IKP.pdb
     RDKit          3D

 25 25  0  0  1  0  0  0  0  0999 V2000
    8.0881  -12.0198   19.8279 C   0  0  0  0  0  0  0  0  0  0  0  0
    7.4808  -13.3814   20.0597 C   0  0  0  0  0  0  0  0  0  0  0  0
    8.5597  -14.4125   20.2140 C   0  0  2  0  0  0  0  0  0  0  0  0
    9.3898  -14.4901   18.9493 C   0  0  0  0  0  0  0  0  0  0  0  0
    8.0078  -15.7558   20.5997 C   0  0  2  0  0  0  0  0  0  0  0  0
    7.0857  -16.2598   19.6091 N   0  0  0  0  0  0  0  0  0  0  0  0
    7.3498  -15.6952   21.9331 C   0  0  0  0  0  0  0  0  0  0  0  0
    6.1285  -15.3763   21.9678 O   0  0  0  0  0  0  0  0  0  0  0  0
    8.0392  -15.9775   23.1276 N   0  0  0  0  0  0  0  0  0  0  0  0
    7.3790  -15.9475   24.4461 C   0  0  1  0  0  0  0  0  0  0  0  0
    7.4780  -17.3400   25.0289 C   0  0  0  0  0  0  0  0  0  0  0  0
    6.6242  -18.3109   24.2937 C   0  0  0  0  0  0  0  0  0  0  0  0
    6.7081  -19.7070   24.9259 C   0  0  0  0  0  0  0  0  0  0  0  0
    5.8980  -20.6297   24.0627 C   0  0  0  0  0  0  0  0  0  0  0  0
    6.0315  -22.0092   24.4716 N   0  0  0  0  0  0  0  0  0  0  0  0
    8.1525  -14.9943   25.2550 C   0  0  0  0  0  0  0  0  0  0  0  0
    9.4214  -14.9571   25.0266 O   0  0  0  0  0  0  0  0  0  0  0  0
    7.6862  -14.1190   26.2318 N   0  0  0  0  0  0  0  0  0  0  0  0
    6.2866  -13.9570   26.6421 C   0  0  0  0  0  0  0  0  0  0  0  0
    6.1759  -12.4600   26.9064 C   0  0  0  0  0  0  0  0  0  0  0  0
    7.5215  -12.1496   27.5355 C   0  0  0  0  0  0  0  0  0  0  0  0
    8.4928  -13.1884   27.0025 C   0  0  1  0  0  0  0  0  0  0  0  0
    9.1757  -13.8906   28.0974 C   0  0  0  0  0  0  0  0  0  0  0  0
    8.8672  -15.2384   28.2931 O   0  0  0  0  0  0  0  0  0  0  0  0
   10.0132  -13.3947   28.8776 O   0  0  0  0  0  0  0  0  0  0  0  0
  1  2  1  0
  3  5  1  0
  3  2  1  0
  3  4  1  6
  5  6  1  6
  7  5  1  0
  8  7  2  0
  9  7  1  0
 10 11  1  1
 10  9  1  0
 11 12  1  0
 13 12  1  0
 13 14  1  0
 14 15  1  0
 16 17  2  0
 16 10  1  0
 18 16  1  0
 19 18  1  0
 20 21  1  0
 20 19  1  0
 21 22  1  0
 22 18  1  0
 22 23  1  1
 24 23  1  0
 25 23  2  0
M  END
$$$$
