IKP.pdb
     RDKit          3D

 25 25  0  0  1  0  0  0  0  0999 V2000
    9.8991  -14.4435   28.8131 C   0  0  0  0  0  0  0  0  0  0  0  0
    8.5239  -14.6929   28.2448 C   0  0  0  0  0  0  0  0  0  0  0  0
    8.6249  -15.1391   26.8158 C   0  0  2  0  0  0  0  0  0  0  0  0
    9.4598  -14.1559   26.0216 C   0  0  0  0  0  0  0  0  0  0  0  0
    7.2742  -15.3517   26.1925 C   0  0  2  0  0  0  0  0  0  0  0  0
    6.5558  -16.4313   26.8280 N   0  0  0  0  0  0  0  0  0  0  0  0
    7.3989  -15.6048   24.7314 C   0  0  0  0  0  0  0  0  0  0  0  0
    7.3453  -16.8040   24.3397 O   0  0  0  0  0  0  0  0  0  0  0  0
    7.5713  -14.5651   23.7981 N   0  0  0  0  0  0  0  0  0  0  0  0
    7.6944  -14.8164   22.3501 C   0  0  1  0  0  0  0  0  0  0  0  0
    7.6004  -13.4771   21.6530 C   0  0  0  0  0  0  0  0  0  0  0  0
    7.1952  -13.6203   20.2291 C   0  0  0  0  0  0  0  0  0  0  0  0
    8.4162  -13.8611   19.3307 C   0  0  0  0  0  0  0  0  0  0  0  0
    7.9200  -13.8940   17.9145 C   0  0  0  0  0  0  0  0  0  0  0  0
    8.9792  -14.1898   16.9771 N   0  0  0  0  0  0  0  0  0  0  0  0
    9.0294  -15.4027   22.1617 C   0  0  0  0  0  0  0  0  0  0  0  0
    9.9728  -14.9075   22.8886 O   0  0  0  0  0  0  0  0  0  0  0  0
    9.4025  -16.4326   21.3029 N   0  0  0  0  0  0  0  0  0  0  0  0
    8.5121  -17.1467   20.3805 C   0  0  0  0  0  0  0  0  0  0  0  0
    9.0331  -18.5779   20.4369 C   0  0  0  0  0  0  0  0  0  0  0  0
   10.5326  -18.3649   20.5319 C   0  0  0  0  0  0  0  0  0  0  0  0
   10.7315  -17.0069   21.1819 C   0  0  1  0  0  0  0  0  0  0  0  0
   11.5879  -16.1425   20.3586 C   0  0  0  0  0  0  0  0  0  0  0  0
   12.9512  -16.4404   20.3102 O   0  0  0  0  0  0  0  0  0  0  0  0
   11.2115  -15.1579   19.6917 O   0  0  0  0  0  0  0  0  0  0  0  0
  1  2  1  0
  3  5  1  0
  3  2  1  0
  3  4  1  6
  5  6  1  1
  7  5  1  0
  8  7  2  0
  9  7  1  0
 10 11  1  6
 10  9  1  0
 11 12  1  0
 13 12  1  0
 13 14  1  0
 14 15  1  0
 16 17  2  0
 16 10  1  0
 18 16  1  0
 19 18  1  0
 20 21  1  0
 20 19  1  0
 21 22  1  0
 22 18  1  0
 22 23  1  6
 24 23  1  0
 25 23  2  0
M  END
$$$$
