IKP.pdb
     RDKit          3D

 25 25  0  0  1  0  0  0  0  0999 V2000
    8.6120  -11.4715   19.6100 C   0  0  0  0  0  0  0  0  0  0  0  0
    8.8469  -12.7865   20.3113 C   0  0  0  0  0  0  0  0  0  0  0  0
    8.4091  -13.9263   19.4394 C   0  0  2  0  0  0  0  0  0  0  0  0
    6.9345  -13.7984   19.1174 C   0  0  0  0  0  0  0  0  0  0  0  0
    8.7310  -15.2614   20.0492 C   0  0  2  0  0  0  0  0  0  0  0  0
    8.4429  -16.3474   19.1419 N   0  0  0  0  0  0  0  0  0  0  0  0
    7.9961  -15.4501   21.3294 C   0  0  0  0  0  0  0  0  0  0  0  0
    6.7456  -15.6136   21.2663 O   0  0  0  0  0  0  0  0  0  0  0  0
    8.6453  -15.4503   22.5785 N   0  0  0  0  0  0  0  0  0  0  0  0
    7.9413  -15.7716   23.8340 C   0  0  1  0  0  0  0  0  0  0  0  0
    8.1898  -17.2352   24.1254 C   0  0  0  0  0  0  0  0  0  0  0  0
    7.3073  -18.1191   23.3180 C   0  0  0  0  0  0  0  0  0  0  0  0
    7.5302  -19.5950   23.6758 C   0  0  0  0  0  0  0  0  0  0  0  0
    6.5993  -20.4007   22.8173 C   0  0  0  0  0  0  0  0  0  0  0  0
    6.7929  -21.8215   22.9954 N   0  0  0  0  0  0  0  0  0  0  0  0
    8.5640  -14.9282   24.8646 C   0  0  0  0  0  0  0  0  0  0  0  0
    9.8536  -14.9052   24.8740 O   0  0  0  0  0  0  0  0  0  0  0  0
    7.9364  -14.1428   25.8273 N   0  0  0  0  0  0  0  0  0  0  0  0
    6.5088  -13.8045   25.8621 C   0  0  0  0  0  0  0  0  0  0  0  0
    6.5073  -12.3682   26.3723 C   0  0  0  0  0  0  0  0  0  0  0  0
    7.6293  -12.3944   27.3937 C   0  0  0  0  0  0  0  0  0  0  0  0
    8.5815  -13.4933   26.9553 C   0  0  1  0  0  0  0  0  0  0  0  0
    8.8132  -14.4603   28.0368 C   0  0  0  0  0  0  0  0  0  0  0  0
    9.6274  -14.0603   29.0984 O   0  0  0  0  0  0  0  0  0  0  0  0
    8.3485  -15.6162   28.0995 O   0  0  0  0  0  0  0  0  0  0  0  0
  1  2  1  0
  3  5  1  0
  3  2  1  0
  3  4  1  1
  5  6  1  6
  7  5  1  0
  8  7  2  0
  9  7  1  0
 10 11  1  1
 10  9  1  0
 11 12  1  0
 13 12  1  0
 13 14  1  0
 14 15  1  0
 16 17  2  0
 16 10  1  0
 18 16  1  0
 19 18  1  0
 20 21  1  0
 20 19  1  0
 21 22  1  0
 22 18  1  0
 22 23  1  1
 24 23  1  0
 25 23  2  0
M  END
$$$$
