IKP.pdb
     RDKit          3D

 25 25  0  0  1  0  0  0  0  0999 V2000
    7.9743  -12.1921   18.5021 C   0  0  0  0  0  0  0  0  0  0  0  0
    8.0009  -13.6672   18.8181 C   0  0  0  0  0  0  0  0  0  0  0  0
    7.4162  -13.9185   20.1768 C   0  0  2  0  0  0  0  0  0  0  0  0
    8.1241  -13.0700   21.2129 C   0  0  0  0  0  0  0  0  0  0  0  0
    7.4392  -15.3759   20.5421 C   0  0  2  0  0  0  0  0  0  0  0  0
    6.6214  -16.1639   19.6501 N   0  0  0  0  0  0  0  0  0  0  0  0
    7.0053  -15.5757   21.9515 C   0  0  0  0  0  0  0  0  0  0  0  0
    5.7669  -15.5280   22.1936 O   0  0  0  0  0  0  0  0  0  0  0  0
    7.9196  -15.8106   22.9957 N   0  0  0  0  0  0  0  0  0  0  0  0
    7.4863  -16.0560   24.3840 C   0  0  1  0  0  0  0  0  0  0  0  0
    7.7750  -17.5084   24.6937 C   0  0  0  0  0  0  0  0  0  0  0  0
    7.5236  -17.8311   26.1236 C   0  0  0  0  0  0  0  0  0  0  0  0
    7.9180  -19.2806   26.4385 C   0  0  0  0  0  0  0  0  0  0  0  0
    7.5413  -19.5377   27.8685 C   0  0  0  0  0  0  0  0  0  0  0  0
    6.8199  -20.7803   28.0227 N   0  0  0  0  0  0  0  0  0  0  0  0
    8.3165  -15.1762   25.2196 C   0  0  0  0  0  0  0  0  0  0  0  0
    9.5866  -15.2192   24.9990 O   0  0  0  0  0  0  0  0  0  0  0  0
    7.9032  -14.2946   26.2143 N   0  0  0  0  0  0  0  0  0  0  0  0
    6.5122  -13.9623   26.5435 C   0  0  0  0  0  0  0  0  0  0  0  0
    6.5841  -12.4793   26.8876 C   0  0  0  0  0  0  0  0  0  0  0  0
    7.9111  -12.3883   27.6182 C   0  0  0  0  0  0  0  0  0  0  0  0
    8.7701  -13.5230   27.0881 C   0  0  1  0  0  0  0  0  0  0  0  0
    9.2735  -14.3656   28.1812 C   0  0  0  0  0  0  0  0  0  0  0  0
    8.7700  -15.6642   28.2810 O   0  0  0  0  0  0  0  0  0  0  0  0
   10.1157  -14.0302   29.0380 O   0  0  0  0  0  0  0  0  0  0  0  0
  1  2  1  0
  3  5  1  0
  3  2  1  0
  3  4  1  1
  5  6  1  6
  7  5  1  0
  8  7  2  0
  9  7  1  0
 10 11  1  1
 10  9  1  0
 11 12  1  0
 13 12  1  0
 13 14  1  0
 14 15  1  0
 16 17  2  0
 16 10  1  0
 18 16  1  0
 19 18  1  0
 20 21  1  0
 20 19  1  0
 21 22  1  0
 22 18  1  0
 22 23  1  1
 24 23  1  0
 25 23  2  0
M  END
$$$$
