IKP.pdb
     RDKit          3D

 25 25  0  0  1  0  0  0  0  0999 V2000
    8.7761  -12.7766   27.8365 C   0  0  0  0  0  0  0  0  0  0  0  0
    7.7949  -13.7112   27.1732 C   0  0  0  0  0  0  0  0  0  0  0  0
    6.8661  -12.9419   26.2805 C   0  0  2  0  0  0  0  0  0  0  0  0
    6.1493  -11.8701   27.0755 C   0  0  0  0  0  0  0  0  0  0  0  0
    5.8998  -13.8398   25.5609 C   0  0  2  0  0  0  0  0  0  0  0  0
    5.2455  -14.7558   26.4655 N   0  0  0  0  0  0  0  0  0  0  0  0
    6.5835  -14.5899   24.4725 C   0  0  0  0  0  0  0  0  0  0  0  0
    6.7073  -15.8387   24.6124 O   0  0  0  0  0  0  0  0  0  0  0  0
    7.0836  -13.9564   23.3192 N   0  0  0  0  0  0  0  0  0  0  0  0
    7.5571  -14.7133   22.1453 C   0  0  1  0  0  0  0  0  0  0  0  0
    7.7015  -13.7290   21.0056 C   0  0  0  0  0  0  0  0  0  0  0  0
    8.0875  -14.4023   19.7369 C   0  0  0  0  0  0  0  0  0  0  0  0
    8.2202  -13.3873   18.5931 C   0  0  0  0  0  0  0  0  0  0  0  0
    8.5379  -14.1655   17.3497 C   0  0  0  0  0  0  0  0  0  0  0  0
    8.5678  -13.3222   16.1767 N   0  0  0  0  0  0  0  0  0  0  0  0
    8.8692  -15.2560   22.5266 C   0  0  0  0  0  0  0  0  0  0  0  0
    9.5899  -14.5091   23.2924 O   0  0  0  0  0  0  0  0  0  0  0  0
    9.4291  -16.4801   22.1721 N   0  0  0  0  0  0  0  0  0  0  0  0
    8.7671  -17.5343   21.3950 C   0  0  0  0  0  0  0  0  0  0  0  0
    9.2749  -18.8145   22.0479 C   0  0  0  0  0  0  0  0  0  0  0  0
   10.7158  -18.4581   22.3637 C   0  0  0  0  0  0  0  0  0  0  0  0
   10.7571  -16.9490   22.5285 C   0  0  1  0  0  0  0  0  0  0  0  0
   11.7653  -16.3442   21.6475 C   0  0  0  0  0  0  0  0  0  0  0  0
   13.0653  -16.2205   22.1419 O   0  0  0  0  0  0  0  0  0  0  0  0
   11.5707  -15.9259   20.4886 O   0  0  0  0  0  0  0  0  0  0  0  0
  1  2  1  0
  3  5  1  0
  3  2  1  0
  3  4  1  1
  5  6  1  1
  7  5  1  0
  8  7  2  0
  9  7  1  0
 10 11  1  6
 10  9  1  0
 11 12  1  0
 13 12  1  0
 13 14  1  0
 14 15  1  0
 16 17  2  0
 16 10  1  0
 18 16  1  0
 19 18  1  0
 20 21  1  0
 20 19  1  0
 21 22  1  0
 22 18  1  0
 22 23  1  6
 24 23  1  0
 25 23  2  0
M  END
$$$$
