IKP.pdb
     RDKit          3D

 25 25  0  0  1  0  0  0  0  0999 V2000
    7.8465  -10.8807   26.0175 C   0  0  0  0  0  0  0  0  0  0  0  0
    6.8803  -12.0392   26.0399 C   0  0  0  0  0  0  0  0  0  0  0  0
    7.0183  -12.8556   24.7886 C   0  0  2  0  0  0  0  0  0  0  0  0
    6.8538  -11.9714   23.5698 C   0  0  0  0  0  0  0  0  0  0  0  0
    6.0671  -14.0186   24.7639 C   0  0  2  0  0  0  0  0  0  0  0  0
    4.7282  -13.6226   25.1330 N   0  0  0  0  0  0  0  0  0  0  0  0
    6.5447  -15.1126   25.6525 C   0  0  0  0  0  0  0  0  0  0  0  0
    6.0648  -15.1691   26.8191 O   0  0  0  0  0  0  0  0  0  0  0  0
    7.4955  -16.0627   25.2342 N   0  0  0  0  0  0  0  0  0  0  0  0
    8.0625  -17.0687   26.1516 C   0  0  1  0  0  0  0  0  0  0  0  0
    8.1511  -18.3720   25.3885 C   0  0  0  0  0  0  0  0  0  0  0  0
    8.7973  -19.4430   26.1931 C   0  0  0  0  0  0  0  0  0  0  0  0
    7.7850  -20.1122   27.1330 C   0  0  0  0  0  0  0  0  0  0  0  0
    8.5192  -21.1931   27.8716 C   0  0  0  0  0  0  0  0  0  0  0  0
    7.7346  -21.7351   28.9573 N   0  0  0  0  0  0  0  0  0  0  0  0
    9.4061  -16.5800   26.4942 C   0  0  0  0  0  0  0  0  0  0  0  0
   10.2222  -16.4286   25.5070 O   0  0  0  0  0  0  0  0  0  0  0  0
    9.9066  -16.2510   27.7507 N   0  0  0  0  0  0  0  0  0  0  0  0
    9.1331  -16.2003   28.9968 C   0  0  0  0  0  0  0  0  0  0  0  0
    9.7421  -15.0125   29.7326 C   0  0  0  0  0  0  0  0  0  0  0  0
   11.2137  -15.1477   29.3876 C   0  0  0  0  0  0  0  0  0  0  0  0
   11.2758  -15.8719   28.0541 C   0  0  1  0  0  0  0  0  0  0  0  0
   12.1296  -17.0647   28.1348 C   0  0  0  0  0  0  0  0  0  0  0  0
   13.5046  -16.8672   28.2772 O   0  0  0  0  0  0  0  0  0  0  0  0
   11.7416  -18.2493   28.0880 O   0  0  0  0  0  0  0  0  0  0  0  0
  1  2  1  0
  3  5  1  0
  3  2  1  0
  3  4  1  6
  5  6  1  1
  7  5  1  0
  8  7  2  0
  9  7  1  0
 10 11  1  6
 10  9  1  0
 11 12  1  0
 13 12  1  0
 13 14  1  0
 14 15  1  0
 16 17  2  0
 16 10  1  0
 18 16  1  0
 19 18  1  0
 20 21  1  0
 20 19  1  0
 21 22  1  0
 22 18  1  0
 22 23  1  1
 24 23  1  0
 25 23  2  0
M  END
$$$$
