YAY.pdb
     RDKit          3D

 30 31  0  0  1  0  0  0  0  0999 V2000
   21.2289    1.2504  -12.9184 O   0  0  0  0  0  0  0  0  0  0  0  0
   22.2011    1.2624  -11.9116 C   0  0  0  0  0  0  0  0  0  0  0  0
   21.9423    1.7813  -10.6612 C   0  0  0  0  0  0  0  0  0  0  0  0
   22.8984    1.7942   -9.6680 C   0  0  0  0  0  0  0  0  0  0  0  0
   24.1721    1.2812   -9.8868 C   0  0  0  0  0  0  0  0  0  0  0  0
   25.2136    1.2884   -8.8250 C   0  0  0  0  0  0  0  0  0  0  0  0
   25.8495    2.6845   -8.8183 C   0  0  2  0  0  0  0  0  0  0  0  0
   26.7257    2.7445   -9.9500 N   0  0  0  0  0  0  0  0  0  0  0  0
   26.6141    2.9152   -7.5741 C   0  0  0  0  0  0  0  0  0  0  0  0
   27.7074    2.3044   -7.3779 O   0  0  0  0  0  0  0  0  0  0  0  0
   24.4221    0.7642  -11.1404 C   0  0  0  0  0  0  0  0  0  0  0  0
   23.4642    0.7524  -12.1323 C   0  0  0  0  0  0  0  0  0  0  0  0
   26.3637    5.2785   -4.6878 C   0  0  0  0  0  0  0  0  0  0  0  0
   26.9736    4.0543   -5.3559 C   0  0  2  0  0  0  0  0  0  0  0  0
   26.1919    3.8039   -6.5517 N   0  0  0  0  0  0  0  0  0  0  0  0
   26.9233    2.9041   -4.4177 C   0  0  0  0  0  0  0  0  0  0  0  0
   25.8758    2.2078   -4.4318 O   0  0  0  0  0  0  0  0  0  0  0  0
   34.0251   -0.2768   -3.5075 O   0  0  0  0  0  0  0  0  0  0  0  0
   32.6290   -0.1516   -3.5252 C   0  0  0  0  0  0  0  0  0  0  0  0
   31.8699   -0.6885   -2.5086 C   0  0  0  0  0  0  0  0  0  0  0  0
   30.5014   -0.5650   -2.5271 C   0  0  0  0  0  0  0  0  0  0  0  0
   29.8157    0.0956   -3.5518 C   0  0  0  0  0  0  0  0  0  0  0  0
   28.3410    0.1861   -3.5348 C   0  0  0  0  0  0  0  0  0  0  0  0
   27.9104    1.3860   -2.7327 C   0  0  2  0  0  0  0  0  0  0  0  0
   27.9963    2.6016   -3.5494 N   0  0  0  0  0  0  0  0  0  0  0  0
   28.6591    1.5991   -1.4930 C   0  0  0  0  0  0  0  0  0  0  0  0
   28.4930    0.7926   -0.3800 O   0  0  0  0  0  0  0  0  0  0  0  0
   30.6032    0.6218   -4.5544 C   0  0  0  0  0  0  0  0  0  0  0  0
   31.9732    0.5025   -4.5431 C   0  0  0  0  0  0  0  0  0  0  0  0
   29.4956    2.5429   -1.3928 O   0  0  0  0  0  0  0  0  0  0  0  0
  2  3  2  0
  2  1  1  0
  4  3  1  0
  5  4  2  0
  6  7  1  0
  6  5  1  0
  7  8  1  6
  9  7  1  0
  9 10  2  0
 11  5  1  0
 11 12  2  0
 12  2  1  0
 14 13  1  1
 14 15  1  0
 15  9  1  0
 16 14  1  0
 17 16  2  0
 18 19  1  0
 19 29  2  0
 20 19  1  0
 20 21  2  0
 21 22  1  0
 22 28  2  0
 22 23  1  0
 24 23  1  6
 24 25  1  0
 24 26  1  0
 25 16  1  0
 26 27  1  0
 29 28  1  0
 30 26  2  0
M  END
$$$$
