YAY.pdb
     RDKit          3D

 30 31  0  0  1  0  0  0  0  0999 V2000
   34.3179  -24.9001  -15.9582 O   0  0  0  0  0  0  0  0  0  0  0  0
   32.9603  -25.1154  -16.2220 C   0  0  0  0  0  0  0  0  0  0  0  0
   32.1408  -25.7598  -15.3205 C   0  0  0  0  0  0  0  0  0  0  0  0
   30.8033  -25.9729  -15.5782 C   0  0  0  0  0  0  0  0  0  0  0  0
   30.2207  -25.5442  -16.7657 C   0  0  0  0  0  0  0  0  0  0  0  0
   28.7794  -25.7671  -17.0575 C   0  0  0  0  0  0  0  0  0  0  0  0
   28.5291  -27.2794  -16.9947 C   0  0  2  0  0  0  0  0  0  0  0  0
   29.4484  -27.8884  -17.9092 N   0  0  0  0  0  0  0  0  0  0  0  0
   27.1401  -27.6057  -17.3817 C   0  0  0  0  0  0  0  0  0  0  0  0
   26.8179  -27.6594  -18.6066 O   0  0  0  0  0  0  0  0  0  0  0  0
   31.0479  -24.9006  -17.6617 C   0  0  0  0  0  0  0  0  0  0  0  0
   32.3855  -24.6885  -17.4018 C   0  0  0  0  0  0  0  0  0  0  0  0
   24.1584  -29.0657  -15.7771 C   0  0  0  0  0  0  0  0  0  0  0  0
   24.7390  -28.1375  -16.8347 C   0  0  2  0  0  0  0  0  0  0  0  0
   26.1099  -27.8714  -16.4428 N   0  0  0  0  0  0  0  0  0  0  0  0
   23.9339  -26.8909  -16.8924 C   0  0  0  0  0  0  0  0  0  0  0  0
   22.7713  -26.9894  -17.3629 O   0  0  0  0  0  0  0  0  0  0  0  0
   19.8956  -27.1753  -12.0785 O   0  0  0  0  0  0  0  0  0  0  0  0
   20.7643  -26.3719  -12.8303 C   0  0  0  0  0  0  0  0  0  0  0  0
   20.3437  -25.1494  -13.3062 C   0  0  0  0  0  0  0  0  0  0  0  0
   21.1963  -24.3627  -14.0429 C   0  0  0  0  0  0  0  0  0  0  0  0
   22.5070  -24.7460  -14.3455 C   0  0  0  0  0  0  0  0  0  0  0  0
   23.3793  -23.8718  -15.1568 C   0  0  0  0  0  0  0  0  0  0  0  0
   23.5761  -24.4712  -16.5244 C   0  0  2  0  0  0  0  0  0  0  0  0
   24.4430  -25.6519  -16.4426 N   0  0  0  0  0  0  0  0  0  0  0  0
   24.1241  -23.5547  -17.5256 C   0  0  0  0  0  0  0  0  0  0  0  0
   25.3317  -23.7887  -18.1611 O   0  0  0  0  0  0  0  0  0  0  0  0
   22.8980  -25.9745  -13.8552 C   0  0  0  0  0  0  0  0  0  0  0  0
   22.0509  -26.7675  -13.1172 C   0  0  0  0  0  0  0  0  0  0  0  0
   23.5051  -22.4999  -17.8493 O   0  0  0  0  0  0  0  0  0  0  0  0
  2  3  2  0
  2  1  1  0
  4  3  1  0
  5  4  2  0
  6  7  1  0
  6  5  1  0
  7  8  1  6
  9  7  1  0
  9 10  2  0
 11  5  1  0
 11 12  2  0
 12  2  1  0
 14 13  1  1
 14 15  1  0
 15  9  1  0
 16 14  1  0
 17 16  2  0
 18 19  1  0
 19 29  2  0
 20 19  1  0
 20 21  2  0
 21 22  1  0
 22 28  2  0
 22 23  1  0
 24 23  1  1
 24 25  1  0
 24 26  1  0
 25 16  1  0
 26 27  1  0
 29 28  1  0
 30 26  2  0
M  END
$$$$
