YAY.pdb
     RDKit          3D

 30 31  0  0  1  0  0  0  0  0999 V2000
   26.7714  -15.7586  -23.5633 O   0  0  0  0  0  0  0  0  0  0  0  0
   26.2897  -16.4460  -22.4433 C   0  0  0  0  0  0  0  0  0  0  0  0
   25.2522  -17.3483  -22.5383 C   0  0  0  0  0  0  0  0  0  0  0  0
   24.7762  -18.0265  -21.4364 C   0  0  0  0  0  0  0  0  0  0  0  0
   25.3258  -17.8278  -20.1747 C   0  0  0  0  0  0  0  0  0  0  0  0
   24.8226  -18.5522  -18.9771 C   0  0  0  0  0  0  0  0  0  0  0  0
   23.3267  -18.2375  -18.8479 C   0  0  2  0  0  0  0  0  0  0  0  0
   23.2236  -16.8434  -18.5345 N   0  0  0  0  0  0  0  0  0  0  0  0
   22.7036  -19.0437  -17.7767 C   0  0  0  0  0  0  0  0  0  0  0  0
   22.7870  -20.3083  -17.8033 O   0  0  0  0  0  0  0  0  0  0  0  0
   26.3631  -16.9235  -20.0890 C   0  0  0  0  0  0  0  0  0  0  0  0
   26.8377  -16.2463  -21.1926 C   0  0  0  0  0  0  0  0  0  0  0  0
   21.5709  -18.7107  -14.3520 C   0  0  0  0  0  0  0  0  0  0  0  0
   21.2553  -19.2785  -15.7286 C   0  0  2  0  0  0  0  0  0  0  0  0
   21.9954  -18.4778  -16.6851 N   0  0  0  0  0  0  0  0  0  0  0  0
   19.7916  -19.2049  -15.9687 C   0  0  0  0  0  0  0  0  0  0  0  0
   19.3027  -18.0581  -16.1371 O   0  0  0  0  0  0  0  0  0  0  0  0
   19.0250  -18.0116  -22.0119 O   0  0  0  0  0  0  0  0  0  0  0  0
   18.5671  -18.7344  -20.9014 C   0  0  0  0  0  0  0  0  0  0  0  0
   17.3356  -18.4556  -20.3502 C   0  0  0  0  0  0  0  0  0  0  0  0
   16.8879  -19.1648  -19.2617 C   0  0  0  0  0  0  0  0  0  0  0  0
   17.6357  -20.1849  -18.6642 C   0  0  0  0  0  0  0  0  0  0  0  0
   17.1173  -20.9064  -17.4836 C   0  0  0  0  0  0  0  0  0  0  0  0
   17.5406  -20.1982  -16.2236 C   0  0  2  0  0  0  0  0  0  0  0  0
   18.9822  -20.3626  -16.0072 N   0  0  0  0  0  0  0  0  0  0  0  0
   16.8331  -20.6189  -15.0131 C   0  0  0  0  0  0  0  0  0  0  0  0
   17.4958  -21.1117  -13.9020 O   0  0  0  0  0  0  0  0  0  0  0  0
   18.8635  -20.4398  -19.2387 C   0  0  0  0  0  0  0  0  0  0  0  0
   19.3186  -19.7347  -20.3281 C   0  0  0  0  0  0  0  0  0  0  0  0
   15.5722  -20.5474  -14.9391 O   0  0  0  0  0  0  0  0  0  0  0  0
  2  3  2  0
  2  1  1  0
  4  3  1  0
  5  4  2  0
  6  7  1  0
  6  5  1  0
  7  8  1  1
  9  7  1  0
  9 10  2  0
 11  5  1  0
 11 12  2  0
 12  2  1  0
 14 13  1  1
 14 15  1  0
 15  9  1  0
 16 14  1  0
 17 16  2  0
 18 19  1  0
 19 29  2  0
 20 19  1  0
 20 21  2  0
 21 22  1  0
 22 28  2  0
 22 23  1  0
 24 23  1  6
 24 25  1  0
 24 26  1  0
 25 16  1  0
 26 27  1  0
 29 28  1  0
 30 26  2  0
M  END
$$$$
