YAY.pdb
     RDKit          3D

 30 31  0  0  1  0  0  0  0  0999 V2000
   18.1057  -16.1291  -20.9337 O   0  0  0  0  0  0  0  0  0  0  0  0
   18.2461  -14.9355  -20.2163 C   0  0  0  0  0  0  0  0  0  0  0  0
   19.4417  -14.5789  -19.6308 C   0  0  0  0  0  0  0  0  0  0  0  0
   19.5823  -13.4038  -18.9238 C   0  0  0  0  0  0  0  0  0  0  0  0
   18.5174  -12.5230  -18.7702 C   0  0  0  0  0  0  0  0  0  0  0  0
   18.6542  -11.2518  -18.0102 C   0  0  0  0  0  0  0  0  0  0  0  0
   19.0151  -11.6200  -16.5653 C   0  0  2  0  0  0  0  0  0  0  0  0
   17.8591  -12.2479  -15.9982 N   0  0  0  0  0  0  0  0  0  0  0  0
   19.3722  -10.4176  -15.7828 C   0  0  0  0  0  0  0  0  0  0  0  0
   18.4646   -9.6315  -15.3763 O   0  0  0  0  0  0  0  0  0  0  0  0
   17.3252  -12.8878  -19.3591 C   0  0  0  0  0  0  0  0  0  0  0  0
   17.1869  -14.0638  -20.0660 C   0  0  0  0  0  0  0  0  0  0  0  0
   22.5062   -8.9792  -14.3308 C   0  0  0  0  0  0  0  0  0  0  0  0
   21.0517   -8.8436  -14.7585 C   0  0  2  0  0  0  0  0  0  0  0  0
   20.7069  -10.0736  -15.4456 N   0  0  0  0  0  0  0  0  0  0  0  0
   20.9066   -7.6614  -15.6454 C   0  0  0  0  0  0  0  0  0  0  0  0
   21.0820   -7.8525  -16.8764 O   0  0  0  0  0  0  0  0  0  0  0  0
   18.4533   -1.1469  -20.5591 O   0  0  0  0  0  0  0  0  0  0  0  0
   18.7181   -2.2390  -19.7209 C   0  0  0  0  0  0  0  0  0  0  0  0
   18.1286   -3.4604  -19.9634 C   0  0  0  0  0  0  0  0  0  0  0  0
   18.3890   -4.5302  -19.1411 C   0  0  0  0  0  0  0  0  0  0  0  0
   19.2452   -4.4452  -18.0383 C   0  0  0  0  0  0  0  0  0  0  0  0
   19.4789   -5.6204  -17.1738 C   0  0  0  0  0  0  0  0  0  0  0  0
   20.4580   -5.2688  -16.0846 C   0  0  2  0  0  0  0  0  0  0  0  0
   20.5873   -6.3819  -15.1378 N   0  0  0  0  0  0  0  0  0  0  0  0
   20.1372   -4.0516  -15.3375 C   0  0  0  0  0  0  0  0  0  0  0  0
   19.9143   -4.0589  -13.9711 O   0  0  0  0  0  0  0  0  0  0  0  0
   19.8194   -3.2099  -17.8221 C   0  0  0  0  0  0  0  0  0  0  0  0
   19.5640   -2.1345  -18.6404 C   0  0  0  0  0  0  0  0  0  0  0  0
   20.0494   -2.9335  -15.9229 O   0  0  0  0  0  0  0  0  0  0  0  0
  2  3  2  0
  2  1  1  0
  4  3  1  0
  5  4  2  0
  6  7  1  0
  6  5  1  0
  7  8  1  1
  9  7  1  0
  9 10  2  0
 11  5  1  0
 11 12  2  0
 12  2  1  0
 14 13  1  6
 14 15  1  0
 15  9  1  0
 16 14  1  0
 17 16  2  0
 18 19  1  0
 19 29  2  0
 20 19  1  0
 20 21  2  0
 21 22  1  0
 22 28  2  0
 22 23  1  0
 24 23  1  6
 24 25  1  0
 24 26  1  0
 25 16  1  0
 26 27  1  0
 29 28  1  0
 30 26  2  0
M  END
$$$$
