YAY.pdb
     RDKit          3D

 30 31  0  0  1  0  0  0  0  0999 V2000
   18.8157  -10.2506  -25.1181 O   0  0  0  0  0  0  0  0  0  0  0  0
   19.0081  -11.2715  -24.1801 C   0  0  0  0  0  0  0  0  0  0  0  0
   20.0703  -11.2572  -23.3019 C   0  0  0  0  0  0  0  0  0  0  0  0
   20.2618  -12.2617  -22.3772 C   0  0  0  0  0  0  0  0  0  0  0  0
   19.3862  -13.3384  -22.2907 C   0  0  0  0  0  0  0  0  0  0  0  0
   19.5801  -14.4292  -21.2983 C   0  0  0  0  0  0  0  0  0  0  0  0
   20.7796  -15.2638  -21.7655 C   0  0  2  0  0  0  0  0  0  0  0  0
   20.3693  -15.9457  -22.9566 N   0  0  0  0  0  0  0  0  0  0  0  0
   21.1798  -16.2445  -20.7340 C   0  0  0  0  0  0  0  0  0  0  0  0
   20.4370  -17.2403  -20.4820 O   0  0  0  0  0  0  0  0  0  0  0  0
   18.3266  -13.3444  -23.1729 C   0  0  0  0  0  0  0  0  0  0  0  0
   18.1370  -12.3386  -24.0971 C   0  0  0  0  0  0  0  0  0  0  0  0
   24.0946  -16.6494  -18.4087 C   0  0  0  0  0  0  0  0  0  0  0  0
   22.7311  -17.0780  -18.9323 C   0  0  2  0  0  0  0  0  0  0  0  0
   22.3792  -16.1418  -19.9827 N   0  0  0  0  0  0  0  0  0  0  0  0
   21.7456  -17.0510  -17.8216 C   0  0  0  0  0  0  0  0  0  0  0  0
   21.2855  -15.9250  -17.5006 O   0  0  0  0  0  0  0  0  0  0  0  0
   15.8941  -22.0479  -18.6626 O   0  0  0  0  0  0  0  0  0  0  0  0
   16.6486  -20.9618  -18.1974 C   0  0  0  0  0  0  0  0  0  0  0  0
   17.4307  -20.2348  -19.0680 C   0  0  0  0  0  0  0  0  0  0  0  0
   18.1697  -19.1703  -18.6107 C   0  0  0  0  0  0  0  0  0  0  0  0
   18.1719  -18.7719  -17.2699 C   0  0  0  0  0  0  0  0  0  0  0  0
   18.9981  -17.6306  -16.8246 C   0  0  0  0  0  0  0  0  0  0  0  0
   20.2573  -18.1343  -16.1694 C   0  0  2  0  0  0  0  0  0  0  0  0
   21.3405  -18.2288  -17.1541 N   0  0  0  0  0  0  0  0  0  0  0  0
   20.1250  -19.4248  -15.4914 C   0  0  0  0  0  0  0  0  0  0  0  0
   19.3027  -19.6024  -14.3918 O   0  0  0  0  0  0  0  0  0  0  0  0
   17.3796  -19.5193  -16.4238 C   0  0  0  0  0  0  0  0  0  0  0  0
   16.6371  -20.5858  -16.8735 C   0  0  0  0  0  0  0  0  0  0  0  0
   20.7683  -20.4382  -15.8911 O   0  0  0  0  0  0  0  0  0  0  0  0
  2  3  2  0
  2  1  1  0
  4  3  1  0
  5  4  2  0
  6  7  1  0
  6  5  1  0
  7  8  1  6
  9  7  1  0
  9 10  2  0
 11  5  1  0
 11 12  2  0
 12  2  1  0
 14 13  1  1
 14 15  1  0
 15  9  1  0
 16 14  1  0
 17 16  2  0
 18 19  1  0
 19 29  2  0
 20 19  1  0
 20 21  2  0
 21 22  1  0
 22 28  2  0
 22 23  1  0
 24 23  1  6
 24 25  1  0
 24 26  1  0
 25 16  1  0
 26 27  1  0
 29 28  1  0
 30 26  2  0
M  END
$$$$
