YAY.pdb
     RDKit          3D

 30 31  0  0  1  0  0  0  0  0999 V2000
   38.0164  -11.6046   -5.1753 O   0  0  0  0  0  0  0  0  0  0  0  0
   38.2435  -10.4461   -5.9271 C   0  0  0  0  0  0  0  0  0  0  0  0
   37.2039   -9.6876   -6.4204 C   0  0  0  0  0  0  0  0  0  0  0  0
   37.4252   -8.5462   -7.1612 C   0  0  0  0  0  0  0  0  0  0  0  0
   38.7144   -8.1089   -7.4439 C   0  0  0  0  0  0  0  0  0  0  0  0
   38.9685   -6.8796   -8.2417 C   0  0  0  0  0  0  0  0  0  0  0  0
   38.5297   -7.1713   -9.6825 C   0  0  2  0  0  0  0  0  0  0  0  0
   39.5135   -8.0479  -10.2444 N   0  0  0  0  0  0  0  0  0  0  0  0
   38.4489   -5.9269  -10.4767 C   0  0  0  0  0  0  0  0  0  0  0  0
   39.4949   -5.4386  -11.0006 O   0  0  0  0  0  0  0  0  0  0  0  0
   39.7483   -8.8737   -6.9465 C   0  0  0  0  0  0  0  0  0  0  0  0
   39.5245  -10.0152   -6.2058 C   0  0  0  0  0  0  0  0  0  0  0  0
   35.8662   -3.7506  -11.9775 C   0  0  0  0  0  0  0  0  0  0  0  0
   37.2020   -3.8825  -11.2596 C   0  0  2  0  0  0  0  0  0  0  0  0
   37.2390   -5.2196  -10.6987 N   0  0  0  0  0  0  0  0  0  0  0  0
   37.2992   -2.8426  -10.2039 C   0  0  0  0  0  0  0  0  0  0  0  0
   37.4654   -1.6572  -10.5908 O   0  0  0  0  0  0  0  0  0  0  0  0
   32.2825    0.9239  -10.4258 O   0  0  0  0  0  0  0  0  0  0  0  0
   33.2035    0.2441   -9.6166 C   0  0  0  0  0  0  0  0  0  0  0  0
   33.1800   -1.1314   -9.5411 C   0  0  0  0  0  0  0  0  0  0  0  0
   34.0834   -1.7967   -8.7476 C   0  0  0  0  0  0  0  0  0  0  0  0
   35.0549   -1.1348   -7.9895 C   0  0  0  0  0  0  0  0  0  0  0  0
   35.9928   -1.8952   -7.1377 C   0  0  0  0  0  0  0  0  0  0  0  0
   37.3062   -2.0725   -7.8532 C   0  0  2  0  0  0  0  0  0  0  0  0
   37.2103   -3.1626   -8.8304 N   0  0  0  0  0  0  0  0  0  0  0  0
   38.4541   -2.3239   -6.9804 C   0  0  0  0  0  0  0  0  0  0  0  0
   38.8557   -1.4238   -6.0081 O   0  0  0  0  0  0  0  0  0  0  0  0
   35.0527    0.2410   -8.0864 C   0  0  0  0  0  0  0  0  0  0  0  0
   34.1521    0.9142   -8.8781 C   0  0  0  0  0  0  0  0  0  0  0  0
   39.1309   -3.3875   -7.0863 O   0  0  0  0  0  0  0  0  0  0  0  0
  2  3  2  0
  2  1  1  0
  4  3  1  0
  5  4  2  0
  6  7  1  0
  6  5  1  0
  7  8  1  6
  9  7  1  0
  9 10  2  0
 11  5  1  0
 11 12  2  0
 12  2  1  0
 14 13  1  1
 14 15  1  0
 15  9  1  0
 16 14  1  0
 17 16  2  0
 18 19  1  0
 19 29  2  0
 20 19  1  0
 20 21  2  0
 21 22  1  0
 22 28  2  0
 22 23  1  0
 24 23  1  1
 24 25  1  0
 24 26  1  0
 25 16  1  0
 26 27  1  0
 29 28  1  0
 30 26  2  0
M  END
$$$$
