YAY.pdb
     RDKit          3D

 30 31  0  0  1  0  0  0  0  0999 V2000
   25.0944  -34.2160  -14.7386 O   0  0  0  0  0  0  0  0  0  0  0  0
   25.0740  -33.9832  -13.3586 C   0  0  0  0  0  0  0  0  0  0  0  0
   26.1495  -33.4243  -12.7025 C   0  0  0  0  0  0  0  0  0  0  0  0
   26.1316  -33.1942  -11.3434 C   0  0  0  0  0  0  0  0  0  0  0  0
   25.0211  -33.5180  -10.5719 C   0  0  0  0  0  0  0  0  0  0  0  0
   24.9875  -33.2756   -9.1048 C   0  0  0  0  0  0  0  0  0  0  0  0
   23.8750  -32.2539   -8.8361 C   0  0  2  0  0  0  0  0  0  0  0  0
   24.3423  -30.9943   -9.3331 N   0  0  0  0  0  0  0  0  0  0  0  0
   23.5850  -32.1507   -7.3900 C   0  0  0  0  0  0  0  0  0  0  0  0
   24.2168  -31.3176   -6.6733 O   0  0  0  0  0  0  0  0  0  0  0  0
   23.9499  -34.0766  -11.2365 C   0  0  0  0  0  0  0  0  0  0  0  0
   23.9700  -34.3059  -12.5961 C   0  0  0  0  0  0  0  0  0  0  0  0
   21.0862  -33.6332   -5.0348 C   0  0  0  0  0  0  0  0  0  0  0  0
   22.3804  -32.8769   -5.2999 C   0  0  2  0  0  0  0  0  0  0  0  0
   22.6149  -32.9482   -6.7295 N   0  0  0  0  0  0  0  0  0  0  0  0
   23.4850  -33.5053   -4.5315 C   0  0  0  0  0  0  0  0  0  0  0  0
   24.2773  -34.2390   -5.1768 O   0  0  0  0  0  0  0  0  0  0  0  0
   30.1510  -36.4021   -0.1762 O   0  0  0  0  0  0  0  0  0  0  0  0
   29.1490  -35.7311   -0.8910 C   0  0  0  0  0  0  0  0  0  0  0  0
   28.5211  -34.6336   -0.3438 C   0  0  0  0  0  0  0  0  0  0  0  0
   27.5391  -33.9766   -1.0455 C   0  0  0  0  0  0  0  0  0  0  0  0
   27.1293  -34.3723   -2.3231 C   0  0  0  0  0  0  0  0  0  0  0  0
   26.0559  -33.6429   -3.0294 C   0  0  0  0  0  0  0  0  0  0  0  0
   24.7168  -34.0115   -2.4470 C   0  0  2  0  0  0  0  0  0  0  0  0
   23.6438  -33.2934   -3.1434 N   0  0  0  0  0  0  0  0  0  0  0  0
   24.5842  -33.7742   -1.0087 C   0  0  0  0  0  0  0  0  0  0  0  0
   25.1124  -34.6377   -0.0642 O   0  0  0  0  0  0  0  0  0  0  0  0
   27.7765  -35.4737   -2.8431 C   0  0  0  0  0  0  0  0  0  0  0  0
   28.7602  -36.1366   -2.1474 C   0  0  0  0  0  0  0  0  0  0  0  0
   23.9717  -32.7573   -0.5713 O   0  0  0  0  0  0  0  0  0  0  0  0
  2  3  2  0
  2  1  1  0
  4  3  1  0
  5  4  2  0
  6  7  1  0
  6  5  1  0
  7  8  1  1
  9  7  1  0
  9 10  2  0
 11  5  1  0
 11 12  2  0
 12  2  1  0
 14 13  1  6
 14 15  1  0
 15  9  1  0
 16 14  1  0
 17 16  2  0
 18 19  1  0
 19 29  2  0
 20 19  1  0
 20 21  2  0
 21 22  1  0
 22 28  2  0
 22 23  1  0
 24 23  1  6
 24 25  1  0
 24 26  1  0
 25 16  1  0
 26 27  1  0
 29 28  1  0
 30 26  2  0
M  END
$$$$
