YAY.pdb
     RDKit          3D

 30 31  0  0  1  0  0  0  0  0999 V2000
   24.2158  -21.8792  -20.0108 O   0  0  0  0  0  0  0  0  0  0  0  0
   24.5283  -22.7280  -18.9426 C   0  0  0  0  0  0  0  0  0  0  0  0
   23.5962  -23.0563  -17.9819 C   0  0  0  0  0  0  0  0  0  0  0  0
   23.9018  -23.8920  -16.9289 C   0  0  0  0  0  0  0  0  0  0  0  0
   25.1710  -24.4426  -16.7905 C   0  0  0  0  0  0  0  0  0  0  0  0
   25.5152  -25.3457  -15.6598 C   0  0  0  0  0  0  0  0  0  0  0  0
   25.0926  -26.7642  -16.0633 C   0  0  2  0  0  0  0  0  0  0  0  0
   25.4186  -26.9134  -17.4503 N   0  0  0  0  0  0  0  0  0  0  0  0
   23.6421  -26.9655  -15.8604 C   0  0  0  0  0  0  0  0  0  0  0  0
   23.1748  -27.0826  -14.6879 O   0  0  0  0  0  0  0  0  0  0  0  0
   26.0971  -24.1088  -17.7560 C   0  0  0  0  0  0  0  0  0  0  0  0
   25.7891  -23.2726  -18.8084 C   0  0  0  0  0  0  0  0  0  0  0  0
   21.2731  -28.6857  -15.9728 C   0  0  0  0  0  0  0  0  0  0  0  0
   21.3081  -27.3615  -16.7226 C   0  0  2  0  0  0  0  0  0  0  0  0
   22.7076  -27.0387  -16.9257 N   0  0  0  0  0  0  0  0  0  0  0  0
   20.6170  -26.3213  -15.9189 C   0  0  0  0  0  0  0  0  0  0  0  0
   19.3950  -26.5065  -15.6844 O   0  0  0  0  0  0  0  0  0  0  0  0
   19.8724  -28.8595  -10.2799 O   0  0  0  0  0  0  0  0  0  0  0  0
   20.1646  -27.6972  -11.0073 C   0  0  0  0  0  0  0  0  0  0  0  0
   21.4127  -27.5205  -11.5633 C   0  0  0  0  0  0  0  0  0  0  0  0
   21.6979  -26.3808  -12.2762 C   0  0  0  0  0  0  0  0  0  0  0  0
   20.7631  -25.3593  -12.4745 C   0  0  0  0  0  0  0  0  0  0  0  0
   21.1245  -24.1446  -13.2341 C   0  0  0  0  0  0  0  0  0  0  0  0
   20.5436  -24.2163  -14.6219 C   0  0  2  0  0  0  0  0  0  0  0  0
   21.2933  -25.1774  -15.4383 N   0  0  0  0  0  0  0  0  0  0  0  0
   20.4883  -22.9382  -15.3333 C   0  0  0  0  0  0  0  0  0  0  0  0
   21.0868  -22.7518  -16.5678 O   0  0  0  0  0  0  0  0  0  0  0  0
   19.5237  -25.5658  -11.9056 C   0  0  0  0  0  0  0  0  0  0  0  0
   19.2304  -26.7035  -11.1910 C   0  0  0  0  0  0  0  0  0  0  0  0
   19.8841  -21.9436  -14.8372 O   0  0  0  0  0  0  0  0  0  0  0  0
  2  3  2  0
  2  1  1  0
  4  3  1  0
  5  4  2  0
  6  7  1  0
  6  5  1  0
  7  8  1  6
  9  7  1  0
  9 10  2  0
 11  5  1  0
 11 12  2  0
 12  2  1  0
 14 13  1  1
 14 15  1  0
 15  9  1  0
 16 14  1  0
 17 16  2  0
 18 19  1  0
 19 29  2  0
 20 19  1  0
 20 21  2  0
 21 22  1  0
 22 28  2  0
 22 23  1  0
 24 23  1  1
 24 25  1  0
 24 26  1  0
 25 16  1  0
 26 27  1  0
 29 28  1  0
 30 26  2  0
M  END
$$$$
