YAY.pdb
     RDKit          3D

 30 31  0  0  1  0  0  0  0  0999 V2000
   26.9007  -31.1043  -19.0174 O   0  0  0  0  0  0  0  0  0  0  0  0
   26.9502  -29.9191  -18.2745 C   0  0  0  0  0  0  0  0  0  0  0  0
   28.0542  -29.5820  -17.5215 C   0  0  0  0  0  0  0  0  0  0  0  0
   28.1051  -28.4151  -16.7891 C   0  0  0  0  0  0  0  0  0  0  0  0
   27.0384  -27.5233  -16.7787 C   0  0  0  0  0  0  0  0  0  0  0  0
   27.0790  -26.2608  -15.9933 C   0  0  0  0  0  0  0  0  0  0  0  0
   27.4316  -25.1286  -16.9666 C   0  0  2  0  0  0  0  0  0  0  0  0
   28.8226  -25.2703  -17.2784 N   0  0  0  0  0  0  0  0  0  0  0  0
   27.1827  -23.8052  -16.3563 C   0  0  0  0  0  0  0  0  0  0  0  0
   28.0621  -23.2717  -15.6155 O   0  0  0  0  0  0  0  0  0  0  0  0
   25.9382  -27.8686  -17.5348 C   0  0  0  0  0  0  0  0  0  0  0  0
   25.8895  -29.0363  -18.2667 C   0  0  0  0  0  0  0  0  0  0  0  0
   24.3784  -21.3163  -16.3945 C   0  0  0  0  0  0  0  0  0  0  0  0
   25.6926  -21.8418  -15.8346 C   0  0  2  0  0  0  0  0  0  0  0  0
   25.9857  -23.0684  -16.5510 N   0  0  0  0  0  0  0  0  0  0  0  0
   25.5469  -22.0806  -14.3761 C   0  0  0  0  0  0  0  0  0  0  0  0
   26.2393  -23.0077  -13.8825 O   0  0  0  0  0  0  0  0  0  0  0  0
   27.4680  -19.9619   -6.3876 O   0  0  0  0  0  0  0  0  0  0  0  0
   27.1821  -20.1181   -7.7511 C   0  0  0  0  0  0  0  0  0  0  0  0
   27.7503  -21.1491   -8.4669 C   0  0  0  0  0  0  0  0  0  0  0  0
   27.4693  -21.3012   -9.8034 C   0  0  0  0  0  0  0  0  0  0  0  0
   26.6124  -20.4414  -10.4983 C   0  0  0  0  0  0  0  0  0  0  0  0
   26.3560  -20.6370  -11.9403 C   0  0  0  0  0  0  0  0  0  0  0  0
   24.9679  -21.1847  -12.1443 C   0  0  2  0  0  0  0  0  0  0  0  0
   24.6749  -21.3080  -13.5765 N   0  0  0  0  0  0  0  0  0  0  0  0
   23.9003  -20.4086  -11.5116 C   0  0  0  0  0  0  0  0  0  0  0  0
   23.3518  -20.7625  -10.2906 O   0  0  0  0  0  0  0  0  0  0  0  0
   26.0598  -19.4198   -9.7545 C   0  0  0  0  0  0  0  0  0  0  0  0
   26.3359  -19.2608   -8.4167 C   0  0  0  0  0  0  0  0  0  0  0  0
   23.4329  -19.3725  -12.0670 O   0  0  0  0  0  0  0  0  0  0  0  0
  2  3  2  0
  2  1  1  0
  4  3  1  0
  5  4  2  0
  6  7  1  0
  6  5  1  0
  7  8  1  1
  9  7  1  0
  9 10  2  0
 11  5  1  0
 11 12  2  0
 12  2  1  0
 14 13  1  6
 14 15  1  0
 15  9  1  0
 16 14  1  0
 17 16  2  0
 18 19  1  0
 19 29  2  0
 20 19  1  0
 20 21  2  0
 21 22  1  0
 22 28  2  0
 22 23  1  0
 24 23  1  6
 24 25  1  0
 24 26  1  0
 25 16  1  0
 26 27  1  0
 29 28  1  0
 30 26  2  0
M  END
$$$$
