ATQ.pdb
     RDKit          3D

 22 21  0  0  1  0  0  0  0  0999 V2000
   15.0572   -6.9038   -6.9926 C   0  0  0  0  0  0  0  0  0  0  0  0
   14.5929   -7.0525   -8.4159 C   0  0  2  0  0  0  0  0  0  0  0  0
   13.4013   -7.8702   -8.4248 N   0  0  0  0  0  0  0  0  0  0  0  0
   15.6782   -7.6410   -9.2337 C   0  0  0  0  0  0  0  0  0  0  0  0
   15.7190   -8.8941   -9.3671 O   0  0  0  0  0  0  0  0  0  0  0  0
   15.7876   -8.8486  -11.8097 C   0  0  0  0  0  0  0  0  0  0  0  0
   16.7683   -7.7493  -12.0591 C   0  0  1  0  0  0  0  0  0  0  0  0
   15.9832   -6.6124  -12.3853 O   0  0  0  0  0  0  0  0  0  0  0  0
   17.6322   -7.4145  -10.8400 C   0  0  2  0  0  0  0  0  0  0  0  0
   16.6716   -6.8731   -9.8732 N   0  0  0  0  0  0  0  0  0  0  0  0
   18.5990   -6.3679  -11.2377 C   0  0  0  0  0  0  0  0  0  0  0  0
   18.2469   -5.1611  -11.0787 O   0  0  0  0  0  0  0  0  0  0  0  0
   23.0521   -5.1026  -15.2601 N   0  0  0  0  0  0  0  0  0  0  0  0
   22.4269   -6.3521  -15.1854 C   0  0  0  0  0  0  0  0  0  0  0  0
   22.3394   -7.0557  -16.2131 O   0  0  0  0  0  0  0  0  0  0  0  0
   21.8418   -6.9198  -13.9337 C   0  0  0  0  0  0  0  0  0  0  0  0
   22.0463   -6.0123  -12.7611 C   0  0  0  0  0  0  0  0  0  0  0  0
   20.7577   -5.5239  -12.2298 C   0  0  2  0  0  0  0  0  0  0  0  0
   19.8731   -6.5782  -11.7724 N   0  0  0  0  0  0  0  0  0  0  0  0
   20.0998   -4.5659  -13.1094 C   0  0  0  0  0  0  0  0  0  0  0  0
   18.9728   -4.7340  -13.8760 O   0  0  0  0  0  0  0  0  0  0  0  0
   20.6230   -3.3981  -13.2017 O   0  0  0  0  0  0  0  0  0  0  0  0
  2  1  1  1
  2  3  1  0
  4  2  1  0
  4 10  1  0
  5  4  2  0
  7  9  1  0
  7  6  1  1
  8  7  1  0
  9 10  1  1
  9 11  1  0
 11 19  1  0
 12 11  2  0
 14 13  1  0
 14 16  1  0
 15 14  2  0
 17 16  1  0
 18 20  1  0
 18 17  1  6
 19 18  1  0
 20 21  1  0
 22 20  2  0
M  END
$$$$
