ATQ.pdb
     RDKit          3D

 22 21  0  0  1  0  0  0  0  0999 V2000
   17.8134  -16.1826  -18.5125 C   0  0  0  0  0  0  0  0  0  0  0  0
   18.3032  -15.2454  -17.4423 C   0  0  2  0  0  0  0  0  0  0  0  0
   17.2893  -15.1529  -16.4167 N   0  0  0  0  0  0  0  0  0  0  0  0
   18.6123  -13.9263  -18.0403 C   0  0  0  0  0  0  0  0  0  0  0  0
   19.5890  -13.8390  -18.8328 O   0  0  0  0  0  0  0  0  0  0  0  0
   16.6853  -11.8364  -20.3026 C   0  0  0  0  0  0  0  0  0  0  0  0
   16.9252  -11.0323  -19.0664 C   0  0  1  0  0  0  0  0  0  0  0  0
   15.8041  -11.2823  -18.2322 O   0  0  0  0  0  0  0  0  0  0  0  0
   18.1958  -11.4360  -18.3132 C   0  0  2  0  0  0  0  0  0  0  0  0
   17.8708  -12.7589  -17.7703 N   0  0  0  0  0  0  0  0  0  0  0  0
   18.4014  -10.4701  -17.2118 C   0  0  0  0  0  0  0  0  0  0  0  0
   18.2657  -10.9013  -16.0281 O   0  0  0  0  0  0  0  0  0  0  0  0
   22.4625   -9.8892  -13.8722 N   0  0  0  0  0  0  0  0  0  0  0  0
   21.8371   -8.6826  -13.5396 C   0  0  0  0  0  0  0  0  0  0  0  0
   22.1719   -8.0867  -12.4948 O   0  0  0  0  0  0  0  0  0  0  0  0
   20.7709   -8.0393  -14.3648 C   0  0  0  0  0  0  0  0  0  0  0  0
   20.3217   -8.9252  -15.4844 C   0  0  0  0  0  0  0  0  0  0  0  0
   19.2491   -8.2882  -16.2750 C   0  0  2  0  0  0  0  0  0  0  0  0
   18.7360   -9.1198  -17.3468 N   0  0  0  0  0  0  0  0  0  0  0  0
   19.5799   -6.9363  -16.7077 C   0  0  0  0  0  0  0  0  0  0  0  0
   19.5664   -5.7718  -15.9797 O   0  0  0  0  0  0  0  0  0  0  0  0
   19.9339   -6.7814  -17.9311 O   0  0  0  0  0  0  0  0  0  0  0  0
  2  1  1  6
  2  3  1  0
  4  2  1  0
  4 10  1  0
  5  4  2  0
  7  9  1  0
  7  6  1  6
  8  7  1  0
  9 10  1  1
  9 11  1  0
 11 19  1  0
 12 11  2  0
 14 13  1  0
 14 16  1  0
 15 14  2  0
 17 16  1  0
 18 20  1  0
 18 17  1  6
 19 18  1  0
 20 21  1  0
 22 20  2  0
M  END
$$$$
