ATQ.pdb
     RDKit          3D

 22 21  0  0  1  0  0  0  0  0999 V2000
   21.3926  -13.7641  -18.1895 C   0  0  0  0  0  0  0  0  0  0  0  0
   21.7454  -12.3308  -18.4803 C   0  0  2  0  0  0  0  0  0  0  0  0
   22.6631  -12.3034  -19.5964 N   0  0  0  0  0  0  0  0  0  0  0  0
   22.3236  -11.7057  -17.2687 C   0  0  0  0  0  0  0  0  0  0  0  0
   21.6253  -11.6682  -16.2196 O   0  0  0  0  0  0  0  0  0  0  0  0
   26.4004   -9.6484  -15.2471 C   0  0  0  0  0  0  0  0  0  0  0  0
   25.6455  -10.5007  -16.2146 C   0  0  1  0  0  0  0  0  0  0  0  0
   25.9856  -11.8382  -15.8817 O   0  0  0  0  0  0  0  0  0  0  0  0
   24.1260  -10.3416  -16.1111 C   0  0  2  0  0  0  0  0  0  0  0  0
   23.6169  -11.1482  -17.2250 N   0  0  0  0  0  0  0  0  0  0  0  0
   23.7997   -8.9147  -16.3249 C   0  0  0  0  0  0  0  0  0  0  0  0
   24.1147   -8.4078  -17.4427 O   0  0  0  0  0  0  0  0  0  0  0  0
   21.4799   -3.5373  -18.8681 N   0  0  0  0  0  0  0  0  0  0  0  0
   21.3488   -4.8023  -18.2847 C   0  0  0  0  0  0  0  0  0  0  0  0
   21.1837   -5.8002  -19.0165 O   0  0  0  0  0  0  0  0  0  0  0  0
   21.3933   -5.0517  -16.8126 C   0  0  0  0  0  0  0  0  0  0  0  0
   21.6273   -6.4963  -16.4985 C   0  0  0  0  0  0  0  0  0  0  0  0
   22.8392   -6.6763  -15.6738 C   0  0  2  0  0  0  0  0  0  0  0  0
   23.1709   -8.0637  -15.4117 N   0  0  0  0  0  0  0  0  0  0  0  0
   22.8453   -5.8496  -14.4734 C   0  0  0  0  0  0  0  0  0  0  0  0
   22.9040   -4.4814  -14.3706 O   0  0  0  0  0  0  0  0  0  0  0  0
   22.7910   -6.4549  -13.3434 O   0  0  0  0  0  0  0  0  0  0  0  0
  2  1  1  1
  2  3  1  0
  4  2  1  0
  4 10  1  0
  5  4  2  0
  7  9  1  0
  7  6  1  1
  8  7  1  0
  9 10  1  6
  9 11  1  0
 11 19  1  0
 12 11  2  0
 14 13  1  0
 14 16  1  0
 15 14  2  0
 17 16  1  0
 18 20  1  0
 18 17  1  1
 19 18  1  0
 20 21  1  0
 22 20  2  0
M  END
$$$$
