ATQ.pdb
     RDKit          3D

 22 21  0  0  1  0  0  0  0  0999 V2000
   20.9175  -17.9866  -16.4000 C   0  0  0  0  0  0  0  0  0  0  0  0
   22.4027  -17.8992  -16.1766 C   0  0  2  0  0  0  0  0  0  0  0  0
   22.8179  -19.0507  -15.4084 N   0  0  0  0  0  0  0  0  0  0  0  0
   22.7283  -16.6268  -15.4925 C   0  0  0  0  0  0  0  0  0  0  0  0
   22.4995  -16.5327  -14.2562 O   0  0  0  0  0  0  0  0  0  0  0  0
   25.9637  -15.2240  -15.0699 C   0  0  0  0  0  0  0  0  0  0  0  0
   25.1640  -14.1537  -15.7387 C   0  0  1  0  0  0  0  0  0  0  0  0
   25.3980  -14.3231  -17.1287 O   0  0  0  0  0  0  0  0  0  0  0  0
   23.6591  -14.2639  -15.4784 C   0  0  2  0  0  0  0  0  0  0  0  0
   23.2818  -15.5110  -16.1514 N   0  0  0  0  0  0  0  0  0  0  0  0
   22.9964  -13.1130  -16.1300 C   0  0  0  0  0  0  0  0  0  0  0  0
   21.9286  -13.3446  -16.7717 O   0  0  0  0  0  0  0  0  0  0  0  0
   21.8482   -8.3139  -13.5008 N   0  0  0  0  0  0  0  0  0  0  0  0
   20.8017   -8.3376  -14.4291 C   0  0  0  0  0  0  0  0  0  0  0  0
   20.0093   -7.3743  -14.4837 O   0  0  0  0  0  0  0  0  0  0  0  0
   20.5575   -9.4602  -15.3839 C   0  0  0  0  0  0  0  0  0  0  0  0
   21.5033  -10.5984  -15.1601 C   0  0  0  0  0  0  0  0  0  0  0  0
   22.5573  -10.6311  -16.1941 C   0  0  2  0  0  0  0  0  0  0  0  0
   23.4315  -11.7850  -16.1059 N   0  0  0  0  0  0  0  0  0  0  0  0
   23.2815   -9.3722  -16.3163 C   0  0  0  0  0  0  0  0  0  0  0  0
   22.9438   -8.2507  -17.0334 O   0  0  0  0  0  0  0  0  0  0  0  0
   24.3905   -9.2687  -15.6795 O   0  0  0  0  0  0  0  0  0  0  0  0
  2  1  1  1
  2  3  1  0
  4  2  1  0
  4 10  1  0
  5  4  2  0
  7  9  1  0
  7  6  1  1
  8  7  1  0
  9 10  1  6
  9 11  1  0
 11 19  1  0
 12 11  2  0
 14 13  1  0
 14 16  1  0
 15 14  2  0
 17 16  1  0
 18 20  1  0
 18 17  1  1
 19 18  1  0
 20 21  1  0
 22 20  2  0
M  END
$$$$
