ATQ.pdb
     RDKit          3D

 22 21  0  0  1  0  0  0  0  0999 V2000
   16.7302  -15.0643  -16.4488 C   0  0  0  0  0  0  0  0  0  0  0  0
   16.1819  -14.3397  -15.2497 C   0  0  2  0  0  0  0  0  0  0  0  0
   14.9646  -14.9988  -14.8346 N   0  0  0  0  0  0  0  0  0  0  0  0
   15.9562  -12.9162  -15.5897 C   0  0  0  0  0  0  0  0  0  0  0  0
   15.5950  -12.6277  -16.7627 O   0  0  0  0  0  0  0  0  0  0  0  0
   14.2018   -8.7392  -14.0157 C   0  0  0  0  0  0  0  0  0  0  0  0
   14.5867  -10.1822  -14.0622 C   0  0  1  0  0  0  0  0  0  0  0  0
   13.4589  -10.8545  -14.6020 O   0  0  0  0  0  0  0  0  0  0  0  0
   15.7978  -10.4618  -14.9565 C   0  0  2  0  0  0  0  0  0  0  0  0
   16.1241  -11.8624  -14.6694 N   0  0  0  0  0  0  0  0  0  0  0  0
   16.9031   -9.5815  -14.5186 C   0  0  0  0  0  0  0  0  0  0  0  0
   17.6724  -10.0216  -13.6130 O   0  0  0  0  0  0  0  0  0  0  0  0
   22.0860   -8.4386  -16.5815 N   0  0  0  0  0  0  0  0  0  0  0  0
   22.0126   -7.4658  -15.5785 C   0  0  0  0  0  0  0  0  0  0  0  0
   23.0512   -6.8687  -15.2270 O   0  0  0  0  0  0  0  0  0  0  0  0
   20.7497   -7.0800  -14.8801 C   0  0  0  0  0  0  0  0  0  0  0  0
   19.5822   -7.8892  -15.3516 C   0  0  0  0  0  0  0  0  0  0  0  0
   18.3468   -7.5176  -14.6326 C   0  0  2  0  0  0  0  0  0  0  0  0
   17.1882   -8.3043  -15.0096 N   0  0  0  0  0  0  0  0  0  0  0  0
   18.0900   -6.0829  -14.6351 C   0  0  0  0  0  0  0  0  0  0  0  0
   18.6185   -5.1122  -13.8200 O   0  0  0  0  0  0  0  0  0  0  0  0
   17.2599   -5.6366  -15.5056 O   0  0  0  0  0  0  0  0  0  0  0  0
  2  1  1  6
  2  3  1  0
  4  2  1  0
  4 10  1  0
  5  4  2  0
  7  9  1  0
  7  6  1  6
  8  7  1  0
  9 10  1  1
  9 11  1  0
 11 19  1  0
 12 11  2  0
 14 13  1  0
 14 16  1  0
 15 14  2  0
 17 16  1  0
 18 20  1  0
 18 17  1  6
 19 18  1  0
 20 21  1  0
 22 20  2  0
M  END
$$$$
