ATQ.pdb
     RDKit          3D

 22 21  0  0  1  0  0  0  0  0999 V2000
   15.9990  -12.1766  -16.4706 C   0  0  0  0  0  0  0  0  0  0  0  0
   17.5032  -12.1968  -16.4948 C   0  0  2  0  0  0  0  0  0  0  0  0
   17.9419  -13.5738  -16.4889 N   0  0  0  0  0  0  0  0  0  0  0  0
   18.0291  -11.4400  -15.3356 C   0  0  0  0  0  0  0  0  0  0  0  0
   18.0319  -11.9972  -14.2045 O   0  0  0  0  0  0  0  0  0  0  0  0
   20.7077   -7.4828  -13.9665 C   0  0  0  0  0  0  0  0  0  0  0  0
   20.1724   -8.5232  -14.8957 C   0  0  1  0  0  0  0  0  0  0  0  0
   21.2709   -9.3779  -15.1755 O   0  0  0  0  0  0  0  0  0  0  0  0
   19.0429   -9.3602  -14.2887 C   0  0  2  0  0  0  0  0  0  0  0  0
   18.5282  -10.1257  -15.4287 N   0  0  0  0  0  0  0  0  0  0  0  0
   18.0048   -8.4331  -13.7876 C   0  0  0  0  0  0  0  0  0  0  0  0
   17.3295   -7.7961  -14.6501 O   0  0  0  0  0  0  0  0  0  0  0  0
   15.5194   -7.3931   -7.8462 N   0  0  0  0  0  0  0  0  0  0  0  0
   14.8357   -6.5857   -8.7619 C   0  0  0  0  0  0  0  0  0  0  0  0
   13.9026   -5.8596   -8.3609 O   0  0  0  0  0  0  0  0  0  0  0  0
   15.1491   -6.5282  -10.2213 C   0  0  0  0  0  0  0  0  0  0  0  0
   16.3104   -7.4027  -10.5772 C   0  0  0  0  0  0  0  0  0  0  0  0
   16.6840   -7.2465  -11.9975 C   0  0  2  0  0  0  0  0  0  0  0  0
   17.6895   -8.1897  -12.4479 N   0  0  0  0  0  0  0  0  0  0  0  0
   16.9866   -5.8686  -12.3638 C   0  0  0  0  0  0  0  0  0  0  0  0
   16.1523   -4.9158  -12.8948 O   0  0  0  0  0  0  0  0  0  0  0  0
   18.1893   -5.4623  -12.1777 O   0  0  0  0  0  0  0  0  0  0  0  0
  2  1  1  1
  2  3  1  0
  4  2  1  0
  4 10  1  0
  5  4  2  0
  7  9  1  0
  7  6  1  1
  8  7  1  0
  9 10  1  6
  9 11  1  0
 11 19  1  0
 12 11  2  0
 14 13  1  0
 14 16  1  0
 15 14  2  0
 17 16  1  0
 18 20  1  0
 18 17  1  1
 19 18  1  0
 20 21  1  0
 22 20  2  0
M  END
$$$$
