ATQ.pdb
     RDKit          3D

 22 21  0  0  1  0  0  0  0  0999 V2000
   18.2180  -15.2396  -16.2776 C   0  0  0  0  0  0  0  0  0  0  0  0
   17.3030  -14.0673  -16.5056 C   0  0  2  0  0  0  0  0  0  0  0  0
   16.2644  -14.4705  -17.4260 N   0  0  0  0  0  0  0  0  0  0  0  0
   18.0852  -12.9186  -17.0172 C   0  0  0  0  0  0  0  0  0  0  0  0
   18.6343  -13.0203  -18.1476 O   0  0  0  0  0  0  0  0  0  0  0  0
   16.8862   -9.4745  -17.6787 C   0  0  0  0  0  0  0  0  0  0  0  0
   18.0050   -9.4010  -16.6911 C   0  0  1  0  0  0  0  0  0  0  0  0
   17.3849   -9.4642  -15.4156 O   0  0  0  0  0  0  0  0  0  0  0  0
   19.0003  -10.5587  -16.8097 C   0  0  2  0  0  0  0  0  0  0  0  0
   18.2497  -11.7134  -16.3060 N   0  0  0  0  0  0  0  0  0  0  0  0
   20.1468  -10.2694  -15.9209 C   0  0  0  0  0  0  0  0  0  0  0  0
   20.0391  -10.6087  -14.7048 O   0  0  0  0  0  0  0  0  0  0  0  0
   26.2718  -11.0065  -16.9375 N   0  0  0  0  0  0  0  0  0  0  0  0
   26.1386  -10.5868  -15.6094 C   0  0  0  0  0  0  0  0  0  0  0  0
   27.1238  -10.6501  -14.8452 O   0  0  0  0  0  0  0  0  0  0  0  0
   24.8709  -10.0551  -15.0249 C   0  0  0  0  0  0  0  0  0  0  0  0
   23.7527  -10.0607  -16.0196 C   0  0  0  0  0  0  0  0  0  0  0  0
   22.5068   -9.5311  -15.4291 C   0  0  2  0  0  0  0  0  0  0  0  0
   21.3476   -9.6576  -16.2914 N   0  0  0  0  0  0  0  0  0  0  0  0
   22.6599   -8.1946  -14.8681 C   0  0  0  0  0  0  0  0  0  0  0  0
   23.0180   -7.8319  -13.5929 O   0  0  0  0  0  0  0  0  0  0  0  0
   22.4341   -7.2011  -15.6480 O   0  0  0  0  0  0  0  0  0  0  0  0
  2  1  1  6
  2  3  1  0
  4  2  1  0
  4 10  1  0
  5  4  2  0
  7  9  1  0
  7  6  1  6
  8  7  1  0
  9 10  1  1
  9 11  1  0
 11 19  1  0
 12 11  2  0
 14 13  1  0
 14 16  1  0
 15 14  2  0
 17 16  1  0
 18 20  1  0
 18 17  1  6
 19 18  1  0
 20 21  1  0
 22 20  2  0
M  END
$$$$
