ATQ.pdb
     RDKit          3D

 22 21  0  0  1  0  0  0  0  0999 V2000
   13.0826  -10.4476  -14.0024 C   0  0  0  0  0  0  0  0  0  0  0  0
   13.7104   -9.0976  -13.7863 C   0  0  2  0  0  0  0  0  0  0  0  0
   12.6765   -8.0923  -13.8808 N   0  0  0  0  0  0  0  0  0  0  0  0
   14.7863   -8.8849  -14.7814 C   0  0  0  0  0  0  0  0  0  0  0  0
   14.4816   -8.8781  -16.0048 O   0  0  0  0  0  0  0  0  0  0  0  0
   19.3542   -7.1596  -15.5393 C   0  0  0  0  0  0  0  0  0  0  0  0
   18.0954   -7.4230  -14.7787 C   0  0  1  0  0  0  0  0  0  0  0  0
   17.3815   -6.1960  -14.7976 O   0  0  0  0  0  0  0  0  0  0  0  0
   17.2187   -8.5094  -15.4078 C   0  0  2  0  0  0  0  0  0  0  0  0
   16.1376   -8.6891  -14.4333 N   0  0  0  0  0  0  0  0  0  0  0  0
   18.0241   -9.7461  -15.5086 C   0  0  0  0  0  0  0  0  0  0  0  0
   18.5589  -10.1794  -14.4447 O   0  0  0  0  0  0  0  0  0  0  0  0
   17.1826  -15.2003  -15.4309 N   0  0  0  0  0  0  0  0  0  0  0  0
   18.4545  -15.2670  -16.0103 C   0  0  0  0  0  0  0  0  0  0  0  0
   19.1457  -16.2949  -15.8539 O   0  0  0  0  0  0  0  0  0  0  0  0
   19.0606  -14.1699  -16.8228 C   0  0  0  0  0  0  0  0  0  0  0  0
   18.2071  -12.9404  -16.8246 C   0  0  0  0  0  0  0  0  0  0  0  0
   19.0282  -11.7173  -16.7181 C   0  0  2  0  0  0  0  0  0  0  0  0
   18.2537  -10.4921  -16.6680 N   0  0  0  0  0  0  0  0  0  0  0  0
   20.1147  -11.6685  -17.6884 C   0  0  0  0  0  0  0  0  0  0  0  0
   21.4201  -12.0684  -17.5400 O   0  0  0  0  0  0  0  0  0  0  0  0
   19.8453  -11.1899  -18.8479 O   0  0  0  0  0  0  0  0  0  0  0  0
  2  1  1  6
  2  3  1  0
  4  2  1  0
  4 10  1  0
  5  4  2  0
  7  9  1  0
  7  6  1  6
  8  7  1  0
  9 10  1  1
  9 11  1  0
 11 19  1  0
 12 11  2  0
 14 13  1  0
 14 16  1  0
 15 14  2  0
 17 16  1  0
 18 20  1  0
 18 17  1  6
 19 18  1  0
 20 21  1  0
 22 20  2  0
M  END
$$$$
