ATQ.pdb
     RDKit          3D

 22 21  0  0  1  0  0  0  0  0999 V2000
   15.9513  -11.5729  -15.2020 C   0  0  0  0  0  0  0  0  0  0  0  0
   16.6707  -12.6534  -15.9625 C   0  0  2  0  0  0  0  0  0  0  0  0
   16.4344  -13.9148  -15.2980 N   0  0  0  0  0  0  0  0  0  0  0  0
   18.1132  -12.3282  -16.0430 C   0  0  0  0  0  0  0  0  0  0  0  0
   18.8638  -12.6828  -15.0939 O   0  0  0  0  0  0  0  0  0  0  0  0
   20.5283  -13.4736  -18.3799 C   0  0  0  0  0  0  0  0  0  0  0  0
   20.6037  -11.9839  -18.4661 C   0  0  1  0  0  0  0  0  0  0  0  0
   19.7545  -11.6267  -19.5462 O   0  0  0  0  0  0  0  0  0  0  0  0
   20.1124  -11.2741  -17.2014 C   0  0  2  0  0  0  0  0  0  0  0  0
   18.6945  -11.6411  -17.1271 N   0  0  0  0  0  0  0  0  0  0  0  0
   20.2507   -9.8164  -17.4116 C   0  0  0  0  0  0  0  0  0  0  0  0
   19.1965   -9.1168  -17.3422 O   0  0  0  0  0  0  0  0  0  0  0  0
   22.2192   -5.5229  -13.1157 N   0  0  0  0  0  0  0  0  0  0  0  0
   21.2794   -5.7002  -14.1371 C   0  0  0  0  0  0  0  0  0  0  0  0
   20.0635   -5.5882  -13.8771 O   0  0  0  0  0  0  0  0  0  0  0  0
   21.6346   -6.0219  -15.5520 C   0  0  0  0  0  0  0  0  0  0  0  0
   21.3506   -7.4529  -15.8867 C   0  0  0  0  0  0  0  0  0  0  0  0
   21.6958   -7.7539  -17.2908 C   0  0  2  0  0  0  0  0  0  0  0  0
   21.4373   -9.1275  -17.6780 N   0  0  0  0  0  0  0  0  0  0  0  0
   23.0269   -7.2941  -17.6664 C   0  0  0  0  0  0  0  0  0  0  0  0
   23.4531   -6.0160  -17.9324 O   0  0  0  0  0  0  0  0  0  0  0  0
   23.9466   -8.1824  -17.7727 O   0  0  0  0  0  0  0  0  0  0  0  0
  2  1  1  1
  2  3  1  0
  4  2  1  0
  4 10  1  0
  5  4  2  0
  7  9  1  0
  7  6  1  1
  8  7  1  0
  9 10  1  6
  9 11  1  0
 11 19  1  0
 12 11  2  0
 14 13  1  0
 14 16  1  0
 15 14  2  0
 17 16  1  0
 18 20  1  0
 18 17  1  1
 19 18  1  0
 20 21  1  0
 22 20  2  0
M  END
$$$$
