ATQ.pdb
     RDKit          3D

 22 21  0  0  1  0  0  0  0  0999 V2000
   15.9007  -14.5235  -17.2942 C   0  0  0  0  0  0  0  0  0  0  0  0
   16.5130  -13.7397  -16.1654 C   0  0  2  0  0  0  0  0  0  0  0  0
   15.4793  -13.4472  -15.1988 N   0  0  0  0  0  0  0  0  0  0  0  0
   17.1414  -12.5092  -16.6983 C   0  0  0  0  0  0  0  0  0  0  0  0
   18.1321  -12.6251  -17.4695 O   0  0  0  0  0  0  0  0  0  0  0  0
   16.6329   -7.5578  -17.1206 C   0  0  0  0  0  0  0  0  0  0  0  0
   16.1814   -8.9549  -16.8439 C   0  0  1  0  0  0  0  0  0  0  0  0
   15.2500   -9.2591  -17.8713 O   0  0  0  0  0  0  0  0  0  0  0  0
   17.3153   -9.9829  -16.8908 C   0  0  2  0  0  0  0  0  0  0  0  0
   16.6902  -11.2108  -16.3886 N   0  0  0  0  0  0  0  0  0  0  0  0
   18.3770   -9.5358  -15.9629 C   0  0  0  0  0  0  0  0  0  0  0  0
   18.1232   -9.5852  -14.7224 O   0  0  0  0  0  0  0  0  0  0  0  0
   24.4489  -10.8792  -16.0298 N   0  0  0  0  0  0  0  0  0  0  0  0
   24.2606  -10.0604  -14.9109 C   0  0  0  0  0  0  0  0  0  0  0  0
   25.1840   -9.9372  -14.0797 O   0  0  0  0  0  0  0  0  0  0  0  0
   23.0031   -9.3040  -14.6317 C   0  0  0  0  0  0  0  0  0  0  0  0
   21.9622   -9.5464  -15.6795 C   0  0  0  0  0  0  0  0  0  0  0  0
   20.7195   -8.8057  -15.3824 C   0  0  2  0  0  0  0  0  0  0  0  0
   19.6432   -9.0636  -16.3197 N   0  0  0  0  0  0  0  0  0  0  0  0
   20.9408   -7.3854  -15.1415 C   0  0  0  0  0  0  0  0  0  0  0  0
   21.3515   -6.7613  -13.9892 O   0  0  0  0  0  0  0  0  0  0  0  0
   20.7296   -6.5839  -16.1209 O   0  0  0  0  0  0  0  0  0  0  0  0
  2  1  1  6
  2  3  1  0
  4  2  1  0
  4 10  1  0
  5  4  2  0
  7  9  1  0
  7  6  1  6
  8  7  1  0
  9 10  1  1
  9 11  1  0
 11 19  1  0
 12 11  2  0
 14 13  1  0
 14 16  1  0
 15 14  2  0
 17 16  1  0
 18 20  1  0
 18 17  1  6
 19 18  1  0
 20 21  1  0
 22 20  2  0
M  END
$$$$
