ATQ.pdb
     RDKit          3D

 22 21  0  0  1  0  0  0  0  0999 V2000
   18.7247  -15.3441  -17.2242 C   0  0  0  0  0  0  0  0  0  0  0  0
   19.9372  -14.4572  -17.3070 C   0  0  2  0  0  0  0  0  0  0  0  0
   20.6369  -14.5205  -16.0441 N   0  0  0  0  0  0  0  0  0  0  0  0
   19.5209  -13.0766  -17.6442 C   0  0  0  0  0  0  0  0  0  0  0  0
   18.8374  -12.8922  -18.6875 O   0  0  0  0  0  0  0  0  0  0  0  0
   17.5897  -10.9255  -15.4814 C   0  0  0  0  0  0  0  0  0  0  0  0
   17.9316  -10.5831  -16.8950 C   0  0  1  0  0  0  0  0  0  0  0  0
   17.4317   -9.2695  -17.0948 O   0  0  0  0  0  0  0  0  0  0  0  0
   19.4370  -10.5821  -17.1753 C   0  0  2  0  0  0  0  0  0  0  0  0
   19.8489  -11.9535  -16.8591 N   0  0  0  0  0  0  0  0  0  0  0  0
   20.0759   -9.6301  -16.2406 C   0  0  0  0  0  0  0  0  0  0  0  0
   20.2331  -10.0098  -15.0419 O   0  0  0  0  0  0  0  0  0  0  0  0
   24.5739   -5.4174  -17.7845 N   0  0  0  0  0  0  0  0  0  0  0  0
   24.4980   -5.4252  -16.3874 C   0  0  0  0  0  0  0  0  0  0  0  0
   25.3355   -4.7784  -15.7248 O   0  0  0  0  0  0  0  0  0  0  0  0
   23.4614   -6.1701  -15.6115 C   0  0  0  0  0  0  0  0  0  0  0  0
   22.5420   -6.9410  -16.5062 C   0  0  0  0  0  0  0  0  0  0  0  0
   21.4567   -7.5817  -15.7362 C   0  0  2  0  0  0  0  0  0  0  0  0
   20.5302   -8.3450  -16.5500 N   0  0  0  0  0  0  0  0  0  0  0  0
   20.7917   -6.6704  -14.8134 C   0  0  0  0  0  0  0  0  0  0  0  0
   21.1563   -6.3202  -13.5366 O   0  0  0  0  0  0  0  0  0  0  0  0
   19.7150   -6.1043  -15.2212 O   0  0  0  0  0  0  0  0  0  0  0  0
  2  1  1  1
  2  3  1  0
  4  2  1  0
  4 10  1  0
  5  4  2  0
  7  9  1  0
  7  6  1  1
  8  7  1  0
  9 10  1  1
  9 11  1  0
 11 19  1  0
 12 11  2  0
 14 13  1  0
 14 16  1  0
 15 14  2  0
 17 16  1  0
 18 20  1  0
 18 17  1  6
 19 18  1  0
 20 21  1  0
 22 20  2  0
M  END
$$$$
