ATQ.pdb
     RDKit          3D

 22 21  0  0  1  0  0  0  0  0999 V2000
   18.8342  -15.4130  -17.3426 C   0  0  0  0  0  0  0  0  0  0  0  0
   19.2191  -14.0076  -17.7172 C   0  0  2  0  0  0  0  0  0  0  0  0
   19.9726  -14.0531  -18.9495 N   0  0  0  0  0  0  0  0  0  0  0  0
   19.9927  -13.3935  -16.6138 C   0  0  0  0  0  0  0  0  0  0  0  0
   19.4775  -13.3602  -15.4636 O   0  0  0  0  0  0  0  0  0  0  0  0
   24.3993  -11.5782  -15.1792 C   0  0  0  0  0  0  0  0  0  0  0  0
   23.4615  -12.3817  -16.0202 C   0  0  1  0  0  0  0  0  0  0  0  0
   23.7182  -13.7359  -15.6800 O   0  0  0  0  0  0  0  0  0  0  0  0
   21.9855  -12.0794  -15.7468 C   0  0  2  0  0  0  0  0  0  0  0  0
   21.2786  -12.8421  -16.7808 N   0  0  0  0  0  0  0  0  0  0  0  0
   21.7706  -10.6296  -15.9471 C   0  0  0  0  0  0  0  0  0  0  0  0
   21.8974  -10.1808  -17.1254 O   0  0  0  0  0  0  0  0  0  0  0  0
   18.6143   -7.5663  -18.3823 N   0  0  0  0  0  0  0  0  0  0  0  0
   18.8658   -6.5202  -17.4878 C   0  0  0  0  0  0  0  0  0  0  0  0
   18.5778   -5.3507  -17.8164 O   0  0  0  0  0  0  0  0  0  0  0  0
   19.4692   -6.7059  -16.1340 C   0  0  0  0  0  0  0  0  0  0  0  0
   19.7526   -8.1464  -15.8426 C   0  0  0  0  0  0  0  0  0  0  0  0
   21.0809   -8.3162  -15.2195 C   0  0  2  0  0  0  0  0  0  0  0  0
   21.4359   -9.6983  -14.9601 N   0  0  0  0  0  0  0  0  0  0  0  0
   21.2917   -7.4456  -14.0698 C   0  0  0  0  0  0  0  0  0  0  0  0
   21.6090   -6.1096  -14.0482 O   0  0  0  0  0  0  0  0  0  0  0  0
   21.1728   -7.9714  -12.9055 O   0  0  0  0  0  0  0  0  0  0  0  0
  2  1  1  1
  2  3  1  0
  4  2  1  0
  4 10  1  0
  5  4  2  0
  7  9  1  0
  7  6  1  1
  8  7  1  0
  9 10  1  6
  9 11  1  0
 11 19  1  0
 12 11  2  0
 14 13  1  0
 14 16  1  0
 15 14  2  0
 17 16  1  0
 18 20  1  0
 18 17  1  1
 19 18  1  0
 20 21  1  0
 22 20  2  0
M  END
$$$$
