NIE.pdb
     RDKit          3D

 26 25  0  0  1  0  0  0  0  0999 V2000
    5.3545  -16.7651   19.7581 N   0  0  0  0  0  0  0  0  0  0  0  0
    6.1780  -17.5912   20.5600 C   0  0  0  0  0  0  0  0  0  0  0  0
    6.0872  -18.8369   20.4717 O   0  0  0  0  0  0  0  0  0  0  0  0
    7.1315  -16.9885   21.4884 C   0  0  0  0  0  0  0  0  0  0  0  0
    6.8504  -15.5078   21.6047 C   0  0  2  0  0  0  0  0  0  0  0  0
    7.0805  -14.8901   20.3354 N   0  0  0  0  0  0  0  0  0  0  0  0
    7.7807  -14.9763   22.6581 C   0  0  0  0  0  0  0  0  0  0  0  0
    8.9422  -14.6028   22.3545 O   0  0  0  0  0  0  0  0  0  0  0  0
    5.7551  -11.9949   26.6555 C   0  0  0  0  0  0  0  0  0  0  0  0
    6.7169  -12.5180   25.6069 C   0  0  0  0  0  0  0  0  0  0  0  0
    7.4884  -13.6992   26.0699 C   0  0  2  0  0  0  0  0  0  0  0  0
    8.2245  -13.4348   27.3826 C   0  0  0  0  0  0  0  0  0  0  0  0
    8.3346  -14.3791   25.0435 C   0  0  2  0  0  0  0  0  0  0  0  0
    7.3846  -14.8779   24.0235 N   0  0  0  0  0  0  0  0  0  0  0  0
    9.1677  -15.4882   25.5430 C   0  0  0  0  0  0  0  0  0  0  0  0
    8.5818  -16.4252   26.1774 O   0  0  0  0  0  0  0  0  0  0  0  0
   10.5562  -15.6303   25.3934 N   0  0  0  0  0  0  0  0  0  0  0  0
   11.2991  -16.8270   25.7835 C   0  0  1  0  0  0  0  0  0  0  0  0
   12.6886  -16.7973   25.2106 C   0  0  0  0  0  0  0  0  0  0  0  0
   13.5969  -17.8940   25.6725 C   0  0  0  0  0  0  0  0  0  0  0  0
   14.9538  -17.8100   25.1072 C   0  0  0  0  0  0  0  0  0  0  0  0
   15.9599  -18.2582   25.6766 O   0  0  0  0  0  0  0  0  0  0  0  0
   11.2895  -17.0068   27.2447 C   0  0  0  0  0  0  0  0  0  0  0  0
   11.2970  -18.1202   27.8124 O   0  0  0  0  0  0  0  0  0  0  0  0
   15.1871  -17.1999   23.8569 O   0  0  0  0  0  0  0  0  0  0  0  0
   11.2710  -15.8768   28.0498 O   0  0  0  0  0  0  0  0  0  0  0  0
  2  1  1  0
  3  2  2  0
  4  2  1  0
  5  6  1  6
  5  4  1  0
  7  5  1  0
  8  7  2  0
  9 10  1  0
 11 12  1  1
 11 10  1  0
 11 13  1  0
 13 14  1  6
 14  7  1  0
 15 13  1  0
 15 16  2  0
 17 15  1  0
 18 17  1  0
 18 19  1  1
 19 20  1  0
 20 21  1  0
 21 25  1  0
 21 22  2  0
 23 18  1  0
 24 23  2  0
 26 23  1  0
M  END
$$$$
