NIE.pdb
     RDKit          3D

 26 25  0  0  1  0  0  0  0  0999 V2000
    6.9032  -18.0308   18.8233 N   0  0  0  0  0  0  0  0  0  0  0  0
    6.4056  -17.1054   19.7719 C   0  0  0  0  0  0  0  0  0  0  0  0
    5.2271  -16.6920   19.6819 O   0  0  0  0  0  0  0  0  0  0  0  0
    7.2681  -16.6351   20.8533 C   0  0  0  0  0  0  0  0  0  0  0  0
    7.1035  -15.1408   21.0120 C   0  0  2  0  0  0  0  0  0  0  0  0
    7.6185  -14.4904   19.8469 N   0  0  0  0  0  0  0  0  0  0  0  0
    7.8668  -14.7543   22.2471 C   0  0  0  0  0  0  0  0  0  0  0  0
    9.1239  -14.7374   22.2416 O   0  0  0  0  0  0  0  0  0  0  0  0
    7.8398  -11.2659   26.8463 C   0  0  0  0  0  0  0  0  0  0  0  0
    7.6392  -12.7680   26.8054 C   0  0  0  0  0  0  0  0  0  0  0  0
    7.0807  -13.2404   25.5133 C   0  0  2  0  0  0  0  0  0  0  0  0
    5.6728  -13.8150   25.6637 C   0  0  0  0  0  0  0  0  0  0  0  0
    7.9801  -14.0900   24.6760 C   0  0  2  0  0  0  0  0  0  0  0  0
    7.2008  -14.3973   23.4554 N   0  0  0  0  0  0  0  0  0  0  0  0
    8.4414  -15.3392   25.3086 C   0  0  0  0  0  0  0  0  0  0  0  0
    7.5863  -16.2711   25.4638 O   0  0  0  0  0  0  0  0  0  0  0  0
    9.7387  -15.6216   25.7646 N   0  0  0  0  0  0  0  0  0  0  0  0
   10.1774  -16.9446   26.2041 C   0  0  1  0  0  0  0  0  0  0  0  0
   11.3608  -17.4041   25.3990 C   0  0  0  0  0  0  0  0  0  0  0  0
   12.6774  -16.8144   25.7992 C   0  0  0  0  0  0  0  0  0  0  0  0
   13.4868  -16.3560   24.6580 C   0  0  0  0  0  0  0  0  0  0  0  0
   14.5604  -15.7483   24.7823 O   0  0  0  0  0  0  0  0  0  0  0  0
   10.4321  -16.9666   27.6540 C   0  0  0  0  0  0  0  0  0  0  0  0
   10.3441  -15.9638   28.3948 O   0  0  0  0  0  0  0  0  0  0  0  0
   13.0738  -16.5896   23.3296 O   0  0  0  0  0  0  0  0  0  0  0  0
   10.7927  -18.1697   28.2438 O   0  0  0  0  0  0  0  0  0  0  0  0
  2  1  1  0
  3  2  2  0
  4  2  1  0
  5  6  1  6
  5  4  1  0
  7  5  1  0
  8  7  2  0
  9 10  1  0
 11 12  1  1
 11 10  1  0
 11 13  1  0
 13 14  1  6
 14  7  1  0
 15 13  1  0
 15 16  2  0
 17 15  1  0
 18 17  1  0
 18 19  1  6
 19 20  1  0
 20 21  1  0
 21 25  1  0
 21 22  2  0
 23 18  1  0
 24 23  2  0
 26 23  1  0
M  END
$$$$
