NIE.pdb
     RDKit          3D

 26 25  0  0  1  0  0  0  0  0999 V2000
    5.0478  -16.3683   19.6388 N   0  0  0  0  0  0  0  0  0  0  0  0
    6.0260  -17.2374   20.1790 C   0  0  0  0  0  0  0  0  0  0  0  0
    5.9933  -18.4593   19.9078 O   0  0  0  0  0  0  0  0  0  0  0  0
    7.0709  -16.7065   21.0511 C   0  0  0  0  0  0  0  0  0  0  0  0
    6.7792  -15.2551   21.3569 C   0  0  2  0  0  0  0  0  0  0  0  0
    6.9434  -14.4865   20.1619 N   0  0  0  0  0  0  0  0  0  0  0  0
    7.7515  -14.8380   22.4237 C   0  0  0  0  0  0  0  0  0  0  0  0
    8.9458  -14.5752   22.1316 O   0  0  0  0  0  0  0  0  0  0  0  0
    5.7456  -11.7372   26.2845 C   0  0  0  0  0  0  0  0  0  0  0  0
    6.6781  -12.3415   25.2533 C   0  0  0  0  0  0  0  0  0  0  0  0
    7.4760  -13.4729   25.7898 C   0  0  2  0  0  0  0  0  0  0  0  0
    8.2331  -13.0982   27.0631 C   0  0  0  0  0  0  0  0  0  0  0  0
    8.3125  -14.2185   24.8017 C   0  0  2  0  0  0  0  0  0  0  0  0
    7.3594  -14.7267   23.7893 N   0  0  0  0  0  0  0  0  0  0  0  0
    9.1039  -15.3327   25.3546 C   0  0  0  0  0  0  0  0  0  0  0  0
    8.4668  -16.3328   25.8209 O   0  0  0  0  0  0  0  0  0  0  0  0
   10.5035  -15.4167   25.4239 N   0  0  0  0  0  0  0  0  0  0  0  0
   11.2302  -16.6390   25.7618 C   0  0  1  0  0  0  0  0  0  0  0  0
   12.6242  -16.5979   25.2006 C   0  0  0  0  0  0  0  0  0  0  0  0
   13.5350  -17.6921   25.6637 C   0  0  0  0  0  0  0  0  0  0  0  0
   14.8994  -17.5900   25.1199 C   0  0  0  0  0  0  0  0  0  0  0  0
   15.1745  -17.7788   23.9257 O   0  0  0  0  0  0  0  0  0  0  0  0
   11.2077  -16.8877   27.2128 C   0  0  0  0  0  0  0  0  0  0  0  0
   10.9673  -16.0098   28.0693 O   0  0  0  0  0  0  0  0  0  0  0  0
   15.9931  -17.2639   25.9489 O   0  0  0  0  0  0  0  0  0  0  0  0
   11.4682  -18.1726   27.6674 O   0  0  0  0  0  0  0  0  0  0  0  0
  2  1  1  0
  3  2  2  0
  4  2  1  0
  5  6  1  6
  5  4  1  0
  7  5  1  0
  8  7  2  0
  9 10  1  0
 11 12  1  1
 11 10  1  0
 11 13  1  0
 13 14  1  6
 14  7  1  0
 15 13  1  0
 15 16  2  0
 17 15  1  0
 18 17  1  0
 18 19  1  1
 19 20  1  0
 20 21  1  0
 21 25  1  0
 21 22  2  0
 23 18  1  0
 24 23  2  0
 26 23  1  0
M  END
$$$$
