NIE.pdb
     RDKit          3D

 26 25  0  0  1  0  0  0  0  0999 V2000
    8.1258  -19.4832   20.0668 N   0  0  0  0  0  0  0  0  0  0  0  0
    7.5469  -18.3384   20.6655 C   0  0  0  0  0  0  0  0  0  0  0  0
    6.4510  -17.9015   20.2461 O   0  0  0  0  0  0  0  0  0  0  0  0
    8.2294  -17.6700   21.7707 C   0  0  0  0  0  0  0  0  0  0  0  0
    8.1701  -16.1735   21.5649 C   0  0  2  0  0  0  0  0  0  0  0  0
    8.8541  -15.8438   20.3529 N   0  0  0  0  0  0  0  0  0  0  0  0
    8.8295  -15.5498   22.7623 C   0  0  0  0  0  0  0  0  0  0  0  0
   10.0825  -15.4797   22.8369 O   0  0  0  0  0  0  0  0  0  0  0  0
    5.9974  -12.7202   27.0093 C   0  0  0  0  0  0  0  0  0  0  0  0
    6.5179  -13.6726   25.9509 C   0  0  0  0  0  0  0  0  0  0  0  0
    7.8603  -13.2924   25.4428 C   0  0  2  0  0  0  0  0  0  0  0  0
    7.7966  -12.1494   24.4306 C   0  0  0  0  0  0  0  0  0  0  0  0
    8.7460  -14.4157   25.0119 C   0  0  2  0  0  0  0  0  0  0  0  0
    8.0669  -15.0214   23.8441 N   0  0  0  0  0  0  0  0  0  0  0  0
    9.0065  -15.4451   26.0346 C   0  0  0  0  0  0  0  0  0  0  0  0
    8.0586  -16.2488   26.3158 O   0  0  0  0  0  0  0  0  0  0  0  0
   10.2023  -15.6429   26.7428 N   0  0  0  0  0  0  0  0  0  0  0  0
   10.3888  -16.6844   27.7512 C   0  0  1  0  0  0  0  0  0  0  0  0
   11.5862  -17.5315   27.4217 C   0  0  0  0  0  0  0  0  0  0  0  0
   11.7179  -17.9247   25.9832 C   0  0  0  0  0  0  0  0  0  0  0  0
   12.9080  -18.7459   25.7056 C   0  0  0  0  0  0  0  0  0  0  0  0
   12.8747  -19.7961   25.0472 O   0  0  0  0  0  0  0  0  0  0  0  0
   10.4535  -16.1092   29.1049 C   0  0  0  0  0  0  0  0  0  0  0  0
   10.5474  -16.7886   30.1497 O   0  0  0  0  0  0  0  0  0  0  0  0
   14.1807  -18.3726   26.1857 O   0  0  0  0  0  0  0  0  0  0  0  0
   10.4081  -14.7289   29.2396 O   0  0  0  0  0  0  0  0  0  0  0  0
  2  1  1  0
  3  2  2  0
  4  2  1  0
  5  6  1  6
  5  4  1  0
  7  5  1  0
  8  7  2  0
  9 10  1  0
 11 12  1  6
 11 10  1  0
 11 13  1  0
 13 14  1  6
 14  7  1  0
 15 13  1  0
 15 16  2  0
 17 15  1  0
 18 17  1  0
 18 19  1  6
 19 20  1  0
 20 21  1  0
 21 25  1  0
 21 22  2  0
 23 18  1  0
 24 23  2  0
 26 23  1  0
M  END
$$$$
