NIE.pdb
     RDKit          3D

 26 25  0  0  1  0  0  0  0  0999 V2000
    6.9502  -17.1108   18.8792 N   0  0  0  0  0  0  0  0  0  0  0  0
    6.4791  -16.9870   20.2084 C   0  0  0  0  0  0  0  0  0  0  0  0
    5.3466  -17.4261   20.5126 O   0  0  0  0  0  0  0  0  0  0  0  0
    7.3152  -16.3476   21.2215 C   0  0  0  0  0  0  0  0  0  0  0  0
    6.6442  -15.0794   21.6977 C   0  0  2  0  0  0  0  0  0  0  0  0
    6.5260  -14.1746   20.5963 N   0  0  0  0  0  0  0  0  0  0  0  0
    7.5132  -14.5179   22.7873 C   0  0  0  0  0  0  0  0  0  0  0  0
    7.7716  -13.2881   22.8278 O   0  0  0  0  0  0  0  0  0  0  0  0
    6.2674  -11.8376   25.7489 C   0  0  0  0  0  0  0  0  0  0  0  0
    7.2120  -12.7005   24.9357 C   0  0  0  0  0  0  0  0  0  0  0  0
    7.6157  -13.9408   25.6452 C   0  0  2  0  0  0  0  0  0  0  0  0
    7.8417  -13.7090   27.1386 C   0  0  0  0  0  0  0  0  0  0  0  0
    8.6951  -14.7485   25.0016 C   0  0  2  0  0  0  0  0  0  0  0  0
    8.0695  -15.3495   23.8021 N   0  0  0  0  0  0  0  0  0  0  0  0
    9.2857  -15.8033   25.8455 C   0  0  0  0  0  0  0  0  0  0  0  0
    8.4864  -16.5609   26.4864 O   0  0  0  0  0  0  0  0  0  0  0  0
   10.6522  -16.0715   26.0228 N   0  0  0  0  0  0  0  0  0  0  0  0
   11.1876  -17.3927   26.3454 C   0  0  1  0  0  0  0  0  0  0  0  0
   12.4830  -17.6300   25.6206 C   0  0  0  0  0  0  0  0  0  0  0  0
   13.3288  -16.4140   25.4029 C   0  0  0  0  0  0  0  0  0  0  0  0
   14.5076  -16.6626   24.5565 C   0  0  0  0  0  0  0  0  0  0  0  0
   14.7932  -17.7767   24.0933 O   0  0  0  0  0  0  0  0  0  0  0  0
   11.3076  -17.5774   27.8012 C   0  0  0  0  0  0  0  0  0  0  0  0
   11.0233  -16.6989   28.6435 O   0  0  0  0  0  0  0  0  0  0  0  0
   15.3967  -15.6207   24.2191 O   0  0  0  0  0  0  0  0  0  0  0  0
   11.7634  -18.7985   28.2773 O   0  0  0  0  0  0  0  0  0  0  0  0
  2  1  1  0
  3  2  2  0
  4  2  1  0
  5  6  1  6
  5  4  1  0
  7  5  1  0
  8  7  2  0
  9 10  1  0
 11 12  1  1
 11 10  1  0
 11 13  1  0
 13 14  1  6
 14  7  1  0
 15 13  1  0
 15 16  2  0
 17 15  1  0
 18 17  1  0
 18 19  1  6
 19 20  1  0
 20 21  1  0
 21 25  1  0
 21 22  2  0
 23 18  1  0
 24 23  2  0
 26 23  1  0
M  END
$$$$
