NIE.pdb
     RDKit          3D

 26 25  0  0  1  0  0  0  0  0999 V2000
    4.8612  -17.8593   20.5782 N   0  0  0  0  0  0  0  0  0  0  0  0
    6.2476  -17.9137   20.2974 C   0  0  0  0  0  0  0  0  0  0  0  0
    6.6460  -18.3915   19.2107 O   0  0  0  0  0  0  0  0  0  0  0  0
    7.2097  -17.4124   21.2758 C   0  0  0  0  0  0  0  0  0  0  0  0
    7.2302  -15.9015   21.2300 C   0  0  2  0  0  0  0  0  0  0  0  0
    7.7887  -15.4820   19.9819 N   0  0  0  0  0  0  0  0  0  0  0  0
    8.0666  -15.4488   22.3932 C   0  0  0  0  0  0  0  0  0  0  0  0
    9.3214  -15.5019   22.3362 O   0  0  0  0  0  0  0  0  0  0  0  0
    7.3003  -11.6866   27.1797 C   0  0  0  0  0  0  0  0  0  0  0  0
    8.2037  -12.6916   26.4928 C   0  0  0  0  0  0  0  0  0  0  0  0
    7.5273  -13.4127   25.3850 C   0  0  2  0  0  0  0  0  0  0  0  0
    6.1160  -13.8626   25.7603 C   0  0  0  0  0  0  0  0  0  0  0  0
    8.3258  -14.4758   24.7040 C   0  0  2  0  0  0  0  0  0  0  0  0
    7.4743  -14.9487   23.5891 N   0  0  0  0  0  0  0  0  0  0  0  0
    8.7221  -15.6131   25.5544 C   0  0  0  0  0  0  0  0  0  0  0  0
    7.8043  -16.4100   25.9370 O   0  0  0  0  0  0  0  0  0  0  0  0
   10.0187  -15.9219   25.9948 N   0  0  0  0  0  0  0  0  0  0  0  0
   10.3676  -17.1540   26.6994 C   0  0  1  0  0  0  0  0  0  0  0  0
   11.7186  -17.6484   26.2633 C   0  0  0  0  0  0  0  0  0  0  0  0
   12.2242  -18.8572   26.9875 C   0  0  0  0  0  0  0  0  0  0  0  0
   13.5654  -19.2829   26.5545 C   0  0  0  0  0  0  0  0  0  0  0  0
   13.7637  -20.2223   25.7699 O   0  0  0  0  0  0  0  0  0  0  0  0
   10.2688  -16.9794   28.1580 C   0  0  0  0  0  0  0  0  0  0  0  0
   10.2557  -15.8682   28.7301 O   0  0  0  0  0  0  0  0  0  0  0  0
   14.7249  -18.6285   27.0206 O   0  0  0  0  0  0  0  0  0  0  0  0
   10.1847  -18.1120   28.9553 O   0  0  0  0  0  0  0  0  0  0  0  0
  2  1  1  0
  3  2  2  0
  4  2  1  0
  5  6  1  6
  5  4  1  0
  7  5  1  0
  8  7  2  0
  9 10  1  0
 11 12  1  1
 11 10  1  0
 11 13  1  0
 13 14  1  6
 14  7  1  0
 15 13  1  0
 15 16  2  0
 17 15  1  0
 18 17  1  0
 18 19  1  1
 19 20  1  0
 20 21  1  0
 21 25  1  0
 21 22  2  0
 23 18  1  0
 24 23  2  0
 26 23  1  0
M  END
$$$$
