NIE.pdb
     RDKit          3D

 26 25  0  0  1  0  0  0  0  0999 V2000
   10.0775  -19.8587   16.0728 N   0  0  0  0  0  0  0  0  0  0  0  0
    9.7078  -20.2847   17.3712 C   0  0  0  0  0  0  0  0  0  0  0  0
    9.8610  -21.4825   17.7023 O   0  0  0  0  0  0  0  0  0  0  0  0
    9.1488  -19.3260   18.3213 C   0  0  0  0  0  0  0  0  0  0  0  0
    9.0817  -17.9609   17.6753 C   0  0  2  0  0  0  0  0  0  0  0  0
    9.8913  -17.9647   16.4962 N   0  0  0  0  0  0  0  0  0  0  0  0
    9.5882  -16.9794   18.6939 C   0  0  0  0  0  0  0  0  0  0  0  0
   10.8093  -16.6843   18.7441 O   0  0  0  0  0  0  0  0  0  0  0  0
    6.2923  -12.8961   20.0434 C   0  0  0  0  0  0  0  0  0  0  0  0
    7.5711  -13.6435   19.7207 C   0  0  0  0  0  0  0  0  0  0  0  0
    8.0762  -14.4433   20.8652 C   0  0  2  0  0  0  0  0  0  0  0  0
    8.2630  -13.6005   22.1261 C   0  0  0  0  0  0  0  0  0  0  0  0
    9.2315  -15.3468   20.5810 C   0  0  2  0  0  0  0  0  0  0  0  0
    8.7127  -16.3549   19.6290 N   0  0  0  0  0  0  0  0  0  0  0  0
    9.8163  -16.0166   21.7570 C   0  0  0  0  0  0  0  0  0  0  0  0
    9.1777  -17.0023   22.2511 O   0  0  0  0  0  0  0  0  0  0  0  0
   11.0183  -15.6853   22.4020 N   0  0  0  0  0  0  0  0  0  0  0  0
   11.7180  -16.5746   23.3271 C   0  0  1  0  0  0  0  0  0  0  0  0
   13.1963  -16.3025   23.3062 C   0  0  0  0  0  0  0  0  0  0  0  0
   14.0084  -17.0939   24.2837 C   0  0  0  0  0  0  0  0  0  0  0  0
   15.4517  -16.8114   24.2126 C   0  0  0  0  0  0  0  0  0  0  0  0
   15.9200  -15.7602   23.7510 O   0  0  0  0  0  0  0  0  0  0  0  0
   11.1434  -16.4942   24.6802 C   0  0  0  0  0  0  0  0  0  0  0  0
   11.3401  -17.3441   25.5752 O   0  0  0  0  0  0  0  0  0  0  0  0
   16.4018  -17.7447   24.6773 O   0  0  0  0  0  0  0  0  0  0  0  0
   10.3322  -15.4121   24.9907 O   0  0  0  0  0  0  0  0  0  0  0  0
  2  1  1  0
  3  2  2  0
  4  2  1  0
  5  6  1  6
  5  4  1  0
  7  5  1  0
  8  7  2  0
  9 10  1  0
 11 12  1  1
 11 10  1  0
 11 13  1  0
 13 14  1  6
 14  7  1  0
 15 13  1  0
 15 16  2  0
 17 15  1  0
 18 17  1  0
 18 19  1  1
 19 20  1  0
 20 21  1  0
 21 25  1  0
 21 22  2  0
 23 18  1  0
 24 23  2  0
 26 23  1  0
M  END
$$$$
