NIE.pdb
     RDKit          3D

 26 25  0  0  1  0  0  0  0  0999 V2000
    5.5867  -16.4152   19.4616 N   0  0  0  0  0  0  0  0  0  0  0  0
    6.2066  -17.3823   20.2888 C   0  0  0  0  0  0  0  0  0  0  0  0
    5.9915  -18.6003   20.0940 O   0  0  0  0  0  0  0  0  0  0  0  0
    7.0955  -16.9570   21.3673 C   0  0  0  0  0  0  0  0  0  0  0  0
    7.0425  -15.4518   21.4965 C   0  0  2  0  0  0  0  0  0  0  0  0
    7.4880  -14.8643   20.2709 N   0  0  0  0  0  0  0  0  0  0  0  0
    7.9399  -15.0883   22.6453 C   0  0  0  0  0  0  0  0  0  0  0  0
    9.1883  -15.0651   22.4978 O   0  0  0  0  0  0  0  0  0  0  0  0
    5.8775  -11.5871   26.1712 C   0  0  0  0  0  0  0  0  0  0  0  0
    6.8638  -12.2973   25.2651 C   0  0  0  0  0  0  0  0  0  0  0  0
    7.4956  -13.4755   25.9111 C   0  0  2  0  0  0  0  0  0  0  0  0
    8.1902  -13.1160   27.2239 C   0  0  0  0  0  0  0  0  0  0  0  0
    8.3207  -14.3511   25.0255 C   0  0  2  0  0  0  0  0  0  0  0  0
    7.4144  -14.7608   23.9289 N   0  0  0  0  0  0  0  0  0  0  0  0
    8.8997  -15.5419   25.6737 C   0  0  0  0  0  0  0  0  0  0  0  0
    8.0926  -16.4298   26.1025 O   0  0  0  0  0  0  0  0  0  0  0  0
   10.2629  -15.8118   25.8726 N   0  0  0  0  0  0  0  0  0  0  0  0
   10.7719  -17.0592   26.4392 C   0  0  1  0  0  0  0  0  0  0  0  0
   12.1732  -17.3234   25.9635 C   0  0  0  0  0  0  0  0  0  0  0  0
   12.8134  -18.5619   26.5090 C   0  0  0  0  0  0  0  0  0  0  0  0
   13.6754  -19.2543   25.5367 C   0  0  0  0  0  0  0  0  0  0  0  0
   14.8178  -19.6567   25.8019 O   0  0  0  0  0  0  0  0  0  0  0  0
   10.6590  -17.0622   27.9072 C   0  0  0  0  0  0  0  0  0  0  0  0
   10.5744  -16.0282   28.6042 O   0  0  0  0  0  0  0  0  0  0  0  0
   13.2366  -19.5030   24.2194 O   0  0  0  0  0  0  0  0  0  0  0  0
   10.6447  -18.2829   28.5668 O   0  0  0  0  0  0  0  0  0  0  0  0
  2  1  1  0
  3  2  2  0
  4  2  1  0
  5  6  1  6
  5  4  1  0
  7  5  1  0
  8  7  2  0
  9 10  1  0
 11 12  1  1
 11 10  1  0
 11 13  1  0
 13 14  1  6
 14  7  1  0
 15 13  1  0
 15 16  2  0
 17 15  1  0
 18 17  1  0
 18 19  1  1
 19 20  1  0
 20 21  1  0
 21 25  1  0
 21 22  2  0
 23 18  1  0
 24 23  2  0
 26 23  1  0
M  END
$$$$
