NIE.pdb
     RDKit          3D

 26 25  0  0  1  0  0  0  0  0999 V2000
    6.8312  -17.2822   18.4357 N   0  0  0  0  0  0  0  0  0  0  0  0
    6.4208  -17.0271   19.7663 C   0  0  0  0  0  0  0  0  0  0  0  0
    5.2394  -17.2588   20.1103 O   0  0  0  0  0  0  0  0  0  0  0  0
    7.3764  -16.4942   20.7343 C   0  0  0  0  0  0  0  0  0  0  0  0
    6.9220  -15.1249   21.1857 C   0  0  2  0  0  0  0  0  0  0  0  0
    6.9762  -14.2274   20.0735 N   0  0  0  0  0  0  0  0  0  0  0  0
    7.8557  -14.7043   22.2851 C   0  0  0  0  0  0  0  0  0  0  0  0
    9.0285  -14.3364   22.0208 O   0  0  0  0  0  0  0  0  0  0  0  0
    5.7281  -11.8981   26.2372 C   0  0  0  0  0  0  0  0  0  0  0  0
    6.7810  -12.3647   25.2513 C   0  0  0  0  0  0  0  0  0  0  0  0
    7.5183  -13.5653   25.7199 C   0  0  2  0  0  0  0  0  0  0  0  0
    8.2230  -13.3306   27.0552 C   0  0  0  0  0  0  0  0  0  0  0  0
    8.3797  -14.2480   24.7081 C   0  0  2  0  0  0  0  0  0  0  0  0
    7.4503  -14.7074   23.6513 N   0  0  0  0  0  0  0  0  0  0  0  0
    9.1712  -15.3845   25.2135 C   0  0  0  0  0  0  0  0  0  0  0  0
    8.5367  -16.4263   25.5819 O   0  0  0  0  0  0  0  0  0  0  0  0
   10.5684  -15.4486   25.3342 N   0  0  0  0  0  0  0  0  0  0  0  0
   11.3155  -16.6942   25.4965 C   0  0  1  0  0  0  0  0  0  0  0  0
   12.6836  -16.5740   24.8853 C   0  0  0  0  0  0  0  0  0  0  0  0
   13.5852  -17.7509   25.0933 C   0  0  0  0  0  0  0  0  0  0  0  0
   14.9429  -17.5521   24.5597 C   0  0  0  0  0  0  0  0  0  0  0  0
   15.6749  -16.6071   24.8895 O   0  0  0  0  0  0  0  0  0  0  0  0
   11.3571  -17.1100   26.9082 C   0  0  0  0  0  0  0  0  0  0  0  0
   11.0995  -16.3523   27.8683 O   0  0  0  0  0  0  0  0  0  0  0  0
   15.4970  -18.4481   23.6217 O   0  0  0  0  0  0  0  0  0  0  0  0
   11.7025  -18.4216   27.2013 O   0  0  0  0  0  0  0  0  0  0  0  0
  2  1  1  0
  3  2  2  0
  4  2  1  0
  5  6  1  6
  5  4  1  0
  7  5  1  0
  8  7  2  0
  9 10  1  0
 11 12  1  1
 11 10  1  0
 11 13  1  0
 13 14  1  6
 14  7  1  0
 15 13  1  0
 15 16  2  0
 17 15  1  0
 18 17  1  0
 18 19  1  1
 19 20  1  0
 20 21  1  0
 21 25  1  0
 21 22  2  0
 23 18  1  0
 24 23  2  0
 26 23  1  0
M  END
$$$$
