NIE.pdb
     RDKit          3D

 26 25  0  0  1  0  0  0  0  0999 V2000
    7.7717  -16.2041   18.3583 N   0  0  0  0  0  0  0  0  0  0  0  0
    6.9509  -16.2699   19.5098 C   0  0  0  0  0  0  0  0  0  0  0  0
    6.0202  -17.1056   19.5659 O   0  0  0  0  0  0  0  0  0  0  0  0
    7.1919  -15.3629   20.6294 C   0  0  0  0  0  0  0  0  0  0  0  0
    7.5385  -16.1680   21.8611 C   0  0  2  0  0  0  0  0  0  0  0  0
    6.3285  -16.6014   22.4885 N   0  0  0  0  0  0  0  0  0  0  0  0
    8.3344  -15.2608   22.7561 C   0  0  0  0  0  0  0  0  0  0  0  0
    9.4089  -14.7478   22.3524 O   0  0  0  0  0  0  0  0  0  0  0  0
    5.6326  -12.0908   26.0854 C   0  0  0  0  0  0  0  0  0  0  0  0
    6.7392  -12.5460   25.1545 C   0  0  0  0  0  0  0  0  0  0  0  0
    7.7613  -13.3789   25.8373 C   0  0  2  0  0  0  0  0  0  0  0  0
    8.4272  -12.6449   27.0004 C   0  0  0  0  0  0  0  0  0  0  0  0
    8.7326  -14.0899   24.9525 C   0  0  2  0  0  0  0  0  0  0  0  0
    7.9050  -14.9530   24.0797 N   0  0  0  0  0  0  0  0  0  0  0  0
    9.7475  -14.9012   25.6490 C   0  0  0  0  0  0  0  0  0  0  0  0
   10.5873  -14.2881   26.3856 O   0  0  0  0  0  0  0  0  0  0  0  0
    9.8929  -16.2963   25.5919 N   0  0  0  0  0  0  0  0  0  0  0  0
   10.9356  -17.0361   26.3001 C   0  0  1  0  0  0  0  0  0  0  0  0
   10.3286  -18.0821   27.1930 C   0  0  0  0  0  0  0  0  0  0  0  0
   11.3065  -18.9257   27.9502 C   0  0  0  0  0  0  0  0  0  0  0  0
   10.6690  -19.9560   28.7867 C   0  0  0  0  0  0  0  0  0  0  0  0
   10.7078  -19.9499   30.0260 O   0  0  0  0  0  0  0  0  0  0  0  0
   11.9243  -17.5926   25.3618 C   0  0  0  0  0  0  0  0  0  0  0  0
   11.6606  -17.9328   24.1883 O   0  0  0  0  0  0  0  0  0  0  0  0
    9.9626  -21.0314   28.2085 O   0  0  0  0  0  0  0  0  0  0  0  0
   13.2319  -17.7533   25.7974 O   0  0  0  0  0  0  0  0  0  0  0  0
  2  1  1  0
  3  2  2  0
  4  2  1  0
  5  6  1  1
  5  4  1  0
  7  5  1  0
  8  7  2  0
  9 10  1  0
 11 12  1  1
 11 10  1  0
 11 13  1  0
 13 14  1  6
 14  7  1  0
 15 13  1  0
 15 16  2  0
 17 15  1  0
 18 17  1  0
 18 19  1  6
 19 20  1  0
 20 21  1  0
 21 25  1  0
 21 22  2  0
 23 18  1  0
 24 23  2  0
 26 23  1  0
M  END
$$$$
