NIE.pdb
     RDKit          3D

 26 25  0  0  1  0  0  0  0  0999 V2000
    7.6292  -12.4562   17.8640 N   0  0  0  0  0  0  0  0  0  0  0  0
    7.3525  -13.4968   18.7829 C   0  0  0  0  0  0  0  0  0  0  0  0
    7.0200  -14.6285   18.3627 O   0  0  0  0  0  0  0  0  0  0  0  0
    7.4558  -13.2479   20.2188 C   0  0  0  0  0  0  0  0  0  0  0  0
    8.1845  -14.3979   20.8758 C   0  0  2  0  0  0  0  0  0  0  0  0
    7.3678  -15.5696   20.7998 N   0  0  0  0  0  0  0  0  0  0  0  0
    8.4372  -13.9881   22.2990 C   0  0  0  0  0  0  0  0  0  0  0  0
    8.3321  -12.7839   22.6449 O   0  0  0  0  0  0  0  0  0  0  0  0
    6.4793  -12.4677   26.7703 C   0  0  0  0  0  0  0  0  0  0  0  0
    7.7759  -13.1847   26.4496 C   0  0  0  0  0  0  0  0  0  0  0  0
    7.7932  -13.7613   25.0814 C   0  0  2  0  0  0  0  0  0  0  0  0
    6.5047  -14.5135   24.7511 C   0  0  0  0  0  0  0  0  0  0  0  0
    9.0290  -14.5059   24.6939 C   0  0  2  0  0  0  0  0  0  0  0  0
    8.8011  -14.9386   23.2966 N   0  0  0  0  0  0  0  0  0  0  0  0
    9.3572  -15.6706   25.5361 C   0  0  0  0  0  0  0  0  0  0  0  0
    8.4234  -16.5026   25.7800 O   0  0  0  0  0  0  0  0  0  0  0  0
   10.6041  -15.9709   26.1068 N   0  0  0  0  0  0  0  0  0  0  0  0
   10.9928  -17.3055   26.5584 C   0  0  1  0  0  0  0  0  0  0  0  0
   12.3697  -17.6512   26.0638 C   0  0  0  0  0  0  0  0  0  0  0  0
   12.7132  -17.1283   24.7037 C   0  0  0  0  0  0  0  0  0  0  0  0
   14.1585  -17.1272   24.4228 C   0  0  0  0  0  0  0  0  0  0  0  0
   14.8781  -16.1254   24.5494 O   0  0  0  0  0  0  0  0  0  0  0  0
   10.8645  -17.4314   28.0197 C   0  0  0  0  0  0  0  0  0  0  0  0
   10.5070  -16.5005   28.7731 O   0  0  0  0  0  0  0  0  0  0  0  0
   14.8177  -18.2945   23.9840 O   0  0  0  0  0  0  0  0  0  0  0  0
   11.1561  -18.6547   28.6060 O   0  0  0  0  0  0  0  0  0  0  0  0
  2  1  1  0
  3  2  2  0
  4  2  1  0
  5  6  1  1
  5  4  1  0
  7  5  1  0
  8  7  2  0
  9 10  1  0
 11 12  1  1
 11 10  1  0
 11 13  1  0
 13 14  1  6
 14  7  1  0
 15 13  1  0
 15 16  2  0
 17 15  1  0
 18 17  1  0
 18 19  1  1
 19 20  1  0
 20 21  1  0
 21 25  1  0
 21 22  2  0
 23 18  1  0
 24 23  2  0
 26 23  1  0
M  END
$$$$
