NIE.pdb
     RDKit          3D

 26 25  0  0  1  0  0  0  0  0999 V2000
    7.0800  -18.4892   19.0884 N   0  0  0  0  0  0  0  0  0  0  0  0
    6.6056  -17.4831   19.9640 C   0  0  0  0  0  0  0  0  0  0  0  0
    5.4624  -16.9998   19.7983 O   0  0  0  0  0  0  0  0  0  0  0  0
    7.4506  -17.0114   21.0584 C   0  0  0  0  0  0  0  0  0  0  0  0
    7.2259  -15.5306   21.2628 C   0  0  2  0  0  0  0  0  0  0  0  0
    7.6420  -14.8308   20.0869 N   0  0  0  0  0  0  0  0  0  0  0  0
    8.0400  -15.1351   22.4621 C   0  0  0  0  0  0  0  0  0  0  0  0
    9.2954  -15.1055   22.3999 O   0  0  0  0  0  0  0  0  0  0  0  0
    5.8551  -11.5136   25.7511 C   0  0  0  0  0  0  0  0  0  0  0  0
    6.8864  -12.2808   24.9475 C   0  0  0  0  0  0  0  0  0  0  0  0
    7.4078  -13.4715   25.6652 C   0  0  2  0  0  0  0  0  0  0  0  0
    8.0149  -13.1136   27.0210 C   0  0  0  0  0  0  0  0  0  0  0  0
    8.2555  -14.4062   24.8654 C   0  0  2  0  0  0  0  0  0  0  0  0
    7.4256  -14.7835   23.6989 N   0  0  0  0  0  0  0  0  0  0  0  0
    8.7081  -15.6162   25.5758 C   0  0  0  0  0  0  0  0  0  0  0  0
    7.8158  -16.4365   25.9688 O   0  0  0  0  0  0  0  0  0  0  0  0
   10.0337  -15.9718   25.8703 N   0  0  0  0  0  0  0  0  0  0  0  0
   10.4263  -17.2683   26.4192 C   0  0  1  0  0  0  0  0  0  0  0  0
   11.7215  -17.7297   25.8117 C   0  0  0  0  0  0  0  0  0  0  0  0
   12.3099  -18.9661   26.4170 C   0  0  0  0  0  0  0  0  0  0  0  0
   13.5738  -19.3838   25.7878 C   0  0  0  0  0  0  0  0  0  0  0  0
   14.2132  -20.3862   26.1394 O   0  0  0  0  0  0  0  0  0  0  0  0
   10.4684  -17.2327   27.8905 C   0  0  0  0  0  0  0  0  0  0  0  0
   10.3963  -18.2472   28.6170 O   0  0  0  0  0  0  0  0  0  0  0  0
   14.1384  -18.6476   24.7253 O   0  0  0  0  0  0  0  0  0  0  0  0
   10.5956  -16.0020   28.5187 O   0  0  0  0  0  0  0  0  0  0  0  0
  2  1  1  0
  3  2  2  0
  4  2  1  0
  5  6  1  6
  5  4  1  0
  7  5  1  0
  8  7  2  0
  9 10  1  0
 11 12  1  1
 11 10  1  0
 11 13  1  0
 13 14  1  6
 14  7  1  0
 15 13  1  0
 15 16  2  0
 17 15  1  0
 18 17  1  0
 18 19  1  6
 19 20  1  0
 20 21  1  0
 21 25  1  0
 21 22  2  0
 23 18  1  0
 24 23  2  0
 26 23  1  0
M  END
$$$$
