FVM.pdb
     RDKit          3D

 27 27  0  0  1  0  0  0  0  0999 V2000
   22.2301  -20.2212  -17.7808 N   0  0  0  0  0  0  0  0  0  0  0  0
   22.7657  -19.2382  -16.8612 C   0  0  1  0  0  0  0  0  0  0  0  0
   21.6231  -18.8060  -15.9504 C   0  0  0  0  0  0  0  0  0  0  0  0
   20.7137  -17.8614  -16.6433 C   0  0  0  0  0  0  0  0  0  0  0  0
   19.4063  -18.2248  -16.8962 C   0  0  0  0  0  0  0  0  0  0  0  0
   18.5107  -17.4019  -17.5333 C   0  0  0  0  0  0  0  0  0  0  0  0
   18.9374  -16.1523  -17.9403 C   0  0  0  0  0  0  0  0  0  0  0  0
   20.2383  -15.7611  -17.7015 C   0  0  0  0  0  0  0  0  0  0  0  0
   21.1131  -16.6102  -17.0595 C   0  0  0  0  0  0  0  0  0  0  0  0
   23.8449  -19.9022  -16.0773 C   0  0  0  0  0  0  0  0  0  0  0  0
   23.7719  -21.1152  -15.7306 O   0  0  0  0  0  0  0  0  0  0  0  0
   28.4022  -20.3546  -14.4839 C   0  0  0  0  0  0  0  0  0  0  0  0
   27.4396  -19.5876  -15.3620 C   0  0  2  0  0  0  0  0  0  0  0  0
   27.7986  -18.1217  -15.2220 C   0  0  0  0  0  0  0  0  0  0  0  0
   26.0614  -19.8915  -14.9309 C   0  0  2  0  0  0  0  0  0  0  0  0
   25.0211  -19.2263  -15.6674 N   0  0  0  0  0  0  0  0  0  0  0  0
   25.9186  -19.5574  -13.4805 C   0  0  0  0  0  0  0  0  0  0  0  0
   25.7169  -18.4004  -13.0396 O   0  0  0  0  0  0  0  0  0  0  0  0
   20.2386  -19.6611   -9.2229 C   0  0  0  0  0  0  0  0  0  0  0  0
   21.3198  -20.0517  -10.5647 S   0  0  0  0  0  0  0  0  0  0  0  0
   23.0565  -20.2184  -10.2096 C   0  0  0  0  0  0  0  0  0  0  0  0
   23.9211  -20.3707  -11.4226 C   0  0  0  0  0  0  0  0  0  0  0  0
   25.3852  -20.4503  -11.1889 C   0  0  2  0  0  0  0  0  0  0  0  0
   26.0117  -20.5932  -12.5035 N   0  0  0  0  0  0  0  0  0  0  0  0
   25.7700  -21.6172  -10.3432 C   0  0  0  0  0  0  0  0  0  0  0  0
   25.9728  -22.8347  -10.9247 O   0  0  0  0  0  0  0  0  0  0  0  0
   25.9176  -21.5131   -9.0922 O   0  0  0  0  0  0  0  0  0  0  0  0
  2  1  1  6
  3  2  1  0
  4  5  2  0
  4  3  1  0
  6  5  1  0
  7  6  2  0
  8  7  1  0
  8  9  2  0
  9  4  1  0
 10 11  2  0
 10  2  1  0
 13 15  1  0
 13 12  1  1
 14 13  1  0
 15 16  1  6
 16 10  1  0
 17 15  1  0
 18 17  2  0
 19 20  1  0
 20 21  1  0
 23 22  1  6
 22 21  1  0
 23 24  1  0
 24 17  1  0
 25 26  1  0
 25 23  1  0
 27 25  2  0
M  END
$$$$
