FVM.pdb
     RDKit          3D

 27 27  0  0  1  0  0  0  0  0999 V2000
   26.9119  -18.6324  -16.2174 N   0  0  0  0  0  0  0  0  0  0  0  0
   26.1815  -18.3237  -15.0049 C   0  0  1  0  0  0  0  0  0  0  0  0
   25.0759  -17.3459  -15.3834 C   0  0  0  0  0  0  0  0  0  0  0  0
   25.6385  -16.0564  -15.8523 C   0  0  0  0  0  0  0  0  0  0  0  0
   26.2699  -15.2151  -14.9586 C   0  0  0  0  0  0  0  0  0  0  0  0
   26.8122  -14.0074  -15.3226 C   0  0  0  0  0  0  0  0  0  0  0  0
   26.7219  -13.6157  -16.6446 C   0  0  0  0  0  0  0  0  0  0  0  0
   26.0967  -14.4354  -17.5609 C   0  0  0  0  0  0  0  0  0  0  0  0
   25.5624  -15.6417  -17.1639 C   0  0  0  0  0  0  0  0  0  0  0  0
   25.6070  -19.5997  -14.4934 C   0  0  0  0  0  0  0  0  0  0  0  0
   25.4504  -20.6097  -15.2365 O   0  0  0  0  0  0  0  0  0  0  0  0
   25.0874  -20.5939  -10.3243 C   0  0  0  0  0  0  0  0  0  0  0  0
   25.2750  -21.5692  -11.4642 C   0  0  2  0  0  0  0  0  0  0  0  0
   26.7686  -21.7784  -11.6150 C   0  0  0  0  0  0  0  0  0  0  0  0
   24.6422  -21.0096  -12.6742 C   0  0  2  0  0  0  0  0  0  0  0  0
   25.1978  -19.7707  -13.1473 N   0  0  0  0  0  0  0  0  0  0  0  0
   23.1814  -20.8194  -12.4180 C   0  0  0  0  0  0  0  0  0  0  0  0
   22.7063  -19.9346  -11.6664 O   0  0  0  0  0  0  0  0  0  0  0  0
   19.1509  -19.2867  -16.6914 C   0  0  0  0  0  0  0  0  0  0  0  0
   18.0906  -20.2754  -15.6814 S   0  0  0  0  0  0  0  0  0  0  0  0
   18.7279  -20.8471  -14.1203 C   0  0  0  0  0  0  0  0  0  0  0  0
   20.2076  -21.0759  -14.1060 C   0  0  0  0  0  0  0  0  0  0  0  0
   20.7983  -21.5218  -12.8189 C   0  0  2  0  0  0  0  0  0  0  0  0
   22.2345  -21.6798  -13.0500 N   0  0  0  0  0  0  0  0  0  0  0  0
   20.2404  -22.8234  -12.3504 C   0  0  0  0  0  0  0  0  0  0  0  0
   19.0841  -22.8408  -11.6265 O   0  0  0  0  0  0  0  0  0  0  0  0
   20.8094  -23.9227  -12.6065 O   0  0  0  0  0  0  0  0  0  0  0  0
  2  1  1  6
  3  2  1  0
  4  5  2  0
  4  3  1  0
  6  5  1  0
  7  6  2  0
  8  7  1  0
  8  9  2  0
  9  4  1  0
 10 11  2  0
 10  2  1  0
 13 15  1  0
 13 12  1  1
 14 13  1  0
 15 16  1  1
 16 10  1  0
 17 15  1  0
 18 17  2  0
 19 20  1  0
 20 21  1  0
 23 22  1  6
 22 21  1  0
 23 24  1  0
 24 17  1  0
 25 26  1  0
 25 23  1  0
 27 25  2  0
M  END
$$$$
