FVM.pdb
     RDKit          3D

 27 27  0  0  1  0  0  0  0  0999 V2000
   27.5645  -18.4917   -8.3490 N   0  0  0  0  0  0  0  0  0  0  0  0
   27.1242  -19.8696   -8.4287 C   0  0  1  0  0  0  0  0  0  0  0  0
   26.6140  -20.2587   -7.0467 C   0  0  0  0  0  0  0  0  0  0  0  0
   27.6858  -20.1439   -6.0281 C   0  0  0  0  0  0  0  0  0  0  0  0
   27.6429  -19.1275   -5.0951 C   0  0  0  0  0  0  0  0  0  0  0  0
   28.6005  -18.9608   -4.1254 C   0  0  0  0  0  0  0  0  0  0  0  0
   29.6562  -19.8513   -4.0811 C   0  0  0  0  0  0  0  0  0  0  0  0
   29.7261  -20.8772   -5.0003 C   0  0  0  0  0  0  0  0  0  0  0  0
   28.7489  -21.0176   -5.9614 C   0  0  0  0  0  0  0  0  0  0  0  0
   26.0261  -19.9294   -9.4341 C   0  0  0  0  0  0  0  0  0  0  0  0
   25.0851  -19.0862   -9.4495 O   0  0  0  0  0  0  0  0  0  0  0  0
   26.4272  -22.3697  -12.9883 C   0  0  0  0  0  0  0  0  0  0  0  0
   26.0035  -20.9211  -12.9009 C   0  0  2  0  0  0  0  0  0  0  0  0
   27.2730  -20.0942  -12.9455 C   0  0  0  0  0  0  0  0  0  0  0  0
   25.2290  -20.7291  -11.6595 C   0  0  2  0  0  0  0  0  0  0  0  0
   25.9588  -20.9285  -10.4370 N   0  0  0  0  0  0  0  0  0  0  0  0
   24.0477  -21.6456  -11.6742 C   0  0  0  0  0  0  0  0  0  0  0  0
   24.1107  -22.8810  -11.4662 O   0  0  0  0  0  0  0  0  0  0  0  0
   17.3870  -23.3258   -8.5544 C   0  0  0  0  0  0  0  0  0  0  0  0
   18.8540  -22.4017   -8.8950 S   0  0  0  0  0  0  0  0  0  0  0  0
   19.6098  -22.6044  -10.4942 C   0  0  0  0  0  0  0  0  0  0  0  0
   20.8633  -21.8086  -10.6881 C   0  0  0  0  0  0  0  0  0  0  0  0
   21.5738  -21.9923  -11.9788 C   0  0  2  0  0  0  0  0  0  0  0  0
   22.7477  -21.1198  -11.9383 N   0  0  0  0  0  0  0  0  0  0  0  0
   20.7362  -21.6176  -13.1547 C   0  0  0  0  0  0  0  0  0  0  0  0
   19.9794  -22.5685  -13.7749 O   0  0  0  0  0  0  0  0  0  0  0  0
   20.7032  -20.4347  -13.5991 O   0  0  0  0  0  0  0  0  0  0  0  0
  2  1  1  1
  3  2  1  0
  4  5  2  0
  4  3  1  0
  6  5  1  0
  7  6  2  0
  8  7  1  0
  8  9  2  0
  9  4  1  0
 10 11  2  0
 10  2  1  0
 13 15  1  0
 13 12  1  1
 14 13  1  0
 15 16  1  1
 16 10  1  0
 17 15  1  0
 18 17  2  0
 19 20  1  0
 20 21  1  0
 23 22  1  1
 22 21  1  0
 23 24  1  0
 24 17  1  0
 25 26  1  0
 25 23  1  0
 27 25  2  0
M  END
$$$$
