FVM.pdb
     RDKit          3D

 27 27  0  0  1  0  0  0  0  0999 V2000
   25.9280  -22.7628  -17.7149 N   0  0  0  0  0  0  0  0  0  0  0  0
   25.1272  -22.1914  -16.6513 C   0  0  1  0  0  0  0  0  0  0  0  0
   24.0085  -23.1811  -16.3503 C   0  0  0  0  0  0  0  0  0  0  0  0
   22.9088  -23.0634  -17.3384 C   0  0  0  0  0  0  0  0  0  0  0  0
   22.7267  -24.0499  -18.2865 C   0  0  0  0  0  0  0  0  0  0  0  0
   21.7312  -24.0055  -19.2310 C   0  0  0  0  0  0  0  0  0  0  0  0
   20.8717  -22.9235  -19.2329 C   0  0  0  0  0  0  0  0  0  0  0  0
   21.0289  -21.9220  -18.2976 C   0  0  0  0  0  0  0  0  0  0  0  0
   22.0381  -21.9960  -17.3626 C   0  0  0  0  0  0  0  0  0  0  0  0
   26.0152  -22.0206  -15.4671 C   0  0  0  0  0  0  0  0  0  0  0  0
   26.9795  -22.8033  -15.2342 O   0  0  0  0  0  0  0  0  0  0  0  0
   26.3212  -18.4184  -13.2866 C   0  0  0  0  0  0  0  0  0  0  0  0
   27.3881  -19.4894  -13.3100 C   0  0  2  0  0  0  0  0  0  0  0  0
   28.2862  -19.1813  -14.4915 C   0  0  0  0  0  0  0  0  0  0  0  0
   26.7325  -20.8079  -13.4074 C   0  0  2  0  0  0  0  0  0  0  0  0
   25.8431  -20.9764  -14.5244 N   0  0  0  0  0  0  0  0  0  0  0  0
   25.9793  -21.0733  -12.1434 C   0  0  0  0  0  0  0  0  0  0  0  0
   24.7279  -21.0946  -12.0590 O   0  0  0  0  0  0  0  0  0  0  0  0
   27.4042  -19.4982   -4.5157 C   0  0  0  0  0  0  0  0  0  0  0  0
   27.8210  -19.7331   -6.2167 S   0  0  0  0  0  0  0  0  0  0  0  0
   26.5670  -20.3923   -7.2949 C   0  0  0  0  0  0  0  0  0  0  0  0
   27.0444  -20.6958   -8.6813 C   0  0  0  0  0  0  0  0  0  0  0  0
   26.0327  -21.2227   -9.6318 C   0  0  2  0  0  0  0  0  0  0  0  0
   26.6935  -21.3228  -10.9334 N   0  0  0  0  0  0  0  0  0  0  0  0
   24.8458  -20.3289   -9.7623 C   0  0  0  0  0  0  0  0  0  0  0  0
   24.9674  -19.1358  -10.4128 O   0  0  0  0  0  0  0  0  0  0  0  0
   23.7184  -20.6451   -9.2861 O   0  0  0  0  0  0  0  0  0  0  0  0
  2  1  1  6
  3  2  1  0
  4  5  2  0
  4  3  1  0
  6  5  1  0
  7  6  2  0
  8  7  1  0
  8  9  2  0
  9  4  1  0
 10 11  2  0
 10  2  1  0
 13 15  1  0
 13 12  1  6
 14 13  1  0
 15 16  1  6
 16 10  1  0
 17 15  1  0
 18 17  2  0
 19 20  1  0
 20 21  1  0
 23 22  1  1
 22 21  1  0
 23 24  1  0
 24 17  1  0
 25 26  1  0
 25 23  1  0
 27 25  2  0
M  END
$$$$
