FVM.pdb
     RDKit          3D

 27 27  0  0  1  0  0  0  0  0999 V2000
   22.8680  -20.0554  -17.9677 N   0  0  0  0  0  0  0  0  0  0  0  0
   23.1695  -19.2144  -16.8272 C   0  0  1  0  0  0  0  0  0  0  0  0
   21.8808  -19.0619  -16.0286 C   0  0  0  0  0  0  0  0  0  0  0  0
   20.9164  -18.1809  -16.7309 C   0  0  0  0  0  0  0  0  0  0  0  0
   19.8523  -18.7326  -17.4155 C   0  0  0  0  0  0  0  0  0  0  0  0
   18.9229  -17.9780  -18.0879 C   0  0  0  0  0  0  0  0  0  0  0  0
   19.0587  -16.6030  -18.0792 C   0  0  0  0  0  0  0  0  0  0  0  0
   20.1120  -16.0228  -17.4036 C   0  0  0  0  0  0  0  0  0  0  0  0
   21.0282  -16.8078  -16.7382 C   0  0  0  0  0  0  0  0  0  0  0  0
   24.2114  -19.9117  -16.0220 C   0  0  0  0  0  0  0  0  0  0  0  0
   24.1848  -21.1602  -15.8288 O   0  0  0  0  0  0  0  0  0  0  0  0
   28.0349  -18.2852  -14.9945 C   0  0  0  0  0  0  0  0  0  0  0  0
   27.6782  -19.7532  -15.0535 C   0  0  2  0  0  0  0  0  0  0  0  0
   27.9182  -20.2011  -16.4815 C   0  0  0  0  0  0  0  0  0  0  0  0
   26.2768  -19.9171  -14.6214 C   0  0  2  0  0  0  0  0  0  0  0  0
   25.2981  -19.2300  -15.4197 N   0  0  0  0  0  0  0  0  0  0  0  0
   26.1475  -19.4665  -13.2016 C   0  0  0  0  0  0  0  0  0  0  0  0
   25.8568  -18.2960  -12.8566 O   0  0  0  0  0  0  0  0  0  0  0  0
   21.1769  -19.2109  -11.5802 C   0  0  0  0  0  0  0  0  0  0  0  0
   21.7339  -19.8896  -10.0469 S   0  0  0  0  0  0  0  0  0  0  0  0
   23.4894  -19.9550   -9.7573 C   0  0  0  0  0  0  0  0  0  0  0  0
   24.3133  -20.0995  -10.9993 C   0  0  0  0  0  0  0  0  0  0  0  0
   25.7845  -20.1777  -10.8151 C   0  0  2  0  0  0  0  0  0  0  0  0
   26.3613  -20.3976  -12.1417 N   0  0  0  0  0  0  0  0  0  0  0  0
   26.1933  -21.2993   -9.9208 C   0  0  0  0  0  0  0  0  0  0  0  0
   26.2783  -21.0929   -8.5748 O   0  0  0  0  0  0  0  0  0  0  0  0
   26.4648  -22.4476  -10.3742 O   0  0  0  0  0  0  0  0  0  0  0  0
  2  1  1  6
  3  2  1  0
  4  5  2  0
  4  3  1  0
  6  5  1  0
  7  6  2  0
  8  7  1  0
  8  9  2  0
  9  4  1  0
 10 11  2  0
 10  2  1  0
 13 15  1  0
 13 12  1  6
 14 13  1  0
 15 16  1  6
 16 10  1  0
 17 15  1  0
 18 17  2  0
 19 20  1  0
 20 21  1  0
 23 22  1  6
 22 21  1  0
 23 24  1  0
 24 17  1  0
 25 26  1  0
 25 23  1  0
 27 25  2  0
M  END
$$$$
