FVM.pdb
     RDKit          3D

 27 27  0  0  1  0  0  0  0  0999 V2000
   23.0193  -17.5251  -18.5668 N   0  0  0  0  0  0  0  0  0  0  0  0
   23.2724  -17.1522  -17.1900 C   0  0  1  0  0  0  0  0  0  0  0  0
   21.9175  -17.0026  -16.5090 C   0  0  0  0  0  0  0  0  0  0  0  0
   21.1785  -15.8306  -17.0380 C   0  0  0  0  0  0  0  0  0  0  0  0
   20.0085  -16.0169  -17.7463 C   0  0  0  0  0  0  0  0  0  0  0  0
   19.2744  -14.9791  -18.2650 C   0  0  0  0  0  0  0  0  0  0  0  0
   19.7272  -13.6884  -18.0691 C   0  0  0  0  0  0  0  0  0  0  0  0
   20.8933  -13.4709  -17.3652 C   0  0  0  0  0  0  0  0  0  0  0  0
   21.6074  -14.5340  -16.8572 C   0  0  0  0  0  0  0  0  0  0  0  0
   24.0588  -18.2536  -16.5669 C   0  0  0  0  0  0  0  0  0  0  0  0
   23.7208  -19.4659  -16.6808 O   0  0  0  0  0  0  0  0  0  0  0  0
   28.1198  -17.8506  -15.3235 C   0  0  0  0  0  0  0  0  0  0  0  0
   27.4389  -19.1207  -15.7804 C   0  0  2  0  0  0  0  0  0  0  0  0
   27.5594  -19.1585  -17.2908 C   0  0  0  0  0  0  0  0  0  0  0  0
   26.0403  -19.1031  -15.3099 C   0  0  2  0  0  0  0  0  0  0  0  0
   25.2330  -18.0224  -15.8076 N   0  0  0  0  0  0  0  0  0  0  0  0
   26.0283  -19.0689  -13.8152 C   0  0  0  0  0  0  0  0  0  0  0  0
   25.6641  -18.0799  -13.1350 O   0  0  0  0  0  0  0  0  0  0  0  0
   21.6076  -20.2285  -11.0748 C   0  0  0  0  0  0  0  0  0  0  0  0
   22.6567  -20.0269   -9.6674 S   0  0  0  0  0  0  0  0  0  0  0  0
   24.4148  -20.1530   -9.9182 C   0  0  0  0  0  0  0  0  0  0  0  0
   24.8358  -20.1204  -11.3548 C   0  0  0  0  0  0  0  0  0  0  0  0
   26.2865  -20.2825  -11.6257 C   0  0  2  0  0  0  0  0  0  0  0  0
   26.4512  -20.2152  -13.0780 N   0  0  0  0  0  0  0  0  0  0  0  0
   26.8197  -21.5885  -11.1410 C   0  0  0  0  0  0  0  0  0  0  0  0
   27.3047  -21.6898   -9.8698 O   0  0  0  0  0  0  0  0  0  0  0  0
   26.8353  -22.6160  -11.8772 O   0  0  0  0  0  0  0  0  0  0  0  0
  2  1  1  6
  3  2  1  0
  4  5  2  0
  4  3  1  0
  6  5  1  0
  7  6  2  0
  8  7  1  0
  8  9  2  0
  9  4  1  0
 10 11  2  0
 10  2  1  0
 13 15  1  0
 13 12  1  6
 14 13  1  0
 15 16  1  6
 16 10  1  0
 17 15  1  0
 18 17  2  0
 19 20  1  0
 20 21  1  0
 23 22  1  6
 22 21  1  0
 23 24  1  0
 24 17  1  0
 25 26  1  0
 25 23  1  0
 27 25  2  0
M  END
$$$$
