FVM.pdb
     RDKit          3D

 27 27  0  0  1  0  0  0  0  0999 V2000
   16.3530  -24.8357   -3.5552 N   0  0  0  0  0  0  0  0  0  0  0  0
   16.5275  -25.4038   -2.2339 C   0  0  1  0  0  0  0  0  0  0  0  0
   15.1468  -25.8107   -1.7341 C   0  0  0  0  0  0  0  0  0  0  0  0
   14.3933  -24.6380   -1.2276 C   0  0  0  0  0  0  0  0  0  0  0  0
   13.4923  -23.9914   -2.0493 C   0  0  0  0  0  0  0  0  0  0  0  0
   12.7621  -22.9003   -1.6472 C   0  0  0  0  0  0  0  0  0  0  0  0
   12.9371  -22.4275   -0.3607 C   0  0  0  0  0  0  0  0  0  0  0  0
   13.8305  -23.0531    0.4836 C   0  0  0  0  0  0  0  0  0  0  0  0
   14.5484  -24.1462    0.0499 C   0  0  0  0  0  0  0  0  0  0  0  0
   17.4117  -26.5949   -2.3739 C   0  0  0  0  0  0  0  0  0  0  0  0
   17.5575  -27.1954   -3.4761 O   0  0  0  0  0  0  0  0  0  0  0  0
   20.5434  -27.3129    0.2225 C   0  0  0  0  0  0  0  0  0  0  0  0
   20.4706  -27.9429   -1.1499 C   0  0  2  0  0  0  0  0  0  0  0  0
   21.1037  -26.9587   -2.1132 C   0  0  0  0  0  0  0  0  0  0  0  0
   19.0580  -28.2339   -1.4623 C   0  0  2  0  0  0  0  0  0  0  0  0
   18.1464  -27.1356   -1.2892 N   0  0  0  0  0  0  0  0  0  0  0  0
   18.5987  -29.3824   -0.6223 C   0  0  0  0  0  0  0  0  0  0  0  0
   17.5104  -29.4098    0.0010 O   0  0  0  0  0  0  0  0  0  0  0  0
   14.1213  -32.5606   -0.4704 C   0  0  0  0  0  0  0  0  0  0  0  0
   15.4412  -33.7343   -0.5200 S   0  0  0  0  0  0  0  0  0  0  0  0
   16.9759  -33.2911    0.2662 C   0  0  0  0  0  0  0  0  0  0  0  0
   17.6406  -32.0833   -0.3181 C   0  0  0  0  0  0  0  0  0  0  0  0
   18.9648  -31.7165    0.2443 C   0  0  2  0  0  0  0  0  0  0  0  0
   19.4228  -30.5404   -0.4959 N   0  0  0  0  0  0  0  0  0  0  0  0
   19.9750  -32.8035    0.0932 C   0  0  0  0  0  0  0  0  0  0  0  0
   20.4294  -33.4613    1.1989 O   0  0  0  0  0  0  0  0  0  0  0  0
   20.4272  -33.1399   -1.0382 O   0  0  0  0  0  0  0  0  0  0  0  0
  2  1  1  6
  3  2  1  0
  4  5  2  0
  4  3  1  0
  6  5  1  0
  7  6  2  0
  8  7  1  0
  8  9  2  0
  9  4  1  0
 10 11  2  0
 10  2  1  0
 13 15  1  0
 13 12  1  1
 14 13  1  0
 15 16  1  1
 16 10  1  0
 17 15  1  0
 18 17  2  0
 19 20  1  0
 20 21  1  0
 23 22  1  6
 22 21  1  0
 23 24  1  0
 24 17  1  0
 25 26  1  0
 25 23  1  0
 27 25  2  0
M  END
$$$$
