FVM.pdb
     RDKit          3D

 27 27  0  0  1  0  0  0  0  0999 V2000
   22.2761  -21.1622  -15.0724 N   0  0  0  0  0  0  0  0  0  0  0  0
   22.6493  -20.4677  -13.8570 C   0  0  1  0  0  0  0  0  0  0  0  0
   21.5002  -20.6389  -12.8711 C   0  0  0  0  0  0  0  0  0  0  0  0
   20.2702  -19.9705  -13.3607 C   0  0  0  0  0  0  0  0  0  0  0  0
   19.1373  -20.7161  -13.6178 C   0  0  0  0  0  0  0  0  0  0  0  0
   17.9655  -20.1642  -14.0732 C   0  0  0  0  0  0  0  0  0  0  0  0
   17.9176  -18.7995  -14.2841 C   0  0  0  0  0  0  0  0  0  0  0  0
   19.0339  -18.0283  -14.0360 C   0  0  0  0  0  0  0  0  0  0  0  0
   20.1951  -18.6124  -13.5793 C   0  0  0  0  0  0  0  0  0  0  0  0
   23.8903  -21.1097  -13.3396 C   0  0  0  0  0  0  0  0  0  0  0  0
   24.0123  -22.3649  -13.2599 O   0  0  0  0  0  0  0  0  0  0  0  0
   27.6193  -19.2655  -13.6338 C   0  0  0  0  0  0  0  0  0  0  0  0
   27.3568  -20.7526  -13.5612 C   0  0  2  0  0  0  0  0  0  0  0  0
   27.0145  -21.2020  -14.9677 C   0  0  0  0  0  0  0  0  0  0  0  0
   26.2690  -20.9941  -12.5937 C   0  0  2  0  0  0  0  0  0  0  0  0
   25.0140  -20.3645  -12.9029 N   0  0  0  0  0  0  0  0  0  0  0  0
   26.7139  -20.5488  -11.2375 C   0  0  0  0  0  0  0  0  0  0  0  0
   26.1437  -19.6559  -10.5658 O   0  0  0  0  0  0  0  0  0  0  0  0
   27.8456  -17.8386   -6.9359 C   0  0  0  0  0  0  0  0  0  0  0  0
   27.1225  -19.2773   -6.2081 S   0  0  0  0  0  0  0  0  0  0  0  0
   27.5418  -20.8604   -6.9065 C   0  0  0  0  0  0  0  0  0  0  0  0
   27.2201  -20.9956   -8.3627 C   0  0  0  0  0  0  0  0  0  0  0  0
   28.3278  -20.7299   -9.3150 C   0  0  2  0  0  0  0  0  0  0  0  0
   27.8566  -21.1538  -10.6338 N   0  0  0  0  0  0  0  0  0  0  0  0
   29.5681  -21.4880   -8.9807 C   0  0  0  0  0  0  0  0  0  0  0  0
   29.9920  -22.4873   -9.8073 O   0  0  0  0  0  0  0  0  0  0  0  0
   30.2473  -21.2309   -7.9462 O   0  0  0  0  0  0  0  0  0  0  0  0
  2  1  1  6
  3  2  1  0
  4  5  2  0
  4  3  1  0
  6  5  1  0
  7  6  2  0
  8  7  1  0
  8  9  2  0
  9  4  1  0
 10 11  2  0
 10  2  1  0
 13 15  1  0
 13 12  1  6
 14 13  1  0
 15 16  1  6
 16 10  1  0
 17 15  1  0
 18 17  2  0
 19 20  1  0
 20 21  1  0
 23 22  1  1
 22 21  1  0
 23 24  1  0
 24 17  1  0
 25 26  1  0
 25 23  1  0
 27 25  2  0
M  END
$$$$
