FVM.pdb
     RDKit          3D

 27 27  0  0  1  0  0  0  0  0999 V2000
   25.5478  -20.3542  -18.9789 N   0  0  0  0  0  0  0  0  0  0  0  0
   25.2230  -19.4646  -17.8827 C   0  0  1  0  0  0  0  0  0  0  0  0
   23.7806  -19.0153  -18.0813 C   0  0  0  0  0  0  0  0  0  0  0  0
   23.6730  -18.0327  -19.1869 C   0  0  0  0  0  0  0  0  0  0  0  0
   22.8866  -18.3157  -20.2854 C   0  0  0  0  0  0  0  0  0  0  0  0
   22.7420  -17.4538  -21.3444 C   0  0  0  0  0  0  0  0  0  0  0  0
   23.4147  -16.2474  -21.3093 C   0  0  0  0  0  0  0  0  0  0  0  0
   24.2081  -15.9366  -20.2247 C   0  0  0  0  0  0  0  0  0  0  0  0
   24.3326  -16.8231  -19.1774 C   0  0  0  0  0  0  0  0  0  0  0  0
   25.3656  -20.2424  -16.6198 C   0  0  0  0  0  0  0  0  0  0  0  0
   24.8930  -21.4075  -16.4935 O   0  0  0  0  0  0  0  0  0  0  0  0
   28.4937  -20.9574  -14.4401 C   0  0  0  0  0  0  0  0  0  0  0  0
   27.4120  -20.3972  -13.5447 C   0  0  2  0  0  0  0  0  0  0  0  0
   27.4445  -21.2089  -12.2650 C   0  0  0  0  0  0  0  0  0  0  0  0
   26.1204  -20.4822  -14.2533 C   0  0  2  0  0  0  0  0  0  0  0  0
   26.0359  -19.7351  -15.4788 N   0  0  0  0  0  0  0  0  0  0  0  0
   25.0291  -20.0330  -13.3352 C   0  0  0  0  0  0  0  0  0  0  0  0
   24.7928  -18.8336  -13.0540 O   0  0  0  0  0  0  0  0  0  0  0  0
   18.6818  -21.9431  -13.4700 C   0  0  0  0  0  0  0  0  0  0  0  0
   19.2782  -22.1037  -11.8146 S   0  0  0  0  0  0  0  0  0  0  0  0
   20.6845  -21.1203  -11.3401 C   0  0  0  0  0  0  0  0  0  0  0  0
   21.9077  -21.3536  -12.1717 C   0  0  0  0  0  0  0  0  0  0  0  0
   23.1260  -20.5967  -11.7880 C   0  0  2  0  0  0  0  0  0  0  0  0
   24.1801  -21.0004  -12.7190 N   0  0  0  0  0  0  0  0  0  0  0  0
   23.5734  -20.8939  -10.3965 C   0  0  0  0  0  0  0  0  0  0  0  0
   23.1050  -20.1389   -9.3610 O   0  0  0  0  0  0  0  0  0  0  0  0
   24.3796  -21.8337  -10.1426 O   0  0  0  0  0  0  0  0  0  0  0  0
  2  1  1  6
  3  2  1  0
  4  5  2  0
  4  3  1  0
  6  5  1  0
  7  6  2  0
  8  7  1  0
  8  9  2  0
  9  4  1  0
 10 11  2  0
 10  2  1  0
 13 15  1  0
 13 12  1  6
 14 13  1  0
 15 16  1  6
 16 10  1  0
 17 15  1  0
 18 17  2  0
 19 20  1  0
 20 21  1  0
 23 22  1  6
 22 21  1  0
 23 24  1  0
 24 17  1  0
 25 26  1  0
 25 23  1  0
 27 25  2  0
M  END
$$$$
