FVM.pdb
     RDKit          3D

 27 27  0  0  1  0  0  0  0  0999 V2000
   18.5895  -11.0086  -16.8665 N   0  0  0  0  0  0  0  0  0  0  0  0
   18.9419   -9.6966  -17.3699 C   0  0  1  0  0  0  0  0  0  0  0  0
   17.6942   -9.1169  -18.0248 C   0  0  0  0  0  0  0  0  0  0  0  0
   17.4229   -9.7670  -19.3298 C   0  0  0  0  0  0  0  0  0  0  0  0
   16.3034  -10.5595  -19.4846 C   0  0  0  0  0  0  0  0  0  0  0  0
   15.9912  -11.1919  -20.6626 C   0  0  0  0  0  0  0  0  0  0  0  0
   16.8363  -11.0277  -21.7434 C   0  0  0  0  0  0  0  0  0  0  0  0
   17.9628  -10.2416  -21.6190 C   0  0  0  0  0  0  0  0  0  0  0  0
   18.2485   -9.6201  -20.4229 C   0  0  0  0  0  0  0  0  0  0  0  0
   19.3603   -8.8691  -16.2036 C   0  0  0  0  0  0  0  0  0  0  0  0
   18.6953   -8.8403  -15.1294 O   0  0  0  0  0  0  0  0  0  0  0  0
   23.3426   -7.6080  -15.5305 C   0  0  0  0  0  0  0  0  0  0  0  0
   22.2671   -7.8209  -14.4894 C   0  0  2  0  0  0  0  0  0  0  0  0
   22.2803   -9.2975  -14.1475 C   0  0  0  0  0  0  0  0  0  0  0  0
   20.9771   -7.3645  -15.0419 C   0  0  2  0  0  0  0  0  0  0  0  0
   20.5246   -8.0612  -16.2153 N   0  0  0  0  0  0  0  0  0  0  0  0
   21.0669   -5.9040  -15.3495 C   0  0  0  0  0  0  0  0  0  0  0  0
   21.4392   -5.4370  -16.4526 O   0  0  0  0  0  0  0  0  0  0  0  0
   17.8662    1.1271  -14.2973 C   0  0  0  0  0  0  0  0  0  0  0  0
   17.9937   -0.6334  -14.2161 S   0  0  0  0  0  0  0  0  0  0  0  0
   19.5993   -1.3615  -14.4648 C   0  0  0  0  0  0  0  0  0  0  0  0
   19.6127   -2.8576  -14.4057 C   0  0  0  0  0  0  0  0  0  0  0  0
   20.9336   -3.5168  -14.5642 C   0  0  2  0  0  0  0  0  0  0  0  0
   20.7156   -4.9478  -14.3503 N   0  0  0  0  0  0  0  0  0  0  0  0
   21.9410   -3.0308  -13.5774 C   0  0  0  0  0  0  0  0  0  0  0  0
   22.6021   -1.8599  -13.8087 O   0  0  0  0  0  0  0  0  0  0  0  0
   22.2037   -3.6746  -12.5218 O   0  0  0  0  0  0  0  0  0  0  0  0
  2  1  1  1
  3  2  1  0
  4  5  2  0
  4  3  1  0
  6  5  1  0
  7  6  2  0
  8  7  1  0
  8  9  2  0
  9  4  1  0
 10 11  2  0
 10  2  1  0
 13 15  1  0
 13 12  1  6
 14 13  1  0
 15 16  1  6
 16 10  1  0
 17 15  1  0
 18 17  2  0
 19 20  1  0
 20 21  1  0
 23 22  1  1
 22 21  1  0
 23 24  1  0
 24 17  1  0
 25 26  1  0
 25 23  1  0
 27 25  2  0
M  END
$$$$
