FVM.pdb
     RDKit          3D

 27 27  0  0  1  0  0  0  0  0999 V2000
   23.4262  -20.7932  -17.2955 N   0  0  0  0  0  0  0  0  0  0  0  0
   23.7499  -19.7620  -16.3308 C   0  0  1  0  0  0  0  0  0  0  0  0
   22.4311  -19.2179  -15.7956 C   0  0  0  0  0  0  0  0  0  0  0  0
   21.7803  -18.3233  -16.7833 C   0  0  0  0  0  0  0  0  0  0  0  0
   22.5532  -17.5601  -17.6351 C   0  0  0  0  0  0  0  0  0  0  0  0
   22.0185  -16.7107  -18.5720 C   0  0  0  0  0  0  0  0  0  0  0  0
   20.6433  -16.6151  -18.6669 C   0  0  0  0  0  0  0  0  0  0  0  0
   19.8449  -17.3654  -17.8290 C   0  0  0  0  0  0  0  0  0  0  0  0
   20.4122  -18.2089  -16.8990 C   0  0  0  0  0  0  0  0  0  0  0  0
   24.5391  -20.4024  -15.2413 C   0  0  0  0  0  0  0  0  0  0  0  0
   24.2458  -21.5429  -14.7828 O   0  0  0  0  0  0  0  0  0  0  0  0
   28.3747  -20.8490  -14.9901 C   0  0  0  0  0  0  0  0  0  0  0  0
   27.8881  -20.2526  -13.6888 C   0  0  2  0  0  0  0  0  0  0  0  0
   28.6356  -20.9645  -12.5789 C   0  0  0  0  0  0  0  0  0  0  0  0
   26.4249  -20.4258  -13.6071 C   0  0  2  0  0  0  0  0  0  0  0  0
   25.6662  -19.7832  -14.6457 N   0  0  0  0  0  0  0  0  0  0  0  0
   25.9477  -19.9293  -12.2799 C   0  0  0  0  0  0  0  0  0  0  0  0
   25.6725  -18.7308  -12.0324 O   0  0  0  0  0  0  0  0  0  0  0  0
   21.5586  -21.5052   -6.0326 C   0  0  0  0  0  0  0  0  0  0  0  0
   22.3192  -21.8443   -7.5910 S   0  0  0  0  0  0  0  0  0  0  0  0
   23.7602  -20.8975   -8.0346 C   0  0  0  0  0  0  0  0  0  0  0  0
   24.2116  -21.0895   -9.4494 C   0  0  0  0  0  0  0  0  0  0  0  0
   25.4497  -20.3771   -9.8541 C   0  0  2  0  0  0  0  0  0  0  0  0
   25.7821  -20.8466  -11.1994 N   0  0  0  0  0  0  0  0  0  0  0  0
   26.5995  -20.6617   -8.9475 C   0  0  0  0  0  0  0  0  0  0  0  0
   26.8389  -19.8422   -7.8832 O   0  0  0  0  0  0  0  0  0  0  0  0
   27.3664  -21.6489   -9.1343 O   0  0  0  0  0  0  0  0  0  0  0  0
  2  1  1  6
  3  2  1  0
  4  5  2  0
  4  3  1  0
  6  5  1  0
  7  6  2  0
  8  7  1  0
  8  9  2  0
  9  4  1  0
 10 11  2  0
 10  2  1  0
 13 15  1  0
 13 12  1  6
 14 13  1  0
 15 16  1  6
 16 10  1  0
 17 15  1  0
 18 17  2  0
 19 20  1  0
 20 21  1  0
 23 22  1  1
 22 21  1  0
 23 24  1  0
 24 17  1  0
 25 26  1  0
 25 23  1  0
 27 25  2  0
M  END
$$$$
