FVM.pdb
     RDKit          3D

 27 27  0  0  1  0  0  0  0  0999 V2000
   29.4792  -19.4430  -13.4945 N   0  0  0  0  0  0  0  0  0  0  0  0
   28.4421  -20.4166  -13.2202 C   0  0  1  0  0  0  0  0  0  0  0  0
   28.4637  -20.6852  -11.7205 C   0  0  0  0  0  0  0  0  0  0  0  0
   29.7484  -21.2984  -11.3045 C   0  0  0  0  0  0  0  0  0  0  0  0
   30.3366  -20.9230  -10.1135 C   0  0  0  0  0  0  0  0  0  0  0  0
   31.5242  -21.4480   -9.6672 C   0  0  0  0  0  0  0  0  0  0  0  0
   32.1603  -22.3958  -10.4459 C   0  0  0  0  0  0  0  0  0  0  0  0
   31.5966  -22.7908  -11.6412 C   0  0  0  0  0  0  0  0  0  0  0  0
   30.4034  -22.2449  -12.0614 C   0  0  0  0  0  0  0  0  0  0  0  0
   27.1434  -19.8125  -13.6307 C   0  0  0  0  0  0  0  0  0  0  0  0
   26.9603  -18.5622  -13.6437 O   0  0  0  0  0  0  0  0  0  0  0  0
   23.3307  -20.4002  -16.3371 C   0  0  0  0  0  0  0  0  0  0  0  0
   24.6341  -19.7758  -15.8934 C   0  0  2  0  0  0  0  0  0  0  0  0
   25.7293  -20.4298  -16.7120 C   0  0  0  0  0  0  0  0  0  0  0  0
   24.7897  -19.9875  -14.4413 C   0  0  2  0  0  0  0  0  0  0  0  0
   26.0292  -20.5907  -14.0326 N   0  0  0  0  0  0  0  0  0  0  0  0
   23.6556  -20.8264  -13.9458 C   0  0  0  0  0  0  0  0  0  0  0  0
   23.6119  -22.0769  -14.0340 O   0  0  0  0  0  0  0  0  0  0  0  0
   21.4636  -21.0983   -7.8462 C   0  0  0  0  0  0  0  0  0  0  0  0
   20.0843  -20.6891   -8.8720 S   0  0  0  0  0  0  0  0  0  0  0  0
   20.1520  -21.1710  -10.5846 C   0  0  0  0  0  0  0  0  0  0  0  0
   21.2924  -20.5721  -11.3481 C   0  0  0  0  0  0  0  0  0  0  0  0
   21.4410  -20.9978  -12.7627 C   0  0  2  0  0  0  0  0  0  0  0  0
   22.5316  -20.2020  -13.3269 N   0  0  0  0  0  0  0  0  0  0  0  0
   20.2072  -20.7618  -13.5670 C   0  0  0  0  0  0  0  0  0  0  0  0
   19.3104  -21.7753  -13.7405 O   0  0  0  0  0  0  0  0  0  0  0  0
   19.9621  -19.6409  -14.0972 O   0  0  0  0  0  0  0  0  0  0  0  0
  2  1  1  1
  3  2  1  0
  4  5  2  0
  4  3  1  0
  6  5  1  0
  7  6  2  0
  8  7  1  0
  8  9  2  0
  9  4  1  0
 10 11  2  0
 10  2  1  0
 13 15  1  0
 13 12  1  6
 14 13  1  0
 15 16  1  6
 16 10  1  0
 17 15  1  0
 18 17  2  0
 19 20  1  0
 20 21  1  0
 23 22  1  1
 22 21  1  0
 23 24  1  0
 24 17  1  0
 25 26  1  0
 25 23  1  0
 27 25  2  0
M  END
$$$$
