FVM.pdb
     RDKit          3D

 27 27  0  0  1  0  0  0  0  0999 V2000
   25.3390  -17.3202  -16.5468 N   0  0  0  0  0  0  0  0  0  0  0  0
   25.6765  -17.1925  -15.1437 C   0  0  1  0  0  0  0  0  0  0  0  0
   24.5662  -16.3817  -14.4868 C   0  0  0  0  0  0  0  0  0  0  0  0
   24.4809  -15.0202  -15.0686 C   0  0  0  0  0  0  0  0  0  0  0  0
   23.3197  -14.6092  -15.6916 C   0  0  0  0  0  0  0  0  0  0  0  0
   23.1714  -13.3647  -16.2523 C   0  0  0  0  0  0  0  0  0  0  0  0
   24.2332  -12.4827  -16.1904 C   0  0  0  0  0  0  0  0  0  0  0  0
   25.4065  -12.8651  -15.5742 C   0  0  0  0  0  0  0  0  0  0  0  0
   25.5239  -14.1214  -15.0208 C   0  0  0  0  0  0  0  0  0  0  0  0
   25.7365  -18.5673  -14.5725 C   0  0  0  0  0  0  0  0  0  0  0  0
   24.7989  -19.3998  -14.7297 O   0  0  0  0  0  0  0  0  0  0  0  0
   28.2301  -20.9333  -15.5194 C   0  0  0  0  0  0  0  0  0  0  0  0
   28.2209  -21.0680  -14.0136 C   0  0  2  0  0  0  0  0  0  0  0  0
   28.2926  -22.5514  -13.7103 C   0  0  0  0  0  0  0  0  0  0  0  0
   27.0000  -20.4266  -13.4888 C   0  0  2  0  0  0  0  0  0  0  0  0
   26.8406  -19.0360  -13.8175 N   0  0  0  0  0  0  0  0  0  0  0  0
   26.9682  -20.5801  -12.0019 C   0  0  0  0  0  0  0  0  0  0  0  0
   27.9901  -20.6594  -11.2787 O   0  0  0  0  0  0  0  0  0  0  0  0
   28.7812  -19.3460   -6.0216 C   0  0  0  0  0  0  0  0  0  0  0  0
   27.4404  -18.6596   -6.9453 S   0  0  0  0  0  0  0  0  0  0  0  0
   26.3001  -19.7886   -7.7165 C   0  0  0  0  0  0  0  0  0  0  0  0
   26.3988  -19.8391   -9.2098 C   0  0  0  0  0  0  0  0  0  0  0  0
   25.6444  -20.9225   -9.8891 C   0  0  2  0  0  0  0  0  0  0  0  0
   25.7141  -20.6450  -11.3240 N   0  0  0  0  0  0  0  0  0  0  0  0
   24.2115  -20.9709   -9.4776 C   0  0  0  0  0  0  0  0  0  0  0  0
   23.8840  -21.3873   -8.2202 O   0  0  0  0  0  0  0  0  0  0  0  0
   23.2810  -20.6335  -10.2637 O   0  0  0  0  0  0  0  0  0  0  0  0
  2  1  1  6
  3  2  1  0
  4  5  2  0
  4  3  1  0
  6  5  1  0
  7  6  2  0
  8  7  1  0
  8  9  2  0
  9  4  1  0
 10 11  2  0
 10  2  1  0
 13 15  1  0
 13 12  1  6
 14 13  1  0
 15 16  1  1
 16 10  1  0
 17 15  1  0
 18 17  2  0
 19 20  1  0
 20 21  1  0
 23 22  1  1
 22 21  1  0
 23 24  1  0
 24 17  1  0
 25 26  1  0
 25 23  1  0
 27 25  2  0
M  END
$$$$
