SWE.pdb
     RDKit          3D

 30 31  0  0  1  0  0  0  0  0999 V2000
    9.9774  -18.5229   19.3581 O   0  0  0  0  0  0  0  0  0  0  0  0
    8.7391  -18.0468   18.9610 C   0  0  0  0  0  0  0  0  0  0  0  0
    8.8247  -16.5251   18.8929 C   0  0  2  0  0  0  0  0  0  0  0  0
    9.9361  -16.1539   18.0656 N   0  0  0  0  0  0  0  0  0  0  0  0
    8.9724  -16.0530   20.2948 C   0  0  0  0  0  0  0  0  0  0  0  0
   10.1073  -15.6279   20.6299 O   0  0  0  0  0  0  0  0  0  0  0  0
    7.8466  -16.1046   21.1663 N   0  0  0  0  0  0  0  0  0  0  0  0
    8.0449  -15.6736   22.5307 C   0  0  1  0  0  0  0  0  0  0  0  0
    6.7182  -15.3924   23.1472 C   0  0  0  0  0  0  0  0  0  0  0  0
    6.8399  -15.1038   24.5945 C   0  0  0  0  0  0  0  0  0  0  0  0
    6.7761  -16.0018   25.6309 C   0  0  0  0  0  0  0  0  0  0  0  0
    6.9296  -15.3627   26.8036 N   0  0  0  0  0  0  0  0  0  0  0  0
    7.0957  -14.0348   26.5361 C   0  0  0  0  0  0  0  0  0  0  0  0
    7.2918  -12.9297   27.3505 C   0  0  0  0  0  0  0  0  0  0  0  0
    7.4317  -11.6717   26.8039 C   0  0  0  0  0  0  0  0  0  0  0  0
    7.3765  -11.5069   25.4303 C   0  0  0  0  0  0  0  0  0  0  0  0
    7.1836  -12.5867   24.6121 C   0  0  0  0  0  0  0  0  0  0  0  0
    7.0411  -13.8657   25.1654 C   0  0  0  0  0  0  0  0  0  0  0  0
    8.8716  -16.6566   23.2232 C   0  0  0  0  0  0  0  0  0  0  0  0
    8.7681  -17.8661   22.8462 O   0  0  0  0  0  0  0  0  0  0  0  0
    9.7689  -16.3981   24.2638 N   0  0  0  0  0  0  0  0  0  0  0  0
   10.6060  -17.4244   24.8267 C   0  0  1  0  0  0  0  0  0  0  0  0
   11.9181  -17.5471   24.1043 C   0  0  0  0  0  0  0  0  0  0  0  0
   12.7088  -16.3083   23.9492 C   0  0  0  0  0  0  0  0  0  0  0  0
   13.9941  -16.4815   23.2287 C   0  0  0  0  0  0  0  0  0  0  0  0
   14.4710  -17.5835   22.8638 O   0  0  0  0  0  0  0  0  0  0  0  0
   10.7763  -17.2671   26.2922 C   0  0  0  0  0  0  0  0  0  0  0  0
   11.4701  -18.0708   26.9864 O   0  0  0  0  0  0  0  0  0  0  0  0
   14.7927  -15.3689   22.8958 O   0  0  0  0  0  0  0  0  0  0  0  0
   10.1860  -16.2283   26.9962 O   0  0  0  0  0  0  0  0  0  0  0  0
  2  3  1  0
  2  1  1  0
  3  4  1  6
  5  6  2  0
  5  3  1  0
  7  5  1  0
  8  7  1  0
  9 10  1  0
  8  9  1  1
 10 18  1  0
 10 11  2  0
 11 12  1  0
 13 12  1  0
 13 14  2  0
 15 14  1  0
 16 15  2  0
 17 18  2  0
 17 16  1  0
 18 13  1  0
 19 20  2  0
 19  8  1  0
 21 19  1  0
 22 23  1  6
 22 21  1  0
 24 25  1  0
 24 23  1  0
 25 29  1  0
 26 25  2  0
 27 22  1  0
 28 27  2  0
 30 27  1  0
M  END
$$$$
