SWE.pdb
     RDKit          3D

 30 31  0  0  1  0  0  0  0  0999 V2000
    9.6148  -15.2246   18.0328 O   0  0  0  0  0  0  0  0  0  0  0  0
    8.2318  -15.1791   17.9784 C   0  0  0  0  0  0  0  0  0  0  0  0
    7.7810  -13.8862   18.6509 C   0  0  2  0  0  0  0  0  0  0  0  0
    8.4117  -12.7740   18.0009 N   0  0  0  0  0  0  0  0  0  0  0  0
    8.1651  -14.0052   20.0822 C   0  0  0  0  0  0  0  0  0  0  0  0
    9.2622  -13.4895   20.4161 O   0  0  0  0  0  0  0  0  0  0  0  0
    7.2907  -14.6811   20.9811 N   0  0  0  0  0  0  0  0  0  0  0  0
    7.6654  -14.7066   22.3760 C   0  0  1  0  0  0  0  0  0  0  0  0
    6.4322  -14.6494   23.2097 C   0  0  0  0  0  0  0  0  0  0  0  0
    6.7524  -14.6175   24.6551 C   0  0  0  0  0  0  0  0  0  0  0  0
    6.9679  -15.6903   25.4841 C   0  0  0  0  0  0  0  0  0  0  0  0
    7.2320  -15.2625   26.7309 N   0  0  0  0  0  0  0  0  0  0  0  0
    7.1898  -13.8985   26.7214 C   0  0  0  0  0  0  0  0  0  0  0  0
    7.3806  -12.9457   27.7108 C   0  0  0  0  0  0  0  0  0  0  0  0
    7.2758  -11.6021   27.4200 C   0  0  0  0  0  0  0  0  0  0  0  0
    6.9777  -11.1972   26.1299 C   0  0  0  0  0  0  0  0  0  0  0  0
    6.7864  -12.1242   25.1417 C   0  0  0  0  0  0  0  0  0  0  0  0
    6.8923  -13.4899   25.4350 C   0  0  0  0  0  0  0  0  0  0  0  0
    8.5387  -15.8517   22.6115 C   0  0  0  0  0  0  0  0  0  0  0  0
    8.1752  -16.9659   22.1191 O   0  0  0  0  0  0  0  0  0  0  0  0
    9.7394  -15.8439   23.3277 N   0  0  0  0  0  0  0  0  0  0  0  0
   10.4867  -17.0468   23.5843 C   0  0  1  0  0  0  0  0  0  0  0  0
   11.7989  -17.0675   22.8521 C   0  0  0  0  0  0  0  0  0  0  0  0
   12.7505  -15.9809   23.1642 C   0  0  0  0  0  0  0  0  0  0  0  0
   13.6215  -15.5779   22.0328 C   0  0  0  0  0  0  0  0  0  0  0  0
   13.6573  -16.1470   20.9149 O   0  0  0  0  0  0  0  0  0  0  0  0
   10.6414  -17.3110   25.0361 C   0  0  0  0  0  0  0  0  0  0  0  0
   10.1610  -16.5410   25.9225 O   0  0  0  0  0  0  0  0  0  0  0  0
   14.5004  -14.4824   22.1507 O   0  0  0  0  0  0  0  0  0  0  0  0
   11.3227  -18.4195   25.5158 O   0  0  0  0  0  0  0  0  0  0  0  0
  2  3  1  0
  2  1  1  0
  3  4  1  6
  5  6  2  0
  5  3  1  0
  7  5  1  0
  8  7  1  0
  9 10  1  0
  8  9  1  1
 10 18  1  0
 10 11  2  0
 11 12  1  0
 13 12  1  0
 13 14  2  0
 15 14  1  0
 16 15  2  0
 17 18  2  0
 17 16  1  0
 18 13  1  0
 19 20  2  0
 19  8  1  0
 21 19  1  0
 22 23  1  1
 22 21  1  0
 24 25  1  0
 24 23  1  0
 25 29  1  0
 26 25  2  0
 27 22  1  0
 28 27  2  0
 30 27  1  0
M  END
$$$$
