SWE.pdb
     RDKit          3D

 30 31  0  0  1  0  0  0  0  0999 V2000
    8.4858  -17.1845   19.5215 O   0  0  0  0  0  0  0  0  0  0  0  0
    7.3444  -17.2665   20.3013 C   0  0  0  0  0  0  0  0  0  0  0  0
    7.0847  -15.8852   20.8944 C   0  0  2  0  0  0  0  0  0  0  0  0
    7.1881  -14.9012   19.8559 N   0  0  0  0  0  0  0  0  0  0  0  0
    8.0976  -15.6947   21.9658 C   0  0  0  0  0  0  0  0  0  0  0  0
    9.1224  -15.0328   21.6614 O   0  0  0  0  0  0  0  0  0  0  0  0
    7.8606  -16.2582   23.2525 N   0  0  0  0  0  0  0  0  0  0  0  0
    8.8181  -15.9608   24.2925 C   0  0  1  0  0  0  0  0  0  0  0  0
    8.1257  -15.9914   25.6112 C   0  0  0  0  0  0  0  0  0  0  0  0
    7.0892  -14.9382   25.7070 C   0  0  0  0  0  0  0  0  0  0  0  0
    5.7282  -15.0997   25.6279 C   0  0  0  0  0  0  0  0  0  0  0  0
    5.1153  -13.9105   25.7594 N   0  0  0  0  0  0  0  0  0  0  0  0
    6.0805  -12.9602   25.9262 C   0  0  0  0  0  0  0  0  0  0  0  0
    6.0253  -11.5862   26.1051 C   0  0  0  0  0  0  0  0  0  0  0  0
    7.1824  -10.8508   26.2509 C   0  0  0  0  0  0  0  0  0  0  0  0
    8.4119  -11.4867   26.2189 C   0  0  0  0  0  0  0  0  0  0  0  0
    8.4844  -12.8419   26.0432 C   0  0  0  0  0  0  0  0  0  0  0  0
    7.3100  -13.5909   25.8949 C   0  0  0  0  0  0  0  0  0  0  0  0
    9.9616  -16.8567   24.1546 C   0  0  0  0  0  0  0  0  0  0  0  0
    9.7144  -18.0650   23.8466 O   0  0  0  0  0  0  0  0  0  0  0  0
   11.3063  -16.5158   24.3284 N   0  0  0  0  0  0  0  0  0  0  0  0
   12.3593  -17.4948   24.2676 C   0  0  1  0  0  0  0  0  0  0  0  0
   13.4345  -17.1126   23.2896 C   0  0  0  0  0  0  0  0  0  0  0  0
   14.3136  -15.9891   23.6751 C   0  0  0  0  0  0  0  0  0  0  0  0
   15.3538  -15.6466   22.6742 C   0  0  0  0  0  0  0  0  0  0  0  0
   16.5775  -15.5216   22.9230 O   0  0  0  0  0  0  0  0  0  0  0  0
   12.9010  -17.8189   25.6103 C   0  0  0  0  0  0  0  0  0  0  0  0
   12.5464  -17.1938   26.6557 O   0  0  0  0  0  0  0  0  0  0  0  0
   15.0150  -15.4313   21.3231 O   0  0  0  0  0  0  0  0  0  0  0  0
   13.8313  -18.8284   25.8066 O   0  0  0  0  0  0  0  0  0  0  0  0
  2  3  1  0
  2  1  1  0
  3  4  1  6
  5  6  2  0
  5  3  1  0
  7  5  1  0
  8  7  1  0
  9 10  1  0
  8  9  1  1
 10 18  1  0
 10 11  2  0
 11 12  1  0
 13 12  1  0
 13 14  2  0
 15 14  1  0
 16 15  2  0
 17 18  2  0
 17 16  1  0
 18 13  1  0
 19 20  2  0
 19  8  1  0
 21 19  1  0
 22 23  1  6
 22 21  1  0
 24 25  1  0
 24 23  1  0
 25 29  1  0
 26 25  2  0
 27 22  1  0
 28 27  2  0
 30 27  1  0
M  END
$$$$
