SWE.pdb
     RDKit          3D

 30 31  0  0  1  0  0  0  0  0999 V2000
    9.1823  -17.0489   19.7954 O   0  0  0  0  0  0  0  0  0  0  0  0
    7.9574  -17.2376   20.4132 C   0  0  0  0  0  0  0  0  0  0  0  0
    7.5548  -15.9176   21.0634 C   0  0  2  0  0  0  0  0  0  0  0  0
    7.6398  -14.8688   20.0886 N   0  0  0  0  0  0  0  0  0  0  0  0
    8.4855  -15.7145   22.2047 C   0  0  0  0  0  0  0  0  0  0  0  0
    9.4248  -14.8974   22.0278 O   0  0  0  0  0  0  0  0  0  0  0  0
    8.2704  -16.4387   23.4126 N   0  0  0  0  0  0  0  0  0  0  0  0
    9.1721  -16.1781   24.5107 C   0  0  1  0  0  0  0  0  0  0  0  0
    8.4129  -16.2582   25.7899 C   0  0  0  0  0  0  0  0  0  0  0  0
    7.3553  -15.2243   25.8617 C   0  0  0  0  0  0  0  0  0  0  0  0
    5.9985  -15.4132   25.7718 C   0  0  0  0  0  0  0  0  0  0  0  0
    5.3616  -14.2345   25.8814 N   0  0  0  0  0  0  0  0  0  0  0  0
    6.3065  -13.2635   26.0446 C   0  0  0  0  0  0  0  0  0  0  0  0
    6.2230  -11.8886   26.2045 C   0  0  0  0  0  0  0  0  0  0  0  0
    7.3642  -11.1289   26.3514 C   0  0  0  0  0  0  0  0  0  0  0  0
    8.6060  -11.7412   26.3396 C   0  0  0  0  0  0  0  0  0  0  0  0
    8.7064  -13.0970   26.1829 C   0  0  0  0  0  0  0  0  0  0  0  0
    7.5482  -13.8705   26.0335 C   0  0  0  0  0  0  0  0  0  0  0  0
   10.3243  -17.0665   24.3992 C   0  0  0  0  0  0  0  0  0  0  0  0
   10.1182  -18.2203   23.9072 O   0  0  0  0  0  0  0  0  0  0  0  0
   11.6366  -16.7724   24.7815 N   0  0  0  0  0  0  0  0  0  0  0  0
   12.6349  -17.7960   24.9448 C   0  0  1  0  0  0  0  0  0  0  0  0
   14.0198  -17.2905   24.6529 C   0  0  0  0  0  0  0  0  0  0  0  0
   14.2585  -16.7540   23.2968 C   0  0  0  0  0  0  0  0  0  0  0  0
   15.3445  -15.7467   23.2130 C   0  0  0  0  0  0  0  0  0  0  0  0
   16.0650  -15.3844   24.1745 O   0  0  0  0  0  0  0  0  0  0  0  0
   12.5405  -18.4648   26.2658 C   0  0  0  0  0  0  0  0  0  0  0  0
   12.1645  -17.8539   27.3121 O   0  0  0  0  0  0  0  0  0  0  0  0
   15.6459  -15.1073   21.9935 O   0  0  0  0  0  0  0  0  0  0  0  0
   12.8581  -19.8035   26.4394 O   0  0  0  0  0  0  0  0  0  0  0  0
  2  3  1  0
  2  1  1  0
  3  4  1  6
  5  6  2  0
  5  3  1  0
  7  5  1  0
  8  7  1  0
  9 10  1  0
  8  9  1  1
 10 18  1  0
 10 11  2  0
 11 12  1  0
 13 12  1  0
 13 14  2  0
 15 14  1  0
 16 15  2  0
 17 18  2  0
 17 16  1  0
 18 13  1  0
 19 20  2  0
 19  8  1  0
 21 19  1  0
 22 23  1  1
 22 21  1  0
 24 25  1  0
 24 23  1  0
 25 29  1  0
 26 25  2  0
 27 22  1  0
 28 27  2  0
 30 27  1  0
M  END
$$$$
