SWE.pdb
     RDKit          3D

 30 31  0  0  1  0  0  0  0  0999 V2000
    8.1537  -17.2752   19.6175 O   0  0  0  0  0  0  0  0  0  0  0  0
    7.1590  -17.3166   20.5801 C   0  0  0  0  0  0  0  0  0  0  0  0
    6.9624  -15.8991   21.1086 C   0  0  2  0  0  0  0  0  0  0  0  0
    6.9528  -14.9834   20.0046 N   0  0  0  0  0  0  0  0  0  0  0  0
    8.0839  -15.6467   22.0514 C   0  0  0  0  0  0  0  0  0  0  0  0
    9.0436  -14.9613   21.6152 O   0  0  0  0  0  0  0  0  0  0  0  0
    8.0152  -16.1813   23.3701 N   0  0  0  0  0  0  0  0  0  0  0  0
    9.1003  -15.8659   24.2700 C   0  0  1  0  0  0  0  0  0  0  0  0
    8.5739  -15.8113   25.6626 C   0  0  0  0  0  0  0  0  0  0  0  0
    7.4750  -14.8272   25.7916 C   0  0  0  0  0  0  0  0  0  0  0  0
    6.1256  -15.0731   25.7320 C   0  0  0  0  0  0  0  0  0  0  0  0
    5.4416  -13.9270   25.8919 N   0  0  0  0  0  0  0  0  0  0  0  0
    6.3478  -12.9202   26.0580 C   0  0  0  0  0  0  0  0  0  0  0  0
    6.2094  -11.5552   26.2592 C   0  0  0  0  0  0  0  0  0  0  0  0
    7.3202  -10.7504   26.3978 C   0  0  0  0  0  0  0  0  0  0  0  0
    8.5866  -11.3070   26.3360 C   0  0  0  0  0  0  0  0  0  0  0  0
    8.7411  -12.6522   26.1380 C   0  0  0  0  0  0  0  0  0  0  0  0
    7.6138  -13.4715   25.9969 C   0  0  0  0  0  0  0  0  0  0  0  0
   10.1943  -16.8039   24.0409 C   0  0  0  0  0  0  0  0  0  0  0  0
    9.8780  -18.0070   23.7794 O   0  0  0  0  0  0  0  0  0  0  0  0
   11.5603  -16.5086   24.0809 N   0  0  0  0  0  0  0  0  0  0  0  0
   12.5685  -17.5170   23.8870 C   0  0  1  0  0  0  0  0  0  0  0  0
   13.6307  -17.0795   22.9180 C   0  0  0  0  0  0  0  0  0  0  0  0
   14.6606  -16.1546   23.4352 C   0  0  0  0  0  0  0  0  0  0  0  0
   15.6713  -15.7328   22.4342 C   0  0  0  0  0  0  0  0  0  0  0  0
   16.5315  -16.4874   21.9190 O   0  0  0  0  0  0  0  0  0  0  0  0
   13.1340  -17.9978   25.1717 C   0  0  0  0  0  0  0  0  0  0  0  0
   12.8549  -17.4543   26.2834 O   0  0  0  0  0  0  0  0  0  0  0  0
   15.7285  -14.3992   21.9814 O   0  0  0  0  0  0  0  0  0  0  0  0
   14.0053  -19.0747   25.2372 O   0  0  0  0  0  0  0  0  0  0  0  0
  2  3  1  0
  2  1  1  0
  3  4  1  6
  5  6  2  0
  5  3  1  0
  7  5  1  0
  8  7  1  0
  9 10  1  0
  8  9  1  1
 10 18  1  0
 10 11  2  0
 11 12  1  0
 13 12  1  0
 13 14  2  0
 15 14  1  0
 16 15  2  0
 17 18  2  0
 17 16  1  0
 18 13  1  0
 19 20  2  0
 19  8  1  0
 21 19  1  0
 22 23  1  6
 22 21  1  0
 24 25  1  0
 24 23  1  0
 25 29  1  0
 26 25  2  0
 27 22  1  0
 28 27  2  0
 30 27  1  0
M  END
$$$$
