SWE.pdb
     RDKit          3D

 30 31  0  0  1  0  0  0  0  0999 V2000
   10.7768  -18.0836   20.0502 O   0  0  0  0  0  0  0  0  0  0  0  0
    9.3958  -18.0154   19.9735 C   0  0  0  0  0  0  0  0  0  0  0  0
    8.9918  -16.5527   20.1302 C   0  0  2  0  0  0  0  0  0  0  0  0
    9.6798  -15.7676   19.1465 N   0  0  0  0  0  0  0  0  0  0  0  0
    9.3493  -16.1685   21.5211 C   0  0  0  0  0  0  0  0  0  0  0  0
   10.3157  -15.3754   21.6561 O   0  0  0  0  0  0  0  0  0  0  0  0
    8.5959  -16.7054   22.6044 N   0  0  0  0  0  0  0  0  0  0  0  0
    8.9225  -16.2408   23.9327 C   0  0  1  0  0  0  0  0  0  0  0  0
    7.6624  -16.0666   24.7080 C   0  0  0  0  0  0  0  0  0  0  0  0
    7.1292  -14.6911   24.5798 C   0  0  0  0  0  0  0  0  0  0  0  0
    6.4442  -14.1595   23.5155 C   0  0  0  0  0  0  0  0  0  0  0  0
    6.1239  -12.8785   23.7681 N   0  0  0  0  0  0  0  0  0  0  0  0
    6.6018  -12.5658   25.0075 C   0  0  0  0  0  0  0  0  0  0  0  0
    6.5616  -11.4047   25.7646 C   0  0  0  0  0  0  0  0  0  0  0  0
    7.1390  -11.3630   27.0159 C   0  0  0  0  0  0  0  0  0  0  0  0
    7.7652  -12.4886   27.5240 C   0  0  0  0  0  0  0  0  0  0  0  0
    7.8139  -13.6426   26.7902 C   0  0  0  0  0  0  0  0  0  0  0  0
    7.2279  -13.6871   25.5186 C   0  0  0  0  0  0  0  0  0  0  0  0
    9.9104  -17.1398   24.5201 C   0  0  0  0  0  0  0  0  0  0  0  0
    9.5133  -18.3043   24.8399 O   0  0  0  0  0  0  0  0  0  0  0  0
   11.2549  -16.8455   24.7663 N   0  0  0  0  0  0  0  0  0  0  0  0
   12.1623  -17.8146   25.3216 C   0  0  1  0  0  0  0  0  0  0  0  0
   13.5757  -17.6005   24.8578 C   0  0  0  0  0  0  0  0  0  0  0  0
   14.0465  -16.2016   24.7871 C   0  0  0  0  0  0  0  0  0  0  0  0
   15.3863  -16.0305   24.1734 C   0  0  0  0  0  0  0  0  0  0  0  0
   15.7889  -14.9865   23.6053 O   0  0  0  0  0  0  0  0  0  0  0  0
   12.0554  -17.8997   26.7991 C   0  0  0  0  0  0  0  0  0  0  0  0
   11.2963  -17.1372   27.4711 O   0  0  0  0  0  0  0  0  0  0  0  0
   16.3301  -17.0772   24.1926 O   0  0  0  0  0  0  0  0  0  0  0  0
   12.7809  -18.8209   27.5395 O   0  0  0  0  0  0  0  0  0  0  0  0
  2  3  1  0
  2  1  1  0
  3  4  1  6
  5  6  2  0
  5  3  1  0
  7  5  1  0
  8  7  1  0
  9 10  1  0
  8  9  1  1
 10 18  1  0
 10 11  2  0
 11 12  1  0
 13 12  1  0
 13 14  2  0
 15 14  1  0
 16 15  2  0
 17 18  2  0
 17 16  1  0
 18 13  1  0
 19 20  2  0
 19  8  1  0
 21 19  1  0
 22 23  1  1
 22 21  1  0
 24 25  1  0
 24 23  1  0
 25 29  1  0
 26 25  2  0
 27 22  1  0
 28 27  2  0
 30 27  1  0
M  END
$$$$
