SWE.pdb
     RDKit          3D

 30 31  0  0  1  0  0  0  0  0999 V2000
   10.3977  -18.2579   19.6195 O   0  0  0  0  0  0  0  0  0  0  0  0
    9.1027  -17.9849   19.2119 C   0  0  0  0  0  0  0  0  0  0  0  0
    8.9494  -16.4693   19.1300 C   0  0  2  0  0  0  0  0  0  0  0  0
    9.9483  -15.9434   18.2450 N   0  0  0  0  0  0  0  0  0  0  0  0
    9.0915  -15.9605   20.5197 C   0  0  0  0  0  0  0  0  0  0  0  0
   10.1932  -15.4323   20.8168 O   0  0  0  0  0  0  0  0  0  0  0  0
    7.9974  -16.0939   21.4223 N   0  0  0  0  0  0  0  0  0  0  0  0
    8.1902  -15.6161   22.7719 C   0  0  1  0  0  0  0  0  0  0  0  0
    6.8586  -15.3875   23.3994 C   0  0  0  0  0  0  0  0  0  0  0  0
    6.9842  -15.0397   24.8332 C   0  0  0  0  0  0  0  0  0  0  0  0
    7.2005  -15.8981   25.8825 C   0  0  0  0  0  0  0  0  0  0  0  0
    7.2555  -15.2101   27.0360 N   0  0  0  0  0  0  0  0  0  0  0  0
    7.0739  -13.8897   26.7430 C   0  0  0  0  0  0  0  0  0  0  0  0
    7.0356  -12.7491   27.5308 C   0  0  0  0  0  0  0  0  0  0  0  0
    6.8308  -11.5101   26.9616 C   0  0  0  0  0  0  0  0  0  0  0  0
    6.6617  -11.4003   25.5918 C   0  0  0  0  0  0  0  0  0  0  0  0
    6.6968  -12.5157   24.7997 C   0  0  0  0  0  0  0  0  0  0  0  0
    6.9046  -13.7754   25.3760 C   0  0  0  0  0  0  0  0  0  0  0  0
    9.0757  -16.5358   23.4785 C   0  0  0  0  0  0  0  0  0  0  0  0
    8.7099  -17.7512   23.5473 O   0  0  0  0  0  0  0  0  0  0  0  0
   10.2907  -16.2106   24.0891 N   0  0  0  0  0  0  0  0  0  0  0  0
   11.0677  -17.1805   24.8147 C   0  0  1  0  0  0  0  0  0  0  0  0
   12.5404  -17.0425   24.5489 C   0  0  0  0  0  0  0  0  0  0  0  0
   12.9659  -15.8645   23.7647 C   0  0  0  0  0  0  0  0  0  0  0  0
   14.2275  -16.0496   23.0064 C   0  0  0  0  0  0  0  0  0  0  0  0
   15.3635  -15.6927   23.4026 O   0  0  0  0  0  0  0  0  0  0  0  0
   10.7492  -17.1824   26.2639 C   0  0  0  0  0  0  0  0  0  0  0  0
   11.3118  -17.9712   27.0828 O   0  0  0  0  0  0  0  0  0  0  0  0
   14.2260  -16.6651   21.7384 O   0  0  0  0  0  0  0  0  0  0  0  0
    9.8140  -16.3194   26.8150 O   0  0  0  0  0  0  0  0  0  0  0  0
  2  3  1  0
  2  1  1  0
  3  4  1  6
  5  6  2  0
  5  3  1  0
  7  5  1  0
  8  7  1  0
  9 10  1  0
  8  9  1  1
 10 18  1  0
 10 11  2  0
 11 12  1  0
 13 12  1  0
 13 14  2  0
 15 14  1  0
 16 15  2  0
 17 18  2  0
 17 16  1  0
 18 13  1  0
 19 20  2  0
 19  8  1  0
 21 19  1  0
 22 23  1  1
 22 21  1  0
 24 25  1  0
 24 23  1  0
 25 29  1  0
 26 25  2  0
 27 22  1  0
 28 27  2  0
 30 27  1  0
M  END
$$$$
