SWE.pdb
     RDKit          3D

 30 31  0  0  1  0  0  0  0  0999 V2000
   10.3060  -18.2418   18.9698 O   0  0  0  0  0  0  0  0  0  0  0  0
    9.0732  -17.6953   18.6547 C   0  0  0  0  0  0  0  0  0  0  0  0
    9.2075  -16.1768   18.7136 C   0  0  2  0  0  0  0  0  0  0  0  0
   10.3858  -15.7815   17.9975 N   0  0  0  0  0  0  0  0  0  0  0  0
    9.2677  -15.8196   20.1555 C   0  0  0  0  0  0  0  0  0  0  0  0
   10.4099  -15.6070   20.6364 O   0  0  0  0  0  0  0  0  0  0  0  0
    8.0565  -15.7377   20.9009 N   0  0  0  0  0  0  0  0  0  0  0  0
    8.1634  -15.4156   22.3051 C   0  0  1  0  0  0  0  0  0  0  0  0
    6.8072  -15.0982   22.8336 C   0  0  0  0  0  0  0  0  0  0  0  0
    6.8308  -14.8773   24.2976 C   0  0  0  0  0  0  0  0  0  0  0  0
    6.6973  -15.8220   25.2846 C   0  0  0  0  0  0  0  0  0  0  0  0
    6.7711  -15.2383   26.4933 N   0  0  0  0  0  0  0  0  0  0  0  0
    6.9544  -13.8999   26.2995 C   0  0  0  0  0  0  0  0  0  0  0  0
    7.0947  -12.8342   27.1756 C   0  0  0  0  0  0  0  0  0  0  0  0
    7.2709  -11.5527   26.6986 C   0  0  0  0  0  0  0  0  0  0  0  0
    7.3086  -11.3244   25.3335 C   0  0  0  0  0  0  0  0  0  0  0  0
    7.1717  -12.3647   24.4550 C   0  0  0  0  0  0  0  0  0  0  0  0
    6.9926  -13.6675   24.9375 C   0  0  0  0  0  0  0  0  0  0  0  0
    8.8743  -16.4928   22.9859 C   0  0  0  0  0  0  0  0  0  0  0  0
    8.9866  -17.5948   22.3623 O   0  0  0  0  0  0  0  0  0  0  0  0
    9.4457  -16.4318   24.2605 N   0  0  0  0  0  0  0  0  0  0  0  0
   10.4630  -17.3550   24.6893 C   0  0  1  0  0  0  0  0  0  0  0  0
   11.6381  -17.3807   23.7528 C   0  0  0  0  0  0  0  0  0  0  0  0
   12.7756  -18.2415   24.1385 C   0  0  0  0  0  0  0  0  0  0  0  0
   13.9138  -18.2250   23.1870 C   0  0  0  0  0  0  0  0  0  0  0  0
   14.7113  -17.2678   23.0364 O   0  0  0  0  0  0  0  0  0  0  0  0
   10.8648  -17.1300   26.0998 C   0  0  0  0  0  0  0  0  0  0  0  0
   10.5300  -16.0902   26.7448 O   0  0  0  0  0  0  0  0  0  0  0  0
   14.1799  -19.3333   22.3578 O   0  0  0  0  0  0  0  0  0  0  0  0
   11.6336  -18.0453   26.8029 O   0  0  0  0  0  0  0  0  0  0  0  0
  2  3  1  0
  2  1  1  0
  3  4  1  6
  5  6  2  0
  5  3  1  0
  7  5  1  0
  8  7  1  0
  9 10  1  0
  8  9  1  1
 10 18  1  0
 10 11  2  0
 11 12  1  0
 13 12  1  0
 13 14  2  0
 15 14  1  0
 16 15  2  0
 17 18  2  0
 17 16  1  0
 18 13  1  0
 19 20  2  0
 19  8  1  0
 21 19  1  0
 22 23  1  6
 22 21  1  0
 24 25  1  0
 24 23  1  0
 25 29  1  0
 26 25  2  0
 27 22  1  0
 28 27  2  0
 30 27  1  0
M  END
$$$$
