SWE.pdb
     RDKit          3D

 30 31  0  0  1  0  0  0  0  0999 V2000
   10.2353  -18.7345   19.6502 O   0  0  0  0  0  0  0  0  0  0  0  0
    8.9834  -18.2780   19.2734 C   0  0  0  0  0  0  0  0  0  0  0  0
    9.0340  -16.7537   19.2387 C   0  0  2  0  0  0  0  0  0  0  0  0
   10.1079  -16.3388   18.3830 N   0  0  0  0  0  0  0  0  0  0  0  0
    9.2201  -16.3109   20.6456 C   0  0  0  0  0  0  0  0  0  0  0  0
   10.3995  -16.0721   21.0102 O   0  0  0  0  0  0  0  0  0  0  0  0
    8.0791  -16.1821   21.4889 N   0  0  0  0  0  0  0  0  0  0  0  0
    8.2924  -15.6522   22.8157 C   0  0  1  0  0  0  0  0  0  0  0  0
    6.9796  -15.2486   23.3927 C   0  0  0  0  0  0  0  0  0  0  0  0
    7.0973  -14.9070   24.8287 C   0  0  0  0  0  0  0  0  0  0  0  0
    7.3434  -15.7654   25.8714 C   0  0  0  0  0  0  0  0  0  0  0  0
    7.3790  -15.0840   27.0297 N   0  0  0  0  0  0  0  0  0  0  0  0
    7.1546  -13.7680   26.7464 C   0  0  0  0  0  0  0  0  0  0  0  0
    7.0816  -12.6348   27.5422 C   0  0  0  0  0  0  0  0  0  0  0  0
    6.8361  -11.3990   26.9822 C   0  0  0  0  0  0  0  0  0  0  0  0
    6.6604  -11.2852   25.6135 C   0  0  0  0  0  0  0  0  0  0  0  0
    6.7293  -12.3933   24.8136 C   0  0  0  0  0  0  0  0  0  0  0  0
    6.9787  -13.6497   25.3806 C   0  0  0  0  0  0  0  0  0  0  0  0
    9.0585  -16.6192   23.5950 C   0  0  0  0  0  0  0  0  0  0  0  0
    8.7466  -17.8443   23.4623 O   0  0  0  0  0  0  0  0  0  0  0  0
   10.1048  -16.3298   24.4760 N   0  0  0  0  0  0  0  0  0  0  0  0
   10.8483  -17.3622   25.1485 C   0  0  1  0  0  0  0  0  0  0  0  0
   12.1534  -17.6594   24.4650 C   0  0  0  0  0  0  0  0  0  0  0  0
   13.3383  -16.9191   24.9461 C   0  0  0  0  0  0  0  0  0  0  0  0
   14.2479  -16.4447   23.8743 C   0  0  0  0  0  0  0  0  0  0  0  0
   14.0983  -15.3831   23.2219 O   0  0  0  0  0  0  0  0  0  0  0  0
   11.0156  -17.0799   26.5955 C   0  0  0  0  0  0  0  0  0  0  0  0
   10.6107  -16.0028   27.1295 O   0  0  0  0  0  0  0  0  0  0  0  0
   15.3859  -17.1912   23.5079 O   0  0  0  0  0  0  0  0  0  0  0  0
   11.6268  -17.9787   27.4567 O   0  0  0  0  0  0  0  0  0  0  0  0
  2  3  1  0
  2  1  1  0
  3  4  1  6
  5  6  2  0
  5  3  1  0
  7  5  1  0
  8  7  1  0
  9 10  1  0
  8  9  1  1
 10 18  1  0
 10 11  2  0
 11 12  1  0
 13 12  1  0
 13 14  2  0
 15 14  1  0
 16 15  2  0
 17 18  2  0
 17 16  1  0
 18 13  1  0
 19 20  2  0
 19  8  1  0
 21 19  1  0
 22 23  1  6
 22 21  1  0
 24 25  1  0
 24 23  1  0
 25 29  1  0
 26 25  2  0
 27 22  1  0
 28 27  2  0
 30 27  1  0
M  END
$$$$
