SWE.pdb
     RDKit          3D

 30 31  0  0  1  0  0  0  0  0999 V2000
    8.1955  -16.5441   18.8722 O   0  0  0  0  0  0  0  0  0  0  0  0
    8.2294  -16.8605   20.2200 C   0  0  0  0  0  0  0  0  0  0  0  0
    7.6283  -15.6884   20.9893 C   0  0  2  0  0  0  0  0  0  0  0  0
    7.5442  -14.5501   20.1206 N   0  0  0  0  0  0  0  0  0  0  0  0
    8.5207  -15.4536   22.1549 C   0  0  0  0  0  0  0  0  0  0  0  0
    9.4288  -14.5966   22.0061 O   0  0  0  0  0  0  0  0  0  0  0  0
    8.3060  -16.1938   23.3531 N   0  0  0  0  0  0  0  0  0  0  0  0
    9.2292  -15.9736   24.4421 C   0  0  1  0  0  0  0  0  0  0  0  0
    8.4834  -16.0401   25.7299 C   0  0  0  0  0  0  0  0  0  0  0  0
    7.3827  -15.0506   25.7740 C   0  0  0  0  0  0  0  0  0  0  0  0
    6.0579  -15.2653   25.4851 C   0  0  0  0  0  0  0  0  0  0  0  0
    5.3629  -14.1248   25.6380 N   0  0  0  0  0  0  0  0  0  0  0  0
    6.2373  -13.1532   26.0303 C   0  0  0  0  0  0  0  0  0  0  0  0
    6.0760  -11.8083   26.3275 C   0  0  0  0  0  0  0  0  0  0  0  0
    7.1557  -11.0393   26.7065 C   0  0  0  0  0  0  0  0  0  0  0  0
    8.4135  -11.6119   26.7922 C   0  0  0  0  0  0  0  0  0  0  0  0
    8.5903  -12.9376   26.5025 C   0  0  0  0  0  0  0  0  0  0  0  0
    7.4946  -13.7206   26.1172 C   0  0  0  0  0  0  0  0  0  0  0  0
   10.3496  -16.8989   24.3085 C   0  0  0  0  0  0  0  0  0  0  0  0
   10.0688  -18.1134   24.0594 O   0  0  0  0  0  0  0  0  0  0  0  0
   11.7056  -16.5800   24.4279 N   0  0  0  0  0  0  0  0  0  0  0  0
   12.7307  -17.5896   24.4576 C   0  0  1  0  0  0  0  0  0  0  0  0
   14.0306  -17.0964   23.8871 C   0  0  0  0  0  0  0  0  0  0  0  0
   13.9461  -16.0287   22.8690 C   0  0  0  0  0  0  0  0  0  0  0  0
   15.2480  -15.6355   22.2761 C   0  0  0  0  0  0  0  0  0  0  0  0
   16.2062  -15.1346   22.9131 O   0  0  0  0  0  0  0  0  0  0  0  0
   12.8915  -18.1849   25.8072 C   0  0  0  0  0  0  0  0  0  0  0  0
   13.6790  -19.1533   26.0339 O   0  0  0  0  0  0  0  0  0  0  0  0
   15.4982  -15.8088   20.8998 O   0  0  0  0  0  0  0  0  0  0  0  0
   12.1890  -17.7181   26.9080 O   0  0  0  0  0  0  0  0  0  0  0  0
  2  3  1  0
  2  1  1  0
  3  4  1  6
  5  6  2  0
  5  3  1  0
  7  5  1  0
  8  7  1  0
  9 10  1  0
  8  9  1  1
 10 18  1  0
 10 11  2  0
 11 12  1  0
 13 12  1  0
 13 14  2  0
 15 14  1  0
 16 15  2  0
 17 18  2  0
 17 16  1  0
 18 13  1  0
 19 20  2  0
 19  8  1  0
 21 19  1  0
 22 23  1  1
 22 21  1  0
 24 25  1  0
 24 23  1  0
 25 29  1  0
 26 25  2  0
 27 22  1  0
 28 27  2  0
 30 27  1  0
M  END
$$$$
