SWE.pdb
     RDKit          3D

 30 31  0  0  1  0  0  0  0  0999 V2000
    8.9616  -16.9757   20.1703 O   0  0  0  0  0  0  0  0  0  0  0  0
    7.6355  -16.9789   20.5693 C   0  0  0  0  0  0  0  0  0  0  0  0
    7.3214  -15.6054   21.1542 C   0  0  2  0  0  0  0  0  0  0  0  0
    7.4657  -14.6137   20.1279 N   0  0  0  0  0  0  0  0  0  0  0  0
    8.2708  -15.4052   22.2805 C   0  0  0  0  0  0  0  0  0  0  0  0
    9.1962  -14.5739   22.0968 O   0  0  0  0  0  0  0  0  0  0  0  0
    8.0876  -16.1476   23.4825 N   0  0  0  0  0  0  0  0  0  0  0  0
    9.0461  -15.9386   24.5428 C   0  0  1  0  0  0  0  0  0  0  0  0
    8.3482  -16.0464   25.8545 C   0  0  0  0  0  0  0  0  0  0  0  0
    7.2860  -15.0238   25.9924 C   0  0  0  0  0  0  0  0  0  0  0  0
    5.9285  -15.2206   25.9372 C   0  0  0  0  0  0  0  0  0  0  0  0
    5.2869  -14.0513   26.1050 N   0  0  0  0  0  0  0  0  0  0  0  0
    6.2296  -13.0786   26.2716 C   0  0  0  0  0  0  0  0  0  0  0  0
    6.1413  -11.7104   26.4794 C   0  0  0  0  0  0  0  0  0  0  0  0
    7.2811  -10.9469   26.6168 C   0  0  0  0  0  0  0  0  0  0  0  0
    8.5262  -11.5485   26.5474 C   0  0  0  0  0  0  0  0  0  0  0  0
    8.6313  -12.8975   26.3429 C   0  0  0  0  0  0  0  0  0  0  0  0
    7.4745  -13.6750   26.2030 C   0  0  0  0  0  0  0  0  0  0  0  0
   10.1743  -16.8432   24.3474 C   0  0  0  0  0  0  0  0  0  0  0  0
    9.9157  -18.0869   24.3018 O   0  0  0  0  0  0  0  0  0  0  0  0
   11.5156  -16.4753   24.2050 N   0  0  0  0  0  0  0  0  0  0  0  0
   12.5892  -17.4236   24.3427 C   0  0  1  0  0  0  0  0  0  0  0  0
   13.8987  -16.8746   23.8504 C   0  0  0  0  0  0  0  0  0  0  0  0
   13.8670  -16.1214   22.5795 C   0  0  0  0  0  0  0  0  0  0  0  0
   15.1720  -15.5478   22.1682 C   0  0  0  0  0  0  0  0  0  0  0  0
   16.1844  -15.4629   22.9049 O   0  0  0  0  0  0  0  0  0  0  0  0
   12.6825  -17.9680   25.7198 C   0  0  0  0  0  0  0  0  0  0  0  0
   13.5095  -18.8760   26.0375 O   0  0  0  0  0  0  0  0  0  0  0  0
   15.3618  -15.0412   20.8666 O   0  0  0  0  0  0  0  0  0  0  0  0
   11.8692  -17.5166   26.7483 O   0  0  0  0  0  0  0  0  0  0  0  0
  2  3  1  0
  2  1  1  0
  3  4  1  6
  5  6  2  0
  5  3  1  0
  7  5  1  0
  8  7  1  0
  9 10  1  0
  8  9  1  1
 10 18  1  0
 10 11  2  0
 11 12  1  0
 13 12  1  0
 13 14  2  0
 15 14  1  0
 16 15  2  0
 17 18  2  0
 17 16  1  0
 18 13  1  0
 19 20  2  0
 19  8  1  0
 21 19  1  0
 22 23  1  1
 22 21  1  0
 24 25  1  0
 24 23  1  0
 25 29  1  0
 26 25  2  0
 27 22  1  0
 28 27  2  0
 30 27  1  0
M  END
$$$$
