NCL.pdb
     RDKit          3D

 23 22  0  0  1  0  0  0  0  0999 V2000
   16.9331  -14.6090  -18.2992 N   0  0  0  0  0  0  0  0  0  0  0  0
   18.1309  -13.9183  -18.6630 C   0  0  0  0  0  0  0  0  0  0  0  0
   18.5120  -14.0782  -19.8417 O   0  0  0  0  0  0  0  0  0  0  0  0
   18.7633  -13.1136  -17.6230 C   0  0  0  0  0  0  0  0  0  0  0  0
   20.2583  -12.9928  -17.7107 C   0  0  2  0  0  0  0  0  0  0  0  0
   20.7912  -14.2062  -17.1000 N   0  0  0  0  0  0  0  0  0  0  0  0
   20.6665  -11.8577  -16.8061 C   0  0  0  0  0  0  0  0  0  0  0  0
   20.0608  -11.5922  -15.7411 O   0  0  0  0  0  0  0  0  0  0  0  0
   21.7794  -11.0100  -17.1137 N   0  0  0  0  0  0  0  0  0  0  0  0
   22.2063   -9.9150  -16.3011 C   0  0  1  0  0  0  0  0  0  0  0  0
   23.6990  -10.0460  -16.0766 C   0  0  0  0  0  0  0  0  0  0  0  0
   24.1352  -11.4381  -15.0297 S   0  0  0  0  0  0  0  0  0  0  0  0
   21.9815   -8.5909  -16.9607 C   0  0  0  0  0  0  0  0  0  0  0  0
   21.8966   -8.4864  -18.2130 O   0  0  0  0  0  0  0  0  0  0  0  0
   20.3718   -4.4398  -19.5424 C   0  0  0  0  0  0  0  0  0  0  0  0
   19.7090   -5.0456  -18.3399 C   0  0  1  0  0  0  0  0  0  0  0  0
   18.2644   -5.2943  -18.7841 C   0  0  0  0  0  0  0  0  0  0  0  0
   20.3293   -6.1581  -17.6531 C   0  0  0  0  0  0  0  0  0  0  0  0
   21.5362   -6.0870  -16.8411 C   0  0  2  0  0  0  0  0  0  0  0  0
   21.8512   -7.3883  -16.2384 N   0  0  0  0  0  0  0  0  0  0  0  0
   21.4777   -5.1537  -15.7353 C   0  0  0  0  0  0  0  0  0  0  0  0
   21.1845   -5.5593  -14.5677 O   0  0  0  0  0  0  0  0  0  0  0  0
   21.7362   -3.8142  -15.8745 O   0  0  0  0  0  0  0  0  0  0  0  0
  2  1  1  0
  2  4  1  0
  3  2  2  0
  5  6  1  1
  5  7  1  0
  5  4  1  0
  7  9  1  0
  7  8  2  0
  9 10  1  0
 10 13  1  0
 11 12  1  0
 10 11  1  6
 13 14  2  0
 13 20  1  0
 16 15  1  6
 16 17  1  0
 18 16  1  0
 19 18  1  1
 20 19  1  0
 21 19  1  0
 21 23  1  0
 22 21  2  0
M  END
$$$$
