NCL.pdb
     RDKit          3D

 23 22  0  0  1  0  0  0  0  0999 V2000
   17.7063  -16.6272  -17.3685 N   0  0  0  0  0  0  0  0  0  0  0  0
   18.4419  -16.1291  -16.2483 C   0  0  0  0  0  0  0  0  0  0  0  0
   18.1106  -16.5880  -15.1349 O   0  0  0  0  0  0  0  0  0  0  0  0
   19.4857  -15.1504  -16.5343 C   0  0  0  0  0  0  0  0  0  0  0  0
   19.5515  -14.6634  -17.9541 C   0  0  2  0  0  0  0  0  0  0  0  0
   20.2602  -15.7003  -18.6971 N   0  0  0  0  0  0  0  0  0  0  0  0
   20.4509  -13.4533  -17.9679 C   0  0  0  0  0  0  0  0  0  0  0  0
   21.6951  -13.5357  -17.8388 O   0  0  0  0  0  0  0  0  0  0  0  0
   19.9312  -12.1284  -18.1306 N   0  0  0  0  0  0  0  0  0  0  0  0
   20.7387  -10.9548  -18.2411 C   0  0  1  0  0  0  0  0  0  0  0  0
   20.0414   -9.9868  -19.1752 C   0  0  0  0  0  0  0  0  0  0  0  0
   20.8864   -8.4086  -19.3144 S   0  0  0  0  0  0  0  0  0  0  0  0
   20.9060  -10.2497  -16.9320 C   0  0  0  0  0  0  0  0  0  0  0  0
   19.9405  -10.1024  -16.1367 O   0  0  0  0  0  0  0  0  0  0  0  0
   25.6645   -9.2401  -16.0951 C   0  0  0  0  0  0  0  0  0  0  0  0
   24.7186  -10.1035  -15.3127 C   0  0  1  0  0  0  0  0  0  0  0  0
   25.6285  -10.9840  -14.4506 C   0  0  0  0  0  0  0  0  0  0  0  0
   23.6088   -9.5052  -14.6027 C   0  0  0  0  0  0  0  0  0  0  0  0
   22.3542   -9.0708  -15.2014 C   0  0  2  0  0  0  0  0  0  0  0  0
   22.1354   -9.7103  -16.5048 N   0  0  0  0  0  0  0  0  0  0  0  0
   22.2525   -7.6474  -15.4480 C   0  0  0  0  0  0  0  0  0  0  0  0
   22.3051   -7.1960  -16.6343 O   0  0  0  0  0  0  0  0  0  0  0  0
   22.0892   -6.7259  -14.4458 O   0  0  0  0  0  0  0  0  0  0  0  0
  2  1  1  0
  2  4  1  0
  3  2  2  0
  5  6  1  6
  5  7  1  0
  5  4  1  0
  7  9  1  0
  7  8  2  0
  9 10  1  0
 10 13  1  0
 11 12  1  0
 10 11  1  6
 13 14  2  0
 13 20  1  0
 16 15  1  1
 16 17  1  0
 18 16  1  0
 19 18  1  6
 20 19  1  0
 21 19  1  0
 21 23  1  0
 22 21  2  0
M  END
$$$$
