NCL.pdb
     RDKit          3D

 23 22  0  0  1  0  0  0  0  0999 V2000
   37.1524  -28.7243  -20.8194 N   0  0  0  0  0  0  0  0  0  0  0  0
   36.6290  -29.1797  -19.5692 C   0  0  0  0  0  0  0  0  0  0  0  0
   37.4019  -29.8783  -18.8803 O   0  0  0  0  0  0  0  0  0  0  0  0
   35.2638  -28.7782  -19.2467 C   0  0  0  0  0  0  0  0  0  0  0  0
   34.4310  -29.8092  -18.5390 C   0  0  2  0  0  0  0  0  0  0  0  0
   34.1515  -30.8428  -19.5303 N   0  0  0  0  0  0  0  0  0  0  0  0
   33.1040  -29.1673  -18.2216 C   0  0  0  0  0  0  0  0  0  0  0  0
   32.9927  -27.9505  -17.9417 O   0  0  0  0  0  0  0  0  0  0  0  0
   31.8835  -29.9172  -18.2217 N   0  0  0  0  0  0  0  0  0  0  0  0
   30.5807  -29.3348  -18.2913 C   0  0  1  0  0  0  0  0  0  0  0  0
   30.5081  -28.4860  -19.5443 C   0  0  0  0  0  0  0  0  0  0  0  0
   30.4307  -26.7254  -19.2000 S   0  0  0  0  0  0  0  0  0  0  0  0
   29.4990  -30.3629  -18.4007 C   0  0  0  0  0  0  0  0  0  0  0  0
   29.5027  -31.2256  -19.3183 O   0  0  0  0  0  0  0  0  0  0  0  0
   27.1609  -33.1011  -13.9939 C   0  0  0  0  0  0  0  0  0  0  0  0
   27.6923  -32.7595  -15.3552 C   0  0  1  0  0  0  0  0  0  0  0  0
   28.0374  -34.1139  -15.9820 C   0  0  0  0  0  0  0  0  0  0  0  0
   26.9523  -31.8655  -16.2196 C   0  0  0  0  0  0  0  0  0  0  0  0
   27.3572  -31.4489  -17.5551 C   0  0  2  0  0  0  0  0  0  0  0  0
   28.4187  -30.4361  -17.4993 N   0  0  0  0  0  0  0  0  0  0  0  0
   26.3058  -30.8621  -18.3599 C   0  0  0  0  0  0  0  0  0  0  0  0
   25.3639  -31.5848  -18.8116 O   0  0  0  0  0  0  0  0  0  0  0  0
   26.2588  -29.5267  -18.6680 O   0  0  0  0  0  0  0  0  0  0  0  0
  2  1  1  0
  2  4  1  0
  3  2  2  0
  5  6  1  6
  5  7  1  0
  5  4  1  0
  7  9  1  0
  7  8  2  0
  9 10  1  0
 10 13  1  0
 11 12  1  0
 10 11  1  6
 13 14  2  0
 13 20  1  0
 16 15  1  1
 16 17  1  0
 18 16  1  0
 19 18  1  1
 20 19  1  0
 21 19  1  0
 21 23  1  0
 22 21  2  0
M  END
$$$$
