NCL.pdb
     RDKit          3D

 23 22  0  0  1  0  0  0  0  0999 V2000
   25.5979  -23.0870  -11.7722 N   0  0  0  0  0  0  0  0  0  0  0  0
   25.5752  -21.9322  -10.9295 C   0  0  0  0  0  0  0  0  0  0  0  0
   25.9290  -22.1177   -9.7462 O   0  0  0  0  0  0  0  0  0  0  0  0
   25.1447  -20.6815  -11.5457 C   0  0  0  0  0  0  0  0  0  0  0  0
   24.7841  -20.7624  -13.0020 C   0  0  2  0  0  0  0  0  0  0  0  0
   25.9707  -21.2781  -13.6768 N   0  0  0  0  0  0  0  0  0  0  0  0
   24.6064  -19.3487  -13.4952 C   0  0  0  0  0  0  0  0  0  0  0  0
   23.6994  -18.5947  -13.0704 O   0  0  0  0  0  0  0  0  0  0  0  0
   25.4709  -18.7805  -14.4860 N   0  0  0  0  0  0  0  0  0  0  0  0
   25.3526  -17.4486  -14.9894 C   0  0  1  0  0  0  0  0  0  0  0  0
   26.7196  -16.7978  -14.9319 C   0  0  0  0  0  0  0  0  0  0  0  0
   26.7550  -15.1642  -15.6764 S   0  0  0  0  0  0  0  0  0  0  0  0
   24.9157  -17.4140  -16.4201 C   0  0  0  0  0  0  0  0  0  0  0  0
   25.3865  -18.2148  -17.2706 O   0  0  0  0  0  0  0  0  0  0  0  0
   19.5841  -16.8133  -18.0176 C   0  0  0  0  0  0  0  0  0  0  0  0
   21.0358  -17.1898  -17.9597 C   0  0  1  0  0  0  0  0  0  0  0  0
   21.1103  -18.5385  -18.6819 C   0  0  0  0  0  0  0  0  0  0  0  0
   22.0489  -16.2359  -18.3565 C   0  0  0  0  0  0  0  0  0  0  0  0
   23.4879  -16.4525  -18.2960 C   0  0  2  0  0  0  0  0  0  0  0  0
   23.9626  -16.4979  -16.9073 N   0  0  0  0  0  0  0  0  0  0  0  0
   24.2893  -15.4356  -18.9448 C   0  0  0  0  0  0  0  0  0  0  0  0
   24.7181  -14.4383  -18.2849 O   0  0  0  0  0  0  0  0  0  0  0  0
   24.6323  -15.4891  -20.2713 O   0  0  0  0  0  0  0  0  0  0  0  0
  2  1  1  0
  2  4  1  0
  3  2  2  0
  5  6  1  6
  5  7  1  0
  5  4  1  0
  7  9  1  0
  7  8  2  0
  9 10  1  0
 10 13  1  0
 11 12  1  0
 10 11  1  6
 13 14  2  0
 13 20  1  0
 16 15  1  6
 16 17  1  0
 18 16  1  0
 19 18  1  1
 20 19  1  0
 21 19  1  0
 21 23  1  0
 22 21  2  0
M  END
$$$$
