NCL.pdb
     RDKit          3D

 23 22  0  0  1  0  0  0  0  0999 V2000
   14.7384  -13.0728  -15.6534 N   0  0  0  0  0  0  0  0  0  0  0  0
   14.6499  -13.2408  -14.2363 C   0  0  0  0  0  0  0  0  0  0  0  0
   13.8528  -14.1184  -13.8433 O   0  0  0  0  0  0  0  0  0  0  0  0
   15.4945  -12.3741  -13.4211 C   0  0  0  0  0  0  0  0  0  0  0  0
   16.4216  -11.4668  -14.1792 C   0  0  2  0  0  0  0  0  0  0  0  0
   17.5472  -12.3007  -14.5877 N   0  0  0  0  0  0  0  0  0  0  0  0
   16.9773  -10.4728  -13.1910 C   0  0  0  0  0  0  0  0  0  0  0  0
   16.9842  -10.6817  -11.9549 O   0  0  0  0  0  0  0  0  0  0  0  0
   17.5343   -9.2216  -13.6109 N   0  0  0  0  0  0  0  0  0  0  0  0
   17.9974   -8.2064  -12.7185 C   0  0  1  0  0  0  0  0  0  0  0  0
   18.9977   -7.3440  -13.4611 C   0  0  0  0  0  0  0  0  0  0  0  0
   20.6169   -8.1066  -13.6046 S   0  0  0  0  0  0  0  0  0  0  0  0
   16.8977   -7.3001  -12.2623 C   0  0  0  0  0  0  0  0  0  0  0  0
   15.9484   -6.9821  -13.0265 O   0  0  0  0  0  0  0  0  0  0  0  0
   14.7247   -7.1594   -6.9661 C   0  0  0  0  0  0  0  0  0  0  0  0
   14.8714   -7.0951   -8.4583 C   0  0  1  0  0  0  0  0  0  0  0  0
   13.4573   -7.3418   -8.9926 C   0  0  0  0  0  0  0  0  0  0  0  0
   15.5629   -5.9819   -9.0720 C   0  0  0  0  0  0  0  0  0  0  0  0
   15.8120   -5.8202  -10.4978 C   0  0  2  0  0  0  0  0  0  0  0  0
   16.8486   -6.7483  -10.9669 N   0  0  0  0  0  0  0  0  0  0  0  0
   16.2640   -4.5033  -10.8963 C   0  0  0  0  0  0  0  0  0  0  0  0
   17.4944   -4.2904  -11.1300 O   0  0  0  0  0  0  0  0  0  0  0  0
   15.4151   -3.4375  -11.0500 O   0  0  0  0  0  0  0  0  0  0  0  0
  2  1  1  0
  2  4  1  0
  3  2  2  0
  5  6  1  1
  5  7  1  0
  5  4  1  0
  7  9  1  0
  7  8  2  0
  9 10  1  0
 10 13  1  0
 11 12  1  0
 10 11  1  6
 13 14  2  0
 13 20  1  0
 16 15  1  1
 16 17  1  0
 18 16  1  0
 19 18  1  1
 20 19  1  0
 21 19  1  0
 21 23  1  0
 22 21  2  0
M  END
$$$$
