NCL.pdb
     RDKit          3D

 23 22  0  0  1  0  0  0  0  0999 V2000
   20.0197  -16.9736  -18.1350 N   0  0  0  0  0  0  0  0  0  0  0  0
   19.4358  -15.9215  -18.9071 C   0  0  0  0  0  0  0  0  0  0  0  0
   18.4482  -16.2423  -19.6011 O   0  0  0  0  0  0  0  0  0  0  0  0
   20.0570  -14.6059  -18.7950 C   0  0  0  0  0  0  0  0  0  0  0  0
   19.1466  -13.4332  -19.0254 C   0  0  2  0  0  0  0  0  0  0  0  0
   18.9238  -13.3804  -20.4665 N   0  0  0  0  0  0  0  0  0  0  0  0
   19.9265  -12.1901  -18.6791 C   0  0  0  0  0  0  0  0  0  0  0  0
   20.9617  -12.2178  -17.9727 O   0  0  0  0  0  0  0  0  0  0  0  0
   19.5262  -10.8946  -19.1412 N   0  0  0  0  0  0  0  0  0  0  0  0
   20.1992   -9.6784  -18.8104 C   0  0  1  0  0  0  0  0  0  0  0  0
   19.6455   -8.5766  -19.6908 C   0  0  0  0  0  0  0  0  0  0  0  0
   20.2697   -6.9490  -19.2602 S   0  0  0  0  0  0  0  0  0  0  0  0
   19.9634   -9.2608  -17.3931 C   0  0  0  0  0  0  0  0  0  0  0  0
   18.8201   -9.3293  -16.8693 O   0  0  0  0  0  0  0  0  0  0  0  0
   20.9626   -9.2077  -11.9052 C   0  0  0  0  0  0  0  0  0  0  0  0
   22.0327   -8.8783  -12.9046 C   0  0  1  0  0  0  0  0  0  0  0  0
   23.2970   -9.5344  -12.3414 C   0  0  0  0  0  0  0  0  0  0  0  0
   21.8066   -9.1149  -14.3141 C   0  0  0  0  0  0  0  0  0  0  0  0
   20.8156   -8.4380  -15.1395 C   0  0  2  0  0  0  0  0  0  0  0  0
   20.9875   -8.7698  -16.5594 N   0  0  0  0  0  0  0  0  0  0  0  0
   20.8477   -6.9916  -15.0745 C   0  0  0  0  0  0  0  0  0  0  0  0
   20.1958   -6.3748  -14.1754 O   0  0  0  0  0  0  0  0  0  0  0  0
   21.5698   -6.2209  -15.9490 O   0  0  0  0  0  0  0  0  0  0  0  0
  2  1  1  0
  2  4  1  0
  3  2  2  0
  5  6  1  6
  5  7  1  0
  5  4  1  0
  7  9  1  0
  7  8  2  0
  9 10  1  0
 10 13  1  0
 11 12  1  0
 10 11  1  6
 13 14  2  0
 13 20  1  0
 16 15  1  1
 16 17  1  0
 18 16  1  0
 19 18  1  1
 20 19  1  0
 21 19  1  0
 21 23  1  0
 22 21  2  0
M  END
$$$$
