NCL.pdb
     RDKit          3D

 23 22  0  0  1  0  0  0  0  0999 V2000
   26.6230  -13.0633  -17.4505 N   0  0  0  0  0  0  0  0  0  0  0  0
   25.5816  -13.4791  -18.3375 C   0  0  0  0  0  0  0  0  0  0  0  0
   25.9084  -14.3211  -19.2002 O   0  0  0  0  0  0  0  0  0  0  0  0
   24.2688  -12.8759  -18.1329 C   0  0  0  0  0  0  0  0  0  0  0  0
   24.1654  -11.9135  -16.9838 C   0  0  2  0  0  0  0  0  0  0  0  0
   24.1537  -12.7348  -15.7777 N   0  0  0  0  0  0  0  0  0  0  0  0
   22.8035  -11.2712  -17.0630 C   0  0  0  0  0  0  0  0  0  0  0  0
   21.7408  -11.9344  -17.0161 O   0  0  0  0  0  0  0  0  0  0  0  0
   22.6440   -9.8540  -17.1975 N   0  0  0  0  0  0  0  0  0  0  0  0
   21.3826   -9.1829  -17.2054 C   0  0  1  0  0  0  0  0  0  0  0  0
   20.7032   -9.4368  -15.8751 C   0  0  0  0  0  0  0  0  0  0  0  0
   19.1544   -8.5467  -15.6929 S   0  0  0  0  0  0  0  0  0  0  0  0
   21.5240   -7.6998  -17.3440 C   0  0  0  0  0  0  0  0  0  0  0  0
   22.3374   -7.0482  -16.6369 O   0  0  0  0  0  0  0  0  0  0  0  0
   20.2423   -4.6686  -22.2179 C   0  0  0  0  0  0  0  0  0  0  0  0
   20.9714   -5.0998  -20.9790 C   0  0  1  0  0  0  0  0  0  0  0  0
   22.3040   -4.3468  -21.0379 C   0  0  0  0  0  0  0  0  0  0  0  0
   20.3082   -5.0534  -19.6937 C   0  0  0  0  0  0  0  0  0  0  0  0
   20.8820   -5.4870  -18.4272 C   0  0  2  0  0  0  0  0  0  0  0  0
   20.7691   -6.9414  -18.2605 N   0  0  0  0  0  0  0  0  0  0  0  0
   20.2676   -4.9145  -17.2473 C   0  0  0  0  0  0  0  0  0  0  0  0
   19.2640   -5.4772  -16.7090 O   0  0  0  0  0  0  0  0  0  0  0  0
   20.7234   -3.7673  -16.6503 O   0  0  0  0  0  0  0  0  0  0  0  0
  2  1  1  0
  2  4  1  0
  3  2  2  0
  5  6  1  1
  5  7  1  0
  5  4  1  0
  7  9  1  0
  7  8  2  0
  9 10  1  0
 10 13  1  0
 11 12  1  0
 10 11  1  1
 13 14  2  0
 13 20  1  0
 16 15  1  6
 16 17  1  0
 18 16  1  0
 19 18  1  6
 20 19  1  0
 21 19  1  0
 21 23  1  0
 22 21  2  0
M  END
$$$$
