NCL.pdb
     RDKit          3D

 23 22  0  0  1  0  0  0  0  0999 V2000
   27.9573  -14.1326  -22.9375 N   0  0  0  0  0  0  0  0  0  0  0  0
   26.6010  -14.0616  -22.4908 C   0  0  0  0  0  0  0  0  0  0  0  0
   25.8071  -14.8537  -23.0405 O   0  0  0  0  0  0  0  0  0  0  0  0
   26.3050  -13.0797  -21.4528 C   0  0  0  0  0  0  0  0  0  0  0  0
   27.4655  -12.2396  -21.0001 C   0  0  2  0  0  0  0  0  0  0  0  0
   28.1536  -13.0280  -19.9832 N   0  0  0  0  0  0  0  0  0  0  0  0
   26.8946  -11.0425  -20.2827 C   0  0  0  0  0  0  0  0  0  0  0  0
   26.2220  -10.1619  -20.8689 O   0  0  0  0  0  0  0  0  0  0  0  0
   27.0895  -10.8405  -18.8780 N   0  0  0  0  0  0  0  0  0  0  0  0
   26.5638   -9.7336  -18.1432 C   0  0  1  0  0  0  0  0  0  0  0  0
   26.2689  -10.1997  -16.7320 C   0  0  0  0  0  0  0  0  0  0  0  0
   27.7090  -10.8712  -15.8957 S   0  0  0  0  0  0  0  0  0  0  0  0
   27.5397   -8.6048  -18.0322 C   0  0  0  0  0  0  0  0  0  0  0  0
   27.2433   -7.5361  -17.4353 O   0  0  0  0  0  0  0  0  0  0  0  0
   32.0673   -6.0969  -16.5197 C   0  0  0  0  0  0  0  0  0  0  0  0
   32.1937   -7.2045  -17.5245 C   0  0  1  0  0  0  0  0  0  0  0  0
   33.4402   -7.9789  -17.0853 C   0  0  0  0  0  0  0  0  0  0  0  0
   31.0492   -8.0318  -17.8401 C   0  0  0  0  0  0  0  0  0  0  0  0
   29.8244   -7.5756  -18.4827 C   0  0  2  0  0  0  0  0  0  0  0  0
   28.8372   -8.6582  -18.5787 N   0  0  0  0  0  0  0  0  0  0  0  0
   29.9879   -7.0816  -19.8342 C   0  0  0  0  0  0  0  0  0  0  0  0
   29.8122   -7.8554  -20.8262 O   0  0  0  0  0  0  0  0  0  0  0  0
   30.3243   -5.7830  -20.1187 O   0  0  0  0  0  0  0  0  0  0  0  0
  2  1  1  0
  2  4  1  0
  3  2  2  0
  5  6  1  1
  5  7  1  0
  5  4  1  0
  7  9  1  0
  7  8  2  0
  9 10  1  0
 10 13  1  0
 11 12  1  0
 10 11  1  1
 13 14  2  0
 13 20  1  0
 16 15  1  1
 16 17  1  0
 18 16  1  0
 19 18  1  6
 20 19  1  0
 21 19  1  0
 21 23  1  0
 22 21  2  0
M  END
$$$$
