NCL.pdb
     RDKit          3D

 23 22  0  0  1  0  0  0  0  0999 V2000
   19.5483  -16.8361  -18.6413 N   0  0  0  0  0  0  0  0  0  0  0  0
   20.0022  -16.2432  -19.8606 C   0  0  0  0  0  0  0  0  0  0  0  0
   20.1373  -17.0243  -20.8258 O   0  0  0  0  0  0  0  0  0  0  0  0
   20.2526  -14.8059  -19.8351 C   0  0  0  0  0  0  0  0  0  0  0  0
   19.9020  -14.1056  -18.5529 C   0  0  2  0  0  0  0  0  0  0  0  0
   18.4590  -13.8937  -18.5980 N   0  0  0  0  0  0  0  0  0  0  0  0
   20.5259  -12.7342  -18.6104 C   0  0  0  0  0  0  0  0  0  0  0  0
   21.7652  -12.5590  -18.6811 O   0  0  0  0  0  0  0  0  0  0  0  0
   19.7321  -11.5421  -18.5872 N   0  0  0  0  0  0  0  0  0  0  0  0
   20.2667  -10.2177  -18.6285 C   0  0  1  0  0  0  0  0  0  0  0  0
   19.2099   -9.2985  -19.2064 C   0  0  0  0  0  0  0  0  0  0  0  0
   17.6852   -9.2926  -18.2579 S   0  0  0  0  0  0  0  0  0  0  0  0
   20.6011   -9.6926  -17.2678 C   0  0  0  0  0  0  0  0  0  0  0  0
   19.9597  -10.0568  -16.2469 O   0  0  0  0  0  0  0  0  0  0  0  0
   25.4583  -10.0588  -14.8916 C   0  0  0  0  0  0  0  0  0  0  0  0
   23.9764   -9.8630  -15.0254 C   0  0  1  0  0  0  0  0  0  0  0  0
   23.4009  -10.3861  -13.7058 C   0  0  0  0  0  0  0  0  0  0  0  0
   23.4489   -8.5839  -15.4489 C   0  0  0  0  0  0  0  0  0  0  0  0
   22.0468   -8.2895  -15.7112 C   0  0  2  0  0  0  0  0  0  0  0  0
   21.6400   -8.7692  -17.0379 N   0  0  0  0  0  0  0  0  0  0  0  0
   21.6999   -6.8836  -15.6860 C   0  0  0  0  0  0  0  0  0  0  0  0
   21.4424   -6.2666  -16.7661 O   0  0  0  0  0  0  0  0  0  0  0  0
   21.6219   -6.1546  -14.5273 O   0  0  0  0  0  0  0  0  0  0  0  0
  2  1  1  0
  2  4  1  0
  3  2  2  0
  5  6  1  6
  5  7  1  0
  5  4  1  0
  7  9  1  0
  7  8  2  0
  9 10  1  0
 10 13  1  0
 11 12  1  0
 10 11  1  1
 13 14  2  0
 13 20  1  0
 16 15  1  1
 16 17  1  0
 18 16  1  0
 19 18  1  6
 20 19  1  0
 21 19  1  0
 21 23  1  0
 22 21  2  0
M  END
$$$$
