NCL.pdb
     RDKit          3D

 23 22  0  0  1  0  0  0  0  0999 V2000
   29.1626  -21.9965  -16.9469 N   0  0  0  0  0  0  0  0  0  0  0  0
   28.5597  -20.7419  -17.2736 C   0  0  0  0  0  0  0  0  0  0  0  0
   29.0462  -20.1469  -18.2582 O   0  0  0  0  0  0  0  0  0  0  0  0
   27.4551  -20.3066  -16.4254 C   0  0  0  0  0  0  0  0  0  0  0  0
   27.1031  -21.2259  -15.2904 C   0  0  2  0  0  0  0  0  0  0  0  0
   26.0664  -22.1141  -15.8057 N   0  0  0  0  0  0  0  0  0  0  0  0
   26.4411  -20.3864  -14.2272 C   0  0  0  0  0  0  0  0  0  0  0  0
   25.9128  -19.2769  -14.4752 O   0  0  0  0  0  0  0  0  0  0  0  0
   26.3769  -20.8116  -12.8609 N   0  0  0  0  0  0  0  0  0  0  0  0
   25.4594  -20.2903  -11.8976 C   0  0  1  0  0  0  0  0  0  0  0  0
   24.0523  -20.5376  -12.4022 C   0  0  0  0  0  0  0  0  0  0  0  0
   23.4943  -19.2956  -13.5728 S   0  0  0  0  0  0  0  0  0  0  0  0
   25.5711  -20.9745  -10.5716 C   0  0  0  0  0  0  0  0  0  0  0  0
   25.5741  -22.2305  -10.4784 O   0  0  0  0  0  0  0  0  0  0  0  0
   28.0007  -18.3697   -6.1182 C   0  0  0  0  0  0  0  0  0  0  0  0
   27.5893  -19.4086   -7.1201 C   0  0  1  0  0  0  0  0  0  0  0  0
   28.7617  -20.3938   -7.1529 C   0  0  0  0  0  0  0  0  0  0  0  0
   26.2840  -20.0266   -7.0301 C   0  0  0  0  0  0  0  0  0  0  0  0
   25.6903  -20.9041   -8.0294 C   0  0  2  0  0  0  0  0  0  0  0  0
   25.6791  -20.2726   -9.3549 N   0  0  0  0  0  0  0  0  0  0  0  0
   24.3173  -21.2863   -7.7724 C   0  0  0  0  0  0  0  0  0  0  0  0
   23.3855  -20.8854   -8.5371 O   0  0  0  0  0  0  0  0  0  0  0  0
   23.9497  -22.0886   -6.7229 O   0  0  0  0  0  0  0  0  0  0  0  0
  2  1  1  0
  2  4  1  0
  3  2  2  0
  5  6  1  6
  5  7  1  0
  5  4  1  0
  7  9  1  0
  7  8  2  0
  9 10  1  0
 10 13  1  0
 11 12  1  0
 10 11  1  6
 13 14  2  0
 13 20  1  0
 16 15  1  1
 16 17  1  0
 18 16  1  0
 19 18  1  1
 20 19  1  0
 21 19  1  0
 21 23  1  0
 22 21  2  0
M  END
$$$$
