NCL.pdb
     RDKit          3D

 23 22  0  0  1  0  0  0  0  0999 V2000
   14.1576   -9.0182  -18.2732 N   0  0  0  0  0  0  0  0  0  0  0  0
   15.5795   -9.0945  -18.4021 C   0  0  0  0  0  0  0  0  0  0  0  0
   16.0116   -9.2340  -19.5656 O   0  0  0  0  0  0  0  0  0  0  0  0
   16.3537   -9.0014  -17.1688 C   0  0  0  0  0  0  0  0  0  0  0  0
   17.7068   -9.6537  -17.1975 C   0  0  2  0  0  0  0  0  0  0  0  0
   17.4681  -11.0738  -16.9619 N   0  0  0  0  0  0  0  0  0  0  0  0
   18.4668   -9.1544  -15.9948 C   0  0  0  0  0  0  0  0  0  0  0  0
   18.5477   -9.8083  -14.9283 O   0  0  0  0  0  0  0  0  0  0  0  0
   19.1461   -7.8932  -16.0012 N   0  0  0  0  0  0  0  0  0  0  0  0
   20.0150   -7.4414  -14.9609 C   0  0  1  0  0  0  0  0  0  0  0  0
   21.1490   -8.4372  -14.8256 C   0  0  0  0  0  0  0  0  0  0  0  0
   22.4008   -7.9243  -13.6448 S   0  0  0  0  0  0  0  0  0  0  0  0
   20.6364   -6.1157  -15.2694 C   0  0  0  0  0  0  0  0  0  0  0  0
   21.2730   -5.9211  -16.3386 O   0  0  0  0  0  0  0  0  0  0  0  0
   17.7400   -1.5756  -15.0661 C   0  0  0  0  0  0  0  0  0  0  0  0
   18.8217   -2.5565  -15.4125 C   0  0  1  0  0  0  0  0  0  0  0  0
   19.1162   -2.2943  -16.8926 C   0  0  0  0  0  0  0  0  0  0  0  0
   19.9958   -2.6679  -14.5741 C   0  0  0  0  0  0  0  0  0  0  0  0
   21.0480   -3.6649  -14.7161 C   0  0  2  0  0  0  0  0  0  0  0  0
   20.5539   -5.0107  -14.3992 N   0  0  0  0  0  0  0  0  0  0  0  0
   22.2009   -3.4661  -13.8626 C   0  0  0  0  0  0  0  0  0  0  0  0
   22.4954   -4.3226  -12.9718 O   0  0  0  0  0  0  0  0  0  0  0  0
   23.0272   -2.3767  -13.9658 O   0  0  0  0  0  0  0  0  0  0  0  0
  2  1  1  0
  2  4  1  0
  3  2  2  0
  5  6  1  1
  5  7  1  0
  5  4  1  0
  7  9  1  0
  7  8  2  0
  9 10  1  0
 10 13  1  0
 11 12  1  0
 10 11  1  6
 13 14  2  0
 13 20  1  0
 16 15  1  1
 16 17  1  0
 18 16  1  0
 19 18  1  1
 20 19  1  0
 21 19  1  0
 21 23  1  0
 22 21  2  0
M  END
$$$$
