NCL.pdb
     RDKit          3D

 23 22  0  0  1  0  0  0  0  0999 V2000
   21.3400  -14.2590  -19.7282 N   0  0  0  0  0  0  0  0  0  0  0  0
   21.8553  -12.9307  -19.8463 C   0  0  0  0  0  0  0  0  0  0  0  0
   22.5716  -12.7141  -20.8463 O   0  0  0  0  0  0  0  0  0  0  0  0
   21.4872  -11.9904  -18.7930 C   0  0  0  0  0  0  0  0  0  0  0  0
   22.1920  -10.6640  -18.8274 C   0  0  2  0  0  0  0  0  0  0  0  0
   23.5440  -10.9201  -18.3418 N   0  0  0  0  0  0  0  0  0  0  0  0
   21.5373   -9.7856  -17.7915 C   0  0  0  0  0  0  0  0  0  0  0  0
   20.3523   -9.3898  -17.8938 O   0  0  0  0  0  0  0  0  0  0  0  0
   22.2375   -9.3488  -16.6206 N   0  0  0  0  0  0  0  0  0  0  0  0
   21.7008   -8.4468  -15.6512 C   0  0  1  0  0  0  0  0  0  0  0  0
   22.5996   -8.4731  -14.4316 C   0  0  0  0  0  0  0  0  0  0  0  0
   22.5463  -10.0365  -13.5499 S   0  0  0  0  0  0  0  0  0  0  0  0
   21.6728   -7.0325  -16.1388 C   0  0  0  0  0  0  0  0  0  0  0  0
   22.5180   -6.6070  -16.9700 O   0  0  0  0  0  0  0  0  0  0  0  0
   20.5029   -3.0904  -19.2398 C   0  0  0  0  0  0  0  0  0  0  0  0
   19.5549   -4.1569  -18.7748 C   0  0  1  0  0  0  0  0  0  0  0  0
   18.9776   -4.7449  -20.0660 C   0  0  0  0  0  0  0  0  0  0  0  0
   19.9878   -5.1397  -17.8049 C   0  0  0  0  0  0  0  0  0  0  0  0
   20.3785   -4.8595  -16.4301 C   0  0  2  0  0  0  0  0  0  0  0  0
   20.7144   -6.0935  -15.7089 N   0  0  0  0  0  0  0  0  0  0  0  0
   19.3669   -4.2057  -15.6259 C   0  0  0  0  0  0  0  0  0  0  0  0
   19.3038   -2.9378  -15.5801 O   0  0  0  0  0  0  0  0  0  0  0  0
   18.4361   -4.8951  -14.8919 O   0  0  0  0  0  0  0  0  0  0  0  0
  2  1  1  0
  2  4  1  0
  3  2  2  0
  5  6  1  1
  5  7  1  0
  5  4  1  0
  7  9  1  0
  7  8  2  0
  9 10  1  0
 10 13  1  0
 11 12  1  0
 10 11  1  1
 13 14  2  0
 13 20  1  0
 16 15  1  6
 16 17  1  0
 18 16  1  0
 19 18  1  6
 20 19  1  0
 21 19  1  0
 21 23  1  0
 22 21  2  0
M  END
$$$$
