NCL.pdb
     RDKit          3D

 23 22  0  0  1  0  0  0  0  0999 V2000
   23.0703  -15.9104  -18.1128 N   0  0  0  0  0  0  0  0  0  0  0  0
   24.0502  -16.2518  -17.1293 C   0  0  0  0  0  0  0  0  0  0  0  0
   25.1382  -15.6443  -17.2144 O   0  0  0  0  0  0  0  0  0  0  0  0
   23.6678  -17.2623  -16.1485 C   0  0  0  0  0  0  0  0  0  0  0  0
   24.7359  -18.2539  -15.7836 C   0  0  2  0  0  0  0  0  0  0  0  0
   24.8752  -19.1314  -16.9411 N   0  0  0  0  0  0  0  0  0  0  0  0
   24.1845  -19.1131  -14.6740 C   0  0  0  0  0  0  0  0  0  0  0  0
   23.0177  -19.5710  -14.6913 O   0  0  0  0  0  0  0  0  0  0  0  0
   24.9687  -19.4588  -13.5262 N   0  0  0  0  0  0  0  0  0  0  0  0
   24.7294  -20.6009  -12.7019 C   0  0  1  0  0  0  0  0  0  0  0  0
   25.0870  -21.8409  -13.4958 C   0  0  0  0  0  0  0  0  0  0  0  0
   25.0519  -23.3427  -12.5120 S   0  0  0  0  0  0  0  0  0  0  0  0
   25.5848  -20.6103  -11.4742 C   0  0  0  0  0  0  0  0  0  0  0  0
   26.8213  -20.3785  -11.5330 O   0  0  0  0  0  0  0  0  0  0  0  0
   28.8126  -20.0900   -7.4428 C   0  0  0  0  0  0  0  0  0  0  0  0
   27.4407  -19.4906   -7.5477 C   0  0  1  0  0  0  0  0  0  0  0  0
   27.6471  -18.0056   -7.2339 C   0  0  0  0  0  0  0  0  0  0  0  0
   26.6213  -19.7534   -8.7110 C   0  0  0  0  0  0  0  0  0  0  0  0
   25.8951  -20.9879   -8.9756 C   0  0  2  0  0  0  0  0  0  0  0  0
   25.0746  -20.8749  -10.1879 N   0  0  0  0  0  0  0  0  0  0  0  0
   24.9827  -21.3994   -7.9289 C   0  0  0  0  0  0  0  0  0  0  0  0
   23.7345  -21.4664   -8.1552 O   0  0  0  0  0  0  0  0  0  0  0  0
   25.3986  -21.7406   -6.6676 O   0  0  0  0  0  0  0  0  0  0  0  0
  2  1  1  0
  2  4  1  0
  3  2  2  0
  5  6  1  6
  5  7  1  0
  5  4  1  0
  7  9  1  0
  7  8  2  0
  9 10  1  0
 10 13  1  0
 11 12  1  0
 10 11  1  6
 13 14  2  0
 13 20  1  0
 16 15  1  6
 16 17  1  0
 18 16  1  0
 19 18  1  1
 20 19  1  0
 21 19  1  0
 21 23  1  0
 22 21  2  0
M  END
$$$$
