NCL.pdb
     RDKit          3D

 23 22  0  0  1  0  0  0  0  0999 V2000
   39.3763   -7.5596   -8.9988 N   0  0  0  0  0  0  0  0  0  0  0  0
   38.4705   -7.0529   -9.9822 C   0  0  0  0  0  0  0  0  0  0  0  0
   37.7690   -7.9068  -10.5641 O   0  0  0  0  0  0  0  0  0  0  0  0
   38.4716   -5.6085  -10.1895 C   0  0  0  0  0  0  0  0  0  0  0  0
   38.4892   -5.1555  -11.6219 C   0  0  2  0  0  0  0  0  0  0  0  0
   39.8499   -5.3875  -12.0951 N   0  0  0  0  0  0  0  0  0  0  0  0
   38.2996   -3.6597  -11.6175 C   0  0  0  0  0  0  0  0  0  0  0  0
   39.2442   -2.8591  -11.8131 O   0  0  0  0  0  0  0  0  0  0  0  0
   37.0183   -3.0618  -11.3877 N   0  0  0  0  0  0  0  0  0  0  0  0
   36.7636   -1.6570  -11.4436 C   0  0  1  0  0  0  0  0  0  0  0  0
   37.0850   -1.1731  -12.8430 C   0  0  0  0  0  0  0  0  0  0  0  0
   36.4342   -2.2463  -14.1271 S   0  0  0  0  0  0  0  0  0  0  0  0
   35.3270   -1.3251  -11.1892 C   0  0  0  0  0  0  0  0  0  0  0  0
   34.4138   -2.1724  -11.3747 O   0  0  0  0  0  0  0  0  0  0  0  0
   33.9298   -1.6548   -6.2370 C   0  0  0  0  0  0  0  0  0  0  0  0
   34.2519   -1.7058   -7.7020 C   0  0  1  0  0  0  0  0  0  0  0  0
   32.9914   -2.2858   -8.3507 C   0  0  0  0  0  0  0  0  0  0  0  0
   34.7910   -0.5392   -8.3672 C   0  0  0  0  0  0  0  0  0  0  0  0
   34.1694    0.1653   -9.4801 C   0  0  2  0  0  0  0  0  0  0  0  0
   34.9027   -0.0619  -10.7317 N   0  0  0  0  0  0  0  0  0  0  0  0
   34.0963    1.6040   -9.3314 C   0  0  0  0  0  0  0  0  0  0  0  0
   33.0508    2.1481   -8.8573 O   0  0  0  0  0  0  0  0  0  0  0  0
   35.1247    2.4433   -9.6752 O   0  0  0  0  0  0  0  0  0  0  0  0
  2  1  1  0
  2  4  1  0
  3  2  2  0
  5  6  1  1
  5  7  1  0
  5  4  1  0
  7  9  1  0
  7  8  2  0
  9 10  1  0
 10 13  1  0
 11 12  1  0
 10 11  1  6
 13 14  2  0
 13 20  1  0
 16 15  1  1
 16 17  1  0
 18 16  1  0
 19 18  1  1
 20 19  1  0
 21 19  1  0
 21 23  1  0
 22 21  2  0
M  END
$$$$
