NCL.pdb
     RDKit          3D

 23 22  0  0  1  0  0  0  0  0999 V2000
   19.5898  -24.1376   -9.7672 N   0  0  0  0  0  0  0  0  0  0  0  0
   18.5160  -23.8082   -8.8826 C   0  0  0  0  0  0  0  0  0  0  0  0
   18.3799  -22.5938   -8.6240 O   0  0  0  0  0  0  0  0  0  0  0  0
   17.7107  -24.9204   -8.3892 C   0  0  0  0  0  0  0  0  0  0  0  0
   18.1095  -26.2828   -8.8812 C   0  0  2  0  0  0  0  0  0  0  0  0
   17.6717  -26.3468  -10.2717 N   0  0  0  0  0  0  0  0  0  0  0  0
   17.2705  -27.2885   -8.1341 C   0  0  0  0  0  0  0  0  0  0  0  0
   16.0455  -27.1232   -7.9253 O   0  0  0  0  0  0  0  0  0  0  0  0
   17.8292  -28.5012   -7.6155 N   0  0  0  0  0  0  0  0  0  0  0  0
   17.0713  -29.5241   -6.9668 C   0  0  1  0  0  0  0  0  0  0  0  0
   17.7929  -30.8423   -7.1599 C   0  0  0  0  0  0  0  0  0  0  0  0
   19.5371  -30.7594   -6.7411 S   0  0  0  0  0  0  0  0  0  0  0  0
   16.9577  -29.3039   -5.4912 C   0  0  0  0  0  0  0  0  0  0  0  0
   16.2589  -30.0601   -4.7657 O   0  0  0  0  0  0  0  0  0  0  0  0
   19.0794  -28.6426   -0.3726 C   0  0  0  0  0  0  0  0  0  0  0  0
   19.1331  -27.5515   -1.4016 C   0  0  1  0  0  0  0  0  0  0  0  0
   20.4753  -26.8567   -1.1527 C   0  0  0  0  0  0  0  0  0  0  0  0
   18.8562  -27.8497   -2.7903 C   0  0  0  0  0  0  0  0  0  0  0  0
   17.5322  -28.0087   -3.3759 C   0  0  2  0  0  0  0  0  0  0  0  0
   17.6140  -28.2524   -4.8215 N   0  0  0  0  0  0  0  0  0  0  0  0
   16.6539  -26.8671   -3.2260 C   0  0  0  0  0  0  0  0  0  0  0  0
   16.5066  -26.0409   -4.1798 O   0  0  0  0  0  0  0  0  0  0  0  0
   15.9407  -26.6190   -2.0814 O   0  0  0  0  0  0  0  0  0  0  0  0
  2  1  1  0
  2  4  1  0
  3  2  2  0
  5  6  1  6
  5  7  1  0
  5  4  1  0
  7  9  1  0
  7  8  2  0
  9 10  1  0
 10 13  1  0
 11 12  1  0
 10 11  1  1
 13 14  2  0
 13 20  1  0
 16 15  1  1
 16 17  1  0
 18 16  1  0
 19 18  1  6
 20 19  1  0
 21 19  1  0
 21 23  1  0
 22 21  2  0
M  END
$$$$
