NCL.pdb
     RDKit          3D

 23 22  0  0  1  0  0  0  0  0999 V2000
   19.0631  -13.3232  -19.7224 N   0  0  0  0  0  0  0  0  0  0  0  0
   17.9045  -12.8174  -19.0547 C   0  0  0  0  0  0  0  0  0  0  0  0
   16.8060  -13.1651  -19.5369 O   0  0  0  0  0  0  0  0  0  0  0  0
   18.1387  -11.9608  -17.8969 C   0  0  0  0  0  0  0  0  0  0  0  0
   19.5788  -11.7388  -17.5308 C   0  0  2  0  0  0  0  0  0  0  0  0
   19.9799  -12.9150  -16.7659 N   0  0  0  0  0  0  0  0  0  0  0  0
   19.6189  -10.5812  -16.5655 C   0  0  0  0  0  0  0  0  0  0  0  0
   19.0820  -10.6274  -15.4337 O   0  0  0  0  0  0  0  0  0  0  0  0
   20.2783   -9.3513  -16.8887 N   0  0  0  0  0  0  0  0  0  0  0  0
   20.3657   -8.2292  -16.0086 C   0  0  1  0  0  0  0  0  0  0  0  0
   21.8195   -8.0397  -15.6263 C   0  0  0  0  0  0  0  0  0  0  0  0
   22.3340   -9.0923  -14.2656 S   0  0  0  0  0  0  0  0  0  0  0  0
   19.9183   -6.9569  -16.6567 C   0  0  0  0  0  0  0  0  0  0  0  0
   20.3074   -6.6350  -17.8105 O   0  0  0  0  0  0  0  0  0  0  0  0
   14.7338   -5.0161  -16.0837 C   0  0  0  0  0  0  0  0  0  0  0  0
   16.0768   -5.2606  -16.7072 C   0  0  1  0  0  0  0  0  0  0  0  0
   15.8073   -5.2438  -18.2150 C   0  0  0  0  0  0  0  0  0  0  0  0
   17.2229   -4.4818  -16.2903 C   0  0  0  0  0  0  0  0  0  0  0  0
   18.6113   -4.7723  -16.6206 C   0  0  2  0  0  0  0  0  0  0  0  0
   19.0447   -6.0454  -16.0314 N   0  0  0  0  0  0  0  0  0  0  0  0
   19.5700   -3.7886  -16.1619 C   0  0  0  0  0  0  0  0  0  0  0  0
   19.5619   -2.6122  -16.6413 O   0  0  0  0  0  0  0  0  0  0  0  0
   20.5130   -4.0558  -15.2029 O   0  0  0  0  0  0  0  0  0  0  0  0
  2  1  1  0
  2  4  1  0
  3  2  2  0
  5  6  1  1
  5  7  1  0
  5  4  1  0
  7  9  1  0
  7  8  2  0
  9 10  1  0
 10 13  1  0
 11 12  1  0
 10 11  1  6
 13 14  2  0
 13 20  1  0
 16 15  1  1
 16 17  1  0
 18 16  1  0
 19 18  1  1
 20 19  1  0
 21 19  1  0
 21 23  1  0
 22 21  2  0
M  END
$$$$
