GDD.pdb
     RDKit          3D

 21 20  0  0  1  0  0  0  0  0999 V2000
    6.8419  -19.6242   21.4959 N   0  0  0  0  0  0  0  0  0  0  0  0
    6.9462  -20.9282   22.0914 C   0  0  0  0  0  0  0  0  0  0  0  0
    7.1222  -20.7938   23.5678 C   0  0  0  0  0  0  0  0  0  0  0  0
    7.3058  -19.6648   24.0539 O   0  0  0  0  0  0  0  0  0  0  0  0
    7.0884  -21.9043   24.4418 N   0  0  0  0  0  0  0  0  0  0  0  0
    7.3304  -21.7254   25.8459 C   0  0  1  0  0  0  0  0  0  0  0  0
    6.5847  -22.7271   26.7061 C   0  0  0  0  0  0  0  0  0  0  0  0
    6.7469  -22.5085   28.1435 C   0  0  0  0  0  0  0  0  0  0  0  0
    7.3748  -21.5408   28.6350 O   0  0  0  0  0  0  0  0  0  0  0  0
    8.7916  -21.7922   26.0803 C   0  0  0  0  0  0  0  0  0  0  0  0
    9.4441  -22.7416   25.6315 O   0  0  0  0  0  0  0  0  0  0  0  0
    6.1775  -23.4174   29.0110 O   0  0  0  0  0  0  0  0  0  0  0  0
    9.5100  -20.8018   26.8113 N   0  0  0  0  0  0  0  0  0  0  0  0
   10.9187  -20.8082   26.9559 C   0  0  1  0  0  0  0  0  0  0  0  0
   11.6517  -19.7106   26.2530 C   0  0  0  0  0  0  0  0  0  0  0  0
   13.1218  -19.8192   26.3604 C   0  0  0  0  0  0  0  0  0  0  0  0
   13.7393  -19.2454   27.2831 O   0  0  0  0  0  0  0  0  0  0  0  0
   11.2977  -20.7384   28.3939 C   0  0  0  0  0  0  0  0  0  0  0  0
   12.6099  -20.8665   28.7962 O   0  0  0  0  0  0  0  0  0  0  0  0
   13.8456  -20.5568   25.4441 O   0  0  0  0  0  0  0  0  0  0  0  0
   10.3984  -20.5591   29.2504 O   0  0  0  0  0  0  0  0  0  0  0  0
  1  2  1  0
  3  2  1  0
  3  4  2  0
  5  3  1  0
  6  5  1  0
  6 10  1  0
  6  7  1  1
  8 12  1  0
  8  7  1  0
  9  8  2  0
 10 13  1  0
 11 10  2  0
 13 14  1  0
 14 18  1  0
 14 15  1  6
 16 15  1  0
 17 16  2  0
 18 21  2  0
 18 19  1  0
 20 16  1  0
M  END
$$$$
