GDD.pdb
     RDKit          3D

 21 20  0  0  1  0  0  0  0  0999 V2000
    3.3148  -21.0902   21.4815 N   0  0  0  0  0  0  0  0  0  0  0  0
    3.9456  -19.8456   21.8263 C   0  0  0  0  0  0  0  0  0  0  0  0
    5.4293  -20.0040   21.7788 C   0  0  0  0  0  0  0  0  0  0  0  0
    5.9102  -21.1326   21.5791 O   0  0  0  0  0  0  0  0  0  0  0  0
    6.3160  -18.9169   21.9526 N   0  0  0  0  0  0  0  0  0  0  0  0
    7.7331  -19.1146   21.8299 C   0  0  1  0  0  0  0  0  0  0  0  0
    8.4472  -17.9165   21.2349 C   0  0  0  0  0  0  0  0  0  0  0  0
    8.3623  -17.8420   19.7763 C   0  0  0  0  0  0  0  0  0  0  0  0
    7.2830  -17.7508   19.1446 O   0  0  0  0  0  0  0  0  0  0  0  0
    8.2739  -19.4593   23.1652 C   0  0  0  0  0  0  0  0  0  0  0  0
    9.4609  -19.7843   23.2832 O   0  0  0  0  0  0  0  0  0  0  0  0
    9.5352  -17.8736   19.0510 O   0  0  0  0  0  0  0  0  0  0  0  0
    7.4878  -19.4383   24.3539 N   0  0  0  0  0  0  0  0  0  0  0  0
    7.9762  -19.8464   25.6190 C   0  0  1  0  0  0  0  0  0  0  0  0
    8.1048  -18.7684   26.6473 C   0  0  0  0  0  0  0  0  0  0  0  0
    8.7930  -19.2070   27.8796 C   0  0  0  0  0  0  0  0  0  0  0  0
    9.2412  -20.3692   27.9821 O   0  0  0  0  0  0  0  0  0  0  0  0
    7.1055  -20.9052   26.1996 C   0  0  0  0  0  0  0  0  0  0  0  0
    5.9411  -21.2978   25.5750 O   0  0  0  0  0  0  0  0  0  0  0  0
    8.9561  -18.3430   28.9447 O   0  0  0  0  0  0  0  0  0  0  0  0
    7.4458  -21.4461   27.2795 O   0  0  0  0  0  0  0  0  0  0  0  0
  1  2  1  0
  3  2  1  0
  3  4  2  0
  5  3  1  0
  6  5  1  0
  6 10  1  0
  6  7  1  1
  8 12  1  0
  8  7  1  0
  9  8  2  0
 10 13  1  0
 11 10  2  0
 13 14  1  0
 14 18  1  0
 14 15  1  1
 16 15  1  0
 17 16  2  0
 18 21  2  0
 18 19  1  0
 20 16  1  0
M  END
$$$$
