GDD.pdb
     RDKit          3D

 21 20  0  0  1  0  0  0  0  0999 V2000
    8.7518  -14.8827   16.0402 N   0  0  0  0  0  0  0  0  0  0  0  0
    9.4672  -14.1994   17.0829 C   0  0  0  0  0  0  0  0  0  0  0  0
   10.6561  -15.0061   17.4887 C   0  0  0  0  0  0  0  0  0  0  0  0
   11.0606  -15.9072   16.7343 O   0  0  0  0  0  0  0  0  0  0  0  0
   11.3454  -14.7864   18.7030 N   0  0  0  0  0  0  0  0  0  0  0  0
   12.7544  -15.0498   18.7910 C   0  0  1  0  0  0  0  0  0  0  0  0
   13.5703  -14.2342   17.8069 C   0  0  0  0  0  0  0  0  0  0  0  0
   15.0041  -14.5223   17.8458 C   0  0  0  0  0  0  0  0  0  0  0  0
   15.4871  -15.6012   18.2638 O   0  0  0  0  0  0  0  0  0  0  0  0
   13.1886  -14.8073   20.1864 C   0  0  0  0  0  0  0  0  0  0  0  0
   13.1508  -13.6628   20.6526 O   0  0  0  0  0  0  0  0  0  0  0  0
   15.8776  -13.5535   17.3974 O   0  0  0  0  0  0  0  0  0  0  0  0
   13.6598  -15.8410   21.0471 N   0  0  0  0  0  0  0  0  0  0  0  0
   13.3674  -15.8967   22.4316 C   0  0  1  0  0  0  0  0  0  0  0  0
   12.2636  -16.8243   22.8283 C   0  0  0  0  0  0  0  0  0  0  0  0
   11.9840  -16.8227   24.2797 C   0  0  0  0  0  0  0  0  0  0  0  0
   12.6263  -16.0803   25.0533 O   0  0  0  0  0  0  0  0  0  0  0  0
   14.5748  -16.2948   23.2061 C   0  0  0  0  0  0  0  0  0  0  0  0
   15.7660  -16.5864   22.5767 O   0  0  0  0  0  0  0  0  0  0  0  0
   11.0075  -17.6409   24.8131 O   0  0  0  0  0  0  0  0  0  0  0  0
   14.4981  -16.3637   24.4566 O   0  0  0  0  0  0  0  0  0  0  0  0
  1  2  1  0
  3  2  1  0
  3  4  2  0
  5  3  1  0
  6  5  1  0
  6 10  1  0
  6  7  1  6
  8 12  1  0
  8  7  1  0
  9  8  2  0
 10 13  1  0
 11 10  2  0
 13 14  1  0
 14 18  1  0
 14 15  1  6
 16 15  1  0
 17 16  2  0
 18 21  2  0
 18 19  1  0
 20 16  1  0
M  END
$$$$
