GDD.pdb
     RDKit          3D

 21 20  0  0  1  0  0  0  0  0999 V2000
    8.4401  -19.8613   19.8971 N   0  0  0  0  0  0  0  0  0  0  0  0
    8.7091  -21.0783   20.6129 C   0  0  0  0  0  0  0  0  0  0  0  0
    8.0396  -21.0355   21.9466 C   0  0  0  0  0  0  0  0  0  0  0  0
    7.3617  -20.0391   22.2504 O   0  0  0  0  0  0  0  0  0  0  0  0
    8.1453  -22.0878   22.8845 N   0  0  0  0  0  0  0  0  0  0  0  0
    7.4996  -21.9827   24.1629 C   0  0  1  0  0  0  0  0  0  0  0  0
    6.8318  -23.2737   24.5952 C   0  0  0  0  0  0  0  0  0  0  0  0
    6.0997  -23.1668   25.8573 C   0  0  0  0  0  0  0  0  0  0  0  0
    6.3822  -23.8273   26.8850 O   0  0  0  0  0  0  0  0  0  0  0  0
    8.5016  -21.5322   25.1566 C   0  0  0  0  0  0  0  0  0  0  0  0
    8.1554  -21.3106   26.3226 O   0  0  0  0  0  0  0  0  0  0  0  0
    5.0371  -22.2899   25.9241 O   0  0  0  0  0  0  0  0  0  0  0  0
    9.8773  -21.3335   24.8415 N   0  0  0  0  0  0  0  0  0  0  0  0
   10.8331  -20.8712   25.7787 C   0  0  1  0  0  0  0  0  0  0  0  0
   12.0841  -21.6829   25.8890 C   0  0  0  0  0  0  0  0  0  0  0  0
   11.8721  -23.0151   26.4931 C   0  0  0  0  0  0  0  0  0  0  0  0
   11.2144  -23.1410   27.5483 O   0  0  0  0  0  0  0  0  0  0  0  0
   11.2422  -19.4749   25.4638 C   0  0  0  0  0  0  0  0  0  0  0  0
   10.7355  -18.8094   24.3681 O   0  0  0  0  0  0  0  0  0  0  0  0
   12.3957  -24.1499   25.9052 O   0  0  0  0  0  0  0  0  0  0  0  0
   12.0653  -18.8994   26.2160 O   0  0  0  0  0  0  0  0  0  0  0  0
  1  2  1  0
  3  2  1  0
  3  4  2  0
  5  3  1  0
  6  5  1  0
  6 10  1  0
  6  7  1  1
  8 12  1  0
  8  7  1  0
  9  8  2  0
 10 13  1  0
 11 10  2  0
 13 14  1  0
 14 18  1  0
 14 15  1  6
 16 15  1  0
 17 16  2  0
 18 21  2  0
 18 19  1  0
 20 16  1  0
M  END
$$$$
