GDD.pdb
     RDKit          3D

 21 20  0  0  1  0  0  0  0  0999 V2000
    6.5842  -13.3445   19.9695 N   0  0  0  0  0  0  0  0  0  0  0  0
    7.7173  -13.4237   19.0887 C   0  0  0  0  0  0  0  0  0  0  0  0
    8.2961  -14.7991   19.1367 C   0  0  0  0  0  0  0  0  0  0  0  0
    7.7919  -15.6402   19.9003 O   0  0  0  0  0  0  0  0  0  0  0  0
    9.4007  -15.1872   18.3447 N   0  0  0  0  0  0  0  0  0  0  0  0
   10.0019  -16.4784   18.5277 C   0  0  1  0  0  0  0  0  0  0  0  0
   10.6590  -17.0079   17.2678 C   0  0  0  0  0  0  0  0  0  0  0  0
    9.7142  -17.5499   16.2912 C   0  0  0  0  0  0  0  0  0  0  0  0
    8.7725  -18.3231   16.5872 O   0  0  0  0  0  0  0  0  0  0  0  0
   10.9689  -16.3890   19.6463 C   0  0  0  0  0  0  0  0  0  0  0  0
   11.4048  -15.2863   19.9963 O   0  0  0  0  0  0  0  0  0  0  0  0
    9.8650  -17.1918   14.9677 O   0  0  0  0  0  0  0  0  0  0  0  0
   11.4397  -17.5276   20.3627 N   0  0  0  0  0  0  0  0  0  0  0  0
   11.5129  -17.5843   21.7759 C   0  0  1  0  0  0  0  0  0  0  0  0
   10.2361  -17.3158   22.5065 C   0  0  0  0  0  0  0  0  0  0  0  0
   10.3488  -16.2439   23.5179 C   0  0  0  0  0  0  0  0  0  0  0  0
    9.6463  -15.2133   23.4377 O   0  0  0  0  0  0  0  0  0  0  0  0
   12.0016  -18.9180   22.2217 C   0  0  0  0  0  0  0  0  0  0  0  0
   13.0252  -19.0368   23.1373 O   0  0  0  0  0  0  0  0  0  0  0  0
   11.2323  -16.3571   24.5734 O   0  0  0  0  0  0  0  0  0  0  0  0
   11.4656  -19.9496   21.7496 O   0  0  0  0  0  0  0  0  0  0  0  0
  1  2  1  0
  3  2  1  0
  3  4  2  0
  5  3  1  0
  6  5  1  0
  6 10  1  0
  6  7  1  6
  8 12  1  0
  8  7  1  0
  9  8  2  0
 10 13  1  0
 11 10  2  0
 13 14  1  0
 14 18  1  0
 14 15  1  1
 16 15  1  0
 17 16  2  0
 18 21  2  0
 18 19  1  0
 20 16  1  0
M  END
$$$$
