GDD.pdb
     RDKit          3D

 21 20  0  0  1  0  0  0  0  0999 V2000
   10.6560  -17.8549   17.5502 N   0  0  0  0  0  0  0  0  0  0  0  0
   10.5926  -18.5020   18.8321 C   0  0  0  0  0  0  0  0  0  0  0  0
   11.1036  -17.5779   19.8874 C   0  0  0  0  0  0  0  0  0  0  0  0
   11.5032  -16.4478   19.5588 O   0  0  0  0  0  0  0  0  0  0  0  0
   11.1523  -17.9368   21.2538 N   0  0  0  0  0  0  0  0  0  0  0  0
   11.6218  -16.9953   22.2311 C   0  0  1  0  0  0  0  0  0  0  0  0
   10.8977  -17.1111   23.5584 C   0  0  0  0  0  0  0  0  0  0  0  0
   11.2690  -16.0790   24.5265 C   0  0  0  0  0  0  0  0  0  0  0  0
   12.0960  -15.1667   24.2901 O   0  0  0  0  0  0  0  0  0  0  0  0
   13.0827  -17.1797   22.3933 C   0  0  0  0  0  0  0  0  0  0  0  0
   13.5457  -18.3151   22.5515 O   0  0  0  0  0  0  0  0  0  0  0  0
   10.6771  -16.1083   25.7722 O   0  0  0  0  0  0  0  0  0  0  0  0
   14.0114  -16.0988   22.3776 N   0  0  0  0  0  0  0  0  0  0  0  0
   15.4145  -16.2751   22.4548 C   0  0  1  0  0  0  0  0  0  0  0  0
   16.2414  -15.2341   21.7703 C   0  0  0  0  0  0  0  0  0  0  0  0
   17.6548  -15.6272   21.5900 C   0  0  0  0  0  0  0  0  0  0  0  0
   17.9973  -16.8275   21.6537 O   0  0  0  0  0  0  0  0  0  0  0  0
   15.8585  -16.3246   23.8748 C   0  0  0  0  0  0  0  0  0  0  0  0
   16.5803  -17.3926   24.3633 O   0  0  0  0  0  0  0  0  0  0  0  0
   18.6278  -14.6777   21.3472 O   0  0  0  0  0  0  0  0  0  0  0  0
   15.5657  -15.3708   24.6358 O   0  0  0  0  0  0  0  0  0  0  0  0
  1  2  1  0
  3  2  1  0
  3  4  2  0
  5  3  1  0
  6  5  1  0
  6 10  1  0
  6  7  1  1
  8 12  1  0
  8  7  1  0
  9  8  2  0
 10 13  1  0
 11 10  2  0
 13 14  1  0
 14 18  1  0
 14 15  1  6
 16 15  1  0
 17 16  2  0
 18 21  2  0
 18 19  1  0
 20 16  1  0
M  END
$$$$
