GDD.pdb
     RDKit          3D

 21 20  0  0  1  0  0  0  0  0999 V2000
   -0.3860  -20.4622   21.8996 N   0  0  0  0  0  0  0  0  0  0  0  0
    0.4435  -19.4230   22.4452 C   0  0  0  0  0  0  0  0  0  0  0  0
    1.8706  -19.6805   22.0904 C   0  0  0  0  0  0  0  0  0  0  0  0
    2.1671  -20.7390   21.5103 O   0  0  0  0  0  0  0  0  0  0  0  0
    2.9054  -18.7649   22.3885 N   0  0  0  0  0  0  0  0  0  0  0  0
    4.2548  -19.0441   21.9844 C   0  0  1  0  0  0  0  0  0  0  0  0
    4.9059  -17.8834   21.2576 C   0  0  0  0  0  0  0  0  0  0  0  0
    6.2232  -18.1967   20.7036 C   0  0  0  0  0  0  0  0  0  0  0  0
    7.3042  -17.8834   21.2561 O   0  0  0  0  0  0  0  0  0  0  0  0
    5.0303  -19.4352   23.1844 C   0  0  0  0  0  0  0  0  0  0  0  0
    4.9741  -18.7417   24.2064 O   0  0  0  0  0  0  0  0  0  0  0  0
    6.2830  -18.8760   19.5045 O   0  0  0  0  0  0  0  0  0  0  0  0
    5.8595  -20.5934   23.2335 N   0  0  0  0  0  0  0  0  0  0  0  0
    6.5265  -21.0257   24.4056 C   0  0  1  0  0  0  0  0  0  0  0  0
    6.3251  -22.4594   24.7796 C   0  0  0  0  0  0  0  0  0  0  0  0
    7.0001  -22.8418   26.0377 C   0  0  0  0  0  0  0  0  0  0  0  0
    8.2260  -23.0842   26.0570 O   0  0  0  0  0  0  0  0  0  0  0  0
    7.9939  -20.8058   24.2841 C   0  0  0  0  0  0  0  0  0  0  0  0
    8.7218  -20.2439   25.3110 O   0  0  0  0  0  0  0  0  0  0  0  0
    6.2917  -22.9397   27.2193 O   0  0  0  0  0  0  0  0  0  0  0  0
    8.5720  -21.1415   23.2222 O   0  0  0  0  0  0  0  0  0  0  0  0
  1  2  1  0
  3  2  1  0
  3  4  2  0
  5  3  1  0
  6  5  1  0
  6 10  1  0
  6  7  1  1
  8 12  1  0
  8  7  1  0
  9  8  2  0
 10 13  1  0
 11 10  2  0
 13 14  1  0
 14 18  1  0
 14 15  1  6
 16 15  1  0
 17 16  2  0
 18 21  2  0
 18 19  1  0
 20 16  1  0
M  END
$$$$
