GDD.pdb
     RDKit          3D

 21 20  0  0  1  0  0  0  0  0999 V2000
    5.0582  -23.9718   18.2395 N   0  0  0  0  0  0  0  0  0  0  0  0
    3.7019  -24.1341   18.6868 C   0  0  0  0  0  0  0  0  0  0  0  0
    3.4863  -23.3437   19.9349 C   0  0  0  0  0  0  0  0  0  0  0  0
    3.3748  -22.1084   19.8558 O   0  0  0  0  0  0  0  0  0  0  0  0
    3.4032  -23.9456   21.2112 N   0  0  0  0  0  0  0  0  0  0  0  0
    3.2339  -23.1327   22.3829 C   0  0  1  0  0  0  0  0  0  0  0  0
    2.1121  -23.6172   23.2808 C   0  0  0  0  0  0  0  0  0  0  0  0
    0.8131  -23.6982   22.6126 C   0  0  0  0  0  0  0  0  0  0  0  0
    0.2911  -22.7460   21.9857 O   0  0  0  0  0  0  0  0  0  0  0  0
    4.5249  -23.0836   23.1077 C   0  0  0  0  0  0  0  0  0  0  0  0
    4.6461  -22.3563   24.1001 O   0  0  0  0  0  0  0  0  0  0  0  0
    0.1200  -24.8893   22.6738 O   0  0  0  0  0  0  0  0  0  0  0  0
    5.6661  -23.8444   22.7201 N   0  0  0  0  0  0  0  0  0  0  0  0
    6.9321  -23.7234   23.3430 C   0  0  1  0  0  0  0  0  0  0  0  0
    7.5513  -22.3629   23.3036 C   0  0  0  0  0  0  0  0  0  0  0  0
    8.9641  -22.3443   23.7375 C   0  0  0  0  0  0  0  0  0  0  0  0
    9.5195  -23.3851   24.1502 O   0  0  0  0  0  0  0  0  0  0  0  0
    6.8526  -24.1282   24.7734 C   0  0  0  0  0  0  0  0  0  0  0  0
    5.7972  -24.8769   25.2487 O   0  0  0  0  0  0  0  0  0  0  0  0
    9.7015  -21.1773   23.6964 O   0  0  0  0  0  0  0  0  0  0  0  0
    7.7687  -23.7766   25.5554 O   0  0  0  0  0  0  0  0  0  0  0  0
  1  2  1  0
  3  2  1  0
  3  4  2  0
  5  3  1  0
  6  5  1  0
  6 10  1  0
  6  7  1  1
  8 12  1  0
  8  7  1  0
  9  8  2  0
 10 13  1  0
 11 10  2  0
 13 14  1  0
 14 18  1  0
 14 15  1  1
 16 15  1  0
 17 16  2  0
 18 21  2  0
 18 19  1  0
 20 16  1  0
M  END
$$$$
