GDD.pdb
     RDKit          3D

 21 20  0  0  1  0  0  0  0  0999 V2000
    4.0499  -19.3296   21.7736 N   0  0  0  0  0  0  0  0  0  0  0  0
    4.0510  -17.9237   22.0722 C   0  0  0  0  0  0  0  0  0  0  0  0
    5.3687  -17.3311   21.6963 C   0  0  0  0  0  0  0  0  0  0  0  0
    6.2982  -18.0866   21.3648 O   0  0  0  0  0  0  0  0  0  0  0  0
    5.6050  -15.9374   21.7017 N   0  0  0  0  0  0  0  0  0  0  0  0
    6.8597  -15.4162   21.2368 C   0  0  1  0  0  0  0  0  0  0  0  0
    6.7237  -14.0671   20.5579 C   0  0  0  0  0  0  0  0  0  0  0  0
    7.9456  -13.6140   19.8930 C   0  0  0  0  0  0  0  0  0  0  0  0
    9.0495  -14.2009   19.9880 O   0  0  0  0  0  0  0  0  0  0  0  0
    7.7934  -15.3529   22.3851 C   0  0  0  0  0  0  0  0  0  0  0  0
    7.3932  -14.9465   23.4820 O   0  0  0  0  0  0  0  0  0  0  0  0
    7.8831  -12.4759   19.1161 O   0  0  0  0  0  0  0  0  0  0  0  0
    9.1617  -15.7426   22.2997 N   0  0  0  0  0  0  0  0  0  0  0  0
    9.9913  -15.9301   23.4321 C   0  0  1  0  0  0  0  0  0  0  0  0
    9.5186  -16.9418   24.4266 C   0  0  0  0  0  0  0  0  0  0  0  0
   10.4440  -17.1288   25.5639 C   0  0  0  0  0  0  0  0  0  0  0  0
   11.6483  -17.4011   25.3697 O   0  0  0  0  0  0  0  0  0  0  0  0
   11.3629  -16.3316   23.0155 C   0  0  0  0  0  0  0  0  0  0  0  0
   12.4510  -16.1227   23.8357 O   0  0  0  0  0  0  0  0  0  0  0  0
    9.9990  -17.0069   26.8656 O   0  0  0  0  0  0  0  0  0  0  0  0
   11.5231  -16.8704   21.8937 O   0  0  0  0  0  0  0  0  0  0  0  0
  1  2  1  0
  3  2  1  0
  3  4  2  0
  5  3  1  0
  6  5  1  0
  6 10  1  0
  6  7  1  1
  8 12  1  0
  8  7  1  0
  9  8  2  0
 10 13  1  0
 11 10  2  0
 13 14  1  0
 14 18  1  0
 14 15  1  1
 16 15  1  0
 17 16  2  0
 18 21  2  0
 18 19  1  0
 20 16  1  0
M  END
$$$$
