GDD.pdb
     RDKit          3D

 21 20  0  0  1  0  0  0  0  0999 V2000
    7.9085  -12.2055   20.4080 N   0  0  0  0  0  0  0  0  0  0  0  0
    8.5106  -13.1560   19.5137 C   0  0  0  0  0  0  0  0  0  0  0  0
    8.4919  -14.5131   20.1356 C   0  0  0  0  0  0  0  0  0  0  0  0
    8.0098  -14.6496   21.2731 O   0  0  0  0  0  0  0  0  0  0  0  0
    9.0028  -15.6568   19.4807 N   0  0  0  0  0  0  0  0  0  0  0  0
    9.0874  -16.9098   20.1770 C   0  0  1  0  0  0  0  0  0  0  0  0
    8.9506  -18.1073   19.2567 C   0  0  0  0  0  0  0  0  0  0  0  0
    7.7139  -18.1141   18.4751 C   0  0  0  0  0  0  0  0  0  0  0  0
    7.6284  -17.6804   17.3018 O   0  0  0  0  0  0  0  0  0  0  0  0
   10.3664  -16.9439   20.9235 C   0  0  0  0  0  0  0  0  0  0  0  0
   11.4386  -16.8960   20.3099 O   0  0  0  0  0  0  0  0  0  0  0  0
    6.5743  -18.6264   19.0597 O   0  0  0  0  0  0  0  0  0  0  0  0
   10.4376  -17.0310   22.3443 N   0  0  0  0  0  0  0  0  0  0  0  0
   11.6556  -17.0121   23.0666 C   0  0  1  0  0  0  0  0  0  0  0  0
   12.5288  -15.8191   22.8420 C   0  0  0  0  0  0  0  0  0  0  0  0
   13.9334  -16.1644   22.5379 C   0  0  0  0  0  0  0  0  0  0  0  0
   14.3490  -17.3345   22.6801 O   0  0  0  0  0  0  0  0  0  0  0  0
   11.3977  -17.0980   24.5303 C   0  0  0  0  0  0  0  0  0  0  0  0
   12.4165  -17.3498   25.4240 O   0  0  0  0  0  0  0  0  0  0  0  0
   14.8174  -15.2024   22.0901 O   0  0  0  0  0  0  0  0  0  0  0  0
   10.2265  -16.9366   24.9505 O   0  0  0  0  0  0  0  0  0  0  0  0
  1  2  1  0
  3  2  1  0
  3  4  2  0
  5  3  1  0
  6  5  1  0
  6 10  1  0
  6  7  1  6
  8 12  1  0
  8  7  1  0
  9  8  2  0
 10 13  1  0
 11 10  2  0
 13 14  1  0
 14 18  1  0
 14 15  1  1
 16 15  1  0
 17 16  2  0
 18 21  2  0
 18 19  1  0
 20 16  1  0
M  END
$$$$
