GDD.pdb
     RDKit          3D

 21 20  0  0  1  0  0  0  0  0999 V2000
   -0.8031   -1.6418   15.9784 N   0  0  0  0  0  0  0  0  0  0  0  0
    0.5945   -1.5015   15.6736 C   0  0  0  0  0  0  0  0  0  0  0  0
    1.1245   -0.2571   16.3057 C   0  0  0  0  0  0  0  0  0  0  0  0
    0.3271    0.5467   16.8184 O   0  0  0  0  0  0  0  0  0  0  0  0
    2.5043    0.0471   16.3459 N   0  0  0  0  0  0  0  0  0  0  0  0
    2.9561    1.2729   16.9421 C   0  0  1  0  0  0  0  0  0  0  0  0
    4.4568    1.3071   17.1572 C   0  0  0  0  0  0  0  0  0  0  0  0
    4.9008    2.3705   18.0585 C   0  0  0  0  0  0  0  0  0  0  0  0
    6.0462    2.4209   18.5661 O   0  0  0  0  0  0  0  0  0  0  0  0
    2.5050    2.3995   16.0926 C   0  0  0  0  0  0  0  0  0  0  0  0
    2.7022    2.3677   14.8725 O   0  0  0  0  0  0  0  0  0  0  0  0
    4.0107    3.3771   18.3699 O   0  0  0  0  0  0  0  0  0  0  0  0
    1.8396    3.5486   16.6105 N   0  0  0  0  0  0  0  0  0  0  0  0
    1.4989    4.6741   15.8214 C   0  0  1  0  0  0  0  0  0  0  0  0
    2.5369    5.1234   14.8433 C   0  0  0  0  0  0  0  0  0  0  0  0
    2.4327    6.5542   14.4873 C   0  0  0  0  0  0  0  0  0  0  0  0
    1.5883    7.2906   15.0410 O   0  0  0  0  0  0  0  0  0  0  0  0
    0.2522    4.4147   15.0502 C   0  0  0  0  0  0  0  0  0  0  0  0
   -0.9536    4.9630   15.4316 O   0  0  0  0  0  0  0  0  0  0  0  0
    3.2657    7.1089   13.5355 O   0  0  0  0  0  0  0  0  0  0  0  0
    0.3090    3.6810   14.0339 O   0  0  0  0  0  0  0  0  0  0  0  0
  1  2  1  0
  3  2  1  0
  3  4  2  0
  5  3  1  0
  6  5  1  0
  6 10  1  0
  6  7  1  6
  8 12  1  0
  8  7  1  0
  9  8  2  0
 10 13  1  0
 11 10  2  0
 13 14  1  0
 14 18  1  0
 14 15  1  6
 16 15  1  0
 17 16  2  0
 18 21  2  0
 18 19  1  0
 20 16  1  0
M  END
$$$$
