SNH.pdb
     RDKit          3D

 25 25  0  0  1  0  0  0  0  0999 V2000
   23.0448  -12.4397  -20.4138 O   0  0  0  0  0  0  0  0  0  0  0  0
   23.6335  -11.5449  -19.4945 C   0  0  0  0  0  0  0  0  0  0  0  0
   22.4831  -10.8617  -18.7827 C   0  0  2  0  0  0  0  0  0  0  0  0
   21.4645  -10.4451  -19.7156 N   0  0  0  0  0  0  0  0  0  0  0  0
   22.9328   -9.7439  -17.9457 C   0  0  0  0  0  0  0  0  0  0  0  0
   23.1519   -9.9700  -16.7129 O   0  0  0  0  0  0  0  0  0  0  0  0
   24.6687   -5.4636  -16.0836 N   0  0  0  0  0  0  0  0  0  0  0  0
   24.9532   -5.3786  -17.4788 C   0  0  0  0  0  0  0  0  0  0  0  0
   25.7000   -4.4751  -17.8769 O   0  0  0  0  0  0  0  0  0  0  0  0
   24.3632   -6.3524  -18.4128 C   0  0  0  0  0  0  0  0  0  0  0  0
   23.5850   -7.3920  -17.6769 C   0  0  2  0  0  0  0  0  0  0  0  0
   23.1135   -8.4522  -18.5107 N   0  0  0  0  0  0  0  0  0  0  0  0
   22.4537   -6.6878  -16.9813 C   0  0  0  0  0  0  0  0  0  0  0  0
   21.4232   -6.3311  -17.6069 O   0  0  0  0  0  0  0  0  0  0  0  0
   22.4955   -6.3953  -15.5982 N   0  0  0  0  0  0  0  0  0  0  0  0
   21.3591   -5.7064  -14.9147 C   0  0  1  0  0  0  0  0  0  0  0  0
   20.9983   -6.6319  -13.7964 C   0  0  0  0  0  0  0  0  0  0  0  0
   19.9648   -7.6291  -14.0590 C   0  0  0  0  0  0  0  0  0  0  0  0
   19.1895   -7.8500  -15.1661 C   0  0  0  0  0  0  0  0  0  0  0  0
   18.4237   -8.9440  -14.9263 N   0  0  0  0  0  0  0  0  0  0  0  0
   18.7176   -9.3824  -13.7149 C   0  0  0  0  0  0  0  0  0  0  0  0
   19.6417   -8.6088  -13.1731 N   0  0  0  0  0  0  0  0  0  0  0  0
   21.9212   -4.4272  -14.3577 C   0  0  0  0  0  0  0  0  0  0  0  0
   21.0287   -3.4488  -13.8842 O   0  0  0  0  0  0  0  0  0  0  0  0
   23.1147   -4.2094  -14.3022 O   0  0  0  0  0  0  0  0  0  0  0  0
  1  2  1  0
  2  3  1  0
  3  5  1  0
  3  4  1  6
  5  6  2  0
  7  8  1  0
  8 10  1  0
  9  8  2  0
 11 10  1  6
 11 13  1  0
 12 11  1  0
 12  5  1  0
 13 15  1  0
 14 13  2  0
 15 16  1  0
 16 23  1  0
 16 17  1  1
 18 17  1  0
 19 18  2  0
 20 19  1  0
 21 20  1  0
 21 22  2  0
 22 18  1  0
 23 25  2  0
 23 24  1  0
M  END
$$$$
