SNH.pdb
     RDKit          3D

 25 25  0  0  1  0  0  0  0  0999 V2000
   15.8444  -13.4724  -16.9218 O   0  0  0  0  0  0  0  0  0  0  0  0
   16.7479  -12.4046  -16.7321 C   0  0  0  0  0  0  0  0  0  0  0  0
   18.1328  -13.0190  -16.7686 C   0  0  2  0  0  0  0  0  0  0  0  0
   18.2340  -14.1349  -15.8597 N   0  0  0  0  0  0  0  0  0  0  0  0
   19.1867  -12.0289  -16.5211 C   0  0  0  0  0  0  0  0  0  0  0  0
   19.2405  -11.4871  -15.3711 O   0  0  0  0  0  0  0  0  0  0  0  0
   23.8840   -8.9751  -18.8281 N   0  0  0  0  0  0  0  0  0  0  0  0
   23.2976   -9.7686  -17.7978 C   0  0  0  0  0  0  0  0  0  0  0  0
   23.6342   -9.5591  -16.6251 O   0  0  0  0  0  0  0  0  0  0  0  0
   22.3145  -10.8108  -18.1385 C   0  0  0  0  0  0  0  0  0  0  0  0
   21.0900  -10.6840  -17.2945 C   0  0  2  0  0  0  0  0  0  0  0  0
   20.1129  -11.6956  -17.5466 N   0  0  0  0  0  0  0  0  0  0  0  0
   20.5347   -9.3063  -17.5248 C   0  0  0  0  0  0  0  0  0  0  0  0
   19.8316   -9.0456  -18.5338 O   0  0  0  0  0  0  0  0  0  0  0  0
   20.7760   -8.2446  -16.6219 N   0  0  0  0  0  0  0  0  0  0  0  0
   20.1360   -6.9070  -16.8061 C   0  0  1  0  0  0  0  0  0  0  0  0
   18.6776   -7.1768  -16.6119 C   0  0  0  0  0  0  0  0  0  0  0  0
   17.7898   -6.0219  -16.5139 C   0  0  0  0  0  0  0  0  0  0  0  0
   18.0385   -4.6825  -16.6549 C   0  0  0  0  0  0  0  0  0  0  0  0
   16.8583   -4.0249  -16.5307 N   0  0  0  0  0  0  0  0  0  0  0  0
   15.9157   -4.9271  -16.3219 C   0  0  0  0  0  0  0  0  0  0  0  0
   16.4506   -6.1353  -16.3078 N   0  0  0  0  0  0  0  0  0  0  0  0
   20.6486   -6.0418  -15.6874 C   0  0  0  0  0  0  0  0  0  0  0  0
   21.6037   -6.5773  -14.8048 O   0  0  0  0  0  0  0  0  0  0  0  0
   20.2685   -4.9006  -15.5195 O   0  0  0  0  0  0  0  0  0  0  0  0
  1  2  1  0
  2  3  1  0
  3  5  1  0
  3  4  1  1
  5  6  2  0
  7  8  1  0
  8 10  1  0
  9  8  2  0
 11 10  1  6
 11 13  1  0
 12 11  1  0
 12  5  1  0
 13 15  1  0
 14 13  2  0
 15 16  1  0
 16 23  1  0
 16 17  1  1
 18 17  1  0
 19 18  2  0
 20 19  1  0
 21 20  1  0
 21 22  2  0
 22 18  1  0
 23 25  2  0
 23 24  1  0
M  END
$$$$
