SNH.pdb
     RDKit          3D

 25 25  0  0  1  0  0  0  0  0999 V2000
   16.8900   -7.4685  -18.1320 O   0  0  0  0  0  0  0  0  0  0  0  0
   16.7675   -7.6498  -16.7375 C   0  0  0  0  0  0  0  0  0  0  0  0
   17.8048   -8.6880  -16.3594 C   0  0  2  0  0  0  0  0  0  0  0  0
   17.4858   -9.9762  -16.9252 N   0  0  0  0  0  0  0  0  0  0  0  0
   18.0017   -8.7740  -14.9081 C   0  0  0  0  0  0  0  0  0  0  0  0
   17.4804   -9.7568  -14.2909 O   0  0  0  0  0  0  0  0  0  0  0  0
   21.2106   -9.2641  -13.2385 N   0  0  0  0  0  0  0  0  0  0  0  0
   21.3317   -8.0125  -12.5647 C   0  0  0  0  0  0  0  0  0  0  0  0
   22.4586   -7.6309  -12.2227 O   0  0  0  0  0  0  0  0  0  0  0  0
   20.1323   -7.2037  -12.2894 C   0  0  0  0  0  0  0  0  0  0  0  0
   18.9054   -7.8766  -12.8088 C   0  0  2  0  0  0  0  0  0  0  0  0
   18.7554   -7.7801  -14.2265 N   0  0  0  0  0  0  0  0  0  0  0  0
   17.7322   -7.2779  -12.0844 C   0  0  0  0  0  0  0  0  0  0  0  0
   17.1831   -6.2224  -12.4906 O   0  0  0  0  0  0  0  0  0  0  0  0
   17.1942   -7.8707  -10.9185 N   0  0  0  0  0  0  0  0  0  0  0  0
   15.9144   -7.3850  -10.3192 C   0  0  1  0  0  0  0  0  0  0  0  0
   15.3827   -8.5788   -9.5916 C   0  0  0  0  0  0  0  0  0  0  0  0
   14.1648   -8.3977   -8.8071 C   0  0  0  0  0  0  0  0  0  0  0  0
   13.9304   -7.6815   -7.6636 C   0  0  0  0  0  0  0  0  0  0  0  0
   12.6100   -7.7868   -7.3699 N   0  0  0  0  0  0  0  0  0  0  0  0
   12.0504   -8.5402   -8.3001 C   0  0  0  0  0  0  0  0  0  0  0  0
   12.9645   -8.9196   -9.1757 N   0  0  0  0  0  0  0  0  0  0  0  0
   16.2953   -6.3143   -9.3337 C   0  0  0  0  0  0  0  0  0  0  0  0
   15.3285   -5.3608   -8.9673 O   0  0  0  0  0  0  0  0  0  0  0  0
   17.4047   -6.2437   -8.8444 O   0  0  0  0  0  0  0  0  0  0  0  0
  1  2  1  0
  2  3  1  0
  3  5  1  0
  3  4  1  1
  5  6  2  0
  7  8  1  0
  8 10  1  0
  9  8  2  0
 11 10  1  1
 11 13  1  0
 12 11  1  0
 12  5  1  0
 13 15  1  0
 14 13  2  0
 15 16  1  0
 16 23  1  0
 16 17  1  1
 18 17  1  0
 19 18  2  0
 20 19  1  0
 21 20  1  0
 21 22  2  0
 22 18  1  0
 23 25  2  0
 23 24  1  0
M  END
$$$$
