SNH.pdb
     RDKit          3D

 25 25  0  0  1  0  0  0  0  0999 V2000
   42.9775   -9.2324  -12.0000 O   0  0  0  0  0  0  0  0  0  0  0  0
   43.0951  -10.3157  -11.1028 C   0  0  0  0  0  0  0  0  0  0  0  0
   41.7828  -11.0694  -11.1850 C   0  0  2  0  0  0  0  0  0  0  0  0
   41.4697  -11.4271  -12.5472 N   0  0  0  0  0  0  0  0  0  0  0  0
   40.6795  -10.3343  -10.5568 C   0  0  0  0  0  0  0  0  0  0  0  0
   39.6675  -10.0475  -11.2726 O   0  0  0  0  0  0  0  0  0  0  0  0
   38.7647  -11.5517   -7.6876 N   0  0  0  0  0  0  0  0  0  0  0  0
   39.1566  -10.5861   -6.7135 C   0  0  0  0  0  0  0  0  0  0  0  0
   39.0970  -10.8950   -5.5162 O   0  0  0  0  0  0  0  0  0  0  0  0
   39.6199   -9.2546   -7.1393 C   0  0  0  0  0  0  0  0  0  0  0  0
   39.7039   -9.1707   -8.6272 C   0  0  2  0  0  0  0  0  0  0  0  0
   40.7545   -9.9606   -9.1874 N   0  0  0  0  0  0  0  0  0  0  0  0
   39.8534   -7.7172   -8.9804 C   0  0  0  0  0  0  0  0  0  0  0  0
   40.9859   -7.2015   -9.1593 O   0  0  0  0  0  0  0  0  0  0  0  0
   38.7330   -6.8666   -9.1273 N   0  0  0  0  0  0  0  0  0  0  0  0
   38.8868   -5.4486   -9.5731 C   0  0  1  0  0  0  0  0  0  0  0  0
   37.7650   -5.2534  -10.5431 C   0  0  0  0  0  0  0  0  0  0  0  0
   37.9714   -5.7238  -11.9097 C   0  0  0  0  0  0  0  0  0  0  0  0
   39.0632   -6.2935  -12.5089 C   0  0  0  0  0  0  0  0  0  0  0  0
   38.7211   -6.6093  -13.7833 N   0  0  0  0  0  0  0  0  0  0  0  0
   37.4627   -6.2481  -13.9625 C   0  0  0  0  0  0  0  0  0  0  0  0
   36.9898   -5.7135  -12.8505 N   0  0  0  0  0  0  0  0  0  0  0  0
   38.6592   -4.6005   -8.3518 C   0  0  0  0  0  0  0  0  0  0  0  0
   38.3196   -5.2358   -7.1439 O   0  0  0  0  0  0  0  0  0  0  0  0
   38.7580   -3.3902   -8.3713 O   0  0  0  0  0  0  0  0  0  0  0  0
  1  2  1  0
  2  3  1  0
  3  5  1  0
  3  4  1  6
  5  6  2  0
  7  8  1  0
  8 10  1  0
  9  8  2  0
 11 10  1  1
 11 13  1  0
 12 11  1  0
 12  5  1  0
 13 15  1  0
 14 13  2  0
 15 16  1  0
 16 23  1  0
 16 17  1  6
 18 17  1  0
 19 18  2  0
 20 19  1  0
 21 20  1  0
 21 22  2  0
 22 18  1  0
 23 25  2  0
 23 24  1  0
M  END
$$$$
