SNH.pdb
     RDKit          3D

 25 25  0  0  1  0  0  0  0  0999 V2000
   14.9675  -10.1602  -10.3476 O   0  0  0  0  0  0  0  0  0  0  0  0
   15.1570   -9.6062   -9.0632 C   0  0  0  0  0  0  0  0  0  0  0  0
   14.3254   -8.3397   -9.0287 C   0  0  2  0  0  0  0  0  0  0  0  0
   12.9945   -8.5741   -9.5340 N   0  0  0  0  0  0  0  0  0  0  0  0
   14.9769   -7.2279   -9.7299 C   0  0  0  0  0  0  0  0  0  0  0  0
   14.5583   -6.9267  -10.8930 O   0  0  0  0  0  0  0  0  0  0  0  0
   15.9784   -2.0400   -8.8765 N   0  0  0  0  0  0  0  0  0  0  0  0
   15.8750   -3.4617   -8.8226 C   0  0  0  0  0  0  0  0  0  0  0  0
   14.7708   -3.9662   -8.5806 O   0  0  0  0  0  0  0  0  0  0  0  0
   17.0657   -4.2973   -9.0521 C   0  0  0  0  0  0  0  0  0  0  0  0
   16.7214   -5.5047   -9.8592 C   0  0  2  0  0  0  0  0  0  0  0  0
   16.0433   -6.5179   -9.1140 N   0  0  0  0  0  0  0  0  0  0  0  0
   18.0021   -6.0179  -10.4558 C   0  0  0  0  0  0  0  0  0  0  0  0
   18.7533   -6.7985   -9.8179 O   0  0  0  0  0  0  0  0  0  0  0  0
   18.4197   -5.6486  -11.7557 N   0  0  0  0  0  0  0  0  0  0  0  0
   19.6113   -6.2811  -12.3984 C   0  0  1  0  0  0  0  0  0  0  0  0
   19.2314   -7.7228  -12.5192 C   0  0  0  0  0  0  0  0  0  0  0  0
   20.0908   -8.5760  -13.3346 C   0  0  0  0  0  0  0  0  0  0  0  0
   21.4532   -8.6138  -13.4684 C   0  0  0  0  0  0  0  0  0  0  0  0
   21.7609   -9.6360  -14.3058 N   0  0  0  0  0  0  0  0  0  0  0  0
   20.6283  -10.2086  -14.6739 C   0  0  0  0  0  0  0  0  0  0  0  0
   19.6100   -9.5895  -14.1030 N   0  0  0  0  0  0  0  0  0  0  0  0
   19.7227   -5.6660  -13.7666 C   0  0  0  0  0  0  0  0  0  0  0  0
   21.0019   -5.4896  -14.3240 O   0  0  0  0  0  0  0  0  0  0  0  0
   18.7505   -5.3172  -14.4055 O   0  0  0  0  0  0  0  0  0  0  0  0
  1  2  1  0
  2  3  1  0
  3  5  1  0
  3  4  1  6
  5  6  2  0
  7  8  1  0
  8 10  1  0
  9  8  2  0
 11 10  1  1
 11 13  1  0
 12 11  1  0
 12  5  1  0
 13 15  1  0
 14 13  2  0
 15 16  1  0
 16 23  1  0
 16 17  1  6
 18 17  1  0
 19 18  2  0
 20 19  1  0
 21 20  1  0
 21 22  2  0
 22 18  1  0
 23 25  2  0
 23 24  1  0
M  END
$$$$
