SNH.pdb
     RDKit          3D

 25 25  0  0  1  0  0  0  0  0999 V2000
   19.3857  -13.1596  -15.4082 O   0  0  0  0  0  0  0  0  0  0  0  0
   20.1154  -11.9586  -15.2761 C   0  0  0  0  0  0  0  0  0  0  0  0
   20.7313  -11.6934  -16.6352 C   0  0  2  0  0  0  0  0  0  0  0  0
   21.8240  -12.5977  -16.8997 N   0  0  0  0  0  0  0  0  0  0  0  0
   21.1428  -10.2943  -16.7954 C   0  0  0  0  0  0  0  0  0  0  0  0
   22.3600   -9.9993  -16.5715 O   0  0  0  0  0  0  0  0  0  0  0  0
   21.4299   -5.3487  -17.5694 N   0  0  0  0  0  0  0  0  0  0  0  0
   20.6514   -5.9005  -18.6298 C   0  0  0  0  0  0  0  0  0  0  0  0
   20.4873   -5.2278  -19.6559 O   0  0  0  0  0  0  0  0  0  0  0  0
   20.0624   -7.2431  -18.4912 C   0  0  0  0  0  0  0  0  0  0  0  0
   20.6199   -7.9489  -17.2999 C   0  0  2  0  0  0  0  0  0  0  0  0
   20.1970   -9.3092  -17.1898 N   0  0  0  0  0  0  0  0  0  0  0  0
   20.2317   -7.1471  -16.0891 C   0  0  0  0  0  0  0  0  0  0  0  0
   19.1868   -7.4078  -15.4405 O   0  0  0  0  0  0  0  0  0  0  0  0
   21.0196   -6.0679  -15.6254 N   0  0  0  0  0  0  0  0  0  0  0  0
   20.6936   -5.3587  -14.3512 C   0  0  1  0  0  0  0  0  0  0  0  0
   20.8976   -6.4007  -13.2977 C   0  0  0  0  0  0  0  0  0  0  0  0
   20.8114   -5.9713  -11.9050 C   0  0  0  0  0  0  0  0  0  0  0  0
   20.4521   -4.7693  -11.3556 C   0  0  0  0  0  0  0  0  0  0  0  0
   20.4747   -4.9053  -10.0059 N   0  0  0  0  0  0  0  0  0  0  0  0
   20.8340   -6.1474   -9.7333 C   0  0  0  0  0  0  0  0  0  0  0  0
   21.0417   -6.8083  -10.8585 N   0  0  0  0  0  0  0  0  0  0  0  0
   21.7246   -4.2734  -14.2025 C   0  0  0  0  0  0  0  0  0  0  0  0
   21.3457   -3.0626  -13.5955 O   0  0  0  0  0  0  0  0  0  0  0  0
   22.8692   -4.4049  -14.5866 O   0  0  0  0  0  0  0  0  0  0  0  0
  1  2  1  0
  2  3  1  0
  3  5  1  0
  3  4  1  1
  5  6  2  0
  7  8  1  0
  8 10  1  0
  9  8  2  0
 11 10  1  6
 11 13  1  0
 12 11  1  0
 12  5  1  0
 13 15  1  0
 14 13  2  0
 15 16  1  0
 16 23  1  0
 16 17  1  1
 18 17  1  0
 19 18  2  0
 20 19  1  0
 21 20  1  0
 21 22  2  0
 22 18  1  0
 23 25  2  0
 23 24  1  0
M  END
$$$$
