SNH.pdb
     RDKit          3D

 25 25  0  0  1  0  0  0  0  0999 V2000
   17.6690  -21.5310    2.7352 O   0  0  0  0  0  0  0  0  0  0  0  0
   17.3432  -20.1665    2.5786 C   0  0  0  0  0  0  0  0  0  0  0  0
   15.8731  -20.0464    2.9269 C   0  0  2  0  0  0  0  0  0  0  0  0
   15.0393  -20.3785    1.7973 N   0  0  0  0  0  0  0  0  0  0  0  0
   15.5371  -18.7262    3.4713 C   0  0  0  0  0  0  0  0  0  0  0  0
   14.5498  -18.1038    2.9648 O   0  0  0  0  0  0  0  0  0  0  0  0
   14.6895  -14.7260    6.1767 N   0  0  0  0  0  0  0  0  0  0  0  0
   13.9324  -15.9259    6.3253 C   0  0  0  0  0  0  0  0  0  0  0  0
   12.8190  -15.8607    6.8625 O   0  0  0  0  0  0  0  0  0  0  0  0
   14.4777  -17.2066    5.8447 C   0  0  0  0  0  0  0  0  0  0  0  0
   15.8128  -17.0110    5.2066 C   0  0  2  0  0  0  0  0  0  0  0  0
   16.3021  -18.1727    4.5338 N   0  0  0  0  0  0  0  0  0  0  0  0
   16.7559  -16.5555    6.2848 C   0  0  0  0  0  0  0  0  0  0  0  0
   17.4065  -17.3806    6.9751 O   0  0  0  0  0  0  0  0  0  0  0  0
   16.9544  -15.1848    6.5716 N   0  0  0  0  0  0  0  0  0  0  0  0
   17.9225  -14.7423    7.6204 C   0  0  1  0  0  0  0  0  0  0  0  0
   17.9681  -13.2556    7.4629 C   0  0  0  0  0  0  0  0  0  0  0  0
   19.1906  -12.6773    6.9128 C   0  0  0  0  0  0  0  0  0  0  0  0
   20.3484  -13.2672    6.4801 C   0  0  0  0  0  0  0  0  0  0  0  0
   21.1585  -12.2907    5.9995 N   0  0  0  0  0  0  0  0  0  0  0  0
   20.5220  -11.1401    6.1303 C   0  0  0  0  0  0  0  0  0  0  0  0
   19.3367  -11.3462    6.6767 N   0  0  0  0  0  0  0  0  0  0  0  0
   17.2970  -15.0969    8.9416 C   0  0  0  0  0  0  0  0  0  0  0  0
   18.1006  -15.0734   10.0956 O   0  0  0  0  0  0  0  0  0  0  0  0
   16.1262  -15.4019    9.0474 O   0  0  0  0  0  0  0  0  0  0  0  0
  1  2  1  0
  2  3  1  0
  3  5  1  0
  3  4  1  6
  5  6  2  0
  7  8  1  0
  8 10  1  0
  9  8  2  0
 11 10  1  1
 11 13  1  0
 12 11  1  0
 12  5  1  0
 13 15  1  0
 14 13  2  0
 15 16  1  0
 16 23  1  0
 16 17  1  1
 18 17  1  0
 19 18  2  0
 20 19  1  0
 21 20  1  0
 21 22  2  0
 22 18  1  0
 23 25  2  0
 23 24  1  0
M  END
$$$$
