SNH.pdb
     RDKit          3D

 25 25  0  0  1  0  0  0  0  0999 V2000
   27.3270  -17.1733  -15.6163 O   0  0  0  0  0  0  0  0  0  0  0  0
   26.2406  -18.0745  -15.6074 C   0  0  0  0  0  0  0  0  0  0  0  0
   26.7616  -19.3493  -14.9747 C   0  0  2  0  0  0  0  0  0  0  0  0
   27.4958  -20.1444  -15.9288 N   0  0  0  0  0  0  0  0  0  0  0  0
   25.6954  -20.1284  -14.3355 C   0  0  0  0  0  0  0  0  0  0  0  0
   24.9292  -20.8182  -15.0810 O   0  0  0  0  0  0  0  0  0  0  0  0
   26.5432  -20.6631   -9.2920 N   0  0  0  0  0  0  0  0  0  0  0  0
   25.9553  -21.3182  -10.4145 C   0  0  0  0  0  0  0  0  0  0  0  0
   26.6165  -22.1775  -11.0117 O   0  0  0  0  0  0  0  0  0  0  0  0
   24.5899  -20.9684  -10.8411 C   0  0  0  0  0  0  0  0  0  0  0  0
   24.5011  -20.8877  -12.3289 C   0  0  2  0  0  0  0  0  0  0  0  0
   25.5365  -20.1026  -12.9231 N   0  0  0  0  0  0  0  0  0  0  0  0
   23.1370  -20.3512  -12.6622 C   0  0  0  0  0  0  0  0  0  0  0  0
   22.7939  -19.1878  -12.3315 O   0  0  0  0  0  0  0  0  0  0  0  0
   22.1810  -21.1259  -13.3595 N   0  0  0  0  0  0  0  0  0  0  0  0
   20.8635  -20.5514  -13.7681 C   0  0  1  0  0  0  0  0  0  0  0  0
   20.7778  -20.8538  -15.2305 C   0  0  0  0  0  0  0  0  0  0  0  0
   21.3789  -19.8921  -16.1499 C   0  0  0  0  0  0  0  0  0  0  0  0
   21.9614  -18.6737  -15.9220 C   0  0  0  0  0  0  0  0  0  0  0  0
   22.4224  -18.2044  -17.1085 N   0  0  0  0  0  0  0  0  0  0  0  0
   22.1354  -19.1023  -18.0345 C   0  0  0  0  0  0  0  0  0  0  0  0
   21.5082  -20.1263  -17.4830 N   0  0  0  0  0  0  0  0  0  0  0  0
   19.8177  -21.3345  -13.0226 C   0  0  0  0  0  0  0  0  0  0  0  0
   20.1394  -22.6261  -12.5684 O   0  0  0  0  0  0  0  0  0  0  0  0
   18.7086  -20.8929  -12.7995 O   0  0  0  0  0  0  0  0  0  0  0  0
  1  2  1  0
  2  3  1  0
  3  5  1  0
  3  4  1  6
  5  6  2  0
  7  8  1  0
  8 10  1  0
  9  8  2  0
 11 10  1  1
 11 13  1  0
 12 11  1  0
 12  5  1  0
 13 15  1  0
 14 13  2  0
 15 16  1  0
 16 23  1  0
 16 17  1  6
 18 17  1  0
 19 18  2  0
 20 19  1  0
 21 20  1  0
 21 22  2  0
 22 18  1  0
 23 25  2  0
 23 24  1  0
M  END
$$$$
