SNH.pdb
     RDKit          3D

 25 25  0  0  1  0  0  0  0  0999 V2000
   25.6908  -31.3187   -2.6879 O   0  0  0  0  0  0  0  0  0  0  0  0
   26.8588  -31.9112   -3.2145 C   0  0  0  0  0  0  0  0  0  0  0  0
   26.5667  -33.3952   -3.3101 C   0  0  2  0  0  0  0  0  0  0  0  0
   25.4259  -33.6502   -4.1558 N   0  0  0  0  0  0  0  0  0  0  0  0
   26.4050  -34.0159   -1.9906 C   0  0  0  0  0  0  0  0  0  0  0  0
   25.2262  -34.2927   -1.6000 O   0  0  0  0  0  0  0  0  0  0  0  0
   26.8324  -36.4146    2.2706 N   0  0  0  0  0  0  0  0  0  0  0  0
   28.1903  -36.3320    1.8413 C   0  0  0  0  0  0  0  0  0  0  0  0
   29.0419  -37.0030    2.4386 O   0  0  0  0  0  0  0  0  0  0  0  0
   28.5548  -35.4625    0.7100 C   0  0  0  0  0  0  0  0  0  0  0  0
   27.3466  -34.7986    0.1378 C   0  0  2  0  0  0  0  0  0  0  0  0
   27.5424  -34.2934   -1.1844 N   0  0  0  0  0  0  0  0  0  0  0  0
   26.9452  -33.7104    1.0940 C   0  0  0  0  0  0  0  0  0  0  0  0
   27.1436  -32.4985    0.8250 O   0  0  0  0  0  0  0  0  0  0  0  0
   26.3289  -33.9976    2.3342 N   0  0  0  0  0  0  0  0  0  0  0  0
   25.8481  -32.9061    3.2344 C   0  0  1  0  0  0  0  0  0  0  0  0
   24.8062  -32.2039    2.4229 C   0  0  0  0  0  0  0  0  0  0  0  0
   23.9591  -31.2357    3.1132 C   0  0  0  0  0  0  0  0  0  0  0  0
   24.0518  -30.6935    4.3674 C   0  0  0  0  0  0  0  0  0  0  0  0
   23.0482  -29.7912    4.5059 N   0  0  0  0  0  0  0  0  0  0  0  0
   22.3621  -29.7769    3.3766 C   0  0  0  0  0  0  0  0  0  0  0  0
   22.8904  -30.6367    2.5235 N   0  0  0  0  0  0  0  0  0  0  0  0
   25.2050  -33.5886    4.4106 C   0  0  0  0  0  0  0  0  0  0  0  0
   24.7435  -32.7985    5.4786 O   0  0  0  0  0  0  0  0  0  0  0  0
   25.0703  -34.7941    4.4710 O   0  0  0  0  0  0  0  0  0  0  0  0
  1  2  1  0
  2  3  1  0
  3  5  1  0
  3  4  1  6
  5  6  2  0
  7  8  1  0
  8 10  1  0
  9  8  2  0
 11 10  1  1
 11 13  1  0
 12 11  1  0
 12  5  1  0
 13 15  1  0
 14 13  2  0
 15 16  1  0
 16 23  1  0
 16 17  1  6
 18 17  1  0
 19 18  2  0
 20 19  1  0
 21 20  1  0
 21 22  2  0
 22 18  1  0
 23 25  2  0
 23 24  1  0
M  END
$$$$
