SNH.pdb
     RDKit          3D

 25 25  0  0  1  0  0  0  0  0999 V2000
   19.5023  -20.9770  -18.7785 O   0  0  0  0  0  0  0  0  0  0  0  0
   18.8238  -20.1454  -17.8618 C   0  0  0  0  0  0  0  0  0  0  0  0
   19.6513  -18.8802  -17.7552 C   0  0  2  0  0  0  0  0  0  0  0  0
   21.0365  -19.1823  -17.4879 N   0  0  0  0  0  0  0  0  0  0  0  0
   19.1072  -17.9418  -16.7674 C   0  0  0  0  0  0  0  0  0  0  0  0
   17.8622  -17.6830  -16.8104 O   0  0  0  0  0  0  0  0  0  0  0  0
   18.6144  -18.5857  -13.4930 N   0  0  0  0  0  0  0  0  0  0  0  0
   19.4946  -17.6849  -12.8233 C   0  0  0  0  0  0  0  0  0  0  0  0
   19.8363  -17.9444  -11.6621 O   0  0  0  0  0  0  0  0  0  0  0  0
   19.9775  -16.4763  -13.5123 C   0  0  0  0  0  0  0  0  0  0  0  0
   19.4127  -16.3877  -14.8911 C   0  0  2  0  0  0  0  0  0  0  0  0
   19.9594  -17.3477  -15.7972 N   0  0  0  0  0  0  0  0  0  0  0  0
   19.6363  -14.9809  -15.3712 C   0  0  0  0  0  0  0  0  0  0  0  0
   20.7836  -14.5714  -15.6819 O   0  0  0  0  0  0  0  0  0  0  0  0
   18.5724  -14.0574  -15.4952 N   0  0  0  0  0  0  0  0  0  0  0  0
   18.8159  -12.6417  -15.9071 C   0  0  1  0  0  0  0  0  0  0  0  0
   18.4222  -12.6146  -17.3498 C   0  0  0  0  0  0  0  0  0  0  0  0
   18.5163  -11.3348  -18.0461 C   0  0  0  0  0  0  0  0  0  0  0  0
   19.4851  -10.3671  -18.0211 C   0  0  0  0  0  0  0  0  0  0  0  0
   19.1262   -9.3963  -18.8983 N   0  0  0  0  0  0  0  0  0  0  0  0
   17.9776   -9.7537  -19.4453 C   0  0  0  0  0  0  0  0  0  0  0  0
   17.5905  -10.9158  -18.9495 N   0  0  0  0  0  0  0  0  0  0  0  0
   17.8617  -11.8030  -15.1016 C   0  0  0  0  0  0  0  0  0  0  0  0
   17.9346  -10.4030  -15.2145 O   0  0  0  0  0  0  0  0  0  0  0  0
   17.0329  -12.2900  -14.3592 O   0  0  0  0  0  0  0  0  0  0  0  0
  1  2  1  0
  2  3  1  0
  3  5  1  0
  3  4  1  1
  5  6  2  0
  7  8  1  0
  8 10  1  0
  9  8  2  0
 11 10  1  1
 11 13  1  0
 12 11  1  0
 12  5  1  0
 13 15  1  0
 14 13  2  0
 15 16  1  0
 16 23  1  0
 16 17  1  6
 18 17  1  0
 19 18  2  0
 20 19  1  0
 21 20  1  0
 21 22  2  0
 22 18  1  0
 23 25  2  0
 23 24  1  0
M  END
$$$$
