SNH.pdb
     RDKit          3D

 25 25  0  0  1  0  0  0  0  0999 V2000
   19.1151  -13.6683  -15.4883 O   0  0  0  0  0  0  0  0  0  0  0  0
   19.3540  -12.4468  -16.1540 C   0  0  0  0  0  0  0  0  0  0  0  0
   18.0133  -11.7443  -16.2300 C   0  0  2  0  0  0  0  0  0  0  0  0
   17.2002  -12.2829  -17.2933 N   0  0  0  0  0  0  0  0  0  0  0  0
   18.1544  -10.2888  -16.3480 C   0  0  0  0  0  0  0  0  0  0  0  0
   18.4778   -9.8090  -17.4811 O   0  0  0  0  0  0  0  0  0  0  0  0
   14.6831   -7.4168  -14.9378 N   0  0  0  0  0  0  0  0  0  0  0  0
   15.9521   -7.1969  -15.5512 C   0  0  0  0  0  0  0  0  0  0  0  0
   15.9955   -7.0231  -16.7761 O   0  0  0  0  0  0  0  0  0  0  0  0
   17.1750   -7.1799  -14.7309 C   0  0  0  0  0  0  0  0  0  0  0  0
   18.2261   -8.0584  -15.3237 C   0  0  2  0  0  0  0  0  0  0  0  0
   17.9329   -9.4530  -15.2198 N   0  0  0  0  0  0  0  0  0  0  0  0
   19.5240   -7.7122  -14.6490 C   0  0  0  0  0  0  0  0  0  0  0  0
   19.7942   -8.1351  -13.4963 O   0  0  0  0  0  0  0  0  0  0  0  0
   20.4966   -6.8991  -15.2760 N   0  0  0  0  0  0  0  0  0  0  0  0
   21.7823   -6.5594  -14.5944 C   0  0  1  0  0  0  0  0  0  0  0  0
   22.8173   -6.7717  -15.6532 C   0  0  0  0  0  0  0  0  0  0  0  0
   23.1797   -8.1502  -15.9691 C   0  0  0  0  0  0  0  0  0  0  0  0
   22.7639   -9.3361  -15.4247 C   0  0  0  0  0  0  0  0  0  0  0  0
   23.3543  -10.3419  -16.1179 N   0  0  0  0  0  0  0  0  0  0  0  0
   24.1062   -9.7951  -17.0570 C   0  0  0  0  0  0  0  0  0  0  0  0
   24.0177   -8.4785  -16.9882 N   0  0  0  0  0  0  0  0  0  0  0  0
   21.6976   -5.0978  -14.2489 C   0  0  0  0  0  0  0  0  0  0  0  0
   22.4455   -4.6186  -13.1585 O   0  0  0  0  0  0  0  0  0  0  0  0
   21.0085   -4.3187  -14.8760 O   0  0  0  0  0  0  0  0  0  0  0  0
  1  2  1  0
  2  3  1  0
  3  5  1  0
  3  4  1  6
  5  6  2  0
  7  8  1  0
  8 10  1  0
  9  8  2  0
 11 10  1  1
 11 13  1  0
 12 11  1  0
 12  5  1  0
 13 15  1  0
 14 13  2  0
 15 16  1  0
 16 23  1  0
 16 17  1  6
 18 17  1  0
 19 18  2  0
 20 19  1  0
 21 20  1  0
 21 22  2  0
 22 18  1  0
 23 25  2  0
 23 24  1  0
M  END
$$$$
