SNH.pdb
     RDKit          3D

 25 25  0  0  1  0  0  0  0  0999 V2000
   25.3342  -13.0066  -15.6557 O   0  0  0  0  0  0  0  0  0  0  0  0
   24.9188  -11.6789  -15.8948 C   0  0  0  0  0  0  0  0  0  0  0  0
   23.6651  -11.7802  -16.7402 C   0  0  2  0  0  0  0  0  0  0  0  0
   23.9562  -12.3248  -18.0441 N   0  0  0  0  0  0  0  0  0  0  0  0
   22.9573  -10.4991  -16.8403 C   0  0  0  0  0  0  0  0  0  0  0  0
   23.3642   -9.6565  -17.7024 O   0  0  0  0  0  0  0  0  0  0  0  0
   18.2550   -7.6461  -17.2798 N   0  0  0  0  0  0  0  0  0  0  0  0
   18.9660   -7.8579  -16.0614 C   0  0  0  0  0  0  0  0  0  0  0  0
   18.9752   -6.9533  -15.2164 O   0  0  0  0  0  0  0  0  0  0  0  0
   19.6688   -9.1310  -15.8291 C   0  0  0  0  0  0  0  0  0  0  0  0
   21.1130   -9.0151  -16.1878 C   0  0  2  0  0  0  0  0  0  0  0  0
   21.8510  -10.2228  -15.9915 N   0  0  0  0  0  0  0  0  0  0  0  0
   21.6797   -7.8808  -15.3805 C   0  0  0  0  0  0  0  0  0  0  0  0
   21.9141   -8.0067  -14.1518 O   0  0  0  0  0  0  0  0  0  0  0  0
   21.9741   -6.6257  -15.9622 N   0  0  0  0  0  0  0  0  0  0  0  0
   22.4082   -5.4647  -15.1276 C   0  0  1  0  0  0  0  0  0  0  0  0
   23.8996   -5.5761  -15.1053 C   0  0  0  0  0  0  0  0  0  0  0  0
   24.5878   -5.6169  -16.3922 C   0  0  0  0  0  0  0  0  0  0  0  0
   24.1089   -5.5145  -17.6712 C   0  0  0  0  0  0  0  0  0  0  0  0
   25.1692   -5.5511  -18.5168 N   0  0  0  0  0  0  0  0  0  0  0  0
   26.2629   -5.6706  -17.7848 C   0  0  0  0  0  0  0  0  0  0  0  0
   25.9395   -5.7120  -16.5042 N   0  0  0  0  0  0  0  0  0  0  0  0
   21.9995   -4.2308  -15.8847 C   0  0  0  0  0  0  0  0  0  0  0  0
   21.3356   -4.3841  -17.1150 O   0  0  0  0  0  0  0  0  0  0  0  0
   22.2217   -3.1101  -15.4729 O   0  0  0  0  0  0  0  0  0  0  0  0
  1  2  1  0
  2  3  1  0
  3  5  1  0
  3  4  1  6
  5  6  2  0
  7  8  1  0
  8 10  1  0
  9  8  2  0
 11 10  1  1
 11 13  1  0
 12 11  1  0
 12  5  1  0
 13 15  1  0
 14 13  2  0
 15 16  1  0
 16 23  1  0
 16 17  1  6
 18 17  1  0
 19 18  2  0
 20 19  1  0
 21 20  1  0
 21 22  2  0
 22 18  1  0
 23 25  2  0
 23 24  1  0
M  END
$$$$
