SNH.pdb
     RDKit          3D

 25 25  0  0  1  0  0  0  0  0999 V2000
   17.2698  -13.2602  -15.0047 O   0  0  0  0  0  0  0  0  0  0  0  0
   18.2155  -12.2554  -15.3022 C   0  0  0  0  0  0  0  0  0  0  0  0
   18.2613  -12.1607  -16.8140 C   0  0  2  0  0  0  0  0  0  0  0  0
   19.0310  -13.2405  -17.3826 N   0  0  0  0  0  0  0  0  0  0  0  0
   18.7477  -10.8554  -17.2746 C   0  0  0  0  0  0  0  0  0  0  0  0
   20.0052  -10.6660  -17.3154 O   0  0  0  0  0  0  0  0  0  0  0  0
   19.3554   -6.5802  -19.6877 N   0  0  0  0  0  0  0  0  0  0  0  0
   17.9386   -6.7439  -19.7125 C   0  0  0  0  0  0  0  0  0  0  0  0
   17.2650   -5.9688  -20.4038 O   0  0  0  0  0  0  0  0  0  0  0  0
   17.3059   -7.8169  -18.9269 C   0  0  0  0  0  0  0  0  0  0  0  0
   18.3320   -8.6179  -18.1965 C   0  0  2  0  0  0  0  0  0  0  0  0
   17.8279   -9.8426  -17.6603 N   0  0  0  0  0  0  0  0  0  0  0  0
   18.9006   -7.7339  -17.1219 C   0  0  0  0  0  0  0  0  0  0  0  0
   18.3335   -7.6144  -16.0063 O   0  0  0  0  0  0  0  0  0  0  0  0
   20.0938   -6.9993  -17.3146 N   0  0  0  0  0  0  0  0  0  0  0  0
   20.6765   -6.1626  -16.2222 C   0  0  1  0  0  0  0  0  0  0  0  0
   22.0196   -6.7742  -15.9788 C   0  0  0  0  0  0  0  0  0  0  0  0
   22.0677   -7.9809  -15.1585 C   0  0  0  0  0  0  0  0  0  0  0  0
   21.0808   -8.6490  -14.4838 C   0  0  0  0  0  0  0  0  0  0  0  0
   21.6342   -9.7537  -13.9234 N   0  0  0  0  0  0  0  0  0  0  0  0
   22.9165   -9.7666  -14.2426 C   0  0  0  0  0  0  0  0  0  0  0  0
   23.2014   -8.7113  -14.9851 N   0  0  0  0  0  0  0  0  0  0  0  0
   20.8405   -4.7820  -16.7966 C   0  0  0  0  0  0  0  0  0  0  0  0
   21.3905   -3.7748  -15.9835 O   0  0  0  0  0  0  0  0  0  0  0  0
   20.5158   -4.5066  -17.9340 O   0  0  0  0  0  0  0  0  0  0  0  0
  1  2  1  0
  2  3  1  0
  3  5  1  0
  3  4  1  1
  5  6  2  0
  7  8  1  0
  8 10  1  0
  9  8  2  0
 11 10  1  1
 11 13  1  0
 12 11  1  0
 12  5  1  0
 13 15  1  0
 14 13  2  0
 15 16  1  0
 16 23  1  0
 16 17  1  6
 18 17  1  0
 19 18  2  0
 20 19  1  0
 21 20  1  0
 21 22  2  0
 22 18  1  0
 23 25  2  0
 23 24  1  0
M  END
$$$$
