QPQ.pdb
     RDKit          3D

 26 26  0  0  1  0  0  0  0  0999 V2000
   24.6989  -21.9753  -19.7596 N   0  0  0  0  0  0  0  0  0  0  0  0
   25.7942  -21.0769  -19.7152 C   0  0  0  0  0  0  0  0  0  0  0  0
   25.5272  -19.8464  -19.8634 O   0  0  0  0  0  0  0  0  0  0  0  0
   27.1946  -21.5232  -19.5070 C   0  0  0  0  0  0  0  0  0  0  0  0
   27.7532  -20.8042  -18.3207 C   0  0  0  0  0  0  0  0  0  0  0  0
   28.2556  -21.7845  -17.2523 C   0  0  2  0  0  0  0  0  0  0  0  0
   28.6731  -23.0189  -17.8061 N   0  0  0  0  0  0  0  0  0  0  0  0
   27.2969  -21.8349  -16.1449 C   0  0  0  0  0  0  0  0  0  0  0  0
   26.8165  -23.0129  -15.9616 O   0  0  0  0  0  0  0  0  0  0  0  0
   26.8870  -20.7584  -15.3174 N   0  0  0  0  0  0  0  0  0  0  0  0
   27.1269  -19.3451  -15.3584 C   0  0  0  0  0  0  0  0  0  0  0  0
   27.5318  -19.0125  -13.9390 C   0  0  0  0  0  0  0  0  0  0  0  0
   26.7346  -20.0177  -13.1475 C   0  0  0  0  0  0  0  0  0  0  0  0
   26.0516  -20.9279  -14.1448 C   0  0  1  0  0  0  0  0  0  0  0  0
   24.6553  -20.5161  -14.3639 C   0  0  0  0  0  0  0  0  0  0  0  0
   24.2652  -19.6800  -15.1982 O   0  0  0  0  0  0  0  0  0  0  0  0
   18.2796  -22.5454  -11.9002 N   0  0  0  0  0  0  0  0  0  0  0  0
   19.2532  -23.1289  -12.7561 C   0  0  0  0  0  0  0  0  0  0  0  0
   19.4759  -24.3498  -12.7701 O   0  0  0  0  0  0  0  0  0  0  0  0
   19.9961  -22.1550  -13.6464 C   0  0  0  0  0  0  0  0  0  0  0  0
   21.4256  -22.0421  -13.1867 C   0  0  0  0  0  0  0  0  0  0  0  0
   22.2501  -21.0905  -13.9661 C   0  0  2  0  0  0  0  0  0  0  0  0
   23.6607  -21.1248  -13.5529 N   0  0  0  0  0  0  0  0  0  0  0  0
   21.7571  -19.7090  -13.8271 C   0  0  0  0  0  0  0  0  0  0  0  0
   22.1976  -18.9884  -12.8651 O   0  0  0  0  0  0  0  0  0  0  0  0
   20.8387  -19.1062  -14.6659 O   0  0  0  0  0  0  0  0  0  0  0  0
  2  1  1  0
  3  2  2  0
  4  2  1  0
  5  4  1  0
  6  5  1  0
  6  7  1  6
  8 10  1  0
  8  6  1  0
  9  8  2  0
 10 14  1  0
 11 12  1  0
 11 10  1  0
 12 13  1  0
 13 14  1  0
 14 15  1  6
 15 16  2  0
 18 17  1  0
 18 19  2  0
 20 21  1  0
 20 18  1  0
 22 21  1  1
 22 24  1  0
 22 23  1  0
 23 15  1  0
 24 26  1  0
 25 24  2  0
M  END
$$$$
