QPQ.pdb
     RDKit          3D

 26 26  0  0  1  0  0  0  0  0999 V2000
   24.5382  -26.7138  -16.4413 N   0  0  0  0  0  0  0  0  0  0  0  0
   24.8026  -25.7763  -17.4709 C   0  0  0  0  0  0  0  0  0  0  0  0
   25.3305  -26.2291  -18.5309 O   0  0  0  0  0  0  0  0  0  0  0  0
   24.4889  -24.3309  -17.3446 C   0  0  0  0  0  0  0  0  0  0  0  0
   23.7992  -24.1048  -16.0371 C   0  0  0  0  0  0  0  0  0  0  0  0
   24.4221  -22.9333  -15.2662 C   0  0  2  0  0  0  0  0  0  0  0  0
   25.7880  -23.1514  -14.9640 N   0  0  0  0  0  0  0  0  0  0  0  0
   23.5413  -22.5530  -14.1583 C   0  0  0  0  0  0  0  0  0  0  0  0
   23.8521  -23.1390  -13.0574 O   0  0  0  0  0  0  0  0  0  0  0  0
   22.4480  -21.6506  -14.2044 N   0  0  0  0  0  0  0  0  0  0  0  0
   21.7808  -20.9743  -15.2788 C   0  0  0  0  0  0  0  0  0  0  0  0
   21.6919  -19.5430  -14.7964 C   0  0  0  0  0  0  0  0  0  0  0  0
   21.5685  -19.7274  -13.3053 C   0  0  0  0  0  0  0  0  0  0  0  0
   21.7319  -21.2054  -13.0252 C   0  0  1  0  0  0  0  0  0  0  0  0
   20.4226  -21.8584  -12.8616 C   0  0  0  0  0  0  0  0  0  0  0  0
   19.6936  -22.2688  -13.7821 O   0  0  0  0  0  0  0  0  0  0  0  0
   18.6799  -23.9846   -7.3092 N   0  0  0  0  0  0  0  0  0  0  0  0
   17.6060  -24.5644   -8.0384 C   0  0  0  0  0  0  0  0  0  0  0  0
   16.7384  -25.2653   -7.4940 O   0  0  0  0  0  0  0  0  0  0  0  0
   17.5984  -24.2652   -9.5228 C   0  0  0  0  0  0  0  0  0  0  0  0
   18.7393  -23.3406   -9.8561 C   0  0  0  0  0  0  0  0  0  0  0  0
   18.8070  -22.9336  -11.2783 C   0  0  2  0  0  0  0  0  0  0  0  0
   19.9446  -22.0385  -11.5362 N   0  0  0  0  0  0  0  0  0  0  0  0
   17.5720  -22.2525  -11.7045 C   0  0  0  0  0  0  0  0  0  0  0  0
   17.5181  -20.9748  -11.6465 O   0  0  0  0  0  0  0  0  0  0  0  0
   16.4379  -22.8871  -12.1750 O   0  0  0  0  0  0  0  0  0  0  0  0
  2  1  1  0
  3  2  2  0
  4  2  1  0
  5  4  1  0
  6  5  1  0
  6  7  1  1
  8 10  1  0
  8  6  1  0
  9  8  2  0
 10 14  1  0
 11 12  1  0
 11 10  1  0
 12 13  1  0
 13 14  1  0
 14 15  1  6
 15 16  2  0
 18 17  1  0
 18 19  2  0
 20 21  1  0
 20 18  1  0
 22 21  1  1
 22 24  1  0
 22 23  1  0
 23 15  1  0
 24 26  1  0
 25 24  2  0
M  END
$$$$
