QPQ.pdb
     RDKit          3D

 26 26  0  0  1  0  0  0  0  0999 V2000
   24.2101  -22.3260  -14.2767 N   0  0  0  0  0  0  0  0  0  0  0  0
   23.3293  -22.7563  -13.2529 C   0  0  0  0  0  0  0  0  0  0  0  0
   22.1948  -23.1855  -13.6217 O   0  0  0  0  0  0  0  0  0  0  0  0
   23.6880  -22.7187  -11.8130 C   0  0  0  0  0  0  0  0  0  0  0  0
   25.1016  -22.2475  -11.6855 C   0  0  0  0  0  0  0  0  0  0  0  0
   25.1690  -20.7551  -11.3346 C   0  0  2  0  0  0  0  0  0  0  0  0
   23.9599  -20.2774  -10.7738 N   0  0  0  0  0  0  0  0  0  0  0  0
   25.7241  -20.0105  -12.4683 C   0  0  0  0  0  0  0  0  0  0  0  0
   24.9258  -19.0997  -12.8987 O   0  0  0  0  0  0  0  0  0  0  0  0
   26.9869  -20.2042  -13.0843 N   0  0  0  0  0  0  0  0  0  0  0  0
   28.0797  -21.0944  -12.8193 C   0  0  0  0  0  0  0  0  0  0  0  0
   29.2902  -20.1869  -12.8416 C   0  0  0  0  0  0  0  0  0  0  0  0
   28.8773  -19.1472  -13.8521 C   0  0  0  0  0  0  0  0  0  0  0  0
   27.4411  -19.4390  -14.2287 C   0  0  1  0  0  0  0  0  0  0  0  0
   27.3701  -20.1902  -15.4929 C   0  0  0  0  0  0  0  0  0  0  0  0
   27.6598  -21.3904  -15.6438 O   0  0  0  0  0  0  0  0  0  0  0  0
   22.6015  -21.3562  -16.8656 N   0  0  0  0  0  0  0  0  0  0  0  0
   22.6875  -19.9529  -17.0764 C   0  0  0  0  0  0  0  0  0  0  0  0
   21.7150  -19.1986  -16.9162 O   0  0  0  0  0  0  0  0  0  0  0  0
   24.0477  -19.4478  -17.5094 C   0  0  0  0  0  0  0  0  0  0  0  0
   24.9995  -20.6080  -17.6346 C   0  0  0  0  0  0  0  0  0  0  0  0
   26.4190  -20.2243  -17.8096 C   0  0  2  0  0  0  0  0  0  0  0  0
   26.9323  -19.4862  -16.6462 N   0  0  0  0  0  0  0  0  0  0  0  0
   26.6094  -19.3923  -19.0106 C   0  0  0  0  0  0  0  0  0  0  0  0
   27.0251  -18.1896  -18.8709 O   0  0  0  0  0  0  0  0  0  0  0  0
   26.3745  -19.8065  -20.3081 O   0  0  0  0  0  0  0  0  0  0  0  0
  2  1  1  0
  3  2  2  0
  4  2  1  0
  5  4  1  0
  6  5  1  0
  6  7  1  6
  8 10  1  0
  8  6  1  0
  9  8  2  0
 10 14  1  0
 11 12  1  0
 11 10  1  0
 12 13  1  0
 13 14  1  0
 14 15  1  6
 15 16  2  0
 18 17  1  0
 18 19  2  0
 20 21  1  0
 20 18  1  0
 22 21  1  1
 22 24  1  0
 22 23  1  0
 23 15  1  0
 24 26  1  0
 25 24  2  0
M  END
$$$$
