QPQ.pdb
     RDKit          3D

 26 26  0  0  1  0  0  0  0  0999 V2000
   27.7881  -23.9725  -19.3632 N   0  0  0  0  0  0  0  0  0  0  0  0
   28.8885  -23.1252  -19.6461 C   0  0  0  0  0  0  0  0  0  0  0  0
   29.7653  -23.5779  -20.4421 O   0  0  0  0  0  0  0  0  0  0  0  0
   29.0354  -21.7710  -19.0561 C   0  0  0  0  0  0  0  0  0  0  0  0
   27.8917  -21.5304  -18.1230 C   0  0  0  0  0  0  0  0  0  0  0  0
   28.3631  -21.4370  -16.6657 C   0  0  2  0  0  0  0  0  0  0  0  0
   28.9538  -22.6408  -16.2112 N   0  0  0  0  0  0  0  0  0  0  0  0
   27.2970  -20.8592  -15.8426 C   0  0  0  0  0  0  0  0  0  0  0  0
   26.8190  -21.6982  -14.9942 O   0  0  0  0  0  0  0  0  0  0  0  0
   26.7874  -19.5371  -15.9059 N   0  0  0  0  0  0  0  0  0  0  0  0
   27.0647  -18.4204  -16.7620 C   0  0  0  0  0  0  0  0  0  0  0  0
   27.2481  -17.2699  -15.7966 C   0  0  0  0  0  0  0  0  0  0  0  0
   26.3118  -17.6532  -14.6791 C   0  0  0  0  0  0  0  0  0  0  0  0
   25.7734  -19.0297  -15.0026 C   0  0  1  0  0  0  0  0  0  0  0  0
   24.4395  -18.9422  -15.6195 C   0  0  0  0  0  0  0  0  0  0  0  0
   24.2053  -18.6897  -16.8147 O   0  0  0  0  0  0  0  0  0  0  0  0
   19.5902  -22.2785  -14.2736 N   0  0  0  0  0  0  0  0  0  0  0  0
   20.4387  -22.0451  -13.1571 C   0  0  0  0  0  0  0  0  0  0  0  0
   20.1322  -22.3981  -12.0074 O   0  0  0  0  0  0  0  0  0  0  0  0
   21.7393  -21.3367  -13.4723 C   0  0  0  0  0  0  0  0  0  0  0  0
   21.8390  -21.1035  -14.9567 C   0  0  0  0  0  0  0  0  0  0  0  0
   22.0658  -19.6925  -15.3448 C   0  0  2  0  0  0  0  0  0  0  0  0
   23.3163  -19.1651  -14.7792 N   0  0  0  0  0  0  0  0  0  0  0  0
   20.9557  -18.8274  -14.9089 C   0  0  0  0  0  0  0  0  0  0  0  0
   19.8338  -18.9046  -15.5207 O   0  0  0  0  0  0  0  0  0  0  0  0
   21.0193  -17.9176  -13.8704 O   0  0  0  0  0  0  0  0  0  0  0  0
  2  1  1  0
  3  2  2  0
  4  2  1  0
  5  4  1  0
  6  5  1  0
  6  7  1  1
  8 10  1  0
  8  6  1  0
  9  8  2  0
 10 14  1  0
 11 12  1  0
 11 10  1  0
 12 13  1  0
 13 14  1  0
 14 15  1  6
 15 16  2  0
 18 17  1  0
 18 19  2  0
 20 21  1  0
 20 18  1  0
 22 21  1  1
 22 24  1  0
 22 23  1  0
 23 15  1  0
 24 26  1  0
 25 24  2  0
M  END
$$$$
