QPQ.pdb
     RDKit          3D

 26 26  0  0  1  0  0  0  0  0999 V2000
   20.3835  -22.1987  -10.9575 N   0  0  0  0  0  0  0  0  0  0  0  0
   21.0753  -22.0060  -12.1796 C   0  0  0  0  0  0  0  0  0  0  0  0
   20.5112  -22.4426  -13.2276 O   0  0  0  0  0  0  0  0  0  0  0  0
   22.3948  -21.3309  -12.2608 C   0  0  0  0  0  0  0  0  0  0  0  0
   22.7935  -20.8956  -10.8866 C   0  0  0  0  0  0  0  0  0  0  0  0
   24.3180  -20.7874  -10.7496 C   0  0  2  0  0  0  0  0  0  0  0  0
   24.7181  -20.4288   -9.4396 N   0  0  0  0  0  0  0  0  0  0  0  0
   24.8536  -19.9912  -11.8573 C   0  0  0  0  0  0  0  0  0  0  0  0
   24.3158  -18.8262  -11.9327 O   0  0  0  0  0  0  0  0  0  0  0  0
   25.8506  -20.3803  -12.7880 N   0  0  0  0  0  0  0  0  0  0  0  0
   26.5114  -21.6254  -13.0522 C   0  0  0  0  0  0  0  0  0  0  0  0
   27.9746  -21.2450  -13.1121 C   0  0  0  0  0  0  0  0  0  0  0  0
   27.9063  -19.8436  -13.6634 C   0  0  0  0  0  0  0  0  0  0  0  0
   26.4425  -19.4704  -13.7489 C   0  0  1  0  0  0  0  0  0  0  0  0
   25.9299  -19.6580  -15.1162 C   0  0  0  0  0  0  0  0  0  0  0  0
   25.5302  -20.7306  -15.6031 O   0  0  0  0  0  0  0  0  0  0  0  0
   21.9242  -15.8125  -16.7243 N   0  0  0  0  0  0  0  0  0  0  0  0
   21.5889  -17.0795  -16.1735 C   0  0  0  0  0  0  0  0  0  0  0  0
   20.4785  -17.3090  -15.6689 O   0  0  0  0  0  0  0  0  0  0  0  0
   22.6820  -18.1247  -16.2473 C   0  0  0  0  0  0  0  0  0  0  0  0
   23.8768  -17.5542  -16.9647 C   0  0  0  0  0  0  0  0  0  0  0  0
   25.0031  -18.5005  -17.1346 C   0  0  2  0  0  0  0  0  0  0  0  0
   25.8856  -18.5154  -15.9588 N   0  0  0  0  0  0  0  0  0  0  0  0
   25.8123  -18.1695  -18.3206 C   0  0  0  0  0  0  0  0  0  0  0  0
   26.9500  -17.6061  -18.1561 O   0  0  0  0  0  0  0  0  0  0  0  0
   25.4431  -18.4213  -19.6285 O   0  0  0  0  0  0  0  0  0  0  0  0
  2  1  1  0
  3  2  2  0
  4  2  1  0
  5  4  1  0
  6  5  1  0
  6  7  1  1
  8 10  1  0
  8  6  1  0
  9  8  2  0
 10 14  1  0
 11 12  1  0
 11 10  1  0
 12 13  1  0
 13 14  1  0
 14 15  1  6
 15 16  2  0
 18 17  1  0
 18 19  2  0
 20 21  1  0
 20 18  1  0
 22 21  1  1
 22 24  1  0
 22 23  1  0
 23 15  1  0
 24 26  1  0
 25 24  2  0
M  END
$$$$
