QPQ.pdb
     RDKit          3D

 26 26  0  0  1  0  0  0  0  0999 V2000
   15.5940  -23.9379   -6.7849 N   0  0  0  0  0  0  0  0  0  0  0  0
   16.7481  -24.3369   -7.5045 C   0  0  0  0  0  0  0  0  0  0  0  0
   16.8686  -23.8845   -8.6828 O   0  0  0  0  0  0  0  0  0  0  0  0
   17.7814  -25.2377   -6.9350 C   0  0  0  0  0  0  0  0  0  0  0  0
   17.3782  -25.6064   -5.5429 C   0  0  0  0  0  0  0  0  0  0  0  0
   17.2324  -27.1255   -5.3818 C   0  0  2  0  0  0  0  0  0  0  0  0
   16.3929  -27.6949   -6.3694 N   0  0  0  0  0  0  0  0  0  0  0  0
   16.9343  -27.4427   -3.9823 C   0  0  0  0  0  0  0  0  0  0  0  0
   15.7633  -27.9504   -3.8302 O   0  0  0  0  0  0  0  0  0  0  0  0
   17.7799  -27.2462   -2.8608 N   0  0  0  0  0  0  0  0  0  0  0  0
   19.0522  -26.6058   -2.6937 C   0  0  0  0  0  0  0  0  0  0  0  0
   19.8571  -27.6156   -1.9051 C   0  0  0  0  0  0  0  0  0  0  0  0
   18.7892  -28.2788   -1.0732 C   0  0  0  0  0  0  0  0  0  0  0  0
   17.4592  -27.7188   -1.5283 C   0  0  1  0  0  0  0  0  0  0  0  0
   17.0028  -26.6473   -0.6279 C   0  0  0  0  0  0  0  0  0  0  0  0
   17.4593  -25.4911   -0.5820 O   0  0  0  0  0  0  0  0  0  0  0  0
   11.2687  -26.0412    1.4350 N   0  0  0  0  0  0  0  0  0  0  0  0
   11.8710  -27.2528    1.8713 C   0  0  0  0  0  0  0  0  0  0  0  0
   11.2083  -28.1865    2.3502 O   0  0  0  0  0  0  0  0  0  0  0  0
   13.3750  -27.3204    1.7094 C   0  0  0  0  0  0  0  0  0  0  0  0
   13.8833  -26.0083    1.1729 C   0  0  0  0  0  0  0  0  0  0  0  0
   15.3587  -25.8996    1.1073 C   0  0  2  0  0  0  0  0  0  0  0  0
   15.9471  -26.9560    0.2708 N   0  0  0  0  0  0  0  0  0  0  0  0
   15.9658  -25.9740    2.4477 C   0  0  0  0  0  0  0  0  0  0  0  0
   15.7103  -25.0491    3.2951 O   0  0  0  0  0  0  0  0  0  0  0  0
   16.8072  -26.9804    2.8829 O   0  0  0  0  0  0  0  0  0  0  0  0
  2  1  1  0
  3  2  2  0
  4  2  1  0
  5  4  1  0
  6  5  1  0
  6  7  1  6
  8 10  1  0
  8  6  1  0
  9  8  2  0
 10 14  1  0
 11 12  1  0
 11 10  1  0
 12 13  1  0
 13 14  1  0
 14 15  1  1
 15 16  2  0
 18 17  1  0
 18 19  2  0
 20 21  1  0
 20 18  1  0
 22 21  1  1
 22 24  1  0
 22 23  1  0
 23 15  1  0
 24 26  1  0
 25 24  2  0
M  END
$$$$
