QPQ.pdb
     RDKit          3D

 26 26  0  0  1  0  0  0  0  0999 V2000
   16.0242  -14.4001  -18.4587 N   0  0  0  0  0  0  0  0  0  0  0  0
   17.2748  -15.0508  -18.3121 C   0  0  0  0  0  0  0  0  0  0  0  0
   17.3227  -16.0122  -17.4871 O   0  0  0  0  0  0  0  0  0  0  0  0
   18.4855  -14.6502  -19.0720 C   0  0  0  0  0  0  0  0  0  0  0  0
   19.0450  -13.4069  -18.4573 C   0  0  0  0  0  0  0  0  0  0  0  0
   20.4449  -13.6460  -17.8762 C   0  0  2  0  0  0  0  0  0  0  0  0
   20.6243  -14.9780  -17.4310 N   0  0  0  0  0  0  0  0  0  0  0  0
   20.7734  -12.5727  -16.9339 C   0  0  0  0  0  0  0  0  0  0  0  0
   20.7396  -12.9634  -15.7098 O   0  0  0  0  0  0  0  0  0  0  0  0
   21.1029  -11.2292  -17.2470 N   0  0  0  0  0  0  0  0  0  0  0  0
   21.1260  -10.4869  -18.4739 C   0  0  0  0  0  0  0  0  0  0  0  0
   22.4697   -9.7920  -18.4432 C   0  0  0  0  0  0  0  0  0  0  0  0
   22.6686   -9.5710  -16.9653 C   0  0  0  0  0  0  0  0  0  0  0  0
   21.5240  -10.2598  -16.2548 C   0  0  1  0  0  0  0  0  0  0  0  0
   20.4678   -9.2971  -15.9008 C   0  0  0  0  0  0  0  0  0  0  0  0
   19.5246   -8.9493  -16.6333 O   0  0  0  0  0  0  0  0  0  0  0  0
   17.9539   -9.9080  -10.7112 N   0  0  0  0  0  0  0  0  0  0  0  0
   17.2000   -8.7381  -11.0008 C   0  0  0  0  0  0  0  0  0  0  0  0
   16.2454   -8.3744  -10.2959 O   0  0  0  0  0  0  0  0  0  0  0  0
   17.6453   -7.9709  -12.2280 C   0  0  0  0  0  0  0  0  0  0  0  0
   18.8243   -8.6660  -12.8561 C   0  0  0  0  0  0  0  0  0  0  0  0
   19.3576   -8.0015  -14.0673 C   0  0  2  0  0  0  0  0  0  0  0  0
   20.5266   -8.7102  -14.6087 N   0  0  0  0  0  0  0  0  0  0  0  0
   19.7445   -6.6067  -13.7920 C   0  0  0  0  0  0  0  0  0  0  0  0
   20.9769   -6.3377  -13.5740 O   0  0  0  0  0  0  0  0  0  0  0  0
   18.8724   -5.5353  -13.7488 O   0  0  0  0  0  0  0  0  0  0  0  0
  2  1  1  0
  3  2  2  0
  4  2  1  0
  5  4  1  0
  6  5  1  0
  6  7  1  1
  8 10  1  0
  8  6  1  0
  9  8  2  0
 10 14  1  0
 11 12  1  0
 11 10  1  0
 12 13  1  0
 13 14  1  0
 14 15  1  6
 15 16  2  0
 18 17  1  0
 18 19  2  0
 20 21  1  0
 20 18  1  0
 22 21  1  1
 22 24  1  0
 22 23  1  0
 23 15  1  0
 24 26  1  0
 25 24  2  0
M  END
$$$$
