QPQ.pdb
     RDKit          3D

 26 26  0  0  1  0  0  0  0  0999 V2000
   32.2308  -31.8922  -20.3133 N   0  0  0  0  0  0  0  0  0  0  0  0
   33.4858  -32.4558  -19.9723 C   0  0  0  0  0  0  0  0  0  0  0  0
   34.4088  -32.3536  -20.8353 O   0  0  0  0  0  0  0  0  0  0  0  0
   33.7378  -33.1378  -18.6781 C   0  0  0  0  0  0  0  0  0  0  0  0
   32.4600  -33.1761  -17.9021 C   0  0  0  0  0  0  0  0  0  0  0  0
   32.5154  -32.2519  -16.6785 C   0  0  2  0  0  0  0  0  0  0  0  0
   33.5294  -32.6269  -15.7643 N   0  0  0  0  0  0  0  0  0  0  0  0
   31.1636  -32.0666  -16.1435 C   0  0  0  0  0  0  0  0  0  0  0  0
   31.0094  -32.6154  -14.9915 O   0  0  0  0  0  0  0  0  0  0  0  0
   30.0871  -31.3762  -16.7568 N   0  0  0  0  0  0  0  0  0  0  0  0
   29.9279  -30.7493  -18.0368 C   0  0  0  0  0  0  0  0  0  0  0  0
   29.3317  -29.4002  -17.6997 C   0  0  0  0  0  0  0  0  0  0  0  0
   28.5193  -29.7206  -16.4709 C   0  0  0  0  0  0  0  0  0  0  0  0
   28.8068  -31.1620  -16.1114 C   0  0  1  0  0  0  0  0  0  0  0  0
   27.7479  -32.0520  -16.6156 C   0  0  0  0  0  0  0  0  0  0  0  0
   27.6621  -32.4983  -17.7735 O   0  0  0  0  0  0  0  0  0  0  0  0
   26.3570  -35.0583  -12.6805 N   0  0  0  0  0  0  0  0  0  0  0  0
   25.5090  -33.9302  -12.5094 C   0  0  0  0  0  0  0  0  0  0  0  0
   25.3639  -33.3717  -11.4106 O   0  0  0  0  0  0  0  0  0  0  0  0
   24.7982  -33.4616  -13.7617 C   0  0  0  0  0  0  0  0  0  0  0  0
   25.2848  -34.2566  -14.9444 C   0  0  0  0  0  0  0  0  0  0  0  0
   25.7277  -33.4383  -16.0965 C   0  0  2  0  0  0  0  0  0  0  0  0
   26.7311  -32.4386  -15.7023 N   0  0  0  0  0  0  0  0  0  0  0  0
   24.5957  -32.7385  -16.7287 C   0  0  0  0  0  0  0  0  0  0  0  0
   23.6814  -33.4295  -17.2991 O   0  0  0  0  0  0  0  0  0  0  0  0
   24.4284  -31.3669  -16.7600 O   0  0  0  0  0  0  0  0  0  0  0  0
  2  1  1  0
  3  2  2  0
  4  2  1  0
  5  4  1  0
  6  5  1  0
  6  7  1  1
  8 10  1  0
  8  6  1  0
  9  8  2  0
 10 14  1  0
 11 12  1  0
 11 10  1  0
 12 13  1  0
 13 14  1  0
 14 15  1  6
 15 16  2  0
 18 17  1  0
 18 19  2  0
 20 21  1  0
 20 18  1  0
 22 21  1  1
 22 24  1  0
 22 23  1  0
 23 15  1  0
 24 26  1  0
 25 24  2  0
M  END
$$$$
