QPQ.pdb
     RDKit          3D

 26 26  0  0  1  0  0  0  0  0999 V2000
   14.5670  -13.1934  -11.1990 N   0  0  0  0  0  0  0  0  0  0  0  0
   13.2811  -13.0295  -10.6257 C   0  0  0  0  0  0  0  0  0  0  0  0
   12.6761  -14.0866  -10.2740 O   0  0  0  0  0  0  0  0  0  0  0  0
   12.6479  -11.7007  -10.4335 C   0  0  0  0  0  0  0  0  0  0  0  0
   13.6127  -10.6448  -10.8702 C   0  0  0  0  0  0  0  0  0  0  0  0
   12.9674   -9.2526  -10.8605 C   0  0  2  0  0  0  0  0  0  0  0  0
   11.8302   -9.1789  -11.7007 N   0  0  0  0  0  0  0  0  0  0  0  0
   14.0033   -8.2317  -11.0410 C   0  0  0  0  0  0  0  0  0  0  0  0
   13.9838   -7.7114  -12.2162 O   0  0  0  0  0  0  0  0  0  0  0  0
   14.9595   -7.8035  -10.0850 N   0  0  0  0  0  0  0  0  0  0  0  0
   15.2318   -8.1901   -8.7311 C   0  0  0  0  0  0  0  0  0  0  0  0
   15.3382   -6.8700   -7.9994 C   0  0  0  0  0  0  0  0  0  0  0  0
   15.8998   -5.9690   -9.0696 C   0  0  0  0  0  0  0  0  0  0  0  0
   15.9455   -6.7743  -10.3498 C   0  0  1  0  0  0  0  0  0  0  0  0
   17.2954   -7.3125  -10.5859 C   0  0  0  0  0  0  0  0  0  0  0  0
   17.8917   -8.1271   -9.8592 O   0  0  0  0  0  0  0  0  0  0  0  0
   18.0765  -10.0177  -15.3947 N   0  0  0  0  0  0  0  0  0  0  0  0
   19.4548  -10.1556  -15.0746 C   0  0  0  0  0  0  0  0  0  0  0  0
   20.1933  -10.9620  -15.6618 O   0  0  0  0  0  0  0  0  0  0  0  0
   19.9540   -9.2497  -13.9687 C   0  0  0  0  0  0  0  0  0  0  0  0
   18.8003   -8.4670  -13.3995 C   0  0  0  0  0  0  0  0  0  0  0  0
   19.1487   -7.6084  -12.2443 C   0  0  2  0  0  0  0  0  0  0  0  0
   17.9825   -6.8648  -11.7456 N   0  0  0  0  0  0  0  0  0  0  0  0
   20.2053   -6.6413  -12.5895 C   0  0  0  0  0  0  0  0  0  0  0  0
   19.8719   -5.4455  -12.9021 O   0  0  0  0  0  0  0  0  0  0  0  0
   21.5595   -6.9174  -12.6047 O   0  0  0  0  0  0  0  0  0  0  0  0
  2  1  1  0
  3  2  2  0
  4  2  1  0
  5  4  1  0
  6  5  1  0
  6  7  1  6
  8 10  1  0
  8  6  1  0
  9  8  2  0
 10 14  1  0
 11 12  1  0
 11 10  1  0
 12 13  1  0
 13 14  1  0
 14 15  1  1
 15 16  2  0
 18 17  1  0
 18 19  2  0
 20 21  1  0
 20 18  1  0
 22 21  1  6
 22 24  1  0
 22 23  1  0
 23 15  1  0
 24 26  1  0
 25 24  2  0
M  END
$$$$
