QPQ.pdb
     RDKit          3D

 26 26  0  0  1  0  0  0  0  0999 V2000
   15.4799   -7.3139   -8.2262 N   0  0  0  0  0  0  0  0  0  0  0  0
   14.1514   -7.6197   -8.6142 C   0  0  0  0  0  0  0  0  0  0  0  0
   13.2476   -7.4333   -7.7449 O   0  0  0  0  0  0  0  0  0  0  0  0
   13.8040   -8.1339   -9.9627 C   0  0  0  0  0  0  0  0  0  0  0  0
   15.0466   -8.1711  -10.7940 C   0  0  0  0  0  0  0  0  0  0  0  0
   14.7479   -8.6044  -12.2354 C   0  0  2  0  0  0  0  0  0  0  0  0
   14.3831   -9.9696  -12.3240 N   0  0  0  0  0  0  0  0  0  0  0  0
   15.8195   -8.1366  -13.1190 C   0  0  0  0  0  0  0  0  0  0  0  0
   16.4095   -9.1001  -13.7319 O   0  0  0  0  0  0  0  0  0  0  0  0
   16.2273   -6.7954  -13.3349 N   0  0  0  0  0  0  0  0  0  0  0  0
   15.7645   -5.5370  -12.8259 C   0  0  0  0  0  0  0  0  0  0  0  0
   15.6361   -4.6785  -14.0652 C   0  0  0  0  0  0  0  0  0  0  0  0
   16.7369   -5.2281  -14.9362 C   0  0  0  0  0  0  0  0  0  0  0  0
   17.3172   -6.4259  -14.2164 C   0  0  1  0  0  0  0  0  0  0  0  0
   18.5477   -6.0617  -13.4949 C   0  0  0  0  0  0  0  0  0  0  0  0
   18.6026   -5.5148  -12.3790 O   0  0  0  0  0  0  0  0  0  0  0  0
   23.2391   -9.7515  -14.1686 N   0  0  0  0  0  0  0  0  0  0  0  0
   23.0538   -8.9472  -15.3260 C   0  0  0  0  0  0  0  0  0  0  0  0
   23.5006   -9.2732  -16.4371 O   0  0  0  0  0  0  0  0  0  0  0  0
   22.2743   -7.6680  -15.1047 C   0  0  0  0  0  0  0  0  0  0  0  0
   21.8518   -7.5789  -13.6622 C   0  0  0  0  0  0  0  0  0  0  0  0
   21.0248   -6.3950  -13.3344 C   0  0  2  0  0  0  0  0  0  0  0  0
   19.7855   -6.3591  -14.1248 N   0  0  0  0  0  0  0  0  0  0  0  0
   21.7619   -5.1404  -13.5662 C   0  0  0  0  0  0  0  0  0  0  0  0
   21.4919   -4.4473  -14.6080 O   0  0  0  0  0  0  0  0  0  0  0  0
   22.7431   -4.6318  -12.7362 O   0  0  0  0  0  0  0  0  0  0  0  0
  2  1  1  0
  3  2  2  0
  4  2  1  0
  5  4  1  0
  6  5  1  0
  6  7  1  1
  8 10  1  0
  8  6  1  0
  9  8  2  0
 10 14  1  0
 11 12  1  0
 11 10  1  0
 12 13  1  0
 13 14  1  0
 14 15  1  1
 15 16  2  0
 18 17  1  0
 18 19  2  0
 20 21  1  0
 20 18  1  0
 22 21  1  6
 22 24  1  0
 22 23  1  0
 23 15  1  0
 24 26  1  0
 25 24  2  0
M  END
$$$$
