QPQ.pdb
     RDKit          3D

 26 26  0  0  1  0  0  0  0  0999 V2000
   18.4471  -10.4956  -19.9761 N   0  0  0  0  0  0  0  0  0  0  0  0
   19.1804  -11.4606  -20.7110 C   0  0  0  0  0  0  0  0  0  0  0  0
   18.5157  -12.2088  -21.4892 O   0  0  0  0  0  0  0  0  0  0  0  0
   20.6527  -11.6122  -20.5970 C   0  0  0  0  0  0  0  0  0  0  0  0
   21.1563  -10.6327  -19.5852 C   0  0  0  0  0  0  0  0  0  0  0  0
   22.4684  -11.1066  -18.9461 C   0  0  2  0  0  0  0  0  0  0  0  0
   22.4531  -12.4898  -18.6442 N   0  0  0  0  0  0  0  0  0  0  0  0
   22.8479  -10.1880  -17.8690 C   0  0  0  0  0  0  0  0  0  0  0  0
   22.7388  -10.7213  -16.7046 O   0  0  0  0  0  0  0  0  0  0  0  0
   23.2951   -8.8488  -18.0034 N   0  0  0  0  0  0  0  0  0  0  0  0
   23.5286   -8.0034  -19.1381 C   0  0  0  0  0  0  0  0  0  0  0  0
   24.8940   -7.4115  -18.8649 C   0  0  0  0  0  0  0  0  0  0  0  0
   24.9023   -7.3381  -17.3592 C   0  0  0  0  0  0  0  0  0  0  0  0
   23.6332   -8.0044  -16.8746 C   0  0  1  0  0  0  0  0  0  0  0  0
   22.5970   -7.0045  -16.5684 C   0  0  0  0  0  0  0  0  0  0  0  0
   21.9110   -6.3879  -17.4029 O   0  0  0  0  0  0  0  0  0  0  0  0
   17.9694   -8.0679  -13.5936 N   0  0  0  0  0  0  0  0  0  0  0  0
   19.0917   -8.2752  -12.7459 C   0  0  0  0  0  0  0  0  0  0  0  0
   19.0384   -9.0055  -11.7438 O   0  0  0  0  0  0  0  0  0  0  0  0
   20.3524   -7.5424  -13.1539 C   0  0  0  0  0  0  0  0  0  0  0  0
   20.0647   -6.6717  -14.3483 C   0  0  0  0  0  0  0  0  0  0  0  0
   21.2164   -5.8667  -14.8155 C   0  0  2  0  0  0  0  0  0  0  0  0
   22.3550   -6.7142  -15.1992 N   0  0  0  0  0  0  0  0  0  0  0  0
   21.6681   -4.9193  -13.7814 C   0  0  0  0  0  0  0  0  0  0  0  0
   20.9016   -3.9473  -13.4551 O   0  0  0  0  0  0  0  0  0  0  0  0
   22.8765   -4.9898  -13.1142 O   0  0  0  0  0  0  0  0  0  0  0  0
  2  1  1  0
  3  2  2  0
  4  2  1  0
  5  4  1  0
  6  5  1  0
  6  7  1  1
  8 10  1  0
  8  6  1  0
  9  8  2  0
 10 14  1  0
 11 12  1  0
 11 10  1  0
 12 13  1  0
 13 14  1  0
 14 15  1  6
 15 16  2  0
 18 17  1  0
 18 19  2  0
 20 21  1  0
 20 18  1  0
 22 21  1  1
 22 24  1  0
 22 23  1  0
 23 15  1  0
 24 26  1  0
 25 24  2  0
M  END
$$$$
