QPQ.pdb
     RDKit          3D

 26 26  0  0  1  0  0  0  0  0999 V2000
   17.7767  -14.0087  -15.7552 N   0  0  0  0  0  0  0  0  0  0  0  0
   17.1443  -14.3252  -16.9836 C   0  0  0  0  0  0  0  0  0  0  0  0
   16.3028  -15.2732  -16.9626 O   0  0  0  0  0  0  0  0  0  0  0  0
   17.4314  -13.6018  -18.2476 C   0  0  0  0  0  0  0  0  0  0  0  0
   18.3298  -12.4457  -17.9423 C   0  0  0  0  0  0  0  0  0  0  0  0
   19.7665  -12.7085  -18.4130 C   0  0  2  0  0  0  0  0  0  0  0  0
   20.2856  -13.9254  -17.9087 N   0  0  0  0  0  0  0  0  0  0  0  0
   20.5740  -11.5012  -18.2173 C   0  0  0  0  0  0  0  0  0  0  0  0
   21.4132  -11.6202  -17.2510 O   0  0  0  0  0  0  0  0  0  0  0  0
   20.5054  -10.2952  -18.9606 N   0  0  0  0  0  0  0  0  0  0  0  0
   19.7218   -9.8833  -20.0889 C   0  0  0  0  0  0  0  0  0  0  0  0
   20.7406   -9.2680  -21.0231 C   0  0  0  0  0  0  0  0  0  0  0  0
   21.7426   -8.6961  -20.0528 C   0  0  0  0  0  0  0  0  0  0  0  0
   21.3177   -9.1309  -18.6672 C   0  0  1  0  0  0  0  0  0  0  0  0
   20.5713   -8.0609  -17.9850 C   0  0  0  0  0  0  0  0  0  0  0  0
   19.3434   -7.8735  -18.0514 O   0  0  0  0  0  0  0  0  0  0  0  0
   22.1401   -6.4361  -12.4890 N   0  0  0  0  0  0  0  0  0  0  0  0
   21.1078   -7.3901  -12.7017 C   0  0  0  0  0  0  0  0  0  0  0  0
   20.7000   -8.1367  -11.7980 O   0  0  0  0  0  0  0  0  0  0  0  0
   20.5444   -7.4285  -14.1066 C   0  0  0  0  0  0  0  0  0  0  0  0
   21.1065   -6.2830  -14.9062 C   0  0  0  0  0  0  0  0  0  0  0  0
   20.6169   -6.2069  -16.3017 C   0  0  2  0  0  0  0  0  0  0  0  0
   21.3148   -7.1593  -17.1778 N   0  0  0  0  0  0  0  0  0  0  0  0
   20.7825   -4.8531  -16.8590 C   0  0  0  0  0  0  0  0  0  0  0  0
   21.7398   -4.6347  -17.6805 O   0  0  0  0  0  0  0  0  0  0  0  0
   19.9742   -3.7706  -16.5673 O   0  0  0  0  0  0  0  0  0  0  0  0
  2  1  1  0
  3  2  2  0
  4  2  1  0
  5  4  1  0
  6  5  1  0
  6  7  1  1
  8 10  1  0
  8  6  1  0
  9  8  2  0
 10 14  1  0
 11 12  1  0
 11 10  1  0
 12 13  1  0
 13 14  1  0
 14 15  1  6
 15 16  2  0
 18 17  1  0
 18 19  2  0
 20 21  1  0
 20 18  1  0
 22 21  1  1
 22 24  1  0
 22 23  1  0
 23 15  1  0
 24 26  1  0
 25 24  2  0
M  END
$$$$
