QPQ.pdb
     RDKit          3D

 26 26  0  0  1  0  0  0  0  0999 V2000
   26.9006  -25.2605  -19.9223 N   0  0  0  0  0  0  0  0  0  0  0  0
   26.8593  -24.0235  -20.6129 C   0  0  0  0  0  0  0  0  0  0  0  0
   26.8619  -24.0786  -21.8795 O   0  0  0  0  0  0  0  0  0  0  0  0
   26.8145  -22.7131  -19.9169 C   0  0  0  0  0  0  0  0  0  0  0  0
   26.7763  -22.9574  -18.4419 C   0  0  0  0  0  0  0  0  0  0  0  0
   28.0761  -22.5070  -17.7620 C   0  0  2  0  0  0  0  0  0  0  0  0
   29.0751  -23.5099  -17.7892 N   0  0  0  0  0  0  0  0  0  0  0  0
   27.7653  -21.9034  -16.4631 C   0  0  0  0  0  0  0  0  0  0  0  0
   27.9124  -22.7279  -15.4881 O   0  0  0  0  0  0  0  0  0  0  0  0
   27.3437  -20.5719  -16.2164 N   0  0  0  0  0  0  0  0  0  0  0  0
   27.0561  -19.4604  -17.0760 C   0  0  0  0  0  0  0  0  0  0  0  0
   27.8093  -18.3139  -16.4377 C   0  0  0  0  0  0  0  0  0  0  0  0
   27.7470  -18.6797  -14.9766 C   0  0  0  0  0  0  0  0  0  0  0  0
   27.1023  -20.0457  -14.8874 C   0  0  1  0  0  0  0  0  0  0  0  0
   25.6714  -19.9326  -14.5602 C   0  0  0  0  0  0  0  0  0  0  0  0
   24.7385  -19.8825  -15.3815 O   0  0  0  0  0  0  0  0  0  0  0  0
   23.8257  -20.1111   -8.6470 N   0  0  0  0  0  0  0  0  0  0  0  0
   24.8270  -21.0355   -9.0520 C   0  0  0  0  0  0  0  0  0  0  0  0
   25.5536  -21.6241   -8.2359 O   0  0  0  0  0  0  0  0  0  0  0  0
   24.9416  -21.2486  -10.5468 C   0  0  0  0  0  0  0  0  0  0  0  0
   23.9161  -20.4043  -11.2560 C   0  0  0  0  0  0  0  0  0  0  0  0
   24.0271  -20.4111  -12.7326 C   0  0  2  0  0  0  0  0  0  0  0  0
   25.3191  -19.8751  -13.1854 N   0  0  0  0  0  0  0  0  0  0  0  0
   22.9506  -19.6237  -13.3587 C   0  0  0  0  0  0  0  0  0  0  0  0
   21.7997  -20.1625  -13.5143 O   0  0  0  0  0  0  0  0  0  0  0  0
   23.0758  -18.3209  -13.8029 O   0  0  0  0  0  0  0  0  0  0  0  0
  2  1  1  0
  3  2  2  0
  4  2  1  0
  5  4  1  0
  6  5  1  0
  6  7  1  1
  8 10  1  0
  8  6  1  0
  9  8  2  0
 10 14  1  0
 11 12  1  0
 11 10  1  0
 12 13  1  0
 13 14  1  0
 14 15  1  6
 15 16  2  0
 18 17  1  0
 18 19  2  0
 20 21  1  0
 20 18  1  0
 22 21  1  1
 22 24  1  0
 22 23  1  0
 23 15  1  0
 24 26  1  0
 25 24  2  0
M  END
$$$$
