QWN.pdb
     RDKit          3D

 32 33  0  0  1  0  0  0  0  0999 V2000
   24.1563  -33.8471   -4.7943 N   0  0  0  0  0  0  0  0  0  0  0  0
   25.2984  -33.3626   -5.4842 C   0  0  0  0  0  0  0  0  0  0  0  0
   25.1731  -32.6776   -6.5133 O   0  0  0  0  0  0  0  0  0  0  0  0
   26.6364  -33.6826   -4.9623 C   0  0  0  0  0  0  0  0  0  0  0  0
   26.6179  -34.5630   -3.7618 C   0  0  0  0  0  0  0  0  0  0  0  0
   27.9800  -34.7288   -3.1197 C   0  0  2  0  0  0  0  0  0  0  0  0
   28.5477  -36.0342   -3.4957 N   0  0  0  0  0  0  0  0  0  0  0  0
   27.7559  -34.7440   -1.6506 C   0  0  0  0  0  0  0  0  0  0  0  0
   27.5854  -35.8223   -1.0779 O   0  0  0  0  0  0  0  0  0  0  0  0
   27.7435  -33.5176   -0.9474 N   0  0  0  0  0  0  0  0  0  0  0  0
   27.5312  -33.4513    0.5031 C   0  0  1  0  0  0  0  0  0  0  0  0
   28.2144  -32.2646    1.0743 C   0  0  0  0  0  0  0  0  0  0  0  0
   27.9713  -32.0960    2.5039 C   0  0  0  0  0  0  0  0  0  0  0  0
   28.7004  -32.6694    3.5180 C   0  0  0  0  0  0  0  0  0  0  0  0
   28.1497  -32.3036    4.6690 N   0  0  0  0  0  0  0  0  0  0  0  0
   27.0749  -31.5029    4.4430 C   0  0  0  0  0  0  0  0  0  0  0  0
   26.1850  -30.8789    5.3145 C   0  0  0  0  0  0  0  0  0  0  0  0
   25.1803  -30.1205    4.7662 C   0  0  0  0  0  0  0  0  0  0  0  0
   25.0208  -29.9557    3.4082 C   0  0  0  0  0  0  0  0  0  0  0  0
   25.9182  -30.5867    2.5760 C   0  0  0  0  0  0  0  0  0  0  0  0
   26.9422  -31.3579    3.0952 C   0  0  0  0  0  0  0  0  0  0  0  0
   26.0871  -33.5803    0.7180 C   0  0  0  0  0  0  0  0  0  0  0  0
   25.2669  -33.3214   -0.2426 O   0  0  0  0  0  0  0  0  0  0  0  0
   22.0141  -37.0744    1.1315 N   0  0  0  0  0  0  0  0  0  0  0  0
   22.2797  -35.6658    0.9864 C   0  0  0  0  0  0  0  0  0  0  0  0
   21.3533  -34.8502    0.8555 O   0  0  0  0  0  0  0  0  0  0  0  0
   23.6775  -35.2586    1.0018 C   0  0  0  0  0  0  0  0  0  0  0  0
   23.9636  -34.1656    1.9734 C   0  0  2  0  0  0  0  0  0  0  0  0
   25.4368  -33.9805    1.9093 N   0  0  0  0  0  0  0  0  0  0  0  0
   23.5850  -34.5379    3.3440 C   0  0  0  0  0  0  0  0  0  0  0  0
   24.4369  -35.2128    4.1779 O   0  0  0  0  0  0  0  0  0  0  0  0
   22.4436  -34.2516    3.8223 O   0  0  0  0  0  0  0  0  0  0  0  0
  1  2  1  0
  2  3  2  0
  4  2  1  0
  4  5  1  0
  6  5  1  0
  6  7  1  6
  8  6  1  0
  8  9  2  0
 10  8  1  0
 11 10  1  0
 11 12  1  6
 13 12  1  0
 13 14  2  0
 15 14  1  0
 16 21  2  0
 16 15  1  0
 17 16  1  0
 18 17  2  0
 19 18  1  0
 19 20  2  0
 20 21  1  0
 21 13  1  0
 22 11  1  0
 23 22  2  0
 25 26  2  0
 25 24  1  0
 27 25  1  0
 28 27  1  6
 28 29  1  0
 29 22  1  0
 30 28  1  0
 31 30  1  0
 32 30  2  0
M  END
$$$$
