QWN.pdb
     RDKit          3D

 32 33  0  0  1  0  0  0  0  0999 V2000
   30.8410  -24.8945  -15.9668 N   0  0  0  0  0  0  0  0  0  0  0  0
   30.8218  -23.9149  -16.9939 C   0  0  0  0  0  0  0  0  0  0  0  0
   31.7724  -23.8108  -17.7874 O   0  0  0  0  0  0  0  0  0  0  0  0
   29.6575  -23.0224  -17.1073 C   0  0  0  0  0  0  0  0  0  0  0  0
   28.6679  -23.1838  -16.0067 C   0  0  0  0  0  0  0  0  0  0  0  0
   27.4081  -22.3670  -16.2096 C   0  0  2  0  0  0  0  0  0  0  0  0
   27.7679  -20.9793  -16.5453 N   0  0  0  0  0  0  0  0  0  0  0  0
   26.7043  -22.3433  -14.9008 C   0  0  0  0  0  0  0  0  0  0  0  0
   26.4754  -23.4065  -14.3202 O   0  0  0  0  0  0  0  0  0  0  0  0
   26.3146  -21.0986  -14.3556 N   0  0  0  0  0  0  0  0  0  0  0  0
   25.6329  -20.9924  -13.0604 C   0  0  1  0  0  0  0  0  0  0  0  0
   26.2392  -19.9141  -12.2412 C   0  0  0  0  0  0  0  0  0  0  0  0
   27.3068  -20.3899  -11.3667 C   0  0  0  0  0  0  0  0  0  0  0  0
   28.5432  -20.8323  -11.7722 C   0  0  0  0  0  0  0  0  0  0  0  0
   29.2134  -21.2083  -10.6899 N   0  0  0  0  0  0  0  0  0  0  0  0
   28.4526  -21.0264   -9.5785 C   0  0  0  0  0  0  0  0  0  0  0  0
   28.7084  -21.2693   -8.2307 C   0  0  0  0  0  0  0  0  0  0  0  0
   27.7152  -20.9759   -7.3293 C   0  0  0  0  0  0  0  0  0  0  0  0
   26.4940  -20.4587   -7.7008 C   0  0  0  0  0  0  0  0  0  0  0  0
   26.2750  -20.2310   -9.0410 C   0  0  0  0  0  0  0  0  0  0  0  0
   27.2542  -20.5151   -9.9756 C   0  0  0  0  0  0  0  0  0  0  0  0
   24.1988  -20.9081  -13.3515 C   0  0  0  0  0  0  0  0  0  0  0  0
   23.7723  -20.1007  -14.2618 O   0  0  0  0  0  0  0  0  0  0  0  0
   19.0512  -23.3591  -13.6868 N   0  0  0  0  0  0  0  0  0  0  0  0
   19.5684  -22.5139  -12.6408 C   0  0  0  0  0  0  0  0  0  0  0  0
   18.8133  -21.7959  -11.9664 O   0  0  0  0  0  0  0  0  0  0  0  0
   21.0074  -22.5494  -12.4227 C   0  0  0  0  0  0  0  0  0  0  0  0
   21.7316  -21.4223  -13.0753 C   0  0  2  0  0  0  0  0  0  0  0  0
   23.1606  -21.6436  -12.7323 N   0  0  0  0  0  0  0  0  0  0  0  0
   21.3065  -20.1184  -12.5463 C   0  0  0  0  0  0  0  0  0  0  0  0
   21.7863  -19.6197  -11.3641 O   0  0  0  0  0  0  0  0  0  0  0  0
   20.4687  -19.3891  -13.1626 O   0  0  0  0  0  0  0  0  0  0  0  0
  1  2  1  0
  2  3  2  0
  4  2  1  0
  4  5  1  0
  6  5  1  0
  6  7  1  1
  8  6  1  0
  8  9  2  0
 10  8  1  0
 11 10  1  0
 11 12  1  6
 13 12  1  0
 13 14  2  0
 15 14  1  0
 16 21  2  0
 16 15  1  0
 17 16  1  0
 18 17  2  0
 19 18  1  0
 19 20  2  0
 20 21  1  0
 21 13  1  0
 22 11  1  0
 23 22  2  0
 25 26  2  0
 25 24  1  0
 27 25  1  0
 28 27  1  1
 28 29  1  0
 29 22  1  0
 30 28  1  0
 31 30  1  0
 32 30  2  0
M  END
$$$$
