QWN.pdb
     RDKit          3D

 32 33  0  0  1  0  0  0  0  0999 V2000
   29.5208  -26.0543  -17.8116 N   0  0  0  0  0  0  0  0  0  0  0  0
   29.3348  -24.9820  -18.7230 C   0  0  0  0  0  0  0  0  0  0  0  0
   29.0300  -25.2032  -19.9072 O   0  0  0  0  0  0  0  0  0  0  0  0
   29.5070  -23.6011  -18.2450 C   0  0  0  0  0  0  0  0  0  0  0  0
   28.8155  -23.3211  -16.9565 C   0  0  0  0  0  0  0  0  0  0  0  0
   27.4354  -22.7222  -17.1354 C   0  0  2  0  0  0  0  0  0  0  0  0
   27.5546  -21.3644  -17.6920 N   0  0  0  0  0  0  0  0  0  0  0  0
   26.8485  -22.5992  -15.7756 C   0  0  0  0  0  0  0  0  0  0  0  0
   26.7702  -23.6001  -15.0600 O   0  0  0  0  0  0  0  0  0  0  0  0
   26.3940  -21.3340  -15.3381 N   0  0  0  0  0  0  0  0  0  0  0  0
   25.8034  -21.1329  -14.0099 C   0  0  1  0  0  0  0  0  0  0  0  0
   26.4359  -19.9757  -13.3300 C   0  0  0  0  0  0  0  0  0  0  0  0
   27.1444  -20.3457  -12.1084 C   0  0  0  0  0  0  0  0  0  0  0  0
   28.4561  -20.7482  -12.0285 C   0  0  0  0  0  0  0  0  0  0  0  0
   28.7171  -21.0266  -10.7571 N   0  0  0  0  0  0  0  0  0  0  0  0
   27.6122  -20.8188   -9.9935 C   0  0  0  0  0  0  0  0  0  0  0  0
   27.3888  -20.9697   -8.6267 C   0  0  0  0  0  0  0  0  0  0  0  0
   26.1362  -20.6747   -8.1478 C   0  0  0  0  0  0  0  0  0  0  0  0
   25.1076  -20.2419   -8.9549 C   0  0  0  0  0  0  0  0  0  0  0  0
   25.3632  -20.1039  -10.3009 C   0  0  0  0  0  0  0  0  0  0  0  0
   26.6139  -20.3923  -10.8162 C   0  0  0  0  0  0  0  0  0  0  0  0
   24.3504  -21.1051  -14.2013 C   0  0  0  0  0  0  0  0  0  0  0  0
   23.8435  -20.4591  -15.1953 O   0  0  0  0  0  0  0  0  0  0  0  0
   19.3374  -23.7533  -14.1812 N   0  0  0  0  0  0  0  0  0  0  0  0
   19.8620  -22.8686  -13.1723 C   0  0  0  0  0  0  0  0  0  0  0  0
   19.1050  -22.1901  -12.4600 O   0  0  0  0  0  0  0  0  0  0  0  0
   21.3107  -22.8162  -13.0373 C   0  0  0  0  0  0  0  0  0  0  0  0
   21.9220  -21.6247  -13.6908 C   0  0  2  0  0  0  0  0  0  0  0  0
   23.3740  -21.7357  -13.3943 N   0  0  0  0  0  0  0  0  0  0  0  0
   21.4108  -20.3675  -13.1262 C   0  0  0  0  0  0  0  0  0  0  0  0
   20.4304  -19.6364  -13.7434 O   0  0  0  0  0  0  0  0  0  0  0  0
   21.8572  -19.8960  -12.0344 O   0  0  0  0  0  0  0  0  0  0  0  0
  1  2  1  0
  2  3  2  0
  4  2  1  0
  4  5  1  0
  6  5  1  0
  6  7  1  1
  8  6  1  0
  8  9  2  0
 10  8  1  0
 11 10  1  0
 11 12  1  6
 13 12  1  0
 13 14  2  0
 15 14  1  0
 16 21  2  0
 16 15  1  0
 17 16  1  0
 18 17  2  0
 19 18  1  0
 19 20  2  0
 20 21  1  0
 21 13  1  0
 22 11  1  0
 23 22  2  0
 25 26  2  0
 25 24  1  0
 27 25  1  0
 28 27  1  1
 28 29  1  0
 29 22  1  0
 30 28  1  0
 31 30  1  0
 32 30  2  0
M  END
$$$$
