QWN.pdb
     RDKit          3D

 32 33  0  0  1  0  0  0  0  0999 V2000
   24.4521  -24.6386  -13.5976 N   0  0  0  0  0  0  0  0  0  0  0  0
   23.4249  -24.2093  -14.4781 C   0  0  0  0  0  0  0  0  0  0  0  0
   22.8709  -25.0147  -15.2452 O   0  0  0  0  0  0  0  0  0  0  0  0
   23.0231  -22.7938  -14.4697 C   0  0  0  0  0  0  0  0  0  0  0  0
   23.8356  -21.9445  -13.5558 C   0  0  0  0  0  0  0  0  0  0  0  0
   25.0908  -21.3977  -14.2043 C   0  0  2  0  0  0  0  0  0  0  0  0
   26.2671  -21.7855  -13.4083 N   0  0  0  0  0  0  0  0  0  0  0  0
   24.9828  -19.9163  -14.1519 C   0  0  0  0  0  0  0  0  0  0  0  0
   24.2116  -19.3965  -13.3426 O   0  0  0  0  0  0  0  0  0  0  0  0
   25.7693  -19.1410  -15.0345 N   0  0  0  0  0  0  0  0  0  0  0  0
   25.7737  -17.6742  -14.9927 C   0  0  1  0  0  0  0  0  0  0  0  0
   27.1361  -17.1511  -15.2604 C   0  0  0  0  0  0  0  0  0  0  0  0
   27.1723  -15.7003  -15.4185 C   0  0  0  0  0  0  0  0  0  0  0  0
   26.6440  -14.7813  -14.5437 C   0  0  0  0  0  0  0  0  0  0  0  0
   26.8490  -13.5730  -15.0536 N   0  0  0  0  0  0  0  0  0  0  0  0
   27.4993  -13.6684  -16.2432 C   0  0  0  0  0  0  0  0  0  0  0  0
   27.9290  -12.6970  -17.1447 C   0  0  0  0  0  0  0  0  0  0  0  0
   28.5692  -13.1207  -18.2830 C   0  0  0  0  0  0  0  0  0  0  0  0
   28.7993  -14.4492  -18.5636 C   0  0  0  0  0  0  0  0  0  0  0  0
   28.3613  -15.3826  -17.6509 C   0  0  0  0  0  0  0  0  0  0  0  0
   27.7131  -14.9900  -16.4939 C   0  0  0  0  0  0  0  0  0  0  0  0
   24.6849  -17.2303  -15.8678 C   0  0  0  0  0  0  0  0  0  0  0  0
   24.3994  -17.9001  -16.9318 O   0  0  0  0  0  0  0  0  0  0  0  0
   20.8124  -14.6410  -18.1235 N   0  0  0  0  0  0  0  0  0  0  0  0
   20.6496  -14.5585  -16.6943 C   0  0  0  0  0  0  0  0  0  0  0  0
   19.6319  -14.0534  -16.1944 O   0  0  0  0  0  0  0  0  0  0  0  0
   21.7317  -15.0938  -15.8806 C   0  0  0  0  0  0  0  0  0  0  0  0
   22.8220  -15.7163  -16.6834 C   0  0  2  0  0  0  0  0  0  0  0  0
   23.8533  -16.1002  -15.6846 N   0  0  0  0  0  0  0  0  0  0  0  0
   23.4089  -14.7667  -17.6397 C   0  0  0  0  0  0  0  0  0  0  0  0
   22.9069  -14.6006  -18.9035 O   0  0  0  0  0  0  0  0  0  0  0  0
   24.4153  -14.0526  -17.3388 O   0  0  0  0  0  0  0  0  0  0  0  0
  1  2  1  0
  2  3  2  0
  4  2  1  0
  4  5  1  0
  6  5  1  0
  6  7  1  1
  8  6  1  0
  8  9  2  0
 10  8  1  0
 11 10  1  0
 11 12  1  6
 13 12  1  0
 13 14  2  0
 15 14  1  0
 16 21  2  0
 16 15  1  0
 17 16  1  0
 18 17  2  0
 19 18  1  0
 19 20  2  0
 20 21  1  0
 21 13  1  0
 22 11  1  0
 23 22  2  0
 25 26  2  0
 25 24  1  0
 27 25  1  0
 28 27  1  1
 28 29  1  0
 29 22  1  0
 30 28  1  0
 31 30  1  0
 32 30  2  0
M  END
$$$$
