QWN.pdb
     RDKit          3D

 32 33  0  0  1  0  0  0  0  0999 V2000
   28.1952  -23.9844  -15.8619 N   0  0  0  0  0  0  0  0  0  0  0  0
   28.2125  -22.8805  -16.7542 C   0  0  0  0  0  0  0  0  0  0  0  0
   29.0053  -22.8519  -17.7106 O   0  0  0  0  0  0  0  0  0  0  0  0
   27.2757  -21.7679  -16.5314 C   0  0  0  0  0  0  0  0  0  0  0  0
   26.4847  -21.8913  -15.2761 C   0  0  0  0  0  0  0  0  0  0  0  0
   26.5766  -20.6675  -14.3877 C   0  0  2  0  0  0  0  0  0  0  0  0
   27.9831  -20.2492  -14.2672 N   0  0  0  0  0  0  0  0  0  0  0  0
   26.1173  -21.0891  -13.0386 C   0  0  0  0  0  0  0  0  0  0  0  0
   25.2743  -21.9834  -12.9410 O   0  0  0  0  0  0  0  0  0  0  0  0
   26.6607  -20.4510  -11.9001 N   0  0  0  0  0  0  0  0  0  0  0  0
   26.2096  -20.7645  -10.5394 C   0  0  1  0  0  0  0  0  0  0  0  0
   27.2403  -20.3717   -9.5471 C   0  0  0  0  0  0  0  0  0  0  0  0
   26.8026  -20.5477   -8.1656 C   0  0  0  0  0  0  0  0  0  0  0  0
   25.6479  -21.1731   -7.7600 C   0  0  0  0  0  0  0  0  0  0  0  0
   25.5917  -21.0998   -6.4359 N   0  0  0  0  0  0  0  0  0  0  0  0
   26.6793  -20.4420   -5.9544 C   0  0  0  0  0  0  0  0  0  0  0  0
   27.0657  -20.1169   -4.6561 C   0  0  0  0  0  0  0  0  0  0  0  0
   28.2440  -19.4311   -4.4933 C   0  0  0  0  0  0  0  0  0  0  0  0
   29.0463  -19.0577   -5.5485 C   0  0  0  0  0  0  0  0  0  0  0  0
   28.6340  -19.3951   -6.8183 C   0  0  0  0  0  0  0  0  0  0  0  0
   27.4526  -20.0860   -7.0177 C   0  0  0  0  0  0  0  0  0  0  0  0
   24.8700  -20.1855  -10.4020 C   0  0  0  0  0  0  0  0  0  0  0  0
   24.6640  -18.9542  -10.7241 O   0  0  0  0  0  0  0  0  0  0  0  0
   20.8842  -20.4049  -13.8225 N   0  0  0  0  0  0  0  0  0  0  0  0
   21.0650  -20.1068  -12.4246 C   0  0  0  0  0  0  0  0  0  0  0  0
   20.1813  -19.5260  -11.7747 O   0  0  0  0  0  0  0  0  0  0  0  0
   22.3261  -20.5197  -11.8254 C   0  0  0  0  0  0  0  0  0  0  0  0
   22.3440  -20.3930  -10.3407 C   0  0  2  0  0  0  0  0  0  0  0  0
   23.7036  -20.8403   -9.9407 N   0  0  0  0  0  0  0  0  0  0  0  0
   21.3449  -21.2634   -9.7044 C   0  0  0  0  0  0  0  0  0  0  0  0
   21.1007  -22.5370  -10.1457 O   0  0  0  0  0  0  0  0  0  0  0  0
   20.6558  -20.8734   -8.7111 O   0  0  0  0  0  0  0  0  0  0  0  0
  1  2  1  0
  2  3  2  0
  4  2  1  0
  4  5  1  0
  6  5  1  0
  6  7  1  1
  8  6  1  0
  8  9  2  0
 10  8  1  0
 11 10  1  0
 11 12  1  1
 13 12  1  0
 13 14  2  0
 15 14  1  0
 16 21  2  0
 16 15  1  0
 17 16  1  0
 18 17  2  0
 19 18  1  0
 19 20  2  0
 20 21  1  0
 21 13  1  0
 22 11  1  0
 23 22  2  0
 25 26  2  0
 25 24  1  0
 27 25  1  0
 28 27  1  6
 28 29  1  0
 29 22  1  0
 30 28  1  0
 31 30  1  0
 32 30  2  0
M  END
$$$$
