QWN.pdb
     RDKit          3D

 32 33  0  0  1  0  0  0  0  0999 V2000
   26.6564  -22.7658  -19.8630 N   0  0  0  0  0  0  0  0  0  0  0  0
   27.5449  -21.6801  -20.0790 C   0  0  0  0  0  0  0  0  0  0  0  0
   27.9998  -21.4500  -21.2122 O   0  0  0  0  0  0  0  0  0  0  0  0
   27.9202  -20.8275  -18.9400 C   0  0  0  0  0  0  0  0  0  0  0  0
   27.2446  -21.1966  -17.6656 C   0  0  0  0  0  0  0  0  0  0  0  0
   28.1979  -21.7272  -16.6143 C   0  0  2  0  0  0  0  0  0  0  0  0
   28.7115  -23.0422  -17.0320 N   0  0  0  0  0  0  0  0  0  0  0  0
   27.3952  -21.9310  -15.3802 C   0  0  0  0  0  0  0  0  0  0  0  0
   26.6822  -22.9320  -15.2834 O   0  0  0  0  0  0  0  0  0  0  0  0
   27.4708  -20.9683  -14.3477 N   0  0  0  0  0  0  0  0  0  0  0  0
   26.7772  -21.1415  -13.0662 C   0  0  1  0  0  0  0  0  0  0  0  0
   27.4765  -20.3944  -11.9919 C   0  0  0  0  0  0  0  0  0  0  0  0
   26.7322  -20.3644  -10.7365 C   0  0  0  0  0  0  0  0  0  0  0  0
   25.3836  -20.1348  -10.6049 C   0  0  0  0  0  0  0  0  0  0  0  0
   25.0943  -20.1546   -9.3096 N   0  0  0  0  0  0  0  0  0  0  0  0
   26.2165  -20.3914   -8.5803 C   0  0  0  0  0  0  0  0  0  0  0  0
   26.4229  -20.5011   -7.2070 C   0  0  0  0  0  0  0  0  0  0  0  0
   27.7013  -20.7477   -6.7710 C   0  0  0  0  0  0  0  0  0  0  0  0
   28.7713  -20.8886   -7.6266 C   0  0  0  0  0  0  0  0  0  0  0  0
   28.5314  -20.7742   -8.9777 C   0  0  0  0  0  0  0  0  0  0  0  0
   27.2556  -20.5263   -9.4506 C   0  0  0  0  0  0  0  0  0  0  0  0
   25.3664  -20.8289  -13.3118 C   0  0  0  0  0  0  0  0  0  0  0  0
   25.0421  -19.7193  -13.8829 O   0  0  0  0  0  0  0  0  0  0  0  0
   19.8178  -23.2206  -13.6609 N   0  0  0  0  0  0  0  0  0  0  0  0
   20.7538  -22.1999  -14.0581 C   0  0  0  0  0  0  0  0  0  0  0  0
   20.3742  -21.1828  -14.6599 O   0  0  0  0  0  0  0  0  0  0  0  0
   22.1514  -22.4259  -13.7184 C   0  0  0  0  0  0  0  0  0  0  0  0
   22.8575  -21.1920  -13.2715 C   0  0  2  0  0  0  0  0  0  0  0  0
   24.2482  -21.6345  -12.9908 N   0  0  0  0  0  0  0  0  0  0  0  0
   22.2712  -20.6402  -12.0417 C   0  0  0  0  0  0  0  0  0  0  0  0
   22.3162  -21.3106  -10.8479 O   0  0  0  0  0  0  0  0  0  0  0  0
   21.6905  -19.5105  -12.0277 O   0  0  0  0  0  0  0  0  0  0  0  0
  1  2  1  0
  2  3  2  0
  4  2  1  0
  4  5  1  0
  6  5  1  0
  6  7  1  6
  8  6  1  0
  8  9  2  0
 10  8  1  0
 11 10  1  0
 11 12  1  1
 13 12  1  0
 13 14  2  0
 15 14  1  0
 16 21  2  0
 16 15  1  0
 17 16  1  0
 18 17  2  0
 19 18  1  0
 19 20  2  0
 20 21  1  0
 21 13  1  0
 22 11  1  0
 23 22  2  0
 25 26  2  0
 25 24  1  0
 27 25  1  0
 28 27  1  1
 28 29  1  0
 29 22  1  0
 30 28  1  0
 31 30  1  0
 32 30  2  0
M  END
$$$$
