QWN.pdb
     RDKit          3D

 32 33  0  0  1  0  0  0  0  0999 V2000
   31.8026  -25.8776  -15.7149 N   0  0  0  0  0  0  0  0  0  0  0  0
   32.0068  -25.8538  -17.1195 C   0  0  0  0  0  0  0  0  0  0  0  0
   32.4735  -26.8435  -17.7083 O   0  0  0  0  0  0  0  0  0  0  0  0
   31.6565  -24.6383  -17.8711 C   0  0  0  0  0  0  0  0  0  0  0  0
   31.1406  -23.5326  -17.0179 C   0  0  0  0  0  0  0  0  0  0  0  0
   29.6589  -23.6456  -16.7224 C   0  0  2  0  0  0  0  0  0  0  0  0
   28.9060  -23.6998  -17.9865 N   0  0  0  0  0  0  0  0  0  0  0  0
   29.2706  -22.3932  -16.0229 C   0  0  0  0  0  0  0  0  0  0  0  0
   29.9192  -22.0251  -15.0412 O   0  0  0  0  0  0  0  0  0  0  0  0
   28.1643  -21.6556  -16.5032 N   0  0  0  0  0  0  0  0  0  0  0  0
   27.6901  -20.4368  -15.8378 C   0  0  1  0  0  0  0  0  0  0  0  0
   26.9963  -19.5525  -16.8064 C   0  0  0  0  0  0  0  0  0  0  0  0
   26.4041  -18.3727  -16.1832 C   0  0  0  0  0  0  0  0  0  0  0  0
   27.0503  -17.4927  -15.3484 C   0  0  0  0  0  0  0  0  0  0  0  0
   26.1689  -16.5771  -14.9653 N   0  0  0  0  0  0  0  0  0  0  0  0
   24.9561  -16.8282  -15.5249 C   0  0  0  0  0  0  0  0  0  0  0  0
   23.7353  -16.1643  -15.4271 C   0  0  0  0  0  0  0  0  0  0  0  0
   22.6713  -16.6776  -16.1268 C   0  0  0  0  0  0  0  0  0  0  0  0
   22.7633  -17.8068  -16.9098 C   0  0  0  0  0  0  0  0  0  0  0  0
   23.9848  -18.4381  -16.9838 C   0  0  0  0  0  0  0  0  0  0  0  0
   25.0772  -17.9474  -16.2918 C   0  0  0  0  0  0  0  0  0  0  0  0
   26.9456  -20.8732  -14.6530 C   0  0  0  0  0  0  0  0  0  0  0  0
   26.1773  -21.9066  -14.7191 O   0  0  0  0  0  0  0  0  0  0  0  0
   24.8432  -21.4048   -9.9663 N   0  0  0  0  0  0  0  0  0  0  0  0
   25.9458  -20.4887   -9.8216 C   0  0  0  0  0  0  0  0  0  0  0  0
   26.2653  -20.0428   -8.7081 O   0  0  0  0  0  0  0  0  0  0  0  0
   26.6545  -20.1205  -11.0389 C   0  0  0  0  0  0  0  0  0  0  0  0
   26.1125  -20.7803  -12.2602 C   0  0  2  0  0  0  0  0  0  0  0  0
   26.9646  -20.2779  -13.3695 N   0  0  0  0  0  0  0  0  0  0  0  0
   24.7163  -20.3983  -12.5156 C   0  0  0  0  0  0  0  0  0  0  0  0
   23.6650  -21.2087  -12.1769 O   0  0  0  0  0  0  0  0  0  0  0  0
   24.4167  -19.2937  -13.0667 O   0  0  0  0  0  0  0  0  0  0  0  0
  1  2  1  0
  2  3  2  0
  4  2  1  0
  4  5  1  0
  6  5  1  0
  6  7  1  6
  8  6  1  0
  8  9  2  0
 10  8  1  0
 11 10  1  0
 11 12  1  6
 13 12  1  0
 13 14  2  0
 15 14  1  0
 16 21  2  0
 16 15  1  0
 17 16  1  0
 18 17  2  0
 19 18  1  0
 19 20  2  0
 20 21  1  0
 21 13  1  0
 22 11  1  0
 23 22  2  0
 25 26  2  0
 25 24  1  0
 27 25  1  0
 28 27  1  1
 28 29  1  0
 29 22  1  0
 30 28  1  0
 31 30  1  0
 32 30  2  0
M  END
$$$$
