QWN.pdb
     RDKit          3D

 32 33  0  0  1  0  0  0  0  0999 V2000
   27.6816  -22.9808  -17.0366 N   0  0  0  0  0  0  0  0  0  0  0  0
   28.5005  -21.8245  -17.1222 C   0  0  0  0  0  0  0  0  0  0  0  0
   28.9985  -21.4803  -18.2074 O   0  0  0  0  0  0  0  0  0  0  0  0
   28.7516  -21.0361  -15.9055 C   0  0  0  0  0  0  0  0  0  0  0  0
   28.0693  -21.5682  -14.6938 C   0  0  0  0  0  0  0  0  0  0  0  0
   26.8690  -20.7454  -14.2725 C   0  0  2  0  0  0  0  0  0  0  0  0
   27.2598  -19.3317  -14.1440 N   0  0  0  0  0  0  0  0  0  0  0  0
   26.4792  -21.2272  -12.9218 C   0  0  0  0  0  0  0  0  0  0  0  0
   25.9288  -22.3246  -12.8088 O   0  0  0  0  0  0  0  0  0  0  0  0
   26.7505  -20.4115  -11.7994 N   0  0  0  0  0  0  0  0  0  0  0  0
   26.3343  -20.7860  -10.4430 C   0  0  1  0  0  0  0  0  0  0  0  0
   27.2878  -20.2501   -9.4405 C   0  0  0  0  0  0  0  0  0  0  0  0
   26.8785  -20.5103   -8.0636 C   0  0  0  0  0  0  0  0  0  0  0  0
   25.7451  -21.1828   -7.6737 C   0  0  0  0  0  0  0  0  0  0  0  0
   25.7107  -21.1823   -6.3467 N   0  0  0  0  0  0  0  0  0  0  0  0
   26.7919  -20.5268   -5.8482 C   0  0  0  0  0  0  0  0  0  0  0  0
   27.1940  -20.2635   -4.5407 C   0  0  0  0  0  0  0  0  0  0  0  0
   28.3597  -19.5607   -4.3602 C   0  0  0  0  0  0  0  0  0  0  0  0
   29.1349  -19.1127   -5.4067 C   0  0  0  0  0  0  0  0  0  0  0  0
   28.7078  -19.3905   -6.6860 C   0  0  0  0  0  0  0  0  0  0  0  0
   27.5384  -20.0964   -6.9032 C   0  0  0  0  0  0  0  0  0  0  0  0
   24.9245  -20.4039  -10.3207 C   0  0  0  0  0  0  0  0  0  0  0  0
   24.5207  -19.7533   -9.2833 O   0  0  0  0  0  0  0  0  0  0  0  0
   20.0239  -19.1464  -10.9052 N   0  0  0  0  0  0  0  0  0  0  0  0
   20.9252  -18.5396  -11.8514 C   0  0  0  0  0  0  0  0  0  0  0  0
   20.5521  -17.6110  -12.5855 O   0  0  0  0  0  0  0  0  0  0  0  0
   22.2803  -19.0703  -11.8970 C   0  0  0  0  0  0  0  0  0  0  0  0
   22.4868  -20.2407  -10.9980 C   0  0  2  0  0  0  0  0  0  0  0  0
   23.8887  -20.6656  -11.2486 N   0  0  0  0  0  0  0  0  0  0  0  0
   21.5817  -21.3511  -11.3275 C   0  0  0  0  0  0  0  0  0  0  0  0
   21.9285  -22.3357  -12.2146 O   0  0  0  0  0  0  0  0  0  0  0  0
   20.4286  -21.4501  -10.8040 O   0  0  0  0  0  0  0  0  0  0  0  0
  1  2  1  0
  2  3  2  0
  4  2  1  0
  4  5  1  0
  6  5  1  0
  6  7  1  1
  8  6  1  0
  8  9  2  0
 10  8  1  0
 11 10  1  0
 11 12  1  1
 13 12  1  0
 13 14  2  0
 15 14  1  0
 16 21  2  0
 16 15  1  0
 17 16  1  0
 18 17  2  0
 19 18  1  0
 19 20  2  0
 20 21  1  0
 21 13  1  0
 22 11  1  0
 23 22  2  0
 25 26  2  0
 25 24  1  0
 27 25  1  0
 28 27  1  6
 28 29  1  0
 29 22  1  0
 30 28  1  0
 31 30  1  0
 32 30  2  0
M  END
$$$$
