QWN.pdb
     RDKit          3D

 32 33  0  0  1  0  0  0  0  0999 V2000
   26.3108  -20.3445  -17.2450 N   0  0  0  0  0  0  0  0  0  0  0  0
   27.5371  -20.9898  -17.5531 C   0  0  0  0  0  0  0  0  0  0  0  0
   28.1116  -20.7750  -18.6337 O   0  0  0  0  0  0  0  0  0  0  0  0
   28.1209  -21.9185  -16.5724 C   0  0  0  0  0  0  0  0  0  0  0  0
   27.3029  -22.0816  -15.3391 C   0  0  0  0  0  0  0  0  0  0  0  0
   27.3463  -20.8723  -14.4275 C   0  0  2  0  0  0  0  0  0  0  0  0
   28.7459  -20.4785  -14.1958 N   0  0  0  0  0  0  0  0  0  0  0  0
   26.7809  -21.3056  -13.1232 C   0  0  0  0  0  0  0  0  0  0  0  0
   25.8875  -22.1550  -13.1058 O   0  0  0  0  0  0  0  0  0  0  0  0
   27.2839  -20.7300  -11.9339 N   0  0  0  0  0  0  0  0  0  0  0  0
   26.6663  -20.9754  -10.6256 C   0  0  1  0  0  0  0  0  0  0  0  0
   27.6099  -20.6324   -9.5332 C   0  0  0  0  0  0  0  0  0  0  0  0
   26.9722  -20.5769   -8.2212 C   0  0  0  0  0  0  0  0  0  0  0  0
   25.6783  -20.9439   -7.9384 C   0  0  0  0  0  0  0  0  0  0  0  0
   25.4663  -20.7169   -6.6478 N   0  0  0  0  0  0  0  0  0  0  0  0
   26.5864  -20.2091   -6.0691 C   0  0  0  0  0  0  0  0  0  0  0  0
   26.8559  -19.8155   -4.7602 C   0  0  0  0  0  0  0  0  0  0  0  0
   28.1107  -19.3310   -4.4846 C   0  0  0  0  0  0  0  0  0  0  0  0
   29.0982  -19.2208   -5.4382 C   0  0  0  0  0  0  0  0  0  0  0  0
   28.7976  -19.6190   -6.7216 C   0  0  0  0  0  0  0  0  0  0  0  0
   27.5435  -20.1118   -7.0335 C   0  0  0  0  0  0  0  0  0  0  0  0
   25.3664  -20.2983  -10.6463 C   0  0  0  0  0  0  0  0  0  0  0  0
   25.3105  -19.0103  -10.6369 O   0  0  0  0  0  0  0  0  0  0  0  0
   22.1079  -17.8565  -13.5006 N   0  0  0  0  0  0  0  0  0  0  0  0
   22.0971  -19.2880  -13.3380 C   0  0  0  0  0  0  0  0  0  0  0  0
   21.1748  -19.9776  -13.8010 O   0  0  0  0  0  0  0  0  0  0  0  0
   23.2143  -19.8720  -12.6096 C   0  0  0  0  0  0  0  0  0  0  0  0
   22.8924  -20.1889  -11.1895 C   0  0  2  0  0  0  0  0  0  0  0  0
   24.0901  -20.9083  -10.6831 N   0  0  0  0  0  0  0  0  0  0  0  0
   21.7199  -21.0682  -11.0765 C   0  0  0  0  0  0  0  0  0  0  0  0
   21.7863  -22.4099  -11.3448 O   0  0  0  0  0  0  0  0  0  0  0  0
   20.5834  -20.6233  -10.7244 O   0  0  0  0  0  0  0  0  0  0  0  0
  1  2  1  0
  2  3  2  0
  4  2  1  0
  4  5  1  0
  6  5  1  0
  6  7  1  1
  8  6  1  0
  8  9  2  0
 10  8  1  0
 11 10  1  0
 11 12  1  1
 13 12  1  0
 13 14  2  0
 15 14  1  0
 16 21  2  0
 16 15  1  0
 17 16  1  0
 18 17  2  0
 19 18  1  0
 19 20  2  0
 20 21  1  0
 21 13  1  0
 22 11  1  0
 23 22  2  0
 25 26  2  0
 25 24  1  0
 27 25  1  0
 28 27  1  6
 28 29  1  0
 29 22  1  0
 30 28  1  0
 31 30  1  0
 32 30  2  0
M  END
$$$$
