QWN.pdb
     RDKit          3D

 32 33  0  0  1  0  0  0  0  0999 V2000
   29.2029  -22.6045  -19.0537 N   0  0  0  0  0  0  0  0  0  0  0  0
   29.7138  -21.3146  -18.7534 C   0  0  0  0  0  0  0  0  0  0  0  0
   30.3602  -20.6765  -19.6014 O   0  0  0  0  0  0  0  0  0  0  0  0
   29.4661  -20.7413  -17.4212 C   0  0  0  0  0  0  0  0  0  0  0  0
   28.7633  -21.6668  -16.4905 C   0  0  0  0  0  0  0  0  0  0  0  0
   27.5166  -21.0647  -15.8752 C   0  0  2  0  0  0  0  0  0  0  0  0
   27.5828  -19.5964  -15.9617 N   0  0  0  0  0  0  0  0  0  0  0  0
   27.5373  -21.4301  -14.4348 C   0  0  0  0  0  0  0  0  0  0  0  0
   28.3855  -22.2265  -14.0270 O   0  0  0  0  0  0  0  0  0  0  0  0
   26.5805  -20.8534  -13.5685 N   0  0  0  0  0  0  0  0  0  0  0  0
   25.8643  -21.6426  -12.5597 C   0  0  1  0  0  0  0  0  0  0  0  0
   26.7667  -21.9881  -11.4338 C   0  0  0  0  0  0  0  0  0  0  0  0
   26.5703  -21.1411  -10.2610 C   0  0  0  0  0  0  0  0  0  0  0  0
   25.4220  -20.4547   -9.9464 C   0  0  0  0  0  0  0  0  0  0  0  0
   25.6491  -19.7775   -8.8276 N   0  0  0  0  0  0  0  0  0  0  0  0
   26.9180  -19.9979   -8.3935 C   0  0  0  0  0  0  0  0  0  0  0  0
   27.6147  -19.5190   -7.2862 C   0  0  0  0  0  0  0  0  0  0  0  0
   28.9130  -19.9339   -7.1201 C   0  0  0  0  0  0  0  0  0  0  0  0
   29.5434  -20.7924   -7.9932 C   0  0  0  0  0  0  0  0  0  0  0  0
   28.8253  -21.2463   -9.0769 C   0  0  0  0  0  0  0  0  0  0  0  0
   27.5155  -20.8483   -9.2740 C   0  0  0  0  0  0  0  0  0  0  0  0
   24.6351  -20.9059  -12.2517 C   0  0  0  0  0  0  0  0  0  0  0  0
   24.6520  -19.6178  -12.1984 O   0  0  0  0  0  0  0  0  0  0  0  0
   19.9826  -19.6858  -13.6805 N   0  0  0  0  0  0  0  0  0  0  0  0
   21.0241  -20.1607  -14.5555 C   0  0  0  0  0  0  0  0  0  0  0  0
   20.9123  -20.0750  -15.7887 O   0  0  0  0  0  0  0  0  0  0  0  0
   22.1993  -20.7391  -13.9198 C   0  0  0  0  0  0  0  0  0  0  0  0
   22.1098  -20.7732  -12.4327 C   0  0  2  0  0  0  0  0  0  0  0  0
   23.3562  -21.4545  -11.9957 N   0  0  0  0  0  0  0  0  0  0  0  0
   20.9502  -21.5499  -11.9713 C   0  0  0  0  0  0  0  0  0  0  0  0
   19.8006  -20.9506  -11.5289 O   0  0  0  0  0  0  0  0  0  0  0  0
   20.9597  -22.8201  -11.9594 O   0  0  0  0  0  0  0  0  0  0  0  0
  1  2  1  0
  2  3  2  0
  4  2  1  0
  4  5  1  0
  6  5  1  0
  6  7  1  1
  8  6  1  0
  8  9  2  0
 10  8  1  0
 11 10  1  0
 11 12  1  1
 13 12  1  0
 13 14  2  0
 15 14  1  0
 16 21  2  0
 16 15  1  0
 17 16  1  0
 18 17  2  0
 19 18  1  0
 19 20  2  0
 20 21  1  0
 21 13  1  0
 22 11  1  0
 23 22  2  0
 25 26  2  0
 25 24  1  0
 27 25  1  0
 28 27  1  6
 28 29  1  0
 29 22  1  0
 30 28  1  0
 31 30  1  0
 32 30  2  0
M  END
$$$$
