QWN.pdb
     RDKit          3D

 32 33  0  0  1  0  0  0  0  0999 V2000
   29.1241  -24.3203  -16.0511 N   0  0  0  0  0  0  0  0  0  0  0  0
   29.5104  -23.0817  -16.6270 C   0  0  0  0  0  0  0  0  0  0  0  0
   30.2217  -23.0515  -17.6454 O   0  0  0  0  0  0  0  0  0  0  0  0
   29.0550  -21.8305  -16.0007 C   0  0  0  0  0  0  0  0  0  0  0  0
   28.2286  -22.0365  -14.7795 C   0  0  0  0  0  0  0  0  0  0  0  0
   26.8748  -21.3602  -14.8515 C   0  0  2  0  0  0  0  0  0  0  0  0
   27.0561  -19.9062  -14.9954 N   0  0  0  0  0  0  0  0  0  0  0  0
   26.2115  -21.6018  -13.5437 C   0  0  0  0  0  0  0  0  0  0  0  0
   26.0038  -22.7608  -13.1782 O   0  0  0  0  0  0  0  0  0  0  0  0
   25.8348  -20.4928  -12.7520 N   0  0  0  0  0  0  0  0  0  0  0  0
   25.0732  -20.6449  -11.5070 C   0  0  1  0  0  0  0  0  0  0  0  0
   25.6659  -19.8133  -10.4306 C   0  0  0  0  0  0  0  0  0  0  0  0
   26.9472  -20.3234   -9.9519 C   0  0  0  0  0  0  0  0  0  0  0  0
   27.8492  -21.0537  -10.6881 C   0  0  0  0  0  0  0  0  0  0  0  0
   28.8686  -21.3566   -9.8938 N   0  0  0  0  0  0  0  0  0  0  0  0
   28.6649  -20.8457   -8.6510 C   0  0  0  0  0  0  0  0  0  0  0  0
   29.4346  -20.8960   -7.4909 C   0  0  0  0  0  0  0  0  0  0  0  0
   28.9445  -20.2699   -6.3716 C   0  0  0  0  0  0  0  0  0  0  0  0
   27.7391  -19.6040   -6.3520 C   0  0  0  0  0  0  0  0  0  0  0  0
   27.0041  -19.5741   -7.5160 C   0  0  0  0  0  0  0  0  0  0  0  0
   27.4686  -20.1944   -8.6616 C   0  0  0  0  0  0  0  0  0  0  0  0
   23.6661  -20.4200  -11.8507 C   0  0  0  0  0  0  0  0  0  0  0  0
   23.3491  -19.5065  -12.7036 O   0  0  0  0  0  0  0  0  0  0  0  0
   19.7583  -22.1006  -15.1026 N   0  0  0  0  0  0  0  0  0  0  0  0
   19.9788  -21.1939  -14.0048 C   0  0  0  0  0  0  0  0  0  0  0  0
   19.1207  -20.3562  -13.6846 O   0  0  0  0  0  0  0  0  0  0  0  0
   21.2481  -21.3143  -13.3018 C   0  0  0  0  0  0  0  0  0  0  0  0
   21.1751  -20.8915  -11.8747 C   0  0  2  0  0  0  0  0  0  0  0  0
   22.5446  -21.1184  -11.3440 N   0  0  0  0  0  0  0  0  0  0  0  0
   20.2217  -21.7075  -11.1095 C   0  0  0  0  0  0  0  0  0  0  0  0
   20.6027  -22.8438  -10.4458 O   0  0  0  0  0  0  0  0  0  0  0  0
   18.9926  -21.3973  -11.0281 O   0  0  0  0  0  0  0  0  0  0  0  0
  1  2  1  0
  2  3  2  0
  4  2  1  0
  4  5  1  0
  6  5  1  0
  6  7  1  1
  8  6  1  0
  8  9  2  0
 10  8  1  0
 11 10  1  0
 11 12  1  1
 13 12  1  0
 13 14  2  0
 15 14  1  0
 16 21  2  0
 16 15  1  0
 17 16  1  0
 18 17  2  0
 19 18  1  0
 19 20  2  0
 20 21  1  0
 21 13  1  0
 22 11  1  0
 23 22  2  0
 25 26  2  0
 25 24  1  0
 27 25  1  0
 28 27  1  6
 28 29  1  0
 29 22  1  0
 30 28  1  0
 31 30  1  0
 32 30  2  0
M  END
$$$$
