QWN.pdb
     RDKit          3D

 32 33  0  0  1  0  0  0  0  0999 V2000
   26.9912  -16.1656  -15.6249 N   0  0  0  0  0  0  0  0  0  0  0  0
   28.1208  -16.6593  -16.3288 C   0  0  0  0  0  0  0  0  0  0  0  0
   28.6955  -15.9558  -17.1767 O   0  0  0  0  0  0  0  0  0  0  0  0
   28.6041  -18.0185  -16.0392 C   0  0  0  0  0  0  0  0  0  0  0  0
   27.8307  -18.7168  -14.9757 C   0  0  0  0  0  0  0  0  0  0  0  0
   28.3217  -20.1242  -14.7045 C   0  0  2  0  0  0  0  0  0  0  0  0
   28.4866  -20.8439  -15.9783 N   0  0  0  0  0  0  0  0  0  0  0  0
   27.2458  -20.8072  -13.9399 C   0  0  0  0  0  0  0  0  0  0  0  0
   26.2706  -21.2590  -14.5440 O   0  0  0  0  0  0  0  0  0  0  0  0
   27.3696  -20.9204  -12.5362 N   0  0  0  0  0  0  0  0  0  0  0  0
   26.3859  -21.6423  -11.7211 C   0  0  1  0  0  0  0  0  0  0  0  0
   26.9783  -22.0351  -10.4187 C   0  0  0  0  0  0  0  0  0  0  0  0
   26.8107  -21.0198   -9.3832 C   0  0  0  0  0  0  0  0  0  0  0  0
   25.7386  -20.1695   -9.2549 C   0  0  0  0  0  0  0  0  0  0  0  0
   25.9727  -19.3773   -8.2159 N   0  0  0  0  0  0  0  0  0  0  0  0
   27.1719  -19.6811   -7.6532 C   0  0  0  0  0  0  0  0  0  0  0  0
   27.8468  -19.1396   -6.5613 C   0  0  0  0  0  0  0  0  0  0  0  0
   29.0688  -19.6747   -6.2364 C   0  0  0  0  0  0  0  0  0  0  0  0
   29.6444  -20.7106   -6.9381 C   0  0  0  0  0  0  0  0  0  0  0  0
   28.9499  -21.2218   -8.0116 C   0  0  0  0  0  0  0  0  0  0  0  0
   27.7164  -20.7063   -8.3659 C   0  0  0  0  0  0  0  0  0  0  0  0
   25.1754  -20.8159  -11.7021 C   0  0  0  0  0  0  0  0  0  0  0  0
   25.2729  -19.5303  -11.6955 O   0  0  0  0  0  0  0  0  0  0  0  0
   20.8204  -19.1543  -13.6316 N   0  0  0  0  0  0  0  0  0  0  0  0
   21.9806  -19.5508  -14.3881 C   0  0  0  0  0  0  0  0  0  0  0  0
   22.0629  -19.3154  -15.6040 O   0  0  0  0  0  0  0  0  0  0  0  0
   23.0371  -20.2341  -13.6554 C   0  0  0  0  0  0  0  0  0  0  0  0
   22.7218  -20.4329  -12.2126 C   0  0  2  0  0  0  0  0  0  0  0  0
   23.8354  -21.2702  -11.6954 N   0  0  0  0  0  0  0  0  0  0  0  0
   21.4528  -21.1501  -12.0228 C   0  0  0  0  0  0  0  0  0  0  0  0
   20.2600  -20.4938  -11.8711 O   0  0  0  0  0  0  0  0  0  0  0  0
   21.4019  -22.4189  -11.9887 O   0  0  0  0  0  0  0  0  0  0  0  0
  1  2  1  0
  2  3  2  0
  4  2  1  0
  4  5  1  0
  6  5  1  0
  6  7  1  6
  8  6  1  0
  8  9  2  0
 10  8  1  0
 11 10  1  0
 11 12  1  1
 13 12  1  0
 13 14  2  0
 15 14  1  0
 16 21  2  0
 16 15  1  0
 17 16  1  0
 18 17  2  0
 19 18  1  0
 19 20  2  0
 20 21  1  0
 21 13  1  0
 22 11  1  0
 23 22  2  0
 25 26  2  0
 25 24  1  0
 27 25  1  0
 28 27  1  6
 28 29  1  0
 29 22  1  0
 30 28  1  0
 31 30  1  0
 32 30  2  0
M  END
$$$$
