QWN.pdb
     RDKit          3D

 32 33  0  0  1  0  0  0  0  0999 V2000
   28.5164  -17.7878  -14.8912 N   0  0  0  0  0  0  0  0  0  0  0  0
   28.5627  -18.2307  -16.2390 C   0  0  0  0  0  0  0  0  0  0  0  0
   29.3242  -17.6886  -17.0578 O   0  0  0  0  0  0  0  0  0  0  0  0
   27.6952  -19.3441  -16.6546 C   0  0  0  0  0  0  0  0  0  0  0  0
   27.0289  -20.0417  -15.5205 C   0  0  0  0  0  0  0  0  0  0  0  0
   28.0052  -20.6744  -14.5500 C   0  0  2  0  0  0  0  0  0  0  0  0
   28.5306  -21.9249  -15.1227 N   0  0  0  0  0  0  0  0  0  0  0  0
   27.2243  -21.0305  -13.3367 C   0  0  0  0  0  0  0  0  0  0  0  0
   26.1331  -21.5899  -13.4648 O   0  0  0  0  0  0  0  0  0  0  0  0
   27.7550  -20.7167  -12.0645 N   0  0  0  0  0  0  0  0  0  0  0  0
   27.0175  -20.9814  -10.8238 C   0  0  1  0  0  0  0  0  0  0  0  0
   27.8555  -20.6589   -9.6426 C   0  0  0  0  0  0  0  0  0  0  0  0
   27.1128  -20.6934   -8.3863 C   0  0  0  0  0  0  0  0  0  0  0  0
   25.7977  -21.0639   -8.2379 C   0  0  0  0  0  0  0  0  0  0  0  0
   25.4822  -20.9311   -6.9554 N   0  0  0  0  0  0  0  0  0  0  0  0
   26.5543  -20.4822   -6.2510 C   0  0  0  0  0  0  0  0  0  0  0  0
   26.7183  -20.1908   -4.8986 C   0  0  0  0  0  0  0  0  0  0  0  0
   27.9494  -19.7441   -4.4863 C   0  0  0  0  0  0  0  0  0  0  0  0
   29.0124  -19.5757   -5.3455 C   0  0  0  0  0  0  0  0  0  0  0  0
   28.8154  -19.8731   -6.6755 C   0  0  0  0  0  0  0  0  0  0  0  0
   27.5879  -20.3254   -7.1244 C   0  0  0  0  0  0  0  0  0  0  0  0
   25.7263  -20.3002  -10.9547 C   0  0  0  0  0  0  0  0  0  0  0  0
   25.6834  -19.0660  -11.3251 O   0  0  0  0  0  0  0  0  0  0  0  0
   21.6822  -18.1818  -12.7299 N   0  0  0  0  0  0  0  0  0  0  0  0
   22.1325  -19.4523  -13.2387 C   0  0  0  0  0  0  0  0  0  0  0  0
   21.5307  -20.0208  -14.1635 O   0  0  0  0  0  0  0  0  0  0  0  0
   23.3174  -20.0239  -12.6150 C   0  0  0  0  0  0  0  0  0  0  0  0
   23.2016  -20.1534  -11.1350 C   0  0  2  0  0  0  0  0  0  0  0  0
   24.4452  -20.8532  -10.7196 N   0  0  0  0  0  0  0  0  0  0  0  0
   22.0400  -20.9654  -10.7453 C   0  0  0  0  0  0  0  0  0  0  0  0
   21.9000  -22.2716  -11.1337 O   0  0  0  0  0  0  0  0  0  0  0  0
   21.1052  -20.4916  -10.0275 O   0  0  0  0  0  0  0  0  0  0  0  0
  1  2  1  0
  2  3  2  0
  4  2  1  0
  4  5  1  0
  6  5  1  0
  6  7  1  6
  8  6  1  0
  8  9  2  0
 10  8  1  0
 11 10  1  0
 11 12  1  1
 13 12  1  0
 13 14  2  0
 15 14  1  0
 16 21  2  0
 16 15  1  0
 17 16  1  0
 18 17  2  0
 19 18  1  0
 19 20  2  0
 20 21  1  0
 21 13  1  0
 22 11  1  0
 23 22  2  0
 25 26  2  0
 25 24  1  0
 27 25  1  0
 28 27  1  6
 28 29  1  0
 29 22  1  0
 30 28  1  0
 31 30  1  0
 32 30  2  0
M  END
$$$$
