QWN.pdb
     RDKit          3D

 32 33  0  0  1  0  0  0  0  0999 V2000
   29.2293  -20.2448  -17.7622 N   0  0  0  0  0  0  0  0  0  0  0  0
   28.2855  -19.1923  -17.6345 C   0  0  0  0  0  0  0  0  0  0  0  0
   27.8770  -18.5830  -18.6375 O   0  0  0  0  0  0  0  0  0  0  0  0
   27.7952  -18.8319  -16.2948 C   0  0  0  0  0  0  0  0  0  0  0  0
   27.0860  -19.9395  -15.5971 C   0  0  0  0  0  0  0  0  0  0  0  0
   27.9657  -20.6923  -14.6200 C   0  0  2  0  0  0  0  0  0  0  0  0
   28.3192  -22.0055  -15.1842 N   0  0  0  0  0  0  0  0  0  0  0  0
   27.1410  -20.9329  -13.4073 C   0  0  0  0  0  0  0  0  0  0  0  0
   26.1423  -21.6510  -13.4902 O   0  0  0  0  0  0  0  0  0  0  0  0
   27.5247  -20.3295  -12.1878 N   0  0  0  0  0  0  0  0  0  0  0  0
   26.8377  -20.6180  -10.9236 C   0  0  1  0  0  0  0  0  0  0  0  0
   27.5547  -19.9887   -9.7873 C   0  0  0  0  0  0  0  0  0  0  0  0
   26.9563  -20.2950   -8.4915 C   0  0  0  0  0  0  0  0  0  0  0  0
   25.7219  -20.8641   -8.2887 C   0  0  0  0  0  0  0  0  0  0  0  0
   25.5260  -20.9495   -6.9786 N   0  0  0  0  0  0  0  0  0  0  0  0
   26.5988  -20.4515   -6.3090 C   0  0  0  0  0  0  0  0  0  0  0  0
   26.8629  -20.3229   -4.9472 C   0  0  0  0  0  0  0  0  0  0  0  0
   28.0626  -19.7658   -4.5791 C   0  0  0  0  0  0  0  0  0  0  0  0
   29.0009  -19.3357   -5.4909 C   0  0  0  0  0  0  0  0  0  0  0  0
   28.7073  -19.4779   -6.8287 C   0  0  0  0  0  0  0  0  0  0  0  0
   27.5080  -20.0352   -7.2339 C   0  0  0  0  0  0  0  0  0  0  0  0
   25.4297  -20.2644  -11.1259 C   0  0  0  0  0  0  0  0  0  0  0  0
   25.1158  -19.0927  -11.5630 O   0  0  0  0  0  0  0  0  0  0  0  0
   20.9085  -21.4645  -14.0233 N   0  0  0  0  0  0  0  0  0  0  0  0
   21.1201  -21.7870  -12.6352 C   0  0  0  0  0  0  0  0  0  0  0  0
   20.1620  -21.9681  -11.8671 O   0  0  0  0  0  0  0  0  0  0  0  0
   22.5028  -21.8870  -12.1902 C   0  0  0  0  0  0  0  0  0  0  0  0
   22.9483  -20.7187  -11.3795 C   0  0  2  0  0  0  0  0  0  0  0  0
   24.3038  -21.0902  -10.8964 N   0  0  0  0  0  0  0  0  0  0  0  0
   22.0718  -20.4887  -10.2222 C   0  0  0  0  0  0  0  0  0  0  0  0
   21.0856  -19.5380  -10.2320 O   0  0  0  0  0  0  0  0  0  0  0  0
   22.1887  -21.1629   -9.1519 O   0  0  0  0  0  0  0  0  0  0  0  0
  1  2  1  0
  2  3  2  0
  4  2  1  0
  4  5  1  0
  6  5  1  0
  6  7  1  6
  8  6  1  0
  8  9  2  0
 10  8  1  0
 11 10  1  0
 11 12  1  1
 13 12  1  0
 13 14  2  0
 15 14  1  0
 16 21  2  0
 16 15  1  0
 17 16  1  0
 18 17  2  0
 19 18  1  0
 19 20  2  0
 20 21  1  0
 21 13  1  0
 22 11  1  0
 23 22  2  0
 25 26  2  0
 25 24  1  0
 27 25  1  0
 28 27  1  6
 28 29  1  0
 29 22  1  0
 30 28  1  0
 31 30  1  0
 32 30  2  0
M  END
$$$$
