QWN.pdb
     RDKit          3D

 32 33  0  0  1  0  0  0  0  0999 V2000
   25.7033  -21.5412  -20.0983 N   0  0  0  0  0  0  0  0  0  0  0  0
   26.5299  -22.3126  -19.2400 C   0  0  0  0  0  0  0  0  0  0  0  0
   27.4950  -21.7926  -18.6549 O   0  0  0  0  0  0  0  0  0  0  0  0
   26.2271  -23.7401  -19.0510 C   0  0  0  0  0  0  0  0  0  0  0  0
   25.6005  -24.0521  -17.7369 C   0  0  0  0  0  0  0  0  0  0  0  0
   26.5770  -23.9976  -16.5799 C   0  0  2  0  0  0  0  0  0  0  0  0
   27.0152  -25.3611  -16.2389 N   0  0  0  0  0  0  0  0  0  0  0  0
   25.8230  -23.4648  -15.4152 C   0  0  0  0  0  0  0  0  0  0  0  0
   25.2315  -24.2489  -14.6702 O   0  0  0  0  0  0  0  0  0  0  0  0
   25.8039  -22.0688  -15.1928 N   0  0  0  0  0  0  0  0  0  0  0  0
   25.1265  -21.4715  -14.0361 C   0  0  1  0  0  0  0  0  0  0  0  0
   25.8468  -20.2561  -13.5829 C   0  0  0  0  0  0  0  0  0  0  0  0
   26.8717  -20.5369  -12.5820 C   0  0  0  0  0  0  0  0  0  0  0  0
   28.2053  -20.7537  -12.8336 C   0  0  0  0  0  0  0  0  0  0  0  0
   28.7999  -21.0065  -11.6741 N   0  0  0  0  0  0  0  0  0  0  0  0
   27.8944  -20.9628  -10.6615 C   0  0  0  0  0  0  0  0  0  0  0  0
   28.0295  -21.1579   -9.2887 C   0  0  0  0  0  0  0  0  0  0  0  0
   26.9018  -21.0453   -8.5136 C   0  0  0  0  0  0  0  0  0  0  0  0
   25.6608  -20.7513   -9.0335 C   0  0  0  0  0  0  0  0  0  0  0  0
   25.5634  -20.5647  -10.3943 C   0  0  0  0  0  0  0  0  0  0  0  0
   26.6796  -20.6706  -11.2041 C   0  0  0  0  0  0  0  0  0  0  0  0
   23.7152  -21.3337  -14.4069 C   0  0  0  0  0  0  0  0  0  0  0  0
   23.3950  -20.9841  -15.6059 O   0  0  0  0  0  0  0  0  0  0  0  0
   18.0713  -22.5892  -13.6883 N   0  0  0  0  0  0  0  0  0  0  0  0
   19.3283  -22.5458  -12.9855 C   0  0  0  0  0  0  0  0  0  0  0  0
   19.3677  -22.4020  -11.7532 O   0  0  0  0  0  0  0  0  0  0  0  0
   20.5335  -22.6782  -13.7916 C   0  0  0  0  0  0  0  0  0  0  0  0
   21.2024  -21.3764  -14.0719 C   0  0  2  0  0  0  0  0  0  0  0  0
   22.5918  -21.5520  -13.5746 N   0  0  0  0  0  0  0  0  0  0  0  0
   20.5684  -20.2670  -13.3455 C   0  0  0  0  0  0  0  0  0  0  0  0
   19.3725  -19.7268  -13.7389 O   0  0  0  0  0  0  0  0  0  0  0  0
   21.1027  -19.7526  -12.3142 O   0  0  0  0  0  0  0  0  0  0  0  0
  1  2  1  0
  2  3  2  0
  4  2  1  0
  4  5  1  0
  6  5  1  0
  6  7  1  1
  8  6  1  0
  8  9  2  0
 10  8  1  0
 11 10  1  0
 11 12  1  6
 13 12  1  0
 13 14  2  0
 15 14  1  0
 16 21  2  0
 16 15  1  0
 17 16  1  0
 18 17  2  0
 19 18  1  0
 19 20  2  0
 20 21  1  0
 21 13  1  0
 22 11  1  0
 23 22  2  0
 25 26  2  0
 25 24  1  0
 27 25  1  0
 28 27  1  1
 28 29  1  0
 29 22  1  0
 30 28  1  0
 31 30  1  0
 32 30  2  0
M  END
$$$$
