DQD.pdb
     RDKit          3D

 26 25  0  0  1  0  0  0  0  0999 V2000
    7.5851  -13.1301   17.4828 N   0  0  0  0  0  0  0  0  0  0  0  0
    7.9902  -14.3399   18.1296 C   0  0  1  0  0  0  0  0  0  0  0  0
    9.0655  -15.0204   17.3084 C   0  0  0  0  0  0  0  0  0  0  0  0
    8.4804  -15.4075   16.0043 C   0  0  0  0  0  0  0  0  0  0  0  0
    7.5192  -16.2106   15.9172 O   0  0  0  0  0  0  0  0  0  0  0  0
    8.4558  -14.0162   19.4964 C   0  0  0  0  0  0  0  0  0  0  0  0
    9.1804  -13.0242   19.7712 O   0  0  0  0  0  0  0  0  0  0  0  0
    8.9765  -14.8918   14.8055 O   0  0  0  0  0  0  0  0  0  0  0  0
    5.7788  -16.3978   24.8142 N   0  0  0  0  0  0  0  0  0  0  0  0
    6.5758  -15.2959   25.2108 C   0  0  0  0  0  0  0  0  0  0  0  0
    6.3860  -14.8094   26.3497 O   0  0  0  0  0  0  0  0  0  0  0  0
    7.5939  -14.7425   24.3107 C   0  0  0  0  0  0  0  0  0  0  0  0
    7.3539  -15.1352   22.8713 C   0  0  0  0  0  0  0  0  0  0  0  0
    8.4297  -14.5724   21.9606 C   0  0  2  0  0  0  0  0  0  0  0  0
    8.0776  -14.8581   20.5832 N   0  0  0  0  0  0  0  0  0  0  0  0
    9.7524  -15.1384   22.3051 C   0  0  0  0  0  0  0  0  0  0  0  0
   10.7772  -14.4089   22.2988 O   0  0  0  0  0  0  0  0  0  0  0  0
    9.8777  -16.5092   22.6459 N   0  0  0  0  0  0  0  0  0  0  0  0
   11.0742  -16.9616   23.3588 C   0  0  1  0  0  0  0  0  0  0  0  0
   12.1660  -15.9521   23.0924 C   0  0  0  0  0  0  0  0  0  0  0  0
   13.3651  -16.6036   22.5506 C   0  0  0  0  0  0  0  0  0  0  0  0
   13.3674  -17.8449   22.3575 O   0  0  0  0  0  0  0  0  0  0  0  0
   10.7895  -17.0607   24.7998 C   0  0  0  0  0  0  0  0  0  0  0  0
    9.8484  -16.4887   25.3899 O   0  0  0  0  0  0  0  0  0  0  0  0
   14.5230  -15.9071   22.2329 O   0  0  0  0  0  0  0  0  0  0  0  0
   11.6204  -17.8525   25.6098 O   0  0  0  0  0  0  0  0  0  0  0  0
  2  1  1  6
  2  3  1  0
  3  4  1  0
  4  5  2  0
  4  8  1  0
  6  7  2  0
  6  2  1  0
  9 10  1  0
 10 12  1  0
 11 10  2  0
 12 13  1  0
 14 13  1  1
 14 15  1  0
 15  6  1  0
 16 14  1  0
 16 17  2  0
 18 16  1  0
 19 18  1  0
 19 20  1  1
 20 21  1  0
 21 22  2  0
 21 25  1  0
 23 19  1  0
 24 23  2  0
 26 23  1  0
M  END
$$$$
