DQD.pdb
     RDKit          3D

 26 25  0  0  1  0  0  0  0  0999 V2000
   10.1344  -18.5196   19.3636 N   0  0  0  0  0  0  0  0  0  0  0  0
   11.4693  -18.0138   19.4529 C   0  0  1  0  0  0  0  0  0  0  0  0
   11.9005  -17.4748   18.1049 C   0  0  0  0  0  0  0  0  0  0  0  0
   12.3431  -18.6136   17.2680 C   0  0  0  0  0  0  0  0  0  0  0  0
   11.5528  -19.2341   16.5151 O   0  0  0  0  0  0  0  0  0  0  0  0
   11.5159  -16.9765   20.5073 C   0  0  0  0  0  0  0  0  0  0  0  0
   12.5671  -16.3742   20.8490 O   0  0  0  0  0  0  0  0  0  0  0  0
   13.6692  -19.0498   17.2803 O   0  0  0  0  0  0  0  0  0  0  0  0
    7.5995  -12.5431   21.0643 N   0  0  0  0  0  0  0  0  0  0  0  0
    7.4451  -13.8320   20.4973 C   0  0  0  0  0  0  0  0  0  0  0  0
    6.5087  -14.0113   19.6845 O   0  0  0  0  0  0  0  0  0  0  0  0
    8.3580  -14.9239   20.8541 C   0  0  0  0  0  0  0  0  0  0  0  0
    9.3921  -14.4920   21.8678 C   0  0  0  0  0  0  0  0  0  0  0  0
   10.2853  -15.6509   22.2710 C   0  0  2  0  0  0  0  0  0  0  0  0
   10.3173  -16.6186   21.1914 N   0  0  0  0  0  0  0  0  0  0  0  0
    9.8061  -16.2649   23.5286 C   0  0  0  0  0  0  0  0  0  0  0  0
    8.6009  -16.6039   23.6517 O   0  0  0  0  0  0  0  0  0  0  0  0
   10.7010  -16.4774   24.6079 N   0  0  0  0  0  0  0  0  0  0  0  0
   10.3282  -17.4123   25.6716 C   0  0  1  0  0  0  0  0  0  0  0  0
   10.7725  -18.7893   25.2374 C   0  0  0  0  0  0  0  0  0  0  0  0
    9.8919  -19.8258   25.7904 C   0  0  0  0  0  0  0  0  0  0  0  0
    8.9567  -19.5022   26.5643 O   0  0  0  0  0  0  0  0  0  0  0  0
   10.9815  -17.0215   26.9317 C   0  0  0  0  0  0  0  0  0  0  0  0
   10.8589  -17.6182   28.0227 O   0  0  0  0  0  0  0  0  0  0  0  0
   10.0394  -21.1747   25.4981 O   0  0  0  0  0  0  0  0  0  0  0  0
   11.8175  -15.8928   26.9492 O   0  0  0  0  0  0  0  0  0  0  0  0
  2  1  1  6
  2  3  1  0
  3  4  1  0
  4  5  2  0
  4  8  1  0
  6  7  2  0
  6  2  1  0
  9 10  1  0
 10 12  1  0
 11 10  2  0
 12 13  1  0
 14 13  1  6
 14 15  1  0
 15  6  1  0
 16 14  1  0
 16 17  2  0
 18 16  1  0
 19 18  1  0
 19 20  1  6
 20 21  1  0
 21 22  2  0
 21 25  1  0
 23 19  1  0
 24 23  2  0
 26 23  1  0
M  END
$$$$
