DQD.pdb
     RDKit          3D

 26 25  0  0  1  0  0  0  0  0999 V2000
   10.3017  -18.3148   17.7927 N   0  0  0  0  0  0  0  0  0  0  0  0
   11.5796  -17.7998   18.1768 C   0  0  1  0  0  0  0  0  0  0  0  0
   12.2636  -17.1861   16.9730 C   0  0  0  0  0  0  0  0  0  0  0  0
   12.4881  -18.2530   15.9709 C   0  0  0  0  0  0  0  0  0  0  0  0
   12.4396  -19.4710   16.2720 O   0  0  0  0  0  0  0  0  0  0  0  0
   11.3891  -16.8187   19.2682 C   0  0  0  0  0  0  0  0  0  0  0  0
   12.3259  -16.1509   19.7789 O   0  0  0  0  0  0  0  0  0  0  0  0
   12.7654  -17.9480   14.6370 O   0  0  0  0  0  0  0  0  0  0  0  0
    6.3407  -13.3856   19.9175 N   0  0  0  0  0  0  0  0  0  0  0  0
    7.4451  -13.3566   19.0309 C   0  0  0  0  0  0  0  0  0  0  0  0
    7.3490  -12.6654   17.9904 O   0  0  0  0  0  0  0  0  0  0  0  0
    8.6655  -14.1158   19.3261 C   0  0  0  0  0  0  0  0  0  0  0  0
    8.5403  -14.9208   20.5988 C   0  0  0  0  0  0  0  0  0  0  0  0
    9.8153  -15.6906   20.8908 C   0  0  2  0  0  0  0  0  0  0  0  0
   10.0810  -16.5967   19.7902 N   0  0  0  0  0  0  0  0  0  0  0  0
    9.7010  -16.4210   22.1721 C   0  0  0  0  0  0  0  0  0  0  0  0
    8.6587  -17.0713   22.4425 O   0  0  0  0  0  0  0  0  0  0  0  0
   10.7658  -16.3951   23.1083 N   0  0  0  0  0  0  0  0  0  0  0  0
   10.6625  -17.1957   24.3301 C   0  0  1  0  0  0  0  0  0  0  0  0
   11.3003  -18.5354   24.0462 C   0  0  0  0  0  0  0  0  0  0  0  0
   11.3495  -19.3629   25.2580 C   0  0  0  0  0  0  0  0  0  0  0  0
   10.2805  -19.7355   25.8029 O   0  0  0  0  0  0  0  0  0  0  0  0
   11.3497  -16.5096   25.4366 C   0  0  0  0  0  0  0  0  0  0  0  0
   11.3163  -16.8617   26.6350 O   0  0  0  0  0  0  0  0  0  0  0  0
   12.5395  -19.7655   25.8482 O   0  0  0  0  0  0  0  0  0  0  0  0
   12.1141  -15.3633   25.1631 O   0  0  0  0  0  0  0  0  0  0  0  0
  2  1  1  6
  2  3  1  0
  3  4  1  0
  4  5  2  0
  4  8  1  0
  6  7  2  0
  6  2  1  0
  9 10  1  0
 10 12  1  0
 11 10  2  0
 12 13  1  0
 14 13  1  6
 14 15  1  0
 15  6  1  0
 16 14  1  0
 16 17  2  0
 18 16  1  0
 19 18  1  0
 19 20  1  6
 20 21  1  0
 21 22  2  0
 21 25  1  0
 23 19  1  0
 24 23  2  0
 26 23  1  0
M  END
$$$$
