DQD.pdb
     RDKit          3D

 26 25  0  0  1  0  0  0  0  0999 V2000
    6.7167  -15.3861   19.9695 N   0  0  0  0  0  0  0  0  0  0  0  0
    8.0933  -15.0487   19.7770 C   0  0  1  0  0  0  0  0  0  0  0  0
    8.2045  -13.9152   18.7787 C   0  0  0  0  0  0  0  0  0  0  0  0
    7.8404  -14.4356   17.4409 C   0  0  0  0  0  0  0  0  0  0  0  0
    7.9899  -15.6435   17.1324 O   0  0  0  0  0  0  0  0  0  0  0  0
    8.6848  -14.6959   21.0868 C   0  0  0  0  0  0  0  0  0  0  0  0
    9.9121  -14.4799   21.2639 O   0  0  0  0  0  0  0  0  0  0  0  0
    7.3107  -13.5986   16.4571 O   0  0  0  0  0  0  0  0  0  0  0  0
    5.5232  -12.4524   26.1291 N   0  0  0  0  0  0  0  0  0  0  0  0
    6.7969  -12.7865   26.6514 C   0  0  0  0  0  0  0  0  0  0  0  0
    7.0642  -12.4374   27.8246 O   0  0  0  0  0  0  0  0  0  0  0  0
    7.7732  -13.5206   25.8384 C   0  0  0  0  0  0  0  0  0  0  0  0
    7.3085  -13.6939   24.4110 C   0  0  0  0  0  0  0  0  0  0  0  0
    8.3537  -14.4094   23.5749 C   0  0  2  0  0  0  0  0  0  0  0  0
    7.8402  -14.5876   22.2304 N   0  0  0  0  0  0  0  0  0  0  0  0
    8.7132  -15.7065   24.1887 C   0  0  0  0  0  0  0  0  0  0  0  0
    7.9173  -16.6789   24.1322 O   0  0  0  0  0  0  0  0  0  0  0  0
    9.9592  -15.8660   24.8469 N   0  0  0  0  0  0  0  0  0  0  0  0
   10.3090  -17.1731   25.4068 C   0  0  1  0  0  0  0  0  0  0  0  0
   11.4632  -17.7158   24.5973 C   0  0  0  0  0  0  0  0  0  0  0  0
   12.4921  -18.2956   25.4695 C   0  0  0  0  0  0  0  0  0  0  0  0
   12.2071  -19.2719   26.2070 O   0  0  0  0  0  0  0  0  0  0  0  0
   10.6829  -17.0260   26.8232 C   0  0  0  0  0  0  0  0  0  0  0  0
   10.8153  -15.9390   27.4248 O   0  0  0  0  0  0  0  0  0  0  0  0
   13.7923  -17.8129   25.5254 O   0  0  0  0  0  0  0  0  0  0  0  0
   10.9182  -18.1771   27.5931 O   0  0  0  0  0  0  0  0  0  0  0  0
  2  1  1  1
  2  3  1  0
  3  4  1  0
  4  5  2  0
  4  8  1  0
  6  7  2  0
  6  2  1  0
  9 10  1  0
 10 12  1  0
 11 10  2  0
 12 13  1  0
 14 13  1  1
 14 15  1  0
 15  6  1  0
 16 14  1  0
 16 17  2  0
 18 16  1  0
 19 18  1  0
 19 20  1  6
 20 21  1  0
 21 22  2  0
 21 25  1  0
 23 19  1  0
 24 23  2  0
 26 23  1  0
M  END
$$$$
