DQD.pdb
     RDKit          3D

 26 25  0  0  1  0  0  0  0  0999 V2000
   10.6880  -18.2127   17.4192 N   0  0  0  0  0  0  0  0  0  0  0  0
   11.9769  -17.6754   17.7293 C   0  0  1  0  0  0  0  0  0  0  0  0
   12.4506  -16.7990   16.5886 C   0  0  0  0  0  0  0  0  0  0  0  0
   13.1066  -17.6621   15.5798 C   0  0  0  0  0  0  0  0  0  0  0  0
   12.5009  -18.6060   15.0151 O   0  0  0  0  0  0  0  0  0  0  0  0
   11.8873  -16.9287   19.0038 C   0  0  0  0  0  0  0  0  0  0  0  0
   12.8777  -16.6836   19.7411 O   0  0  0  0  0  0  0  0  0  0  0  0
   14.4378  -17.4618   15.2099 O   0  0  0  0  0  0  0  0  0  0  0  0
    7.1388  -12.2704   19.2717 N   0  0  0  0  0  0  0  0  0  0  0  0
    7.4508  -13.5408   19.8153 C   0  0  0  0  0  0  0  0  0  0  0  0
    6.5191  -14.2159   20.3112 O   0  0  0  0  0  0  0  0  0  0  0  0
    8.8273  -14.0485   19.7964 C   0  0  0  0  0  0  0  0  0  0  0  0
    9.0227  -15.1975   20.7583 C   0  0  0  0  0  0  0  0  0  0  0  0
   10.4415  -15.7327   20.6954 C   0  0  2  0  0  0  0  0  0  0  0  0
   10.6202  -16.4479   19.4465 N   0  0  0  0  0  0  0  0  0  0  0  0
   10.7217  -16.6037   21.8578 C   0  0  0  0  0  0  0  0  0  0  0  0
   10.4190  -17.8242   21.8253 O   0  0  0  0  0  0  0  0  0  0  0  0
   11.3346  -16.0708   23.0203 N   0  0  0  0  0  0  0  0  0  0  0  0
   11.5443  -16.9404   24.1798 C   0  0  1  0  0  0  0  0  0  0  0  0
   12.9645  -16.7301   24.6497 C   0  0  0  0  0  0  0  0  0  0  0  0
   13.8039  -17.8904   24.3261 C   0  0  0  0  0  0  0  0  0  0  0  0
   13.3026  -18.8764   23.7305 O   0  0  0  0  0  0  0  0  0  0  0  0
   10.5828  -16.5986   25.2410 C   0  0  0  0  0  0  0  0  0  0  0  0
   10.2591  -17.3458   26.1886 O   0  0  0  0  0  0  0  0  0  0  0  0
   15.1520  -17.9592   24.6494 O   0  0  0  0  0  0  0  0  0  0  0  0
    9.9583  -15.3405   25.2209 O   0  0  0  0  0  0  0  0  0  0  0  0
  2  1  1  6
  2  3  1  0
  3  4  1  0
  4  5  2  0
  4  8  1  0
  6  7  2  0
  6  2  1  0
  9 10  1  0
 10 12  1  0
 11 10  2  0
 12 13  1  0
 14 13  1  1
 14 15  1  0
 15  6  1  0
 16 14  1  0
 16 17  2  0
 18 16  1  0
 19 18  1  0
 19 20  1  1
 20 21  1  0
 21 22  2  0
 21 25  1  0
 23 19  1  0
 24 23  2  0
 26 23  1  0
M  END
$$$$
