DQD.pdb
     RDKit          3D

 26 25  0  0  1  0  0  0  0  0999 V2000
    9.6477  -15.8516   20.1220 N   0  0  0  0  0  0  0  0  0  0  0  0
    8.9685  -16.4663   21.2205 C   0  0  1  0  0  0  0  0  0  0  0  0
    9.2545  -17.9536   21.2275 C   0  0  0  0  0  0  0  0  0  0  0  0
    8.6891  -18.5422   19.9918 C   0  0  0  0  0  0  0  0  0  0  0  0
    7.5683  -18.1986   19.5423 O   0  0  0  0  0  0  0  0  0  0  0  0
    9.4012  -15.8111   22.4748 C   0  0  0  0  0  0  0  0  0  0  0  0
   10.6068  -15.6430   22.7955 O   0  0  0  0  0  0  0  0  0  0  0  0
    9.3840  -19.5126   19.2675 O   0  0  0  0  0  0  0  0  0  0  0  0
    5.5345  -12.2282   26.0623 N   0  0  0  0  0  0  0  0  0  0  0  0
    6.7418  -12.2636   26.8024 C   0  0  0  0  0  0  0  0  0  0  0  0
    6.8325  -11.5376   27.8195 O   0  0  0  0  0  0  0  0  0  0  0  0
    7.8527  -13.1273   26.3866 C   0  0  0  0  0  0  0  0  0  0  0  0
    7.5638  -13.8379   25.0847 C   0  0  0  0  0  0  0  0  0  0  0  0
    8.7575  -14.6559   24.6273 C   0  0  2  0  0  0  0  0  0  0  0  0
    8.4186  -15.3330   23.3906 N   0  0  0  0  0  0  0  0  0  0  0  0
    9.1603  -15.6201   25.6745 C   0  0  0  0  0  0  0  0  0  0  0  0
    8.3719  -16.5304   26.0377 O   0  0  0  0  0  0  0  0  0  0  0  0
   10.4397  -15.5273   26.2791 N   0  0  0  0  0  0  0  0  0  0  0  0
   10.7992  -16.4717   27.3389 C   0  0  1  0  0  0  0  0  0  0  0  0
   12.2810  -16.7401   27.2196 C   0  0  0  0  0  0  0  0  0  0  0  0
   12.5898  -17.4453   25.9695 C   0  0  0  0  0  0  0  0  0  0  0  0
   11.6674  -18.0004   25.3220 O   0  0  0  0  0  0  0  0  0  0  0  0
   10.4731  -15.8950   28.6536 C   0  0  0  0  0  0  0  0  0  0  0  0
   10.5642  -16.4940   29.7463 O   0  0  0  0  0  0  0  0  0  0  0  0
   13.8747  -17.5344   25.4517 O   0  0  0  0  0  0  0  0  0  0  0  0
   10.0197  -14.5675   28.7265 O   0  0  0  0  0  0  0  0  0  0  0  0
  2  1  1  6
  2  3  1  0
  3  4  1  0
  4  5  2  0
  4  8  1  0
  6  7  2  0
  6  2  1  0
  9 10  1  0
 10 12  1  0
 11 10  2  0
 12 13  1  0
 14 13  1  1
 14 15  1  0
 15  6  1  0
 16 14  1  0
 16 17  2  0
 18 16  1  0
 19 18  1  0
 19 20  1  1
 20 21  1  0
 21 22  2  0
 21 25  1  0
 23 19  1  0
 24 23  2  0
 26 23  1  0
M  END
$$$$
