DQD.pdb
     RDKit          3D

 26 25  0  0  1  0  0  0  0  0999 V2000
   10.1233  -16.7768   15.3617 N   0  0  0  0  0  0  0  0  0  0  0  0
   11.4424  -16.2238   15.3490 C   0  0  1  0  0  0  0  0  0  0  0  0
   11.6942  -15.5389   14.0218 C   0  0  0  0  0  0  0  0  0  0  0  0
   11.4739  -16.5255   12.9396 C   0  0  0  0  0  0  0  0  0  0  0  0
   11.9480  -17.6871   12.9901 O   0  0  0  0  0  0  0  0  0  0  0  0
   11.5789  -15.2917   16.4903 C   0  0  0  0  0  0  0  0  0  0  0  0
   12.6190  -14.6231   16.7258 O   0  0  0  0  0  0  0  0  0  0  0  0
   10.7232  -16.2039   11.8073 O   0  0  0  0  0  0  0  0  0  0  0  0
    6.5922  -12.7659   19.4825 N   0  0  0  0  0  0  0  0  0  0  0  0
    7.7080  -12.1824   20.1315 C   0  0  0  0  0  0  0  0  0  0  0  0
    7.4956  -11.2816   20.9760 O   0  0  0  0  0  0  0  0  0  0  0  0
    9.0726  -12.6231   19.8209 C   0  0  0  0  0  0  0  0  0  0  0  0
    9.0946  -13.7026   18.7637 C   0  0  0  0  0  0  0  0  0  0  0  0
   10.5105  -14.1750   18.4887 C   0  0  2  0  0  0  0  0  0  0  0  0
   10.4863  -15.1215   17.3903 N   0  0  0  0  0  0  0  0  0  0  0  0
   11.1041  -14.7764   19.7029 C   0  0  0  0  0  0  0  0  0  0  0  0
   11.3475  -14.0646   20.7111 O   0  0  0  0  0  0  0  0  0  0  0  0
   11.4047  -16.1617   19.7419 N   0  0  0  0  0  0  0  0  0  0  0  0
   12.0898  -16.7113   20.9136 C   0  0  1  0  0  0  0  0  0  0  0  0
   13.1610  -15.7240   21.3134 C   0  0  0  0  0  0  0  0  0  0  0  0
   13.9518  -16.2324   22.4412 C   0  0  0  0  0  0  0  0  0  0  0  0
   13.8969  -15.6515   23.5538 O   0  0  0  0  0  0  0  0  0  0  0  0
   11.1253  -16.9129   22.0074 C   0  0  0  0  0  0  0  0  0  0  0  0
    9.9726  -16.4328   22.0499 O   0  0  0  0  0  0  0  0  0  0  0  0
   14.7755  -17.3453   22.3434 O   0  0  0  0  0  0  0  0  0  0  0  0
   11.4938  -17.7024   23.1094 O   0  0  0  0  0  0  0  0  0  0  0  0
  2  1  1  6
  2  3  1  0
  3  4  1  0
  4  5  2  0
  4  8  1  0
  6  7  2  0
  6  2  1  0
  9 10  1  0
 10 12  1  0
 11 10  2  0
 12 13  1  0
 14 13  1  1
 14 15  1  0
 15  6  1  0
 16 14  1  0
 16 17  2  0
 18 16  1  0
 19 18  1  0
 19 20  1  1
 20 21  1  0
 21 22  2  0
 21 25  1  0
 23 19  1  0
 24 23  2  0
 26 23  1  0
M  END
$$$$
