DQD.pdb
     RDKit          3D

 26 25  0  0  1  0  0  0  0  0999 V2000
   14.0050  -16.0786   17.1781 N   0  0  0  0  0  0  0  0  0  0  0  0
   14.6468  -15.0441   17.9290 C   0  0  1  0  0  0  0  0  0  0  0  0
   15.2268  -14.0136   16.9827 C   0  0  0  0  0  0  0  0  0  0  0  0
   16.2061  -14.6898   16.1014 C   0  0  0  0  0  0  0  0  0  0  0  0
   15.8666  -15.5912   15.2959 O   0  0  0  0  0  0  0  0  0  0  0  0
   13.6619  -14.4512   18.8609 C   0  0  0  0  0  0  0  0  0  0  0  0
   13.9401  -13.5425   19.6863 O   0  0  0  0  0  0  0  0  0  0  0  0
   17.5603  -14.3512   16.1284 O   0  0  0  0  0  0  0  0  0  0  0  0
    8.0155  -13.0475   17.7409 N   0  0  0  0  0  0  0  0  0  0  0  0
    7.8651  -13.2020   19.1410 C   0  0  0  0  0  0  0  0  0  0  0  0
    6.8890  -12.6453   19.6951 O   0  0  0  0  0  0  0  0  0  0  0  0
    8.8273  -13.9923   19.9171 C   0  0  0  0  0  0  0  0  0  0  0  0
    9.9359  -14.5468   19.0528 C   0  0  0  0  0  0  0  0  0  0  0  0
   11.2882  -14.3882   19.7233 C   0  0  2  0  0  0  0  0  0  0  0  0
   12.3142  -14.9162   18.8449 N   0  0  0  0  0  0  0  0  0  0  0  0
   11.3021  -15.0702   21.0359 C   0  0  0  0  0  0  0  0  0  0  0  0
   10.4784  -14.7458   21.9296 O   0  0  0  0  0  0  0  0  0  0  0  0
   12.2445  -16.0965   21.2995 N   0  0  0  0  0  0  0  0  0  0  0  0
   12.2731  -16.7167   22.6258 C   0  0  1  0  0  0  0  0  0  0  0  0
   12.2711  -18.2137   22.4233 C   0  0  0  0  0  0  0  0  0  0  0  0
   10.9609  -18.6800   21.9524 C   0  0  0  0  0  0  0  0  0  0  0  0
    9.9613  -18.6000   22.7092 O   0  0  0  0  0  0  0  0  0  0  0  0
   13.4785  -16.2857   23.3529 C   0  0  0  0  0  0  0  0  0  0  0  0
   13.7260  -16.5373   24.5515 O   0  0  0  0  0  0  0  0  0  0  0  0
   10.7616  -19.2165   20.6879 O   0  0  0  0  0  0  0  0  0  0  0  0
   14.4516  -15.5291   22.6792 O   0  0  0  0  0  0  0  0  0  0  0  0
  2  1  1  6
  2  3  1  0
  3  4  1  0
  4  5  2  0
  4  8  1  0
  6  7  2  0
  6  2  1  0
  9 10  1  0
 10 12  1  0
 11 10  2  0
 12 13  1  0
 14 13  1  6
 14 15  1  0
 15  6  1  0
 16 14  1  0
 16 17  2  0
 18 16  1  0
 19 18  1  0
 19 20  1  6
 20 21  1  0
 21 22  2  0
 21 25  1  0
 23 19  1  0
 24 23  2  0
 26 23  1  0
M  END
$$$$
