DQD.pdb
     RDKit          3D

 26 25  0  0  1  0  0  0  0  0999 V2000
   12.8544  -16.0654   17.6553 N   0  0  0  0  0  0  0  0  0  0  0  0
   13.7686  -15.2177   18.3563 C   0  0  1  0  0  0  0  0  0  0  0  0
   14.4054  -14.2442   17.3866 C   0  0  0  0  0  0  0  0  0  0  0  0
   15.3476  -14.9944   16.5249 C   0  0  0  0  0  0  0  0  0  0  0  0
   14.9950  -15.4918   15.4272 O   0  0  0  0  0  0  0  0  0  0  0  0
   13.0390  -14.5246   19.4413 C   0  0  0  0  0  0  0  0  0  0  0  0
   13.5690  -13.6838   20.2137 O   0  0  0  0  0  0  0  0  0  0  0  0
   16.6794  -15.1824   16.8990 O   0  0  0  0  0  0  0  0  0  0  0  0
    7.4817  -12.3364   19.0063 N   0  0  0  0  0  0  0  0  0  0  0  0
    7.9875  -13.5108   18.3966 C   0  0  0  0  0  0  0  0  0  0  0  0
    7.3924  -13.9556   17.3878 O   0  0  0  0  0  0  0  0  0  0  0  0
    9.1750  -14.1845   18.9340 C   0  0  0  0  0  0  0  0  0  0  0  0
    9.6849  -13.5202   20.1919 C   0  0  0  0  0  0  0  0  0  0  0  0
   10.8944  -14.2493   20.7478 C   0  0  2  0  0  0  0  0  0  0  0  0
   11.6563  -14.8056   19.6465 N   0  0  0  0  0  0  0  0  0  0  0  0
   10.4760  -15.3033   21.6979 C   0  0  0  0  0  0  0  0  0  0  0  0
    9.5130  -15.1060   22.4827 O   0  0  0  0  0  0  0  0  0  0  0  0
   11.1570  -16.5467   21.7329 N   0  0  0  0  0  0  0  0  0  0  0  0
   11.9933  -16.8708   22.8904 C   0  0  1  0  0  0  0  0  0  0  0  0
   13.1237  -15.8691   22.9242 C   0  0  0  0  0  0  0  0  0  0  0  0
   14.4270  -16.5451   22.9225 C   0  0  0  0  0  0  0  0  0  0  0  0
   14.5979  -17.5688   22.2147 O   0  0  0  0  0  0  0  0  0  0  0  0
   11.1904  -16.7998   24.1224 C   0  0  0  0  0  0  0  0  0  0  0  0
   11.1071  -17.7030   24.9817 O   0  0  0  0  0  0  0  0  0  0  0  0
   15.5055  -16.1049   23.6773 O   0  0  0  0  0  0  0  0  0  0  0  0
   10.4443  -15.6398   24.3885 O   0  0  0  0  0  0  0  0  0  0  0  0
  2  1  1  6
  2  3  1  0
  3  4  1  0
  4  5  2  0
  4  8  1  0
  6  7  2  0
  6  2  1  0
  9 10  1  0
 10 12  1  0
 11 10  2  0
 12 13  1  0
 14 13  1  6
 14 15  1  0
 15  6  1  0
 16 14  1  0
 16 17  2  0
 18 16  1  0
 19 18  1  0
 19 20  1  1
 20 21  1  0
 21 22  2  0
 21 25  1  0
 23 19  1  0
 24 23  2  0
 26 23  1  0
M  END
$$$$
