DQD.pdb
     RDKit          3D

 26 25  0  0  1  0  0  0  0  0999 V2000
    8.0195  -18.1535   18.8494 N   0  0  0  0  0  0  0  0  0  0  0  0
    9.0700  -17.2161   18.5970 C   0  0  1  0  0  0  0  0  0  0  0  0
    8.5493  -16.0902   17.7282 C   0  0  0  0  0  0  0  0  0  0  0  0
    8.2530  -16.6377   16.3846 C   0  0  0  0  0  0  0  0  0  0  0  0
    7.1279  -16.5035   15.8435 O   0  0  0  0  0  0  0  0  0  0  0  0
    9.5904  -16.7240   19.8920 C   0  0  0  0  0  0  0  0  0  0  0  0
   10.5111  -15.8721   19.9968 O   0  0  0  0  0  0  0  0  0  0  0  0
    9.2200  -17.3323   15.6555 O   0  0  0  0  0  0  0  0  0  0  0  0
    6.9957  -18.3392   25.5469 N   0  0  0  0  0  0  0  0  0  0  0  0
    8.0904  -17.5086   25.8909 C   0  0  0  0  0  0  0  0  0  0  0  0
    8.2478  -17.2083   27.0970 O   0  0  0  0  0  0  0  0  0  0  0  0
    9.0120  -17.0158   24.8609 C   0  0  0  0  0  0  0  0  0  0  0  0
    8.5301  -17.3383   23.4655 C   0  0  0  0  0  0  0  0  0  0  0  0
    9.4716  -16.7786   22.4149 C   0  0  2  0  0  0  0  0  0  0  0  0
    9.0362  -17.2260   21.1060 N   0  0  0  0  0  0  0  0  0  0  0  0
   10.8645  -17.1950   22.6888 C   0  0  0  0  0  0  0  0  0  0  0  0
   11.1930  -18.4066   22.6101 O   0  0  0  0  0  0  0  0  0  0  0  0
   11.8430  -16.2316   23.0429 N   0  0  0  0  0  0  0  0  0  0  0  0
   13.2214  -16.6667   23.2781 C   0  0  1  0  0  0  0  0  0  0  0  0
   14.1200  -15.4833   23.0060 C   0  0  0  0  0  0  0  0  0  0  0  0
   15.5347  -15.8577   23.1245 C   0  0  0  0  0  0  0  0  0  0  0  0
   16.0492  -16.6288   22.2765 O   0  0  0  0  0  0  0  0  0  0  0  0
   13.3686  -17.1306   24.6675 C   0  0  0  0  0  0  0  0  0  0  0  0
   12.7877  -16.6375   25.6577 O   0  0  0  0  0  0  0  0  0  0  0  0
   16.3538  -15.3958   24.1455 O   0  0  0  0  0  0  0  0  0  0  0  0
   14.2217  -18.2122   24.9423 O   0  0  0  0  0  0  0  0  0  0  0  0
  2  1  1  1
  2  3  1  0
  3  4  1  0
  4  5  2  0
  4  8  1  0
  6  7  2  0
  6  2  1  0
  9 10  1  0
 10 12  1  0
 11 10  2  0
 12 13  1  0
 14 13  1  1
 14 15  1  0
 15  6  1  0
 16 14  1  0
 16 17  2  0
 18 16  1  0
 19 18  1  0
 19 20  1  1
 20 21  1  0
 21 22  2  0
 21 25  1  0
 23 19  1  0
 24 23  2  0
 26 23  1  0
M  END
$$$$
