DQD.pdb
     RDKit          3D

 26 25  0  0  1  0  0  0  0  0999 V2000
   12.4023  -16.7723   17.4160 N   0  0  0  0  0  0  0  0  0  0  0  0
   13.1420  -15.5487   17.4550 C   0  0  1  0  0  0  0  0  0  0  0  0
   12.9892  -14.8195   16.1364 C   0  0  0  0  0  0  0  0  0  0  0  0
   13.5726  -15.6626   15.0678 C   0  0  0  0  0  0  0  0  0  0  0  0
   14.0558  -16.7974   15.3034 O   0  0  0  0  0  0  0  0  0  0  0  0
   12.6626  -14.7387   18.5970 C   0  0  0  0  0  0  0  0  0  0  0  0
   13.3223  -13.7990   19.1129 O   0  0  0  0  0  0  0  0  0  0  0  0
   13.6107  -15.2285   13.7415 O   0  0  0  0  0  0  0  0  0  0  0  0
    6.7940  -11.9159   18.6888 N   0  0  0  0  0  0  0  0  0  0  0  0
    7.6308  -13.0580   18.6422 C   0  0  0  0  0  0  0  0  0  0  0  0
    7.1543  -14.1208   18.1806 O   0  0  0  0  0  0  0  0  0  0  0  0
    9.0160  -12.9944   19.1220 C   0  0  0  0  0  0  0  0  0  0  0  0
    9.3377  -14.1174   20.0805 C   0  0  0  0  0  0  0  0  0  0  0  0
   10.8358  -14.2622   20.2757 C   0  0  2  0  0  0  0  0  0  0  0  0
   11.3848  -15.0163   19.1652 N   0  0  0  0  0  0  0  0  0  0  0  0
   11.1319  -14.9178   21.5684 C   0  0  0  0  0  0  0  0  0  0  0  0
   10.6883  -14.4354   22.6421 O   0  0  0  0  0  0  0  0  0  0  0  0
   11.9188  -16.0968   21.6095 N   0  0  0  0  0  0  0  0  0  0  0  0
   12.2976  -16.6579   22.9079 C   0  0  1  0  0  0  0  0  0  0  0  0
   11.4095  -17.8540   23.1583 C   0  0  0  0  0  0  0  0  0  0  0  0
   11.7509  -18.5072   24.4281 C   0  0  0  0  0  0  0  0  0  0  0  0
   12.6295  -18.0043   25.1720 O   0  0  0  0  0  0  0  0  0  0  0  0
   13.7163  -17.0509   22.8877 C   0  0  0  0  0  0  0  0  0  0  0  0
   14.2748  -17.6882   21.9695 O   0  0  0  0  0  0  0  0  0  0  0  0
   11.1421  -19.6768   24.8617 O   0  0  0  0  0  0  0  0  0  0  0  0
   14.5404  -16.6995   23.9696 O   0  0  0  0  0  0  0  0  0  0  0  0
  2  1  1  6
  2  3  1  0
  3  4  1  0
  4  5  2  0
  4  8  1  0
  6  7  2  0
  6  2  1  0
  9 10  1  0
 10 12  1  0
 11 10  2  0
 12 13  1  0
 14 13  1  6
 14 15  1  0
 15  6  1  0
 16 14  1  0
 16 17  2  0
 18 16  1  0
 19 18  1  0
 19 20  1  6
 20 21  1  0
 21 22  2  0
 21 25  1  0
 23 19  1  0
 24 23  2  0
 26 23  1  0
M  END
$$$$
