DQD.pdb
     RDKit          3D

 26 25  0  0  1  0  0  0  0  0999 V2000
   14.6857  -16.7535   19.3925 N   0  0  0  0  0  0  0  0  0  0  0  0
   14.4408  -15.7316   20.3630 C   0  0  1  0  0  0  0  0  0  0  0  0
   13.9979  -14.4626   19.6648 C   0  0  0  0  0  0  0  0  0  0  0  0
   15.1073  -13.9937   18.8033 C   0  0  0  0  0  0  0  0  0  0  0  0
   16.2911  -13.9298   19.2169 O   0  0  0  0  0  0  0  0  0  0  0  0
   13.4269  -16.2204   21.3237 C   0  0  0  0  0  0  0  0  0  0  0  0
   12.9663  -15.5261   22.2672 O   0  0  0  0  0  0  0  0  0  0  0  0
   14.8828  -13.5993   17.4830 O   0  0  0  0  0  0  0  0  0  0  0  0
    8.3681  -18.2449   21.6340 N   0  0  0  0  0  0  0  0  0  0  0  0
    8.9969  -17.8725   20.4205 C   0  0  0  0  0  0  0  0  0  0  0  0
    8.3416  -17.1865   19.6022 O   0  0  0  0  0  0  0  0  0  0  0  0
   10.3768  -18.2805   20.1335 C   0  0  0  0  0  0  0  0  0  0  0  0
   11.0064  -19.0131   21.2955 C   0  0  0  0  0  0  0  0  0  0  0  0
   11.9239  -18.1011   22.0892 C   0  0  2  0  0  0  0  0  0  0  0  0
   12.9255  -17.5491   21.1976 N   0  0  0  0  0  0  0  0  0  0  0  0
   12.5493  -18.8379   23.2091 C   0  0  0  0  0  0  0  0  0  0  0  0
   12.6280  -20.0930   23.1792 O   0  0  0  0  0  0  0  0  0  0  0  0
   13.0665  -18.1361   24.3276 N   0  0  0  0  0  0  0  0  0  0  0  0
   13.4705  -18.8873   25.5178 C   0  0  1  0  0  0  0  0  0  0  0  0
   14.7634  -18.2839   26.0141 C   0  0  0  0  0  0  0  0  0  0  0  0
   15.7927  -18.3091   24.9674 C   0  0  0  0  0  0  0  0  0  0  0  0
   16.0183  -19.3737   24.3397 O   0  0  0  0  0  0  0  0  0  0  0  0
   12.4198  -18.7984   26.5453 C   0  0  0  0  0  0  0  0  0  0  0  0
   12.4458  -19.3726   27.6547 O   0  0  0  0  0  0  0  0  0  0  0  0
   16.5474  -17.1955   24.6254 O   0  0  0  0  0  0  0  0  0  0  0  0
   11.2811  -18.0148   26.2952 O   0  0  0  0  0  0  0  0  0  0  0  0
  2  1  1  6
  2  3  1  0
  3  4  1  0
  4  5  2  0
  4  8  1  0
  6  7  2  0
  6  2  1  0
  9 10  1  0
 10 12  1  0
 11 10  2  0
 12 13  1  0
 14 13  1  6
 14 15  1  0
 15  6  1  0
 16 14  1  0
 16 17  2  0
 18 16  1  0
 19 18  1  0
 19 20  1  1
 20 21  1  0
 21 22  2  0
 21 25  1  0
 23 19  1  0
 24 23  2  0
 26 23  1  0
M  END
$$$$
