DQD.pdb
     RDKit          3D

 26 25  0  0  1  0  0  0  0  0999 V2000
   -3.1713  -27.1302   26.8951 N   0  0  0  0  0  0  0  0  0  0  0  0
   -2.8578  -26.8598   28.2642 C   0  0  1  0  0  0  0  0  0  0  0  0
   -1.3554  -26.8749   28.4547 C   0  0  0  0  0  0  0  0  0  0  0  0
   -0.8885  -28.2772   28.3633 C   0  0  0  0  0  0  0  0  0  0  0  0
    0.2809  -28.5687   28.0111 O   0  0  0  0  0  0  0  0  0  0  0  0
   -3.4530  -25.5584   28.6409 C   0  0  0  0  0  0  0  0  0  0  0  0
   -3.3799  -25.0649   29.7966 O   0  0  0  0  0  0  0  0  0  0  0  0
   -1.7356  -29.3445   28.6674 O   0  0  0  0  0  0  0  0  0  0  0  0
   -4.2710  -20.7986   24.6492 N   0  0  0  0  0  0  0  0  0  0  0  0
   -4.8789  -20.3237   25.8374 C   0  0  0  0  0  0  0  0  0  0  0  0
   -5.2367  -19.1237   25.8787 O   0  0  0  0  0  0  0  0  0  0  0  0
   -5.0820  -21.2148   26.9852 C   0  0  0  0  0  0  0  0  0  0  0  0
   -4.5437  -22.6033   26.7292 C   0  0  0  0  0  0  0  0  0  0  0  0
   -4.7391  -23.5008   27.9374 C   0  0  2  0  0  0  0  0  0  0  0  0
   -4.1548  -24.7987   27.6595 N   0  0  0  0  0  0  0  0  0  0  0  0
   -6.1752  -23.6190   28.2719 C   0  0  0  0  0  0  0  0  0  0  0  0
   -6.9749  -24.1536   27.4613 O   0  0  0  0  0  0  0  0  0  0  0  0
   -6.6644  -23.1305   29.5100 N   0  0  0  0  0  0  0  0  0  0  0  0
   -8.0947  -23.2378   29.8054 C   0  0  1  0  0  0  0  0  0  0  0  0
   -8.2340  -24.0568   31.0672 C   0  0  0  0  0  0  0  0  0  0  0  0
   -9.6443  -24.1997   31.4496 C   0  0  0  0  0  0  0  0  0  0  0  0
  -10.5444  -23.7685   30.6866 O   0  0  0  0  0  0  0  0  0  0  0  0
   -8.6701  -21.8945   29.9838 C   0  0  0  0  0  0  0  0  0  0  0  0
   -8.0699  -20.9115   30.4682 O   0  0  0  0  0  0  0  0  0  0  0  0
  -10.0469  -24.7988   32.6352 O   0  0  0  0  0  0  0  0  0  0  0  0
   -9.9978  -21.6597   29.5899 O   0  0  0  0  0  0  0  0  0  0  0  0
  2  1  1  6
  2  3  1  0
  3  4  1  0
  4  5  2  0
  4  8  1  0
  6  7  2  0
  6  2  1  0
  9 10  1  0
 10 12  1  0
 11 10  2  0
 12 13  1  0
 14 13  1  6
 14 15  1  0
 15  6  1  0
 16 14  1  0
 16 17  2  0
 18 16  1  0
 19 18  1  0
 19 20  1  1
 20 21  1  0
 21 22  2  0
 21 25  1  0
 23 19  1  0
 24 23  2  0
 26 23  1  0
M  END
$$$$
