DQD.pdb
     RDKit          3D

 26 25  0  0  1  0  0  0  0  0999 V2000
   11.1582  -16.7673   16.4175 N   0  0  0  0  0  0  0  0  0  0  0  0
   12.4013  -16.4898   17.0685 C   0  0  1  0  0  0  0  0  0  0  0  0
   13.2550  -15.6087   16.1806 C   0  0  0  0  0  0  0  0  0  0  0  0
   13.5307  -16.3419   14.9238 C   0  0  0  0  0  0  0  0  0  0  0  0
   12.8633  -16.1469   13.8784 O   0  0  0  0  0  0  0  0  0  0  0  0
   12.1227  -15.8571   18.3769 C   0  0  0  0  0  0  0  0  0  0  0  0
   13.0173  -15.4119   19.1424 O   0  0  0  0  0  0  0  0  0  0  0  0
   14.5533  -17.2893   14.8468 O   0  0  0  0  0  0  0  0  0  0  0  0
    6.4706  -13.5813   19.7747 N   0  0  0  0  0  0  0  0  0  0  0  0
    7.4973  -13.0581   18.9509 C   0  0  0  0  0  0  0  0  0  0  0  0
    7.2138  -12.1069   18.1862 O   0  0  0  0  0  0  0  0  0  0  0  0
    8.8534  -13.6168   18.9944 C   0  0  0  0  0  0  0  0  0  0  0  0
    9.0012  -14.6671   20.0708 C   0  0  0  0  0  0  0  0  0  0  0  0
   10.4196  -15.2040   20.1249 C   0  0  2  0  0  0  0  0  0  0  0  0
   10.7737  -15.7310   18.8211 N   0  0  0  0  0  0  0  0  0  0  0  0
   10.5454  -16.2388   21.1745 C   0  0  0  0  0  0  0  0  0  0  0  0
   10.3119  -17.4459   20.9086 O   0  0  0  0  0  0  0  0  0  0  0  0
   10.9305  -15.8796   22.4913 N   0  0  0  0  0  0  0  0  0  0  0  0
   11.2310  -16.9353   23.4606 C   0  0  1  0  0  0  0  0  0  0  0  0
   12.5093  -17.6057   23.0149 C   0  0  0  0  0  0  0  0  0  0  0  0
   12.9516  -18.6030   23.9974 C   0  0  0  0  0  0  0  0  0  0  0  0
   12.1426  -19.0338   24.8567 O   0  0  0  0  0  0  0  0  0  0  0  0
   11.3836  -16.3517   24.8036 C   0  0  0  0  0  0  0  0  0  0  0  0
   11.4100  -15.1290   25.0597 O   0  0  0  0  0  0  0  0  0  0  0  0
   14.2443  -19.1076   24.0298 O   0  0  0  0  0  0  0  0  0  0  0  0
   11.5129  -17.2056   25.9114 O   0  0  0  0  0  0  0  0  0  0  0  0
  2  1  1  6
  2  3  1  0
  3  4  1  0
  4  5  2  0
  4  8  1  0
  6  7  2  0
  6  2  1  0
  9 10  1  0
 10 12  1  0
 11 10  2  0
 12 13  1  0
 14 13  1  6
 14 15  1  0
 15  6  1  0
 16 14  1  0
 16 17  2  0
 18 16  1  0
 19 18  1  0
 19 20  1  6
 20 21  1  0
 21 22  2  0
 21 25  1  0
 23 19  1  0
 24 23  2  0
 26 23  1  0
M  END
$$$$
