DLW.pdb
     RDKit          3D

 31 32  0  0  1  0  0  0  0  0999 V2000
    8.7999  -18.5227   19.7008 N   0  0  0  0  0  0  0  0  0  0  0  0
   10.1864  -18.2112   19.9833 C   0  0  1  0  0  0  0  0  0  0  0  0
   11.0014  -18.3127   18.7016 C   0  0  0  0  0  0  0  0  0  0  0  0
   10.9919  -19.7031   18.1792 C   0  0  0  0  0  0  0  0  0  0  0  0
   10.3718  -20.6185   18.7691 O   0  0  0  0  0  0  0  0  0  0  0  0
   10.3262  -16.8679   20.5974 C   0  0  0  0  0  0  0  0  0  0  0  0
   11.3912  -16.1837   20.4466 O   0  0  0  0  0  0  0  0  0  0  0  0
   11.6752  -20.0228   17.0165 O   0  0  0  0  0  0  0  0  0  0  0  0
    8.7223  -12.8914   19.7557 C   0  0  0  0  0  0  0  0  0  0  0  0
    7.7617  -13.9020   20.3048 C   0  0  2  0  0  0  0  0  0  0  0  0
    6.3321  -13.3345   20.3091 C   0  0  0  0  0  0  0  0  0  0  0  0
    8.0963  -14.3270   21.6749 C   0  0  0  0  0  0  0  0  0  0  0  0
    9.4003  -14.9422   21.9656 C   0  0  2  0  0  0  0  0  0  0  0  0
    9.2882  -16.3160   21.3608 N   0  0  0  0  0  0  0  0  0  0  0  0
    9.8660  -15.1534   23.3168 C   0  0  0  0  0  0  0  0  0  0  0  0
   10.5272  -14.2339   23.9114 O   0  0  0  0  0  0  0  0  0  0  0  0
    9.6143  -16.3722   24.0331 N   0  0  0  0  0  0  0  0  0  0  0  0
   10.0804  -16.5143   25.3945 C   0  0  1  0  0  0  0  0  0  0  0  0
    8.9009  -16.7983   26.2952 C   0  0  0  0  0  0  0  0  0  0  0  0
    7.8000  -15.8517   26.1166 C   0  0  0  0  0  0  0  0  0  0  0  0
    6.5582  -16.1521   25.6120 C   0  0  0  0  0  0  0  0  0  0  0  0
    5.8373  -15.0158   25.6103 N   0  0  0  0  0  0  0  0  0  0  0  0
    6.5440  -13.9876   26.0878 C   0  0  0  0  0  0  0  0  0  0  0  0
    6.2529  -12.6458   26.2828 C   0  0  0  0  0  0  0  0  0  0  0  0
    7.1898  -11.7805   26.8047 C   0  0  0  0  0  0  0  0  0  0  0  0
    8.4386  -12.2849   27.1328 C   0  0  0  0  0  0  0  0  0  0  0  0
    8.7114  -13.6176   26.9335 C   0  0  0  0  0  0  0  0  0  0  0  0
    7.7896  -14.5065   26.4116 C   0  0  0  0  0  0  0  0  0  0  0  0
   11.0994  -17.5985   25.4792 C   0  0  0  0  0  0  0  0  0  0  0  0
   11.6813  -17.8958   26.5479 O   0  0  0  0  0  0  0  0  0  0  0  0
   11.4121  -18.3026   24.3275 O   0  0  0  0  0  0  0  0  0  0  0  0
  2  1  1  6
  2  3  1  0
  3  4  1  0
  4  5  2  0
  4  8  1  0
  6  2  1  0
  7  6  2  0
 10 12  1  0
 10  9  1  1
 11 10  1  0
 13 12  1  1
 13 15  1  0
 13 14  1  0
 14  6  1  0
 15 16  2  0
 17 18  1  0
 17 15  1  0
 18 19  1  1
 20 19  1  0
 21 20  2  0
 22 21  1  0
 23 22  1  0
 23 28  2  0
 24 23  1  0
 25 24  2  0
 25 26  1  0
 26 27  2  0
 27 28  1  0
 28 20  1  0
 29 18  1  0
 30 29  2  0
 31 29  1  0
M  END
$$$$
