DLW.pdb
     RDKit          3D

 31 32  0  0  1  0  0  0  0  0999 V2000
    8.8748  -18.8156   19.9014 N   0  0  0  0  0  0  0  0  0  0  0  0
   10.2001  -18.2445   19.7726 C   0  0  1  0  0  0  0  0  0  0  0  0
   10.5664  -18.1375   18.2989 C   0  0  0  0  0  0  0  0  0  0  0  0
   10.7212  -19.4856   17.6947 C   0  0  0  0  0  0  0  0  0  0  0  0
   11.0462  -20.4784   18.3868 O   0  0  0  0  0  0  0  0  0  0  0  0
   10.2880  -16.9222   20.4397 C   0  0  0  0  0  0  0  0  0  0  0  0
   11.3468  -16.2164   20.3633 O   0  0  0  0  0  0  0  0  0  0  0  0
   10.5077  -19.6779   16.3388 O   0  0  0  0  0  0  0  0  0  0  0  0
    8.5554  -13.0543   19.5660 C   0  0  0  0  0  0  0  0  0  0  0  0
    7.6303  -14.0895   20.1302 C   0  0  2  0  0  0  0  0  0  0  0  0
    6.1783  -13.5834   20.0996 C   0  0  0  0  0  0  0  0  0  0  0  0
    7.9627  -14.4624   21.5160 C   0  0  0  0  0  0  0  0  0  0  0  0
    9.2674  -15.0630   21.8324 C   0  0  2  0  0  0  0  0  0  0  0  0
    9.2062  -16.4145   21.1724 N   0  0  0  0  0  0  0  0  0  0  0  0
    9.6869  -15.3171   23.1913 C   0  0  0  0  0  0  0  0  0  0  0  0
   10.3993  -14.4520   23.8081 O   0  0  0  0  0  0  0  0  0  0  0  0
    9.3327  -16.5198   23.8914 N   0  0  0  0  0  0  0  0  0  0  0  0
    9.7260  -16.6892   25.2725 C   0  0  1  0  0  0  0  0  0  0  0  0
    8.4933  -16.9269   26.1133 C   0  0  0  0  0  0  0  0  0  0  0  0
    7.5115  -15.8472   26.0125 C   0  0  0  0  0  0  0  0  0  0  0  0
    6.2175  -15.9788   25.5708 C   0  0  0  0  0  0  0  0  0  0  0  0
    5.6450  -14.7624   25.6295 N   0  0  0  0  0  0  0  0  0  0  0  0
    6.4982  -13.8419   26.0870 C   0  0  0  0  0  0  0  0  0  0  0  0
    6.3875  -12.4798   26.3225 C   0  0  0  0  0  0  0  0  0  0  0  0
    7.4508  -11.7506   26.8088 C   0  0  0  0  0  0  0  0  0  0  0  0
    8.6421  -12.4137   27.0590 C   0  0  0  0  0  0  0  0  0  0  0  0
    8.7357  -13.7644   26.8203 C   0  0  0  0  0  0  0  0  0  0  0  0
    7.6844  -14.5190   26.3328 C   0  0  0  0  0  0  0  0  0  0  0  0
   10.6925  -17.8167   25.3979 C   0  0  0  0  0  0  0  0  0  0  0  0
   11.0210  -18.5353   24.4260 O   0  0  0  0  0  0  0  0  0  0  0  0
   11.2468  -18.0762   26.6410 O   0  0  0  0  0  0  0  0  0  0  0  0
  2  1  1  6
  2  3  1  0
  3  4  1  0
  4  5  2  0
  4  8  1  0
  6  2  1  0
  7  6  2  0
 10 12  1  0
 10  9  1  1
 11 10  1  0
 13 12  1  1
 13 15  1  0
 13 14  1  0
 14  6  1  0
 15 16  2  0
 17 18  1  0
 17 15  1  0
 18 19  1  1
 20 19  1  0
 21 20  2  0
 22 21  1  0
 23 22  1  0
 23 28  2  0
 24 23  1  0
 25 24  2  0
 25 26  1  0
 26 27  2  0
 27 28  1  0
 28 20  1  0
 29 18  1  0
 30 29  2  0
 31 29  1  0
M  END
$$$$
