DLW.pdb
     RDKit          3D

 31 32  0  0  1  0  0  0  0  0999 V2000
   11.4290  -17.0762   17.8451 N   0  0  0  0  0  0  0  0  0  0  0  0
   11.7402  -17.6068   19.1570 C   0  0  1  0  0  0  0  0  0  0  0  0
   13.2346  -17.8798   19.2534 C   0  0  0  0  0  0  0  0  0  0  0  0
   13.5650  -19.2126   18.6869 C   0  0  0  0  0  0  0  0  0  0  0  0
   13.5035  -20.2522   19.3839 O   0  0  0  0  0  0  0  0  0  0  0  0
   11.2973  -16.6866   20.2332 C   0  0  0  0  0  0  0  0  0  0  0  0
   12.1334  -15.9540   20.8573 O   0  0  0  0  0  0  0  0  0  0  0  0
   13.9524  -19.3379   17.3621 O   0  0  0  0  0  0  0  0  0  0  0  0
    8.5995  -13.1177   20.0990 C   0  0  0  0  0  0  0  0  0  0  0  0
    7.9063  -14.4432   20.0080 C   0  0  2  0  0  0  0  0  0  0  0  0
    6.3942  -14.2438   19.8089 C   0  0  0  0  0  0  0  0  0  0  0  0
    8.1105  -15.2811   21.2021 C   0  0  0  0  0  0  0  0  0  0  0  0
    9.4697  -15.6313   21.6418 C   0  0  2  0  0  0  0  0  0  0  0  0
    9.9449  -16.5994   20.5917 N   0  0  0  0  0  0  0  0  0  0  0  0
    9.7245  -16.2804   22.9071 C   0  0  0  0  0  0  0  0  0  0  0  0
   10.3467  -17.3978   22.9335 O   0  0  0  0  0  0  0  0  0  0  0  0
    9.3021  -15.7155   24.1578 N   0  0  0  0  0  0  0  0  0  0  0  0
    9.8332  -16.2373   25.3974 C   0  0  1  0  0  0  0  0  0  0  0  0
    9.6246  -15.2187   26.4938 C   0  0  0  0  0  0  0  0  0  0  0  0
    8.2512  -14.7198   26.5613 C   0  0  0  0  0  0  0  0  0  0  0  0
    7.1147  -15.4775   26.4156 C   0  0  0  0  0  0  0  0  0  0  0  0
    6.0597  -14.6521   26.5444 N   0  0  0  0  0  0  0  0  0  0  0  0
    6.4479  -13.3934   26.7668 C   0  0  0  0  0  0  0  0  0  0  0  0
    5.7555  -12.2077   26.9621 C   0  0  0  0  0  0  0  0  0  0  0  0
    6.4201  -11.0197   27.1754 C   0  0  0  0  0  0  0  0  0  0  0  0
    7.8062  -11.0362   27.1906 C   0  0  0  0  0  0  0  0  0  0  0  0
    8.4778  -12.2198   26.9955 C   0  0  0  0  0  0  0  0  0  0  0  0
    7.8351  -13.4251   26.7794 C   0  0  0  0  0  0  0  0  0  0  0  0
    9.1797  -17.5342   25.7320 C   0  0  0  0  0  0  0  0  0  0  0  0
    8.1764  -17.9629   25.1166 O   0  0  0  0  0  0  0  0  0  0  0  0
    9.7066  -18.2922   26.7654 O   0  0  0  0  0  0  0  0  0  0  0  0
  2  1  1  6
  2  3  1  0
  3  4  1  0
  4  5  2  0
  4  8  1  0
  6  2  1  0
  7  6  2  0
 10 12  1  0
 10  9  1  1
 11 10  1  0
 13 12  1  6
 13 15  1  0
 13 14  1  0
 14  6  1  0
 15 16  2  0
 17 18  1  0
 17 15  1  0
 18 19  1  1
 20 19  1  0
 21 20  2  0
 22 21  1  0
 23 22  1  0
 23 28  2  0
 24 23  1  0
 25 24  2  0
 25 26  1  0
 26 27  2  0
 27 28  1  0
 28 20  1  0
 29 18  1  0
 30 29  2  0
 31 29  1  0
M  END
$$$$
