DLW.pdb
     RDKit          3D

 31 32  0  0  1  0  0  0  0  0999 V2000
    9.5129  -18.8209   20.0802 N   0  0  0  0  0  0  0  0  0  0  0  0
   10.7313  -18.0448   19.9692 C   0  0  1  0  0  0  0  0  0  0  0  0
   11.0927  -17.8733   18.5005 C   0  0  0  0  0  0  0  0  0  0  0  0
   11.9534  -18.9909   18.0351 C   0  0  0  0  0  0  0  0  0  0  0  0
   12.4237  -19.8310   18.8373 O   0  0  0  0  0  0  0  0  0  0  0  0
   10.5991  -16.7287   20.6413 C   0  0  0  0  0  0  0  0  0  0  0  0
   11.5681  -15.9006   20.6617 O   0  0  0  0  0  0  0  0  0  0  0  0
   12.2590  -19.1312   16.6905 O   0  0  0  0  0  0  0  0  0  0  0  0
    8.1954  -12.8991   19.8528 C   0  0  0  0  0  0  0  0  0  0  0  0
    7.5200  -14.1833   20.2279 C   0  0  2  0  0  0  0  0  0  0  0  0
    5.9924  -14.0324   20.1323 C   0  0  0  0  0  0  0  0  0  0  0  0
    7.8576  -14.6332   21.5893 C   0  0  0  0  0  0  0  0  0  0  0  0
    9.2372  -15.0160   21.9258 C   0  0  2  0  0  0  0  0  0  0  0  0
    9.4023  -16.3619   21.2724 N   0  0  0  0  0  0  0  0  0  0  0  0
    9.6735  -15.1952   23.2914 C   0  0  0  0  0  0  0  0  0  0  0  0
   10.3102  -14.2565   23.8828 O   0  0  0  0  0  0  0  0  0  0  0  0
    9.4188  -16.4025   24.0259 N   0  0  0  0  0  0  0  0  0  0  0  0
    9.8988  -16.5318   25.3837 C   0  0  1  0  0  0  0  0  0  0  0  0
    8.7262  -16.7877   26.3017 C   0  0  0  0  0  0  0  0  0  0  0  0
    7.6817  -15.7688   26.1980 C   0  0  0  0  0  0  0  0  0  0  0  0
    6.3945  -15.9810   25.7680 C   0  0  0  0  0  0  0  0  0  0  0  0
    5.7517  -14.7998   25.8191 N   0  0  0  0  0  0  0  0  0  0  0  0
    6.5525  -13.8260   26.2604 C   0  0  0  0  0  0  0  0  0  0  0  0
    6.3634  -12.4703   26.4832 C   0  0  0  0  0  0  0  0  0  0  0  0
    7.3854  -11.6747   26.9536 C   0  0  0  0  0  0  0  0  0  0  0  0
    8.6156  -12.2639   27.2010 C   0  0  0  0  0  0  0  0  0  0  0  0
    8.7869  -13.6091   26.9750 C   0  0  0  0  0  0  0  0  0  0  0  0
    7.7783  -14.4294   26.5035 C   0  0  0  0  0  0  0  0  0  0  0  0
   10.9046  -17.6280   25.4720 C   0  0  0  0  0  0  0  0  0  0  0  0
   11.1244  -18.4199   24.5268 O   0  0  0  0  0  0  0  0  0  0  0  0
   11.6223  -17.7728   26.6484 O   0  0  0  0  0  0  0  0  0  0  0  0
  2  1  1  6
  2  3  1  0
  3  4  1  0
  4  5  2  0
  4  8  1  0
  6  2  1  0
  7  6  2  0
 10 12  1  0
 10  9  1  1
 11 10  1  0
 13 12  1  1
 13 15  1  0
 13 14  1  0
 14  6  1  0
 15 16  2  0
 17 18  1  0
 17 15  1  0
 18 19  1  1
 20 19  1  0
 21 20  2  0
 22 21  1  0
 23 22  1  0
 23 28  2  0
 24 23  1  0
 25 24  2  0
 25 26  1  0
 26 27  2  0
 27 28  1  0
 28 20  1  0
 29 18  1  0
 30 29  2  0
 31 29  1  0
M  END
$$$$
