DLW.pdb
     RDKit          3D

 31 32  0  0  1  0  0  0  0  0999 V2000
   10.9359  -18.0555   18.6107 N   0  0  0  0  0  0  0  0  0  0  0  0
   11.9567  -17.6575   19.5587 C   0  0  1  0  0  0  0  0  0  0  0  0
   13.1136  -17.0043   18.8156 C   0  0  0  0  0  0  0  0  0  0  0  0
   13.8924  -18.0169   18.0575 C   0  0  0  0  0  0  0  0  0  0  0  0
   13.4313  -18.5570   17.0250 O   0  0  0  0  0  0  0  0  0  0  0  0
   11.4093  -16.7478   20.5951 C   0  0  0  0  0  0  0  0  0  0  0  0
   12.1721  -15.9681   21.2548 O   0  0  0  0  0  0  0  0  0  0  0  0
   15.1587  -18.3909   18.4789 O   0  0  0  0  0  0  0  0  0  0  0  0
    8.3981  -13.2748   20.4577 C   0  0  0  0  0  0  0  0  0  0  0  0
    7.8719  -14.6637   20.2585 C   0  0  2  0  0  0  0  0  0  0  0  0
    6.3628  -14.6273   19.9639 C   0  0  0  0  0  0  0  0  0  0  0  0
    8.0961  -15.5354   21.4247 C   0  0  0  0  0  0  0  0  0  0  0  0
    9.4605  -15.7929   21.9097 C   0  0  2  0  0  0  0  0  0  0  0  0
   10.0361  -16.7229   20.8755 N   0  0  0  0  0  0  0  0  0  0  0  0
    9.7166  -16.4270   23.1824 C   0  0  0  0  0  0  0  0  0  0  0  0
   10.1357  -17.6351   23.2169 O   0  0  0  0  0  0  0  0  0  0  0  0
    9.5171  -15.7477   24.4317 N   0  0  0  0  0  0  0  0  0  0  0  0
    9.7851  -16.4367   25.6745 C   0  0  1  0  0  0  0  0  0  0  0  0
    9.3816  -15.5502   26.8296 C   0  0  0  0  0  0  0  0  0  0  0  0
    8.0830  -14.9058   26.6336 C   0  0  0  0  0  0  0  0  0  0  0  0
    6.9098  -15.5462   26.3172 C   0  0  0  0  0  0  0  0  0  0  0  0
    5.9494  -14.6080   26.2256 N   0  0  0  0  0  0  0  0  0  0  0  0
    6.4345  -13.3867   26.4660 C   0  0  0  0  0  0  0  0  0  0  0  0
    5.8587  -12.1254   26.4907 C   0  0  0  0  0  0  0  0  0  0  0  0
    6.6077  -11.0040   26.7739 C   0  0  0  0  0  0  0  0  0  0  0  0
    7.9594  -11.1660   27.0353 C   0  0  0  0  0  0  0  0  0  0  0  0
    8.5151  -12.4231   27.0070 C   0  0  0  0  0  0  0  0  0  0  0  0
    7.7861  -13.5641   26.7257 C   0  0  0  0  0  0  0  0  0  0  0  0
    9.0571  -17.7366   25.7098 C   0  0  0  0  0  0  0  0  0  0  0  0
    9.2602  -18.6000   26.5943 O   0  0  0  0  0  0  0  0  0  0  0  0
    8.1195  -17.9956   24.7230 O   0  0  0  0  0  0  0  0  0  0  0  0
  2  1  1  6
  2  3  1  0
  3  4  1  0
  4  5  2  0
  4  8  1  0
  6  2  1  0
  7  6  2  0
 10 12  1  0
 10  9  1  1
 11 10  1  0
 13 12  1  6
 13 15  1  0
 13 14  1  0
 14  6  1  0
 15 16  2  0
 17 18  1  0
 17 15  1  0
 18 19  1  1
 20 19  1  0
 21 20  2  0
 22 21  1  0
 23 22  1  0
 23 28  2  0
 24 23  1  0
 25 24  2  0
 25 26  1  0
 26 27  2  0
 27 28  1  0
 28 20  1  0
 29 18  1  0
 30 29  2  0
 31 29  1  0
M  END
$$$$
