DLW.pdb
     RDKit          3D

 31 32  0  0  1  0  0  0  0  0999 V2000
    9.6854  -19.2359   20.2011 N   0  0  0  0  0  0  0  0  0  0  0  0
   10.9894  -18.6045   20.1963 C   0  0  1  0  0  0  0  0  0  0  0  0
   11.5494  -18.6054   18.7808 C   0  0  0  0  0  0  0  0  0  0  0  0
   11.6257  -19.9885   18.2446 C   0  0  0  0  0  0  0  0  0  0  0  0
   12.0496  -20.9379   18.9442 O   0  0  0  0  0  0  0  0  0  0  0  0
   10.9268  -17.2264   20.7424 C   0  0  0  0  0  0  0  0  0  0  0  0
   11.9313  -16.4447   20.6713 O   0  0  0  0  0  0  0  0  0  0  0  0
   11.2261  -20.2631   16.9462 O   0  0  0  0  0  0  0  0  0  0  0  0
    6.4824  -13.2697   21.0736 C   0  0  0  0  0  0  0  0  0  0  0  0
    7.8831  -13.5065   21.5507 C   0  0  2  0  0  0  0  0  0  0  0  0
    8.8664  -12.5943   20.7980 C   0  0  0  0  0  0  0  0  0  0  0  0
    8.3202  -14.9025   21.3779 C   0  0  0  0  0  0  0  0  0  0  0  0
    9.6499  -15.3286   21.8404 C   0  0  2  0  0  0  0  0  0  0  0  0
    9.7585  -16.7481   21.3517 N   0  0  0  0  0  0  0  0  0  0  0  0
    9.9969  -15.3765   23.2420 C   0  0  0  0  0  0  0  0  0  0  0  0
   10.5521  -14.3647   23.7936 O   0  0  0  0  0  0  0  0  0  0  0  0
    9.7410  -16.5312   24.0565 N   0  0  0  0  0  0  0  0  0  0  0  0
   10.0679  -16.5032   25.4648 C   0  0  1  0  0  0  0  0  0  0  0  0
    8.8214  -16.7919   26.2687 C   0  0  0  0  0  0  0  0  0  0  0  0
    7.6931  -15.9337   25.9081 C   0  0  0  0  0  0  0  0  0  0  0  0
    6.5727  -16.3296   25.2191 C   0  0  0  0  0  0  0  0  0  0  0  0
    5.7760  -15.2526   25.0904 N   0  0  0  0  0  0  0  0  0  0  0  0
    6.3180  -14.1727   25.6599 C   0  0  0  0  0  0  0  0  0  0  0  0
    5.8980  -12.8575   25.7904 C   0  0  0  0  0  0  0  0  0  0  0  0
    6.6722  -11.9220   26.4418 C   0  0  0  0  0  0  0  0  0  0  0  0
    7.8889  -12.3279   26.9678 C   0  0  0  0  0  0  0  0  0  0  0  0
    8.2909  -13.6354   26.8301 C   0  0  0  0  0  0  0  0  0  0  0  0
    7.5334  -14.5933   26.1812 C   0  0  0  0  0  0  0  0  0  0  0  0
   11.1447  -17.4894   25.7630 C   0  0  0  0  0  0  0  0  0  0  0  0
   11.6222  -18.2516   24.8911 O   0  0  0  0  0  0  0  0  0  0  0  0
   11.6338  -17.5622   27.0574 O   0  0  0  0  0  0  0  0  0  0  0  0
  2  1  1  6
  2  3  1  0
  3  4  1  0
  4  5  2  0
  4  8  1  0
  6  2  1  0
  7  6  2  0
 10 12  1  0
 10  9  1  6
 11 10  1  0
 13 12  1  1
 13 15  1  0
 13 14  1  0
 14  6  1  0
 15 16  2  0
 17 18  1  0
 17 15  1  0
 18 19  1  1
 20 19  1  0
 21 20  2  0
 22 21  1  0
 23 22  1  0
 23 28  2  0
 24 23  1  0
 25 24  2  0
 25 26  1  0
 26 27  2  0
 27 28  1  0
 28 20  1  0
 29 18  1  0
 30 29  2  0
 31 29  1  0
M  END
$$$$
