DLW.pdb
     RDKit          3D

 31 32  0  0  1  0  0  0  0  0999 V2000
    8.2820  -18.5938   20.3722 N   0  0  0  0  0  0  0  0  0  0  0  0
    9.6501  -18.2618   20.0293 C   0  0  1  0  0  0  0  0  0  0  0  0
    9.8122  -18.2747   18.5158 C   0  0  0  0  0  0  0  0  0  0  0  0
    9.9636  -19.6643   18.0133 C   0  0  0  0  0  0  0  0  0  0  0  0
    9.0364  -20.5011   18.1168 O   0  0  0  0  0  0  0  0  0  0  0  0
   10.0479  -16.9494   20.5955 C   0  0  0  0  0  0  0  0  0  0  0  0
   11.2119  -16.4712   20.3919 O   0  0  0  0  0  0  0  0  0  0  0  0
   11.1447  -20.0710   17.4130 O   0  0  0  0  0  0  0  0  0  0  0  0
    7.9593  -12.2459   19.8742 C   0  0  0  0  0  0  0  0  0  0  0  0
    8.0911  -13.7112   20.1590 C   0  0  2  0  0  0  0  0  0  0  0  0
    6.7954  -14.4486   19.7808 C   0  0  0  0  0  0  0  0  0  0  0  0
    8.3916  -13.9966   21.5726 C   0  0  0  0  0  0  0  0  0  0  0  0
    9.5295  -14.8562   21.9325 C   0  0  2  0  0  0  0  0  0  0  0  0
    9.1515  -16.2004   21.3703 N   0  0  0  0  0  0  0  0  0  0  0  0
    9.9004  -15.1043   23.3066 C   0  0  0  0  0  0  0  0  0  0  0  0
   10.4897  -14.1903   23.9801 O   0  0  0  0  0  0  0  0  0  0  0  0
    9.6316  -16.3545   23.9599 N   0  0  0  0  0  0  0  0  0  0  0  0
   10.0012  -16.5342   25.3463 C   0  0  1  0  0  0  0  0  0  0  0  0
    8.7687  -16.8873   26.1460 C   0  0  0  0  0  0  0  0  0  0  0  0
    7.6725  -15.9361   25.9632 C   0  0  0  0  0  0  0  0  0  0  0  0
    6.4295  -16.2323   25.4591 C   0  0  0  0  0  0  0  0  0  0  0  0
    5.7142  -15.0925   25.4526 N   0  0  0  0  0  0  0  0  0  0  0  0
    6.4256  -14.0660   25.9266 C   0  0  0  0  0  0  0  0  0  0  0  0
    6.1410  -12.7220   26.1164 C   0  0  0  0  0  0  0  0  0  0  0  0
    7.0818  -11.8594   26.6355 C   0  0  0  0  0  0  0  0  0  0  0  0
    8.3280  -12.3686   26.9663 C   0  0  0  0  0  0  0  0  0  0  0  0
    8.5944  -13.7033   26.7722 C   0  0  0  0  0  0  0  0  0  0  0  0
    7.6685  -14.5897   26.2531 C   0  0  0  0  0  0  0  0  0  0  0  0
   11.0460  -17.5899   25.4679 C   0  0  0  0  0  0  0  0  0  0  0  0
   11.4385  -18.2668   24.4898 O   0  0  0  0  0  0  0  0  0  0  0  0
   11.6024  -17.8282   26.7144 O   0  0  0  0  0  0  0  0  0  0  0  0
  2  1  1  6
  2  3  1  0
  3  4  1  0
  4  5  2  0
  4  8  1  0
  6  2  1  0
  7  6  2  0
 10 12  1  0
 10  9  1  1
 11 10  1  0
 13 12  1  1
 13 15  1  0
 13 14  1  0
 14  6  1  0
 15 16  2  0
 17 18  1  0
 17 15  1  0
 18 19  1  1
 20 19  1  0
 21 20  2  0
 22 21  1  0
 23 22  1  0
 23 28  2  0
 24 23  1  0
 25 24  2  0
 25 26  1  0
 26 27  2  0
 27 28  1  0
 28 20  1  0
 29 18  1  0
 30 29  2  0
 31 29  1  0
M  END
$$$$
