DLW.pdb
     RDKit          3D

 31 32  0  0  1  0  0  0  0  0999 V2000
    9.4839  -18.7067   20.0577 N   0  0  0  0  0  0  0  0  0  0  0  0
   10.7183  -17.9513   19.9880 C   0  0  1  0  0  0  0  0  0  0  0  0
   11.0756  -17.6949   18.5306 C   0  0  0  0  0  0  0  0  0  0  0  0
   11.5952  -18.9300   17.8897 C   0  0  0  0  0  0  0  0  0  0  0  0
   10.9657  -19.5033   16.9701 O   0  0  0  0  0  0  0  0  0  0  0  0
   10.6184  -16.6780   20.7429 C   0  0  0  0  0  0  0  0  0  0  0  0
   11.6168  -15.8914   20.8403 O   0  0  0  0  0  0  0  0  0  0  0  0
   12.7993  -19.4818   18.2978 O   0  0  0  0  0  0  0  0  0  0  0  0
    8.2681  -12.9906   19.8508 C   0  0  0  0  0  0  0  0  0  0  0  0
    7.5204  -14.1942   20.3386 C   0  0  2  0  0  0  0  0  0  0  0  0
    6.0045  -13.9382   20.2909 C   0  0  0  0  0  0  0  0  0  0  0  0
    7.8833  -14.5771   21.7139 C   0  0  0  0  0  0  0  0  0  0  0  0
    9.2638  -14.9676   22.0379 C   0  0  2  0  0  0  0  0  0  0  0  0
    9.4207  -16.3072   21.3696 N   0  0  0  0  0  0  0  0  0  0  0  0
    9.7079  -15.1621   23.3988 C   0  0  0  0  0  0  0  0  0  0  0  0
   10.3126  -14.2155   24.0108 O   0  0  0  0  0  0  0  0  0  0  0  0
    9.4961  -16.3937   24.1062 N   0  0  0  0  0  0  0  0  0  0  0  0
    9.9352  -16.5185   25.4782 C   0  0  1  0  0  0  0  0  0  0  0  0
    8.7423  -16.8214   26.3548 C   0  0  0  0  0  0  0  0  0  0  0  0
    7.6834  -15.8174   26.2518 C   0  0  0  0  0  0  0  0  0  0  0  0
    6.3916  -16.0530   25.8486 C   0  0  0  0  0  0  0  0  0  0  0  0
    5.7350  -14.8791   25.8904 N   0  0  0  0  0  0  0  0  0  0  0  0
    6.5311  -13.8878   26.3003 C   0  0  0  0  0  0  0  0  0  0  0  0
    6.3289  -12.5309   26.5026 C   0  0  0  0  0  0  0  0  0  0  0  0
    7.3488  -11.7145   26.9407 C   0  0  0  0  0  0  0  0  0  0  0  0
    8.5905  -12.2840   27.1765 C   0  0  0  0  0  0  0  0  0  0  0  0
    8.7748  -13.6308   26.9711 C   0  0  0  0  0  0  0  0  0  0  0  0
    7.7685  -14.4717   26.5321 C   0  0  0  0  0  0  0  0  0  0  0  0
   10.9739  -17.5812   25.5916 C   0  0  0  0  0  0  0  0  0  0  0  0
   11.3176  -18.2953   24.6216 O   0  0  0  0  0  0  0  0  0  0  0  0
   11.5806  -17.7833   26.8209 O   0  0  0  0  0  0  0  0  0  0  0  0
  2  1  1  6
  2  3  1  0
  3  4  1  0
  4  5  2  0
  4  8  1  0
  6  2  1  0
  7  6  2  0
 10 12  1  0
 10  9  1  1
 11 10  1  0
 13 12  1  1
 13 15  1  0
 13 14  1  0
 14  6  1  0
 15 16  2  0
 17 18  1  0
 17 15  1  0
 18 19  1  1
 20 19  1  0
 21 20  2  0
 22 21  1  0
 23 22  1  0
 23 28  2  0
 24 23  1  0
 25 24  2  0
 25 26  1  0
 26 27  2  0
 27 28  1  0
 28 20  1  0
 29 18  1  0
 30 29  2  0
 31 29  1  0
M  END
$$$$
