DLW.pdb
     RDKit          3D

 31 32  0  0  1  0  0  0  0  0999 V2000
    8.9568  -18.8593   20.1403 N   0  0  0  0  0  0  0  0  0  0  0  0
   10.2716  -18.2654   20.0067 C   0  0  1  0  0  0  0  0  0  0  0  0
   10.6465  -18.1871   18.5334 C   0  0  0  0  0  0  0  0  0  0  0  0
   10.9250  -19.5401   17.9873 C   0  0  0  0  0  0  0  0  0  0  0  0
   11.7829  -19.7192   17.0916 O   0  0  0  0  0  0  0  0  0  0  0  0
   10.3288  -16.9258   20.6418 C   0  0  0  0  0  0  0  0  0  0  0  0
   11.3611  -16.1869   20.5262 O   0  0  0  0  0  0  0  0  0  0  0  0
   10.2360  -20.6457   18.4604 O   0  0  0  0  0  0  0  0  0  0  0  0
    8.5527  -12.8275   19.9337 C   0  0  0  0  0  0  0  0  0  0  0  0
    7.6754  -13.9895   20.2885 C   0  0  2  0  0  0  0  0  0  0  0  0
    6.1934  -13.5867   20.2040 C   0  0  0  0  0  0  0  0  0  0  0  0
    7.9372  -14.5149   21.6396 C   0  0  0  0  0  0  0  0  0  0  0  0
    9.2607  -15.0562   21.9839 C   0  0  2  0  0  0  0  0  0  0  0  0
    9.2463  -16.4378   21.3867 N   0  0  0  0  0  0  0  0  0  0  0  0
    9.6857  -15.2333   23.3533 C   0  0  0  0  0  0  0  0  0  0  0  0
   10.2659  -14.2727   23.9673 O   0  0  0  0  0  0  0  0  0  0  0  0
    9.4816  -16.4625   24.0669 N   0  0  0  0  0  0  0  0  0  0  0  0
    9.9617  -16.5929   25.4246 C   0  0  1  0  0  0  0  0  0  0  0  0
    8.7850  -16.8079   26.3479 C   0  0  0  0  0  0  0  0  0  0  0  0
    7.6708  -15.8986   26.0807 C   0  0  0  0  0  0  0  0  0  0  0  0
    6.4977  -16.2320   25.4486 C   0  0  0  0  0  0  0  0  0  0  0  0
    5.7363  -15.1235   25.3992 N   0  0  0  0  0  0  0  0  0  0  0  0
    6.3512  -14.0822   25.9666 C   0  0  0  0  0  0  0  0  0  0  0  0
    5.9897  -12.7575   26.1602 C   0  0  0  0  0  0  0  0  0  0  0  0
    6.8356  -11.8714   26.7913 C   0  0  0  0  0  0  0  0  0  0  0  0
    8.0648  -12.3373   27.2315 C   0  0  0  0  0  0  0  0  0  0  0  0
    8.4082  -13.6534   27.0320 C   0  0  0  0  0  0  0  0  0  0  0  0
    7.5782  -14.5625   26.4018 C   0  0  0  0  0  0  0  0  0  0  0  0
   10.9368  -17.7158   25.5202 C   0  0  0  0  0  0  0  0  0  0  0  0
   11.1724  -18.4884   24.5629 O   0  0  0  0  0  0  0  0  0  0  0  0
   11.6070  -17.9086   26.7177 O   0  0  0  0  0  0  0  0  0  0  0  0
  2  1  1  6
  2  3  1  0
  3  4  1  0
  4  5  2  0
  4  8  1  0
  6  2  1  0
  7  6  2  0
 10 12  1  0
 10  9  1  1
 11 10  1  0
 13 12  1  1
 13 15  1  0
 13 14  1  0
 14  6  1  0
 15 16  2  0
 17 18  1  0
 17 15  1  0
 18 19  1  1
 20 19  1  0
 21 20  2  0
 22 21  1  0
 23 22  1  0
 23 28  2  0
 24 23  1  0
 25 24  2  0
 25 26  1  0
 26 27  2  0
 27 28  1  0
 28 20  1  0
 29 18  1  0
 30 29  2  0
 31 29  1  0
M  END
$$$$
