DLW.pdb
     RDKit          3D

 31 32  0  0  1  0  0  0  0  0999 V2000
    9.5331  -18.8493   20.1096 N   0  0  0  0  0  0  0  0  0  0  0  0
   10.7993  -18.1566   19.9825 C   0  0  1  0  0  0  0  0  0  0  0  0
   11.1537  -18.0117   18.5092 C   0  0  0  0  0  0  0  0  0  0  0  0
   11.2331  -19.3416   17.8525 C   0  0  0  0  0  0  0  0  0  0  0  0
   10.3627  -19.7190   17.0337 O   0  0  0  0  0  0  0  0  0  0  0  0
   10.7635  -16.8337   20.6533 C   0  0  0  0  0  0  0  0  0  0  0  0
   11.7890  -16.0767   20.6692 O   0  0  0  0  0  0  0  0  0  0  0  0
   12.2815  -20.2037   18.1330 O   0  0  0  0  0  0  0  0  0  0  0  0
    8.8801  -12.9945   19.7803 C   0  0  0  0  0  0  0  0  0  0  0  0
    7.9399  -14.0673   20.2393 C   0  0  2  0  0  0  0  0  0  0  0  0
    6.4865  -13.5679   20.1764 C   0  0  0  0  0  0  0  0  0  0  0  0
    8.2150  -14.5228   21.6128 C   0  0  0  0  0  0  0  0  0  0  0  0
    9.5431  -15.0425   21.9724 C   0  0  2  0  0  0  0  0  0  0  0  0
    9.5982  -16.3821   21.2881 N   0  0  0  0  0  0  0  0  0  0  0  0
    9.9243  -15.2946   23.3429 C   0  0  0  0  0  0  0  0  0  0  0  0
   10.5481  -14.3947   24.0042 O   0  0  0  0  0  0  0  0  0  0  0  0
    9.6279  -16.5333   24.0061 N   0  0  0  0  0  0  0  0  0  0  0  0
    9.9325  -16.6863   25.4113 C   0  0  1  0  0  0  0  0  0  0  0  0
    8.6533  -16.9545   26.1694 C   0  0  0  0  0  0  0  0  0  0  0  0
    7.6443  -15.9122   25.9815 C   0  0  0  0  0  0  0  0  0  0  0  0
    6.4776  -16.0448   25.2687 C   0  0  0  0  0  0  0  0  0  0  0  0
    5.8275  -14.8684   25.3355 N   0  0  0  0  0  0  0  0  0  0  0  0
    6.5092  -13.9732   26.0555 C   0  0  0  0  0  0  0  0  0  0  0  0
    6.2651  -12.6538   26.4060 C   0  0  0  0  0  0  0  0  0  0  0  0
    7.1586  -11.9430   27.1774 C   0  0  0  0  0  0  0  0  0  0  0  0
    8.3152  -12.5808   27.5985 C   0  0  0  0  0  0  0  0  0  0  0  0
    8.5424  -13.8891   27.2426 C   0  0  0  0  0  0  0  0  0  0  0  0
    7.6624  -14.6245   26.4697 C   0  0  0  0  0  0  0  0  0  0  0  0
   10.9186  -17.7864   25.6074 C   0  0  0  0  0  0  0  0  0  0  0  0
   11.3222  -18.5069   24.6656 O   0  0  0  0  0  0  0  0  0  0  0  0
   11.4053  -18.0174   26.8841 O   0  0  0  0  0  0  0  0  0  0  0  0
  2  1  1  6
  2  3  1  0
  3  4  1  0
  4  5  2  0
  4  8  1  0
  6  2  1  0
  7  6  2  0
 10 12  1  0
 10  9  1  1
 11 10  1  0
 13 12  1  1
 13 15  1  0
 13 14  1  0
 14  6  1  0
 15 16  2  0
 17 18  1  0
 17 15  1  0
 18 19  1  1
 20 19  1  0
 21 20  2  0
 22 21  1  0
 23 22  1  0
 23 28  2  0
 24 23  1  0
 25 24  2  0
 25 26  1  0
 26 27  2  0
 27 28  1  0
 28 20  1  0
 29 18  1  0
 30 29  2  0
 31 29  1  0
M  END
$$$$
