DLW.pdb
     RDKit          3D

 31 32  0  0  1  0  0  0  0  0999 V2000
   13.0235  -18.5866   22.9055 N   0  0  0  0  0  0  0  0  0  0  0  0
   11.9636  -17.6333   23.1645 C   0  0  1  0  0  0  0  0  0  0  0  0
   10.7267  -18.0190   22.3653 C   0  0  0  0  0  0  0  0  0  0  0  0
   10.9407  -17.7815   20.9147 C   0  0  0  0  0  0  0  0  0  0  0  0
   11.6346  -18.5606   20.2206 O   0  0  0  0  0  0  0  0  0  0  0  0
   11.6548  -17.5458   24.6130 C   0  0  0  0  0  0  0  0  0  0  0  0
   11.7773  -18.5613   25.3738 O   0  0  0  0  0  0  0  0  0  0  0  0
   10.3724  -16.6825   20.2901 O   0  0  0  0  0  0  0  0  0  0  0  0
   10.3751  -12.8401   28.3107 C   0  0  0  0  0  0  0  0  0  0  0  0
   10.4867  -14.3338   28.2662 C   0  0  2  0  0  0  0  0  0  0  0  0
   11.4882  -14.8275   29.3239 C   0  0  0  0  0  0  0  0  0  0  0  0
   10.9151  -14.8385   26.9503 C   0  0  0  0  0  0  0  0  0  0  0  0
   10.7760  -16.2648   26.6191 C   0  0  2  0  0  0  0  0  0  0  0  0
   11.2195  -16.3413   25.1827 N   0  0  0  0  0  0  0  0  0  0  0  0
    9.5013  -16.9433   26.6649 C   0  0  0  0  0  0  0  0  0  0  0  0
    9.0381  -17.3493   27.7861 O   0  0  0  0  0  0  0  0  0  0  0  0
    8.7187  -17.1859   25.4857 N   0  0  0  0  0  0  0  0  0  0  0  0
    7.3482  -17.6293   25.6121 C   0  0  1  0  0  0  0  0  0  0  0  0
    6.5428  -17.0864   24.4546 C   0  0  0  0  0  0  0  0  0  0  0  0
    6.9041  -15.7150   24.0959 C   0  0  0  0  0  0  0  0  0  0  0  0
    7.5779  -15.3341   22.9611 C   0  0  0  0  0  0  0  0  0  0  0  0
    7.7132  -13.9958   23.0017 N   0  0  0  0  0  0  0  0  0  0  0  0
    7.1623  -13.4819   24.1048 C   0  0  0  0  0  0  0  0  0  0  0  0
    7.0449  -12.1890   24.5925 C   0  0  0  0  0  0  0  0  0  0  0  0
    6.4123  -11.9321   25.7894 C   0  0  0  0  0  0  0  0  0  0  0  0
    5.8922  -13.0026   26.5003 C   0  0  0  0  0  0  0  0  0  0  0  0
    6.0168  -14.2783   26.0032 C   0  0  0  0  0  0  0  0  0  0  0  0
    6.6466  -14.5631   24.8055 C   0  0  0  0  0  0  0  0  0  0  0  0
    7.2910  -19.1177   25.6602 C   0  0  0  0  0  0  0  0  0  0  0  0
    8.2901  -19.8391   25.4358 O   0  0  0  0  0  0  0  0  0  0  0  0
    6.0824  -19.7228   25.9658 O   0  0  0  0  0  0  0  0  0  0  0  0
  2  1  1  1
  2  3  1  0
  3  4  1  0
  4  5  2  0
  4  8  1  0
  6  2  1  0
  7  6  2  0
 10 12  1  0
 10  9  1  6
 11 10  1  0
 13 12  1  6
 13 15  1  0
 13 14  1  0
 14  6  1  0
 15 16  2  0
 17 18  1  0
 17 15  1  0
 18 19  1  6
 20 19  1  0
 21 20  2  0
 22 21  1  0
 23 22  1  0
 23 28  2  0
 24 23  1  0
 25 24  2  0
 25 26  1  0
 26 27  2  0
 27 28  1  0
 28 20  1  0
 29 18  1  0
 30 29  2  0
 31 29  1  0
M  END
$$$$
