DLW.pdb
     RDKit          3D

 31 32  0  0  1  0  0  0  0  0999 V2000
    9.2495  -19.1300   19.8846 N   0  0  0  0  0  0  0  0  0  0  0  0
   10.5708  -18.5377   19.8349 C   0  0  1  0  0  0  0  0  0  0  0  0
   11.0483  -18.4807   18.3906 C   0  0  0  0  0  0  0  0  0  0  0  0
    9.9624  -18.0073   17.4944 C   0  0  0  0  0  0  0  0  0  0  0  0
    8.7658  -17.9978   17.8665 O   0  0  0  0  0  0  0  0  0  0  0  0
   10.5842  -17.1890   20.4530 C   0  0  0  0  0  0  0  0  0  0  0  0
   11.6119  -16.4391   20.3725 O   0  0  0  0  0  0  0  0  0  0  0  0
   10.2506  -17.5611   16.2143 O   0  0  0  0  0  0  0  0  0  0  0  0
    8.5499  -13.0553   19.9886 C   0  0  0  0  0  0  0  0  0  0  0  0
    7.6971  -14.2339   20.3483 C   0  0  2  0  0  0  0  0  0  0  0  0
    6.2220  -13.8129   20.4602 C   0  0  0  0  0  0  0  0  0  0  0  0
    8.0969  -14.8657   21.6175 C   0  0  0  0  0  0  0  0  0  0  0  0
    9.4719  -15.3529   21.8054 C   0  0  2  0  0  0  0  0  0  0  0  0
    9.4642  -16.7043   21.1426 N   0  0  0  0  0  0  0  0  0  0  0  0
   10.0372  -15.5709   23.1170 C   0  0  0  0  0  0  0  0  0  0  0  0
   11.0437  -14.8792   23.4975 O   0  0  0  0  0  0  0  0  0  0  0  0
    9.5087  -16.5475   24.0274 N   0  0  0  0  0  0  0  0  0  0  0  0
   10.0961  -16.6975   25.3402 C   0  0  1  0  0  0  0  0  0  0  0  0
    9.8083  -15.4589   26.1564 C   0  0  0  0  0  0  0  0  0  0  0  0
    8.3939  -15.0859   26.1561 C   0  0  0  0  0  0  0  0  0  0  0  0
    7.3390  -15.9415   25.9508 C   0  0  0  0  0  0  0  0  0  0  0  0
    6.2088  -15.2153   26.0287 N   0  0  0  0  0  0  0  0  0  0  0  0
    6.4703  -13.9285   26.2746 C   0  0  0  0  0  0  0  0  0  0  0  0
    5.6651  -12.8115   26.4385 C   0  0  0  0  0  0  0  0  0  0  0  0
    6.2084  -11.5702   26.6889 C   0  0  0  0  0  0  0  0  0  0  0  0
    7.5878  -11.4622   26.7740 C   0  0  0  0  0  0  0  0  0  0  0  0
    8.3722  -12.5791   26.6092 C   0  0  0  0  0  0  0  0  0  0  0  0
    7.8524  -13.8356   26.3570 C   0  0  0  0  0  0  0  0  0  0  0  0
    9.5639  -17.9201   26.0057 C   0  0  0  0  0  0  0  0  0  0  0  0
    8.7112  -18.6640   25.4685 O   0  0  0  0  0  0  0  0  0  0  0  0
   10.0339  -18.2423   27.2687 O   0  0  0  0  0  0  0  0  0  0  0  0
  2  1  1  6
  2  3  1  0
  3  4  1  0
  4  5  2  0
  4  8  1  0
  6  2  1  0
  7  6  2  0
 10 12  1  0
 10  9  1  1
 11 10  1  0
 13 12  1  1
 13 15  1  0
 13 14  1  0
 14  6  1  0
 15 16  2  0
 17 18  1  0
 17 15  1  0
 18 19  1  1
 20 19  1  0
 21 20  2  0
 22 21  1  0
 23 22  1  0
 23 28  2  0
 24 23  1  0
 25 24  2  0
 25 26  1  0
 26 27  2  0
 27 28  1  0
 28 20  1  0
 29 18  1  0
 30 29  2  0
 31 29  1  0
M  END
$$$$
