DLW.pdb
     RDKit          3D

 31 32  0  0  1  0  0  0  0  0999 V2000
    9.4914  -19.7446   21.3164 N   0  0  0  0  0  0  0  0  0  0  0  0
   10.4415  -19.0066   20.5089 C   0  0  1  0  0  0  0  0  0  0  0  0
   10.1883  -19.2947   19.0358 C   0  0  0  0  0  0  0  0  0  0  0  0
   11.3177  -18.8097   18.2018 C   0  0  0  0  0  0  0  0  0  0  0  0
   11.1867  -18.6228   16.9695 O   0  0  0  0  0  0  0  0  0  0  0  0
   10.3725  -17.5506   20.7854 C   0  0  0  0  0  0  0  0  0  0  0  0
   11.3926  -16.8024   20.6279 O   0  0  0  0  0  0  0  0  0  0  0  0
   12.5537  -18.5503   18.7727 O   0  0  0  0  0  0  0  0  0  0  0  0
    5.9396  -13.4760   20.6932 C   0  0  0  0  0  0  0  0  0  0  0  0
    7.3740  -13.6777   21.0770 C   0  0  2  0  0  0  0  0  0  0  0  0
    8.2979  -12.9071   20.1187 C   0  0  0  0  0  0  0  0  0  0  0  0
    7.7764  -15.0946   21.0702 C   0  0  0  0  0  0  0  0  0  0  0  0
    9.1052  -15.4932   21.5591 C   0  0  2  0  0  0  0  0  0  0  0  0
    9.1810  -16.9595   21.2279 N   0  0  0  0  0  0  0  0  0  0  0  0
    9.4725  -15.3940   22.9528 C   0  0  0  0  0  0  0  0  0  0  0  0
    9.7852  -14.2566   23.4477 O   0  0  0  0  0  0  0  0  0  0  0  0
    9.5025  -16.5371   23.8214 N   0  0  0  0  0  0  0  0  0  0  0  0
    9.8660  -16.3736   25.2113 C   0  0  1  0  0  0  0  0  0  0  0  0
    8.6720  -16.7008   26.0777 C   0  0  0  0  0  0  0  0  0  0  0  0
    7.5462  -15.7893   25.8734 C   0  0  0  0  0  0  0  0  0  0  0  0
    6.3275  -16.1279   25.3378 C   0  0  0  0  0  0  0  0  0  0  0  0
    5.5709  -15.0151   25.3200 N   0  0  0  0  0  0  0  0  0  0  0  0
    6.2325  -13.9661   25.8164 C   0  0  0  0  0  0  0  0  0  0  0  0
    5.8941  -12.6347   26.0063 C   0  0  0  0  0  0  0  0  0  0  0  0
    6.7897  -11.7413   26.5527 C   0  0  0  0  0  0  0  0  0  0  0  0
    8.0455  -12.2065   26.9108 C   0  0  0  0  0  0  0  0  0  0  0  0
    8.3655  -13.5292   26.7162 C   0  0  0  0  0  0  0  0  0  0  0  0
    7.4856  -14.4458   26.1702 C   0  0  0  0  0  0  0  0  0  0  0  0
   11.0306  -17.2417   25.5445 C   0  0  0  0  0  0  0  0  0  0  0  0
   11.5964  -17.2125   26.6617 O   0  0  0  0  0  0  0  0  0  0  0  0
   11.5024  -18.1141   24.5768 O   0  0  0  0  0  0  0  0  0  0  0  0
  2  1  1  1
  2  3  1  0
  3  4  1  0
  4  5  2  0
  4  8  1  0
  6  2  1  0
  7  6  2  0
 10 12  1  0
 10  9  1  6
 11 10  1  0
 13 12  1  1
 13 15  1  0
 13 14  1  0
 14  6  1  0
 15 16  2  0
 17 18  1  0
 17 15  1  0
 18 19  1  1
 20 19  1  0
 21 20  2  0
 22 21  1  0
 23 22  1  0
 23 28  2  0
 24 23  1  0
 25 24  2  0
 25 26  1  0
 26 27  2  0
 27 28  1  0
 28 20  1  0
 29 18  1  0
 30 29  2  0
 31 29  1  0
M  END
$$$$
