DLW.pdb
     RDKit          3D

 31 32  0  0  1  0  0  0  0  0999 V2000
   10.9932  -16.9440   17.6116 N   0  0  0  0  0  0  0  0  0  0  0  0
   11.7747  -17.0510   18.8270 C   0  0  1  0  0  0  0  0  0  0  0  0
   13.2153  -16.6504   18.5418 C   0  0  0  0  0  0  0  0  0  0  0  0
   13.8262  -17.5580   17.5371 C   0  0  0  0  0  0  0  0  0  0  0  0
   13.2789  -18.6382   17.2144 O   0  0  0  0  0  0  0  0  0  0  0  0
   11.1989  -16.2247   19.9165 C   0  0  0  0  0  0  0  0  0  0  0  0
   11.9407  -15.4854   20.6432 O   0  0  0  0  0  0  0  0  0  0  0  0
   15.0265  -17.2279   16.9279 O   0  0  0  0  0  0  0  0  0  0  0  0
    8.2358  -12.7112   20.1231 C   0  0  0  0  0  0  0  0  0  0  0  0
    7.7307  -14.0642   19.7233 C   0  0  2  0  0  0  0  0  0  0  0  0
    6.2430  -13.9885   19.3406 C   0  0  0  0  0  0  0  0  0  0  0  0
    7.8857  -15.0720   20.7864 C   0  0  0  0  0  0  0  0  0  0  0  0
    9.2223  -15.4224   21.2903 C   0  0  2  0  0  0  0  0  0  0  0  0
    9.8211  -16.2363   20.1746 N   0  0  0  0  0  0  0  0  0  0  0  0
    9.4101  -16.2116   22.4858 C   0  0  0  0  0  0  0  0  0  0  0  0
    9.7024  -17.4531   22.3877 O   0  0  0  0  0  0  0  0  0  0  0  0
    9.2803  -15.6527   23.8022 N   0  0  0  0  0  0  0  0  0  0  0  0
    9.4154  -16.5064   24.9613 C   0  0  1  0  0  0  0  0  0  0  0  0
    9.2304  -15.6780   26.2114 C   0  0  0  0  0  0  0  0  0  0  0  0
    7.9409  -14.9889   26.2590 C   0  0  0  0  0  0  0  0  0  0  0  0
    6.7165  -15.5612   26.0137 C   0  0  0  0  0  0  0  0  0  0  0  0
    5.7853  -14.6006   26.1585 N   0  0  0  0  0  0  0  0  0  0  0  0
    6.3379  -13.4293   26.4859 C   0  0  0  0  0  0  0  0  0  0  0  0
    5.8135  -12.1704   26.7374 C   0  0  0  0  0  0  0  0  0  0  0  0
    6.6297  -11.1087   27.0618 C   0  0  0  0  0  0  0  0  0  0  0  0
    7.9966  -11.3286   27.1317 C   0  0  0  0  0  0  0  0  0  0  0  0
    8.5008  -12.5825   26.8796 C   0  0  0  0  0  0  0  0  0  0  0  0
    7.7040  -13.6643   26.5521 C   0  0  0  0  0  0  0  0  0  0  0  0
    8.4268  -17.6198   24.8988 C   0  0  0  0  0  0  0  0  0  0  0  0
    7.4525  -17.6139   24.1115 O   0  0  0  0  0  0  0  0  0  0  0  0
    8.5964  -18.7023   25.7471 O   0  0  0  0  0  0  0  0  0  0  0  0
  2  1  1  6
  2  3  1  0
  3  4  1  0
  4  5  2  0
  4  8  1  0
  6  2  1  0
  7  6  2  0
 10 12  1  0
 10  9  1  1
 11 10  1  0
 13 12  1  6
 13 15  1  0
 13 14  1  0
 14  6  1  0
 15 16  2  0
 17 18  1  0
 17 15  1  0
 18 19  1  1
 20 19  1  0
 21 20  2  0
 22 21  1  0
 23 22  1  0
 23 28  2  0
 24 23  1  0
 25 24  2  0
 25 26  1  0
 26 27  2  0
 27 28  1  0
 28 20  1  0
 29 18  1  0
 30 29  2  0
 31 29  1  0
M  END
$$$$
