MKF.pdb
     RDKit          3D

 29 29  0  0  1  0  0  0  0  0999 V2000
   27.3397  -27.4371  -16.3990 C   0  0  0  0  0  0  0  0  0  0  0  0
   25.5622  -27.8086  -16.3426 S   0  0  0  0  0  0  0  0  0  0  0  0
   24.5900  -26.2888  -16.1306 C   0  0  0  0  0  0  0  0  0  0  0  0
   25.4670  -25.2670  -15.4454 C   0  0  0  0  0  0  0  0  0  0  0  0
   24.6407  -24.0156  -15.1953 C   0  0  2  0  0  0  0  0  0  0  0  0
   24.1395  -23.4904  -16.4311 N   0  0  0  0  0  0  0  0  0  0  0  0
   25.4590  -22.9889  -14.5203 C   0  0  0  0  0  0  0  0  0  0  0  0
   26.6042  -22.6465  -14.9335 O   0  0  0  0  0  0  0  0  0  0  0  0
   24.9839  -22.3291  -13.3543 N   0  0  0  0  0  0  0  0  0  0  0  0
   25.6561  -21.1973  -12.7475 C   0  0  1  0  0  0  0  0  0  0  0  0
   24.6148  -20.0636  -12.7533 C   0  0  0  0  0  0  0  0  0  0  0  0
   24.4620  -19.5073  -14.1437 C   0  0  0  0  0  0  0  0  0  0  0  0
   23.5223  -18.3330  -14.1141 C   0  0  0  0  0  0  0  0  0  0  0  0
   23.2655  -17.8110  -15.4818 C   0  0  0  0  0  0  0  0  0  0  0  0
   22.2403  -16.7869  -15.5202 N   0  0  0  0  0  0  0  0  0  0  0  0
   25.9194  -21.4788  -11.3241 C   0  0  0  0  0  0  0  0  0  0  0  0
   25.0595  -22.0785  -10.6489 O   0  0  0  0  0  0  0  0  0  0  0  0
   27.1265  -21.0836  -10.7063 N   0  0  0  0  0  0  0  0  0  0  0  0
   27.1718  -21.0150   -9.2526 C   0  0  1  0  0  0  0  0  0  0  0  0
   28.3676  -20.2610   -8.7730 C   0  0  0  0  0  0  0  0  0  0  0  0
   28.3636  -20.1638   -7.2973 C   0  0  0  0  0  0  0  0  0  0  0  0
   27.8585  -19.0362   -6.6529 C   0  0  0  0  0  0  0  0  0  0  0  0
   27.8242  -18.9391   -5.2861 C   0  0  0  0  0  0  0  0  0  0  0  0
   28.2987  -19.9769   -4.5117 C   0  0  0  0  0  0  0  0  0  0  0  0
   28.7998  -21.0961   -5.1498 C   0  0  0  0  0  0  0  0  0  0  0  0
   28.8332  -21.1915   -6.5024 C   0  0  0  0  0  0  0  0  0  0  0  0
   25.9168  -20.4171   -8.7667 C   0  0  0  0  0  0  0  0  0  0  0  0
   25.4255  -19.3837   -9.2523 O   0  0  0  0  0  0  0  0  0  0  0  0
   25.2173  -21.0253   -7.7001 O   0  0  0  0  0  0  0  0  0  0  0  0
  2  1  1  0
  3  2  1  0
  4  5  1  0
  4  3  1  0
  5  6  1  6
  7  5  1  0
  7  8  2  0
  9  7  1  0
 10  9  1  0
 10 11  1  1
 12 11  1  0
 12 13  1  0
 13 14  1  0
 14 15  1  0
 16 18  1  0
 16 10  1  0
 17 16  2  0
 19 18  1  0
 19 27  1  0
 19 20  1  6
 21 20  1  0
 21 22  2  0
 23 22  1  0
 24 23  2  0
 25 26  2  0
 25 24  1  0
 26 21  1  0
 27 29  1  0
 28 27  2  0
M  END
$$$$
