MKF.pdb
     RDKit          3D

 29 29  0  0  1  0  0  0  0  0999 V2000
   27.2492  -14.8855  -18.3333 C   0  0  0  0  0  0  0  0  0  0  0  0
   26.2976  -15.7078  -17.0221 S   0  0  0  0  0  0  0  0  0  0  0  0
   27.3740  -16.1683  -15.6331 C   0  0  0  0  0  0  0  0  0  0  0  0
   26.5242  -16.8671  -14.5977 C   0  0  0  0  0  0  0  0  0  0  0  0
   27.3329  -18.0098  -14.0047 C   0  0  2  0  0  0  0  0  0  0  0  0
   27.6539  -18.9742  -15.0153 N   0  0  0  0  0  0  0  0  0  0  0  0
   26.5734  -18.6661  -12.9222 C   0  0  0  0  0  0  0  0  0  0  0  0
   25.9523  -18.0173  -12.0318 O   0  0  0  0  0  0  0  0  0  0  0  0
   26.5073  -20.0833  -12.8340 N   0  0  0  0  0  0  0  0  0  0  0  0
   25.8055  -20.7858  -11.7782 C   0  0  1  0  0  0  0  0  0  0  0  0
   25.7587  -22.2543  -12.2374 C   0  0  0  0  0  0  0  0  0  0  0  0
   24.7969  -22.4082  -13.3850 C   0  0  0  0  0  0  0  0  0  0  0  0
   24.7556  -23.8490  -13.8158 C   0  0  0  0  0  0  0  0  0  0  0  0
   23.7795  -24.0565  -14.9172 C   0  0  0  0  0  0  0  0  0  0  0  0
   23.7862  -25.4084  -15.4403 N   0  0  0  0  0  0  0  0  0  0  0  0
   26.6228  -20.7859  -10.5509 C   0  0  0  0  0  0  0  0  0  0  0  0
   27.7837  -21.2398  -10.5879 O   0  0  0  0  0  0  0  0  0  0  0  0
   26.1196  -20.2824   -9.3309 N   0  0  0  0  0  0  0  0  0  0  0  0
   26.8911  -20.5070   -8.1167 C   0  0  1  0  0  0  0  0  0  0  0  0
   27.4749  -19.2375   -7.5915 C   0  0  0  0  0  0  0  0  0  0  0  0
   28.1537  -19.4730   -6.2988 C   0  0  0  0  0  0  0  0  0  0  0  0
   27.8546  -18.6995   -5.1789 C   0  0  0  0  0  0  0  0  0  0  0  0
   28.4557  -18.9194   -3.9668 C   0  0  0  0  0  0  0  0  0  0  0  0
   29.3845  -19.9301   -3.8340 C   0  0  0  0  0  0  0  0  0  0  0  0
   29.6818  -20.6983   -4.9442 C   0  0  0  0  0  0  0  0  0  0  0  0
   29.0865  -20.4800   -6.1433 C   0  0  0  0  0  0  0  0  0  0  0  0
   26.0282  -21.1655   -7.1215 C   0  0  0  0  0  0  0  0  0  0  0  0
   26.4679  -21.6885   -6.0831 O   0  0  0  0  0  0  0  0  0  0  0  0
   24.6318  -21.2200   -7.3308 O   0  0  0  0  0  0  0  0  0  0  0  0
  2  1  1  0
  3  2  1  0
  4  5  1  0
  4  3  1  0
  5  6  1  6
  7  5  1  0
  7  8  2  0
  9  7  1  0
 10  9  1  0
 10 11  1  6
 12 11  1  0
 12 13  1  0
 13 14  1  0
 14 15  1  0
 16 18  1  0
 16 10  1  0
 17 16  2  0
 19 18  1  0
 19 27  1  0
 19 20  1  1
 21 20  1  0
 21 22  2  0
 23 22  1  0
 24 23  2  0
 25 26  2  0
 25 24  1  0
 26 21  1  0
 27 29  1  0
 28 27  2  0
M  END
$$$$
