MKF.pdb
     RDKit          3D

 29 29  0  0  1  0  0  0  0  0999 V2000
   26.8338  -20.1842   -7.2495 C   0  0  0  0  0  0  0  0  0  0  0  0
   28.3633  -21.1627   -7.3110 S   0  0  0  0  0  0  0  0  0  0  0  0
   28.7807  -21.6041   -9.0230 C   0  0  0  0  0  0  0  0  0  0  0  0
   27.7211  -21.0177   -9.9264 C   0  0  0  0  0  0  0  0  0  0  0  0
   28.0436  -21.4067  -11.3602 C   0  0  2  0  0  0  0  0  0  0  0  0
   29.3693  -20.9868  -11.7075 N   0  0  0  0  0  0  0  0  0  0  0  0
   27.0739  -20.7910  -12.2877 C   0  0  0  0  0  0  0  0  0  0  0  0
   27.0050  -19.5423  -12.4754 O   0  0  0  0  0  0  0  0  0  0  0  0
   26.1589  -21.5927  -13.0230 N   0  0  0  0  0  0  0  0  0  0  0  0
   25.1507  -21.0452  -13.9088 C   0  0  1  0  0  0  0  0  0  0  0  0
   25.0507  -22.0502  -15.0705 C   0  0  0  0  0  0  0  0  0  0  0  0
   24.1689  -21.4987  -16.1586 C   0  0  0  0  0  0  0  0  0  0  0  0
   23.0382  -22.4555  -16.4219 C   0  0  0  0  0  0  0  0  0  0  0  0
   22.1777  -21.9821  -17.5374 C   0  0  0  0  0  0  0  0  0  0  0  0
   21.1125  -22.9072  -17.8704 N   0  0  0  0  0  0  0  0  0  0  0  0
   23.8335  -21.0807  -13.2468 C   0  0  0  0  0  0  0  0  0  0  0  0
   23.4864  -22.1060  -12.6277 O   0  0  0  0  0  0  0  0  0  0  0  0
   22.9535  -19.9771  -13.2982 N   0  0  0  0  0  0  0  0  0  0  0  0
   21.6720  -20.0793  -12.6147 C   0  0  1  0  0  0  0  0  0  0  0  0
   21.2619  -18.7757  -12.0137 C   0  0  0  0  0  0  0  0  0  0  0  0
   19.8895  -18.8628  -11.4697 C   0  0  0  0  0  0  0  0  0  0  0  0
   18.7901  -18.4615  -12.2261 C   0  0  0  0  0  0  0  0  0  0  0  0
   17.5092  -18.5579  -11.7475 C   0  0  0  0  0  0  0  0  0  0  0  0
   17.2841  -19.0638  -10.4845 C   0  0  0  0  0  0  0  0  0  0  0  0
   18.3740  -19.4623   -9.7333 C   0  0  0  0  0  0  0  0  0  0  0  0
   19.6411  -19.3667  -10.2076 C   0  0  0  0  0  0  0  0  0  0  0  0
   20.6666  -20.5841  -13.5650 C   0  0  0  0  0  0  0  0  0  0  0  0
   19.8059  -21.4266  -13.2575 O   0  0  0  0  0  0  0  0  0  0  0  0
   20.6564  -20.1060  -14.8947 O   0  0  0  0  0  0  0  0  0  0  0  0
  2  1  1  0
  3  2  1  0
  4  5  1  0
  4  3  1  0
  5  6  1  6
  7  5  1  0
  7  8  2  0
  9  7  1  0
 10  9  1  0
 10 11  1  6
 12 11  1  0
 12 13  1  0
 13 14  1  0
 14 15  1  0
 16 18  1  0
 16 10  1  0
 17 16  2  0
 19 18  1  0
 19 27  1  0
 19 20  1  6
 21 20  1  0
 21 22  2  0
 23 22  1  0
 24 23  2  0
 25 26  2  0
 25 24  1  0
 26 21  1  0
 27 29  1  0
 28 27  2  0
M  END
$$$$
