MKF.pdb
     RDKit          3D

 29 29  0  0  1  0  0  0  0  0999 V2000
   31.2492  -14.9890  -17.1106 C   0  0  0  0  0  0  0  0  0  0  0  0
   31.2892  -15.9136  -18.6740 S   0  0  0  0  0  0  0  0  0  0  0  0
   29.6434  -16.5647  -19.0830 C   0  0  0  0  0  0  0  0  0  0  0  0
   28.7862  -16.4759  -17.8420 C   0  0  0  0  0  0  0  0  0  0  0  0
   28.3371  -17.8792  -17.4673 C   0  0  2  0  0  0  0  0  0  0  0  0
   27.6476  -18.4943  -18.5630 N   0  0  0  0  0  0  0  0  0  0  0  0
   27.4479  -17.8343  -16.2897 C   0  0  0  0  0  0  0  0  0  0  0  0
   27.7720  -17.2621  -15.2094 O   0  0  0  0  0  0  0  0  0  0  0  0
   26.1645  -18.4447  -16.3220 N   0  0  0  0  0  0  0  0  0  0  0  0
   25.2278  -18.3931  -15.2171 C   0  0  1  0  0  0  0  0  0  0  0  0
   23.8661  -18.0770  -15.8617 C   0  0  0  0  0  0  0  0  0  0  0  0
   24.0109  -16.9558  -16.8556 C   0  0  0  0  0  0  0  0  0  0  0  0
   22.6601  -16.6055  -17.4175 C   0  0  0  0  0  0  0  0  0  0  0  0
   22.7483  -16.2557  -18.8593 C   0  0  0  0  0  0  0  0  0  0  0  0
   21.4570  -15.9969  -19.4652 N   0  0  0  0  0  0  0  0  0  0  0  0
   25.0786  -19.7363  -14.6273 C   0  0  0  0  0  0  0  0  0  0  0  0
   25.1396  -20.7397  -15.3652 O   0  0  0  0  0  0  0  0  0  0  0  0
   24.8674  -19.9130  -13.2419 N   0  0  0  0  0  0  0  0  0  0  0  0
   24.7447  -21.2691  -12.7262 C   0  0  1  0  0  0  0  0  0  0  0  0
   25.9363  -21.6615  -11.9172 C   0  0  0  0  0  0  0  0  0  0  0  0
   26.0385  -20.8245  -10.7023 C   0  0  0  0  0  0  0  0  0  0  0  0
   26.4789  -19.5043  -10.7743 C   0  0  0  0  0  0  0  0  0  0  0  0
   26.5566  -18.7063   -9.6625 C   0  0  0  0  0  0  0  0  0  0  0  0
   26.1928  -19.2077   -8.4304 C   0  0  0  0  0  0  0  0  0  0  0  0
   25.7556  -20.5171   -8.3577 C   0  0  0  0  0  0  0  0  0  0  0  0
   25.6789  -21.3060   -9.4584 C   0  0  0  0  0  0  0  0  0  0  0  0
   23.4981  -21.3698  -11.9487 C   0  0  0  0  0  0  0  0  0  0  0  0
   23.0295  -22.4521  -11.5561 O   0  0  0  0  0  0  0  0  0  0  0  0
   22.7806  -20.1978  -11.6193 O   0  0  0  0  0  0  0  0  0  0  0  0
  2  1  1  0
  3  2  1  0
  4  5  1  0
  4  3  1  0
  5  6  1  6
  7  5  1  0
  7  8  2  0
  9  7  1  0
 10  9  1  0
 10 11  1  6
 12 11  1  0
 12 13  1  0
 13 14  1  0
 14 15  1  0
 16 18  1  0
 16 10  1  0
 17 16  2  0
 19 18  1  0
 19 27  1  0
 19 20  1  1
 21 20  1  0
 21 22  2  0
 23 22  1  0
 24 23  2  0
 25 26  2  0
 25 24  1  0
 26 21  1  0
 27 29  1  0
 28 27  2  0
M  END
$$$$
