MKF.pdb
     RDKit          3D

 29 29  0  0  1  0  0  0  0  0999 V2000
   20.1640  -30.9154  -13.3561 C   0  0  0  0  0  0  0  0  0  0  0  0
   21.2195  -30.4247  -14.7511 S   0  0  0  0  0  0  0  0  0  0  0  0
   22.6996  -31.4738  -14.8430 C   0  0  0  0  0  0  0  0  0  0  0  0
   22.6924  -32.3947  -13.6453 C   0  0  0  0  0  0  0  0  0  0  0  0
   23.9434  -33.2571  -13.6951 C   0  0  2  0  0  0  0  0  0  0  0  0
   23.8717  -34.1819  -14.7877 N   0  0  0  0  0  0  0  0  0  0  0  0
   24.1022  -34.0016  -12.4302 C   0  0  0  0  0  0  0  0  0  0  0  0
   23.3233  -34.9360  -12.0842 O   0  0  0  0  0  0  0  0  0  0  0  0
   25.1585  -33.6927  -11.5306 N   0  0  0  0  0  0  0  0  0  0  0  0
   25.3843  -34.4061  -10.2892 C   0  0  1  0  0  0  0  0  0  0  0  0
   26.5941  -35.3169  -10.5657 C   0  0  0  0  0  0  0  0  0  0  0  0
   26.1323  -36.7236  -10.8378 C   0  0  0  0  0  0  0  0  0  0  0  0
   27.3274  -37.6281  -10.9672 C   0  0  0  0  0  0  0  0  0  0  0  0
   28.0484  -37.3923  -12.2453 C   0  0  0  0  0  0  0  0  0  0  0  0
   29.1560  -38.3039  -12.4540 N   0  0  0  0  0  0  0  0  0  0  0  0
   25.8344  -33.4639   -9.2480 C   0  0  0  0  0  0  0  0  0  0  0  0
   26.3650  -32.3867   -9.5843 O   0  0  0  0  0  0  0  0  0  0  0  0
   25.6780  -33.7544   -7.8745 N   0  0  0  0  0  0  0  0  0  0  0  0
   26.1140  -32.7628   -6.9017 C   0  0  1  0  0  0  0  0  0  0  0  0
   25.2165  -31.5700   -6.8898 C   0  0  0  0  0  0  0  0  0  0  0  0
   23.8419  -31.9574   -6.5054 C   0  0  0  0  0  0  0  0  0  0  0  0
   22.8464  -32.1213   -7.4666 C   0  0  0  0  0  0  0  0  0  0  0  0
   21.5735  -32.5038   -7.1313 C   0  0  0  0  0  0  0  0  0  0  0  0
   21.2518  -32.7370   -5.8107 C   0  0  0  0  0  0  0  0  0  0  0  0
   22.2386  -32.5749   -4.8563 C   0  0  0  0  0  0  0  0  0  0  0  0
   23.4979  -32.1965   -5.1890 C   0  0  0  0  0  0  0  0  0  0  0  0
   26.1935  -33.4010   -5.5769 C   0  0  0  0  0  0  0  0  0  0  0  0
   26.5990  -32.8086   -4.5622 O   0  0  0  0  0  0  0  0  0  0  0  0
   25.7969  -34.7486   -5.4230 O   0  0  0  0  0  0  0  0  0  0  0  0
  2  1  1  0
  3  2  1  0
  4  5  1  0
  4  3  1  0
  5  6  1  6
  7  5  1  0
  7  8  2  0
  9  7  1  0
 10  9  1  0
 10 11  1  6
 12 11  1  0
 12 13  1  0
 13 14  1  0
 14 15  1  0
 16 18  1  0
 16 10  1  0
 17 16  2  0
 19 18  1  0
 19 27  1  0
 19 20  1  1
 21 20  1  0
 21 22  2  0
 23 22  1  0
 24 23  2  0
 25 26  2  0
 25 24  1  0
 26 21  1  0
 27 29  1  0
 28 27  2  0
M  END
$$$$
