MKF.pdb
     RDKit          3D

 29 29  0  0  1  0  0  0  0  0999 V2000
   25.8360  -14.3192  -16.3750 C   0  0  0  0  0  0  0  0  0  0  0  0
   27.5889  -14.7227  -16.1193 S   0  0  0  0  0  0  0  0  0  0  0  0
   28.0130  -16.2990  -16.9164 C   0  0  0  0  0  0  0  0  0  0  0  0
   26.7243  -16.9885  -17.2990 C   0  0  0  0  0  0  0  0  0  0  0  0
   26.5200  -18.1744  -16.3699 C   0  0  2  0  0  0  0  0  0  0  0  0
   27.5866  -19.1197  -16.5215 N   0  0  0  0  0  0  0  0  0  0  0  0
   25.2322  -18.8354  -16.6597 C   0  0  0  0  0  0  0  0  0  0  0  0
   24.6750  -18.7802  -17.7937 O   0  0  0  0  0  0  0  0  0  0  0  0
   24.5512  -19.5763  -15.6558 N   0  0  0  0  0  0  0  0  0  0  0  0
   23.3609  -20.3624  -15.9127 C   0  0  1  0  0  0  0  0  0  0  0  0
   23.5766  -21.6779  -15.1430 C   0  0  0  0  0  0  0  0  0  0  0  0
   23.8066  -22.8108  -16.1071 C   0  0  0  0  0  0  0  0  0  0  0  0
   25.1191  -23.4766  -15.7956 C   0  0  0  0  0  0  0  0  0  0  0  0
   25.4258  -24.5522  -16.7743 C   0  0  0  0  0  0  0  0  0  0  0  0
   26.7771  -25.0638  -16.6574 N   0  0  0  0  0  0  0  0  0  0  0  0
   22.1947  -19.7234  -15.2754 C   0  0  0  0  0  0  0  0  0  0  0  0
   22.3449  -19.1047  -14.2033 O   0  0  0  0  0  0  0  0  0  0  0  0
   20.9078  -19.7965  -15.8531 N   0  0  0  0  0  0  0  0  0  0  0  0
   19.8440  -18.9824  -15.2825 C   0  0  1  0  0  0  0  0  0  0  0  0
   19.7110  -17.6743  -15.9895 C   0  0  0  0  0  0  0  0  0  0  0  0
   19.5085  -17.8850  -17.4392 C   0  0  0  0  0  0  0  0  0  0  0  0
   20.5900  -17.9280  -18.3169 C   0  0  0  0  0  0  0  0  0  0  0  0
   20.4232  -18.1467  -19.6598 C   0  0  0  0  0  0  0  0  0  0  0  0
   19.1568  -18.3314  -20.1735 C   0  0  0  0  0  0  0  0  0  0  0  0
   18.0831  -18.2891  -19.3038 C   0  0  0  0  0  0  0  0  0  0  0  0
   18.2491  -18.0728  -17.9751 C   0  0  0  0  0  0  0  0  0  0  0  0
   18.5888  -19.7519  -15.3145 C   0  0  0  0  0  0  0  0  0  0  0  0
   18.4970  -20.8782  -15.8325 O   0  0  0  0  0  0  0  0  0  0  0  0
   17.4189  -19.2092  -14.7370 O   0  0  0  0  0  0  0  0  0  0  0  0
  2  1  1  0
  3  2  1  0
  4  5  1  0
  4  3  1  0
  5  6  1  6
  7  5  1  0
  7  8  2  0
  9  7  1  0
 10  9  1  0
 10 11  1  1
 12 11  1  0
 12 13  1  0
 13 14  1  0
 14 15  1  0
 16 18  1  0
 16 10  1  0
 17 16  2  0
 19 18  1  0
 19 27  1  0
 19 20  1  6
 21 20  1  0
 21 22  2  0
 23 22  1  0
 24 23  2  0
 25 26  2  0
 25 24  1  0
 26 21  1  0
 27 29  1  0
 28 27  2  0
M  END
$$$$
