MKF.pdb
     RDKit          3D

 29 29  0  0  1  0  0  0  0  0999 V2000
   27.9673  -12.0138  -15.8264 C   0  0  0  0  0  0  0  0  0  0  0  0
   27.4585  -13.5038  -14.9200 S   0  0  0  0  0  0  0  0  0  0  0  0
   26.0353  -14.2960  -15.7243 C   0  0  0  0  0  0  0  0  0  0  0  0
   25.0561  -13.2122  -16.1104 C   0  0  0  0  0  0  0  0  0  0  0  0
   23.9421  -13.8418  -16.9313 C   0  0  2  0  0  0  0  0  0  0  0  0
   24.4640  -14.3876  -18.1495 N   0  0  0  0  0  0  0  0  0  0  0  0
   22.9079  -12.8364  -17.2461 C   0  0  0  0  0  0  0  0  0  0  0  0
   23.0897  -11.9080  -18.0854 O   0  0  0  0  0  0  0  0  0  0  0  0
   21.6393  -12.8710  -16.6059 N   0  0  0  0  0  0  0  0  0  0  0  0
   20.5760  -11.9275  -16.8890 C   0  0  1  0  0  0  0  0  0  0  0  0
   19.2932  -12.6040  -16.3732 C   0  0  0  0  0  0  0  0  0  0  0  0
   18.3019  -12.7594  -17.4953 C   0  0  0  0  0  0  0  0  0  0  0  0
   17.0657  -13.4458  -16.9818 C   0  0  0  0  0  0  0  0  0  0  0  0
   16.0519  -13.6094  -18.0562 C   0  0  0  0  0  0  0  0  0  0  0  0
   14.9532  -14.4765  -17.6789 N   0  0  0  0  0  0  0  0  0  0  0  0
   20.7444  -10.7224  -16.0561 C   0  0  0  0  0  0  0  0  0  0  0  0
   21.3605  -10.8059  -14.9752 O   0  0  0  0  0  0  0  0  0  0  0  0
   20.2223   -9.4722  -16.4555 N   0  0  0  0  0  0  0  0  0  0  0  0
   20.4768   -8.3127  -15.6125 C   0  0  1  0  0  0  0  0  0  0  0  0
   21.9388   -8.0868  -15.4122 C   0  0  0  0  0  0  0  0  0  0  0  0
   22.1846   -6.7417  -14.8486 C   0  0  0  0  0  0  0  0  0  0  0  0
   22.7645   -5.7352  -15.6185 C   0  0  0  0  0  0  0  0  0  0  0  0
   22.9772   -4.4759  -15.1206 C   0  0  0  0  0  0  0  0  0  0  0  0
   22.6134   -4.1795  -13.8238 C   0  0  0  0  0  0  0  0  0  0  0  0
   22.0379   -5.1771  -13.0592 C   0  0  0  0  0  0  0  0  0  0  0  0
   21.8276   -6.4229  -13.5527 C   0  0  0  0  0  0  0  0  0  0  0  0
   19.8183   -7.1386  -16.2094 C   0  0  0  0  0  0  0  0  0  0  0  0
   19.7411   -6.9553  -17.4364 O   0  0  0  0  0  0  0  0  0  0  0  0
   19.2387   -6.1588  -15.3722 O   0  0  0  0  0  0  0  0  0  0  0  0
  2  1  1  0
  3  2  1  0
  4  5  1  0
  4  3  1  0
  5  6  1  6
  7  5  1  0
  7  8  2  0
  9  7  1  0
 10  9  1  0
 10 11  1  1
 12 11  1  0
 12 13  1  0
 13 14  1  0
 14 15  1  0
 16 18  1  0
 16 10  1  0
 17 16  2  0
 19 18  1  0
 19 27  1  0
 19 20  1  6
 21 20  1  0
 21 22  2  0
 23 22  1  0
 24 23  2  0
 25 26  2  0
 25 24  1  0
 26 21  1  0
 27 29  1  0
 28 27  2  0
M  END
$$$$
