MKF.pdb
     RDKit          3D

 29 29  0  0  1  0  0  0  0  0999 V2000
   28.1393  -15.0306  -15.9681 C   0  0  0  0  0  0  0  0  0  0  0  0
   28.9343  -16.3935  -16.8689 S   0  0  0  0  0  0  0  0  0  0  0  0
   28.1264  -17.9763  -16.4922 C   0  0  0  0  0  0  0  0  0  0  0  0
   27.4127  -17.8311  -15.1685 C   0  0  0  0  0  0  0  0  0  0  0  0
   27.8322  -18.9820  -14.2681 C   0  0  2  0  0  0  0  0  0  0  0  0
   27.7196  -20.2299  -14.9641 N   0  0  0  0  0  0  0  0  0  0  0  0
   26.9893  -19.0170  -13.0565 C   0  0  0  0  0  0  0  0  0  0  0  0
   26.7641  -17.9924  -12.3502 O   0  0  0  0  0  0  0  0  0  0  0  0
   26.3837  -20.2284  -12.6249 N   0  0  0  0  0  0  0  0  0  0  0  0
   25.5208  -20.3203  -11.4640 C   0  0  1  0  0  0  0  0  0  0  0  0
   24.5540  -21.4772  -11.7749 C   0  0  0  0  0  0  0  0  0  0  0  0
   23.4681  -21.0091  -12.7063 C   0  0  0  0  0  0  0  0  0  0  0  0
   22.5435  -22.1548  -13.0155 C   0  0  0  0  0  0  0  0  0  0  0  0
   21.5225  -21.7688  -14.0243 C   0  0  0  0  0  0  0  0  0  0  0  0
   20.5486  -22.8116  -14.2804 N   0  0  0  0  0  0  0  0  0  0  0  0
   26.3025  -20.7674  -10.2963 C   0  0  0  0  0  0  0  0  0  0  0  0
   27.4789  -21.1489  -10.4561 O   0  0  0  0  0  0  0  0  0  0  0  0
   25.7477  -20.7736   -8.9973 N   0  0  0  0  0  0  0  0  0  0  0  0
   26.6508  -20.8479   -7.8576 C   0  0  1  0  0  0  0  0  0  0  0  0
   27.5973  -19.6939   -7.8277 C   0  0  0  0  0  0  0  0  0  0  0  0
   28.3449  -19.6675   -6.5520 C   0  0  0  0  0  0  0  0  0  0  0  0
   29.5283  -20.3870   -6.3977 C   0  0  0  0  0  0  0  0  0  0  0  0
   30.2472  -20.3549   -5.2311 C   0  0  0  0  0  0  0  0  0  0  0  0
   29.8016  -19.5945   -4.1704 C   0  0  0  0  0  0  0  0  0  0  0  0
   28.6279  -18.8801   -4.3223 C   0  0  0  0  0  0  0  0  0  0  0  0
   27.9172  -18.9124   -5.4771 C   0  0  0  0  0  0  0  0  0  0  0  0
   25.8514  -20.9322   -6.6237 C   0  0  0  0  0  0  0  0  0  0  0  0
   24.7351  -20.3992   -6.5013 O   0  0  0  0  0  0  0  0  0  0  0  0
   26.3519  -21.6458   -5.5115 O   0  0  0  0  0  0  0  0  0  0  0  0
  2  1  1  0
  3  2  1  0
  4  5  1  0
  4  3  1  0
  5  6  1  6
  7  5  1  0
  7  8  2  0
  9  7  1  0
 10  9  1  0
 10 11  1  6
 12 11  1  0
 12 13  1  0
 13 14  1  0
 14 15  1  0
 16 18  1  0
 16 10  1  0
 17 16  2  0
 19 18  1  0
 19 27  1  0
 19 20  1  1
 21 20  1  0
 21 22  2  0
 23 22  1  0
 24 23  2  0
 25 26  2  0
 25 24  1  0
 26 21  1  0
 27 29  1  0
 28 27  2  0
M  END
$$$$
