MKF.pdb
     RDKit          3D

 29 29  0  0  1  0  0  0  0  0999 V2000
   18.0686  -17.4278  -15.7170 C   0  0  0  0  0  0  0  0  0  0  0  0
   18.4990  -16.5960  -17.2738 S   0  0  0  0  0  0  0  0  0  0  0  0
   19.1226  -17.7888  -18.4938 C   0  0  0  0  0  0  0  0  0  0  0  0
   19.8369  -18.8897  -17.7453 C   0  0  0  0  0  0  0  0  0  0  0  0
   21.3187  -18.5534  -17.6954 C   0  0  2  0  0  0  0  0  0  0  0  0
   21.8615  -18.4823  -19.0200 N   0  0  0  0  0  0  0  0  0  0  0  0
   22.0491  -19.5745  -16.9187 C   0  0  0  0  0  0  0  0  0  0  0  0
   21.4633  -20.4532  -16.2230 O   0  0  0  0  0  0  0  0  0  0  0  0
   23.4700  -19.6131  -16.9208 N   0  0  0  0  0  0  0  0  0  0  0  0
   24.2448  -20.5414  -16.1215 C   0  0  1  0  0  0  0  0  0  0  0  0
   25.5868  -20.6833  -16.8619 C   0  0  0  0  0  0  0  0  0  0  0  0
   26.4995  -21.6126  -16.1073 C   0  0  0  0  0  0  0  0  0  0  0  0
   27.7928  -21.7669  -16.8600 C   0  0  0  0  0  0  0  0  0  0  0  0
   28.6624  -22.7978  -16.2354 C   0  0  0  0  0  0  0  0  0  0  0  0
   29.8837  -23.0418  -16.9772 N   0  0  0  0  0  0  0  0  0  0  0  0
   24.5775  -19.9246  -14.8241 C   0  0  0  0  0  0  0  0  0  0  0  0
   24.2696  -18.7345  -14.6145 O   0  0  0  0  0  0  0  0  0  0  0  0
   25.2389  -20.6528  -13.8105 N   0  0  0  0  0  0  0  0  0  0  0  0
   24.8618  -20.4124  -12.4249 C   0  0  1  0  0  0  0  0  0  0  0  0
   23.4127  -20.6855  -12.1924 C   0  0  0  0  0  0  0  0  0  0  0  0
   23.0726  -20.5076  -10.7641 C   0  0  0  0  0  0  0  0  0  0  0  0
   23.6775  -21.2860   -9.7792 C   0  0  0  0  0  0  0  0  0  0  0  0
   23.3929  -21.1184   -8.4489 C   0  0  0  0  0  0  0  0  0  0  0  0
   22.4852  -20.1572   -8.0565 C   0  0  0  0  0  0  0  0  0  0  0  0
   21.8847  -19.3842   -9.0326 C   0  0  0  0  0  0  0  0  0  0  0  0
   22.1669  -19.5507  -10.3488 C   0  0  0  0  0  0  0  0  0  0  0  0
   25.7198  -21.2302  -11.5510 C   0  0  0  0  0  0  0  0  0  0  0  0
   25.8709  -22.4546  -11.7027 O   0  0  0  0  0  0  0  0  0  0  0  0
   26.4157  -20.6209  -10.4827 O   0  0  0  0  0  0  0  0  0  0  0  0
  2  1  1  0
  3  2  1  0
  4  5  1  0
  4  3  1  0
  5  6  1  6
  7  5  1  0
  7  8  2  0
  9  7  1  0
 10  9  1  0
 10 11  1  6
 12 11  1  0
 12 13  1  0
 13 14  1  0
 14 15  1  0
 16 18  1  0
 16 10  1  0
 17 16  2  0
 19 18  1  0
 19 27  1  0
 19 20  1  6
 21 20  1  0
 21 22  2  0
 23 22  1  0
 24 23  2  0
 25 26  2  0
 25 24  1  0
 26 21  1  0
 27 29  1  0
 28 27  2  0
M  END
$$$$
