MKF.pdb
     RDKit          3D

 29 29  0  0  1  0  0  0  0  0999 V2000
   17.7173  -19.0857  -13.4383 C   0  0  0  0  0  0  0  0  0  0  0  0
   18.3028  -19.6175  -15.0739 S   0  0  0  0  0  0  0  0  0  0  0  0
   20.1090  -19.8109  -15.0832 C   0  0  0  0  0  0  0  0  0  0  0  0
   20.6847  -18.8552  -14.0645 C   0  0  0  0  0  0  0  0  0  0  0  0
   22.2011  -18.9079  -14.1599 C   0  0  2  0  0  0  0  0  0  0  0  0
   22.6078  -19.2686  -15.4860 N   0  0  0  0  0  0  0  0  0  0  0  0
   22.7404  -19.8878  -13.1964 C   0  0  0  0  0  0  0  0  0  0  0  0
   22.0011  -20.5842  -12.4428 O   0  0  0  0  0  0  0  0  0  0  0  0
   24.1416  -20.0934  -13.0734 N   0  0  0  0  0  0  0  0  0  0  0  0
   24.7271  -21.1276  -12.2437 C   0  0  1  0  0  0  0  0  0  0  0  0
   25.6717  -21.9037  -13.1790 C   0  0  0  0  0  0  0  0  0  0  0  0
   24.9673  -23.1078  -13.7445 C   0  0  0  0  0  0  0  0  0  0  0  0
   25.8557  -23.7807  -14.7549 C   0  0  0  0  0  0  0  0  0  0  0  0
   25.1648  -24.9240  -15.4065 C   0  0  0  0  0  0  0  0  0  0  0  0
   25.9177  -25.4967  -16.5049 N   0  0  0  0  0  0  0  0  0  0  0  0
   25.6010  -20.5149  -11.2262 C   0  0  0  0  0  0  0  0  0  0  0  0
   26.1418  -19.4168  -11.4641 O   0  0  0  0  0  0  0  0  0  0  0  0
   25.8403  -21.1451   -9.9850 N   0  0  0  0  0  0  0  0  0  0  0  0
   26.7750  -20.5214   -9.0591 C   0  0  1  0  0  0  0  0  0  0  0  0
   26.2248  -20.4682   -7.6723 C   0  0  0  0  0  0  0  0  0  0  0  0
   27.2337  -19.9326   -6.7329 C   0  0  0  0  0  0  0  0  0  0  0  0
   27.4091  -18.5594   -6.5732 C   0  0  0  0  0  0  0  0  0  0  0  0
   28.3220  -18.0450   -5.6894 C   0  0  0  0  0  0  0  0  0  0  0  0
   29.0966  -18.8957   -4.9291 C   0  0  0  0  0  0  0  0  0  0  0  0
   28.9233  -20.2581   -5.0865 C   0  0  0  0  0  0  0  0  0  0  0  0
   28.0197  -20.7663   -5.9612 C   0  0  0  0  0  0  0  0  0  0  0  0
   28.0536  -21.2500   -9.1130 C   0  0  0  0  0  0  0  0  0  0  0  0
   28.1273  -22.4773   -9.2959 O   0  0  0  0  0  0  0  0  0  0  0  0
   29.2686  -20.5467   -8.9526 O   0  0  0  0  0  0  0  0  0  0  0  0
  2  1  1  0
  3  2  1  0
  4  5  1  0
  4  3  1  0
  5  6  1  6
  7  5  1  0
  7  8  2  0
  9  7  1  0
 10  9  1  0
 10 11  1  6
 12 11  1  0
 12 13  1  0
 13 14  1  0
 14 15  1  0
 16 18  1  0
 16 10  1  0
 17 16  2  0
 19 18  1  0
 19 27  1  0
 19 20  1  1
 21 20  1  0
 21 22  2  0
 23 22  1  0
 24 23  2  0
 25 26  2  0
 25 24  1  0
 26 21  1  0
 27 29  1  0
 28 27  2  0
M  END
$$$$
