MKF.pdb
     RDKit          3D

 29 29  0  0  1  0  0  0  0  0999 V2000
   23.8962  -11.5765  -22.6310 C   0  0  0  0  0  0  0  0  0  0  0  0
   22.4437  -10.6990  -23.2799 S   0  0  0  0  0  0  0  0  0  0  0  0
   21.3132  -10.2365  -21.9353 C   0  0  0  0  0  0  0  0  0  0  0  0
   21.7387   -8.8838  -21.4141 C   0  0  0  0  0  0  0  0  0  0  0  0
   22.4227   -9.0804  -20.0706 C   0  0  2  0  0  0  0  0  0  0  0  0
   22.5219  -10.4756  -19.7579 N   0  0  0  0  0  0  0  0  0  0  0  0
   21.6674   -8.3903  -19.0063 C   0  0  0  0  0  0  0  0  0  0  0  0
   21.4377   -7.1468  -19.0268 O   0  0  0  0  0  0  0  0  0  0  0  0
   21.1566   -9.1096  -17.8917 N   0  0  0  0  0  0  0  0  0  0  0  0
   20.4510   -8.4824  -16.7919 C   0  0  1  0  0  0  0  0  0  0  0  0
   19.7479   -9.6379  -16.0570 C   0  0  0  0  0  0  0  0  0  0  0  0
   18.3561   -9.2271  -15.6568 C   0  0  0  0  0  0  0  0  0  0  0  0
   17.6405  -10.4029  -15.0499 C   0  0  0  0  0  0  0  0  0  0  0  0
   16.2847  -10.0239  -14.5733 C   0  0  0  0  0  0  0  0  0  0  0  0
   15.4892  -11.1591  -14.1492 N   0  0  0  0  0  0  0  0  0  0  0  0
   21.4207   -7.9364  -15.8245 C   0  0  0  0  0  0  0  0  0  0  0  0
   22.5677   -8.4221  -15.7662 O   0  0  0  0  0  0  0  0  0  0  0  0
   21.0791   -6.8730  -14.9598 N   0  0  0  0  0  0  0  0  0  0  0  0
   22.1284   -6.2769  -14.1452 C   0  0  1  0  0  0  0  0  0  0  0  0
   23.2214   -5.7049  -14.9858 C   0  0  0  0  0  0  0  0  0  0  0  0
   22.7167   -4.5761  -15.7972 C   0  0  0  0  0  0  0  0  0  0  0  0
   22.3187   -4.7632  -17.1195 C   0  0  0  0  0  0  0  0  0  0  0  0
   21.8256   -3.7339  -17.8787 C   0  0  0  0  0  0  0  0  0  0  0  0
   21.7134   -2.4717  -17.3347 C   0  0  0  0  0  0  0  0  0  0  0  0
   22.1078   -2.2848  -16.0230 C   0  0  0  0  0  0  0  0  0  0  0  0
   22.5955   -3.3039  -15.2724 C   0  0  0  0  0  0  0  0  0  0  0  0
   21.5263   -5.2612  -13.2651 C   0  0  0  0  0  0  0  0  0  0  0  0
   22.1936   -4.5514  -12.4932 O   0  0  0  0  0  0  0  0  0  0  0  0
   20.1272   -5.0629  -13.2781 O   0  0  0  0  0  0  0  0  0  0  0  0
  2  1  1  0
  3  2  1  0
  4  5  1  0
  4  3  1  0
  5  6  1  1
  7  5  1  0
  7  8  2  0
  9  7  1  0
 10  9  1  0
 10 11  1  1
 12 11  1  0
 12 13  1  0
 13 14  1  0
 14 15  1  0
 16 18  1  0
 16 10  1  0
 17 16  2  0
 19 18  1  0
 19 27  1  0
 19 20  1  6
 21 20  1  0
 21 22  2  0
 23 22  1  0
 24 23  2  0
 25 26  2  0
 25 24  1  0
 26 21  1  0
 27 29  1  0
 28 27  2  0
M  END
$$$$
