MKF.pdb
     RDKit          3D

 29 29  0  0  1  0  0  0  0  0999 V2000
   31.6636  -24.3304  -14.9946 C   0  0  0  0  0  0  0  0  0  0  0  0
   31.4145  -24.6232  -16.7703 S   0  0  0  0  0  0  0  0  0  0  0  0
   30.3737  -23.3256  -17.5002 C   0  0  0  0  0  0  0  0  0  0  0  0
   29.1091  -23.2266  -16.6794 C   0  0  0  0  0  0  0  0  0  0  0  0
   28.2590  -22.0985  -17.2415 C   0  0  2  0  0  0  0  0  0  0  0  0
   29.0306  -21.2870  -18.1361 N   0  0  0  0  0  0  0  0  0  0  0  0
   27.7332  -21.2598  -16.1463 C   0  0  0  0  0  0  0  0  0  0  0  0
   28.4283  -20.3760  -15.5674 O   0  0  0  0  0  0  0  0  0  0  0  0
   26.3966  -21.4140  -15.6876 N   0  0  0  0  0  0  0  0  0  0  0  0
   25.8035  -20.5805  -14.6608 C   0  0  1  0  0  0  0  0  0  0  0  0
   24.3484  -20.3631  -15.1132 C   0  0  0  0  0  0  0  0  0  0  0  0
   23.6165  -19.5092  -14.1126 C   0  0  0  0  0  0  0  0  0  0  0  0
   22.1868  -19.3387  -14.5485 C   0  0  0  0  0  0  0  0  0  0  0  0
   21.4838  -18.3291  -13.7146 C   0  0  0  0  0  0  0  0  0  0  0  0
   20.1370  -18.0476  -14.1711 N   0  0  0  0  0  0  0  0  0  0  0  0
   25.7114  -21.3357  -13.3977 C   0  0  0  0  0  0  0  0  0  0  0  0
   25.3799  -22.5375  -13.4251 O   0  0  0  0  0  0  0  0  0  0  0  0
   25.9907  -20.7273  -12.1538 N   0  0  0  0  0  0  0  0  0  0  0  0
   25.7307  -21.4841  -10.9375 C   0  0  1  0  0  0  0  0  0  0  0  0
   26.9815  -21.7227  -10.1583 C   0  0  0  0  0  0  0  0  0  0  0  0
   27.1687  -20.6671   -9.1395 C   0  0  0  0  0  0  0  0  0  0  0  0
   27.6402  -19.4040   -9.4920 C   0  0  0  0  0  0  0  0  0  0  0  0
   27.7966  -18.4061   -8.5653 C   0  0  0  0  0  0  0  0  0  0  0  0
   27.4835  -18.6414   -7.2431 C   0  0  0  0  0  0  0  0  0  0  0  0
   27.0156  -19.8940   -6.8923 C   0  0  0  0  0  0  0  0  0  0  0  0
   26.8609  -20.8808   -7.8099 C   0  0  0  0  0  0  0  0  0  0  0  0
   24.7181  -20.7698  -10.1418 C   0  0  0  0  0  0  0  0  0  0  0  0
   24.3837  -19.5942  -10.3679 O   0  0  0  0  0  0  0  0  0  0  0  0
   24.0808  -21.4270   -9.0653 O   0  0  0  0  0  0  0  0  0  0  0  0
  2  1  1  0
  3  2  1  0
  4  5  1  0
  4  3  1  0
  5  6  1  6
  7  5  1  0
  7  8  2  0
  9  7  1  0
 10  9  1  0
 10 11  1  6
 12 11  1  0
 12 13  1  0
 13 14  1  0
 14 15  1  0
 16 18  1  0
 16 10  1  0
 17 16  2  0
 19 18  1  0
 19 27  1  0
 19 20  1  1
 21 20  1  0
 21 22  2  0
 23 22  1  0
 24 23  2  0
 25 26  2  0
 25 24  1  0
 26 21  1  0
 27 29  1  0
 28 27  2  0
M  END
$$$$
