CKR.pdb
     RDKit          3D

 27 26  0  0  1  0  0  0  0  0999 V2000
    8.4837  -14.7866   18.3548 N   0  0  0  0  0  0  0  0  0  0  0  0
    7.5709  -15.1960   19.4110 C   0  0  1  0  0  0  0  0  0  0  0  0
    7.5071  -16.7078   19.3988 C   0  0  0  0  0  0  0  0  0  0  0  0
    6.9290  -17.3426   17.8062 S   0  0  0  0  0  0  0  0  0  0  0  0
    8.1125  -14.8037   20.7522 C   0  0  0  0  0  0  0  0  0  0  0  0
    9.3423  -14.8968   20.9973 O   0  0  0  0  0  0  0  0  0  0  0  0
    7.2824  -14.3151   21.7989 N   0  0  0  0  0  0  0  0  0  0  0  0
    7.8326  -14.0180   23.1272 C   0  0  1  0  0  0  0  0  0  0  0  0
    6.7584  -13.2758   23.8671 C   0  0  0  0  0  0  0  0  0  0  0  0
    7.1413  -12.8356   25.2407 C   0  0  0  0  0  0  0  0  0  0  0  0
    6.0610  -12.0108   25.8844 C   0  0  0  0  0  0  0  0  0  0  0  0
    6.4290  -11.5095   27.2550 C   0  0  0  0  0  0  0  0  0  0  0  0
    5.3807  -10.6245   27.7826 N   0  0  0  0  0  0  0  0  0  0  0  0
    8.2464  -15.2909   23.7987 C   0  0  0  0  0  0  0  0  0  0  0  0
    7.4522  -16.2525   23.8822 O   0  0  0  0  0  0  0  0  0  0  0  0
   15.3758  -19.4986   23.3864 N   0  0  0  0  0  0  0  0  0  0  0  0
   14.4989  -20.5293   23.8104 C   0  0  0  0  0  0  0  0  0  0  0  0
   15.0069  -21.6210   24.2573 N   0  0  0  0  0  0  0  0  0  0  0  0
   13.0908  -20.3986   23.7587 N   0  0  0  0  0  0  0  0  0  0  0  0
   12.4267  -19.2043   23.2910 C   0  0  0  0  0  0  0  0  0  0  0  0
   12.1556  -18.2191   24.4370 C   0  0  0  0  0  0  0  0  0  0  0  0
   11.4389  -16.9936   23.9684 C   0  0  0  0  0  0  0  0  0  0  0  0
   10.2052  -16.6129   24.7466 C   0  0  2  0  0  0  0  0  0  0  0  0
    9.5393  -15.4309   24.3501 N   0  0  0  0  0  0  0  0  0  0  0  0
   10.4457  -16.7901   26.1731 C   0  0  0  0  0  0  0  0  0  0  0  0
   10.0684  -15.8296   27.1182 O   0  0  0  0  0  0  0  0  0  0  0  0
   11.0078  -17.8248   26.6126 O   0  0  0  0  0  0  0  0  0  0  0  0
  2  1  1  6
  3  4  1  0
  3  2  1  0
  5  2  1  0
  5  6  2  0
  7  5  1  0
  8  7  1  0
  8  9  1  1
 10  9  1  0
 11 12  1  0
 11 10  1  0
 13 12  1  0
 14  8  1  0
 15 14  2  0
 17 19  1  0
 17 16  1  0
 18 17  2  0
 20 19  1  0
 21 20  1  0
 21 22  1  0
 23 22  1  6
 23 24  1  0
 24 14  1  0
 25 26  1  0
 25 23  1  0
 27 25  2  0
M  END
$$$$
