CKR.pdb
     RDKit          3D

 27 26  0  0  1  0  0  0  0  0999 V2000
    7.2338  -14.1625   17.9204 N   0  0  0  0  0  0  0  0  0  0  0  0
    8.5093  -14.0319   18.6079 C   0  0  1  0  0  0  0  0  0  0  0  0
    8.4682  -12.7473   19.4064 C   0  0  0  0  0  0  0  0  0  0  0  0
    8.6328  -11.2913   18.3451 S   0  0  0  0  0  0  0  0  0  0  0  0
    8.6864  -15.1431   19.5978 C   0  0  0  0  0  0  0  0  0  0  0  0
    7.7294  -15.5083   20.3272 O   0  0  0  0  0  0  0  0  0  0  0  0
    9.9207  -15.8305   19.7629 N   0  0  0  0  0  0  0  0  0  0  0  0
   10.0475  -16.9445   20.7106 C   0  0  1  0  0  0  0  0  0  0  0  0
   10.8654  -17.9929   20.0150 C   0  0  0  0  0  0  0  0  0  0  0  0
   11.1465  -19.2071   20.8359 C   0  0  0  0  0  0  0  0  0  0  0  0
   11.9849  -20.2060   20.0869 C   0  0  0  0  0  0  0  0  0  0  0  0
   12.1153  -21.5273   20.7957 C   0  0  0  0  0  0  0  0  0  0  0  0
   12.9993  -22.4325   20.0478 N   0  0  0  0  0  0  0  0  0  0  0  0
   10.6657  -16.4562   21.9842 C   0  0  0  0  0  0  0  0  0  0  0  0
   11.6857  -15.7340   21.9592 O   0  0  0  0  0  0  0  0  0  0  0  0
   10.5193  -16.2523   29.8903 N   0  0  0  0  0  0  0  0  0  0  0  0
   10.3360  -14.8676   29.6448 C   0  0  0  0  0  0  0  0  0  0  0  0
   11.2079  -14.0432   30.1028 N   0  0  0  0  0  0  0  0  0  0  0  0
    9.2318  -14.3643   28.9168 N   0  0  0  0  0  0  0  0  0  0  0  0
    8.7599  -14.9599   27.6886 C   0  0  0  0  0  0  0  0  0  0  0  0
    9.9218  -15.4312   26.8025 C   0  0  0  0  0  0  0  0  0  0  0  0
    9.4537  -15.8997   25.4621 C   0  0  0  0  0  0  0  0  0  0  0  0
   10.5256  -16.3966   24.5259 C   0  0  2  0  0  0  0  0  0  0  0  0
   10.1105  -16.8006   23.2365 N   0  0  0  0  0  0  0  0  0  0  0  0
   11.4311  -17.2885   25.2391 C   0  0  0  0  0  0  0  0  0  0  0  0
   12.6355  -16.8412   25.7938 O   0  0  0  0  0  0  0  0  0  0  0  0
   11.1606  -18.5073   25.3841 O   0  0  0  0  0  0  0  0  0  0  0  0
  2  1  1  1
  3  4  1  0
  3  2  1  0
  5  2  1  0
  5  6  2  0
  7  5  1  0
  8  7  1  0
  8  9  1  6
 10  9  1  0
 11 12  1  0
 11 10  1  0
 13 12  1  0
 14  8  1  0
 15 14  2  0
 17 19  1  0
 17 16  1  0
 18 17  2  0
 20 19  1  0
 21 20  1  0
 21 22  1  0
 23 22  1  1
 23 24  1  0
 24 14  1  0
 25 26  1  0
 25 23  1  0
 27 25  2  0
M  END
$$$$
