CKR.pdb
     RDKit          3D

 27 26  0  0  1  0  0  0  0  0999 V2000
    6.0670  -13.7922   18.4579 N   0  0  0  0  0  0  0  0  0  0  0  0
    7.5167  -13.7359   18.5656 C   0  0  1  0  0  0  0  0  0  0  0  0
    7.8682  -12.4927   19.3533 C   0  0  0  0  0  0  0  0  0  0  0  0
    9.6426  -12.3916   19.6920 S   0  0  0  0  0  0  0  0  0  0  0  0
    8.0283  -14.9006   19.3579 C   0  0  0  0  0  0  0  0  0  0  0  0
    7.4709  -15.2363   20.4339 O   0  0  0  0  0  0  0  0  0  0  0  0
    9.1487  -15.6734   18.9446 N   0  0  0  0  0  0  0  0  0  0  0  0
    9.5759  -16.8557   19.7030 C   0  0  1  0  0  0  0  0  0  0  0  0
   10.1602  -17.8063   18.6996 C   0  0  0  0  0  0  0  0  0  0  0  0
   10.2426  -19.2231   19.1611 C   0  0  0  0  0  0  0  0  0  0  0  0
    8.8793  -19.8322   19.3408 C   0  0  0  0  0  0  0  0  0  0  0  0
    8.9205  -21.2935   19.6988 C   0  0  0  0  0  0  0  0  0  0  0  0
    7.5603  -21.8278   19.8561 N   0  0  0  0  0  0  0  0  0  0  0  0
   10.5442  -16.4482   20.7702 C   0  0  0  0  0  0  0  0  0  0  0  0
   11.3072  -15.4733   20.5972 O   0  0  0  0  0  0  0  0  0  0  0  0
   10.0559  -19.6501   28.9527 N   0  0  0  0  0  0  0  0  0  0  0  0
   11.3631  -19.7215   28.4074 C   0  0  0  0  0  0  0  0  0  0  0  0
   12.2501  -20.4108   29.0300 N   0  0  0  0  0  0  0  0  0  0  0  0
   11.7234  -19.0633   27.2076 N   0  0  0  0  0  0  0  0  0  0  0  0
   11.3433  -17.7019   26.9107 C   0  0  0  0  0  0  0  0  0  0  0  0
   11.9378  -17.2238   25.5783 C   0  0  0  0  0  0  0  0  0  0  0  0
   10.9837  -17.3993   24.4407 C   0  0  0  0  0  0  0  0  0  0  0  0
   11.4687  -16.9257   23.0942 C   0  0  2  0  0  0  0  0  0  0  0  0
   10.6153  -17.1553   21.9910 N   0  0  0  0  0  0  0  0  0  0  0  0
   12.8749  -17.2694   22.9257 C   0  0  0  0  0  0  0  0  0  0  0  0
   13.3112  -18.1667   21.9445 O   0  0  0  0  0  0  0  0  0  0  0  0
   13.7586  -16.7665   23.6644 O   0  0  0  0  0  0  0  0  0  0  0  0
  2  1  1  1
  3  4  1  0
  3  2  1  0
  5  2  1  0
  5  6  2  0
  7  5  1  0
  8  7  1  0
  8  9  1  6
 10  9  1  0
 11 12  1  0
 11 10  1  0
 13 12  1  0
 14  8  1  0
 15 14  2  0
 17 19  1  0
 17 16  1  0
 18 17  2  0
 20 19  1  0
 21 20  1  0
 21 22  1  0
 23 22  1  1
 23 24  1  0
 24 14  1  0
 25 26  1  0
 25 23  1  0
 27 25  2  0
M  END
$$$$
