CKR.pdb
     RDKit          3D

 27 26  0  0  1  0  0  0  0  0999 V2000
    8.5603  -18.8653   16.5932 N   0  0  0  0  0  0  0  0  0  0  0  0
    9.8970  -18.6473   17.1244 C   0  0  1  0  0  0  0  0  0  0  0  0
   10.2927  -17.2244   16.7955 C   0  0  0  0  0  0  0  0  0  0  0  0
    9.1246  -16.0264   17.4839 S   0  0  0  0  0  0  0  0  0  0  0  0
    9.8897  -18.7523   18.6194 C   0  0  0  0  0  0  0  0  0  0  0  0
    8.8357  -18.5366   19.2704 O   0  0  0  0  0  0  0  0  0  0  0  0
   11.0501  -19.0943   19.3675 N   0  0  0  0  0  0  0  0  0  0  0  0
   10.9837  -19.2963   20.8202 C   0  0  1  0  0  0  0  0  0  0  0  0
   12.1445  -20.1798   21.1721 C   0  0  0  0  0  0  0  0  0  0  0  0
   12.1772  -20.6243   22.5963 C   0  0  0  0  0  0  0  0  0  0  0  0
   13.3664  -21.4999   22.8811 C   0  0  0  0  0  0  0  0  0  0  0  0
   13.4289  -21.9771   24.3071 C   0  0  0  0  0  0  0  0  0  0  0  0
   14.5293  -22.9348   24.4862 N   0  0  0  0  0  0  0  0  0  0  0  0
   11.0129  -17.9706   21.5162 C   0  0  0  0  0  0  0  0  0  0  0  0
   11.6783  -17.0217   21.0478 O   0  0  0  0  0  0  0  0  0  0  0  0
    6.5718  -13.5754   18.9161 N   0  0  0  0  0  0  0  0  0  0  0  0
    7.8824  -13.0866   19.1494 C   0  0  0  0  0  0  0  0  0  0  0  0
    8.5669  -12.6654   18.1475 N   0  0  0  0  0  0  0  0  0  0  0  0
    8.4602  -13.0465   20.4405 N   0  0  0  0  0  0  0  0  0  0  0  0
    8.1197  -13.9831   21.4859 C   0  0  0  0  0  0  0  0  0  0  0  0
    9.3717  -14.5546   22.1666 C   0  0  0  0  0  0  0  0  0  0  0  0
    9.0398  -15.6536   23.1243 C   0  0  0  0  0  0  0  0  0  0  0  0
   10.1719  -16.5837   23.4789 C   0  0  2  0  0  0  0  0  0  0  0  0
   10.2913  -17.7657   22.7130 N   0  0  0  0  0  0  0  0  0  0  0  0
   10.2643  -16.7214   24.9269 C   0  0  0  0  0  0  0  0  0  0  0  0
   10.7480  -15.6940   25.7446 O   0  0  0  0  0  0  0  0  0  0  0  0
    9.9086  -17.7809   25.5017 O   0  0  0  0  0  0  0  0  0  0  0  0
  2  1  1  1
  3  4  1  0
  3  2  1  0
  5  2  1  0
  5  6  2  0
  7  5  1  0
  8  7  1  0
  8  9  1  1
 10  9  1  0
 11 12  1  0
 11 10  1  0
 13 12  1  0
 14  8  1  0
 15 14  2  0
 17 19  1  0
 17 16  1  0
 18 17  2  0
 20 19  1  0
 21 20  1  0
 21 22  1  0
 23 22  1  1
 23 24  1  0
 24 14  1  0
 25 26  1  0
 25 23  1  0
 27 25  2  0
M  END
$$$$
