CKR.pdb
     RDKit          3D

 27 26  0  0  1  0  0  0  0  0999 V2000
    8.1617  -13.2376   17.5021 N   0  0  0  0  0  0  0  0  0  0  0  0
    9.2554  -14.1035   17.9148 C   0  0  1  0  0  0  0  0  0  0  0  0
   10.4144  -13.2164   18.3141 C   0  0  0  0  0  0  0  0  0  0  0  0
   11.3646  -12.6654   16.8764 S   0  0  0  0  0  0  0  0  0  0  0  0
    8.8741  -14.8817   19.1376 C   0  0  0  0  0  0  0  0  0  0  0  0
    8.2056  -14.3425   20.0560 O   0  0  0  0  0  0  0  0  0  0  0  0
    9.2399  -16.2439   19.3218 N   0  0  0  0  0  0  0  0  0  0  0  0
    8.8262  -16.9849   20.5198 C   0  0  1  0  0  0  0  0  0  0  0  0
    8.6888  -18.4182   20.0970 C   0  0  0  0  0  0  0  0  0  0  0  0
    8.4291  -19.3730   21.2142 C   0  0  0  0  0  0  0  0  0  0  0  0
    8.4001  -20.7984   20.7355 C   0  0  0  0  0  0  0  0  0  0  0  0
    8.0416  -21.7839   21.8151 C   0  0  0  0  0  0  0  0  0  0  0  0
    8.2448  -23.1625   21.3478 N   0  0  0  0  0  0  0  0  0  0  0  0
    9.8304  -16.7807   21.6118 C   0  0  0  0  0  0  0  0  0  0  0  0
   11.0495  -16.9498   21.3935 O   0  0  0  0  0  0  0  0  0  0  0  0
   12.0843  -16.0228   28.6988 N   0  0  0  0  0  0  0  0  0  0  0  0
   10.8111  -16.1238   29.3150 C   0  0  0  0  0  0  0  0  0  0  0  0
   10.6924  -16.8617   30.3596 N   0  0  0  0  0  0  0  0  0  0  0  0
    9.6720  -15.4439   28.8224 N   0  0  0  0  0  0  0  0  0  0  0  0
    9.6802  -14.6757   27.5994 C   0  0  0  0  0  0  0  0  0  0  0  0
   10.4120  -15.4140   26.4695 C   0  0  0  0  0  0  0  0  0  0  0  0
    9.5669  -15.5460   25.2433 C   0  0  0  0  0  0  0  0  0  0  0  0
   10.2088  -16.2452   24.0721 C   0  0  2  0  0  0  0  0  0  0  0  0
    9.4218  -16.3939   22.9074 N   0  0  0  0  0  0  0  0  0  0  0  0
   10.9343  -17.4214   24.5350 C   0  0  0  0  0  0  0  0  0  0  0  0
   12.2058  -17.3341   25.1128 O   0  0  0  0  0  0  0  0  0  0  0  0
   10.4388  -18.5718   24.4309 O   0  0  0  0  0  0  0  0  0  0  0  0
  2  1  1  1
  3  4  1  0
  3  2  1  0
  5  2  1  0
  5  6  2  0
  7  5  1  0
  8  7  1  0
  8  9  1  6
 10  9  1  0
 11 12  1  0
 11 10  1  0
 13 12  1  0
 14  8  1  0
 15 14  2  0
 17 19  1  0
 17 16  1  0
 18 17  2  0
 20 19  1  0
 21 20  1  0
 21 22  1  0
 23 22  1  1
 23 24  1  0
 24 14  1  0
 25 26  1  0
 25 23  1  0
 27 25  2  0
M  END
$$$$
