CKR.pdb
     RDKit          3D

 27 26  0  0  1  0  0  0  0  0999 V2000
    5.3191  -14.0183   26.5229 N   0  0  0  0  0  0  0  0  0  0  0  0
    6.2537  -13.1861   25.7808 C   0  0  1  0  0  0  0  0  0  0  0  0
    7.3848  -12.8225   26.7179 C   0  0  0  0  0  0  0  0  0  0  0  0
    6.8831  -11.5674   27.9206 S   0  0  0  0  0  0  0  0  0  0  0  0
    6.8665  -13.9630   24.6553 C   0  0  0  0  0  0  0  0  0  0  0  0
    7.2336  -15.1536   24.8255 O   0  0  0  0  0  0  0  0  0  0  0  0
    7.0622  -13.4076   23.3605 N   0  0  0  0  0  0  0  0  0  0  0  0
    7.6874  -14.1894   22.2864 C   0  0  1  0  0  0  0  0  0  0  0  0
    7.5244  -13.3808   21.0328 C   0  0  0  0  0  0  0  0  0  0  0  0
    8.0010  -14.0577   19.7911 C   0  0  0  0  0  0  0  0  0  0  0  0
    7.7737  -13.2094   18.5701 C   0  0  0  0  0  0  0  0  0  0  0  0
    8.2088  -13.8740   17.2917 C   0  0  0  0  0  0  0  0  0  0  0  0
    7.9384  -13.0054   16.1372 N   0  0  0  0  0  0  0  0  0  0  0  0
    9.1173  -14.4690   22.6321 C   0  0  0  0  0  0  0  0  0  0  0  0
    9.6809  -13.8455   23.5574 O   0  0  0  0  0  0  0  0  0  0  0  0
   13.0525  -19.8932   25.2464 N   0  0  0  0  0  0  0  0  0  0  0  0
   12.2048  -19.8422   26.3821 C   0  0  0  0  0  0  0  0  0  0  0  0
   12.6463  -20.3010   27.4976 N   0  0  0  0  0  0  0  0  0  0  0  0
   10.8961  -19.3066   26.3305 N   0  0  0  0  0  0  0  0  0  0  0  0
   10.1042  -19.2755   25.1231 C   0  0  0  0  0  0  0  0  0  0  0  0
   10.8114  -18.5047   23.9993 C   0  0  0  0  0  0  0  0  0  0  0  0
   10.0236  -17.3164   23.5492 C   0  0  0  0  0  0  0  0  0  0  0  0
   10.6319  -16.5062   22.4329 C   0  0  2  0  0  0  0  0  0  0  0  0
    9.8569  -15.4404   21.9216 N   0  0  0  0  0  0  0  0  0  0  0  0
   11.2586  -17.3939   21.4617 C   0  0  0  0  0  0  0  0  0  0  0  0
   10.5131  -18.1293   20.5334 O   0  0  0  0  0  0  0  0  0  0  0  0
   12.5069  -17.5336   21.4215 O   0  0  0  0  0  0  0  0  0  0  0  0
  2  1  1  1
  3  4  1  0
  3  2  1  0
  5  2  1  0
  5  6  2  0
  7  5  1  0
  8  7  1  0
  8  9  1  6
 10  9  1  0
 11 12  1  0
 11 10  1  0
 13 12  1  0
 14  8  1  0
 15 14  2  0
 17 19  1  0
 17 16  1  0
 18 17  2  0
 20 19  1  0
 21 20  1  0
 21 22  1  0
 23 22  1  1
 23 24  1  0
 24 14  1  0
 25 26  1  0
 25 23  1  0
 27 25  2  0
M  END
$$$$
