CKR.pdb
     RDKit          3D

 27 26  0  0  1  0  0  0  0  0999 V2000
    9.6308  -15.7655   17.9651 N   0  0  0  0  0  0  0  0  0  0  0  0
    8.8248  -16.4349   18.9744 C   0  0  1  0  0  0  0  0  0  0  0  0
    9.2150  -17.8969   18.9745 C   0  0  0  0  0  0  0  0  0  0  0  0
    8.1107  -18.8867   17.9380 S   0  0  0  0  0  0  0  0  0  0  0  0
    9.1505  -15.9073   20.3388 C   0  0  0  0  0  0  0  0  0  0  0  0
   10.3459  -15.7976   20.7134 O   0  0  0  0  0  0  0  0  0  0  0  0
    8.1464  -15.5105   21.2649 N   0  0  0  0  0  0  0  0  0  0  0  0
    8.5013  -14.9683   22.5823 C   0  0  1  0  0  0  0  0  0  0  0  0
    7.2537  -14.3322   23.1214 C   0  0  0  0  0  0  0  0  0  0  0  0
    7.4082  -13.7044   24.4665 C   0  0  0  0  0  0  0  0  0  0  0  0
    6.1049  -13.1582   24.9811 C   0  0  0  0  0  0  0  0  0  0  0  0
    6.2181  -12.5257   26.3421 C   0  0  0  0  0  0  0  0  0  0  0  0
    6.5181  -11.0917   26.2246 N   0  0  0  0  0  0  0  0  0  0  0  0
    9.0339  -16.0644   23.4526 C   0  0  0  0  0  0  0  0  0  0  0  0
    8.4430  -17.1637   23.5229 O   0  0  0  0  0  0  0  0  0  0  0  0
   10.3166  -17.7135   30.4548 N   0  0  0  0  0  0  0  0  0  0  0  0
   11.1180  -16.5585   30.2677 C   0  0  0  0  0  0  0  0  0  0  0  0
   10.6151  -15.4111   30.5508 N   0  0  0  0  0  0  0  0  0  0  0  0
   12.4457  -16.6249   29.7827 N   0  0  0  0  0  0  0  0  0  0  0  0
   12.8272  -16.1721   28.4653 C   0  0  0  0  0  0  0  0  0  0  0  0
   12.0941  -16.9496   27.3628 C   0  0  0  0  0  0  0  0  0  0  0  0
   11.5001  -16.0422   26.3337 C   0  0  0  0  0  0  0  0  0  0  0  0
   10.7586  -16.7174   25.2082 C   0  0  2  0  0  0  0  0  0  0  0  0
   10.2116  -15.8792   24.2102 N   0  0  0  0  0  0  0  0  0  0  0  0
    9.8937  -17.7621   25.7419 C   0  0  0  0  0  0  0  0  0  0  0  0
    8.5637  -17.5178   26.1019 O   0  0  0  0  0  0  0  0  0  0  0  0
   10.3156  -18.9353   25.9005 O   0  0  0  0  0  0  0  0  0  0  0  0
  2  1  1  6
  3  4  1  0
  3  2  1  0
  5  2  1  0
  5  6  2  0
  7  5  1  0
  8  7  1  0
  8  9  1  1
 10  9  1  0
 11 12  1  0
 11 10  1  0
 13 12  1  0
 14  8  1  0
 15 14  2  0
 17 19  1  0
 17 16  1  0
 18 17  2  0
 20 19  1  0
 21 20  1  0
 21 22  1  0
 23 22  1  1
 23 24  1  0
 24 14  1  0
 25 26  1  0
 25 23  1  0
 27 25  2  0
M  END
$$$$
