CKR.pdb
     RDKit          3D

 27 26  0  0  1  0  0  0  0  0999 V2000
    7.8781  -14.9582   16.7660 N   0  0  0  0  0  0  0  0  0  0  0  0
    8.8861  -14.7400   17.7922 C   0  0  1  0  0  0  0  0  0  0  0  0
    8.5771  -13.4190   18.4621 C   0  0  0  0  0  0  0  0  0  0  0  0
    8.8964  -12.0177   17.3630 S   0  0  0  0  0  0  0  0  0  0  0  0
    8.7858  -15.7906   18.8562 C   0  0  0  0  0  0  0  0  0  0  0  0
    7.6639  -16.2245   19.2227 O   0  0  0  0  0  0  0  0  0  0  0  0
    9.9301  -16.3425   19.4960 N   0  0  0  0  0  0  0  0  0  0  0  0
    9.7950  -17.3581   20.5476 C   0  0  1  0  0  0  0  0  0  0  0  0
   10.8074  -18.4205   20.2340 C   0  0  0  0  0  0  0  0  0  0  0  0
   10.2324  -19.6834   19.6849 C   0  0  0  0  0  0  0  0  0  0  0  0
   11.3056  -20.6568   19.2816 C   0  0  0  0  0  0  0  0  0  0  0  0
   10.7669  -21.9103   18.6463 C   0  0  0  0  0  0  0  0  0  0  0  0
   11.8626  -22.8197   18.2821 N   0  0  0  0  0  0  0  0  0  0  0  0
    9.9940  -16.7246   21.8899 C   0  0  0  0  0  0  0  0  0  0  0  0
   11.1220  -16.3126   22.2370 O   0  0  0  0  0  0  0  0  0  0  0  0
    4.6005  -11.3883   26.6432 N   0  0  0  0  0  0  0  0  0  0  0  0
    5.7969  -11.6102   27.3716 C   0  0  0  0  0  0  0  0  0  0  0  0
    6.0588  -10.8437   28.3683 N   0  0  0  0  0  0  0  0  0  0  0  0
    6.7082  -12.6409   27.0408 N   0  0  0  0  0  0  0  0  0  0  0  0
    6.6238  -13.4053   25.8182 C   0  0  0  0  0  0  0  0  0  0  0  0
    7.7065  -14.4919   25.7516 C   0  0  0  0  0  0  0  0  0  0  0  0
    7.6350  -15.2811   24.4838 C   0  0  0  0  0  0  0  0  0  0  0  0
    8.9061  -15.9760   24.0669 C   0  0  2  0  0  0  0  0  0  0  0  0
    8.9143  -16.5801   22.7890 N   0  0  0  0  0  0  0  0  0  0  0  0
    9.4245  -16.7668   25.1759 C   0  0  0  0  0  0  0  0  0  0  0  0
   10.2563  -16.2183   26.1585 O   0  0  0  0  0  0  0  0  0  0  0  0
    9.1403  -17.9855   25.2922 O   0  0  0  0  0  0  0  0  0  0  0  0
  2  1  1  6
  3  4  1  0
  3  2  1  0
  5  2  1  0
  5  6  2  0
  7  5  1  0
  8  7  1  0
  8  9  1  6
 10  9  1  0
 11 12  1  0
 11 10  1  0
 13 12  1  0
 14  8  1  0
 15 14  2  0
 17 19  1  0
 17 16  1  0
 18 17  2  0
 20 19  1  0
 21 20  1  0
 21 22  1  0
 23 22  1  1
 23 24  1  0
 24 14  1  0
 25 26  1  0
 25 23  1  0
 27 25  2  0
M  END
$$$$
