CKR.pdb
     RDKit          3D

 27 26  0  0  1  0  0  0  0  0999 V2000
    5.1919  -14.2692   26.4683 N   0  0  0  0  0  0  0  0  0  0  0  0
    6.0052  -13.2908   25.7628 C   0  0  1  0  0  0  0  0  0  0  0  0
    7.0360  -12.7654   26.7381 C   0  0  0  0  0  0  0  0  0  0  0  0
    7.6999  -11.1653   26.2162 S   0  0  0  0  0  0  0  0  0  0  0  0
    6.7665  -13.9469   24.6511 C   0  0  0  0  0  0  0  0  0  0  0  0
    7.2887  -15.0790   24.8149 O   0  0  0  0  0  0  0  0  0  0  0  0
    6.9363  -13.3375   23.3771 N   0  0  0  0  0  0  0  0  0  0  0  0
    7.6648  -14.0204   22.3008 C   0  0  1  0  0  0  0  0  0  0  0  0
    7.7435  -13.0429   21.1649 C   0  0  0  0  0  0  0  0  0  0  0  0
    8.5703  -13.4992   20.0092 C   0  0  0  0  0  0  0  0  0  0  0  0
    7.7204  -14.0486   18.8967 C   0  0  0  0  0  0  0  0  0  0  0  0
    8.5221  -14.5763   17.7374 C   0  0  0  0  0  0  0  0  0  0  0  0
    7.6376  -14.9747   16.6333 N   0  0  0  0  0  0  0  0  0  0  0  0
    9.0061  -14.4615   22.7998 C   0  0  0  0  0  0  0  0  0  0  0  0
    9.7694  -13.6524   23.3700 O   0  0  0  0  0  0  0  0  0  0  0  0
   12.3096  -17.1245   28.5035 N   0  0  0  0  0  0  0  0  0  0  0  0
   11.0448  -16.4834   28.4801 C   0  0  0  0  0  0  0  0  0  0  0  0
   10.5206  -16.1210   29.5953 N   0  0  0  0  0  0  0  0  0  0  0  0
   10.3431  -16.2300   27.2778 N   0  0  0  0  0  0  0  0  0  0  0  0
   11.0026  -15.9297   26.0284 C   0  0  0  0  0  0  0  0  0  0  0  0
   11.4366  -17.2061   25.2938 C   0  0  0  0  0  0  0  0  0  0  0  0
   10.6190  -17.4554   24.0671 C   0  0  0  0  0  0  0  0  0  0  0  0
   10.6674  -16.3794   23.0125 C   0  0  2  0  0  0  0  0  0  0  0  0
    9.4353  -15.7973   22.6368 N   0  0  0  0  0  0  0  0  0  0  0  0
   11.5648  -16.7809   21.9366 C   0  0  0  0  0  0  0  0  0  0  0  0
   12.9505  -16.8635   22.1127 O   0  0  0  0  0  0  0  0  0  0  0  0
   11.1218  -17.0713   20.7968 O   0  0  0  0  0  0  0  0  0  0  0  0
  2  1  1  1
  3  4  1  0
  3  2  1  0
  5  2  1  0
  5  6  2  0
  7  5  1  0
  8  7  1  0
  8  9  1  6
 10  9  1  0
 11 12  1  0
 11 10  1  0
 13 12  1  0
 14  8  1  0
 15 14  2  0
 17 19  1  0
 17 16  1  0
 18 17  2  0
 20 19  1  0
 21 20  1  0
 21 22  1  0
 23 22  1  6
 23 24  1  0
 24 14  1  0
 25 26  1  0
 25 23  1  0
 27 25  2  0
M  END
$$$$
