CKR.pdb
     RDKit          3D

 27 26  0  0  1  0  0  0  0  0999 V2000
    5.0632  -19.9225   20.8583 N   0  0  0  0  0  0  0  0  0  0  0  0
    4.9191  -18.7881   21.7577 C   0  0  1  0  0  0  0  0  0  0  0  0
    5.0951  -19.3004   23.1706 C   0  0  0  0  0  0  0  0  0  0  0  0
    4.9689  -17.9683   24.3884 S   0  0  0  0  0  0  0  0  0  0  0  0
    6.0159  -17.7936   21.5257 C   0  0  0  0  0  0  0  0  0  0  0  0
    7.2089  -18.1733   21.4077 O   0  0  0  0  0  0  0  0  0  0  0  0
    5.7724  -16.3955   21.4286 N   0  0  0  0  0  0  0  0  0  0  0  0
    6.8771  -15.4430   21.2619 C   0  0  1  0  0  0  0  0  0  0  0  0
    6.2418  -14.1094   20.9981 C   0  0  0  0  0  0  0  0  0  0  0  0
    7.1963  -13.0362   20.5926 C   0  0  0  0  0  0  0  0  0  0  0  0
    7.9005  -13.3715   19.3067 C   0  0  0  0  0  0  0  0  0  0  0  0
    8.8288  -12.2855   18.8334 C   0  0  0  0  0  0  0  0  0  0  0  0
    9.4299  -12.6435   17.5408 N   0  0  0  0  0  0  0  0  0  0  0  0
    7.7447  -15.4574   22.4824 C   0  0  0  0  0  0  0  0  0  0  0  0
    7.2434  -15.3256   23.6198 O   0  0  0  0  0  0  0  0  0  0  0  0
   13.0391  -20.5005   28.1638 N   0  0  0  0  0  0  0  0  0  0  0  0
   11.7846  -19.8694   27.9663 C   0  0  0  0  0  0  0  0  0  0  0  0
   10.7409  -20.4023   28.4922 N   0  0  0  0  0  0  0  0  0  0  0  0
   11.6422  -18.6793   27.2141 N   0  0  0  0  0  0  0  0  0  0  0  0
   10.7183  -18.5495   26.1116 C   0  0  0  0  0  0  0  0  0  0  0  0
   10.9159  -17.2268   25.3574 C   0  0  0  0  0  0  0  0  0  0  0  0
    9.9442  -17.0696   24.2322 C   0  0  0  0  0  0  0  0  0  0  0  0
   10.0906  -15.8183   23.4043 C   0  0  2  0  0  0  0  0  0  0  0  0
    9.1437  -15.6197   22.3738 N   0  0  0  0  0  0  0  0  0  0  0  0
   11.4925  -15.6116   23.0634 C   0  0  0  0  0  0  0  0  0  0  0  0
   11.9083  -15.3226   21.7589 O   0  0  0  0  0  0  0  0  0  0  0  0
   12.3908  -15.6863   23.9392 O   0  0  0  0  0  0  0  0  0  0  0  0
  2  1  1  6
  3  4  1  0
  3  2  1  0
  5  2  1  0
  5  6  2  0
  7  5  1  0
  8  7  1  0
  8  9  1  1
 10  9  1  0
 11 12  1  0
 11 10  1  0
 13 12  1  0
 14  8  1  0
 15 14  2  0
 17 19  1  0
 17 16  1  0
 18 17  2  0
 20 19  1  0
 21 20  1  0
 21 22  1  0
 23 22  1  6
 23 24  1  0
 24 14  1  0
 25 26  1  0
 25 23  1  0
 27 25  2  0
M  END
$$$$
