CKR.pdb
     RDKit          3D

 27 26  0  0  1  0  0  0  0  0999 V2000
    7.0009  -13.3157   18.4791 N   0  0  0  0  0  0  0  0  0  0  0  0
    8.3179  -13.9134   18.6363 C   0  0  1  0  0  0  0  0  0  0  0  0
    9.2512  -12.8351   19.1421 C   0  0  0  0  0  0  0  0  0  0  0  0
    9.9275  -11.8432   17.7885 S   0  0  0  0  0  0  0  0  0  0  0  0
    8.2871  -14.9783   19.6903 C   0  0  0  0  0  0  0  0  0  0  0  0
    7.6182  -14.8171   20.7428 O   0  0  0  0  0  0  0  0  0  0  0  0
    8.9978  -16.2036   19.5603 N   0  0  0  0  0  0  0  0  0  0  0  0
    8.8872  -17.2562   20.5778 C   0  0  1  0  0  0  0  0  0  0  0  0
    9.1986  -18.5468   19.8783 C   0  0  0  0  0  0  0  0  0  0  0  0
    9.2627  -19.7388   20.7741 C   0  0  0  0  0  0  0  0  0  0  0  0
    9.4315  -21.0143   19.9954 C   0  0  0  0  0  0  0  0  0  0  0  0
    9.5084  -22.2397   20.8658 C   0  0  0  0  0  0  0  0  0  0  0  0
    9.6179  -23.4537   20.0445 N   0  0  0  0  0  0  0  0  0  0  0  0
    9.8137  -16.9579   21.7157 C   0  0  0  0  0  0  0  0  0  0  0  0
   10.9254  -16.4258   21.5071 O   0  0  0  0  0  0  0  0  0  0  0  0
   10.4230  -16.2074   29.5862 N   0  0  0  0  0  0  0  0  0  0  0  0
   10.1016  -14.8262   29.5833 C   0  0  0  0  0  0  0  0  0  0  0  0
    9.9335  -14.2336   30.7104 N   0  0  0  0  0  0  0  0  0  0  0  0
    9.9601  -14.0811   28.3887 N   0  0  0  0  0  0  0  0  0  0  0  0
    9.2214  -14.5601   27.2437 C   0  0  0  0  0  0  0  0  0  0  0  0
   10.0484  -15.5457   26.4058 C   0  0  0  0  0  0  0  0  0  0  0  0
    9.3625  -15.9129   25.1291 C   0  0  0  0  0  0  0  0  0  0  0  0
   10.0935  -16.8916   24.2457 C   0  0  2  0  0  0  0  0  0  0  0  0
    9.4517  -17.2707   23.0447 N   0  0  0  0  0  0  0  0  0  0  0  0
   10.6642  -17.9596   25.0566 C   0  0  0  0  0  0  0  0  0  0  0  0
   11.8881  -17.8196   25.7204 O   0  0  0  0  0  0  0  0  0  0  0  0
   10.0711  -19.0595   25.1912 O   0  0  0  0  0  0  0  0  0  0  0  0
  2  1  1  1
  3  4  1  0
  3  2  1  0
  5  2  1  0
  5  6  2  0
  7  5  1  0
  8  7  1  0
  8  9  1  6
 10  9  1  0
 11 12  1  0
 11 10  1  0
 13 12  1  0
 14  8  1  0
 15 14  2  0
 17 19  1  0
 17 16  1  0
 18 17  2  0
 20 19  1  0
 21 20  1  0
 21 22  1  0
 23 22  1  1
 23 24  1  0
 24 14  1  0
 25 26  1  0
 25 23  1  0
 27 25  2  0
M  END
$$$$
