CKR.pdb
     RDKit          3D

 27 26  0  0  1  0  0  0  0  0999 V2000
    7.2007  -13.0135   18.2211 N   0  0  0  0  0  0  0  0  0  0  0  0
    8.2596  -14.0052   18.3305 C   0  0  1  0  0  0  0  0  0  0  0  0
    9.5566  -13.2637   18.5701 C   0  0  0  0  0  0  0  0  0  0  0  0
    9.4218  -12.1044   19.9526 S   0  0  0  0  0  0  0  0  0  0  0  0
    8.0392  -14.8760   19.5301 C   0  0  0  0  0  0  0  0  0  0  0  0
    7.3213  -14.4809   20.4839 O   0  0  0  0  0  0  0  0  0  0  0  0
    8.6179  -16.1696   19.6525 N   0  0  0  0  0  0  0  0  0  0  0  0
    8.2969  -17.0394   20.7909 C   0  0  1  0  0  0  0  0  0  0  0  0
    8.5565  -18.4435   20.3292 C   0  0  0  0  0  0  0  0  0  0  0  0
    7.5496  -18.9762   19.3651 C   0  0  0  0  0  0  0  0  0  0  0  0
    7.9390  -20.3317   18.8426 C   0  0  0  0  0  0  0  0  0  0  0  0
    6.9354  -20.9130   17.8834 C   0  0  0  0  0  0  0  0  0  0  0  0
    7.4422  -22.1610   17.2952 N   0  0  0  0  0  0  0  0  0  0  0  0
    9.1193  -16.6420   21.9776 C   0  0  0  0  0  0  0  0  0  0  0  0
   10.3559  -16.4932   21.8726 O   0  0  0  0  0  0  0  0  0  0  0  0
    5.3624  -12.8580   26.5638 N   0  0  0  0  0  0  0  0  0  0  0  0
    6.5219  -12.0476   26.4631 C   0  0  0  0  0  0  0  0  0  0  0  0
    6.4074  -10.8746   25.9526 N   0  0  0  0  0  0  0  0  0  0  0  0
    7.7944  -12.4833   26.9027 N   0  0  0  0  0  0  0  0  0  0  0  0
    8.0290  -13.7940   27.4621 C   0  0  0  0  0  0  0  0  0  0  0  0
    8.9686  -14.6285   26.5799 C   0  0  0  0  0  0  0  0  0  0  0  0
    8.2785  -15.1545   25.3624 C   0  0  0  0  0  0  0  0  0  0  0  0
    9.1194  -16.0020   24.4421 C   0  0  2  0  0  0  0  0  0  0  0  0
    8.5162  -16.4279   23.2369 N   0  0  0  0  0  0  0  0  0  0  0  0
    9.8377  -17.0080   25.2142 C   0  0  0  0  0  0  0  0  0  0  0  0
   10.9831  -16.7009   25.9570 O   0  0  0  0  0  0  0  0  0  0  0  0
    9.4501  -18.2033   25.2416 O   0  0  0  0  0  0  0  0  0  0  0  0
  2  1  1  1
  3  4  1  0
  3  2  1  0
  5  2  1  0
  5  6  2  0
  7  5  1  0
  8  7  1  0
  8  9  1  6
 10  9  1  0
 11 12  1  0
 11 10  1  0
 13 12  1  0
 14  8  1  0
 15 14  2  0
 17 19  1  0
 17 16  1  0
 18 17  2  0
 20 19  1  0
 21 20  1  0
 21 22  1  0
 23 22  1  1
 23 24  1  0
 24 14  1  0
 25 26  1  0
 25 23  1  0
 27 25  2  0
M  END
$$$$
