CKR.pdb
     RDKit          3D

 27 26  0  0  1  0  0  0  0  0999 V2000
    6.7184  -13.7355   17.8048 N   0  0  0  0  0  0  0  0  0  0  0  0
    7.8314  -13.4783   18.7057 C   0  0  1  0  0  0  0  0  0  0  0  0
    7.2576  -12.9413   19.9987 C   0  0  0  0  0  0  0  0  0  0  0  0
    8.5044  -12.8688   21.3078 S   0  0  0  0  0  0  0  0  0  0  0  0
    8.5326  -14.7574   19.0499 C   0  0  0  0  0  0  0  0  0  0  0  0
    7.8805  -15.7585   19.4421 O   0  0  0  0  0  0  0  0  0  0  0  0
    9.9440  -14.9054   18.9538 N   0  0  0  0  0  0  0  0  0  0  0  0
   10.5894  -16.2005   19.2022 C   0  0  1  0  0  0  0  0  0  0  0  0
   11.4876  -16.4512   18.0264 C   0  0  0  0  0  0  0  0  0  0  0  0
   12.1791  -17.7736   18.0442 C   0  0  0  0  0  0  0  0  0  0  0  0
   13.0097  -17.9864   16.8086 C   0  0  0  0  0  0  0  0  0  0  0  0
   13.7029  -19.3219   16.7776 C   0  0  0  0  0  0  0  0  0  0  0  0
   14.3798  -19.5255   15.4889 N   0  0  0  0  0  0  0  0  0  0  0  0
   11.3188  -16.1586   20.5094 C   0  0  0  0  0  0  0  0  0  0  0  0
   12.1477  -15.2534   20.7458 O   0  0  0  0  0  0  0  0  0  0  0  0
   10.6253  -19.8103   28.1463 N   0  0  0  0  0  0  0  0  0  0  0  0
   11.9920  -20.1158   27.9227 C   0  0  0  0  0  0  0  0  0  0  0  0
   12.7878  -20.1387   28.9306 N   0  0  0  0  0  0  0  0  0  0  0  0
   12.5078  -20.3949   26.6349 N   0  0  0  0  0  0  0  0  0  0  0  0
   11.7594  -20.1702   25.4203 C   0  0  0  0  0  0  0  0  0  0  0  0
   12.2806  -18.9490   24.6494 C   0  0  0  0  0  0  0  0  0  0  0  0
   11.4773  -18.6751   23.4186 C   0  0  0  0  0  0  0  0  0  0  0  0
   11.8693  -17.4488   22.6344 C   0  0  2  0  0  0  0  0  0  0  0  0
   11.0858  -17.1387   21.4996 N   0  0  0  0  0  0  0  0  0  0  0  0
   13.3169  -17.4083   22.4701 C   0  0  0  0  0  0  0  0  0  0  0  0
   13.9690  -18.0822   21.4315 O   0  0  0  0  0  0  0  0  0  0  0  0
   14.0420  -16.7587   23.2650 O   0  0  0  0  0  0  0  0  0  0  0  0
  2  1  1  6
  3  4  1  0
  3  2  1  0
  5  2  1  0
  5  6  2  0
  7  5  1  0
  8  7  1  0
  8  9  1  6
 10  9  1  0
 11 12  1  0
 11 10  1  0
 13 12  1  0
 14  8  1  0
 15 14  2  0
 17 19  1  0
 17 16  1  0
 18 17  2  0
 20 19  1  0
 21 20  1  0
 21 22  1  0
 23 22  1  6
 23 24  1  0
 24 14  1  0
 25 26  1  0
 25 23  1  0
 27 25  2  0
M  END
$$$$
