CKR.pdb
     RDKit          3D

 27 26  0  0  1  0  0  0  0  0999 V2000
    5.1978  -14.0494   26.1273 N   0  0  0  0  0  0  0  0  0  0  0  0
    6.1278  -13.2397   25.3554 C   0  0  1  0  0  0  0  0  0  0  0  0
    7.1890  -12.7312   26.3067 C   0  0  0  0  0  0  0  0  0  0  0  0
    7.0090  -10.9600   26.6289 S   0  0  0  0  0  0  0  0  0  0  0  0
    6.8362  -14.0824   24.3385 C   0  0  0  0  0  0  0  0  0  0  0  0
    7.3057  -15.2055   24.6539 O   0  0  0  0  0  0  0  0  0  0  0  0
    7.0125  -13.6663   22.9898 N   0  0  0  0  0  0  0  0  0  0  0  0
    7.7132  -14.5164   22.0193 C   0  0  1  0  0  0  0  0  0  0  0  0
    7.5436  -13.8526   20.6842 C   0  0  0  0  0  0  0  0  0  0  0  0
    8.1614  -14.5881   19.5421 C   0  0  0  0  0  0  0  0  0  0  0  0
    7.9445  -13.8751   18.2357 C   0  0  0  0  0  0  0  0  0  0  0  0
    8.4532  -14.6423   17.0450 C   0  0  0  0  0  0  0  0  0  0  0  0
    8.1451  -13.9286   15.7976 N   0  0  0  0  0  0  0  0  0  0  0  0
    9.1454  -14.6739   22.4274 C   0  0  0  0  0  0  0  0  0  0  0  0
    9.7776  -13.7104   22.9118 O   0  0  0  0  0  0  0  0  0  0  0  0
   11.1560  -15.3782   29.4552 N   0  0  0  0  0  0  0  0  0  0  0  0
   10.5581  -16.5698   28.9719 C   0  0  0  0  0  0  0  0  0  0  0  0
   10.1617  -17.4458   29.8234 N   0  0  0  0  0  0  0  0  0  0  0  0
   10.3834  -16.8269   27.5914 N   0  0  0  0  0  0  0  0  0  0  0  0
   11.1459  -16.1589   26.5625 C   0  0  0  0  0  0  0  0  0  0  0  0
   10.7006  -16.5871   25.1569 C   0  0  0  0  0  0  0  0  0  0  0  0
   11.5166  -15.9377   24.0856 C   0  0  0  0  0  0  0  0  0  0  0  0
   11.1211  -16.2620   22.6675 C   0  0  2  0  0  0  0  0  0  0  0  0
    9.8098  -15.9109   22.2738 N   0  0  0  0  0  0  0  0  0  0  0  0
   11.5803  -17.6008   22.3195 C   0  0  0  0  0  0  0  0  0  0  0  0
   10.7267  -18.5620   21.7667 O   0  0  0  0  0  0  0  0  0  0  0  0
   12.7745  -17.9457   22.5054 O   0  0  0  0  0  0  0  0  0  0  0  0
  2  1  1  1
  3  4  1  0
  3  2  1  0
  5  2  1  0
  5  6  2  0
  7  5  1  0
  8  7  1  0
  8  9  1  6
 10  9  1  0
 11 12  1  0
 11 10  1  0
 13 12  1  0
 14  8  1  0
 15 14  2  0
 17 19  1  0
 17 16  1  0
 18 17  2  0
 20 19  1  0
 21 20  1  0
 21 22  1  0
 23 22  1  1
 23 24  1  0
 24 14  1  0
 25 26  1  0
 25 23  1  0
 27 25  2  0
M  END
$$$$
