CKR.pdb
     RDKit          3D

 27 26  0  0  1  0  0  0  0  0999 V2000
    6.9297  -14.0935   18.0907 N   0  0  0  0  0  0  0  0  0  0  0  0
    8.2600  -13.9661   18.6658 C   0  0  1  0  0  0  0  0  0  0  0  0
    8.2826  -12.6954   19.4870 C   0  0  0  0  0  0  0  0  0  0  0  0
    9.9089  -12.4005   20.2231 S   0  0  0  0  0  0  0  0  0  0  0  0
    8.5291  -15.0925   19.6170 C   0  0  0  0  0  0  0  0  0  0  0  0
    7.6141  -15.5385   20.3553 O   0  0  0  0  0  0  0  0  0  0  0  0
    9.8074  -15.7055   19.7340 N   0  0  0  0  0  0  0  0  0  0  0  0
   10.0457  -16.7837   20.7016 C   0  0  1  0  0  0  0  0  0  0  0  0
   10.9371  -17.7741   20.0113 C   0  0  0  0  0  0  0  0  0  0  0  0
   10.2371  -18.6734   19.0478 C   0  0  0  0  0  0  0  0  0  0  0  0
   11.1824  -19.6557   18.4127 C   0  0  0  0  0  0  0  0  0  0  0  0
   10.5227  -20.5469   17.3950 C   0  0  0  0  0  0  0  0  0  0  0  0
   11.5062  -21.4501   16.7808 N   0  0  0  0  0  0  0  0  0  0  0  0
   10.6430  -16.2168   21.9523 C   0  0  0  0  0  0  0  0  0  0  0  0
   11.3875  -15.2139   21.9029 O   0  0  0  0  0  0  0  0  0  0  0  0
    5.2766  -12.6751   25.4304 N   0  0  0  0  0  0  0  0  0  0  0  0
    6.1904  -12.2433   26.4253 C   0  0  0  0  0  0  0  0  0  0  0  0
    6.0611  -11.0583   26.9034 N   0  0  0  0  0  0  0  0  0  0  0  0
    7.2346  -13.0675   26.9076 N   0  0  0  0  0  0  0  0  0  0  0  0
    7.5276  -14.3709   26.3586 C   0  0  0  0  0  0  0  0  0  0  0  0
    8.9953  -14.4872   25.9230 C   0  0  0  0  0  0  0  0  0  0  0  0
    9.1356  -15.1403   24.5854 C   0  0  0  0  0  0  0  0  0  0  0  0
   10.2327  -16.1671   24.4648 C   0  0  2  0  0  0  0  0  0  0  0  0
   10.3782  -16.8020   23.2103 N   0  0  0  0  0  0  0  0  0  0  0  0
   10.2414  -17.0229   25.6445 C   0  0  0  0  0  0  0  0  0  0  0  0
   10.2707  -18.4190   25.5531 O   0  0  0  0  0  0  0  0  0  0  0  0
   10.2227  -16.5328   26.8016 O   0  0  0  0  0  0  0  0  0  0  0  0
  2  1  1  1
  3  4  1  0
  3  2  1  0
  5  2  1  0
  5  6  2  0
  7  5  1  0
  8  7  1  0
  8  9  1  6
 10  9  1  0
 11 12  1  0
 11 10  1  0
 13 12  1  0
 14  8  1  0
 15 14  2  0
 17 19  1  0
 17 16  1  0
 18 17  2  0
 20 19  1  0
 21 20  1  0
 21 22  1  0
 23 22  1  6
 23 24  1  0
 24 14  1  0
 25 26  1  0
 25 23  1  0
 27 25  2  0
M  END
$$$$
