CKR.pdb
     RDKit          3D

 27 26  0  0  1  0  0  0  0  0999 V2000
    5.4325  -14.1801   26.3289 N   0  0  0  0  0  0  0  0  0  0  0  0
    6.2480  -13.2379   25.5780 C   0  0  1  0  0  0  0  0  0  0  0  0
    7.3297  -12.7296   26.5060 C   0  0  0  0  0  0  0  0  0  0  0  0
    6.9015  -11.1233   27.2201 S   0  0  0  0  0  0  0  0  0  0  0  0
    6.9474  -13.9340   24.4500 C   0  0  0  0  0  0  0  0  0  0  0  0
    7.3522  -15.1172   24.5816 O   0  0  0  0  0  0  0  0  0  0  0  0
    7.1864  -13.3073   23.1957 N   0  0  0  0  0  0  0  0  0  0  0  0
    7.8614  -14.0237   22.1063 C   0  0  1  0  0  0  0  0  0  0  0  0
    7.9535  -13.0548   20.9641 C   0  0  0  0  0  0  0  0  0  0  0  0
    8.7656  -13.5341   19.8073 C   0  0  0  0  0  0  0  0  0  0  0  0
    7.9009  -14.0919   18.7106 C   0  0  0  0  0  0  0  0  0  0  0  0
    8.6878  -14.6699   17.5652 C   0  0  0  0  0  0  0  0  0  0  0  0
    7.7913  -15.2978   16.5842 N   0  0  0  0  0  0  0  0  0  0  0  0
    9.1948  -14.5171   22.5766 C   0  0  0  0  0  0  0  0  0  0  0  0
    9.9662  -13.7611   23.2058 O   0  0  0  0  0  0  0  0  0  0  0  0
    8.5557  -20.6863   26.7472 N   0  0  0  0  0  0  0  0  0  0  0  0
    9.7047  -19.9378   27.1091 C   0  0  0  0  0  0  0  0  0  0  0  0
    9.6985  -19.3085   28.2287 N   0  0  0  0  0  0  0  0  0  0  0  0
   10.8521  -19.8600   26.2847 N   0  0  0  0  0  0  0  0  0  0  0  0
   10.7849  -19.6345   24.8596 C   0  0  0  0  0  0  0  0  0  0  0  0
   10.8288  -18.1381   24.5185 C   0  0  0  0  0  0  0  0  0  0  0  0
   10.8148  -17.8963   23.0432 C   0  0  0  0  0  0  0  0  0  0  0  0
   10.8491  -16.4525   22.6112 C   0  0  2  0  0  0  0  0  0  0  0  0
    9.6074  -15.8433   22.3194 N   0  0  0  0  0  0  0  0  0  0  0  0
   11.9277  -16.2482   21.6527 C   0  0  0  0  0  0  0  0  0  0  0  0
   13.2141  -15.8642   22.0478 O   0  0  0  0  0  0  0  0  0  0  0  0
   11.7402  -16.4112   20.4206 O   0  0  0  0  0  0  0  0  0  0  0  0
  2  1  1  1
  3  4  1  0
  3  2  1  0
  5  2  1  0
  5  6  2  0
  7  5  1  0
  8  7  1  0
  8  9  1  6
 10  9  1  0
 11 12  1  0
 11 10  1  0
 13 12  1  0
 14  8  1  0
 15 14  2  0
 17 19  1  0
 17 16  1  0
 18 17  2  0
 20 19  1  0
 21 20  1  0
 21 22  1  0
 23 22  1  6
 23 24  1  0
 24 14  1  0
 25 26  1  0
 25 23  1  0
 27 25  2  0
M  END
$$$$
