CKR.pdb
     RDKit          3D

 27 26  0  0  1  0  0  0  0  0999 V2000
    6.8056  -13.5650   17.4406 N   0  0  0  0  0  0  0  0  0  0  0  0
    8.0667  -13.5638   18.1660 C   0  0  1  0  0  0  0  0  0  0  0  0
    8.0163  -12.4306   19.1674 C   0  0  0  0  0  0  0  0  0  0  0  0
    9.4647  -12.4278   20.2517 S   0  0  0  0  0  0  0  0  0  0  0  0
    8.2153  -14.8266   18.9593 C   0  0  0  0  0  0  0  0  0  0  0  0
    7.2907  -15.2192   19.7157 O   0  0  0  0  0  0  0  0  0  0  0  0
    9.3859  -15.6327   18.9011 N   0  0  0  0  0  0  0  0  0  0  0  0
    9.5028  -16.8588   19.7002 C   0  0  1  0  0  0  0  0  0  0  0  0
   10.1393  -17.8812   18.8048 C   0  0  0  0  0  0  0  0  0  0  0  0
   10.2819  -19.2365   19.4131 C   0  0  0  0  0  0  0  0  0  0  0  0
   10.9303  -20.2084   18.4661 C   0  0  0  0  0  0  0  0  0  0  0  0
   11.0434  -21.6014   19.0246 C   0  0  0  0  0  0  0  0  0  0  0  0
   11.7138  -22.4918   18.0665 N   0  0  0  0  0  0  0  0  0  0  0  0
   10.2942  -16.5795   20.9405 C   0  0  0  0  0  0  0  0  0  0  0  0
   11.3687  -15.9438   20.8789 O   0  0  0  0  0  0  0  0  0  0  0  0
   10.2733  -14.8894   30.6404 N   0  0  0  0  0  0  0  0  0  0  0  0
    9.7767  -14.6733   29.3297 C   0  0  0  0  0  0  0  0  0  0  0  0
    8.8024  -13.8515   29.1711 N   0  0  0  0  0  0  0  0  0  0  0  0
   10.3137  -15.3277   28.1958 N   0  0  0  0  0  0  0  0  0  0  0  0
    9.6570  -15.3423   26.9095 C   0  0  0  0  0  0  0  0  0  0  0  0
   10.4627  -16.1333   25.8691 C   0  0  0  0  0  0  0  0  0  0  0  0
    9.7689  -16.1930   24.5461 C   0  0  0  0  0  0  0  0  0  0  0  0
   10.4948  -16.9360   23.4537 C   0  0  2  0  0  0  0  0  0  0  0  0
    9.8441  -17.0276   22.2022 N   0  0  0  0  0  0  0  0  0  0  0  0
   11.0744  -18.1613   23.9892 C   0  0  0  0  0  0  0  0  0  0  0  0
   10.6047  -19.4289   23.6276 O   0  0  0  0  0  0  0  0  0  0  0  0
   12.0291  -18.1244   24.8058 O   0  0  0  0  0  0  0  0  0  0  0  0
  2  1  1  1
  3  4  1  0
  3  2  1  0
  5  2  1  0
  5  6  2  0
  7  5  1  0
  8  7  1  0
  8  9  1  6
 10  9  1  0
 11 12  1  0
 11 10  1  0
 13 12  1  0
 14  8  1  0
 15 14  2  0
 17 19  1  0
 17 16  1  0
 18 17  2  0
 20 19  1  0
 21 20  1  0
 21 22  1  0
 23 22  1  1
 23 24  1  0
 24 14  1  0
 25 26  1  0
 25 23  1  0
 27 25  2  0
M  END
$$$$
