SFQ.pdb
     RDKit          3D

 27 27  0  0  1  0  0  0  0  0999 V2000
   22.5701  -12.6475  -21.0634 O   0  0  0  0  0  0  0  0  0  0  0  0
   22.4313  -11.3983  -20.4652 C   0  0  0  0  0  0  0  0  0  0  0  0
   23.6556  -11.0609  -19.6422 C   0  0  2  0  0  0  0  0  0  0  0  0
   24.3146  -12.2575  -19.2122 N   0  0  0  0  0  0  0  0  0  0  0  0
   23.2365  -10.2951  -18.4383 C   0  0  0  0  0  0  0  0  0  0  0  0
   22.6057  -10.8588  -17.4826 O   0  0  0  0  0  0  0  0  0  0  0  0
   23.5089   -8.9017  -18.2777 N   0  0  0  0  0  0  0  0  0  0  0  0
   23.1432   -8.1733  -17.0850 C   0  0  1  0  0  0  0  0  0  0  0  0
   24.3520   -7.5200  -16.4530 C   0  0  0  0  0  0  0  0  0  0  0  0
   25.3142   -8.4888  -15.9196 C   0  0  0  0  0  0  0  0  0  0  0  0
   25.0389   -9.1999  -14.7774 C   0  0  0  0  0  0  0  0  0  0  0  0
   25.9691  -10.1140  -14.2915 C   0  0  0  0  0  0  0  0  0  0  0  0
   27.1747  -10.3286  -14.9323 C   0  0  0  0  0  0  0  0  0  0  0  0
   27.4498   -9.6131  -16.0800 C   0  0  0  0  0  0  0  0  0  0  0  0
   26.5194   -8.7025  -16.5613 C   0  0  0  0  0  0  0  0  0  0  0  0
   22.2155   -7.0848  -17.4795 C   0  0  0  0  0  0  0  0  0  0  0  0
   22.4043   -6.5164  -18.5806 O   0  0  0  0  0  0  0  0  0  0  0  0
   17.1095   -7.2327  -19.6091 N   0  0  0  0  0  0  0  0  0  0  0  0
   16.9853   -5.9238  -19.0916 C   0  0  0  0  0  0  0  0  0  0  0  0
   16.0763   -5.1806  -19.5296 O   0  0  0  0  0  0  0  0  0  0  0  0
   17.8893   -5.3616  -18.0339 C   0  0  0  0  0  0  0  0  0  0  0  0
   18.9153   -6.3506  -17.6066 C   0  0  0  0  0  0  0  0  0  0  0  0
   20.1995   -5.6795  -17.2310 C   0  0  2  0  0  0  0  0  0  0  0  0
   21.1372   -6.6664  -16.6715 N   0  0  0  0  0  0  0  0  0  0  0  0
   20.0197   -4.6392  -16.1997 C   0  0  0  0  0  0  0  0  0  0  0  0
   20.1700   -3.4203  -16.5517 O   0  0  0  0  0  0  0  0  0  0  0  0
   19.6923   -4.9216  -14.8648 O   0  0  0  0  0  0  0  0  0  0  0  0
  2  1  1  0
  3  4  1  1
  3  2  1  0
  5  3  1  0
  6  5  2  0
  7  5  1  0
  8 16  1  0
  8  7  1  0
  8  9  1  6
 10  9  1  0
 11 10  2  0
 12 11  1  0
 13 12  2  0
 13 14  1  0
 14 15  2  0
 15 10  1  0
 16 17  2  0
 19 21  1  0
 19 18  1  0
 20 19  2  0
 22 21  1  0
 23 22  1  1
 24 23  1  0
 24 16  1  0
 25 27  1  0
 25 23  1  0
 26 25  2  0
M  END
$$$$
