SFQ.pdb
     RDKit          3D

 27 27  0  0  1  0  0  0  0  0999 V2000
   12.2416  -11.2801  -11.7716 O   0  0  0  0  0  0  0  0  0  0  0  0
   13.2803  -10.3878  -11.5210 C   0  0  0  0  0  0  0  0  0  0  0  0
   14.6161  -11.0976  -11.5622 C   0  0  2  0  0  0  0  0  0  0  0  0
   14.6438  -12.1670  -10.6100 N   0  0  0  0  0  0  0  0  0  0  0  0
   15.6915  -10.1306  -11.2163 C   0  0  0  0  0  0  0  0  0  0  0  0
   15.9052   -9.7842  -10.0065 O   0  0  0  0  0  0  0  0  0  0  0  0
   16.5405   -9.5373  -12.2005 N   0  0  0  0  0  0  0  0  0  0  0  0
   17.5509   -8.5609  -11.8651 C   0  0  1  0  0  0  0  0  0  0  0  0
   18.5531   -8.4059  -12.9871 C   0  0  0  0  0  0  0  0  0  0  0  0
   19.5619   -7.3771  -12.7168 C   0  0  0  0  0  0  0  0  0  0  0  0
   20.5218   -7.5672  -11.7532 C   0  0  0  0  0  0  0  0  0  0  0  0
   21.4685   -6.5750  -11.5157 C   0  0  0  0  0  0  0  0  0  0  0  0
   21.4700   -5.3914  -12.2294 C   0  0  0  0  0  0  0  0  0  0  0  0
   20.5047   -5.2020  -13.1974 C   0  0  0  0  0  0  0  0  0  0  0  0
   19.5624   -6.1940  -13.4312 C   0  0  0  0  0  0  0  0  0  0  0  0
   16.8808   -7.2484  -11.6944 C   0  0  0  0  0  0  0  0  0  0  0  0
   15.9947   -6.9246  -12.5198 O   0  0  0  0  0  0  0  0  0  0  0  0
   14.5131   -5.1173   -6.5100 N   0  0  0  0  0  0  0  0  0  0  0  0
   14.3032   -4.0609   -7.4243 C   0  0  0  0  0  0  0  0  0  0  0  0
   13.5818   -3.0949   -7.0821 O   0  0  0  0  0  0  0  0  0  0  0  0
   14.9003   -4.0249   -8.8006 C   0  0  0  0  0  0  0  0  0  0  0  0
   15.7513   -5.2173   -9.0607 C   0  0  0  0  0  0  0  0  0  0  0  0
   16.3196   -5.1928  -10.4453 C   0  0  2  0  0  0  0  0  0  0  0  0
   17.1980   -6.3561  -10.6485 N   0  0  0  0  0  0  0  0  0  0  0  0
   17.1422   -3.9950  -10.7036 C   0  0  0  0  0  0  0  0  0  0  0  0
   18.3989   -4.0789  -10.4892 O   0  0  0  0  0  0  0  0  0  0  0  0
   16.6161   -2.7812  -11.1714 O   0  0  0  0  0  0  0  0  0  0  0  0
  2  1  1  0
  3  4  1  1
  3  2  1  0
  5  3  1  0
  6  5  2  0
  7  5  1  0
  8 16  1  0
  8  7  1  0
  8  9  1  6
 10  9  1  0
 11 10  2  0
 12 11  1  0
 13 12  2  0
 13 14  1  0
 14 15  2  0
 15 10  1  0
 16 17  2  0
 19 21  1  0
 19 18  1  0
 20 19  2  0
 22 21  1  0
 23 22  1  1
 24 23  1  0
 24 16  1  0
 25 27  1  0
 25 23  1  0
 26 25  2  0
M  END
$$$$
