SFQ.pdb
     RDKit          3D

 27 27  0  0  1  0  0  0  0  0999 V2000
   26.9385  -18.0150  -14.5380 O   0  0  0  0  0  0  0  0  0  0  0  0
   27.6236  -19.0574  -15.1560 C   0  0  0  0  0  0  0  0  0  0  0  0
   28.1652  -20.0254  -14.1267 C   0  0  2  0  0  0  0  0  0  0  0  0
   28.9116  -21.0680  -14.7646 N   0  0  0  0  0  0  0  0  0  0  0  0
   27.0281  -20.6413  -13.3925 C   0  0  0  0  0  0  0  0  0  0  0  0
   26.3441  -21.5881  -13.9070 O   0  0  0  0  0  0  0  0  0  0  0  0
   26.6353  -20.2190  -12.0853 N   0  0  0  0  0  0  0  0  0  0  0  0
   25.5299  -20.8207  -11.3763 C   0  0  1  0  0  0  0  0  0  0  0  0
   25.5453  -20.4351   -9.9139 C   0  0  0  0  0  0  0  0  0  0  0  0
   26.8617  -20.6019   -9.2908 C   0  0  0  0  0  0  0  0  0  0  0  0
   27.8252  -21.3850   -9.8778 C   0  0  0  0  0  0  0  0  0  0  0  0
   29.0672  -21.5273   -9.2660 C   0  0  0  0  0  0  0  0  0  0  0  0
   29.3616  -20.8963   -8.0721 C   0  0  0  0  0  0  0  0  0  0  0  0
   28.3922  -20.1097   -7.4836 C   0  0  0  0  0  0  0  0  0  0  0  0
   27.1549  -19.9704   -8.0969 C   0  0  0  0  0  0  0  0  0  0  0  0
   24.2712  -20.2890  -11.9542 C   0  0  0  0  0  0  0  0  0  0  0  0
   24.2232  -19.0715  -12.2486 O   0  0  0  0  0  0  0  0  0  0  0  0
   23.1808  -19.5760  -16.9724 N   0  0  0  0  0  0  0  0  0  0  0  0
   23.4294  -20.8500  -16.4146 C   0  0  0  0  0  0  0  0  0  0  0  0
   24.0153  -21.7137  -17.1083 O   0  0  0  0  0  0  0  0  0  0  0  0
   23.0285  -21.2373  -15.0212 C   0  0  0  0  0  0  0  0  0  0  0  0
   22.4278  -20.0925  -14.2850 C   0  0  0  0  0  0  0  0  0  0  0  0
   22.0013  -20.4913  -12.9067 C   0  0  2  0  0  0  0  0  0  0  0  0
   23.1342  -21.0921  -12.1843 N   0  0  0  0  0  0  0  0  0  0  0  0
   20.9240  -21.5001  -12.9119 C   0  0  0  0  0  0  0  0  0  0  0  0
   19.7609  -21.1264  -13.2856 O   0  0  0  0  0  0  0  0  0  0  0  0
   21.1146  -22.8375  -12.5323 O   0  0  0  0  0  0  0  0  0  0  0  0
  2  1  1  0
  3  4  1  6
  3  2  1  0
  5  3  1  0
  6  5  2  0
  7  5  1  0
  8 16  1  0
  8  7  1  0
  8  9  1  1
 10  9  1  0
 11 10  2  0
 12 11  1  0
 13 12  2  0
 13 14  1  0
 14 15  2  0
 15 10  1  0
 16 17  2  0
 19 21  1  0
 19 18  1  0
 20 19  2  0
 22 21  1  0
 23 22  1  6
 24 23  1  0
 24 16  1  0
 25 27  1  0
 25 23  1  0
 26 25  2  0
M  END
$$$$
