SFQ.pdb
     RDKit          3D

 27 27  0  0  1  0  0  0  0  0999 V2000
   29.0790  -38.5952   -2.7323 O   0  0  0  0  0  0  0  0  0  0  0  0
   29.3605  -37.8396   -1.5976 C   0  0  0  0  0  0  0  0  0  0  0  0
   29.2836  -36.3605   -1.9079 C   0  0  2  0  0  0  0  0  0  0  0  0
   30.4572  -35.9350   -2.6097 N   0  0  0  0  0  0  0  0  0  0  0  0
   29.1951  -35.6000   -0.6331 C   0  0  0  0  0  0  0  0  0  0  0  0
   30.0071  -35.8212    0.3265 O   0  0  0  0  0  0  0  0  0  0  0  0
   28.2112  -34.5893   -0.4051 N   0  0  0  0  0  0  0  0  0  0  0  0
   28.1087  -33.8763    0.8471 C   0  0  1  0  0  0  0  0  0  0  0  0
   27.5325  -32.4931    0.6414 C   0  0  0  0  0  0  0  0  0  0  0  0
   27.2118  -31.8127    1.8995 C   0  0  0  0  0  0  0  0  0  0  0  0
   28.1715  -31.6245    2.8637 C   0  0  0  0  0  0  0  0  0  0  0  0
   27.8416  -30.9754    4.0497 C   0  0  0  0  0  0  0  0  0  0  0  0
   26.5621  -30.5099    4.2874 C   0  0  0  0  0  0  0  0  0  0  0  0
   25.5988  -30.6998    3.3175 C   0  0  0  0  0  0  0  0  0  0  0  0
   25.9320  -31.3476    2.1361 C   0  0  0  0  0  0  0  0  0  0  0  0
   27.1647  -34.6166    1.7198 C   0  0  0  0  0  0  0  0  0  0  0  0
   26.0631  -34.9682    1.2359 O   0  0  0  0  0  0  0  0  0  0  0  0
   27.4039  -40.1913    5.4380 N   0  0  0  0  0  0  0  0  0  0  0  0
   26.9200  -38.8930    5.7142 C   0  0  0  0  0  0  0  0  0  0  0  0
   27.1210  -38.3975    6.8476 O   0  0  0  0  0  0  0  0  0  0  0  0
   26.1689  -38.0591    4.7180 C   0  0  0  0  0  0  0  0  0  0  0  0
   27.0810  -37.1730    3.9456 C   0  0  0  0  0  0  0  0  0  0  0  0
   26.5045  -35.8011    3.7843 C   0  0  2  0  0  0  0  0  0  0  0  0
   27.4542  -34.9387    3.0626 N   0  0  0  0  0  0  0  0  0  0  0  0
   26.2345  -35.1397    5.0757 C   0  0  0  0  0  0  0  0  0  0  0  0
   27.2278  -34.6497    5.7123 O   0  0  0  0  0  0  0  0  0  0  0  0
   24.9513  -35.0222    5.6314 O   0  0  0  0  0  0  0  0  0  0  0  0
  2  1  1  0
  3  4  1  1
  3  2  1  0
  5  3  1  0
  6  5  2  0
  7  5  1  0
  8 16  1  0
  8  7  1  0
  8  9  1  6
 10  9  1  0
 11 10  2  0
 12 11  1  0
 13 12  2  0
 13 14  1  0
 14 15  2  0
 15 10  1  0
 16 17  2  0
 19 21  1  0
 19 18  1  0
 20 19  2  0
 22 21  1  0
 23 22  1  1
 24 23  1  0
 24 16  1  0
 25 27  1  0
 25 23  1  0
 26 25  2  0
M  END
$$$$
