SFQ.pdb
     RDKit          3D

 27 27  0  0  1  0  0  0  0  0999 V2000
   20.1038  -23.6443  -13.9565 O   0  0  0  0  0  0  0  0  0  0  0  0
   19.6831  -22.3200  -13.8721 C   0  0  0  0  0  0  0  0  0  0  0  0
   20.2909  -21.6422  -12.6632 C   0  0  2  0  0  0  0  0  0  0  0  0
   19.3120  -20.8374  -11.9962 N   0  0  0  0  0  0  0  0  0  0  0  0
   21.4025  -20.7602  -13.1078 C   0  0  0  0  0  0  0  0  0  0  0  0
   21.1749  -19.5959  -13.5787 O   0  0  0  0  0  0  0  0  0  0  0  0
   22.7742  -21.1538  -13.0372 N   0  0  0  0  0  0  0  0  0  0  0  0
   23.8438  -20.3312  -13.5530 C   0  0  1  0  0  0  0  0  0  0  0  0
   25.1863  -20.7909  -13.0296 C   0  0  0  0  0  0  0  0  0  0  0  0
   26.3123  -20.0610  -13.6197 C   0  0  0  0  0  0  0  0  0  0  0  0
   27.2026  -20.6925  -14.4531 C   0  0  0  0  0  0  0  0  0  0  0  0
   28.2635  -19.9771  -15.0006 C   0  0  0  0  0  0  0  0  0  0  0  0
   28.4485  -18.6351  -14.7266 C   0  0  0  0  0  0  0  0  0  0  0  0
   27.5529  -18.0020  -13.8888 C   0  0  0  0  0  0  0  0  0  0  0  0
   26.4963  -18.7190  -13.3449 C   0  0  0  0  0  0  0  0  0  0  0  0
   23.8732  -20.4898  -15.0278 C   0  0  0  0  0  0  0  0  0  0  0  0
   23.6013  -21.6155  -15.5074 O   0  0  0  0  0  0  0  0  0  0  0  0
   21.7309  -21.9649  -18.6288 N   0  0  0  0  0  0  0  0  0  0  0  0
   22.0352  -20.9888  -19.6039 C   0  0  0  0  0  0  0  0  0  0  0  0
   21.8910  -21.2742  -20.8156 O   0  0  0  0  0  0  0  0  0  0  0  0
   22.5280  -19.6108  -19.2717 C   0  0  0  0  0  0  0  0  0  0  0  0
   22.6721  -19.4189  -17.8034 C   0  0  0  0  0  0  0  0  0  0  0  0
   24.0754  -19.6797  -17.3524 C   0  0  2  0  0  0  0  0  0  0  0  0
   24.1924  -19.4327  -15.9061 N   0  0  0  0  0  0  0  0  0  0  0  0
   25.0595  -18.7980  -18.0099 C   0  0  0  0  0  0  0  0  0  0  0  0
   25.3349  -17.6867  -17.4430 O   0  0  0  0  0  0  0  0  0  0  0  0
   25.7030  -19.1197  -19.2147 O   0  0  0  0  0  0  0  0  0  0  0  0
  2  1  1  0
  3  4  1  6
  3  2  1  0
  5  3  1  0
  6  5  2  0
  7  5  1  0
  8 16  1  0
  8  7  1  0
  8  9  1  1
 10  9  1  0
 11 10  2  0
 12 11  1  0
 13 12  2  0
 13 14  1  0
 14 15  2  0
 15 10  1  0
 16 17  2  0
 19 21  1  0
 19 18  1  0
 20 19  2  0
 22 21  1  0
 23 22  1  6
 24 23  1  0
 24 16  1  0
 25 27  1  0
 25 23  1  0
 26 25  2  0
M  END
$$$$
