SFQ.pdb
     RDKit          3D

 27 27  0  0  1  0  0  0  0  0999 V2000
   18.7477  -13.7927  -21.7842 O   0  0  0  0  0  0  0  0  0  0  0  0
   19.2838  -13.2563  -20.6169 C   0  0  0  0  0  0  0  0  0  0  0  0
   20.5706  -13.9612  -20.2466 C   0  0  2  0  0  0  0  0  0  0  0  0
   20.3021  -15.3029  -19.8239 N   0  0  0  0  0  0  0  0  0  0  0  0
   21.2177  -13.2336  -19.1227 C   0  0  0  0  0  0  0  0  0  0  0  0
   20.7259  -13.2636  -17.9452 O   0  0  0  0  0  0  0  0  0  0  0  0
   22.4122  -12.4669  -19.2868 N   0  0  0  0  0  0  0  0  0  0  0  0
   23.1051  -11.8639  -18.1719 C   0  0  1  0  0  0  0  0  0  0  0  0
   24.5883  -11.7540  -18.4466 C   0  0  0  0  0  0  0  0  0  0  0  0
   25.3265  -11.1062  -17.3583 C   0  0  0  0  0  0  0  0  0  0  0  0
   25.6960  -11.8118  -16.2395 C   0  0  0  0  0  0  0  0  0  0  0  0
   26.3965  -11.1736  -15.2202 C   0  0  0  0  0  0  0  0  0  0  0  0
   26.7343   -9.8359  -15.3026 C   0  0  0  0  0  0  0  0  0  0  0  0
   26.3622   -9.1283  -16.4276 C   0  0  0  0  0  0  0  0  0  0  0  0
   25.6638   -9.7685  -17.4419 C   0  0  0  0  0  0  0  0  0  0  0  0
   22.5891  -10.4831  -18.0046 C   0  0  0  0  0  0  0  0  0  0  0  0
   22.3263   -9.8206  -19.0357 O   0  0  0  0  0  0  0  0  0  0  0  0
   17.4810   -8.7104  -16.0768 N   0  0  0  0  0  0  0  0  0  0  0  0
   18.1488   -7.4734  -16.2179 C   0  0  0  0  0  0  0  0  0  0  0  0
   17.4849   -6.4127  -16.1492 O   0  0  0  0  0  0  0  0  0  0  0  0
   19.6266   -7.3508  -16.4482 C   0  0  0  0  0  0  0  0  0  0  0  0
   20.2897   -8.6824  -16.4771 C   0  0  0  0  0  0  0  0  0  0  0  0
   21.7644   -8.5549  -16.6997 C   0  0  2  0  0  0  0  0  0  0  0  0
   22.3835   -9.8895  -16.7412 N   0  0  0  0  0  0  0  0  0  0  0  0
   22.4425   -7.8107  -15.6205 C   0  0  0  0  0  0  0  0  0  0  0  0
   22.7535   -8.4519  -14.5602 O   0  0  0  0  0  0  0  0  0  0  0  0
   22.7612   -6.4467  -15.7033 O   0  0  0  0  0  0  0  0  0  0  0  0
  2  1  1  0
  3  4  1  1
  3  2  1  0
  5  3  1  0
  6  5  2  0
  7  5  1  0
  8 16  1  0
  8  7  1  0
  8  9  1  6
 10  9  1  0
 11 10  2  0
 12 11  1  0
 13 12  2  0
 13 14  1  0
 14 15  2  0
 15 10  1  0
 16 17  2  0
 19 21  1  0
 19 18  1  0
 20 19  2  0
 22 21  1  0
 23 22  1  1
 24 23  1  0
 24 16  1  0
 25 27  1  0
 25 23  1  0
 26 25  2  0
M  END
$$$$
