SFQ.pdb
     RDKit          3D

 27 27  0  0  1  0  0  0  0  0999 V2000
   22.4995   -4.1133  -20.9593 O   0  0  0  0  0  0  0  0  0  0  0  0
   23.0543   -5.2241  -21.5888 C   0  0  0  0  0  0  0  0  0  0  0  0
   24.0088   -5.9431  -20.6604 C   0  0  2  0  0  0  0  0  0  0  0  0
   24.5359   -7.1143  -21.2941 N   0  0  0  0  0  0  0  0  0  0  0  0
   23.2751   -6.3597  -19.4359 C   0  0  0  0  0  0  0  0  0  0  0  0
   22.4340   -7.3193  -19.4633 O   0  0  0  0  0  0  0  0  0  0  0  0
   23.4620   -5.7222  -18.1709 N   0  0  0  0  0  0  0  0  0  0  0  0
   22.7887   -6.1663  -16.9725 C   0  0  1  0  0  0  0  0  0  0  0  0
   23.7728   -6.3946  -15.8469 C   0  0  0  0  0  0  0  0  0  0  0  0
   23.1359   -6.8755  -14.6172 C   0  0  0  0  0  0  0  0  0  0  0  0
   22.5933   -5.9950  -13.7136 C   0  0  0  0  0  0  0  0  0  0  0  0
   21.9942   -6.4770  -12.5536 C   0  0  0  0  0  0  0  0  0  0  0  0
   21.9291   -7.8306  -12.2821 C   0  0  0  0  0  0  0  0  0  0  0  0
   22.4749   -8.7141  -13.1912 C   0  0  0  0  0  0  0  0  0  0  0  0
   23.0715   -8.2293  -14.3469 C   0  0  0  0  0  0  0  0  0  0  0  0
   21.8701   -5.0861  -16.5362 C   0  0  0  0  0  0  0  0  0  0  0  0
   22.2670   -3.9003  -16.6242 O   0  0  0  0  0  0  0  0  0  0  0  0
   17.7569   -2.4928  -19.1651 N   0  0  0  0  0  0  0  0  0  0  0  0
   17.5344   -1.9635  -17.8741 C   0  0  0  0  0  0  0  0  0  0  0  0
   16.7874   -0.9654  -17.7467 O   0  0  0  0  0  0  0  0  0  0  0  0
   18.1475   -2.5324  -16.6281 C   0  0  0  0  0  0  0  0  0  0  0  0
   19.0513   -3.6741  -16.9334 C   0  0  0  0  0  0  0  0  0  0  0  0
   19.7302   -4.1800  -15.6990 C   0  0  2  0  0  0  0  0  0  0  0  0
   20.5773   -5.3373  -16.0300 N   0  0  0  0  0  0  0  0  0  0  0  0
   18.7766   -4.6382  -14.6700 C   0  0  0  0  0  0  0  0  0  0  0  0
   18.6044   -5.8970  -14.5369 O   0  0  0  0  0  0  0  0  0  0  0  0
   18.0590   -3.7661  -13.8371 O   0  0  0  0  0  0  0  0  0  0  0  0
  2  1  1  0
  3  4  1  6
  3  2  1  0
  5  3  1  0
  6  5  2  0
  7  5  1  0
  8 16  1  0
  8  7  1  0
  8  9  1  1
 10  9  1  0
 11 10  2  0
 12 11  1  0
 13 12  2  0
 13 14  1  0
 14 15  2  0
 15 10  1  0
 16 17  2  0
 19 21  1  0
 19 18  1  0
 20 19  2  0
 22 21  1  0
 23 22  1  6
 24 23  1  0
 24 16  1  0
 25 27  1  0
 25 23  1  0
 26 25  2  0
M  END
$$$$
