SFQ.pdb
     RDKit          3D

 27 27  0  0  1  0  0  0  0  0999 V2000
   27.3848   -6.8863  -18.2236 O   0  0  0  0  0  0  0  0  0  0  0  0
   26.0780   -7.3217  -18.0226 C   0  0  0  0  0  0  0  0  0  0  0  0
   26.0612   -8.7514  -17.5270 C   0  0  2  0  0  0  0  0  0  0  0  0
   26.4471   -9.6485  -18.5745 N   0  0  0  0  0  0  0  0  0  0  0  0
   24.6823   -9.0994  -17.0925 C   0  0  0  0  0  0  0  0  0  0  0  0
   23.7764   -9.3949  -17.9416 O   0  0  0  0  0  0  0  0  0  0  0  0
   24.2903   -9.1248  -15.7188 N   0  0  0  0  0  0  0  0  0  0  0  0
   22.9508   -9.4692  -15.3016 C   0  0  1  0  0  0  0  0  0  0  0  0
   22.9735  -10.4333  -14.1365 C   0  0  0  0  0  0  0  0  0  0  0  0
   23.2359  -11.8172  -14.5424 C   0  0  0  0  0  0  0  0  0  0  0  0
   22.2521  -12.5804  -15.1220 C   0  0  0  0  0  0  0  0  0  0  0  0
   22.5267  -13.8918  -15.4985 C   0  0  0  0  0  0  0  0  0  0  0  0
   23.7742  -14.4539  -15.3037 C   0  0  0  0  0  0  0  0  0  0  0  0
   24.7617  -13.6856  -14.7212 C   0  0  0  0  0  0  0  0  0  0  0  0
   24.4839  -12.3782  -14.3471 C   0  0  0  0  0  0  0  0  0  0  0  0
   22.2853   -8.2302  -14.8295 C   0  0  0  0  0  0  0  0  0  0  0  0
   22.8483   -7.5616  -13.9310 O   0  0  0  0  0  0  0  0  0  0  0  0
   21.8309   -3.1882  -17.3881 N   0  0  0  0  0  0  0  0  0  0  0  0
   20.9975   -2.9638  -16.2696 C   0  0  0  0  0  0  0  0  0  0  0  0
   20.6353   -1.7933  -16.0063 O   0  0  0  0  0  0  0  0  0  0  0  0
   20.5126   -4.0582  -15.3644 C   0  0  0  0  0  0  0  0  0  0  0  0
   21.0767   -5.3797  -15.7504 C   0  0  0  0  0  0  0  0  0  0  0  0
   20.5469   -6.4763  -14.8802 C   0  0  2  0  0  0  0  0  0  0  0  0
   21.0534   -7.7771  -15.3469 N   0  0  0  0  0  0  0  0  0  0  0  0
   19.0740   -6.5651  -14.9068 C   0  0  0  0  0  0  0  0  0  0  0  0
   18.5405   -7.3484  -15.7636 O   0  0  0  0  0  0  0  0  0  0  0  0
   18.2394   -5.8395  -14.0430 O   0  0  0  0  0  0  0  0  0  0  0  0
  2  1  1  0
  3  4  1  6
  3  2  1  0
  5  3  1  0
  6  5  2  0
  7  5  1  0
  8 16  1  0
  8  7  1  0
  8  9  1  1
 10  9  1  0
 11 10  2  0
 12 11  1  0
 13 12  2  0
 13 14  1  0
 14 15  2  0
 15 10  1  0
 16 17  2  0
 19 21  1  0
 19 18  1  0
 20 19  2  0
 22 21  1  0
 23 22  1  6
 24 23  1  0
 24 16  1  0
 25 27  1  0
 25 23  1  0
 26 25  2  0
M  END
$$$$
