SFQ.pdb
     RDKit          3D

 27 27  0  0  1  0  0  0  0  0999 V2000
   26.7410  -19.0773  -13.2301 O   0  0  0  0  0  0  0  0  0  0  0  0
   26.4536  -20.2908  -13.8487 C   0  0  0  0  0  0  0  0  0  0  0  0
   27.2791  -21.4066  -13.2459 C   0  0  2  0  0  0  0  0  0  0  0  0
   26.9558  -22.6577  -13.8634 N   0  0  0  0  0  0  0  0  0  0  0  0
   26.9762  -21.5057  -11.7935 C   0  0  0  0  0  0  0  0  0  0  0  0
   25.9818  -22.1849  -11.3703 O   0  0  0  0  0  0  0  0  0  0  0  0
   27.7663  -20.8573  -10.7952 N   0  0  0  0  0  0  0  0  0  0  0  0
   27.3846  -20.8293   -9.4023 C   0  0  1  0  0  0  0  0  0  0  0  0
   28.4062  -20.0851   -8.5717 C   0  0  0  0  0  0  0  0  0  0  0  0
   28.0337  -19.9868   -7.1573 C   0  0  0  0  0  0  0  0  0  0  0  0
   28.0111  -21.1015   -6.3553 C   0  0  0  0  0  0  0  0  0  0  0  0
   27.6538  -20.9816   -5.0155 C   0  0  0  0  0  0  0  0  0  0  0  0
   27.3176  -19.7600   -4.4634 C   0  0  0  0  0  0  0  0  0  0  0  0
   27.3408  -18.6408   -5.2707 C   0  0  0  0  0  0  0  0  0  0  0  0
   27.6977  -18.7647   -6.6064 C   0  0  0  0  0  0  0  0  0  0  0  0
   26.1067  -20.0837   -9.2925 C   0  0  0  0  0  0  0  0  0  0  0  0
   26.0898  -18.8825   -9.6503 O   0  0  0  0  0  0  0  0  0  0  0  0
   23.3664  -20.1836  -13.0755 N   0  0  0  0  0  0  0  0  0  0  0  0
   22.3358  -20.7040  -12.2611 C   0  0  0  0  0  0  0  0  0  0  0  0
   21.4549  -21.4266  -12.7829 O   0  0  0  0  0  0  0  0  0  0  0  0
   22.2305  -20.4399  -10.7876 C   0  0  0  0  0  0  0  0  0  0  0  0
   23.3432  -19.5788  -10.3038 C   0  0  0  0  0  0  0  0  0  0  0  0
   23.6813  -19.8727   -8.8755 C   0  0  2  0  0  0  0  0  0  0  0  0
   24.9182  -20.6674   -8.8053 N   0  0  0  0  0  0  0  0  0  0  0  0
   22.6369  -20.6599   -8.1918 C   0  0  0  0  0  0  0  0  0  0  0  0
   21.4291  -20.2541   -8.2854 O   0  0  0  0  0  0  0  0  0  0  0  0
   22.9037  -21.8229   -7.4532 O   0  0  0  0  0  0  0  0  0  0  0  0
  2  1  1  0
  3  4  1  6
  3  2  1  0
  5  3  1  0
  6  5  2  0
  7  5  1  0
  8 16  1  0
  8  7  1  0
  8  9  1  1
 10  9  1  0
 11 10  2  0
 12 11  1  0
 13 12  2  0
 13 14  1  0
 14 15  2  0
 15 10  1  0
 16 17  2  0
 19 21  1  0
 19 18  1  0
 20 19  2  0
 22 21  1  0
 23 22  1  6
 24 23  1  0
 24 16  1  0
 25 27  1  0
 25 23  1  0
 26 25  2  0
M  END
$$$$
