SFQ.pdb
     RDKit          3D

 27 27  0  0  1  0  0  0  0  0999 V2000
   26.7204  -17.3674  -14.9325 O   0  0  0  0  0  0  0  0  0  0  0  0
   27.7540  -17.6464  -14.0428 C   0  0  0  0  0  0  0  0  0  0  0  0
   28.3312  -19.0199  -14.3079 C   0  0  2  0  0  0  0  0  0  0  0  0
   28.5700  -19.2004  -15.7084 N   0  0  0  0  0  0  0  0  0  0  0  0
   27.3584  -20.0512  -13.8590 C   0  0  0  0  0  0  0  0  0  0  0  0
   26.6630  -20.7143  -14.6991 O   0  0  0  0  0  0  0  0  0  0  0  0
   27.1437  -20.3603  -12.4806 N   0  0  0  0  0  0  0  0  0  0  0  0
   26.2189  -21.3834  -12.0510 C   0  0  1  0  0  0  0  0  0  0  0  0
   26.6897  -22.0425  -10.7737 C   0  0  0  0  0  0  0  0  0  0  0  0
   26.8836  -21.0913   -9.6753 C   0  0  0  0  0  0  0  0  0  0  0  0
   28.1328  -20.8647   -9.1515 C   0  0  0  0  0  0  0  0  0  0  0  0
   28.2904  -19.9564   -8.1088 C   0  0  0  0  0  0  0  0  0  0  0  0
   27.2144  -19.2688   -7.5799 C   0  0  0  0  0  0  0  0  0  0  0  0
   25.9598  -19.4977   -8.1075 C   0  0  0  0  0  0  0  0  0  0  0  0
   25.8068  -20.4043   -9.1474 C   0  0  0  0  0  0  0  0  0  0  0  0
   24.9205  -20.7309  -11.7520 C   0  0  0  0  0  0  0  0  0  0  0  0
   24.9372  -19.5855  -11.2429 O   0  0  0  0  0  0  0  0  0  0  0  0
   22.8595  -17.7954  -15.4461 N   0  0  0  0  0  0  0  0  0  0  0  0
   22.6180  -19.1740  -15.6396 C   0  0  0  0  0  0  0  0  0  0  0  0
   22.4970  -19.6120  -16.8075 O   0  0  0  0  0  0  0  0  0  0  0  0
   22.4958  -20.1599  -14.5148 C   0  0  0  0  0  0  0  0  0  0  0  0
   22.6150  -19.4965  -13.1884 C   0  0  0  0  0  0  0  0  0  0  0  0
   22.4837  -20.4822  -12.0696 C   0  0  2  0  0  0  0  0  0  0  0  0
   23.6767  -21.3425  -12.0154 N   0  0  0  0  0  0  0  0  0  0  0  0
   21.3247  -21.3811  -12.2337 C   0  0  0  0  0  0  0  0  0  0  0  0
   21.5368  -22.5418  -12.7235 O   0  0  0  0  0  0  0  0  0  0  0  0
   20.0143  -21.0266  -11.8786 O   0  0  0  0  0  0  0  0  0  0  0  0
  2  1  1  0
  3  4  1  6
  3  2  1  0
  5  3  1  0
  6  5  2  0
  7  5  1  0
  8 16  1  0
  8  7  1  0
  8  9  1  1
 10  9  1  0
 11 10  2  0
 12 11  1  0
 13 12  2  0
 13 14  1  0
 14 15  2  0
 15 10  1  0
 16 17  2  0
 19 21  1  0
 19 18  1  0
 20 19  2  0
 22 21  1  0
 23 22  1  6
 24 23  1  0
 24 16  1  0
 25 27  1  0
 25 23  1  0
 26 25  2  0
M  END
$$$$
