SFQ.pdb
     RDKit          3D

 27 27  0  0  1  0  0  0  0  0999 V2000
   14.6636  -31.1461   -7.2075 O   0  0  0  0  0  0  0  0  0  0  0  0
   15.9282  -30.6903   -6.8459 C   0  0  0  0  0  0  0  0  0  0  0  0
   16.1764  -29.3052   -7.4026 C   0  0  2  0  0  0  0  0  0  0  0  0
   16.8569  -29.3861   -8.6601 N   0  0  0  0  0  0  0  0  0  0  0  0
   17.0311  -28.5450   -6.4523 C   0  0  0  0  0  0  0  0  0  0  0  0
   18.3002  -28.6808   -6.4505 O   0  0  0  0  0  0  0  0  0  0  0  0
   16.4944  -27.6290   -5.4961 N   0  0  0  0  0  0  0  0  0  0  0  0
   17.3330  -26.8366   -4.6269 C   0  0  1  0  0  0  0  0  0  0  0  0
   17.0950  -25.3581   -4.8389 C   0  0  0  0  0  0  0  0  0  0  0  0
   17.5937  -24.8765   -6.1305 C   0  0  0  0  0  0  0  0  0  0  0  0
   18.9411  -24.7433   -6.3605 C   0  0  0  0  0  0  0  0  0  0  0  0
   19.3891  -24.2838   -7.5955 C   0  0  0  0  0  0  0  0  0  0  0  0
   18.5074  -23.9544   -8.6076 C   0  0  0  0  0  0  0  0  0  0  0  0
   17.1537  -24.0889   -8.3748 C   0  0  0  0  0  0  0  0  0  0  0  0
   16.7110  -24.5474   -7.1418 C   0  0  0  0  0  0  0  0  0  0  0  0
   16.9571  -27.1421   -3.2246 C   0  0  0  0  0  0  0  0  0  0  0  0
   15.7391  -27.2490   -2.9483 O   0  0  0  0  0  0  0  0  0  0  0  0
   17.4564  -29.9436    1.9246 N   0  0  0  0  0  0  0  0  0  0  0  0
   18.0970  -30.4304    0.7632 C   0  0  0  0  0  0  0  0  0  0  0  0
   18.1686  -31.6683    0.5819 O   0  0  0  0  0  0  0  0  0  0  0  0
   18.7059  -29.5418   -0.2817 C   0  0  0  0  0  0  0  0  0  0  0  0
   18.4906  -28.1028    0.0286 C   0  0  0  0  0  0  0  0  0  0  0  0
   17.4114  -27.5141   -0.8254 C   0  0  2  0  0  0  0  0  0  0  0  0
   17.9079  -27.3160   -2.1968 N   0  0  0  0  0  0  0  0  0  0  0  0
   16.9615  -26.1926   -0.3467 C   0  0  0  0  0  0  0  0  0  0  0  0
   17.1978  -25.1792   -1.0879 O   0  0  0  0  0  0  0  0  0  0  0  0
   16.2909  -25.9978    0.8705 O   0  0  0  0  0  0  0  0  0  0  0  0
  2  1  1  0
  3  4  1  6
  3  2  1  0
  5  3  1  0
  6  5  2  0
  7  5  1  0
  8 16  1  0
  8  7  1  0
  8  9  1  6
 10  9  1  0
 11 10  2  0
 12 11  1  0
 13 12  2  0
 13 14  1  0
 14 15  2  0
 15 10  1  0
 16 17  2  0
 19 21  1  0
 19 18  1  0
 20 19  2  0
 22 21  1  0
 23 22  1  1
 24 23  1  0
 24 16  1  0
 25 27  1  0
 25 23  1  0
 26 25  2  0
M  END
$$$$
