SFQ.pdb
     RDKit          3D

 27 27  0  0  1  0  0  0  0  0999 V2000
   15.5723  -10.7513  -17.8540 O   0  0  0  0  0  0  0  0  0  0  0  0
   16.5784  -11.7091  -17.7624 C   0  0  0  0  0  0  0  0  0  0  0  0
   16.8510  -12.0611  -16.3162 C   0  0  2  0  0  0  0  0  0  0  0  0
   15.6565  -12.5327  -15.6824 N   0  0  0  0  0  0  0  0  0  0  0  0
   17.3162  -10.8444  -15.5988 C   0  0  0  0  0  0  0  0  0  0  0  0
   16.5023  -10.1114  -14.9436 O   0  0  0  0  0  0  0  0  0  0  0  0
   18.6822  -10.4253  -15.5976 N   0  0  0  0  0  0  0  0  0  0  0  0
   19.1111   -9.1838  -14.9964 C   0  0  1  0  0  0  0  0  0  0  0  0
   20.6082   -9.1703  -14.7821 C   0  0  0  0  0  0  0  0  0  0  0  0
   21.1001   -7.8954  -14.2516 C   0  0  0  0  0  0  0  0  0  0  0  0
   21.0267   -7.6153  -12.9091 C   0  0  0  0  0  0  0  0  0  0  0  0
   21.5007   -6.3974  -12.4304 C   0  0  0  0  0  0  0  0  0  0  0  0
   22.0489   -5.4519  -13.2764 C   0  0  0  0  0  0  0  0  0  0  0  0
   22.1219   -5.7350  -14.6253 C   0  0  0  0  0  0  0  0  0  0  0  0
   21.6481   -6.9508  -15.0986 C   0  0  0  0  0  0  0  0  0  0  0  0
   18.7960   -8.0844  -15.9413 C   0  0  0  0  0  0  0  0  0  0  0  0
   18.8631   -8.3227  -17.1701 O   0  0  0  0  0  0  0  0  0  0  0  0
   13.9624   -5.2580  -17.4066 N   0  0  0  0  0  0  0  0  0  0  0  0
   14.9378   -4.4718  -18.0598 C   0  0  0  0  0  0  0  0  0  0  0  0
   14.5711   -3.6448  -18.9270 O   0  0  0  0  0  0  0  0  0  0  0  0
   16.4078   -4.5686  -17.7738 C   0  0  0  0  0  0  0  0  0  0  0  0
   16.7131   -5.6884  -16.8431 C   0  0  0  0  0  0  0  0  0  0  0  0
   18.1783   -5.7712  -16.5483 C   0  0  2  0  0  0  0  0  0  0  0  0
   18.4264   -6.7908  -15.5162 N   0  0  0  0  0  0  0  0  0  0  0  0
   18.7285   -4.5044  -16.0280 C   0  0  0  0  0  0  0  0  0  0  0  0
   18.5597   -4.2473  -14.7881 O   0  0  0  0  0  0  0  0  0  0  0  0
   19.4236   -3.5790  -16.8215 O   0  0  0  0  0  0  0  0  0  0  0  0
  2  1  1  0
  3  4  1  1
  3  2  1  0
  5  3  1  0
  6  5  2  0
  7  5  1  0
  8 16  1  0
  8  7  1  0
  8  9  1  6
 10  9  1  0
 11 10  2  0
 12 11  1  0
 13 12  2  0
 13 14  1  0
 14 15  2  0
 15 10  1  0
 16 17  2  0
 19 21  1  0
 19 18  1  0
 20 19  2  0
 22 21  1  0
 23 22  1  1
 24 23  1  0
 24 16  1  0
 25 27  1  0
 25 23  1  0
 26 25  2  0
M  END
$$$$
