SFQ.pdb
     RDKit          3D

 27 27  0  0  1  0  0  0  0  0999 V2000
   26.0126  -21.2970  -19.7023 O   0  0  0  0  0  0  0  0  0  0  0  0
   26.2986  -20.8182  -18.4269 C   0  0  0  0  0  0  0  0  0  0  0  0
   27.1319  -21.8181  -17.6550 C   0  0  2  0  0  0  0  0  0  0  0  0
   27.1715  -23.0733  -18.3434 N   0  0  0  0  0  0  0  0  0  0  0  0
   26.5183  -22.0332  -16.3176 C   0  0  0  0  0  0  0  0  0  0  0  0
   25.9558  -23.1391  -16.0184 O   0  0  0  0  0  0  0  0  0  0  0  0
   26.5196  -21.0314  -15.2989 N   0  0  0  0  0  0  0  0  0  0  0  0
   25.8700  -21.2232  -14.0229 C   0  0  1  0  0  0  0  0  0  0  0  0
   26.3419  -20.2021  -13.0119 C   0  0  0  0  0  0  0  0  0  0  0  0
   25.7816  -20.4180  -11.6746 C   0  0  0  0  0  0  0  0  0  0  0  0
   26.4375  -21.1967  -10.7528 C   0  0  0  0  0  0  0  0  0  0  0  0
   25.8844  -21.3862   -9.4898 C   0  0  0  0  0  0  0  0  0  0  0  0
   24.6813  -20.8070   -9.1330 C   0  0  0  0  0  0  0  0  0  0  0  0
   24.0234  -20.0248  -10.0605 C   0  0  0  0  0  0  0  0  0  0  0  0
   24.5784  -19.8383  -11.3190 C   0  0  0  0  0  0  0  0  0  0  0  0
   24.4145  -21.0082  -14.2130 C   0  0  0  0  0  0  0  0  0  0  0  0
   24.0476  -20.0874  -14.9804 O   0  0  0  0  0  0  0  0  0  0  0  0
   20.2496  -24.5790  -16.3242 N   0  0  0  0  0  0  0  0  0  0  0  0
   20.1188  -23.2138  -16.6637 C   0  0  0  0  0  0  0  0  0  0  0  0
   19.4759  -22.9022  -17.6933 O   0  0  0  0  0  0  0  0  0  0  0  0
   20.7118  -22.0979  -15.8542 C   0  0  0  0  0  0  0  0  0  0  0  0
   21.4117  -22.6092  -14.6450 C   0  0  0  0  0  0  0  0  0  0  0  0
   22.0199  -21.4947  -13.8522 C   0  0  2  0  0  0  0  0  0  0  0  0
   23.4335  -21.7921  -13.5699 N   0  0  0  0  0  0  0  0  0  0  0  0
   21.3628  -21.2989  -12.5453 C   0  0  0  0  0  0  0  0  0  0  0  0
   21.7225  -22.0538  -11.5795 O   0  0  0  0  0  0  0  0  0  0  0  0
   20.3734  -20.3310  -12.3141 O   0  0  0  0  0  0  0  0  0  0  0  0
  2  1  1  0
  3  4  1  6
  3  2  1  0
  5  3  1  0
  6  5  2  0
  7  5  1  0
  8 16  1  0
  8  7  1  0
  8  9  1  1
 10  9  1  0
 11 10  2  0
 12 11  1  0
 13 12  2  0
 13 14  1  0
 14 15  2  0
 15 10  1  0
 16 17  2  0
 19 21  1  0
 19 18  1  0
 20 19  2  0
 22 21  1  0
 23 22  1  1
 24 23  1  0
 24 16  1  0
 25 27  1  0
 25 23  1  0
 26 25  2  0
M  END
$$$$
