TYV.pdb
     RDKit          3D

 27 27  0  0  1  0  0  0  0  0999 V2000
    8.5906  -13.7144   18.3073 C   0  0  0  0  0  0  0  0  0  0  0  0
    8.2988  -13.9827   19.7621 C   0  0  1  0  0  0  0  0  0  0  0  0
    7.7149  -12.8752   20.3542 O   0  0  0  0  0  0  0  0  0  0  0  0
    7.5055  -15.2464   19.9684 C   0  0  2  0  0  0  0  0  0  0  0  0
    6.2551  -15.1463   19.2468 N   0  0  0  0  0  0  0  0  0  0  0  0
    7.2319  -15.5624   21.3684 C   0  0  0  0  0  0  0  0  0  0  0  0
    6.1561  -15.1845   21.8948 O   0  0  0  0  0  0  0  0  0  0  0  0
    7.8861  -19.0793   29.4812 O   0  0  0  0  0  0  0  0  0  0  0  0
    8.0971  -18.7519   28.1350 C   0  0  0  0  0  0  0  0  0  0  0  0
    7.0928  -18.8871   27.1977 C   0  0  0  0  0  0  0  0  0  0  0  0
    7.2495  -18.5794   25.8649 C   0  0  0  0  0  0  0  0  0  0  0  0
    8.4643  -18.1109   25.4252 C   0  0  0  0  0  0  0  0  0  0  0  0
    8.7107  -17.7569   23.9996 C   0  0  0  0  0  0  0  0  0  0  0  0
    7.9017  -16.5131   23.6119 C   0  0  2  0  0  0  0  0  0  0  0  0
    8.1176  -16.2901   22.2142 N   0  0  0  0  0  0  0  0  0  0  0  0
    8.4246  -15.4075   24.4544 C   0  0  0  0  0  0  0  0  0  0  0  0
    9.5566  -14.9154   24.2240 O   0  0  0  0  0  0  0  0  0  0  0  0
    9.4801  -17.9684   26.3438 C   0  0  0  0  0  0  0  0  0  0  0  0
    9.3082  -18.2806   27.6750 C   0  0  0  0  0  0  0  0  0  0  0  0
    7.0398  -11.9783   25.1634 C   0  0  0  0  0  0  0  0  0  0  0  0
    7.3099  -12.6339   26.4756 C   0  0  1  0  0  0  0  0  0  0  0  0
    6.0341  -13.0834   27.1096 C   0  0  0  0  0  0  0  0  0  0  0  0
    8.2475  -13.8199   26.3559 C   0  0  2  0  0  0  0  0  0  0  0  0
    7.6839  -14.8651   25.5390 N   0  0  0  0  0  0  0  0  0  0  0  0
    8.6373  -14.3201   27.6974 C   0  0  0  0  0  0  0  0  0  0  0  0
    8.2857  -15.4405   28.1310 O   0  0  0  0  0  0  0  0  0  0  0  0
    9.4224  -13.5206   28.5093 O   0  0  0  0  0  0  0  0  0  0  0  0
  2  1  1  6
  2  3  1  0
  4  2  1  0
  4  5  1  6
  6  4  1  0
  6  7  2  0
  8  9  1  0
  9 10  2  0
 10 11  1  0
 12 11  2  0
 12 13  1  0
 14 15  1  0
 14 13  1  1
 15  6  1  0
 16 14  1  0
 17 16  2  0
 18 12  1  0
 19  9  1  0
 19 18  2  0
 21 20  1  6
 21 22  1  0
 23 21  1  0
 23 24  1  6
 24 16  1  0
 25 27  1  0
 25 23  1  0
 26 25  2  0
M  END
$$$$
