TYV.pdb
     RDKit          3D

 27 27  0  0  1  0  0  0  0  0999 V2000
    8.5536  -13.1710   20.4412 C   0  0  0  0  0  0  0  0  0  0  0  0
    7.8837  -14.3970   19.8742 C   0  0  1  0  0  0  0  0  0  0  0  0
    7.8513  -14.3388   18.4909 O   0  0  0  0  0  0  0  0  0  0  0  0
    8.4846  -15.6763   20.3951 C   0  0  2  0  0  0  0  0  0  0  0  0
    7.8217  -16.8016   19.7716 N   0  0  0  0  0  0  0  0  0  0  0  0
    8.4216  -15.8221   21.8476 C   0  0  0  0  0  0  0  0  0  0  0  0
    7.3296  -16.1052   22.3996 O   0  0  0  0  0  0  0  0  0  0  0  0
   10.9669  -16.2469   30.3458 O   0  0  0  0  0  0  0  0  0  0  0  0
   10.9538  -16.1448   28.9482 C   0  0  0  0  0  0  0  0  0  0  0  0
   10.7964  -17.2591   28.1488 C   0  0  0  0  0  0  0  0  0  0  0  0
   10.7767  -17.2118   26.7730 C   0  0  0  0  0  0  0  0  0  0  0  0
   10.9199  -15.9985   26.1435 C   0  0  0  0  0  0  0  0  0  0  0  0
   10.9089  -15.8668   24.6600 C   0  0  0  0  0  0  0  0  0  0  0  0
    9.4690  -15.7487   24.1461 C   0  0  2  0  0  0  0  0  0  0  0  0
    9.5377  -15.6638   22.7185 N   0  0  0  0  0  0  0  0  0  0  0  0
    8.9145  -14.5181   24.7656 C   0  0  0  0  0  0  0  0  0  0  0  0
    9.0931  -13.3994   24.2240 O   0  0  0  0  0  0  0  0  0  0  0  0
   11.0782  -14.8741   26.9222 C   0  0  0  0  0  0  0  0  0  0  0  0
   11.0960  -14.9371   28.2988 C   0  0  0  0  0  0  0  0  0  0  0  0
    5.9750  -11.4859   26.2177 C   0  0  0  0  0  0  0  0  0  0  0  0
    6.6262  -12.6829   25.6112 C   0  0  1  0  0  0  0  0  0  0  0  0
    7.2983  -12.3201   24.3273 C   0  0  0  0  0  0  0  0  0  0  0  0
    7.6403  -13.3294   26.5351 C   0  0  2  0  0  0  0  0  0  0  0  0
    8.1707  -14.5474   25.9761 N   0  0  0  0  0  0  0  0  0  0  0  0
    7.0592  -13.5501   27.8825 C   0  0  0  0  0  0  0  0  0  0  0  0
    6.6818  -12.6113   28.6195 O   0  0  0  0  0  0  0  0  0  0  0  0
    6.9253  -14.8451   28.3514 O   0  0  0  0  0  0  0  0  0  0  0  0
  2  1  1  6
  2  3  1  0
  4  2  1  0
  4  5  1  6
  6  4  1  0
  6  7  2  0
  8  9  1  0
  9 10  2  0
 10 11  1  0
 12 11  2  0
 12 13  1  0
 14 15  1  0
 14 13  1  1
 15  6  1  0
 16 14  1  0
 17 16  2  0
 18 12  1  0
 19  9  1  0
 19 18  2  0
 21 20  1  1
 21 22  1  0
 23 21  1  0
 23 24  1  6
 24 16  1  0
 25 27  1  0
 25 23  1  0
 26 25  2  0
M  END
$$$$
