TYV.pdb
     RDKit          3D

 27 27  0  0  1  0  0  0  0  0999 V2000
    8.5900  -12.9922   20.4479 C   0  0  0  0  0  0  0  0  0  0  0  0
    7.6499  -13.7995   19.5888 C   0  0  1  0  0  0  0  0  0  0  0  0
    7.8450  -13.5103   18.2485 O   0  0  0  0  0  0  0  0  0  0  0  0
    7.7169  -15.2742   19.8879 C   0  0  2  0  0  0  0  0  0  0  0  0
    6.7944  -15.9775   19.0225 N   0  0  0  0  0  0  0  0  0  0  0  0
    7.4329  -15.6188   21.2792 C   0  0  0  0  0  0  0  0  0  0  0  0
    6.2597  -15.5269   21.7179 O   0  0  0  0  0  0  0  0  0  0  0  0
    7.8417  -19.1343   29.3249 O   0  0  0  0  0  0  0  0  0  0  0  0
    8.1174  -18.7519   28.0051 C   0  0  0  0  0  0  0  0  0  0  0  0
    9.3637  -18.2853   27.6387 C   0  0  0  0  0  0  0  0  0  0  0  0
    9.6844  -17.8976   26.3571 C   0  0  0  0  0  0  0  0  0  0  0  0
    8.7248  -17.9722   25.3761 C   0  0  0  0  0  0  0  0  0  0  0  0
    8.9957  -17.5713   23.9674 C   0  0  0  0  0  0  0  0  0  0  0  0
    8.1508  -16.3487   23.5894 C   0  0  2  0  0  0  0  0  0  0  0  0
    8.4135  -16.0662   22.2107 N   0  0  0  0  0  0  0  0  0  0  0  0
    8.5913  -15.2539   24.4911 C   0  0  0  0  0  0  0  0  0  0  0  0
    9.7355  -14.7518   24.3670 O   0  0  0  0  0  0  0  0  0  0  0  0
    7.4745  -18.4351   25.7201 C   0  0  0  0  0  0  0  0  0  0  0  0
    7.1682  -18.8196   27.0075 C   0  0  0  0  0  0  0  0  0  0  0  0
    6.8101  -11.9020   25.3116 C   0  0  0  0  0  0  0  0  0  0  0  0
    7.1706  -12.6054   26.5765 C   0  0  1  0  0  0  0  0  0  0  0  0
    5.9608  -13.2282   27.1931 C   0  0  0  0  0  0  0  0  0  0  0  0
    8.2274  -13.6737   26.3721 C   0  0  2  0  0  0  0  0  0  0  0  0
    7.7561  -14.7332   25.5161 N   0  0  0  0  0  0  0  0  0  0  0  0
    8.7095  -14.1933   27.6757 C   0  0  0  0  0  0  0  0  0  0  0  0
    8.4825  -15.3610   28.0653 O   0  0  0  0  0  0  0  0  0  0  0  0
    9.4417  -13.3583   28.5012 O   0  0  0  0  0  0  0  0  0  0  0  0
  2  1  1  1
  2  3  1  0
  4  2  1  0
  4  5  1  6
  6  4  1  0
  6  7  2  0
  8  9  1  0
  9 10  2  0
 10 11  1  0
 12 11  2  0
 12 13  1  0
 14 15  1  0
 14 13  1  1
 15  6  1  0
 16 14  1  0
 17 16  2  0
 18 12  1  0
 19  9  1  0
 19 18  2  0
 21 20  1  6
 21 22  1  0
 23 21  1  0
 23 24  1  6
 24 16  1  0
 25 27  1  0
 25 23  1  0
 26 25  2  0
M  END
$$$$
