TYV.pdb
     RDKit          3D

 27 27  0  0  1  0  0  0  0  0999 V2000
   11.4615  -18.0945   18.8749 C   0  0  0  0  0  0  0  0  0  0  0  0
   10.8538  -17.5764   20.1539 C   0  0  1  0  0  0  0  0  0  0  0  0
    9.5623  -17.1278   19.9329 O   0  0  0  0  0  0  0  0  0  0  0  0
   10.9458  -18.5711   21.2812 C   0  0  2  0  0  0  0  0  0  0  0  0
   10.2852  -19.7974   20.8888 N   0  0  0  0  0  0  0  0  0  0  0  0
   10.3823  -18.1013   22.5448 C   0  0  0  0  0  0  0  0  0  0  0  0
    9.1597  -18.2639   22.7816 O   0  0  0  0  0  0  0  0  0  0  0  0
    9.7636  -14.6853   30.7027 O   0  0  0  0  0  0  0  0  0  0  0  0
   10.2471  -15.1173   29.4602 C   0  0  0  0  0  0  0  0  0  0  0  0
   10.3594  -16.4603   29.1616 C   0  0  0  0  0  0  0  0  0  0  0  0
   10.8279  -16.9353   27.9573 C   0  0  0  0  0  0  0  0  0  0  0  0
   11.2090  -16.0391   26.9877 C   0  0  0  0  0  0  0  0  0  0  0  0
   11.7254  -16.4759   25.6607 C   0  0  0  0  0  0  0  0  0  0  0  0
   10.5630  -16.8520   24.7339 C   0  0  2  0  0  0  0  0  0  0  0  0
   11.1338  -17.4511   23.5655 N   0  0  0  0  0  0  0  0  0  0  0  0
    9.8518  -15.5828   24.4360 C   0  0  0  0  0  0  0  0  0  0  0  0
   10.4580  -14.6297   23.8875 O   0  0  0  0  0  0  0  0  0  0  0  0
   11.1051  -14.6944   27.2648 C   0  0  0  0  0  0  0  0  0  0  0  0
   10.6342  -14.2338   28.4753 C   0  0  0  0  0  0  0  0  0  0  0  0
    6.1600  -12.9028   23.1163 C   0  0  0  0  0  0  0  0  0  0  0  0
    6.9480  -14.1570   23.2921 C   0  0  1  0  0  0  0  0  0  0  0  0
    7.7795  -14.4278   22.0809 C   0  0  0  0  0  0  0  0  0  0  0  0
    7.8485  -14.1169   24.5117 C   0  0  2  0  0  0  0  0  0  0  0  0
    8.4795  -15.3905   24.7509 N   0  0  0  0  0  0  0  0  0  0  0  0
    7.1014  -13.6410   25.7022 C   0  0  0  0  0  0  0  0  0  0  0  0
    6.8035  -14.3908   26.6592 O   0  0  0  0  0  0  0  0  0  0  0  0
    6.7140  -12.3140   25.7647 O   0  0  0  0  0  0  0  0  0  0  0  0
  2  1  1  6
  2  3  1  0
  4  2  1  0
  4  5  1  6
  6  4  1  0
  6  7  2  0
  8  9  1  0
  9 10  2  0
 10 11  1  0
 12 11  2  0
 12 13  1  0
 14 15  1  0
 14 13  1  1
 15  6  1  0
 16 14  1  0
 17 16  2  0
 18 12  1  0
 19  9  1  0
 19 18  2  0
 21 20  1  6
 21 22  1  0
 23 21  1  0
 23 24  1  1
 24 16  1  0
 25 27  1  0
 25 23  1  0
 26 25  2  0
M  END
$$$$
