TYV.pdb
     RDKit          3D

 27 27  0  0  1  0  0  0  0  0999 V2000
    9.2621  -19.2759   18.3195 C   0  0  0  0  0  0  0  0  0  0  0  0
    9.4028  -18.5541   19.6359 C   0  0  1  0  0  0  0  0  0  0  0  0
   10.4027  -19.1291   20.4024 O   0  0  0  0  0  0  0  0  0  0  0  0
    9.5750  -17.0677   19.4638 C   0  0  2  0  0  0  0  0  0  0  0  0
   10.7835  -16.8130   18.7095 N   0  0  0  0  0  0  0  0  0  0  0  0
    9.6208  -16.3189   20.7177 C   0  0  0  0  0  0  0  0  0  0  0  0
   10.7297  -16.0085   21.2191 O   0  0  0  0  0  0  0  0  0  0  0  0
    7.0537  -11.9115   27.9632 O   0  0  0  0  0  0  0  0  0  0  0  0
    7.0693  -12.6001   26.7428 C   0  0  0  0  0  0  0  0  0  0  0  0
    6.5108  -13.8565   26.6207 C   0  0  0  0  0  0  0  0  0  0  0  0
    6.5004  -14.5736   25.4454 C   0  0  0  0  0  0  0  0  0  0  0  0
    7.0723  -14.0251   24.3225 C   0  0  0  0  0  0  0  0  0  0  0  0
    7.1001  -14.7390   23.0155 C   0  0  0  0  0  0  0  0  0  0  0  0
    8.5064  -15.2822   22.7348 C   0  0  2  0  0  0  0  0  0  0  0  0
    8.4691  -15.8977   21.4427 N   0  0  0  0  0  0  0  0  0  0  0  0
    8.7932  -16.2526   23.8219 C   0  0  0  0  0  0  0  0  0  0  0  0
    8.1226  -17.3094   23.9220 O   0  0  0  0  0  0  0  0  0  0  0  0
    7.6352  -12.7726   24.4222 C   0  0  0  0  0  0  0  0  0  0  0  0
    7.6380  -12.0667   25.6058 C   0  0  0  0  0  0  0  0  0  0  0  0
   12.0154  -18.4239   26.7143 C   0  0  0  0  0  0  0  0  0  0  0  0
   11.6351  -17.3938   25.7049 C   0  0  1  0  0  0  0  0  0  0  0  0
   12.0072  -17.8445   24.3301 C   0  0  0  0  0  0  0  0  0  0  0  0
   10.1551  -17.0636   25.7337 C   0  0  2  0  0  0  0  0  0  0  0  0
    9.8193  -16.0358   24.7808 N   0  0  0  0  0  0  0  0  0  0  0  0
    9.7230  -16.7031   27.1067 C   0  0  0  0  0  0  0  0  0  0  0  0
    9.7746  -15.5327   27.5477 O   0  0  0  0  0  0  0  0  0  0  0  0
    9.2415  -17.6966   27.9410 O   0  0  0  0  0  0  0  0  0  0  0  0
  2  1  1  6
  2  3  1  0
  4  2  1  0
  4  5  1  1
  6  4  1  0
  6  7  2  0
  8  9  1  0
  9 10  2  0
 10 11  1  0
 12 11  2  0
 12 13  1  0
 14 15  1  0
 14 13  1  1
 15  6  1  0
 16 14  1  0
 17 16  2  0
 18 12  1  0
 19  9  1  0
 19 18  2  0
 21 20  1  1
 21 22  1  0
 23 21  1  0
 23 24  1  6
 24 16  1  0
 25 27  1  0
 25 23  1  0
 26 25  2  0
M  END
$$$$
