TYV.pdb
     RDKit          3D

 27 27  0  0  1  0  0  0  0  0999 V2000
    6.8851  -12.9021   19.6006 C   0  0  0  0  0  0  0  0  0  0  0  0
    7.4187  -14.2518   19.1915 C   0  0  1  0  0  0  0  0  0  0  0  0
    7.6867  -14.2784   17.8331 O   0  0  0  0  0  0  0  0  0  0  0  0
    8.5910  -14.6877   20.0308 C   0  0  2  0  0  0  0  0  0  0  0  0
    9.2227  -15.8312   19.4082 N   0  0  0  0  0  0  0  0  0  0  0  0
    8.2511  -15.0164   21.4134 C   0  0  0  0  0  0  0  0  0  0  0  0
    7.5571  -14.2194   22.0918 O   0  0  0  0  0  0  0  0  0  0  0  0
    7.7067  -19.6719   28.9863 O   0  0  0  0  0  0  0  0  0  0  0  0
    8.0747  -19.1974   27.7201 C   0  0  0  0  0  0  0  0  0  0  0  0
    7.1820  -19.1954   26.6672 C   0  0  0  0  0  0  0  0  0  0  0  0
    7.4943  -18.7406   25.4058 C   0  0  0  0  0  0  0  0  0  0  0  0
    8.7582  -18.2587   25.1627 C   0  0  0  0  0  0  0  0  0  0  0  0
    9.1708  -17.7497   23.8251 C   0  0  0  0  0  0  0  0  0  0  0  0
    8.3122  -16.5434   23.4259 C   0  0  2  0  0  0  0  0  0  0  0  0
    8.6575  -16.2097   22.0771 N   0  0  0  0  0  0  0  0  0  0  0  0
    8.6536  -15.4639   24.3869 C   0  0  0  0  0  0  0  0  0  0  0  0
    9.7704  -14.8927   24.3288 O   0  0  0  0  0  0  0  0  0  0  0  0
    9.6645  -18.2516   26.1992 C   0  0  0  0  0  0  0  0  0  0  0  0
    9.3373  -18.7103   27.4569 C   0  0  0  0  0  0  0  0  0  0  0  0
    7.0981  -11.9320   27.4463 C   0  0  0  0  0  0  0  0  0  0  0  0
    6.8263  -13.0567   26.5051 C   0  0  1  0  0  0  0  0  0  0  0  0
    6.2684  -12.5408   25.2188 C   0  0  0  0  0  0  0  0  0  0  0  0
    8.0614  -13.8863   26.2113 C   0  0  2  0  0  0  0  0  0  0  0  0
    7.7513  -15.0347   25.3974 N   0  0  0  0  0  0  0  0  0  0  0  0
    8.7472  -14.2728   27.4692 C   0  0  0  0  0  0  0  0  0  0  0  0
    8.6492  -15.4155   27.9706 O   0  0  0  0  0  0  0  0  0  0  0  0
    9.5297  -13.3363   28.1215 O   0  0  0  0  0  0  0  0  0  0  0  0
  2  1  1  1
  2  3  1  0
  4  2  1  0
  4  5  1  6
  6  4  1  0
  6  7  2  0
  8  9  1  0
  9 10  2  0
 10 11  1  0
 12 11  2  0
 12 13  1  0
 14 15  1  0
 14 13  1  1
 15  6  1  0
 16 14  1  0
 17 16  2  0
 18 12  1  0
 19  9  1  0
 19 18  2  0
 21 20  1  1
 21 22  1  0
 23 21  1  0
 23 24  1  1
 24 16  1  0
 25 27  1  0
 25 23  1  0
 26 25  2  0
M  END
$$$$
