TYV.pdb
     RDKit          3D

 27 27  0  0  1  0  0  0  0  0999 V2000
    5.5615  -16.6435   21.1433 C   0  0  0  0  0  0  0  0  0  0  0  0
    6.6932  -16.9781   20.2048 C   0  0  1  0  0  0  0  0  0  0  0  0
    6.2347  -17.0679   18.9011 O   0  0  0  0  0  0  0  0  0  0  0  0
    7.8629  -16.0408   20.3536 C   0  0  2  0  0  0  0  0  0  0  0  0
    8.8207  -16.3046   19.3012 N   0  0  0  0  0  0  0  0  0  0  0  0
    8.5343  -16.1184   21.6490 C   0  0  0  0  0  0  0  0  0  0  0  0
    9.3495  -17.0467   21.8747 O   0  0  0  0  0  0  0  0  0  0  0  0
   10.5240  -14.5145   30.1299 O   0  0  0  0  0  0  0  0  0  0  0  0
   10.0267  -14.4163   28.8233 C   0  0  0  0  0  0  0  0  0  0  0  0
    8.7826  -13.8758   28.5678 C   0  0  0  0  0  0  0  0  0  0  0  0
    8.2496  -13.7572   27.3039 C   0  0  0  0  0  0  0  0  0  0  0  0
    8.9811  -14.1951   26.2260 C   0  0  0  0  0  0  0  0  0  0  0  0
    8.4724  -14.1006   24.8293 C   0  0  0  0  0  0  0  0  0  0  0  0
    8.8481  -15.3598   24.0389 C   0  0  2  0  0  0  0  0  0  0  0  0
    8.3319  -15.1939   22.7138 N   0  0  0  0  0  0  0  0  0  0  0  0
    8.2191  -16.4961   24.7590 C   0  0  0  0  0  0  0  0  0  0  0  0
    6.9852  -16.4944   24.9921 O   0  0  0  0  0  0  0  0  0  0  0  0
   10.2249  -14.7378   26.4585 C   0  0  0  0  0  0  0  0  0  0  0  0
   10.7454  -14.8500   27.7297 C   0  0  0  0  0  0  0  0  0  0  0  0
    7.5940  -21.0449   25.9881 C   0  0  0  0  0  0  0  0  0  0  0  0
    8.1239  -19.9145   25.1719 C   0  0  1  0  0  0  0  0  0  0  0  0
    7.2038  -19.6130   24.0342 C   0  0  0  0  0  0  0  0  0  0  0  0
    8.3345  -18.6524   25.9858 C   0  0  2  0  0  0  0  0  0  0  0  0
    8.9682  -17.6165   25.2094 N   0  0  0  0  0  0  0  0  0  0  0  0
    9.0892  -18.9476   27.2289 C   0  0  0  0  0  0  0  0  0  0  0  0
    8.6290  -19.6635   28.1468 O   0  0  0  0  0  0  0  0  0  0  0  0
   10.3555  -18.4128   27.3877 O   0  0  0  0  0  0  0  0  0  0  0  0
  2  1  1  1
  2  3  1  0
  4  2  1  0
  4  5  1  6
  6  4  1  0
  6  7  2  0
  8  9  1  0
  9 10  2  0
 10 11  1  0
 12 11  2  0
 12 13  1  0
 14 15  1  0
 14 13  1  1
 15  6  1  0
 16 14  1  0
 17 16  2  0
 18 12  1  0
 19  9  1  0
 19 18  2  0
 21 20  1  1
 21 22  1  0
 23 21  1  0
 23 24  1  6
 24 16  1  0
 25 27  1  0
 25 23  1  0
 26 25  2  0
M  END
$$$$
