TYV.pdb
     RDKit          3D

 27 27  0  0  1  0  0  0  0  0999 V2000
    6.2626  -14.7801   18.0107 C   0  0  0  0  0  0  0  0  0  0  0  0
    7.0324  -14.9005   19.3016 C   0  0  1  0  0  0  0  0  0  0  0  0
    8.2761  -15.4664   19.0762 O   0  0  0  0  0  0  0  0  0  0  0  0
    7.1069  -13.5973   20.0532 C   0  0  2  0  0  0  0  0  0  0  0  0
    7.7155  -12.5938   19.2063 N   0  0  0  0  0  0  0  0  0  0  0  0
    7.8384  -13.6726   21.3158 C   0  0  0  0  0  0  0  0  0  0  0  0
    9.0774  -13.4679   21.3324 O   0  0  0  0  0  0  0  0  0  0  0  0
    9.6411  -14.0425   29.9618 O   0  0  0  0  0  0  0  0  0  0  0  0
    8.9807  -14.0313   28.7258 C   0  0  0  0  0  0  0  0  0  0  0  0
    8.3402  -15.1552   28.2442 C   0  0  0  0  0  0  0  0  0  0  0  0
    7.6782  -15.1954   27.0377 C   0  0  0  0  0  0  0  0  0  0  0  0
    7.6424  -14.0652   26.2567 C   0  0  0  0  0  0  0  0  0  0  0  0
    6.9467  -14.0307   24.9402 C   0  0  0  0  0  0  0  0  0  0  0  0
    7.9636  -14.1343   23.7971 C   0  0  2  0  0  0  0  0  0  0  0  0
    7.2388  -13.9699   22.5734 N   0  0  0  0  0  0  0  0  0  0  0  0
    8.5797  -15.4799   23.9199 C   0  0  0  0  0  0  0  0  0  0  0  0
    7.8908  -16.5126   23.7308 O   0  0  0  0  0  0  0  0  0  0  0  0
    8.2751  -12.9327   26.7183 C   0  0  0  0  0  0  0  0  0  0  0  0
    8.9339  -12.9076   27.9285 C   0  0  0  0  0  0  0  0  0  0  0  0
   12.3586  -18.5178   23.7159 C   0  0  0  0  0  0  0  0  0  0  0  0
   11.7183  -17.1855   23.5163 C   0  0  1  0  0  0  0  0  0  0  0  0
   11.3265  -17.0010   22.0866 C   0  0  0  0  0  0  0  0  0  0  0  0
   10.4976  -16.9849   24.3937 C   0  0  2  0  0  0  0  0  0  0  0  0
    9.9500  -15.6594   24.2506 N   0  0  0  0  0  0  0  0  0  0  0  0
   10.8094  -17.3013   25.8095 C   0  0  0  0  0  0  0  0  0  0  0  0
   11.5056  -16.5540   26.5331 O   0  0  0  0  0  0  0  0  0  0  0  0
   10.3134  -18.4697   26.3605 O   0  0  0  0  0  0  0  0  0  0  0  0
  2  1  1  6
  2  3  1  0
  4  2  1  0
  4  5  1  6
  6  4  1  0
  6  7  2  0
  8  9  1  0
  9 10  2  0
 10 11  1  0
 12 11  2  0
 12 13  1  0
 14 15  1  0
 14 13  1  1
 15  6  1  0
 16 14  1  0
 17 16  2  0
 18 12  1  0
 19  9  1  0
 19 18  2  0
 21 20  1  6
 21 22  1  0
 23 21  1  0
 23 24  1  1
 24 16  1  0
 25 27  1  0
 25 23  1  0
 26 25  2  0
M  END
$$$$
