TYV.pdb
     RDKit          3D

 27 27  0  0  1  0  0  0  0  0999 V2000
    7.0487  -17.5608   18.9240 C   0  0  0  0  0  0  0  0  0  0  0  0
    7.1438  -17.0728   20.3474 C   0  0  1  0  0  0  0  0  0  0  0  0
    6.2087  -16.0793   20.5853 O   0  0  0  0  0  0  0  0  0  0  0  0
    7.0759  -18.1961   21.3487 C   0  0  2  0  0  0  0  0  0  0  0  0
    5.8473  -18.9351   21.1519 N   0  0  0  0  0  0  0  0  0  0  0  0
    7.1630  -17.7652   22.7421 C   0  0  0  0  0  0  0  0  0  0  0  0
    6.1199  -17.4395   23.3610 O   0  0  0  0  0  0  0  0  0  0  0  0
   10.3777  -15.9962   30.8084 O   0  0  0  0  0  0  0  0  0  0  0  0
   10.2553  -16.3691   29.4630 C   0  0  0  0  0  0  0  0  0  0  0  0
    9.4447  -17.4188   29.0803 C   0  0  0  0  0  0  0  0  0  0  0  0
    9.2907  -17.8239   27.7735 C   0  0  0  0  0  0  0  0  0  0  0  0
    9.9728  -17.1593   26.7826 C   0  0  0  0  0  0  0  0  0  0  0  0
    9.8577  -17.5385   25.3469 C   0  0  0  0  0  0  0  0  0  0  0  0
    8.4906  -17.1192   24.7930 C   0  0  2  0  0  0  0  0  0  0  0  0
    8.3780  -17.6819   23.4812 N   0  0  0  0  0  0  0  0  0  0  0  0
    8.4940  -15.6342   24.7793 C   0  0  0  0  0  0  0  0  0  0  0  0
    9.1753  -15.0093   23.9297 O   0  0  0  0  0  0  0  0  0  0  0  0
   10.7871  -16.1089   27.1426 C   0  0  0  0  0  0  0  0  0  0  0  0
   10.9313  -15.7148   28.4553 C   0  0  0  0  0  0  0  0  0  0  0  0
    5.7100  -13.1207   27.0302 C   0  0  0  0  0  0  0  0  0  0  0  0
    6.4065  -12.8136   25.7475 C   0  0  1  0  0  0  0  0  0  0  0  0
    6.5146  -11.3367   25.5501 C   0  0  0  0  0  0  0  0  0  0  0  0
    7.7921  -13.4255   25.6720 C   0  0  2  0  0  0  0  0  0  0  0  0
    7.7418  -14.8655   25.7082 N   0  0  0  0  0  0  0  0  0  0  0  0
    8.6676  -12.8789   26.7381 C   0  0  0  0  0  0  0  0  0  0  0  0
    9.0711  -13.5672   27.7026 O   0  0  0  0  0  0  0  0  0  0  0  0
    9.0590  -11.5533   26.6705 O   0  0  0  0  0  0  0  0  0  0  0  0
  2  1  1  6
  2  3  1  0
  4  2  1  0
  4  5  1  1
  6  4  1  0
  6  7  2  0
  8  9  1  0
  9 10  2  0
 10 11  1  0
 12 11  2  0
 12 13  1  0
 14 15  1  0
 14 13  1  6
 15  6  1  0
 16 14  1  0
 17 16  2  0
 18 12  1  0
 19  9  1  0
 19 18  2  0
 21 20  1  1
 21 22  1  0
 23 21  1  0
 23 24  1  1
 24 16  1  0
 25 27  1  0
 25 23  1  0
 26 25  2  0
M  END
$$$$
