TYV.pdb
     RDKit          3D

 27 27  0  0  1  0  0  0  0  0999 V2000
    7.0619  -21.6801   21.7246 C   0  0  0  0  0  0  0  0  0  0  0  0
    6.9537  -22.0756   20.2736 C   0  0  1  0  0  0  0  0  0  0  0  0
    6.3021  -23.2911   20.1473 O   0  0  0  0  0  0  0  0  0  0  0  0
    6.3454  -20.9912   19.4234 C   0  0  2  0  0  0  0  0  0  0  0  0
    6.2629  -21.4507   18.0536 N   0  0  0  0  0  0  0  0  0  0  0  0
    7.0654  -19.7204   19.4645 C   0  0  0  0  0  0  0  0  0  0  0  0
    8.1844  -19.6186   18.9035 O   0  0  0  0  0  0  0  0  0  0  0  0
    8.8284  -11.1291   19.9646 O   0  0  0  0  0  0  0  0  0  0  0  0
    8.2116  -12.3806   20.0962 C   0  0  0  0  0  0  0  0  0  0  0  0
    7.8382  -12.8702   21.3316 C   0  0  0  0  0  0  0  0  0  0  0  0
    7.2302  -14.0919   21.5138 C   0  0  0  0  0  0  0  0  0  0  0  0
    6.9729  -14.8807   20.4182 C   0  0  0  0  0  0  0  0  0  0  0  0
    6.3186  -16.2137   20.5347 C   0  0  0  0  0  0  0  0  0  0  0  0
    7.3281  -17.3303   20.2417 C   0  0  2  0  0  0  0  0  0  0  0  0
    6.5837  -18.5464   20.1121 N   0  0  0  0  0  0  0  0  0  0  0  0
    8.2600  -17.3513   21.3978 C   0  0  0  0  0  0  0  0  0  0  0  0
    7.8350  -17.6104   22.5506 O   0  0  0  0  0  0  0  0  0  0  0  0
    7.3373  -14.4114   19.1761 C   0  0  0  0  0  0  0  0  0  0  0  0
    7.9454  -13.1860   19.0094 C   0  0  0  0  0  0  0  0  0  0  0  0
   11.5385  -19.3387   21.7859 C   0  0  0  0  0  0  0  0  0  0  0  0
   11.7933  -17.9047   22.1078 C   0  0  1  0  0  0  0  0  0  0  0  0
   12.5165  -17.2358   20.9848 C   0  0  0  0  0  0  0  0  0  0  0  0
   10.5202  -17.1357   22.4042 C   0  0  2  0  0  0  0  0  0  0  0  0
    9.6487  -17.0845   21.2574 N   0  0  0  0  0  0  0  0  0  0  0  0
   10.8324  -15.7793   22.9187 C   0  0  0  0  0  0  0  0  0  0  0  0
   11.3168  -15.5811   24.0558 O   0  0  0  0  0  0  0  0  0  0  0  0
   10.5805  -14.6823   22.1139 O   0  0  0  0  0  0  0  0  0  0  0  0
  2  1  1  1
  2  3  1  0
  4  2  1  0
  4  5  1  6
  6  4  1  0
  6  7  2  0
  8  9  1  0
  9 10  2  0
 10 11  1  0
 12 11  2  0
 12 13  1  0
 14 15  1  0
 14 13  1  1
 15  6  1  0
 16 14  1  0
 17 16  2  0
 18 12  1  0
 19  9  1  0
 19 18  2  0
 21 20  1  6
 21 22  1  0
 23 21  1  0
 23 24  1  6
 24 16  1  0
 25 27  1  0
 25 23  1  0
 26 25  2  0
M  END
$$$$
