TYV.pdb
     RDKit          3D

 27 27  0  0  1  0  0  0  0  0999 V2000
   11.0307  -19.2683   22.3103 C   0  0  0  0  0  0  0  0  0  0  0  0
   11.9029  -18.4663   21.3778 C   0  0  1  0  0  0  0  0  0  0  0  0
   12.3896  -19.2662   20.3574 O   0  0  0  0  0  0  0  0  0  0  0  0
   11.2191  -17.2222   20.8745 C   0  0  2  0  0  0  0  0  0  0  0  0
   12.1014  -16.5318   19.9584 N   0  0  0  0  0  0  0  0  0  0  0  0
   10.7976  -16.3004   21.9270 C   0  0  0  0  0  0  0  0  0  0  0  0
   11.6398  -15.5388   22.4636 O   0  0  0  0  0  0  0  0  0  0  0  0
    5.7514  -11.4555   27.3209 O   0  0  0  0  0  0  0  0  0  0  0  0
    6.1951  -12.3709   26.3569 C   0  0  0  0  0  0  0  0  0  0  0  0
    5.8684  -13.7097   26.4348 C   0  0  0  0  0  0  0  0  0  0  0  0
    6.2787  -14.6478   25.5144 C   0  0  0  0  0  0  0  0  0  0  0  0
    7.0563  -14.2485   24.4539 C   0  0  0  0  0  0  0  0  0  0  0  0
    7.5387  -15.2039   23.4181 C   0  0  0  0  0  0  0  0  0  0  0  0
    9.0620  -15.3582   23.5035 C   0  0  2  0  0  0  0  0  0  0  0  0
    9.4620  -16.1920   22.4105 N   0  0  0  0  0  0  0  0  0  0  0  0
    9.3357  -15.9780   24.8250 C   0  0  0  0  0  0  0  0  0  0  0  0
    9.3990  -17.2269   24.9389 O   0  0  0  0  0  0  0  0  0  0  0  0
    7.3938  -12.9172   24.3570 C   0  0  0  0  0  0  0  0  0  0  0  0
    6.9755  -11.9895   25.2864 C   0  0  0  0  0  0  0  0  0  0  0  0
   11.0071  -15.3404   29.4741 C   0  0  0  0  0  0  0  0  0  0  0  0
   10.2899  -14.7840   28.2906 C   0  0  1  0  0  0  0  0  0  0  0  0
   10.9859  -13.5641   27.7816 C   0  0  0  0  0  0  0  0  0  0  0  0
   10.1587  -15.7867   27.1603 C   0  0  2  0  0  0  0  0  0  0  0  0
    9.5349  -15.2031   25.9994 N   0  0  0  0  0  0  0  0  0  0  0  0
    9.4422  -17.0033   27.6166 C   0  0  0  0  0  0  0  0  0  0  0  0
    9.9414  -17.8215   28.4218 O   0  0  0  0  0  0  0  0  0  0  0  0
    8.1683  -17.2512   27.1365 O   0  0  0  0  0  0  0  0  0  0  0  0
  2  1  1  6
  2  3  1  0
  4  2  1  0
  4  5  1  6
  6  4  1  0
  6  7  2  0
  8  9  1  0
  9 10  2  0
 10 11  1  0
 12 11  2  0
 12 13  1  0
 14 15  1  0
 14 13  1  6
 15  6  1  0
 16 14  1  0
 17 16  2  0
 18 12  1  0
 19  9  1  0
 19 18  2  0
 21 20  1  1
 21 22  1  0
 23 21  1  0
 23 24  1  6
 24 16  1  0
 25 27  1  0
 25 23  1  0
 26 25  2  0
M  END
$$$$
