TYV.pdb
     RDKit          3D

 27 27  0  0  1  0  0  0  0  0999 V2000
    8.6772  -13.9535   20.3287 C   0  0  0  0  0  0  0  0  0  0  0  0
    7.5937  -14.7438   19.6397 C   0  0  1  0  0  0  0  0  0  0  0  0
    7.7078  -14.6305   18.2641 O   0  0  0  0  0  0  0  0  0  0  0  0
    7.5347  -16.1738   20.1090 C   0  0  2  0  0  0  0  0  0  0  0  0
    6.4710  -16.8609   19.4085 N   0  0  0  0  0  0  0  0  0  0  0  0
    7.3424  -16.3262   21.5494 C   0  0  0  0  0  0  0  0  0  0  0  0
    6.2223  -16.0760   22.0594 O   0  0  0  0  0  0  0  0  0  0  0  0
    8.0991  -19.3184   29.7681 O   0  0  0  0  0  0  0  0  0  0  0  0
    8.3579  -18.9835   28.4321 C   0  0  0  0  0  0  0  0  0  0  0  0
    9.5980  -18.5261   28.0342 C   0  0  0  0  0  0  0  0  0  0  0  0
    9.9023  -18.1844   26.7357 C   0  0  0  0  0  0  0  0  0  0  0  0
    8.9316  -18.2982   25.7694 C   0  0  0  0  0  0  0  0  0  0  0  0
    9.1846  -17.9481   24.3440 C   0  0  0  0  0  0  0  0  0  0  0  0
    8.1747  -16.8978   23.8659 C   0  0  2  0  0  0  0  0  0  0  0  0
    8.3582  -16.7504   22.4536 N   0  0  0  0  0  0  0  0  0  0  0  0
    8.4919  -15.6559   24.6160 C   0  0  0  0  0  0  0  0  0  0  0  0
    9.4912  -14.9633   24.3025 O   0  0  0  0  0  0  0  0  0  0  0  0
    7.6873  -18.7526   26.1447 C   0  0  0  0  0  0  0  0  0  0  0  0
    7.3975  -19.0909   27.4489 C   0  0  0  0  0  0  0  0  0  0  0  0
    7.0216  -11.9666   27.5294 C   0  0  0  0  0  0  0  0  0  0  0  0
    6.7355  -13.2232   26.7784 C   0  0  1  0  0  0  0  0  0  0  0  0
    5.9072  -12.9343   25.5693 C   0  0  0  0  0  0  0  0  0  0  0  0
    7.9961  -13.9508   26.3523 C   0  0  2  0  0  0  0  0  0  0  0  0
    7.6959  -15.2016   25.7020 N   0  0  0  0  0  0  0  0  0  0  0  0
    8.9119  -14.1362   27.5050 C   0  0  0  0  0  0  0  0  0  0  0  0
    9.0421  -15.2311   28.0975 O   0  0  0  0  0  0  0  0  0  0  0  0
    9.6570  -13.0583   27.9497 O   0  0  0  0  0  0  0  0  0  0  0  0
  2  1  1  1
  2  3  1  0
  4  2  1  0
  4  5  1  6
  6  4  1  0
  6  7  2  0
  8  9  1  0
  9 10  2  0
 10 11  1  0
 12 11  2  0
 12 13  1  0
 14 15  1  0
 14 13  1  1
 15  6  1  0
 16 14  1  0
 17 16  2  0
 18 12  1  0
 19  9  1  0
 19 18  2  0
 21 20  1  6
 21 22  1  0
 23 21  1  0
 23 24  1  1
 24 16  1  0
 25 27  1  0
 25 23  1  0
 26 25  2  0
M  END
$$$$
