TYV.pdb
     RDKit          3D

 27 27  0  0  1  0  0  0  0  0999 V2000
    8.6480  -19.4192   20.6526 C   0  0  0  0  0  0  0  0  0  0  0  0
    9.4878  -18.7207   19.6132 C   0  0  1  0  0  0  0  0  0  0  0  0
    9.4415  -19.4043   18.4097 O   0  0  0  0  0  0  0  0  0  0  0  0
    9.1395  -17.2619   19.4746 C   0  0  2  0  0  0  0  0  0  0  0  0
    9.9285  -16.6836   18.4081 N   0  0  0  0  0  0  0  0  0  0  0  0
    9.3288  -16.4802   20.6945 C   0  0  0  0  0  0  0  0  0  0  0  0
   10.4845  -16.3181   21.1587 O   0  0  0  0  0  0  0  0  0  0  0  0
    7.2877  -12.1694   28.2102 O   0  0  0  0  0  0  0  0  0  0  0  0
    7.2291  -12.7789   26.9496 C   0  0  0  0  0  0  0  0  0  0  0  0
    7.9597  -12.2942   25.8835 C   0  0  0  0  0  0  0  0  0  0  0  0
    7.9366  -12.8564   24.6270 C   0  0  0  0  0  0  0  0  0  0  0  0
    7.1495  -13.9605   24.4028 C   0  0  0  0  0  0  0  0  0  0  0  0
    7.0721  -14.6241   23.0716 C   0  0  0  0  0  0  0  0  0  0  0  0
    8.4303  -15.2305   22.6986 C   0  0  2  0  0  0  0  0  0  0  0  0
    8.2716  -15.8657   21.4254 N   0  0  0  0  0  0  0  0  0  0  0  0
    8.7581  -16.1934   23.7807 C   0  0  0  0  0  0  0  0  0  0  0  0
    8.0400  -17.2065   23.9672 O   0  0  0  0  0  0  0  0  0  0  0  0
    6.4124  -14.4604   25.4528 C   0  0  0  0  0  0  0  0  0  0  0  0
    6.4457  -13.8867   26.7054 C   0  0  0  0  0  0  0  0  0  0  0  0
   12.1108  -18.4334   26.4922 C   0  0  0  0  0  0  0  0  0  0  0  0
   11.6948  -17.4347   25.4654 C   0  0  1  0  0  0  0  0  0  0  0  0
   11.9436  -17.9620   24.0900 C   0  0  0  0  0  0  0  0  0  0  0  0
   10.2352  -17.0416   25.5880 C   0  0  2  0  0  0  0  0  0  0  0  0
    9.8770  -16.0178   24.6389 N   0  0  0  0  0  0  0  0  0  0  0  0
    9.9138  -16.6384   26.9794 C   0  0  0  0  0  0  0  0  0  0  0  0
    9.8793  -17.4524   27.9297 O   0  0  0  0  0  0  0  0  0  0  0  0
    9.6396  -15.3086   27.2461 O   0  0  0  0  0  0  0  0  0  0  0  0
  2  1  1  1
  2  3  1  0
  4  2  1  0
  4  5  1  6
  6  4  1  0
  6  7  2  0
  8  9  1  0
  9 10  2  0
 10 11  1  0
 12 11  2  0
 12 13  1  0
 14 15  1  0
 14 13  1  1
 15  6  1  0
 16 14  1  0
 17 16  2  0
 18 12  1  0
 19  9  1  0
 19 18  2  0
 21 20  1  1
 21 22  1  0
 23 21  1  0
 23 24  1  6
 24 16  1  0
 25 27  1  0
 25 23  1  0
 26 25  2  0
M  END
$$$$
