TYV.pdb
     RDKit          3D

 27 27  0  0  1  0  0  0  0  0999 V2000
    6.7387  -17.3320   18.6005 C   0  0  0  0  0  0  0  0  0  0  0  0
    7.3149  -17.0099   19.9562 C   0  0  1  0  0  0  0  0  0  0  0  0
    8.1374  -18.0354   20.3921 O   0  0  0  0  0  0  0  0  0  0  0  0
    7.9861  -15.6620   19.9929 C   0  0  2  0  0  0  0  0  0  0  0  0
    9.0551  -15.6361   19.0178 N   0  0  0  0  0  0  0  0  0  0  0  0
    8.5171  -15.2905   21.3025 C   0  0  0  0  0  0  0  0  0  0  0  0
    9.7246  -15.5077   21.5708 O   0  0  0  0  0  0  0  0  0  0  0  0
    8.8344  -12.6400   29.7410 O   0  0  0  0  0  0  0  0  0  0  0  0
    8.4088  -12.9288   28.4373 C   0  0  0  0  0  0  0  0  0  0  0  0
    7.1651  -12.5364   27.9851 C   0  0  0  0  0  0  0  0  0  0  0  0
    6.7008  -12.7954   26.7151 C   0  0  0  0  0  0  0  0  0  0  0  0
    7.5049  -13.4805   25.8360 C   0  0  0  0  0  0  0  0  0  0  0  0
    7.0730  -13.7982   24.4463 C   0  0  0  0  0  0  0  0  0  0  0  0
    8.2214  -14.4511   23.6675 C   0  0  2  0  0  0  0  0  0  0  0  0
    7.7490  -14.6805   22.3356 N   0  0  0  0  0  0  0  0  0  0  0  0
    8.5373  -15.7114   24.3868 C   0  0  0  0  0  0  0  0  0  0  0  0
    7.7802  -16.7078   24.2829 O   0  0  0  0  0  0  0  0  0  0  0  0
    8.7497  -13.8813   26.2667 C   0  0  0  0  0  0  0  0  0  0  0  0
    9.2008  -13.6147   27.5413 C   0  0  0  0  0  0  0  0  0  0  0  0
   11.5725  -19.0864   24.7485 C   0  0  0  0  0  0  0  0  0  0  0  0
   10.9678  -17.7692   24.3965 C   0  0  1  0  0  0  0  0  0  0  0  0
   10.0619  -17.9066   23.2166 C   0  0  0  0  0  0  0  0  0  0  0  0
   10.1931  -17.1542   25.5462 C   0  0  2  0  0  0  0  0  0  0  0  0
    9.6877  -15.8470   25.2099 N   0  0  0  0  0  0  0  0  0  0  0  0
   11.0171  -17.1247   26.7798 C   0  0  0  0  0  0  0  0  0  0  0  0
   11.6738  -16.1188   27.1318 O   0  0  0  0  0  0  0  0  0  0  0  0
   11.0671  -18.2523   27.5803 O   0  0  0  0  0  0  0  0  0  0  0  0
  2  1  1  6
  2  3  1  0
  4  2  1  0
  4  5  1  6
  6  4  1  0
  6  7  2  0
  8  9  1  0
  9 10  2  0
 10 11  1  0
 12 11  2  0
 12 13  1  0
 14 15  1  0
 14 13  1  1
 15  6  1  0
 16 14  1  0
 17 16  2  0
 18 12  1  0
 19  9  1  0
 19 18  2  0
 21 20  1  1
 21 22  1  0
 23 21  1  0
 23 24  1  6
 24 16  1  0
 25 27  1  0
 25 23  1  0
 26 25  2  0
M  END
$$$$
