TYV.pdb
     RDKit          3D

 27 27  0  0  1  0  0  0  0  0999 V2000
   10.6874  -20.1661   21.1656 C   0  0  0  0  0  0  0  0  0  0  0  0
   10.5610  -19.0053   22.1196 C   0  0  1  0  0  0  0  0  0  0  0  0
   11.5935  -19.0184   23.0425 O   0  0  0  0  0  0  0  0  0  0  0  0
   10.4256  -17.6849   21.4075 C   0  0  2  0  0  0  0  0  0  0  0  0
   11.6257  -17.4338   20.6387 N   0  0  0  0  0  0  0  0  0  0  0  0
   10.1708  -16.5491   22.2907 C   0  0  0  0  0  0  0  0  0  0  0  0
   11.1228  -15.8145   22.6531 O   0  0  0  0  0  0  0  0  0  0  0  0
    5.9229  -10.5330   27.2232 O   0  0  0  0  0  0  0  0  0  0  0  0
    6.2542  -11.5228   26.2880 C   0  0  0  0  0  0  0  0  0  0  0  0
    5.8106  -12.8221   26.4307 C   0  0  0  0  0  0  0  0  0  0  0  0
    6.1080  -13.8297   25.5408 C   0  0  0  0  0  0  0  0  0  0  0  0
    6.8875  -13.5456   24.4452 C   0  0  0  0  0  0  0  0  0  0  0  0
    7.2517  -14.5816   23.4390 C   0  0  0  0  0  0  0  0  0  0  0  0
    8.6448  -15.1486   23.7383 C   0  0  2  0  0  0  0  0  0  0  0  0
    8.8849  -16.1953   22.7914 N   0  0  0  0  0  0  0  0  0  0  0  0
    8.5914  -15.6446   25.1370 C   0  0  0  0  0  0  0  0  0  0  0  0
    7.5885  -15.4100   25.8553 O   0  0  0  0  0  0  0  0  0  0  0  0
    7.3407  -12.2555   24.2836 C   0  0  0  0  0  0  0  0  0  0  0  0
    7.0346  -11.2572   25.1830 C   0  0  0  0  0  0  0  0  0  0  0  0
   10.5903  -14.8923   29.0444 C   0  0  0  0  0  0  0  0  0  0  0  0
    9.7182  -15.2855   27.9000 C   0  0  1  0  0  0  0  0  0  0  0  0
    8.8708  -14.1339   27.4668 C   0  0  0  0  0  0  0  0  0  0  0  0
   10.5080  -15.7941   26.7093 C   0  0  2  0  0  0  0  0  0  0  0  0
    9.6509  -16.3930   25.7173 N   0  0  0  0  0  0  0  0  0  0  0  0
   11.5777  -16.7250   27.1462 C   0  0  0  0  0  0  0  0  0  0  0  0
   12.4462  -16.4103   27.9909 O   0  0  0  0  0  0  0  0  0  0  0  0
   11.6241  -17.9963   26.6017 O   0  0  0  0  0  0  0  0  0  0  0  0
  2  1  1  6
  2  3  1  0
  4  2  1  0
  4  5  1  1
  6  4  1  0
  6  7  2  0
  8  9  1  0
  9 10  2  0
 10 11  1  0
 12 11  2  0
 12 13  1  0
 14 15  1  0
 14 13  1  6
 15  6  1  0
 16 14  1  0
 17 16  2  0
 18 12  1  0
 19  9  1  0
 19 18  2  0
 21 20  1  1
 21 22  1  0
 23 21  1  0
 23 24  1  6
 24 16  1  0
 25 27  1  0
 25 23  1  0
 26 25  2  0
M  END
$$$$
