IQT.pdb
     RDKit          3D

 25 24  0  0  1  0  0  0  0  0999 V2000
    6.0215  -11.0163   26.4876 C   0  0  0  0  0  0  0  0  0  0  0  0
    5.8243  -12.4961   26.2447 C   0  0  0  0  0  0  0  0  0  0  0  0
    7.1537  -13.1214   25.7830 C   0  0  2  0  0  0  0  0  0  0  0  0
    7.4985  -12.4841   24.4587 C   0  0  0  0  0  0  0  0  0  0  0  0
    6.8817  -14.5939   25.5558 C   0  0  2  0  0  0  0  0  0  0  0  0
    5.9651  -15.0285   26.6412 N   0  0  0  0  0  0  0  0  0  0  0  0
    8.0850  -15.4447   25.6242 C   0  0  0  0  0  0  0  0  0  0  0  0
    9.0206  -15.1474   26.4484 O   0  0  0  0  0  0  0  0  0  0  0  0
    9.7349  -20.5043   27.5678 N   0  0  0  0  0  0  0  0  0  0  0  0
    9.4804  -19.2042   28.1156 C   0  0  0  0  0  0  0  0  0  0  0  0
    9.3994  -19.1412   29.3711 O   0  0  0  0  0  0  0  0  0  0  0  0
    9.3232  -18.0086   27.2434 C   0  0  0  0  0  0  0  0  0  0  0  0
    9.6269  -18.4348   25.8318 C   0  0  0  0  0  0  0  0  0  0  0  0
    9.6127  -17.2913   24.8550 C   0  0  2  0  0  0  0  0  0  0  0  0
    8.3266  -16.6013   24.8487 N   0  0  0  0  0  0  0  0  0  0  0  0
   10.0134  -17.6991   23.4914 C   0  0  0  0  0  0  0  0  0  0  0  0
    9.2699  -18.4604   22.8629 O   0  0  0  0  0  0  0  0  0  0  0  0
   10.0717  -16.1253   20.2774 C   0  0  0  0  0  0  0  0  0  0  0  0
   11.5196  -16.4815   20.5588 C   0  0  1  0  0  0  0  0  0  0  0  0
   12.3085  -15.3554   20.7684 O   0  0  0  0  0  0  0  0  0  0  0  0
   11.6784  -17.5240   21.6001 C   0  0  2  0  0  0  0  0  0  0  0  0
   11.1937  -17.2560   22.8963 N   0  0  0  0  0  0  0  0  0  0  0  0
   13.1119  -17.8949   21.6798 C   0  0  0  0  0  0  0  0  0  0  0  0
   13.8076  -18.4177   20.5945 O   0  0  0  0  0  0  0  0  0  0  0  0
   13.7094  -17.7267   22.7718 O   0  0  0  0  0  0  0  0  0  0  0  0
  1  2  1  0
  3  2  1  0
  3  5  1  0
  3  4  1  6
  5  7  1  0
  5  6  1  1
  7  8  2  0
  9 10  1  0
 10 12  1  0
 11 10  2  0
 13 12  1  0
 14 13  1  1
 15 14  1  0
 15  7  1  0
 16 17  2  0
 16 14  1  0
 19 18  1  1
 19 21  1  0
 20 19  1  0
 21 22  1  1
 21 23  1  0
 22 16  1  0
 23 24  1  0
 25 23  2  0
M  END
$$$$
