IQT.pdb
     RDKit          3D

 25 24  0  0  1  0  0  0  0  0999 V2000
    6.1814  -12.7830   19.7700 C   0  0  0  0  0  0  0  0  0  0  0  0
    7.1699  -13.0547   18.6580 C   0  0  0  0  0  0  0  0  0  0  0  0
    8.3924  -13.7970   19.2288 C   0  0  2  0  0  0  0  0  0  0  0  0
    9.0822  -12.8405   20.1712 C   0  0  0  0  0  0  0  0  0  0  0  0
    9.3138  -14.0735   18.0591 C   0  0  2  0  0  0  0  0  0  0  0  0
    8.5588  -14.9432   17.1206 N   0  0  0  0  0  0  0  0  0  0  0  0
   10.5525  -14.7864   18.4254 C   0  0  0  0  0  0  0  0  0  0  0  0
   10.5610  -16.0681   18.4386 O   0  0  0  0  0  0  0  0  0  0  0  0
   15.5237  -15.6410   17.0706 N   0  0  0  0  0  0  0  0  0  0  0  0
   16.0427  -15.7193   18.4047 C   0  0  0  0  0  0  0  0  0  0  0  0
   17.0456  -16.4650   18.5631 O   0  0  0  0  0  0  0  0  0  0  0  0
   15.4253  -14.9607   19.5265 C   0  0  0  0  0  0  0  0  0  0  0  0
   14.2266  -14.2348   18.9765 C   0  0  0  0  0  0  0  0  0  0  0  0
   12.9332  -14.9615   19.2233 C   0  0  2  0  0  0  0  0  0  0  0  0
   11.7821  -14.1840   18.7754 N   0  0  0  0  0  0  0  0  0  0  0  0
   12.7791  -15.3934   20.6290 C   0  0  0  0  0  0  0  0  0  0  0  0
   12.8195  -14.5338   21.5161 O   0  0  0  0  0  0  0  0  0  0  0  0
   11.9313  -19.1790   23.8260 C   0  0  0  0  0  0  0  0  0  0  0  0
   11.9768  -18.6782   22.3945 C   0  0  1  0  0  0  0  0  0  0  0  0
   10.7844  -18.9093   21.7168 O   0  0  0  0  0  0  0  0  0  0  0  0
   12.4731  -17.2871   22.2722 C   0  0  2  0  0  0  0  0  0  0  0  0
   12.5913  -16.7285   20.9835 N   0  0  0  0  0  0  0  0  0  0  0  0
   13.7778  -17.1899   22.9701 C   0  0  0  0  0  0  0  0  0  0  0  0
   13.8845  -17.2149   24.3569 O   0  0  0  0  0  0  0  0  0  0  0  0
   14.8176  -17.0814   22.2738 O   0  0  0  0  0  0  0  0  0  0  0  0
  1  2  1  0
  3  2  1  0
  3  5  1  0
  3  4  1  1
  5  7  1  0
  5  6  1  6
  7  8  2  0
  9 10  1  0
 10 12  1  0
 11 10  2  0
 13 12  1  0
 14 13  1  1
 15 14  1  0
 15  7  1  0
 16 17  2  0
 16 14  1  0
 19 18  1  1
 19 21  1  0
 20 19  1  0
 21 22  1  6
 21 23  1  0
 22 16  1  0
 23 24  1  0
 25 23  2  0
M  END
$$$$
