IQT.pdb
     RDKit          3D

 25 24  0  0  1  0  0  0  0  0999 V2000
    7.9812  -16.7646   19.0703 C   0  0  0  0  0  0  0  0  0  0  0  0
    8.3377  -15.3719   19.5403 C   0  0  0  0  0  0  0  0  0  0  0  0
    7.0558  -14.6280   19.9582 C   0  0  2  0  0  0  0  0  0  0  0  0
    6.3364  -14.2506   18.6858 C   0  0  0  0  0  0  0  0  0  0  0  0
    7.5011  -13.3604   20.6572 C   0  0  2  0  0  0  0  0  0  0  0  0
    8.4544  -12.6831   19.7409 N   0  0  0  0  0  0  0  0  0  0  0  0
    8.2024  -13.5930   21.9341 C   0  0  0  0  0  0  0  0  0  0  0  0
    9.4743  -13.4434   21.9904 O   0  0  0  0  0  0  0  0  0  0  0  0
    6.9519  -11.9009   27.6071 N   0  0  0  0  0  0  0  0  0  0  0  0
    6.1221  -11.9440   26.4390 C   0  0  0  0  0  0  0  0  0  0  0  0
    5.0349  -11.3118   26.5115 O   0  0  0  0  0  0  0  0  0  0  0  0
    6.5311  -12.6938   25.2202 C   0  0  0  0  0  0  0  0  0  0  0  0
    7.8780  -13.3068   25.4964 C   0  0  0  0  0  0  0  0  0  0  0  0
    8.3684  -14.1818   24.3756 C   0  0  2  0  0  0  0  0  0  0  0  0
    7.5984  -13.9765   23.1529 N   0  0  0  0  0  0  0  0  0  0  0  0
    8.4204  -15.6119   24.7475 C   0  0  0  0  0  0  0  0  0  0  0  0
    7.3645  -16.2540   24.7641 O   0  0  0  0  0  0  0  0  0  0  0  0
   10.6151  -18.5334   23.1988 C   0  0  0  0  0  0  0  0  0  0  0  0
   10.8939  -18.3448   24.6783 C   0  0  1  0  0  0  0  0  0  0  0  0
   12.1686  -17.8410   24.9147 O   0  0  0  0  0  0  0  0  0  0  0  0
    9.8208  -17.6128   25.3917 C   0  0  2  0  0  0  0  0  0  0  0  0
    9.6127  -16.2546   25.0774 N   0  0  0  0  0  0  0  0  0  0  0  0
   10.0479  -17.7490   26.8507 C   0  0  0  0  0  0  0  0  0  0  0  0
   10.1418  -18.9873   27.4776 O   0  0  0  0  0  0  0  0  0  0  0  0
   10.1580  -16.7017   27.5353 O   0  0  0  0  0  0  0  0  0  0  0  0
  1  2  1  0
  3  2  1  0
  3  5  1  0
  3  4  1  6
  5  7  1  0
  5  6  1  6
  7  8  2  0
  9 10  1  0
 10 12  1  0
 11 10  2  0
 13 12  1  0
 14 13  1  1
 15 14  1  0
 15  7  1  0
 16 17  2  0
 16 14  1  0
 19 18  1  6
 19 21  1  0
 20 19  1  0
 21 22  1  6
 21 23  1  0
 22 16  1  0
 23 24  1  0
 25 23  2  0
M  END
$$$$
