IQT.pdb
     RDKit          3D

 25 24  0  0  1  0  0  0  0  0999 V2000
    5.6161  -11.0074   26.8156 C   0  0  0  0  0  0  0  0  0  0  0  0
    5.3242  -12.2950   26.0777 C   0  0  0  0  0  0  0  0  0  0  0  0
    6.6199  -13.1171   25.9488 C   0  0  2  0  0  0  0  0  0  0  0  0
    7.5977  -12.2705   25.1703 C   0  0  0  0  0  0  0  0  0  0  0  0
    6.2747  -14.3400   25.1247 C   0  0  2  0  0  0  0  0  0  0  0  0
    5.2582  -15.0994   25.8977 N   0  0  0  0  0  0  0  0  0  0  0  0
    7.4154  -15.2440   24.8840 C   0  0  0  0  0  0  0  0  0  0  0  0
    7.8246  -16.0070   25.8292 O   0  0  0  0  0  0  0  0  0  0  0  0
    9.8250  -17.9595   19.8067 N   0  0  0  0  0  0  0  0  0  0  0  0
    8.6312  -17.1835   19.9731 C   0  0  0  0  0  0  0  0  0  0  0  0
    7.7717  -17.2914   19.0584 O   0  0  0  0  0  0  0  0  0  0  0  0
    8.4308  -16.3070   21.1590 C   0  0  0  0  0  0  0  0  0  0  0  0
    9.6031  -16.5163   22.0800 C   0  0  0  0  0  0  0  0  0  0  0  0
    9.2672  -16.2742   23.5259 C   0  0  2  0  0  0  0  0  0  0  0  0
    8.1338  -15.3666   23.6731 N   0  0  0  0  0  0  0  0  0  0  0  0
   10.4314  -15.8168   24.3145 C   0  0  0  0  0  0  0  0  0  0  0  0
   11.0687  -14.8386   23.9091 O   0  0  0  0  0  0  0  0  0  0  0  0
   10.7689  -14.2532   27.7894 C   0  0  0  0  0  0  0  0  0  0  0  0
   11.4146  -15.6260   27.7614 C   0  0  1  0  0  0  0  0  0  0  0  0
   10.6627  -16.5764   28.4440 O   0  0  0  0  0  0  0  0  0  0  0  0
   11.8293  -16.0548   26.4047 C   0  0  2  0  0  0  0  0  0  0  0  0
   10.8303  -16.4484   25.4916 N   0  0  0  0  0  0  0  0  0  0  0  0
   12.8266  -17.1437   26.5397 C   0  0  0  0  0  0  0  0  0  0  0  0
   14.0307  -16.9717   27.2147 O   0  0  0  0  0  0  0  0  0  0  0  0
   12.5640  -18.2576   26.0218 O   0  0  0  0  0  0  0  0  0  0  0  0
  1  2  1  0
  3  2  1  0
  3  5  1  0
  3  4  1  6
  5  7  1  0
  5  6  1  1
  7  8  2  0
  9 10  1  0
 10 12  1  0
 11 10  2  0
 13 12  1  0
 14 13  1  6
 15 14  1  0
 15  7  1  0
 16 17  2  0
 16 14  1  0
 19 18  1  6
 19 21  1  0
 20 19  1  0
 21 22  1  6
 21 23  1  0
 22 16  1  0
 23 24  1  0
 25 23  2  0
M  END
$$$$
