IQT.pdb
     RDKit          3D

 25 24  0  0  1  0  0  0  0  0999 V2000
    7.1135  -12.0320   19.3637 C   0  0  0  0  0  0  0  0  0  0  0  0
    7.7523  -13.2725   18.7801 C   0  0  0  0  0  0  0  0  0  0  0  0
    8.3430  -14.1279   19.9161 C   0  0  2  0  0  0  0  0  0  0  0  0
    9.4090  -13.2919   20.5822 C   0  0  0  0  0  0  0  0  0  0  0  0
    9.0039  -15.3214   19.2585 C   0  0  2  0  0  0  0  0  0  0  0  0
    7.9335  -16.0524   18.5324 N   0  0  0  0  0  0  0  0  0  0  0  0
    9.6201  -16.2665   20.2090 C   0  0  0  0  0  0  0  0  0  0  0  0
    8.8750  -17.0841   20.8566 O   0  0  0  0  0  0  0  0  0  0  0  0
   15.3826  -18.7351   20.6658 N   0  0  0  0  0  0  0  0  0  0  0  0
   14.4180  -18.7924   19.6068 C   0  0  0  0  0  0  0  0  0  0  0  0
   14.8490  -19.1821   18.4891 O   0  0  0  0  0  0  0  0  0  0  0  0
   12.9961  -18.4118   19.8269 C   0  0  0  0  0  0  0  0  0  0  0  0
   12.9068  -17.7571   21.1795 C   0  0  0  0  0  0  0  0  0  0  0  0
   11.5201  -17.2794   21.5126 C   0  0  2  0  0  0  0  0  0  0  0  0
   11.0005  -16.3739   20.4927 N   0  0  0  0  0  0  0  0  0  0  0  0
   11.4299  -16.6817   22.8620 C   0  0  0  0  0  0  0  0  0  0  0  0
   12.0204  -15.6169   23.0742 O   0  0  0  0  0  0  0  0  0  0  0  0
    8.8357  -14.9006   24.7413 C   0  0  0  0  0  0  0  0  0  0  0  0
    9.1006  -16.2094   25.4618 C   0  0  1  0  0  0  0  0  0  0  0  0
    8.0643  -17.1221   25.2955 O   0  0  0  0  0  0  0  0  0  0  0  0
   10.4430  -16.7734   25.1852 C   0  0  2  0  0  0  0  0  0  0  0  0
   10.7060  -17.2757   23.8948 N   0  0  0  0  0  0  0  0  0  0  0  0
   10.7264  -17.8275   26.1888 C   0  0  0  0  0  0  0  0  0  0  0  0
   10.8449  -17.5507   27.5469 O   0  0  0  0  0  0  0  0  0  0  0  0
   10.8625  -19.0097   25.7866 O   0  0  0  0  0  0  0  0  0  0  0  0
  1  2  1  0
  3  2  1  0
  3  5  1  0
  3  4  1  6
  5  7  1  0
  5  6  1  1
  7  8  2  0
  9 10  1  0
 10 12  1  0
 11 10  2  0
 13 12  1  0
 14 13  1  6
 15 14  1  0
 15  7  1  0
 16 17  2  0
 16 14  1  0
 19 18  1  6
 19 21  1  0
 20 19  1  0
 21 22  1  6
 21 23  1  0
 22 16  1  0
 23 24  1  0
 25 23  2  0
M  END
$$$$
