IQT.pdb
     RDKit          3D

 25 24  0  0  1  0  0  0  0  0999 V2000
    6.7137  -11.5628   28.0069 C   0  0  0  0  0  0  0  0  0  0  0  0
    6.0329  -12.6078   27.1512 C   0  0  0  0  0  0  0  0  0  0  0  0
    7.0641  -13.2429   26.2001 C   0  0  2  0  0  0  0  0  0  0  0  0
    7.5989  -12.1302   25.3312 C   0  0  0  0  0  0  0  0  0  0  0  0
    6.3019  -14.2166   25.3257 C   0  0  2  0  0  0  0  0  0  0  0  0
    5.8723  -15.3323   26.2077 N   0  0  0  0  0  0  0  0  0  0  0  0
    7.1047  -14.7987   24.2333 C   0  0  0  0  0  0  0  0  0  0  0  0
    7.8281  -15.8313   24.4646 O   0  0  0  0  0  0  0  0  0  0  0  0
    8.0515  -12.9039   17.9963 N   0  0  0  0  0  0  0  0  0  0  0  0
    8.4045  -14.2684   18.2583 C   0  0  0  0  0  0  0  0  0  0  0  0
    8.2169  -15.0779   17.3115 O   0  0  0  0  0  0  0  0  0  0  0  0
    8.9584  -14.6909   19.5735 C   0  0  0  0  0  0  0  0  0  0  0  0
    8.0911  -14.0864   20.6453 C   0  0  0  0  0  0  0  0  0  0  0  0
    8.0425  -14.9136   21.9004 C   0  0  2  0  0  0  0  0  0  0  0  0
    7.1628  -14.3226   22.9039 N   0  0  0  0  0  0  0  0  0  0  0  0
    9.3850  -15.1906   22.4550 C   0  0  0  0  0  0  0  0  0  0  0  0
   10.0544  -14.2411   22.8767 O   0  0  0  0  0  0  0  0  0  0  0  0
   10.9239  -17.4246   25.4154 C   0  0  0  0  0  0  0  0  0  0  0  0
   11.2490  -17.9349   24.0240 C   0  0  1  0  0  0  0  0  0  0  0  0
   10.5372  -19.0864   23.7049 O   0  0  0  0  0  0  0  0  0  0  0  0
   11.1835  -16.8842   22.9807 C   0  0  2  0  0  0  0  0  0  0  0  0
    9.9159  -16.4781   22.5170 N   0  0  0  0  0  0  0  0  0  0  0  0
   12.0126  -17.3130   21.8285 C   0  0  0  0  0  0  0  0  0  0  0  0
   13.3833  -17.5253   21.9350 O   0  0  0  0  0  0  0  0  0  0  0  0
   11.4462  -17.4877   20.7210 O   0  0  0  0  0  0  0  0  0  0  0  0
  1  2  1  0
  3  2  1  0
  3  5  1  0
  3  4  1  6
  5  7  1  0
  5  6  1  1
  7  8  2  0
  9 10  1  0
 10 12  1  0
 11 10  2  0
 13 12  1  0
 14 13  1  6
 15 14  1  0
 15  7  1  0
 16 17  2  0
 16 14  1  0
 19 18  1  1
 19 21  1  0
 20 19  1  0
 21 22  1  6
 21 23  1  0
 22 16  1  0
 23 24  1  0
 25 23  2  0
M  END
$$$$
