IQT.pdb
     RDKit          3D

 25 24  0  0  1  0  0  0  0  0999 V2000
    6.5812  -11.7835   28.2055 C   0  0  0  0  0  0  0  0  0  0  0  0
    5.8454  -12.6836   27.2380 C   0  0  0  0  0  0  0  0  0  0  0  0
    6.8522  -13.3168   26.2598 C   0  0  2  0  0  0  0  0  0  0  0  0
    7.5081  -12.1805   25.5131 C   0  0  0  0  0  0  0  0  0  0  0  0
    6.0419  -14.1376   25.2783 C   0  0  2  0  0  0  0  0  0  0  0  0
    5.4296  -15.2457   26.0558 N   0  0  0  0  0  0  0  0  0  0  0  0
    6.8423  -14.7438   24.1974 C   0  0  0  0  0  0  0  0  0  0  0  0
    7.2670  -15.9463   24.3266 O   0  0  0  0  0  0  0  0  0  0  0  0
    7.6646  -12.7413   18.2847 N   0  0  0  0  0  0  0  0  0  0  0  0
    8.2173  -14.0631   18.2360 C   0  0  0  0  0  0  0  0  0  0  0  0
    8.5011  -14.4999   17.0889 O   0  0  0  0  0  0  0  0  0  0  0  0
    8.4379  -14.8614   19.4725 C   0  0  0  0  0  0  0  0  0  0  0  0
    7.8866  -14.0686   20.6275 C   0  0  0  0  0  0  0  0  0  0  0  0
    7.9375  -14.8150   21.9322 C   0  0  2  0  0  0  0  0  0  0  0  0
    7.2044  -14.1169   22.9836 N   0  0  0  0  0  0  0  0  0  0  0  0
    9.3181  -15.1323   22.3560 C   0  0  0  0  0  0  0  0  0  0  0  0
    9.8770  -14.3734   23.1553 O   0  0  0  0  0  0  0  0  0  0  0  0
   10.8911  -17.3975   24.7518 C   0  0  0  0  0  0  0  0  0  0  0  0
   11.1849  -17.8803   23.3437 C   0  0  1  0  0  0  0  0  0  0  0  0
   10.3767  -18.9500   22.9735 O   0  0  0  0  0  0  0  0  0  0  0  0
   11.2254  -16.7882   22.3426 C   0  0  2  0  0  0  0  0  0  0  0  0
   10.0044  -16.2513   21.8866 N   0  0  0  0  0  0  0  0  0  0  0  0
   12.0246  -17.2449   21.1801 C   0  0  0  0  0  0  0  0  0  0  0  0
   13.3831  -17.5288   21.2753 O   0  0  0  0  0  0  0  0  0  0  0  0
   11.4435  -17.3765   20.0743 O   0  0  0  0  0  0  0  0  0  0  0  0
  1  2  1  0
  3  2  1  0
  3  5  1  0
  3  4  1  6
  5  7  1  0
  5  6  1  1
  7  8  2  0
  9 10  1  0
 10 12  1  0
 11 10  2  0
 13 12  1  0
 14 13  1  6
 15 14  1  0
 15  7  1  0
 16 17  2  0
 16 14  1  0
 19 18  1  1
 19 21  1  0
 20 19  1  0
 21 22  1  6
 21 23  1  0
 22 16  1  0
 23 24  1  0
 25 23  2  0
M  END
$$$$
