IQT.pdb
     RDKit          3D

 25 24  0  0  1  0  0  0  0  0999 V2000
    7.5146  -12.2263   18.7588 C   0  0  0  0  0  0  0  0  0  0  0  0
    8.0497  -13.6123   19.0425 C   0  0  0  0  0  0  0  0  0  0  0  0
    7.6005  -14.0578   20.4464 C   0  0  2  0  0  0  0  0  0  0  0  0
    8.2906  -13.1482   21.4340 C   0  0  0  0  0  0  0  0  0  0  0  0
    8.1217  -15.4666   20.6392 C   0  0  2  0  0  0  0  0  0  0  0  0
    7.4073  -16.3215   19.6563 N   0  0  0  0  0  0  0  0  0  0  0  0
    7.8651  -16.0239   21.9809 C   0  0  0  0  0  0  0  0  0  0  0  0
    6.9000  -16.8514   22.1451 O   0  0  0  0  0  0  0  0  0  0  0  0
    6.1755  -19.7862   25.2444 N   0  0  0  0  0  0  0  0  0  0  0  0
    7.5755  -19.9797   25.0039 C   0  0  0  0  0  0  0  0  0  0  0  0
    7.9082  -21.1136   24.5675 O   0  0  0  0  0  0  0  0  0  0  0  0
    8.5663  -18.8987   25.2582 C   0  0  0  0  0  0  0  0  0  0  0  0
    8.6057  -18.0235   24.0339 C   0  0  0  0  0  0  0  0  0  0  0  0
    8.5108  -16.5571   24.3545 C   0  0  2  0  0  0  0  0  0  0  0  0
    8.6002  -15.7340   23.1526 N   0  0  0  0  0  0  0  0  0  0  0  0
    9.4914  -16.1303   25.3755 C   0  0  0  0  0  0  0  0  0  0  0  0
   10.6774  -16.4402   25.2177 O   0  0  0  0  0  0  0  0  0  0  0  0
    9.2440  -12.2925   26.8792 C   0  0  0  0  0  0  0  0  0  0  0  0
    9.4180  -13.3796   27.9233 C   0  0  1  0  0  0  0  0  0  0  0  0
    8.2830  -13.5412   28.7107 O   0  0  0  0  0  0  0  0  0  0  0  0
    9.9465  -14.6489   27.3701 C   0  0  2  0  0  0  0  0  0  0  0  0
    9.1244  -15.3954   26.5018 N   0  0  0  0  0  0  0  0  0  0  0  0
   10.3781  -15.5100   28.4974 C   0  0  0  0  0  0  0  0  0  0  0  0
   11.3294  -15.1002   29.4261 O   0  0  0  0  0  0  0  0  0  0  0  0
    9.8594  -16.6486   28.6081 O   0  0  0  0  0  0  0  0  0  0  0  0
  1  2  1  0
  3  2  1  0
  3  5  1  0
  3  4  1  1
  5  7  1  0
  5  6  1  6
  7  8  2  0
  9 10  1  0
 10 12  1  0
 11 10  2  0
 13 12  1  0
 14 13  1  6
 15 14  1  0
 15  7  1  0
 16 17  2  0
 16 14  1  0
 19 18  1  6
 19 21  1  0
 20 19  1  0
 21 22  1  1
 21 23  1  0
 22 16  1  0
 23 24  1  0
 25 23  2  0
M  END
$$$$
