IQT.pdb
     RDKit          3D

 25 24  0  0  1  0  0  0  0  0999 V2000
    7.2936  -12.0065   19.8719 C   0  0  0  0  0  0  0  0  0  0  0  0
    7.4075  -13.5147   19.8832 C   0  0  0  0  0  0  0  0  0  0  0  0
    7.8387  -13.9858   21.2843 C   0  0  2  0  0  0  0  0  0  0  0  0
    9.1758  -13.3449   21.5674 C   0  0  0  0  0  0  0  0  0  0  0  0
    8.0295  -15.4856   21.1954 C   0  0  2  0  0  0  0  0  0  0  0  0
    6.6977  -16.0650   20.8823 N   0  0  0  0  0  0  0  0  0  0  0  0
    8.5000  -16.1069   22.4480 C   0  0  0  0  0  0  0  0  0  0  0  0
    7.6689  -16.3054   23.4035 O   0  0  0  0  0  0  0  0  0  0  0  0
   12.8391  -20.8161   23.3340 N   0  0  0  0  0  0  0  0  0  0  0  0
   11.4413  -20.5420   23.4950 C   0  0  0  0  0  0  0  0  0  0  0  0
   10.7756  -21.4161   24.1113 O   0  0  0  0  0  0  0  0  0  0  0  0
   10.8251  -19.2966   22.9619 C   0  0  0  0  0  0  0  0  0  0  0  0
   11.2646  -18.1598   23.8456 C   0  0  0  0  0  0  0  0  0  0  0  0
   10.2132  -17.0962   24.0042 C   0  0  2  0  0  0  0  0  0  0  0  0
    9.8223  -16.5263   22.7187 N   0  0  0  0  0  0  0  0  0  0  0  0
   10.6056  -16.0429   24.9649 C   0  0  0  0  0  0  0  0  0  0  0  0
   11.4651  -15.2240   24.6211 O   0  0  0  0  0  0  0  0  0  0  0  0
    9.7331  -12.7877   26.3943 C   0  0  0  0  0  0  0  0  0  0  0  0
    9.5198  -13.8467   27.4597 C   0  0  1  0  0  0  0  0  0  0  0  0
    8.1732  -14.1354   27.6542 O   0  0  0  0  0  0  0  0  0  0  0  0
   10.3673  -15.0484   27.2744 C   0  0  2  0  0  0  0  0  0  0  0  0
   10.0419  -15.9444   26.2361 N   0  0  0  0  0  0  0  0  0  0  0  0
   10.4243  -15.7866   28.5591 C   0  0  0  0  0  0  0  0  0  0  0  0
   10.8998  -15.2070   29.7310 O   0  0  0  0  0  0  0  0  0  0  0  0
   10.0264  -16.9779   28.5781 O   0  0  0  0  0  0  0  0  0  0  0  0
  1  2  1  0
  3  2  1  0
  3  5  1  0
  3  4  1  6
  5  7  1  0
  5  6  1  1
  7  8  2  0
  9 10  1  0
 10 12  1  0
 11 10  2  0
 13 12  1  0
 14 13  1  6
 15 14  1  0
 15  7  1  0
 16 17  2  0
 16 14  1  0
 19 18  1  6
 19 21  1  0
 20 19  1  0
 21 22  1  6
 21 23  1  0
 22 16  1  0
 23 24  1  0
 25 23  2  0
M  END
$$$$
