IQT.pdb
     RDKit          3D

 25 24  0  0  1  0  0  0  0  0999 V2000
    6.0181  -11.0933   27.0551 C   0  0  0  0  0  0  0  0  0  0  0  0
    6.2377  -12.4662   27.6506 C   0  0  0  0  0  0  0  0  0  0  0  0
    7.1116  -13.3040   26.6989 C   0  0  2  0  0  0  0  0  0  0  0  0
    8.0475  -12.3428   26.0068 C   0  0  0  0  0  0  0  0  0  0  0  0
    6.1770  -13.8986   25.6661 C   0  0  2  0  0  0  0  0  0  0  0  0
    5.3372  -14.8961   26.3780 N   0  0  0  0  0  0  0  0  0  0  0  0
    6.8654  -14.6020   24.5670 C   0  0  0  0  0  0  0  0  0  0  0  0
    7.3251  -15.7820   24.7648 O   0  0  0  0  0  0  0  0  0  0  0  0
    7.8003  -12.8285   18.5641 N   0  0  0  0  0  0  0  0  0  0  0  0
    8.4735  -14.0936   18.6044 C   0  0  0  0  0  0  0  0  0  0  0  0
    8.9625  -14.4927   17.5143 O   0  0  0  0  0  0  0  0  0  0  0  0
    8.5814  -14.8787   19.8642 C   0  0  0  0  0  0  0  0  0  0  0  0
    7.8619  -14.1098   20.9400 C   0  0  0  0  0  0  0  0  0  0  0  0
    7.8884  -14.8003   22.2759 C   0  0  2  0  0  0  0  0  0  0  0  0
    7.0794  -14.0953   23.2651 N   0  0  0  0  0  0  0  0  0  0  0  0
    9.2617  -15.0364   22.7704 C   0  0  0  0  0  0  0  0  0  0  0  0
    9.9107  -14.0707   23.1873 O   0  0  0  0  0  0  0  0  0  0  0  0
   10.8597  -17.5945   25.5445 C   0  0  0  0  0  0  0  0  0  0  0  0
   11.2526  -17.8641   24.1039 C   0  0  1  0  0  0  0  0  0  0  0  0
   10.6390  -19.0035   23.5943 O   0  0  0  0  0  0  0  0  0  0  0  0
   11.1281  -16.6759   23.2268 C   0  0  2  0  0  0  0  0  0  0  0  0
    9.8437  -16.3031   22.7816 N   0  0  0  0  0  0  0  0  0  0  0  0
   12.0184  -16.8604   22.0555 C   0  0  0  0  0  0  0  0  0  0  0  0
   13.3967  -17.0003   22.1820 O   0  0  0  0  0  0  0  0  0  0  0  0
   11.4983  -16.8898   20.9124 O   0  0  0  0  0  0  0  0  0  0  0  0
  1  2  1  0
  3  2  1  0
  3  5  1  0
  3  4  1  6
  5  7  1  0
  5  6  1  1
  7  8  2  0
  9 10  1  0
 10 12  1  0
 11 10  2  0
 13 12  1  0
 14 13  1  6
 15 14  1  0
 15  7  1  0
 16 17  2  0
 16 14  1  0
 19 18  1  1
 19 21  1  0
 20 19  1  0
 21 22  1  6
 21 23  1  0
 22 16  1  0
 23 24  1  0
 25 23  2  0
M  END
$$$$
