IQT.pdb
     RDKit          3D

 25 24  0  0  1  0  0  0  0  0999 V2000
    5.8110  -10.9843   26.3264 C   0  0  0  0  0  0  0  0  0  0  0  0
    5.5510  -12.3408   25.7101 C   0  0  0  0  0  0  0  0  0  0  0  0
    6.8324  -13.1916   25.7836 C   0  0  2  0  0  0  0  0  0  0  0  0
    7.8560  -12.5148   24.9044 C   0  0  0  0  0  0  0  0  0  0  0  0
    6.4911  -14.5385   25.1812 C   0  0  2  0  0  0  0  0  0  0  0  0
    5.3440  -15.0730   25.9595 N   0  0  0  0  0  0  0  0  0  0  0  0
    7.5825  -15.5277   25.2638 C   0  0  0  0  0  0  0  0  0  0  0  0
    7.7370  -16.2067   26.3401 O   0  0  0  0  0  0  0  0  0  0  0  0
   11.9165  -17.6307   20.7601 N   0  0  0  0  0  0  0  0  0  0  0  0
   10.8204  -16.7094   20.8306 C   0  0  0  0  0  0  0  0  0  0  0  0
   10.2770  -16.4143   19.7330 O   0  0  0  0  0  0  0  0  0  0  0  0
   10.3614  -16.1427   22.1279 C   0  0  0  0  0  0  0  0  0  0  0  0
   10.0670  -17.2976   23.0476 C   0  0  0  0  0  0  0  0  0  0  0  0
    9.5240  -16.8648   24.3818 C   0  0  2  0  0  0  0  0  0  0  0  0
    8.5132  -15.8214   24.2416 N   0  0  0  0  0  0  0  0  0  0  0  0
   10.5864  -16.4637   25.3287 C   0  0  0  0  0  0  0  0  0  0  0  0
   11.4746  -15.7032   24.9284 O   0  0  0  0  0  0  0  0  0  0  0  0
   11.2045  -14.1719   28.1291 C   0  0  0  0  0  0  0  0  0  0  0  0
   11.1959  -15.5895   28.6700 C   0  0  1  0  0  0  0  0  0  0  0  0
   10.0285  -15.8806   29.3677 O   0  0  0  0  0  0  0  0  0  0  0  0
   11.5558  -16.6092   27.6566 C   0  0  2  0  0  0  0  0  0  0  0  0
   10.6185  -16.9121   26.6483 N   0  0  0  0  0  0  0  0  0  0  0  0
   11.9393  -17.8569   28.3601 C   0  0  0  0  0  0  0  0  0  0  0  0
   12.9335  -17.8883   29.3327 O   0  0  0  0  0  0  0  0  0  0  0  0
   11.3381  -18.9179   28.0589 O   0  0  0  0  0  0  0  0  0  0  0  0
  1  2  1  0
  3  2  1  0
  3  5  1  0
  3  4  1  6
  5  7  1  0
  5  6  1  1
  7  8  2  0
  9 10  1  0
 10 12  1  0
 11 10  2  0
 13 12  1  0
 14 13  1  6
 15 14  1  0
 15  7  1  0
 16 17  2  0
 16 14  1  0
 19 18  1  6
 19 21  1  0
 20 19  1  0
 21 22  1  6
 21 23  1  0
 22 16  1  0
 23 24  1  0
 25 23  2  0
M  END
$$$$
