IQT.pdb
     RDKit          3D

 25 24  0  0  1  0  0  0  0  0999 V2000
    7.8227  -11.9896   26.5813 C   0  0  0  0  0  0  0  0  0  0  0  0
    7.5293  -13.3353   27.2065 C   0  0  0  0  0  0  0  0  0  0  0  0
    7.8398  -14.4508   26.1914 C   0  0  2  0  0  0  0  0  0  0  0  0
    6.9119  -14.2439   25.0189 C   0  0  0  0  0  0  0  0  0  0  0  0
    7.4837  -15.7592   26.8661 C   0  0  2  0  0  0  0  0  0  0  0  0
    8.3227  -15.8482   28.0889 N   0  0  0  0  0  0  0  0  0  0  0  0
    7.7651  -16.9536   26.0472 C   0  0  0  0  0  0  0  0  0  0  0  0
    8.8567  -17.6000   26.2306 O   0  0  0  0  0  0  0  0  0  0  0  0
    4.1313  -21.8631   23.2082 N   0  0  0  0  0  0  0  0  0  0  0  0
    5.0366  -21.1054   22.3950 C   0  0  0  0  0  0  0  0  0  0  0  0
    4.6734  -20.9053   21.2055 O   0  0  0  0  0  0  0  0  0  0  0  0
    6.3249  -20.5916   22.9347 C   0  0  0  0  0  0  0  0  0  0  0  0
    6.0221  -19.3396   23.7139 C   0  0  0  0  0  0  0  0  0  0  0  0
    7.2458  -18.7174   24.3283 C   0  0  2  0  0  0  0  0  0  0  0  0
    6.9255  -17.4855   25.0424 N   0  0  0  0  0  0  0  0  0  0  0  0
    8.3332  -18.5066   23.3488 C   0  0  0  0  0  0  0  0  0  0  0  0
    8.7905  -19.4906   22.7569 O   0  0  0  0  0  0  0  0  0  0  0  0
    8.3676  -16.1474   20.2492 C   0  0  0  0  0  0  0  0  0  0  0  0
    9.5371  -15.8171   21.1576 C   0  0  1  0  0  0  0  0  0  0  0  0
    9.4213  -14.5540   21.7283 O   0  0  0  0  0  0  0  0  0  0  0  0
    9.8451  -16.8878   22.1349 C   0  0  2  0  0  0  0  0  0  0  0  0
    8.8553  -17.2437   23.0733 N   0  0  0  0  0  0  0  0  0  0  0  0
   11.0923  -16.5268   22.8510 C   0  0  0  0  0  0  0  0  0  0  0  0
   12.2881  -16.2776   22.1853 O   0  0  0  0  0  0  0  0  0  0  0  0
   11.0560  -16.4460   24.1040 O   0  0  0  0  0  0  0  0  0  0  0  0
  1  2  1  0
  3  2  1  0
  3  5  1  0
  3  4  1  6
  5  7  1  0
  5  6  1  1
  7  8  2  0
  9 10  1  0
 10 12  1  0
 11 10  2  0
 13 12  1  0
 14 13  1  6
 15 14  1  0
 15  7  1  0
 16 17  2  0
 16 14  1  0
 19 18  1  1
 19 21  1  0
 20 19  1  0
 21 22  1  1
 21 23  1  0
 22 16  1  0
 23 24  1  0
 25 23  2  0
M  END
$$$$
