IQT.pdb
     RDKit          3D

 25 24  0  0  1  0  0  0  0  0999 V2000
    5.4501  -11.5042   26.7829 C   0  0  0  0  0  0  0  0  0  0  0  0
    5.3769  -12.6714   25.8238 C   0  0  0  0  0  0  0  0  0  0  0  0
    6.7244  -13.4167   25.8193 C   0  0  2  0  0  0  0  0  0  0  0  0
    7.7431  -12.4719   25.2288 C   0  0  0  0  0  0  0  0  0  0  0  0
    6.5609  -14.5980   24.8858 C   0  0  2  0  0  0  0  0  0  0  0  0
    5.3649  -15.3455   25.3528 N   0  0  0  0  0  0  0  0  0  0  0  0
    7.7010  -15.5342   24.8960 C   0  0  0  0  0  0  0  0  0  0  0  0
    7.8236  -16.3668   25.8629 O   0  0  0  0  0  0  0  0  0  0  0  0
   13.5208  -17.0866   21.0689 N   0  0  0  0  0  0  0  0  0  0  0  0
   12.2975  -17.7524   21.4082 C   0  0  0  0  0  0  0  0  0  0  0  0
   11.7566  -18.4163   20.4842 O   0  0  0  0  0  0  0  0  0  0  0  0
   11.7115  -17.6576   22.7730 C   0  0  0  0  0  0  0  0  0  0  0  0
   10.5485  -16.7044   22.7011 C   0  0  0  0  0  0  0  0  0  0  0  0
    9.8190  -16.5652   24.0090 C   0  0  2  0  0  0  0  0  0  0  0  0
    8.7132  -15.6174   23.9132 N   0  0  0  0  0  0  0  0  0  0  0  0
   10.7195  -16.2324   25.1335 C   0  0  0  0  0  0  0  0  0  0  0  0
   11.5132  -15.2955   24.9939 O   0  0  0  0  0  0  0  0  0  0  0  0
   10.6982  -14.3553   28.0880 C   0  0  0  0  0  0  0  0  0  0  0  0
   10.8365  -15.7970   28.5403 C   0  0  1  0  0  0  0  0  0  0  0  0
    9.6585  -16.2929   29.0889 O   0  0  0  0  0  0  0  0  0  0  0  0
   11.4358  -16.6820   27.5136 C   0  0  2  0  0  0  0  0  0  0  0  0
   10.7024  -16.9360   26.3369 N   0  0  0  0  0  0  0  0  0  0  0  0
   11.7957  -17.9698   28.1544 C   0  0  0  0  0  0  0  0  0  0  0  0
   12.6742  -18.0467   29.2303 O   0  0  0  0  0  0  0  0  0  0  0  0
   11.2828  -19.0230   27.7011 O   0  0  0  0  0  0  0  0  0  0  0  0
  1  2  1  0
  3  2  1  0
  3  5  1  0
  3  4  1  6
  5  7  1  0
  5  6  1  1
  7  8  2  0
  9 10  1  0
 10 12  1  0
 11 10  2  0
 13 12  1  0
 14 13  1  6
 15 14  1  0
 15  7  1  0
 16 17  2  0
 16 14  1  0
 19 18  1  6
 19 21  1  0
 20 19  1  0
 21 22  1  6
 21 23  1  0
 22 16  1  0
 23 24  1  0
 25 23  2  0
M  END
$$$$
