IQT.pdb
     RDKit          3D

 25 24  0  0  1  0  0  0  0  0999 V2000
    6.3143  -12.3553   19.4282 C   0  0  0  0  0  0  0  0  0  0  0  0
    7.1797  -13.0991   18.4354 C   0  0  0  0  0  0  0  0  0  0  0  0
    8.4969  -13.5165   19.1152 C   0  0  2  0  0  0  0  0  0  0  0  0
    9.2169  -12.2434   19.4891 C   0  0  0  0  0  0  0  0  0  0  0  0
    9.3120  -14.2438   18.0662 C   0  0  2  0  0  0  0  0  0  0  0  0
    8.4535  -15.3391   17.5460 N   0  0  0  0  0  0  0  0  0  0  0  0
   10.5487  -14.8582   18.5856 C   0  0  0  0  0  0  0  0  0  0  0  0
   10.4779  -15.9544   19.2463 O   0  0  0  0  0  0  0  0  0  0  0  0
   17.2385  -13.3571   18.6109 N   0  0  0  0  0  0  0  0  0  0  0  0
   16.7096  -14.6157   18.1738 C   0  0  0  0  0  0  0  0  0  0  0  0
   17.3030  -15.1556   17.2025 O   0  0  0  0  0  0  0  0  0  0  0  0
   15.5302  -15.2371   18.8355 C   0  0  0  0  0  0  0  0  0  0  0  0
   14.3040  -14.5107   18.3504 C   0  0  0  0  0  0  0  0  0  0  0  0
   13.0315  -15.0290   18.9620 C   0  0  2  0  0  0  0  0  0  0  0  0
   11.8572  -14.3489   18.4248 N   0  0  0  0  0  0  0  0  0  0  0  0
   13.0497  -14.9891   20.4400 C   0  0  0  0  0  0  0  0  0  0  0  0
   13.2531  -13.9045   20.9965 O   0  0  0  0  0  0  0  0  0  0  0  0
   10.2675  -15.5598   22.9348 C   0  0  0  0  0  0  0  0  0  0  0  0
   11.3373  -16.6177   23.1310 C   0  0  1  0  0  0  0  0  0  0  0  0
   10.9246  -17.8723   22.6950 O   0  0  0  0  0  0  0  0  0  0  0  0
   12.6669  -16.2142   22.6154 C   0  0  2  0  0  0  0  0  0  0  0  0
   12.8464  -16.1264   21.2201 N   0  0  0  0  0  0  0  0  0  0  0  0
   13.6888  -17.1255   23.1847 C   0  0  0  0  0  0  0  0  0  0  0  0
   13.9586  -17.1834   24.5482 O   0  0  0  0  0  0  0  0  0  0  0  0
   14.3279  -17.8673   22.3979 O   0  0  0  0  0  0  0  0  0  0  0  0
  1  2  1  0
  3  2  1  0
  3  5  1  0
  3  4  1  6
  5  7  1  0
  5  6  1  1
  7  8  2  0
  9 10  1  0
 10 12  1  0
 11 10  2  0
 13 12  1  0
 14 13  1  6
 15 14  1  0
 15  7  1  0
 16 17  2  0
 16 14  1  0
 19 18  1  6
 19 21  1  0
 20 19  1  0
 21 22  1  6
 21 23  1  0
 22 16  1  0
 23 24  1  0
 25 23  2  0
M  END
$$$$
