RDV.pdb
     RDKit          3D

 27 26  0  0  1  0  0  0  0  0999 V2000
    8.4869  -12.4261   16.4193 N   0  0  0  0  0  0  0  0  0  0  0  0
    8.3060  -13.7156   15.8684 C   0  0  0  0  0  0  0  0  0  0  0  0
    9.0678  -14.1926   14.9216 N   0  0  0  0  0  0  0  0  0  0  0  0
    7.2384  -14.5599   16.3252 N   0  0  0  0  0  0  0  0  0  0  0  0
    7.2228  -15.1326   17.6559 C   0  0  0  0  0  0  0  0  0  0  0  0
    8.0048  -14.2011   18.5863 C   0  0  0  0  0  0  0  0  0  0  0  0
    7.8961  -14.5978   20.0209 C   0  0  0  0  0  0  0  0  0  0  0  0
    8.5411  -15.9548   20.2475 C   0  0  2  0  0  0  0  0  0  0  0  0
    7.8812  -16.9353   19.4360 N   0  0  0  0  0  0  0  0  0  0  0  0
    8.4462  -16.2300   21.6926 C   0  0  0  0  0  0  0  0  0  0  0  0
    7.7757  -17.2820   22.0130 O   0  0  0  0  0  0  0  0  0  0  0  0
    8.8120  -15.1668   14.5661 N   0  0  0  0  0  0  0  0  0  0  0  0
    8.9826  -15.5018   22.7696 C   0  0  1  0  0  0  0  0  0  0  0  0
    8.9074  -16.0157   24.1319 C   0  0  0  0  0  0  0  0  0  0  0  0
    9.7254  -17.2548   24.2405 C   0  0  0  0  0  0  0  0  0  0  0  0
   11.1694  -17.0821   23.9110 O   0  0  0  0  0  0  0  0  0  0  0  0
   11.5617  -16.3774   22.9549 C   0  0  0  0  0  0  0  0  0  0  0  0
    9.3789  -15.0234   25.1324 O   0  0  0  0  0  0  0  0  0  0  0  0
   10.3467  -15.3932   25.8405 O   0  0  0  0  0  0  0  0  0  0  0  0
   12.1582  -17.7277   24.6910 C   0  0  0  0  0  0  0  0  0  0  0  0
    7.0553  -11.7330   25.1858 C   0  0  2  0  0  0  0  0  0  0  0  0
    7.1738  -12.3858   26.5623 C   0  0  0  0  0  0  0  0  0  0  0  0
    5.9916  -13.3432   26.7559 C   0  0  2  0  0  0  0  0  0  0  0  0
    8.4809  -13.1386   26.5884 N   0  0  0  0  0  0  0  0  0  0  0  0
    8.8248  -13.7498   25.3207 C   0  0  0  0  0  0  0  0  0  0  0  0
    8.4793  -14.0924   27.6901 O   0  0  0  0  0  0  0  0  0  0  0  0
    8.2154  -15.3235   27.3467 O   0  0  0  0  0  0  0  0  0  0  0  0
  2  1  1  0
  3  2  2  0
  4  2  1  0
  5  4  1  0
  5  6  1  0
  6  7  1  0
  8 10  1  0
  8  7  1  0
  8  9  1  6
 10 12  1  0
 11 10  2  0
 12 13  1  0
 13 14  1  6
 15 16  2  0
 15 14  1  0
 17 18  2  0
 17 13  1  0
 19 15  1  0
 21 20  1  1
 21 23  1  0
 22 21  1  0
 23 24  1  1
 24 17  1  0
 25 23  1  0
 25 27  1  0
 26 25  2  0
M  END
$$$$
