RDV.pdb
     RDKit          3D

 27 26  0  0  1  0  0  0  0  0999 V2000
    7.8962  -12.4487   17.4707 N   0  0  0  0  0  0  0  0  0  0  0  0
    8.3360  -13.7877   17.3582 C   0  0  0  0  0  0  0  0  0  0  0  0
    9.1790  -14.1798   16.4417 N   0  0  0  0  0  0  0  0  0  0  0  0
    7.8430  -14.7943   18.2553 N   0  0  0  0  0  0  0  0  0  0  0  0
    6.8885  -14.4939   19.3031 C   0  0  0  0  0  0  0  0  0  0  0  0
    7.6218  -13.7394   20.4156 C   0  0  0  0  0  0  0  0  0  0  0  0
    7.8871  -14.5928   21.6107 C   0  0  0  0  0  0  0  0  0  0  0  0
    8.5823  -15.8803   21.2005 C   0  0  2  0  0  0  0  0  0  0  0  0
    7.6249  -16.7689   20.6096 N   0  0  0  0  0  0  0  0  0  0  0  0
    9.2136  -16.4237   22.4167 C   0  0  0  0  0  0  0  0  0  0  0  0
    8.4017  -16.7690   23.3551 O   0  0  0  0  0  0  0  0  0  0  0  0
    9.4191  -15.2205   16.4462 N   0  0  0  0  0  0  0  0  0  0  0  0
   10.5789  -16.6139   22.6961 C   0  0  1  0  0  0  0  0  0  0  0  0
   11.0112  -17.1706   23.9723 C   0  0  0  0  0  0  0  0  0  0  0  0
   12.3603  -17.7805   23.8160 C   0  0  0  0  0  0  0  0  0  0  0  0
   12.4304  -18.9008   22.8343 O   0  0  0  0  0  0  0  0  0  0  0  0
   13.4301  -19.0983   22.1091 C   0  0  0  0  0  0  0  0  0  0  0  0
   11.0545  -16.1443   25.0460 O   0  0  0  0  0  0  0  0  0  0  0  0
   11.9149  -15.2436   24.8933 O   0  0  0  0  0  0  0  0  0  0  0  0
   11.3396  -19.7916   22.6940 C   0  0  0  0  0  0  0  0  0  0  0  0
    9.2719  -13.2663   28.4379 C   0  0  2  0  0  0  0  0  0  0  0  0
    9.0475  -14.2645   27.3029 C   0  0  0  0  0  0  0  0  0  0  0  0
    8.8972  -13.4889   25.9886 C   0  0  1  0  0  0  0  0  0  0  0  0
   10.2560  -15.1663   27.2561 N   0  0  0  0  0  0  0  0  0  0  0  0
   10.2217  -16.1281   26.1733 C   0  0  0  0  0  0  0  0  0  0  0  0
   10.4560  -15.7916   28.5571 O   0  0  0  0  0  0  0  0  0  0  0  0
   10.1663  -17.0633   28.6025 O   0  0  0  0  0  0  0  0  0  0  0  0
  2  1  1  0
  3  2  2  0
  4  2  1  0
  5  4  1  0
  5  6  1  0
  6  7  1  0
  8 10  1  0
  8  7  1  0
  8  9  1  1
 10 12  1  0
 11 10  2  0
 12 13  1  0
 13 14  1  6
 15 16  2  0
 15 14  1  0
 17 18  2  0
 17 13  1  0
 19 15  1  0
 21 20  1  1
 21 23  1  0
 22 21  1  0
 23 24  1  1
 24 17  1  0
 25 23  1  0
 25 27  1  0
 26 25  2  0
M  END
$$$$
