RDV.pdb
     RDKit          3D

 27 26  0  0  1  0  0  0  0  0999 V2000
    7.3359  -12.2596   18.3762 N   0  0  0  0  0  0  0  0  0  0  0  0
    8.2347  -13.2781   17.9840 C   0  0  0  0  0  0  0  0  0  0  0  0
    8.1877  -13.8485   16.8107 N   0  0  0  0  0  0  0  0  0  0  0  0
    9.2427  -13.7493   18.8914 N   0  0  0  0  0  0  0  0  0  0  0  0
    8.9135  -14.4736   20.1022 C   0  0  0  0  0  0  0  0  0  0  0  0
    7.5750  -13.9456   20.6260 C   0  0  0  0  0  0  0  0  0  0  0  0
    7.2008  -14.5355   21.9447 C   0  0  0  0  0  0  0  0  0  0  0  0
    7.2507  -16.0529   21.8815 C   0  0  2  0  0  0  0  0  0  0  0  0
    5.9241  -16.5640   21.6965 N   0  0  0  0  0  0  0  0  0  0  0  0
    7.8840  -16.5058   23.1333 C   0  0  0  0  0  0  0  0  0  0  0  0
    7.1662  -16.3770   24.1950 O   0  0  0  0  0  0  0  0  0  0  0  0
    8.9797  -14.5317   16.5943 N   0  0  0  0  0  0  0  0  0  0  0  0
    9.1637  -17.0551   23.3297 C   0  0  2  0  0  0  0  0  0  0  0  0
    9.5974  -17.4880   24.6527 C   0  0  0  0  0  0  0  0  0  0  0  0
   10.5502  -18.6237   24.5154 C   0  0  0  0  0  0  0  0  0  0  0  0
   11.0639  -19.1685   25.8049 O   0  0  0  0  0  0  0  0  0  0  0  0
   10.3815  -19.1723   26.8532 C   0  0  0  0  0  0  0  0  0  0  0  0
   10.2439  -16.3906   25.4179 O   0  0  0  0  0  0  0  0  0  0  0  0
   11.2393  -15.8639   24.8641 O   0  0  0  0  0  0  0  0  0  0  0  0
   12.3701  -19.7085   25.8780 C   0  0  0  0  0  0  0  0  0  0  0  0
    9.3149  -13.0782   26.4041 C   0  0  2  0  0  0  0  0  0  0  0  0
    9.6305  -13.7138   27.7574 C   0  0  0  0  0  0  0  0  0  0  0  0
    8.3122  -14.1062   28.4357 C   0  0  2  0  0  0  0  0  0  0  0  0
   10.4782  -14.9330   27.4913 N   0  0  0  0  0  0  0  0  0  0  0  0
    9.8203  -15.9305   26.6723 C   0  0  0  0  0  0  0  0  0  0  0  0
   10.9712  -15.4758   28.7506 O   0  0  0  0  0  0  0  0  0  0  0  0
   10.5879  -16.6968   29.0066 O   0  0  0  0  0  0  0  0  0  0  0  0
  2  1  1  0
  3  2  2  0
  4  2  1  0
  5  4  1  0
  5  6  1  0
  6  7  1  0
  8 10  1  0
  8  7  1  0
  8  9  1  1
 10 12  1  0
 11 10  2  0
 12 13  1  0
 13 14  1  6
 15 16  2  0
 15 14  1  0
 17 18  2  0
 17 13  1  0
 19 15  1  0
 21 20  1  1
 21 23  1  0
 22 21  1  0
 23 24  1  1
 24 17  1  0
 25 23  1  0
 25 27  1  0
 26 25  2  0
M  END
$$$$
