RDV.pdb
     RDKit          3D

 27 26  0  0  1  0  0  0  0  0999 V2000
    9.5572  -13.9442   18.3961 N   0  0  0  0  0  0  0  0  0  0  0  0
    9.1397  -12.6661   18.8331 C   0  0  0  0  0  0  0  0  0  0  0  0
    9.8263  -11.5805   18.5996 N   0  0  0  0  0  0  0  0  0  0  0  0
    7.9274  -12.5139   19.5870 N   0  0  0  0  0  0  0  0  0  0  0  0
    6.6825  -13.1335   19.1801 C   0  0  0  0  0  0  0  0  0  0  0  0
    6.7710  -14.6309   19.4880 C   0  0  0  0  0  0  0  0  0  0  0  0
    7.1440  -14.9049   20.9067 C   0  0  0  0  0  0  0  0  0  0  0  0
    7.2249  -16.4018   21.1554 C   0  0  2  0  0  0  0  0  0  0  0  0
    5.9188  -16.9769   21.0179 N   0  0  0  0  0  0  0  0  0  0  0  0
    7.8026  -16.5745   22.5005 C   0  0  0  0  0  0  0  0  0  0  0  0
    6.9510  -16.6432   23.4643 O   0  0  0  0  0  0  0  0  0  0  0  0
    9.3876  -10.6701   18.9455 N   0  0  0  0  0  0  0  0  0  0  0  0
    9.1541  -16.6708   22.8779 C   0  0  2  0  0  0  0  0  0  0  0  0
    9.5286  -16.8943   24.2691 C   0  0  0  0  0  0  0  0  0  0  0  0
   10.8350  -17.6063   24.3229 C   0  0  0  0  0  0  0  0  0  0  0  0
   10.8008  -19.0140   23.8321 O   0  0  0  0  0  0  0  0  0  0  0  0
   11.6312  -19.4602   23.0100 C   0  0  0  0  0  0  0  0  0  0  0  0
    9.6263  -15.6245   25.0345 O   0  0  0  0  0  0  0  0  0  0  0  0
   10.5442  -14.8488   24.6728 O   0  0  0  0  0  0  0  0  0  0  0  0
    9.8024  -19.9038   24.2951 C   0  0  0  0  0  0  0  0  0  0  0  0
    7.0922  -12.9767   25.6093 C   0  0  2  0  0  0  0  0  0  0  0  0
    7.5636  -13.3175   27.0223 C   0  0  0  0  0  0  0  0  0  0  0  0
    6.5071  -14.2043   27.6926 C   0  0  2  0  0  0  0  0  0  0  0  0
    8.8737  -14.0537   26.8905 N   0  0  0  0  0  0  0  0  0  0  0  0
    8.7844  -15.2607   26.0944 C   0  0  0  0  0  0  0  0  0  0  0  0
    9.4409  -14.2924   28.2115 O   0  0  0  0  0  0  0  0  0  0  0  0
    9.5659  -15.5510   28.5332 O   0  0  0  0  0  0  0  0  0  0  0  0
  2  1  1  0
  3  2  2  0
  4  2  1  0
  5  4  1  0
  5  6  1  0
  6  7  1  0
  8 10  1  0
  8  7  1  0
  8  9  1  1
 10 12  1  0
 11 10  2  0
 12 13  1  0
 13 14  1  6
 15 16  2  0
 15 14  1  0
 17 18  2  0
 17 13  1  0
 19 15  1  0
 21 20  1  1
 21 23  1  0
 22 21  1  0
 23 24  1  1
 24 17  1  0
 25 23  1  0
 25 27  1  0
 26 25  2  0
M  END
$$$$
