RDV.pdb
     RDKit          3D

 27 26  0  0  1  0  0  0  0  0999 V2000
    7.7165  -13.1434   15.7180 N   0  0  0  0  0  0  0  0  0  0  0  0
    8.1252  -13.3279   17.0588 C   0  0  0  0  0  0  0  0  0  0  0  0
    8.9612  -12.5250   17.6594 N   0  0  0  0  0  0  0  0  0  0  0  0
    7.6415  -14.4444   17.8209 N   0  0  0  0  0  0  0  0  0  0  0  0
    8.0909  -14.7090   19.1726 C   0  0  0  0  0  0  0  0  0  0  0  0
    7.0569  -14.1296   20.1421 C   0  0  0  0  0  0  0  0  0  0  0  0
    6.2497  -15.1859   20.8202 C   0  0  0  0  0  0  0  0  0  0  0  0
    7.0189  -16.4956   20.8654 C   0  0  2  0  0  0  0  0  0  0  0  0
    6.1423  -17.5731   20.5104 N   0  0  0  0  0  0  0  0  0  0  0  0
    7.5703  -16.6132   22.2274 C   0  0  0  0  0  0  0  0  0  0  0  0
    6.7015  -16.7732   23.1646 O   0  0  0  0  0  0  0  0  0  0  0  0
    9.1667  -12.7495   18.6833 N   0  0  0  0  0  0  0  0  0  0  0  0
    8.9125  -16.5711   22.6458 C   0  0  2  0  0  0  0  0  0  0  0  0
    9.2616  -16.7038   24.0551 C   0  0  0  0  0  0  0  0  0  0  0  0
   10.5278  -17.4765   24.1818 C   0  0  0  0  0  0  0  0  0  0  0  0
   10.4216  -18.9167   23.8103 O   0  0  0  0  0  0  0  0  0  0  0  0
   10.6934  -19.3377   22.6643 C   0  0  0  0  0  0  0  0  0  0  0  0
    9.4193  -15.3846   24.7204 O   0  0  0  0  0  0  0  0  0  0  0  0
   10.3310  -14.6561   24.2589 O   0  0  0  0  0  0  0  0  0  0  0  0
    9.9994  -19.8684   24.7689 C   0  0  0  0  0  0  0  0  0  0  0  0
    7.9451  -12.1663   25.0120 C   0  0  2  0  0  0  0  0  0  0  0  0
    7.8555  -12.6743   26.4504 C   0  0  0  0  0  0  0  0  0  0  0  0
    6.4469  -13.2320   26.6880 C   0  0  2  0  0  0  0  0  0  0  0  0
    8.8929  -13.7584   26.6064 N   0  0  0  0  0  0  0  0  0  0  0  0
    8.6380  -14.9282   25.7908 C   0  0  0  0  0  0  0  0  0  0  0  0
    9.0598  -14.0825   28.0173 O   0  0  0  0  0  0  0  0  0  0  0  0
    9.3891  -13.0721   28.7748 O   0  0  0  0  0  0  0  0  0  0  0  0
  2  1  1  0
  3  2  2  0
  4  2  1  0
  5  4  1  0
  5  6  1  0
  6  7  1  0
  8 10  1  0
  8  7  1  0
  8  9  1  1
 10 12  1  0
 11 10  2  0
 12 13  1  0
 13 14  1  6
 15 16  2  0
 15 14  1  0
 17 18  2  0
 17 13  1  0
 19 15  1  0
 21 20  1  1
 21 23  1  0
 22 21  1  0
 23 24  1  1
 24 17  1  0
 25 23  1  0
 25 27  1  0
 26 25  2  0
M  END
$$$$
