RDV.pdb
     RDKit          3D

 27 26  0  0  1  0  0  0  0  0999 V2000
   11.1189  -14.1464   18.9321 N   0  0  0  0  0  0  0  0  0  0  0  0
   11.5164  -14.6537   17.6736 C   0  0  0  0  0  0  0  0  0  0  0  0
   12.7557  -14.6349   17.2638 N   0  0  0  0  0  0  0  0  0  0  0  0
   10.5452  -15.2014   16.7691 N   0  0  0  0  0  0  0  0  0  0  0  0
    9.1204  -15.0964   17.0101 C   0  0  0  0  0  0  0  0  0  0  0  0
    8.8171  -13.6668   17.4671 C   0  0  0  0  0  0  0  0  0  0  0  0
    7.7691  -13.6126   18.5281 C   0  0  0  0  0  0  0  0  0  0  0  0
    8.3177  -12.9564   19.7841 C   0  0  2  0  0  0  0  0  0  0  0  0
    9.6522  -12.4956   19.5344 N   0  0  0  0  0  0  0  0  0  0  0  0
    8.2370  -13.9653   20.8558 C   0  0  0  0  0  0  0  0  0  0  0  0
    7.0456  -14.2876   21.2243 O   0  0  0  0  0  0  0  0  0  0  0  0
   12.9445  -15.1230   16.3327 N   0  0  0  0  0  0  0  0  0  0  0  0
    9.2796  -14.6218   21.5341 C   0  0  2  0  0  0  0  0  0  0  0  0
    8.9970  -15.5489   22.6232 C   0  0  0  0  0  0  0  0  0  0  0  0
    9.9373  -16.7008   22.5508 C   0  0  0  0  0  0  0  0  0  0  0  0
    9.8143  -17.6799   23.6688 O   0  0  0  0  0  0  0  0  0  0  0  0
    8.7439  -17.8608   24.2900 C   0  0  0  0  0  0  0  0  0  0  0  0
    9.1116  -14.9007   23.9554 O   0  0  0  0  0  0  0  0  0  0  0  0
   10.1840  -14.2822   24.1610 O   0  0  0  0  0  0  0  0  0  0  0  0
   10.9341  -18.4487   24.0662 C   0  0  0  0  0  0  0  0  0  0  0  0
    7.0292  -12.6338   27.7274 C   0  0  2  0  0  0  0  0  0  0  0  0
    6.8572  -13.4017   26.4176 C   0  0  0  0  0  0  0  0  0  0  0  0
    6.6315  -12.3947   25.2832 C   0  0  1  0  0  0  0  0  0  0  0  0
    8.1253  -14.1869   26.1906 N   0  0  0  0  0  0  0  0  0  0  0  0
    8.1284  -14.9407   24.9535 C   0  0  0  0  0  0  0  0  0  0  0  0
    8.4071  -15.0166   27.3550 O   0  0  0  0  0  0  0  0  0  0  0  0
    8.0772  -16.2724   27.2238 O   0  0  0  0  0  0  0  0  0  0  0  0
  2  1  1  0
  3  2  2  0
  4  2  1  0
  5  4  1  0
  5  6  1  0
  6  7  1  0
  8 10  1  0
  8  7  1  0
  8  9  1  6
 10 12  1  0
 11 10  2  0
 12 13  1  0
 13 14  1  6
 15 16  2  0
 15 14  1  0
 17 18  2  0
 17 13  1  0
 19 15  1  0
 21 20  1  1
 21 23  1  0
 22 21  1  0
 23 24  1  1
 24 17  1  0
 25 23  1  0
 25 27  1  0
 26 25  2  0
M  END
$$$$
