RDV.pdb
     RDKit          3D

 27 26  0  0  1  0  0  0  0  0999 V2000
    6.9591  -14.4731   15.6794 N   0  0  0  0  0  0  0  0  0  0  0  0
    8.3258  -14.1487   15.8407 C   0  0  0  0  0  0  0  0  0  0  0  0
    9.2673  -14.6681   15.1005 N   0  0  0  0  0  0  0  0  0  0  0  0
    8.7409  -13.2309   16.8637 N   0  0  0  0  0  0  0  0  0  0  0  0
    7.9087  -12.9239   18.0093 C   0  0  0  0  0  0  0  0  0  0  0  0
    7.1057  -14.1779   18.3664 C   0  0  0  0  0  0  0  0  0  0  0  0
    7.0143  -14.4019   19.8390 C   0  0  0  0  0  0  0  0  0  0  0  0
    8.3668  -14.1806   20.4952 C   0  0  2  0  0  0  0  0  0  0  0  0
    9.4048  -14.5662   19.5846 N   0  0  0  0  0  0  0  0  0  0  0  0
    8.3620  -14.9637   21.7441 C   0  0  0  0  0  0  0  0  0  0  0  0
    7.3527  -14.7642   22.5189 O   0  0  0  0  0  0  0  0  0  0  0  0
   10.2625  -14.3523   15.3256 N   0  0  0  0  0  0  0  0  0  0  0  0
    9.3078  -15.8953   22.2085 C   0  0  1  0  0  0  0  0  0  0  0  0
    9.2302  -16.4287   23.5632 C   0  0  0  0  0  0  0  0  0  0  0  0
   10.2092  -17.5399   23.7157 C   0  0  0  0  0  0  0  0  0  0  0  0
   10.2711  -18.1361   25.0811 O   0  0  0  0  0  0  0  0  0  0  0  0
   11.2838  -18.0455   25.8095 C   0  0  0  0  0  0  0  0  0  0  0  0
    9.4982  -15.3897   24.5911 O   0  0  0  0  0  0  0  0  0  0  0  0
   10.5853  -14.7758   24.4633 O   0  0  0  0  0  0  0  0  0  0  0  0
    9.1575  -18.8381   25.6008 C   0  0  0  0  0  0  0  0  0  0  0  0
    7.2560  -12.5231   25.5930 C   0  0  2  0  0  0  0  0  0  0  0  0
    7.6297  -13.1957   26.9132 C   0  0  0  0  0  0  0  0  0  0  0  0
    6.4520  -14.0633   27.3736 C   0  0  2  0  0  0  0  0  0  0  0  0
    8.8490  -14.0448   26.6523 N   0  0  0  0  0  0  0  0  0  0  0  0
    8.6390  -15.0712   25.6518 C   0  0  0  0  0  0  0  0  0  0  0  0
    9.3557  -14.5805   27.9092 O   0  0  0  0  0  0  0  0  0  0  0  0
    9.3449  -15.8828   27.9920 O   0  0  0  0  0  0  0  0  0  0  0  0
  2  1  1  0
  3  2  2  0
  4  2  1  0
  5  4  1  0
  5  6  1  0
  6  7  1  0
  8 10  1  0
  8  7  1  0
  8  9  1  6
 10 12  1  0
 11 10  2  0
 12 13  1  0
 13 14  1  6
 15 16  2  0
 15 14  1  0
 17 18  2  0
 17 13  1  0
 19 15  1  0
 21 20  1  1
 21 23  1  0
 22 21  1  0
 23 24  1  1
 24 17  1  0
 25 23  1  0
 25 27  1  0
 26 25  2  0
M  END
$$$$
