RDV.pdb
     RDKit          3D

 27 26  0  0  1  0  0  0  0  0999 V2000
    9.9735  -13.9368   19.3719 N   0  0  0  0  0  0  0  0  0  0  0  0
    9.2896  -12.7046   19.2585 C   0  0  0  0  0  0  0  0  0  0  0  0
    9.8958  -11.5507   19.3309 N   0  0  0  0  0  0  0  0  0  0  0  0
    7.8656  -12.6758   19.0772 N   0  0  0  0  0  0  0  0  0  0  0  0
    7.0468  -13.8640   19.2068 C   0  0  0  0  0  0  0  0  0  0  0  0
    6.8657  -14.1592   20.6984 C   0  0  0  0  0  0  0  0  0  0  0  0
    6.1110  -15.4225   20.9468 C   0  0  0  0  0  0  0  0  0  0  0  0
    7.0477  -16.6182   20.9047 C   0  0  2  0  0  0  0  0  0  0  0  0
    6.3380  -17.7596   20.4058 N   0  0  0  0  0  0  0  0  0  0  0  0
    7.5605  -16.7998   22.2748 C   0  0  0  0  0  0  0  0  0  0  0  0
    6.6653  -16.9993   23.1791 O   0  0  0  0  0  0  0  0  0  0  0  0
    9.2702  -10.6904   19.2340 N   0  0  0  0  0  0  0  0  0  0  0  0
    8.8904  -16.7816   22.7320 C   0  0  2  0  0  0  0  0  0  0  0  0
    9.1969  -16.9374   24.1489 C   0  0  0  0  0  0  0  0  0  0  0  0
   10.4626  -17.7064   24.3010 C   0  0  0  0  0  0  0  0  0  0  0  0
   10.8898  -17.9353   25.7112 O   0  0  0  0  0  0  0  0  0  0  0  0
   10.0726  -18.1117   26.6415 C   0  0  0  0  0  0  0  0  0  0  0  0
    9.3275  -15.6293   24.8415 O   0  0  0  0  0  0  0  0  0  0  0  0
   10.2251  -14.8735   24.3966 O   0  0  0  0  0  0  0  0  0  0  0  0
   12.2657  -17.9589   26.0417 C   0  0  0  0  0  0  0  0  0  0  0  0
    7.3546  -12.6610   25.1771 C   0  0  2  0  0  0  0  0  0  0  0  0
    7.5350  -13.0643   26.6399 C   0  0  0  0  0  0  0  0  0  0  0  0
    6.2567  -13.7634   27.1184 C   0  0  2  0  0  0  0  0  0  0  0  0
    8.7134  -14.0043   26.7018 N   0  0  0  0  0  0  0  0  0  0  0  0
    8.5359  -15.2108   25.9198 C   0  0  0  0  0  0  0  0  0  0  0  0
    9.0521  -14.2803   28.0920 O   0  0  0  0  0  0  0  0  0  0  0  0
    8.9599  -15.5352   28.4381 O   0  0  0  0  0  0  0  0  0  0  0  0
  2  1  1  0
  3  2  2  0
  4  2  1  0
  5  4  1  0
  5  6  1  0
  6  7  1  0
  8 10  1  0
  8  7  1  0
  8  9  1  1
 10 12  1  0
 11 10  2  0
 12 13  1  0
 13 14  1  6
 15 16  2  0
 15 14  1  0
 17 18  2  0
 17 13  1  0
 19 15  1  0
 21 20  1  1
 21 23  1  0
 22 21  1  0
 23 24  1  1
 24 17  1  0
 25 23  1  0
 25 27  1  0
 26 25  2  0
M  END
$$$$
