RDV.pdb
     RDKit          3D

 27 26  0  0  1  0  0  0  0  0999 V2000
    8.5958  -11.8835   18.3724 N   0  0  0  0  0  0  0  0  0  0  0  0
    8.4562  -13.2894   18.3190 C   0  0  0  0  0  0  0  0  0  0  0  0
    8.9423  -14.0112   17.3459 N   0  0  0  0  0  0  0  0  0  0  0  0
    7.7383  -13.9898   19.3463 N   0  0  0  0  0  0  0  0  0  0  0  0
    7.4458  -13.3876   20.6312 C   0  0  0  0  0  0  0  0  0  0  0  0
    6.6687  -14.4057   21.4704 C   0  0  0  0  0  0  0  0  0  0  0  0
    7.4851  -14.9780   22.5809 C   0  0  0  0  0  0  0  0  0  0  0  0
    8.0709  -16.3195   22.1732 C   0  0  2  0  0  0  0  0  0  0  0  0
    7.0058  -17.2457   21.9220 N   0  0  0  0  0  0  0  0  0  0  0  0
    8.9657  -16.7381   23.2673 C   0  0  0  0  0  0  0  0  0  0  0  0
    8.3803  -17.2291   24.3042 O   0  0  0  0  0  0  0  0  0  0  0  0
    8.7835  -15.0645   17.4247 N   0  0  0  0  0  0  0  0  0  0  0  0
   10.3689  -16.6724   23.3377 C   0  0  2  0  0  0  0  0  0  0  0  0
   11.0864  -17.2073   24.4886 C   0  0  0  0  0  0  0  0  0  0  0  0
   12.4411  -17.6556   24.0641 C   0  0  0  0  0  0  0  0  0  0  0  0
   12.4528  -18.6239   22.9301 O   0  0  0  0  0  0  0  0  0  0  0  0
   13.1344  -18.4421   21.8972 C   0  0  0  0  0  0  0  0  0  0  0  0
   11.2164  -16.2093   25.5818 O   0  0  0  0  0  0  0  0  0  0  0  0
   12.0660  -15.3066   25.3864 O   0  0  0  0  0  0  0  0  0  0  0  0
   11.6728  -19.8030   22.9947 C   0  0  0  0  0  0  0  0  0  0  0  0
    9.5867  -13.4490   26.7734 C   0  0  2  0  0  0  0  0  0  0  0  0
    9.5600  -14.3024   28.0407 C   0  0  0  0  0  0  0  0  0  0  0  0
    8.1850  -14.9720   28.1537 C   0  0  2  0  0  0  0  0  0  0  0  0
   10.6490  -15.3375   27.9048 N   0  0  0  0  0  0  0  0  0  0  0  0
   10.4730  -16.2205   26.7699 C   0  0  0  0  0  0  0  0  0  0  0  0
   10.8023  -16.0604   29.1608 O   0  0  0  0  0  0  0  0  0  0  0  0
   10.5232  -17.3336   29.0962 O   0  0  0  0  0  0  0  0  0  0  0  0
  2  1  1  0
  3  2  2  0
  4  2  1  0
  5  4  1  0
  5  6  1  0
  6  7  1  0
  8 10  1  0
  8  7  1  0
  8  9  1  1
 10 12  1  0
 11 10  2  0
 12 13  1  0
 13 14  1  6
 15 16  2  0
 15 14  1  0
 17 18  2  0
 17 13  1  0
 19 15  1  0
 21 20  1  1
 21 23  1  0
 22 21  1  0
 23 24  1  1
 24 17  1  0
 25 23  1  0
 25 27  1  0
 26 25  2  0
M  END
$$$$
