RDV.pdb
     RDKit          3D

 27 26  0  0  1  0  0  0  0  0999 V2000
    7.3158  -15.7281   17.1702 N   0  0  0  0  0  0  0  0  0  0  0  0
    7.6977  -14.5773   16.4432 C   0  0  0  0  0  0  0  0  0  0  0  0
    7.9226  -14.5963   15.1573 N   0  0  0  0  0  0  0  0  0  0  0  0
    7.8779  -13.3196   17.1118 N   0  0  0  0  0  0  0  0  0  0  0  0
    8.4582  -13.2257   18.4361 C   0  0  0  0  0  0  0  0  0  0  0  0
    7.3309  -13.3663   19.4628 C   0  0  0  0  0  0  0  0  0  0  0  0
    7.6502  -14.3536   20.5354 C   0  0  0  0  0  0  0  0  0  0  0  0
    9.0282  -14.0813   21.1152 C   0  0  2  0  0  0  0  0  0  0  0  0
   10.0245  -14.3662   20.1245 N   0  0  0  0  0  0  0  0  0  0  0  0
    9.1485  -14.9160   22.3244 C   0  0  0  0  0  0  0  0  0  0  0  0
    8.2514  -14.7160   23.2267 O   0  0  0  0  0  0  0  0  0  0  0  0
    8.2532  -13.6749   14.7300 N   0  0  0  0  0  0  0  0  0  0  0  0
   10.1085  -15.8971   22.6309 C   0  0  1  0  0  0  0  0  0  0  0  0
   10.0572  -16.6260   23.8926 C   0  0  0  0  0  0  0  0  0  0  0  0
   10.8551  -17.8773   23.7753 C   0  0  0  0  0  0  0  0  0  0  0  0
   10.4717  -18.7592   22.6356 O   0  0  0  0  0  0  0  0  0  0  0  0
   11.3094  -19.2156   21.8267 C   0  0  0  0  0  0  0  0  0  0  0  0
   10.5706  -15.8174   25.0286 O   0  0  0  0  0  0  0  0  0  0  0  0
   11.7415  -15.3862   24.8947 O   0  0  0  0  0  0  0  0  0  0  0  0
    9.1157  -19.1109   22.4345 C   0  0  0  0  0  0  0  0  0  0  0  0
    9.7656  -12.6164   26.3470 C   0  0  2  0  0  0  0  0  0  0  0  0
    9.5780  -13.4929   27.5846 C   0  0  0  0  0  0  0  0  0  0  0  0
    8.0806  -13.7660   27.7712 C   0  0  2  0  0  0  0  0  0  0  0  0
   10.3291  -14.7781   27.3395 N   0  0  0  0  0  0  0  0  0  0  0  0
    9.8487  -15.5223   26.1932 C   0  0  0  0  0  0  0  0  0  0  0  0
   10.3524  -15.5764   28.5584 O   0  0  0  0  0  0  0  0  0  0  0  0
    9.7532  -16.7320   28.4662 O   0  0  0  0  0  0  0  0  0  0  0  0
  2  1  1  0
  3  2  2  0
  4  2  1  0
  5  4  1  0
  5  6  1  0
  6  7  1  0
  8 10  1  0
  8  7  1  0
  8  9  1  6
 10 12  1  0
 11 10  2  0
 12 13  1  0
 13 14  1  1
 15 16  2  0
 15 14  1  0
 17 18  2  0
 17 13  1  0
 19 15  1  0
 21 20  1  1
 21 23  1  0
 22 21  1  0
 23 24  1  1
 24 17  1  0
 25 23  1  0
 25 27  1  0
 26 25  2  0
M  END
$$$$
