RDV.pdb
     RDKit          3D

 27 26  0  0  1  0  0  0  0  0999 V2000
    9.0971  -13.7929   16.4635 N   0  0  0  0  0  0  0  0  0  0  0  0
    8.6410  -12.8387   17.4018 C   0  0  0  0  0  0  0  0  0  0  0  0
    9.4103  -11.9032   17.8890 N   0  0  0  0  0  0  0  0  0  0  0  0
    7.2884  -12.8775   17.8816 N   0  0  0  0  0  0  0  0  0  0  0  0
    6.8016  -13.9442   18.7326 C   0  0  0  0  0  0  0  0  0  0  0  0
    8.0094  -14.6304   19.3768 C   0  0  0  0  0  0  0  0  0  0  0  0
    7.8181  -14.8803   20.8356 C   0  0  0  0  0  0  0  0  0  0  0  0
    7.6396  -16.3657   21.1015 C   0  0  2  0  0  0  0  0  0  0  0  0
    6.3109  -16.7575   20.7320 N   0  0  0  0  0  0  0  0  0  0  0  0
    7.9369  -16.5764   22.5298 C   0  0  0  0  0  0  0  0  0  0  0  0
    6.9182  -16.5481   23.3175 O   0  0  0  0  0  0  0  0  0  0  0  0
    8.9359  -11.2065   18.5450 N   0  0  0  0  0  0  0  0  0  0  0  0
    9.1782  -16.8003   23.1521 C   0  0  2  0  0  0  0  0  0  0  0  0
    9.2631  -17.0429   24.5872 C   0  0  0  0  0  0  0  0  0  0  0  0
   10.3846  -17.9814   24.8662 C   0  0  0  0  0  0  0  0  0  0  0  0
   10.6529  -18.2229   26.3130 O   0  0  0  0  0  0  0  0  0  0  0  0
    9.7379  -18.4130   27.1444 C   0  0  0  0  0  0  0  0  0  0  0  0
    9.4659  -15.7882   25.3570 O   0  0  0  0  0  0  0  0  0  0  0  0
   10.4730  -15.1147   25.0302 O   0  0  0  0  0  0  0  0  0  0  0  0
   11.9834  -18.2433   26.7950 C   0  0  0  0  0  0  0  0  0  0  0  0
    7.2050  -12.8286   25.9409 C   0  0  2  0  0  0  0  0  0  0  0  0
    7.5908  -13.3010   27.3419 C   0  0  0  0  0  0  0  0  0  0  0  0
    6.4303  -14.1185   27.9221 C   0  0  2  0  0  0  0  0  0  0  0  0
    8.8272  -14.1538   27.2008 N   0  0  0  0  0  0  0  0  0  0  0  0
    8.6285  -15.3347   26.3855 C   0  0  0  0  0  0  0  0  0  0  0  0
    9.3654  -14.4649   28.5188 O   0  0  0  0  0  0  0  0  0  0  0  0
    9.4242  -15.7382   28.7985 O   0  0  0  0  0  0  0  0  0  0  0  0
  2  1  1  0
  3  2  2  0
  4  2  1  0
  5  4  1  0
  5  6  1  0
  6  7  1  0
  8 10  1  0
  8  7  1  0
  8  9  1  1
 10 12  1  0
 11 10  2  0
 12 13  1  0
 13 14  1  6
 15 16  2  0
 15 14  1  0
 17 18  2  0
 17 13  1  0
 19 15  1  0
 21 20  1  1
 21 23  1  0
 22 21  1  0
 23 24  1  1
 24 17  1  0
 25 23  1  0
 25 27  1  0
 26 25  2  0
M  END
$$$$
