RDV.pdb
     RDKit          3D

 27 26  0  0  1  0  0  0  0  0999 V2000
    7.6614  -12.4788   18.2006 N   0  0  0  0  0  0  0  0  0  0  0  0
    8.9020  -13.1004   18.4716 C   0  0  0  0  0  0  0  0  0  0  0  0
    9.9675  -12.4300   18.8175 N   0  0  0  0  0  0  0  0  0  0  0  0
    9.0451  -14.5240   18.3522 N   0  0  0  0  0  0  0  0  0  0  0  0
    7.9055  -15.4031   18.1865 C   0  0  0  0  0  0  0  0  0  0  0  0
    7.2042  -15.5369   19.5412 C   0  0  0  0  0  0  0  0  0  0  0  0
    7.5302  -16.8183   20.2331 C   0  0  0  0  0  0  0  0  0  0  0  0
    6.9460  -16.8284   21.6358 C   0  0  2  0  0  0  0  0  0  0  0  0
    7.0014  -15.5042   22.1825 N   0  0  0  0  0  0  0  0  0  0  0  0
    7.7232  -17.8143   22.4085 C   0  0  0  0  0  0  0  0  0  0  0  0
    8.1782  -18.8125   21.7335 O   0  0  0  0  0  0  0  0  0  0  0  0
   10.8701  -12.9966   18.8883 N   0  0  0  0  0  0  0  0  0  0  0  0
    8.0335  -17.8184   23.7803 C   0  0  2  0  0  0  0  0  0  0  0  0
    9.2857  -17.2511   24.2661 C   0  0  0  0  0  0  0  0  0  0  0  0
   10.2824  -17.2293   23.1604 C   0  0  0  0  0  0  0  0  0  0  0  0
   11.7062  -17.2777   23.6007 O   0  0  0  0  0  0  0  0  0  0  0  0
   12.0362  -17.3327   24.8060 C   0  0  0  0  0  0  0  0  0  0  0  0
    9.1086  -15.8752   24.7987 O   0  0  0  0  0  0  0  0  0  0  0  0
    9.7484  -14.9797   24.1958 O   0  0  0  0  0  0  0  0  0  0  0  0
   12.7472  -17.2617   22.6421 C   0  0  0  0  0  0  0  0  0  0  0  0
    6.9449  -12.3912   27.4582 C   0  0  2  0  0  0  0  0  0  0  0  0
    6.8852  -13.6121   26.5413 C   0  0  0  0  0  0  0  0  0  0  0  0
    6.5266  -13.1462   25.1249 C   0  0  1  0  0  0  0  0  0  0  0  0
    8.2502  -14.2541   26.5632 N   0  0  0  0  0  0  0  0  0  0  0  0
    8.2998  -15.5370   25.8923 C   0  0  0  0  0  0  0  0  0  0  0  0
    8.7444  -14.3165   27.9326 O   0  0  0  0  0  0  0  0  0  0  0  0
    8.8182  -15.5197   28.4326 O   0  0  0  0  0  0  0  0  0  0  0  0
  2  1  1  0
  3  2  2  0
  4  2  1  0
  5  4  1  0
  5  6  1  0
  6  7  1  0
  8 10  1  0
  8  7  1  0
  8  9  1  1
 10 12  1  0
 11 10  2  0
 12 13  1  0
 13 14  1  6
 15 16  2  0
 15 14  1  0
 17 18  2  0
 17 13  1  0
 19 15  1  0
 21 20  1  1
 21 23  1  0
 22 21  1  0
 23 24  1  1
 24 17  1  0
 25 23  1  0
 25 27  1  0
 26 25  2  0
M  END
$$$$
