RDV.pdb
     RDKit          3D

 27 26  0  0  1  0  0  0  0  0999 V2000
    9.5259  -13.0039   17.5066 N   0  0  0  0  0  0  0  0  0  0  0  0
    8.4879  -12.7372   18.4287 C   0  0  0  0  0  0  0  0  0  0  0  0
    8.3872  -11.6052   19.0711 N   0  0  0  0  0  0  0  0  0  0  0  0
    7.4947  -13.7334   18.7159 N   0  0  0  0  0  0  0  0  0  0  0  0
    7.7479  -14.8378   19.6189 C   0  0  0  0  0  0  0  0  0  0  0  0
    6.8719  -14.6500   20.8608 C   0  0  0  0  0  0  0  0  0  0  0  0
    6.1014  -15.8789   21.2119 C   0  0  0  0  0  0  0  0  0  0  0  0
    7.0302  -17.0771   21.3153 C   0  0  2  0  0  0  0  0  0  0  0  0
    6.2754  -18.2806   21.1222 N   0  0  0  0  0  0  0  0  0  0  0  0
    7.6760  -16.9962   22.6380 C   0  0  0  0  0  0  0  0  0  0  0  0
    6.8908  -17.1472   23.6477 O   0  0  0  0  0  0  0  0  0  0  0  0
    7.6098  -11.5534   19.8018 N   0  0  0  0  0  0  0  0  0  0  0  0
    9.0291  -16.7735   22.9503 C   0  0  2  0  0  0  0  0  0  0  0  0
    9.4982  -16.8316   24.3296 C   0  0  0  0  0  0  0  0  0  0  0  0
   10.8832  -17.3770   24.3599 C   0  0  0  0  0  0  0  0  0  0  0  0
   10.9733  -18.8616   24.2520 O   0  0  0  0  0  0  0  0  0  0  0  0
   10.0367  -19.6188   24.5895 C   0  0  0  0  0  0  0  0  0  0  0  0
    9.4779  -15.4985   24.9855 O   0  0  0  0  0  0  0  0  0  0  0  0
   10.2246  -14.6335   24.4668 O   0  0  0  0  0  0  0  0  0  0  0  0
   12.1510  -19.4673   23.7529 C   0  0  0  0  0  0  0  0  0  0  0  0
    7.1460  -12.8079   25.4102 C   0  0  2  0  0  0  0  0  0  0  0  0
    7.4637  -13.1630   26.8621 C   0  0  0  0  0  0  0  0  0  0  0  0
    6.3227  -14.0233   27.4189 C   0  0  2  0  0  0  0  0  0  0  0  0
    8.7612  -13.9327   26.8598 N   0  0  0  0  0  0  0  0  0  0  0  0
    8.7026  -15.1681   26.1055 C   0  0  0  0  0  0  0  0  0  0  0  0
    9.2197  -14.1313   28.2288 O   0  0  0  0  0  0  0  0  0  0  0  0
    9.3178  -15.3796   28.5965 O   0  0  0  0  0  0  0  0  0  0  0  0
  2  1  1  0
  3  2  2  0
  4  2  1  0
  5  4  1  0
  5  6  1  0
  6  7  1  0
  8 10  1  0
  8  7  1  0
  8  9  1  1
 10 12  1  0
 11 10  2  0
 12 13  1  0
 13 14  1  6
 15 16  2  0
 15 14  1  0
 17 18  2  0
 17 13  1  0
 19 15  1  0
 21 20  1  1
 21 23  1  0
 22 21  1  0
 23 24  1  1
 24 17  1  0
 25 23  1  0
 25 27  1  0
 26 25  2  0
M  END
$$$$
