HMK.pdb
     RDKit          3D

 28 28  0  0  1  0  0  0  0  0999 V2000
   22.5877    4.4963   -9.1381 N   0  0  0  0  0  0  0  0  0  0  0  0
   22.1436    3.8320  -10.3728 C   0  0  1  0  0  0  0  0  0  0  0  0
   22.1262    2.3381  -10.0205 C   0  0  0  0  0  0  0  0  0  0  0  0
   23.4266    1.8558   -9.5539 C   0  0  0  0  0  0  0  0  0  0  0  0
   23.8089    1.6693   -8.2457 C   0  0  0  0  0  0  0  0  0  0  0  0
   25.0840    1.2131   -8.2069 N   0  0  0  0  0  0  0  0  0  0  0  0
   25.4755    1.1232   -9.4998 C   0  0  0  0  0  0  0  0  0  0  0  0
   24.4650    1.5147  -10.3108 N   0  0  0  0  0  0  0  0  0  0  0  0
   20.7432    4.1905  -10.6738 C   0  0  0  0  0  0  0  0  0  0  0  0
   20.1625    4.9511   -9.8586 O   0  0  0  0  0  0  0  0  0  0  0  0
   18.3847    9.3668  -15.0531 C   0  0  0  0  0  0  0  0  0  0  0  0
   19.5640    8.3699  -14.0919 S   0  0  0  0  0  0  0  0  0  0  0  0
   18.7738    6.7676  -13.6818 C   0  0  0  0  0  0  0  0  0  0  0  0
   19.7192    5.8938  -12.9138 C   0  0  0  0  0  0  0  0  0  0  0  0
   19.0974    4.6029  -12.5484 C   0  0  2  0  0  0  0  0  0  0  0  0
   20.0143    3.7521  -11.7907 N   0  0  0  0  0  0  0  0  0  0  0  0
   18.5432    3.8455  -13.7135 C   0  0  0  0  0  0  0  0  0  0  0  0
   17.6481    4.3296  -14.4478 O   0  0  0  0  0  0  0  0  0  0  0  0
   19.0705    2.5513  -13.9587 N   0  0  0  0  0  0  0  0  0  0  0  0
   18.6312    1.6616  -15.0118 C   0  0  1  0  0  0  0  0  0  0  0  0
   19.7365    1.2025  -15.8604 C   0  0  0  0  0  0  0  0  0  0  0  0
   19.3730    0.3496  -17.0004 C   0  0  0  0  0  0  0  0  0  0  0  0
   20.5523   -0.1297  -17.8119 C   0  0  0  0  0  0  0  0  0  0  0  0
   20.0850   -1.0573  -18.9373 C   0  0  0  0  0  0  0  0  0  0  0  0
   21.1836   -1.4376  -19.7727 N   0  0  0  0  0  0  0  0  0  0  0  0
   17.4675    0.8766  -14.7243 C   0  0  0  0  0  0  0  0  0  0  0  0
   17.2477    0.5178  -13.5025 O   0  0  0  0  0  0  0  0  0  0  0  0
   16.5102    0.4279  -15.5983 O   0  0  0  0  0  0  0  0  0  0  0  0
  2  9  1  0
  2  1  1  1
  3  2  1  0
  4  3  1  0
  4  5  2  0
  6  5  1  0
  7  6  1  0
  8  7  2  0
  8  4  1  0
  9 16  1  0
 10  9  2  0
 12 11  1  0
 13 12  1  0
 14 13  1  0
 15 14  1  6
 16 15  1  0
 17 18  2  0
 17 15  1  0
 19 17  1  0
 20 19  1  0
 20 26  1  0
 20 21  1  1
 22 21  1  0
 23 22  1  0
 24 23  1  0
 24 25  1  0
 26 28  1  0
 27 26  2  0
M  END
$$$$
