HMK.pdb
     RDKit          3D

 28 28  0  0  1  0  0  0  0  0999 V2000
   27.7601  -23.1190  -15.9198 N   0  0  0  0  0  0  0  0  0  0  0  0
   27.2833  -21.7365  -16.0754 C   0  0  1  0  0  0  0  0  0  0  0  0
   26.8872  -21.6308  -17.5546 C   0  0  0  0  0  0  0  0  0  0  0  0
   28.0428  -21.6848  -18.4508 C   0  0  0  0  0  0  0  0  0  0  0  0
   29.2905  -22.1787  -18.1484 C   0  0  0  0  0  0  0  0  0  0  0  0
   30.0989  -22.0601  -19.2292 N   0  0  0  0  0  0  0  0  0  0  0  0
   29.3353  -21.4910  -20.1913 C   0  0  0  0  0  0  0  0  0  0  0  0
   28.0896  -21.2663  -19.7119 N   0  0  0  0  0  0  0  0  0  0  0  0
   26.0371  -21.5337  -15.3098 C   0  0  0  0  0  0  0  0  0  0  0  0
   25.2442  -20.6558  -15.7352 O   0  0  0  0  0  0  0  0  0  0  0  0
   25.0186  -20.5575   -8.5213 C   0  0  0  0  0  0  0  0  0  0  0  0
   25.6054  -21.3799  -10.0338 S   0  0  0  0  0  0  0  0  0  0  0  0
   26.3759  -20.1206  -11.1201 C   0  0  0  0  0  0  0  0  0  0  0  0
   26.5176  -20.6441  -12.5177 C   0  0  0  0  0  0  0  0  0  0  0  0
   25.4477  -21.6085  -12.8522 C   0  0  2  0  0  0  0  0  0  0  0  0
   25.6705  -22.2391  -14.1527 N   0  0  0  0  0  0  0  0  0  0  0  0
   24.0697  -21.0290  -12.7951 C   0  0  0  0  0  0  0  0  0  0  0  0
   23.7787  -20.0989  -12.0045 O   0  0  0  0  0  0  0  0  0  0  0  0
   23.0977  -21.5738  -13.6736 N   0  0  0  0  0  0  0  0  0  0  0  0
   21.7276  -21.1208  -13.7797 C   0  0  1  0  0  0  0  0  0  0  0  0
   20.8630  -22.0920  -14.4591 C   0  0  0  0  0  0  0  0  0  0  0  0
   19.4633  -21.6918  -14.6586 C   0  0  0  0  0  0  0  0  0  0  0  0
   18.6270  -22.7173  -15.3854 C   0  0  0  0  0  0  0  0  0  0  0  0
   17.1865  -22.2206  -15.5387 C   0  0  0  0  0  0  0  0  0  0  0  0
   16.3667  -23.2190  -16.1558 N   0  0  0  0  0  0  0  0  0  0  0  0
   21.2767  -20.2400  -12.7432 C   0  0  0  0  0  0  0  0  0  0  0  0
   20.7591  -19.1038  -13.0765 O   0  0  0  0  0  0  0  0  0  0  0  0
   21.3188  -20.4359  -11.3862 O   0  0  0  0  0  0  0  0  0  0  0  0
  2  9  1  0
  2  1  1  6
  3  2  1  0
  4  3  1  0
  4  5  2  0
  6  5  1  0
  7  6  1  0
  8  7  2  0
  8  4  1  0
  9 16  1  0
 10  9  2  0
 12 11  1  0
 13 12  1  0
 14 13  1  0
 15 14  1  6
 16 15  1  0
 17 18  2  0
 17 15  1  0
 19 17  1  0
 20 19  1  0
 20 26  1  0
 20 21  1  1
 22 21  1  0
 23 22  1  0
 24 23  1  0
 24 25  1  0
 26 28  1  0
 27 26  2  0
M  END
$$$$
