HMK.pdb
     RDKit          3D

 28 28  0  0  1  0  0  0  0  0999 V2000
   21.0103  -19.9471  -10.7518 N   0  0  0  0  0  0  0  0  0  0  0  0
   22.0290  -20.9940  -10.5813 C   0  0  1  0  0  0  0  0  0  0  0  0
   22.0942  -21.6926  -11.9466 C   0  0  0  0  0  0  0  0  0  0  0  0
   20.9047  -22.4991  -12.2223 C   0  0  0  0  0  0  0  0  0  0  0  0
   19.8088  -22.6473  -11.4041 C   0  0  0  0  0  0  0  0  0  0  0  0
   18.9098  -23.4703  -11.9956 N   0  0  0  0  0  0  0  0  0  0  0  0
   19.4653  -23.8221  -13.1790 C   0  0  0  0  0  0  0  0  0  0  0  0
   20.6751  -23.2292  -13.3094 N   0  0  0  0  0  0  0  0  0  0  0  0
   23.3595  -20.3874  -10.3760 C   0  0  0  0  0  0  0  0  0  0  0  0
   23.5588  -19.2618  -10.8990 O   0  0  0  0  0  0  0  0  0  0  0  0
   27.1616  -20.2375   -4.9057 C   0  0  0  0  0  0  0  0  0  0  0  0
   27.5521  -18.9612   -6.1415 S   0  0  0  0  0  0  0  0  0  0  0  0
   27.4564  -19.7163   -7.8090 C   0  0  0  0  0  0  0  0  0  0  0  0
   26.1216  -20.3655   -8.0189 C   0  0  0  0  0  0  0  0  0  0  0  0
   25.7061  -20.3171   -9.4372 C   0  0  2  0  0  0  0  0  0  0  0  0
   24.4119  -20.9646   -9.6477 N   0  0  0  0  0  0  0  0  0  0  0  0
   26.7182  -20.8788  -10.3850 C   0  0  0  0  0  0  0  0  0  0  0  0
   27.2326  -22.0091  -10.2050 O   0  0  0  0  0  0  0  0  0  0  0  0
   27.0772  -20.0807  -11.5019 N   0  0  0  0  0  0  0  0  0  0  0  0
   27.2956  -20.5791  -12.8426 C   0  0  1  0  0  0  0  0  0  0  0  0
   26.4773  -21.7583  -13.1466 C   0  0  0  0  0  0  0  0  0  0  0  0
   26.7206  -22.4043  -14.4438 C   0  0  0  0  0  0  0  0  0  0  0  0
   25.8174  -23.5809  -14.7250 C   0  0  0  0  0  0  0  0  0  0  0  0
   26.1328  -24.1803  -16.0985 C   0  0  0  0  0  0  0  0  0  0  0  0
   25.3000  -25.3146  -16.3624 N   0  0  0  0  0  0  0  0  0  0  0  0
   27.6822  -19.6038  -13.8185 C   0  0  0  0  0  0  0  0  0  0  0  0
   27.2239  -18.4005  -13.7083 O   0  0  0  0  0  0  0  0  0  0  0  0
   28.5041  -19.7701  -14.9041 O   0  0  0  0  0  0  0  0  0  0  0  0
  2  9  1  0
  2  1  1  6
  3  2  1  0
  4  3  1  0
  4  5  2  0
  6  5  1  0
  7  6  1  0
  8  7  2  0
  8  4  1  0
  9 16  1  0
 10  9  2  0
 12 11  1  0
 13 12  1  0
 14 13  1  0
 15 14  1  1
 16 15  1  0
 17 18  2  0
 17 15  1  0
 19 17  1  0
 20 19  1  0
 20 26  1  0
 20 21  1  6
 22 21  1  0
 23 22  1  0
 24 23  1  0
 24 25  1  0
 26 28  1  0
 27 26  2  0
M  END
$$$$
