HMK.pdb
     RDKit          3D

 28 28  0  0  1  0  0  0  0  0999 V2000
   17.2529   -8.5835  -17.5896 N   0  0  0  0  0  0  0  0  0  0  0  0
   17.7860   -7.8402  -16.4380 C   0  0  1  0  0  0  0  0  0  0  0  0
   17.6978   -6.3664  -16.8577 C   0  0  0  0  0  0  0  0  0  0  0  0
   18.7191   -5.9999  -17.8395 C   0  0  0  0  0  0  0  0  0  0  0  0
   19.7438   -5.1003  -17.6576 C   0  0  0  0  0  0  0  0  0  0  0  0
   20.4857   -5.0236  -18.7886 N   0  0  0  0  0  0  0  0  0  0  0  0
   19.9062   -5.8822  -19.6602 C   0  0  0  0  0  0  0  0  0  0  0  0
   18.8354   -6.4705  -19.0775 N   0  0  0  0  0  0  0  0  0  0  0  0
   16.8875   -7.9816  -15.2748 C   0  0  0  0  0  0  0  0  0  0  0  0
   15.6857   -8.2617  -15.5146 O   0  0  0  0  0  0  0  0  0  0  0  0
   14.5288  -11.7650   -9.2642 C   0  0  0  0  0  0  0  0  0  0  0  0
   15.7598  -11.4643  -10.5691 S   0  0  0  0  0  0  0  0  0  0  0  0
   15.5690   -9.7411  -11.1640 C   0  0  0  0  0  0  0  0  0  0  0  0
   16.5497   -9.4490  -12.2596 C   0  0  0  0  0  0  0  0  0  0  0  0
   16.3754   -8.0840  -12.8009 C   0  0  2  0  0  0  0  0  0  0  0  0
   17.2669   -7.8290  -13.9318 N   0  0  0  0  0  0  0  0  0  0  0  0
   16.5256   -7.0025  -11.7783 C   0  0  0  0  0  0  0  0  0  0  0  0
   17.6545   -6.5965  -11.4102 O   0  0  0  0  0  0  0  0  0  0  0  0
   15.3365   -6.4493  -11.2366 N   0  0  0  0  0  0  0  0  0  0  0  0
   15.2824   -5.3197  -10.3341 C   0  0  1  0  0  0  0  0  0  0  0  0
   14.0439   -4.5455  -10.4726 C   0  0  0  0  0  0  0  0  0  0  0  0
   13.9010   -3.3799   -9.5894 C   0  0  0  0  0  0  0  0  0  0  0  0
   12.6372   -2.5859   -9.8168 C   0  0  0  0  0  0  0  0  0  0  0  0
   12.6395   -1.9676  -11.2179 C   0  0  0  0  0  0  0  0  0  0  0  0
   11.4281   -1.2427  -11.4564 N   0  0  0  0  0  0  0  0  0  0  0  0
   15.9961   -5.4683   -9.1005 C   0  0  0  0  0  0  0  0  0  0  0  0
   16.3814   -6.6495   -8.7453 O   0  0  0  0  0  0  0  0  0  0  0  0
   16.3436   -4.4943   -8.1993 O   0  0  0  0  0  0  0  0  0  0  0  0
  2  9  1  0
  2  1  1  6
  3  2  1  0
  4  3  1  0
  4  5  2  0
  6  5  1  0
  7  6  1  0
  8  7  2  0
  8  4  1  0
  9 16  1  0
 10  9  2  0
 12 11  1  0
 13 12  1  0
 14 13  1  0
 15 14  1  1
 16 15  1  0
 17 18  2  0
 17 15  1  0
 19 17  1  0
 20 19  1  0
 20 26  1  0
 20 21  1  1
 22 21  1  0
 23 22  1  0
 24 23  1  0
 24 25  1  0
 26 28  1  0
 27 26  2  0
M  END
$$$$
