HMK.pdb
     RDKit          3D

 28 28  0  0  1  0  0  0  0  0999 V2000
   27.2461  -22.0253  -14.9383 N   0  0  0  0  0  0  0  0  0  0  0  0
   27.4314  -20.9060  -14.0026 C   0  0  1  0  0  0  0  0  0  0  0  0
   26.6436  -19.7470  -14.6290 C   0  0  0  0  0  0  0  0  0  0  0  0
   27.3181  -19.1748  -15.7948 C   0  0  0  0  0  0  0  0  0  0  0  0
   26.9336  -19.3063  -17.1090 C   0  0  0  0  0  0  0  0  0  0  0  0
   27.8035  -18.6387  -17.9046 N   0  0  0  0  0  0  0  0  0  0  0  0
   28.7200  -18.0999  -17.0664 C   0  0  0  0  0  0  0  0  0  0  0  0
   28.4190  -18.4294  -15.7885 N   0  0  0  0  0  0  0  0  0  0  0  0
   26.7659  -21.1959  -12.7167 C   0  0  0  0  0  0  0  0  0  0  0  0
   25.7473  -21.9315  -12.7560 O   0  0  0  0  0  0  0  0  0  0  0  0
   26.2044  -20.2357   -4.8635 C   0  0  0  0  0  0  0  0  0  0  0  0
   27.2141  -19.9278   -6.3447 S   0  0  0  0  0  0  0  0  0  0  0  0
   26.2490  -20.4254   -7.8214 C   0  0  0  0  0  0  0  0  0  0  0  0
   27.0941  -20.3433   -9.0569 C   0  0  0  0  0  0  0  0  0  0  0  0
   26.3463  -20.7653  -10.2608 C   0  0  2  0  0  0  0  0  0  0  0  0
   27.1783  -20.7182  -11.4626 N   0  0  0  0  0  0  0  0  0  0  0  0
   25.0797  -20.0018  -10.4864 C   0  0  0  0  0  0  0  0  0  0  0  0
   25.0907  -18.7974  -10.8387 O   0  0  0  0  0  0  0  0  0  0  0  0
   23.8578  -20.6945  -10.2859 N   0  0  0  0  0  0  0  0  0  0  0  0
   22.6390  -20.4606  -11.0298 C   0  0  1  0  0  0  0  0  0  0  0  0
   22.8902  -20.1521  -12.4421 C   0  0  0  0  0  0  0  0  0  0  0  0
   21.7250  -19.7405  -13.2371 C   0  0  0  0  0  0  0  0  0  0  0  0
   22.0385  -19.4516  -14.6854 C   0  0  0  0  0  0  0  0  0  0  0  0
   20.7818  -18.9746  -15.4192 C   0  0  0  0  0  0  0  0  0  0  0  0
   21.1057  -18.5092  -16.7338 N   0  0  0  0  0  0  0  0  0  0  0  0
   21.4752  -21.1517  -10.5595 C   0  0  0  0  0  0  0  0  0  0  0  0
   20.3454  -20.5246  -10.5443 O   0  0  0  0  0  0  0  0  0  0  0  0
   21.3825  -22.4407  -10.0995 O   0  0  0  0  0  0  0  0  0  0  0  0
  2  9  1  0
  2  1  1  6
  3  2  1  0
  4  3  1  0
  4  5  2  0
  6  5  1  0
  7  6  1  0
  8  7  2  0
  8  4  1  0
  9 16  1  0
 10  9  2  0
 12 11  1  0
 13 12  1  0
 14 13  1  0
 15 14  1  1
 16 15  1  0
 17 18  2  0
 17 15  1  0
 19 17  1  0
 20 19  1  0
 20 26  1  0
 20 21  1  6
 22 21  1  0
 23 22  1  0
 24 23  1  0
 24 25  1  0
 26 28  1  0
 27 26  2  0
M  END
$$$$
