HMK.pdb
     RDKit          3D

 28 28  0  0  1  0  0  0  0  0999 V2000
   21.9119  -18.3277  -16.7695 N   0  0  0  0  0  0  0  0  0  0  0  0
   22.8360  -19.4375  -17.0473 C   0  0  1  0  0  0  0  0  0  0  0  0
   24.2229  -18.7812  -17.0907 C   0  0  0  0  0  0  0  0  0  0  0  0
   24.3320  -17.7676  -18.1405 C   0  0  0  0  0  0  0  0  0  0  0  0
   23.3573  -17.4197  -19.0467 C   0  0  0  0  0  0  0  0  0  0  0  0
   23.8245  -16.4443  -19.8627 N   0  0  0  0  0  0  0  0  0  0  0  0
   25.0898  -16.2006  -19.4475 C   0  0  0  0  0  0  0  0  0  0  0  0
   25.3905  -17.0069  -18.4027 N   0  0  0  0  0  0  0  0  0  0  0  0
   22.8703  -20.3751  -15.9070 C   0  0  0  0  0  0  0  0  0  0  0  0
   23.9742  -20.9188  -15.6501 O   0  0  0  0  0  0  0  0  0  0  0  0
   24.1352  -20.6712   -8.8307 C   0  0  0  0  0  0  0  0  0  0  0  0
   23.9420  -19.8942  -10.4639 S   0  0  0  0  0  0  0  0  0  0  0  0
   22.8900  -20.9769  -11.5034 C   0  0  0  0  0  0  0  0  0  0  0  0
   22.8272  -20.4602  -12.9093 C   0  0  0  0  0  0  0  0  0  0  0  0
   21.9010  -21.2552  -13.7440 C   0  0  2  0  0  0  0  0  0  0  0  0
   21.7750  -20.7046  -15.0929 N   0  0  0  0  0  0  0  0  0  0  0  0
   20.5452  -21.4389  -13.1388 C   0  0  0  0  0  0  0  0  0  0  0  0
   19.7545  -20.4758  -12.9902 O   0  0  0  0  0  0  0  0  0  0  0  0
   20.1845  -22.7508  -12.7364 N   0  0  0  0  0  0  0  0  0  0  0  0
   18.9755  -23.0967  -12.0207 C   0  0  1  0  0  0  0  0  0  0  0  0
   19.2474  -23.7672  -10.7443 C   0  0  0  0  0  0  0  0  0  0  0  0
   18.0745  -24.1871   -9.9651 C   0  0  0  0  0  0  0  0  0  0  0  0
   18.4131  -24.8807   -8.6676 C   0  0  0  0  0  0  0  0  0  0  0  0
   17.1368  -25.3546   -7.9662 C   0  0  0  0  0  0  0  0  0  0  0  0
   17.4250  -25.8150   -6.6416 N   0  0  0  0  0  0  0  0  0  0  0  0
   17.8464  -22.2445  -12.2489 C   0  0  0  0  0  0  0  0  0  0  0  0
   17.9195  -21.0071  -11.8835 O   0  0  0  0  0  0  0  0  0  0  0  0
   16.6431  -22.5667  -12.8232 O   0  0  0  0  0  0  0  0  0  0  0  0
  2  9  1  0
  2  1  1  1
  3  2  1  0
  4  3  1  0
  4  5  2  0
  6  5  1  0
  7  6  1  0
  8  7  2  0
  8  4  1  0
  9 16  1  0
 10  9  2  0
 12 11  1  0
 13 12  1  0
 14 13  1  0
 15 14  1  1
 16 15  1  0
 17 18  2  0
 17 15  1  0
 19 17  1  0
 20 19  1  0
 20 26  1  0
 20 21  1  1
 22 21  1  0
 23 22  1  0
 24 23  1  0
 24 25  1  0
 26 28  1  0
 27 26  2  0
M  END
$$$$
