HMK.pdb
     RDKit          3D

 28 28  0  0  1  0  0  0  0  0999 V2000
   16.3021  -24.1931   -5.7478 N   0  0  0  0  0  0  0  0  0  0  0  0
   15.1333  -23.7862   -4.9533 C   0  0  1  0  0  0  0  0  0  0  0  0
   14.0513  -24.8162   -5.3060 C   0  0  0  0  0  0  0  0  0  0  0  0
   13.5196  -24.6321   -6.6569 C   0  0  0  0  0  0  0  0  0  0  0  0
   12.7166  -23.6012   -7.0868 C   0  0  0  0  0  0  0  0  0  0  0  0
   12.4259  -23.7703   -8.3992 N   0  0  0  0  0  0  0  0  0  0  0  0
   13.0571  -24.9106   -8.7655 C   0  0  0  0  0  0  0  0  0  0  0  0
   13.7182  -25.4275   -7.7035 N   0  0  0  0  0  0  0  0  0  0  0  0
   15.4041  -23.9647   -3.5128 C   0  0  0  0  0  0  0  0  0  0  0  0
   16.2232  -24.8636   -3.1947 O   0  0  0  0  0  0  0  0  0  0  0  0
   17.7675  -20.3652    2.3737 C   0  0  0  0  0  0  0  0  0  0  0  0
   16.0779  -20.4300    1.7033 S   0  0  0  0  0  0  0  0  0  0  0  0
   15.7990  -22.0936    0.9862 C   0  0  0  0  0  0  0  0  0  0  0  0
   15.3746  -21.9863   -0.4476 C   0  0  0  0  0  0  0  0  0  0  0  0
   15.2249  -23.3167   -1.0754 C   0  0  2  0  0  0  0  0  0  0  0  0
   14.8232  -23.2148   -2.4778 N   0  0  0  0  0  0  0  0  0  0  0  0
   14.2947  -24.2314   -0.3431 C   0  0  0  0  0  0  0  0  0  0  0  0
   13.0563  -24.2101   -0.5443 O   0  0  0  0  0  0  0  0  0  0  0  0
   14.8686  -25.1296    0.5936 N   0  0  0  0  0  0  0  0  0  0  0  0
   14.1218  -26.0248    1.4505 C   0  0  1  0  0  0  0  0  0  0  0  0
   14.9091  -27.1880    1.8744 C   0  0  0  0  0  0  0  0  0  0  0  0
   14.2152  -28.1748    2.7134 C   0  0  0  0  0  0  0  0  0  0  0  0
   15.0985  -29.2970    3.2030 C   0  0  0  0  0  0  0  0  0  0  0  0
   14.2827  -30.2995    4.0244 C   0  0  0  0  0  0  0  0  0  0  0  0
   15.0974  -31.4023    4.4367 N   0  0  0  0  0  0  0  0  0  0  0  0
   13.1002  -25.4186    2.2518 C   0  0  0  0  0  0  0  0  0  0  0  0
   11.8631  -25.6389    1.9503 O   0  0  0  0  0  0  0  0  0  0  0  0
   13.2518  -24.5987    3.3410 O   0  0  0  0  0  0  0  0  0  0  0  0
  2  9  1  0
  2  1  1  6
  3  2  1  0
  4  3  1  0
  4  5  2  0
  6  5  1  0
  7  6  1  0
  8  7  2  0
  8  4  1  0
  9 16  1  0
 10  9  2  0
 12 11  1  0
 13 12  1  0
 14 13  1  0
 15 14  1  1
 16 15  1  0
 17 18  2  0
 17 15  1  0
 19 17  1  0
 20 19  1  0
 20 26  1  0
 20 21  1  1
 22 21  1  0
 23 22  1  0
 24 23  1  0
 24 25  1  0
 26 28  1  0
 27 26  2  0
M  END
$$$$
