HMK.pdb
     RDKit          3D

 28 28  0  0  1  0  0  0  0  0999 V2000
   23.9245  -19.2638  -16.7323 N   0  0  0  0  0  0  0  0  0  0  0  0
   22.5063  -19.6507  -16.6877 C   0  0  1  0  0  0  0  0  0  0  0  0
   22.3091  -20.5318  -17.9290 C   0  0  0  0  0  0  0  0  0  0  0  0
   22.4945  -19.7922  -19.1781 C   0  0  0  0  0  0  0  0  0  0  0  0
   21.5901  -18.9384  -19.7655 C   0  0  0  0  0  0  0  0  0  0  0  0
   22.1145  -18.4414  -20.9116 N   0  0  0  0  0  0  0  0  0  0  0  0
   23.3439  -18.9981  -21.0181 C   0  0  0  0  0  0  0  0  0  0  0  0
   23.5673  -19.8162  -19.9630 N   0  0  0  0  0  0  0  0  0  0  0  0
   22.2493  -20.5271  -15.5274 C   0  0  0  0  0  0  0  0  0  0  0  0
   23.2216  -21.1935  -15.0910 O   0  0  0  0  0  0  0  0  0  0  0  0
   21.1452  -19.6741   -8.2653 C   0  0  0  0  0  0  0  0  0  0  0  0
   21.0768  -19.0398   -9.9687 S   0  0  0  0  0  0  0  0  0  0  0  0
   20.9400  -20.4633  -11.1153 C   0  0  0  0  0  0  0  0  0  0  0  0
   21.1294  -20.0185  -12.5343 C   0  0  0  0  0  0  0  0  0  0  0  0
   20.8707  -21.1157  -13.4913 C   0  0  2  0  0  0  0  0  0  0  0  0
   21.0133  -20.6735  -14.8779 N   0  0  0  0  0  0  0  0  0  0  0  0
   19.5463  -21.7852  -13.3025 C   0  0  0  0  0  0  0  0  0  0  0  0
   18.4841  -21.2776  -13.7370 O   0  0  0  0  0  0  0  0  0  0  0  0
   19.5358  -23.0231  -12.6092 N   0  0  0  0  0  0  0  0  0  0  0  0
   18.3627  -23.8406  -12.3875 C   0  0  1  0  0  0  0  0  0  0  0  0
   18.6971  -25.2343  -12.0739 C   0  0  0  0  0  0  0  0  0  0  0  0
   17.5656  -26.1622  -11.9392 C   0  0  0  0  0  0  0  0  0  0  0  0
   17.9699  -27.6092  -11.7908 C   0  0  0  0  0  0  0  0  0  0  0  0
   16.7340  -28.4918  -11.5943 C   0  0  0  0  0  0  0  0  0  0  0  0
   17.1130  -29.8311  -11.2592 N   0  0  0  0  0  0  0  0  0  0  0  0
   17.2136  -23.1601  -11.8681 C   0  0  0  0  0  0  0  0  0  0  0  0
   17.3582  -22.3997  -10.8333 O   0  0  0  0  0  0  0  0  0  0  0  0
   15.9226  -23.2024  -12.3297 O   0  0  0  0  0  0  0  0  0  0  0  0
  2  9  1  0
  2  1  1  1
  3  2  1  0
  4  3  1  0
  4  5  2  0
  6  5  1  0
  7  6  1  0
  8  7  2  0
  8  4  1  0
  9 16  1  0
 10  9  2  0
 12 11  1  0
 13 12  1  0
 14 13  1  0
 15 14  1  1
 16 15  1  0
 17 18  2  0
 17 15  1  0
 19 17  1  0
 20 19  1  0
 20 26  1  0
 20 21  1  1
 22 21  1  0
 23 22  1  0
 24 23  1  0
 24 25  1  0
 26 28  1  0
 27 26  2  0
M  END
$$$$
