HMK.pdb
     RDKit          3D

 28 28  0  0  1  0  0  0  0  0999 V2000
   23.2843  -21.3935   -8.4469 N   0  0  0  0  0  0  0  0  0  0  0  0
   23.2305  -21.4612   -9.9151 C   0  0  1  0  0  0  0  0  0  0  0  0
   21.9336  -20.7288  -10.2862 C   0  0  0  0  0  0  0  0  0  0  0  0
   20.7424  -21.5503  -10.0681 C   0  0  0  0  0  0  0  0  0  0  0  0
   19.9421  -21.5506   -8.9492 C   0  0  0  0  0  0  0  0  0  0  0  0
   18.9356  -22.4427   -9.1122 N   0  0  0  0  0  0  0  0  0  0  0  0
   19.1282  -22.9855  -10.3374 C   0  0  0  0  0  0  0  0  0  0  0  0
   20.2259  -22.4393  -10.9110 N   0  0  0  0  0  0  0  0  0  0  0  0
   24.3249  -20.6657  -10.5064 C   0  0  0  0  0  0  0  0  0  0  0  0
   24.8137  -19.7523   -9.7944 O   0  0  0  0  0  0  0  0  0  0  0  0
   31.2243  -20.5873  -10.9499 C   0  0  0  0  0  0  0  0  0  0  0  0
   29.5795  -21.2855  -10.6103 S   0  0  0  0  0  0  0  0  0  0  0  0
   28.5905  -21.2234  -12.1523 C   0  0  0  0  0  0  0  0  0  0  0  0
   27.1689  -21.6164  -11.8841 C   0  0  0  0  0  0  0  0  0  0  0  0
   26.2326  -20.5051  -12.1580 C   0  0  2  0  0  0  0  0  0  0  0  0
   24.8589  -20.8479  -11.7920 N   0  0  0  0  0  0  0  0  0  0  0  0
   26.2765  -20.0091  -13.5687 C   0  0  0  0  0  0  0  0  0  0  0  0
   25.9474  -20.7401  -14.5342 O   0  0  0  0  0  0  0  0  0  0  0  0
   26.7070  -18.6731  -13.7758 N   0  0  0  0  0  0  0  0  0  0  0  0
   26.7600  -18.0073  -15.0593 C   0  0  1  0  0  0  0  0  0  0  0  0
   27.1075  -16.5865  -14.9443 C   0  0  0  0  0  0  0  0  0  0  0  0
   27.0724  -15.8037  -16.1873 C   0  0  0  0  0  0  0  0  0  0  0  0
   27.4076  -14.3429  -16.0050 C   0  0  0  0  0  0  0  0  0  0  0  0
   27.2208  -13.5835  -17.3217 C   0  0  0  0  0  0  0  0  0  0  0  0
   27.4922  -12.1885  -17.1477 N   0  0  0  0  0  0  0  0  0  0  0  0
   27.1208  -18.8284  -16.1769 C   0  0  0  0  0  0  0  0  0  0  0  0
   28.2521  -19.4525  -16.1483 O   0  0  0  0  0  0  0  0  0  0  0  0
   26.4081  -19.0568  -17.3264 O   0  0  0  0  0  0  0  0  0  0  0  0
  2  9  1  0
  2  1  1  1
  3  2  1  0
  4  3  1  0
  4  5  2  0
  6  5  1  0
  7  6  1  0
  8  7  2  0
  8  4  1  0
  9 16  1  0
 10  9  2  0
 12 11  1  0
 13 12  1  0
 14 13  1  0
 15 14  1  6
 16 15  1  0
 17 18  2  0
 17 15  1  0
 19 17  1  0
 20 19  1  0
 20 26  1  0
 20 21  1  1
 22 21  1  0
 23 22  1  0
 24 23  1  0
 24 25  1  0
 26 28  1  0
 27 26  2  0
M  END
$$$$
