HMK.pdb
     RDKit          3D

 28 28  0  0  1  0  0  0  0  0999 V2000
   16.6762  -12.0969  -16.1417 N   0  0  0  0  0  0  0  0  0  0  0  0
   17.2544  -11.0169  -16.9553 C   0  0  1  0  0  0  0  0  0  0  0  0
   16.0440  -10.1941  -17.4180 C   0  0  0  0  0  0  0  0  0  0  0  0
   15.2600  -10.8781  -18.4471 C   0  0  0  0  0  0  0  0  0  0  0  0
   15.7422  -11.7375  -19.4069 C   0  0  0  0  0  0  0  0  0  0  0  0
   14.7189  -12.1722  -20.1811 N   0  0  0  0  0  0  0  0  0  0  0  0
   13.6108  -11.5721  -19.6865 C   0  0  0  0  0  0  0  0  0  0  0  0
   13.9469  -10.7888  -18.6350 N   0  0  0  0  0  0  0  0  0  0  0  0
   18.0574  -10.1107  -16.1102 C   0  0  0  0  0  0  0  0  0  0  0  0
   17.6683   -9.9419  -14.9269 O   0  0  0  0  0  0  0  0  0  0  0  0
   24.2218   -9.7130  -13.7938 C   0  0  0  0  0  0  0  0  0  0  0  0
   23.9572   -8.2351  -14.8206 S   0  0  0  0  0  0  0  0  0  0  0  0
   22.1691   -7.8321  -14.8115 C   0  0  0  0  0  0  0  0  0  0  0  0
   21.4036   -8.8077  -15.6538 C   0  0  0  0  0  0  0  0  0  0  0  0
   19.9570   -8.5016  -15.6681 C   0  0  2  0  0  0  0  0  0  0  0  0
   19.2130   -9.4276  -16.5212 N   0  0  0  0  0  0  0  0  0  0  0  0
   19.6397   -7.0900  -16.0484 C   0  0  0  0  0  0  0  0  0  0  0  0
   19.6816   -6.7043  -17.2418 O   0  0  0  0  0  0  0  0  0  0  0  0
   19.2875   -6.1977  -15.0029 N   0  0  0  0  0  0  0  0  0  0  0  0
   18.9878   -4.7928  -15.1761 C   0  0  1  0  0  0  0  0  0  0  0  0
   17.5928   -4.4697  -14.8561 C   0  0  0  0  0  0  0  0  0  0  0  0
   17.1966   -3.0634  -15.0123 C   0  0  0  0  0  0  0  0  0  0  0  0
   15.7346   -2.8015  -14.7415 C   0  0  0  0  0  0  0  0  0  0  0  0
   15.3728   -1.3598  -15.1100 C   0  0  0  0  0  0  0  0  0  0  0  0
   13.9858   -1.1043  -14.8639 N   0  0  0  0  0  0  0  0  0  0  0  0
   20.0816   -3.8892  -14.9755 C   0  0  0  0  0  0  0  0  0  0  0  0
   20.3693   -3.0462  -15.9117 O   0  0  0  0  0  0  0  0  0  0  0  0
   20.9072   -3.7861  -13.8850 O   0  0  0  0  0  0  0  0  0  0  0  0
  2  9  1  0
  2  1  1  1
  3  2  1  0
  4  3  1  0
  4  5  2  0
  6  5  1  0
  7  6  1  0
  8  7  2  0
  8  4  1  0
  9 16  1  0
 10  9  2  0
 12 11  1  0
 13 12  1  0
 14 13  1  0
 15 14  1  6
 16 15  1  0
 17 18  2  0
 17 15  1  0
 19 17  1  0
 20 19  1  0
 20 26  1  0
 20 21  1  1
 22 21  1  0
 23 22  1  0
 24 23  1  0
 24 25  1  0
 26 28  1  0
 27 26  2  0
M  END
$$$$
