HMK.pdb
     RDKit          3D

 28 28  0  0  1  0  0  0  0  0999 V2000
   13.4289  -21.2729    1.6450 N   0  0  0  0  0  0  0  0  0  0  0  0
   13.8212  -19.9039    2.0118 C   0  0  1  0  0  0  0  0  0  0  0  0
   12.9542  -19.5700    3.2336 C   0  0  0  0  0  0  0  0  0  0  0  0
   11.5646  -19.2837    2.8749 C   0  0  0  0  0  0  0  0  0  0  0  0
   11.0512  -18.0645    2.4980 C   0  0  0  0  0  0  0  0  0  0  0  0
    9.7263  -18.1896    2.2440 N   0  0  0  0  0  0  0  0  0  0  0  0
    9.4364  -19.4927    2.4687 C   0  0  0  0  0  0  0  0  0  0  0  0
   10.5563  -20.1499    2.8510 N   0  0  0  0  0  0  0  0  0  0  0  0
   15.2176  -19.8807    2.4912 C   0  0  0  0  0  0  0  0  0  0  0  0
   15.6679  -20.9457    2.9843 O   0  0  0  0  0  0  0  0  0  0  0  0
   22.5408  -17.0733    2.0819 C   0  0  0  0  0  0  0  0  0  0  0  0
   20.8636  -17.1071    1.3790 S   0  0  0  0  0  0  0  0  0  0  0  0
   19.7595  -17.9867    2.5482 C   0  0  0  0  0  0  0  0  0  0  0  0
   18.3659  -18.0649    2.0013 C   0  0  0  0  0  0  0  0  0  0  0  0
   17.4583  -18.7893    2.9168 C   0  0  2  0  0  0  0  0  0  0  0  0
   16.0759  -18.7709    2.4401 N   0  0  0  0  0  0  0  0  0  0  0  0
   17.5165  -18.3103    4.3328 C   0  0  0  0  0  0  0  0  0  0  0  0
   17.0983  -17.1736    4.6612 O   0  0  0  0  0  0  0  0  0  0  0  0
   18.0658  -19.1946    5.2969 N   0  0  0  0  0  0  0  0  0  0  0  0
   18.2960  -18.8677    6.6875 C   0  0  1  0  0  0  0  0  0  0  0  0
   17.2671  -19.4211    7.5752 C   0  0  0  0  0  0  0  0  0  0  0  0
   15.9372  -18.8010    7.4985 C   0  0  0  0  0  0  0  0  0  0  0  0
   14.8654  -19.5460    8.2571 C   0  0  0  0  0  0  0  0  0  0  0  0
   13.4987  -18.8934    8.0305 C   0  0  0  0  0  0  0  0  0  0  0  0
   12.4811  -19.5714    8.7752 N   0  0  0  0  0  0  0  0  0  0  0  0
   19.6647  -18.6849    7.0702 C   0  0  0  0  0  0  0  0  0  0  0  0
   19.9219  -18.1850    8.2337 O   0  0  0  0  0  0  0  0  0  0  0  0
   20.7934  -18.9745    6.3465 O   0  0  0  0  0  0  0  0  0  0  0  0
  2  9  1  0
  2  1  1  1
  3  2  1  0
  4  3  1  0
  4  5  2  0
  6  5  1  0
  7  6  1  0
  8  7  2  0
  8  4  1  0
  9 16  1  0
 10  9  2  0
 12 11  1  0
 13 12  1  0
 14 13  1  0
 15 14  1  6
 16 15  1  0
 17 18  2  0
 17 15  1  0
 19 17  1  0
 20 19  1  0
 20 26  1  0
 20 21  1  1
 22 21  1  0
 23 22  1  0
 24 23  1  0
 24 25  1  0
 26 28  1  0
 27 26  2  0
M  END
$$$$
