HMK.pdb
     RDKit          3D

 28 28  0  0  1  0  0  0  0  0999 V2000
   20.7737  -16.5910  -18.3842 N   0  0  0  0  0  0  0  0  0  0  0  0
   21.3639  -15.4075  -19.0274 C   0  0  1  0  0  0  0  0  0  0  0  0
   20.2010  -14.7700  -19.8003 C   0  0  0  0  0  0  0  0  0  0  0  0
   19.8082  -15.5542  -20.9717 C   0  0  0  0  0  0  0  0  0  0  0  0
   20.6221  -15.9308  -22.0148 C   0  0  0  0  0  0  0  0  0  0  0  0
   19.9047  -16.6468  -22.9137 N   0  0  0  0  0  0  0  0  0  0  0  0
   18.6488  -16.7036  -22.4113 C   0  0  0  0  0  0  0  0  0  0  0  0
   18.5982  -16.0387  -21.2333 N   0  0  0  0  0  0  0  0  0  0  0  0
   21.7625  -14.4148  -18.0096 C   0  0  0  0  0  0  0  0  0  0  0  0
   20.9041  -14.1127  -17.1423 O   0  0  0  0  0  0  0  0  0  0  0  0
   27.2618  -10.9486  -13.6070 C   0  0  0  0  0  0  0  0  0  0  0  0
   26.9136  -12.1023  -14.9695 S   0  0  0  0  0  0  0  0  0  0  0  0
   25.1419  -11.9577  -15.4168 C   0  0  0  0  0  0  0  0  0  0  0  0
   24.7942  -12.9184  -16.5138 C   0  0  0  0  0  0  0  0  0  0  0  0
   23.3739  -12.8065  -16.9098 C   0  0  2  0  0  0  0  0  0  0  0  0
   23.0156  -13.7864  -17.9345 N   0  0  0  0  0  0  0  0  0  0  0  0
   22.9744  -11.4347  -17.3533 C   0  0  0  0  0  0  0  0  0  0  0  0
   23.2321  -11.0146  -18.5073 O   0  0  0  0  0  0  0  0  0  0  0  0
   22.2891  -10.6210  -16.4144 N   0  0  0  0  0  0  0  0  0  0  0  0
   21.8519   -9.2630  -16.6557 C   0  0  1  0  0  0  0  0  0  0  0  0
   20.4758   -9.1942  -17.1599 C   0  0  0  0  0  0  0  0  0  0  0  0
   19.9471   -7.8505  -17.4320 C   0  0  0  0  0  0  0  0  0  0  0  0
   18.5906   -7.8447  -18.0947 C   0  0  0  0  0  0  0  0  0  0  0  0
   18.1955   -6.4191  -18.4908 C   0  0  0  0  0  0  0  0  0  0  0  0
   19.0550   -5.9204  -19.5214 N   0  0  0  0  0  0  0  0  0  0  0  0
   22.4497   -8.2560  -15.8300 C   0  0  0  0  0  0  0  0  0  0  0  0
   23.3203   -7.4589  -16.3560 O   0  0  0  0  0  0  0  0  0  0  0  0
   22.2235   -8.0054  -14.5005 O   0  0  0  0  0  0  0  0  0  0  0  0
  2  9  1  0
  2  1  1  1
  3  2  1  0
  4  3  1  0
  4  5  2  0
  6  5  1  0
  7  6  1  0
  8  7  2  0
  8  4  1  0
  9 16  1  0
 10  9  2  0
 12 11  1  0
 13 12  1  0
 14 13  1  0
 15 14  1  6
 16 15  1  0
 17 18  2  0
 17 15  1  0
 19 17  1  0
 20 19  1  0
 20 26  1  0
 20 21  1  1
 22 21  1  0
 23 22  1  0
 24 23  1  0
 24 25  1  0
 26 28  1  0
 27 26  2  0
M  END
$$$$
