IEE.pdb
     RDKit          3D

 27 26  0  0  1  0  0  0  0  0999 V2000
    8.4149  -12.0462   26.7971 C   0  0  0  0  0  0  0  0  0  0  0  0
    8.0050  -13.4855   26.5560 C   0  0  0  0  0  0  0  0  0  0  0  0
    6.8404  -13.4655   25.5908 C   0  0  2  0  0  0  0  0  0  0  0  0
    5.7062  -12.7052   26.2503 C   0  0  0  0  0  0  0  0  0  0  0  0
    6.4104  -14.8634   25.2046 C   0  0  2  0  0  0  0  0  0  0  0  0
    6.3746  -15.6762   26.3778 N   0  0  0  0  0  0  0  0  0  0  0  0
    7.3292  -15.3881   24.1669 C   0  0  0  0  0  0  0  0  0  0  0  0
    6.8053  -15.5641   23.0087 O   0  0  0  0  0  0  0  0  0  0  0  0
    8.6942  -15.6925   24.3736 N   0  0  0  0  0  0  0  0  0  0  0  0
    9.5018  -16.2224   23.2966 C   0  0  1  0  0  0  0  0  0  0  0  0
    9.2942  -15.5512   22.0034 C   0  0  0  0  0  0  0  0  0  0  0  0
   10.2269  -15.8101   20.8921 C   0  0  0  0  0  0  0  0  0  0  0  0
   10.1767  -17.0846   20.2089 C   0  0  0  0  0  0  0  0  0  0  0  0
   11.1565  -17.5241   19.5709 O   0  0  0  0  0  0  0  0  0  0  0  0
   10.9057  -16.4182   23.6797 C   0  0  0  0  0  0  0  0  0  0  0  0
   11.7421  -15.4852   23.6303 O   0  0  0  0  0  0  0  0  0  0  0  0
    9.0387  -17.8769   20.2295 O   0  0  0  0  0  0  0  0  0  0  0  0
   11.3481  -17.6866   24.1218 N   0  0  0  0  0  0  0  0  0  0  0  0
   12.4567  -17.7619   25.0037 C   0  0  1  0  0  0  0  0  0  0  0  0
   12.0681  -18.0847   26.4094 C   0  0  0  0  0  0  0  0  0  0  0  0
   11.6554  -19.4597   26.7355 C   0  0  0  0  0  0  0  0  0  0  0  0
   11.3785  -19.8203   28.1217 C   0  0  0  0  0  0  0  0  0  0  0  0
   10.3716  -19.4153   28.7169 O   0  0  0  0  0  0  0  0  0  0  0  0
   13.5242  -18.6800   24.5081 C   0  0  0  0  0  0  0  0  0  0  0  0
   13.2600  -19.3994   23.5205 O   0  0  0  0  0  0  0  0  0  0  0  0
   12.2380  -20.6467   28.8603 O   0  0  0  0  0  0  0  0  0  0  0  0
   14.7731  -18.7693   25.0833 O   0  0  0  0  0  0  0  0  0  0  0  0
  2  1  1  0
  3  2  1  0
  3  4  1  1
  5  6  1  1
  5  3  1  0
  7  5  1  0
  8  7  2  0
  9  7  1  0
 10  9  1  0
 10 11  1  6
 11 12  1  0
 12 13  1  0
 13 14  2  0
 13 17  1  0
 15 18  1  0
 15 10  1  0
 16 15  2  0
 19 24  1  0
 19 18  1  0
 19 20  1  1
 21 20  1  0
 21 22  1  0
 22 23  2  0
 22 26  1  0
 24 27  1  0
 25 24  2  0
M  END
$$$$
