IEE.pdb
     RDKit          3D

 27 26  0  0  1  0  0  0  0  0999 V2000
    6.6196  -12.0020   26.9503 C   0  0  0  0  0  0  0  0  0  0  0  0
    6.0676  -13.0784   26.0369 C   0  0  0  0  0  0  0  0  0  0  0  0
    7.2301  -13.9491   25.6143 C   0  0  2  0  0  0  0  0  0  0  0  0
    8.2252  -13.0690   24.8831 C   0  0  0  0  0  0  0  0  0  0  0  0
    6.7781  -15.1024   24.7461 C   0  0  2  0  0  0  0  0  0  0  0  0
    5.7936  -15.8556   25.4545 N   0  0  0  0  0  0  0  0  0  0  0  0
    7.9564  -15.9133   24.3584 C   0  0  0  0  0  0  0  0  0  0  0  0
    8.3387  -16.7762   25.2279 O   0  0  0  0  0  0  0  0  0  0  0  0
    8.6534  -15.7941   23.1342 N   0  0  0  0  0  0  0  0  0  0  0  0
    9.7419  -16.6924   22.8161 C   0  0  1  0  0  0  0  0  0  0  0  0
   10.0897  -16.7327   21.3867 C   0  0  0  0  0  0  0  0  0  0  0  0
    9.0390  -17.0071   20.3903 C   0  0  0  0  0  0  0  0  0  0  0  0
    9.3891  -17.0511   18.9871 C   0  0  0  0  0  0  0  0  0  0  0  0
    8.8289  -17.8402   18.1973 O   0  0  0  0  0  0  0  0  0  0  0  0
   10.8814  -16.5543   23.7319 C   0  0  0  0  0  0  0  0  0  0  0  0
   11.5328  -15.4866   23.8225 O   0  0  0  0  0  0  0  0  0  0  0  0
   10.3635  -16.2207   18.4539 O   0  0  0  0  0  0  0  0  0  0  0  0
   11.2712  -17.6434   24.5455 N   0  0  0  0  0  0  0  0  0  0  0  0
   12.3668  -17.4845   25.4326 C   0  0  1  0  0  0  0  0  0  0  0  0
   12.0027  -17.7144   26.8628 C   0  0  0  0  0  0  0  0  0  0  0  0
   11.5459  -19.0520   27.2746 C   0  0  0  0  0  0  0  0  0  0  0  0
   11.2584  -19.3152   28.6804 C   0  0  0  0  0  0  0  0  0  0  0  0
   12.1083  -19.1539   29.5657 O   0  0  0  0  0  0  0  0  0  0  0  0
   13.5522  -18.2993   25.0335 C   0  0  0  0  0  0  0  0  0  0  0  0
   14.6326  -18.0817   25.6234 O   0  0  0  0  0  0  0  0  0  0  0  0
   10.0018  -19.7667   29.1098 O   0  0  0  0  0  0  0  0  0  0  0  0
   13.5097  -19.2691   24.0556 O   0  0  0  0  0  0  0  0  0  0  0  0
  2  1  1  0
  3  2  1  0
  3  4  1  6
  5  6  1  1
  5  3  1  0
  7  5  1  0
  8  7  2  0
  9  7  1  0
 10  9  1  0
 10 11  1  6
 11 12  1  0
 12 13  1  0
 13 14  2  0
 13 17  1  0
 15 18  1  0
 15 10  1  0
 16 15  2  0
 19 24  1  0
 19 18  1  0
 19 20  1  1
 21 20  1  0
 21 22  1  0
 22 23  2  0
 22 26  1  0
 24 27  1  0
 25 24  2  0
M  END
$$$$
