IEE.pdb
     RDKit          3D

 27 26  0  0  1  0  0  0  0  0999 V2000
    7.3957  -11.8029   20.8301 C   0  0  0  0  0  0  0  0  0  0  0  0
    7.0361  -13.1647   20.2699 C   0  0  0  0  0  0  0  0  0  0  0  0
    8.1216  -14.1276   20.6972 C   0  0  2  0  0  0  0  0  0  0  0  0
    9.4464  -13.5800   20.2027 C   0  0  0  0  0  0  0  0  0  0  0  0
    7.8731  -15.5218   20.1658 C   0  0  2  0  0  0  0  0  0  0  0  0
    6.6047  -15.9766   20.6377 N   0  0  0  0  0  0  0  0  0  0  0  0
    8.9909  -16.4061   20.5720 C   0  0  0  0  0  0  0  0  0  0  0  0
    8.8383  -17.0006   21.6989 O   0  0  0  0  0  0  0  0  0  0  0  0
   10.1669  -16.6222   19.8177 N   0  0  0  0  0  0  0  0  0  0  0  0
   11.1905  -17.5274   20.2929 C   0  0  1  0  0  0  0  0  0  0  0  0
   12.1351  -17.9657   19.2529 C   0  0  0  0  0  0  0  0  0  0  0  0
   13.1996  -18.9255   19.5957 C   0  0  0  0  0  0  0  0  0  0  0  0
   14.1129  -19.3670   18.5638 C   0  0  0  0  0  0  0  0  0  0  0  0
   15.0901  -20.1000   18.8247 O   0  0  0  0  0  0  0  0  0  0  0  0
   11.8075  -17.0819   21.5486 C   0  0  0  0  0  0  0  0  0  0  0  0
   12.2656  -15.9228   21.6869 O   0  0  0  0  0  0  0  0  0  0  0  0
   13.9468  -18.9962   17.2378 O   0  0  0  0  0  0  0  0  0  0  0  0
   11.8963  -17.9685   22.6468 N   0  0  0  0  0  0  0  0  0  0  0  0
   12.4274  -17.4955   23.8743 C   0  0  1  0  0  0  0  0  0  0  0  0
   12.0282  -18.3295   25.0473 C   0  0  0  0  0  0  0  0  0  0  0  0
   12.5307  -17.9661   26.3826 C   0  0  0  0  0  0  0  0  0  0  0  0
   12.1856  -18.7939   27.5332 C   0  0  0  0  0  0  0  0  0  0  0  0
   11.0373  -18.8326   27.9935 O   0  0  0  0  0  0  0  0  0  0  0  0
   13.9062  -17.2986   23.8227 C   0  0  0  0  0  0  0  0  0  0  0  0
   14.5698  -18.0651   23.0914 O   0  0  0  0  0  0  0  0  0  0  0  0
   13.1359  -19.5938   28.1846 O   0  0  0  0  0  0  0  0  0  0  0  0
   14.5651  -16.3214   24.5365 O   0  0  0  0  0  0  0  0  0  0  0  0
  2  1  1  0
  3  2  1  0
  3  4  1  6
  5  6  1  1
  5  3  1  0
  7  5  1  0
  8  7  2  0
  9  7  1  0
 10  9  1  0
 10 11  1  6
 11 12  1  0
 12 13  1  0
 13 14  2  0
 13 17  1  0
 15 18  1  0
 15 10  1  0
 16 15  2  0
 19 24  1  0
 19 18  1  0
 19 20  1  1
 21 20  1  0
 21 22  1  0
 22 23  2  0
 22 26  1  0
 24 27  1  0
 25 24  2  0
M  END
$$$$
