IEE.pdb
     RDKit          3D

 27 26  0  0  1  0  0  0  0  0999 V2000
    8.0313  -10.5946   25.6632 C   0  0  0  0  0  0  0  0  0  0  0  0
    6.8423  -11.5339   25.7003 C   0  0  0  0  0  0  0  0  0  0  0  0
    7.3801  -12.9442   25.6004 C   0  0  2  0  0  0  0  0  0  0  0  0
    8.2265  -13.0284   24.3450 C   0  0  0  0  0  0  0  0  0  0  0  0
    6.2660  -13.9671   25.5790 C   0  0  2  0  0  0  0  0  0  0  0  0
    5.3959  -13.7254   26.6848 N   0  0  0  0  0  0  0  0  0  0  0  0
    6.8521  -15.3283   25.5926 C   0  0  0  0  0  0  0  0  0  0  0  0
    7.3739  -15.6897   26.7079 O   0  0  0  0  0  0  0  0  0  0  0  0
    6.8670  -16.2140   24.4909 N   0  0  0  0  0  0  0  0  0  0  0  0
    7.3339  -17.5744   24.6460 C   0  0  1  0  0  0  0  0  0  0  0  0
    6.4698  -18.5825   24.0112 C   0  0  0  0  0  0  0  0  0  0  0  0
    6.8591  -20.0033   24.0522 C   0  0  0  0  0  0  0  0  0  0  0  0
    6.0192  -20.9858   23.4021 C   0  0  0  0  0  0  0  0  0  0  0  0
    5.8916  -21.0186   22.1600 O   0  0  0  0  0  0  0  0  0  0  0  0
    8.7688  -17.7197   24.3702 C   0  0  0  0  0  0  0  0  0  0  0  0
    9.2431  -17.5499   23.2218 O   0  0  0  0  0  0  0  0  0  0  0  0
    5.3158  -21.9359   24.1273 O   0  0  0  0  0  0  0  0  0  0  0  0
    9.6593  -18.0586   25.4152 N   0  0  0  0  0  0  0  0  0  0  0  0
   10.9909  -18.4282   25.0944 C   0  0  1  0  0  0  0  0  0  0  0  0
   11.5699  -17.6258   23.9755 C   0  0  0  0  0  0  0  0  0  0  0  0
   12.8178  -16.8797   24.2066 C   0  0  0  0  0  0  0  0  0  0  0  0
   13.4440  -16.1614   23.1021 C   0  0  0  0  0  0  0  0  0  0  0  0
   14.4347  -15.4380   23.2670 O   0  0  0  0  0  0  0  0  0  0  0  0
   11.8896  -18.4307   26.2862 C   0  0  0  0  0  0  0  0  0  0  0  0
   11.4357  -17.9742   27.3577 O   0  0  0  0  0  0  0  0  0  0  0  0
   12.9589  -16.2489   21.7889 O   0  0  0  0  0  0  0  0  0  0  0  0
   13.1819  -18.9080   26.2588 O   0  0  0  0  0  0  0  0  0  0  0  0
  2  1  1  0
  3  2  1  0
  3  4  1  6
  5  6  1  1
  5  3  1  0
  7  5  1  0
  8  7  2  0
  9  7  1  0
 10  9  1  0
 10 11  1  6
 11 12  1  0
 12 13  1  0
 13 14  2  0
 13 17  1  0
 15 18  1  0
 15 10  1  0
 16 15  2  0
 19 24  1  0
 19 18  1  0
 19 20  1  6
 21 20  1  0
 21 22  1  0
 22 23  2  0
 22 26  1  0
 24 27  1  0
 25 24  2  0
M  END
$$$$
