IEE.pdb
     RDKit          3D

 27 26  0  0  1  0  0  0  0  0999 V2000
    8.6834  -12.5370   27.5252 C   0  0  0  0  0  0  0  0  0  0  0  0
    7.8271  -13.7177   27.1122 C   0  0  0  0  0  0  0  0  0  0  0  0
    7.2496  -13.3997   25.7507 C   0  0  2  0  0  0  0  0  0  0  0  0
    6.4200  -12.1373   25.8837 C   0  0  0  0  0  0  0  0  0  0  0  0
    6.4206  -14.5454   25.2138 C   0  0  2  0  0  0  0  0  0  0  0  0
    5.4757  -14.9381   26.2094 N   0  0  0  0  0  0  0  0  0  0  0  0
    7.3202  -15.6497   24.8044 C   0  0  0  0  0  0  0  0  0  0  0  0
    7.2252  -16.7221   25.5028 O   0  0  0  0  0  0  0  0  0  0  0  0
    8.2386  -15.5898   23.7314 N   0  0  0  0  0  0  0  0  0  0  0  0
    9.1133  -16.7065   23.4475 C   0  0  1  0  0  0  0  0  0  0  0  0
    9.7916  -16.6226   22.1441 C   0  0  0  0  0  0  0  0  0  0  0  0
   10.5509  -17.7824   21.6438 C   0  0  0  0  0  0  0  0  0  0  0  0
   11.1928  -17.7024   20.3495 C   0  0  0  0  0  0  0  0  0  0  0  0
   11.0591  -18.6045   19.4959 O   0  0  0  0  0  0  0  0  0  0  0  0
    9.9800  -17.0544   24.5807 C   0  0  0  0  0  0  0  0  0  0  0  0
   10.6878  -16.1971   25.1609 O   0  0  0  0  0  0  0  0  0  0  0  0
   11.9873  -16.6218   19.9968 O   0  0  0  0  0  0  0  0  0  0  0  0
   10.0319  -18.3880   25.0484 N   0  0  0  0  0  0  0  0  0  0  0  0
   10.9895  -18.7363   26.0354 C   0  0  1  0  0  0  0  0  0  0  0  0
   12.3797  -18.3248   25.6761 C   0  0  0  0  0  0  0  0  0  0  0  0
   13.3009  -19.3337   25.1276 C   0  0  0  0  0  0  0  0  0  0  0  0
   14.7354  -19.2020   25.3580 C   0  0  0  0  0  0  0  0  0  0  0  0
   15.5030  -18.7689   24.4890 O   0  0  0  0  0  0  0  0  0  0  0  0
   10.6126  -18.2547   27.3971 C   0  0  0  0  0  0  0  0  0  0  0  0
    9.6007  -17.5276   27.4973 O   0  0  0  0  0  0  0  0  0  0  0  0
   15.3277  -19.5591   26.5782 O   0  0  0  0  0  0  0  0  0  0  0  0
   11.3215  -18.5719   28.5353 O   0  0  0  0  0  0  0  0  0  0  0  0
  2  1  1  0
  3  2  1  0
  3  4  1  1
  5  6  1  1
  5  3  1  0
  7  5  1  0
  8  7  2  0
  9  7  1  0
 10  9  1  0
 10 11  1  6
 11 12  1  0
 12 13  1  0
 13 14  2  0
 13 17  1  0
 15 18  1  0
 15 10  1  0
 16 15  2  0
 19 24  1  0
 19 18  1  0
 19 20  1  6
 21 20  1  0
 21 22  1  0
 22 23  2  0
 22 26  1  0
 24 27  1  0
 25 24  2  0
M  END
$$$$
