IEE.pdb
     RDKit          3D

 27 26  0  0  1  0  0  0  0  0999 V2000
    6.8039  -13.9512   20.2706 C   0  0  0  0  0  0  0  0  0  0  0  0
    8.1793  -14.0845   19.6476 C   0  0  0  0  0  0  0  0  0  0  0  0
    9.0844  -13.0891   20.3391 C   0  0  2  0  0  0  0  0  0  0  0  0
    8.5795  -11.6978   20.0089 C   0  0  0  0  0  0  0  0  0  0  0  0
   10.5277  -13.2612   19.9205 C   0  0  2  0  0  0  0  0  0  0  0  0
   10.6160  -13.1287   18.5017 N   0  0  0  0  0  0  0  0  0  0  0  0
   11.0261  -14.5682   20.4102 C   0  0  0  0  0  0  0  0  0  0  0  0
   10.6273  -14.9028   21.5832 O   0  0  0  0  0  0  0  0  0  0  0  0
   11.8806  -15.4311   19.6865 N   0  0  0  0  0  0  0  0  0  0  0  0
   12.2968  -16.6972   20.2491 C   0  0  1  0  0  0  0  0  0  0  0  0
   12.8614  -17.6354   19.2658 C   0  0  0  0  0  0  0  0  0  0  0  0
   12.0745  -18.0005   18.0744 C   0  0  0  0  0  0  0  0  0  0  0  0
   12.6647  -18.8635   17.0742 C   0  0  0  0  0  0  0  0  0  0  0  0
   12.2649  -20.0343   16.9017 O   0  0  0  0  0  0  0  0  0  0  0  0
   13.0762  -16.5438   21.4841 C   0  0  0  0  0  0  0  0  0  0  0  0
   13.9871  -15.6886   21.5906 O   0  0  0  0  0  0  0  0  0  0  0  0
   13.7022  -18.4319   16.2614 O   0  0  0  0  0  0  0  0  0  0  0  0
   12.8072  -17.3725   22.5981 N   0  0  0  0  0  0  0  0  0  0  0  0
   13.4785  -17.1222   23.8224 C   0  0  1  0  0  0  0  0  0  0  0  0
   12.6420  -17.4217   25.0230 C   0  0  0  0  0  0  0  0  0  0  0  0
   12.2288  -18.8124   25.2732 C   0  0  0  0  0  0  0  0  0  0  0  0
   11.4595  -19.1321   26.4708 C   0  0  0  0  0  0  0  0  0  0  0  0
   11.9441  -19.0414   27.6062 O   0  0  0  0  0  0  0  0  0  0  0  0
   14.8060  -17.8006   23.8992 C   0  0  0  0  0  0  0  0  0  0  0  0
   15.0802  -18.6433   23.0175 O   0  0  0  0  0  0  0  0  0  0  0  0
   10.1259  -19.5614   26.4045 O   0  0  0  0  0  0  0  0  0  0  0  0
   15.7319  -17.5428   24.8865 O   0  0  0  0  0  0  0  0  0  0  0  0
  2  1  1  0
  3  2  1  0
  3  4  1  6
  5  6  1  6
  5  3  1  0
  7  5  1  0
  8  7  2  0
  9  7  1  0
 10  9  1  0
 10 11  1  6
 11 12  1  0
 12 13  1  0
 13 14  2  0
 13 17  1  0
 15 18  1  0
 15 10  1  0
 16 15  2  0
 19 24  1  0
 19 18  1  0
 19 20  1  1
 21 20  1  0
 21 22  1  0
 22 23  2  0
 22 26  1  0
 24 27  1  0
 25 24  2  0
M  END
$$$$
