IEE.pdb
     RDKit          3D

 27 26  0  0  1  0  0  0  0  0999 V2000
    8.2892  -12.2193   27.2061 C   0  0  0  0  0  0  0  0  0  0  0  0
    7.6781  -13.5408   26.7844 C   0  0  0  0  0  0  0  0  0  0  0  0
    6.9427  -13.3016   25.4843 C   0  0  2  0  0  0  0  0  0  0  0  0
    5.9036  -12.2253   25.7321 C   0  0  0  0  0  0  0  0  0  0  0  0
    6.3038  -14.5693   24.9620 C   0  0  2  0  0  0  0  0  0  0  0  0
    5.5295  -15.1601   26.0059 N   0  0  0  0  0  0  0  0  0  0  0  0
    7.3598  -15.4717   24.4453 C   0  0  0  0  0  0  0  0  0  0  0  0
    7.6781  -16.4438   25.2202 O   0  0  0  0  0  0  0  0  0  0  0  0
    8.0085  -15.3272   23.1976 N   0  0  0  0  0  0  0  0  0  0  0  0
    9.0365  -16.2598   22.7897 C   0  0  1  0  0  0  0  0  0  0  0  0
    9.2058  -16.3679   21.3317 C   0  0  0  0  0  0  0  0  0  0  0  0
   10.1246  -17.3792   20.7796 C   0  0  0  0  0  0  0  0  0  0  0  0
   10.3167  -17.4533   19.3474 C   0  0  0  0  0  0  0  0  0  0  0  0
   11.3652  -17.0440   18.8057 O   0  0  0  0  0  0  0  0  0  0  0  0
   10.2815  -16.1057   23.5527 C   0  0  0  0  0  0  0  0  0  0  0  0
   10.9008  -15.0162   23.5970 O   0  0  0  0  0  0  0  0  0  0  0  0
    9.3458  -17.9808   18.5094 O   0  0  0  0  0  0  0  0  0  0  0  0
   10.8141  -17.2040   24.2669 N   0  0  0  0  0  0  0  0  0  0  0  0
   12.0509  -17.0519   24.9449 C   0  0  1  0  0  0  0  0  0  0  0  0
   12.1600  -17.9047   26.1663 C   0  0  0  0  0  0  0  0  0  0  0  0
   11.0845  -17.8508   27.1701 C   0  0  0  0  0  0  0  0  0  0  0  0
   11.1788  -18.6705   28.3732 C   0  0  0  0  0  0  0  0  0  0  0  0
   11.6834  -18.2445   29.4201 O   0  0  0  0  0  0  0  0  0  0  0  0
   13.2267  -17.2359   24.0440 C   0  0  0  0  0  0  0  0  0  0  0  0
   14.3636  -17.0349   24.5233 O   0  0  0  0  0  0  0  0  0  0  0  0
   10.7030  -19.9893   28.4128 O   0  0  0  0  0  0  0  0  0  0  0  0
   13.1168  -17.6130   22.7233 O   0  0  0  0  0  0  0  0  0  0  0  0
  2  1  1  0
  3  2  1  0
  3  4  1  1
  5  6  1  1
  5  3  1  0
  7  5  1  0
  8  7  2  0
  9  7  1  0
 10  9  1  0
 10 11  1  6
 11 12  1  0
 12 13  1  0
 13 14  2  0
 13 17  1  0
 15 18  1  0
 15 10  1  0
 16 15  2  0
 19 24  1  0
 19 18  1  0
 19 20  1  1
 21 20  1  0
 21 22  1  0
 22 23  2  0
 22 26  1  0
 24 27  1  0
 25 24  2  0
M  END
$$$$
