IEE.pdb
     RDKit          3D

 27 26  0  0  1  0  0  0  0  0999 V2000
    8.4262  -12.0492   26.8475 C   0  0  0  0  0  0  0  0  0  0  0  0
    7.7480  -13.3818   26.5990 C   0  0  0  0  0  0  0  0  0  0  0  0
    6.8804  -13.2225   25.3702 C   0  0  2  0  0  0  0  0  0  0  0  0
    5.8106  -12.1963   25.6893 C   0  0  0  0  0  0  0  0  0  0  0  0
    6.2672  -14.5381   24.9445 C   0  0  2  0  0  0  0  0  0  0  0  0
    5.5977  -15.1191   26.0637 N   0  0  0  0  0  0  0  0  0  0  0  0
    7.3256  -15.4131   24.3872 C   0  0  0  0  0  0  0  0  0  0  0  0
    7.7366  -16.3435   25.1697 O   0  0  0  0  0  0  0  0  0  0  0  0
    7.8839  -15.2851   23.0948 N   0  0  0  0  0  0  0  0  0  0  0  0
    8.8918  -16.2144   22.6327 C   0  0  1  0  0  0  0  0  0  0  0  0
    8.9997  -16.3046   21.1677 C   0  0  0  0  0  0  0  0  0  0  0  0
    7.8551  -16.8018   20.3837 C   0  0  0  0  0  0  0  0  0  0  0  0
    7.9771  -16.9122   18.9462 C   0  0  0  0  0  0  0  0  0  0  0  0
    7.0138  -17.2630   18.2327 O   0  0  0  0  0  0  0  0  0  0  0  0
   10.1680  -16.0720   23.3448 C   0  0  0  0  0  0  0  0  0  0  0  0
   10.7252  -14.9579   23.4894 O   0  0  0  0  0  0  0  0  0  0  0  0
    9.1691  -16.6350   18.2937 O   0  0  0  0  0  0  0  0  0  0  0  0
   10.8033  -17.2105   23.8928 N   0  0  0  0  0  0  0  0  0  0  0  0
   11.9978  -17.0418   24.6392 C   0  0  1  0  0  0  0  0  0  0  0  0
   11.8554  -17.4365   26.0727 C   0  0  0  0  0  0  0  0  0  0  0  0
   11.3978  -18.7985   26.3936 C   0  0  0  0  0  0  0  0  0  0  0  0
   11.3658  -19.2401   27.7836 C   0  0  0  0  0  0  0  0  0  0  0  0
   10.8215  -20.2984   28.1239 O   0  0  0  0  0  0  0  0  0  0  0  0
   13.1719  -17.7093   24.0034 C   0  0  0  0  0  0  0  0  0  0  0  0
   14.3004  -17.4939   24.4961 O   0  0  0  0  0  0  0  0  0  0  0  0
   11.9500  -18.4903   28.8149 O   0  0  0  0  0  0  0  0  0  0  0  0
   13.0691  -18.5423   22.9107 O   0  0  0  0  0  0  0  0  0  0  0  0
  2  1  1  0
  3  2  1  0
  3  4  1  1
  5  6  1  1
  5  3  1  0
  7  5  1  0
  8  7  2  0
  9  7  1  0
 10  9  1  0
 10 11  1  6
 11 12  1  0
 12 13  1  0
 13 14  2  0
 13 17  1  0
 15 18  1  0
 15 10  1  0
 16 15  2  0
 19 24  1  0
 19 18  1  0
 19 20  1  1
 21 20  1  0
 21 22  1  0
 22 23  2  0
 22 26  1  0
 24 27  1  0
 25 24  2  0
M  END
$$$$
