IEE.pdb
     RDKit          3D

 27 26  0  0  1  0  0  0  0  0999 V2000
    5.5136  -11.4220   25.8504 C   0  0  0  0  0  0  0  0  0  0  0  0
    6.2016  -12.2628   26.9075 C   0  0  0  0  0  0  0  0  0  0  0  0
    7.1276  -13.2191   26.1889 C   0  0  2  0  0  0  0  0  0  0  0  0
    8.0254  -12.3998   25.2822 C   0  0  0  0  0  0  0  0  0  0  0  0
    6.3583  -14.2581   25.4037 C   0  0  2  0  0  0  0  0  0  0  0  0
    5.5127  -14.9808   26.2987 N   0  0  0  0  0  0  0  0  0  0  0  0
    7.3137  -15.1309   24.6812 C   0  0  0  0  0  0  0  0  0  0  0  0
    8.0238  -15.8997   25.4237 O   0  0  0  0  0  0  0  0  0  0  0  0
    7.4788  -15.1623   23.2775 N   0  0  0  0  0  0  0  0  0  0  0  0
    8.4014  -16.0932   22.6652 C   0  0  1  0  0  0  0  0  0  0  0  0
    8.2806  -16.1842   21.2013 C   0  0  0  0  0  0  0  0  0  0  0  0
    9.1709  -17.0896   20.4533 C   0  0  0  0  0  0  0  0  0  0  0  0
    8.9844  -17.2458   19.0270 C   0  0  0  0  0  0  0  0  0  0  0  0
    7.8668  -17.5159   18.5388 O   0  0  0  0  0  0  0  0  0  0  0  0
    9.7730  -15.9524   23.1705 C   0  0  0  0  0  0  0  0  0  0  0  0
   10.3903  -14.8622   23.1160 O   0  0  0  0  0  0  0  0  0  0  0  0
   10.0374  -17.1042   18.1357 O   0  0  0  0  0  0  0  0  0  0  0  0
   10.4346  -17.0647   23.7405 N   0  0  0  0  0  0  0  0  0  0  0  0
   11.7355  -16.8920   24.2794 C   0  0  1  0  0  0  0  0  0  0  0  0
   11.8512  -17.3545   25.6949 C   0  0  0  0  0  0  0  0  0  0  0  0
   11.4144  -18.7185   26.0357 C   0  0  0  0  0  0  0  0  0  0  0  0
   11.6035  -19.2186   27.3930 C   0  0  0  0  0  0  0  0  0  0  0  0
   11.0168  -18.7225   28.3633 O   0  0  0  0  0  0  0  0  0  0  0  0
   12.7979  -17.4933   23.4203 C   0  0  0  0  0  0  0  0  0  0  0  0
   13.9891  -17.2677   23.7251 O   0  0  0  0  0  0  0  0  0  0  0  0
   12.4620  -20.2909   27.6766 O   0  0  0  0  0  0  0  0  0  0  0  0
   12.5280  -18.2767   22.3194 O   0  0  0  0  0  0  0  0  0  0  0  0
  2  1  1  0
  3  2  1  0
  3  4  1  6
  5  6  1  1
  5  3  1  0
  7  5  1  0
  8  7  2  0
  9  7  1  0
 10  9  1  0
 10 11  1  6
 11 12  1  0
 12 13  1  0
 13 14  2  0
 13 17  1  0
 15 18  1  0
 15 10  1  0
 16 15  2  0
 19 24  1  0
 19 18  1  0
 19 20  1  1
 21 20  1  0
 21 22  1  0
 22 23  2  0
 22 26  1  0
 24 27  1  0
 25 24  2  0
M  END
$$$$
