IEE.pdb
     RDKit          3D

 27 26  0  0  1  0  0  0  0  0999 V2000
    6.6336  -11.3821   26.7394 C   0  0  0  0  0  0  0  0  0  0  0  0
    5.9658  -12.4634   25.9133 C   0  0  0  0  0  0  0  0  0  0  0  0
    7.0467  -13.4273   25.4764 C   0  0  2  0  0  0  0  0  0  0  0  0
    7.9126  -12.7182   24.4531 C   0  0  0  0  0  0  0  0  0  0  0  0
    6.4628  -14.7024   24.9097 C   0  0  2  0  0  0  0  0  0  0  0  0
    5.6742  -15.3366   25.9167 N   0  0  0  0  0  0  0  0  0  0  0  0
    7.5611  -15.5629   24.4098 C   0  0  0  0  0  0  0  0  0  0  0  0
    8.0587  -16.3732   25.2716 O   0  0  0  0  0  0  0  0  0  0  0  0
    8.0695  -15.5415   23.0909 N   0  0  0  0  0  0  0  0  0  0  0  0
    9.0741  -16.4951   22.6734 C   0  0  1  0  0  0  0  0  0  0  0  0
    9.3355  -16.4975   21.2251 C   0  0  0  0  0  0  0  0  0  0  0  0
   10.3253  -17.4358   20.6667 C   0  0  0  0  0  0  0  0  0  0  0  0
   10.5548  -17.4543   19.2382 C   0  0  0  0  0  0  0  0  0  0  0  0
   10.0129  -18.3031   18.4993 O   0  0  0  0  0  0  0  0  0  0  0  0
   10.2712  -16.4711   23.5235 C   0  0  0  0  0  0  0  0  0  0  0  0
   10.8394  -15.3982   23.8374 O   0  0  0  0  0  0  0  0  0  0  0  0
   11.3878  -16.5318   18.6231 O   0  0  0  0  0  0  0  0  0  0  0  0
   10.8145  -17.6809   24.0147 N   0  0  0  0  0  0  0  0  0  0  0  0
   11.7937  -17.6316   25.0399 C   0  0  1  0  0  0  0  0  0  0  0  0
   11.3338  -18.2454   26.3216 C   0  0  0  0  0  0  0  0  0  0  0  0
   12.2940  -18.3837   27.4290 C   0  0  0  0  0  0  0  0  0  0  0  0
   11.8738  -19.0193   28.6730 C   0  0  0  0  0  0  0  0  0  0  0  0
   12.6631  -19.2267   29.6036 O   0  0  0  0  0  0  0  0  0  0  0  0
   13.1078  -18.1920   24.6070 C   0  0  0  0  0  0  0  0  0  0  0  0
   13.0984  -19.0954   23.7430 O   0  0  0  0  0  0  0  0  0  0  0  0
   10.5505  -19.4325   28.8861 O   0  0  0  0  0  0  0  0  0  0  0  0
   14.3165  -17.7635   25.1110 O   0  0  0  0  0  0  0  0  0  0  0  0
  2  1  1  0
  3  2  1  0
  3  4  1  6
  5  6  1  1
  5  3  1  0
  7  5  1  0
  8  7  2  0
  9  7  1  0
 10  9  1  0
 10 11  1  6
 11 12  1  0
 12 13  1  0
 13 14  2  0
 13 17  1  0
 15 18  1  0
 15 10  1  0
 16 15  2  0
 19 24  1  0
 19 18  1  0
 19 20  1  1
 21 20  1  0
 21 22  1  0
 22 23  2  0
 22 26  1  0
 24 27  1  0
 25 24  2  0
M  END
$$$$
