IEE.pdb
     RDKit          3D

 27 26  0  0  1  0  0  0  0  0999 V2000
    6.9040  -11.5031   27.3031 C   0  0  0  0  0  0  0  0  0  0  0  0
    6.0763  -12.6281   26.7141 C   0  0  0  0  0  0  0  0  0  0  0  0
    6.9902  -13.4395   25.8227 C   0  0  2  0  0  0  0  0  0  0  0  0
    7.5194  -12.5176   24.7413 C   0  0  0  0  0  0  0  0  0  0  0  0
    6.2746  -14.6304   25.2246 C   0  0  2  0  0  0  0  0  0  0  0  0
    5.8502  -15.4924   26.2806 N   0  0  0  0  0  0  0  0  0  0  0  0
    7.1716  -15.3034   24.2556 C   0  0  0  0  0  0  0  0  0  0  0  0
    7.9077  -16.2341   24.7444 O   0  0  0  0  0  0  0  0  0  0  0  0
    7.2573  -14.9902   22.8797 N   0  0  0  0  0  0  0  0  0  0  0  0
    8.1608  -15.7163   22.0141 C   0  0  1  0  0  0  0  0  0  0  0  0
    7.9248  -15.4958   20.5783 C   0  0  0  0  0  0  0  0  0  0  0  0
    8.8369  -16.0994   19.5905 C   0  0  0  0  0  0  0  0  0  0  0  0
    8.8171  -17.5326   19.3929 C   0  0  0  0  0  0  0  0  0  0  0  0
    9.8712  -18.1897   19.2612 O   0  0  0  0  0  0  0  0  0  0  0  0
    9.5627  -15.6144   22.4389 C   0  0  0  0  0  0  0  0  0  0  0  0
   10.2341  -14.5700   22.2625 O   0  0  0  0  0  0  0  0  0  0  0  0
    7.6275  -18.2433   19.3391 O   0  0  0  0  0  0  0  0  0  0  0  0
   10.1928  -16.7127   23.0686 N   0  0  0  0  0  0  0  0  0  0  0  0
   11.5118  -16.5585   23.5675 C   0  0  1  0  0  0  0  0  0  0  0  0
   11.6512  -16.9699   24.9966 C   0  0  0  0  0  0  0  0  0  0  0  0
   11.5120  -18.3937   25.3439 C   0  0  0  0  0  0  0  0  0  0  0  0
   11.6275  -18.8112   26.7369 C   0  0  0  0  0  0  0  0  0  0  0  0
   10.8757  -18.3743   27.6178 O   0  0  0  0  0  0  0  0  0  0  0  0
   12.5335  -17.2235   22.7060 C   0  0  0  0  0  0  0  0  0  0  0  0
   12.1252  -17.9739   21.7934 O   0  0  0  0  0  0  0  0  0  0  0  0
   12.5980  -19.7320   27.1585 O   0  0  0  0  0  0  0  0  0  0  0  0
   13.8906  -17.0496   22.8694 O   0  0  0  0  0  0  0  0  0  0  0  0
  2  1  1  0
  3  2  1  0
  3  4  1  6
  5  6  1  1
  5  3  1  0
  7  5  1  0
  8  7  2  0
  9  7  1  0
 10  9  1  0
 10 11  1  6
 11 12  1  0
 12 13  1  0
 13 14  2  0
 13 17  1  0
 15 18  1  0
 15 10  1  0
 16 15  2  0
 19 24  1  0
 19 18  1  0
 19 20  1  1
 21 20  1  0
 21 22  1  0
 22 23  2  0
 22 26  1  0
 24 27  1  0
 25 24  2  0
M  END
$$$$
