IEE.pdb
     RDKit          3D

 27 26  0  0  1  0  0  0  0  0999 V2000
    6.6030  -11.8625   27.1650 C   0  0  0  0  0  0  0  0  0  0  0  0
    6.0683  -13.0831   26.4425 C   0  0  0  0  0  0  0  0  0  0  0  0
    7.2412  -13.7513   25.7600 C   0  0  2  0  0  0  0  0  0  0  0  0
    7.8657  -12.7400   24.8183 C   0  0  0  0  0  0  0  0  0  0  0  0
    6.8192  -15.0010   25.0195 C   0  0  2  0  0  0  0  0  0  0  0  0
    6.0188  -15.8039   25.8872 N   0  0  0  0  0  0  0  0  0  0  0  0
    8.0252  -15.7084   24.5278 C   0  0  0  0  0  0  0  0  0  0  0  0
    9.0447  -15.6603   25.3057 O   0  0  0  0  0  0  0  0  0  0  0  0
    8.1108  -16.4047   23.3005 N   0  0  0  0  0  0  0  0  0  0  0  0
    9.3556  -16.4497   22.5647 C   0  0  1  0  0  0  0  0  0  0  0  0
    9.3067  -15.7729   21.2588 C   0  0  0  0  0  0  0  0  0  0  0  0
    8.5104  -16.3587   20.1658 C   0  0  0  0  0  0  0  0  0  0  0  0
    9.1604  -17.2155   19.1978 C   0  0  0  0  0  0  0  0  0  0  0  0
    8.9658  -18.4493   19.1810 O   0  0  0  0  0  0  0  0  0  0  0  0
   10.5210  -16.1201   23.3950 C   0  0  0  0  0  0  0  0  0  0  0  0
   10.4616  -15.2655   24.3107 O   0  0  0  0  0  0  0  0  0  0  0  0
   10.0304  -16.7075   18.2447 O   0  0  0  0  0  0  0  0  0  0  0  0
   11.7550  -16.7747   23.1740 N   0  0  0  0  0  0  0  0  0  0  0  0
   12.5682  -17.1085   24.2874 C   0  0  1  0  0  0  0  0  0  0  0  0
   11.8237  -17.8281   25.3639 C   0  0  0  0  0  0  0  0  0  0  0  0
   12.5526  -18.2556   26.5694 C   0  0  0  0  0  0  0  0  0  0  0  0
   11.8540  -19.0073   27.6063 C   0  0  0  0  0  0  0  0  0  0  0  0
   12.3764  -19.9686   28.1851 O   0  0  0  0  0  0  0  0  0  0  0  0
   13.8064  -17.8440   23.8949 C   0  0  0  0  0  0  0  0  0  0  0  0
   13.7570  -18.5617   22.8726 O   0  0  0  0  0  0  0  0  0  0  0  0
   10.5494  -18.6838   28.0070 O   0  0  0  0  0  0  0  0  0  0  0  0
   14.9876  -17.7684   24.6003 O   0  0  0  0  0  0  0  0  0  0  0  0
  2  1  1  0
  3  2  1  0
  3  4  1  6
  5  6  1  1
  5  3  1  0
  7  5  1  0
  8  7  2  0
  9  7  1  0
 10  9  1  0
 10 11  1  6
 11 12  1  0
 12 13  1  0
 13 14  2  0
 13 17  1  0
 15 18  1  0
 15 10  1  0
 16 15  2  0
 19 24  1  0
 19 18  1  0
 19 20  1  1
 21 20  1  0
 21 22  1  0
 22 23  2  0
 22 26  1  0
 24 27  1  0
 25 24  2  0
M  END
$$$$
