IEE.pdb
     RDKit          3D

 27 26  0  0  1  0  0  0  0  0999 V2000
    8.0116  -11.8082   19.9053 C   0  0  0  0  0  0  0  0  0  0  0  0
    8.3582  -13.2765   19.7588 C   0  0  0  0  0  0  0  0  0  0  0  0
    7.5954  -14.0273   20.8277 C   0  0  2  0  0  0  0  0  0  0  0  0
    7.9874  -13.4440   22.1715 C   0  0  0  0  0  0  0  0  0  0  0  0
    7.8739  -15.5131   20.7738 C   0  0  2  0  0  0  0  0  0  0  0  0
    7.5029  -16.0061   19.4863 N   0  0  0  0  0  0  0  0  0  0  0  0
    7.1520  -16.1861   21.8795 C   0  0  0  0  0  0  0  0  0  0  0  0
    5.8746  -16.2182   21.7611 O   0  0  0  0  0  0  0  0  0  0  0  0
    7.7672  -16.7706   23.0101 N   0  0  0  0  0  0  0  0  0  0  0  0
    6.9674  -17.3678   24.0572 C   0  0  1  0  0  0  0  0  0  0  0  0
    7.1150  -18.8280   24.1675 C   0  0  0  0  0  0  0  0  0  0  0  0
    6.4356  -19.5468   25.2600 C   0  0  0  0  0  0  0  0  0  0  0  0
    7.2295  -20.1895   26.2848 C   0  0  0  0  0  0  0  0  0  0  0  0
    6.9691  -20.0494   27.4984 O   0  0  0  0  0  0  0  0  0  0  0  0
    7.0506  -16.6346   25.3267 C   0  0  0  0  0  0  0  0  0  0  0  0
    6.2969  -16.8971   26.2940 O   0  0  0  0  0  0  0  0  0  0  0  0
    8.3168  -20.9899   25.9679 O   0  0  0  0  0  0  0  0  0  0  0  0
    8.0018  -15.6002   25.4853 N   0  0  0  0  0  0  0  0  0  0  0  0
    8.0619  -14.9010   26.7182 C   0  0  1  0  0  0  0  0  0  0  0  0
    9.2206  -15.3078   27.5684 C   0  0  0  0  0  0  0  0  0  0  0  0
    9.6054  -16.7281   27.6143 C   0  0  0  0  0  0  0  0  0  0  0  0
   10.7636  -17.1367   28.4015 C   0  0  0  0  0  0  0  0  0  0  0  0
   11.6944  -17.7883   27.9106 O   0  0  0  0  0  0  0  0  0  0  0  0
    8.0077  -13.4197   26.5420 C   0  0  0  0  0  0  0  0  0  0  0  0
    7.9722  -12.7125   27.5722 O   0  0  0  0  0  0  0  0  0  0  0  0
   10.8889  -16.8148   29.7609 O   0  0  0  0  0  0  0  0  0  0  0  0
    7.9954  -12.8039   25.3095 O   0  0  0  0  0  0  0  0  0  0  0  0
  2  1  1  0
  3  2  1  0
  3  4  1  1
  5  6  1  6
  5  3  1  0
  7  5  1  0
  8  7  2  0
  9  7  1  0
 10  9  1  0
 10 11  1  1
 11 12  1  0
 12 13  1  0
 13 14  2  0
 13 17  1  0
 15 18  1  0
 15 10  1  0
 16 15  2  0
 19 24  1  0
 19 18  1  0
 19 20  1  6
 21 20  1  0
 21 22  1  0
 22 23  2  0
 22 26  1  0
 24 27  1  0
 25 24  2  0
M  END
$$$$
