IEE.pdb
     RDKit          3D

 27 26  0  0  1  0  0  0  0  0999 V2000
    6.5307  -10.5183   26.7612 C   0  0  0  0  0  0  0  0  0  0  0  0
    7.2805  -11.8081   27.0293 C   0  0  0  0  0  0  0  0  0  0  0  0
    6.7083  -12.8609   26.1061 C   0  0  2  0  0  0  0  0  0  0  0  0
    5.2215  -12.9632   26.3864 C   0  0  0  0  0  0  0  0  0  0  0  0
    7.3930  -14.1971   26.2895 C   0  0  2  0  0  0  0  0  0  0  0  0
    8.7188  -13.9745   26.7701 N   0  0  0  0  0  0  0  0  0  0  0  0
    7.3609  -14.9427   25.0091 C   0  0  0  0  0  0  0  0  0  0  0  0
    6.5652  -15.9491   24.9802 O   0  0  0  0  0  0  0  0  0  0  0  0
    8.1260  -14.6196   23.8651 N   0  0  0  0  0  0  0  0  0  0  0  0
    8.1093  -15.4787   22.7013 C   0  0  1  0  0  0  0  0  0  0  0  0
    8.1024  -14.7549   21.4200 C   0  0  0  0  0  0  0  0  0  0  0  0
    8.1321  -15.5131   20.1566 C   0  0  0  0  0  0  0  0  0  0  0  0
    8.1963  -14.7949   18.9021 C   0  0  0  0  0  0  0  0  0  0  0  0
    9.0207  -15.1002   18.0147 O   0  0  0  0  0  0  0  0  0  0  0  0
    9.0771  -16.5793   22.7910 C   0  0  0  0  0  0  0  0  0  0  0  0
    9.0207  -17.5747   22.0304 O   0  0  0  0  0  0  0  0  0  0  0  0
    7.3470  -13.7337   18.6268 O   0  0  0  0  0  0  0  0  0  0  0  0
   10.1116  -16.5350   23.7543 N   0  0  0  0  0  0  0  0  0  0  0  0
   11.0484  -17.5988   23.8102 C   0  0  1  0  0  0  0  0  0  0  0  0
   12.3612  -17.2590   23.1838 C   0  0  0  0  0  0  0  0  0  0  0  0
   13.1545  -16.1550   23.7488 C   0  0  0  0  0  0  0  0  0  0  0  0
   14.4105  -15.7706   23.1140 C   0  0  0  0  0  0  0  0  0  0  0  0
   14.4421  -15.1140   22.0652 O   0  0  0  0  0  0  0  0  0  0  0  0
   11.2257  -18.1365   25.1914 C   0  0  0  0  0  0  0  0  0  0  0  0
   11.9244  -19.1637   25.3303 O   0  0  0  0  0  0  0  0  0  0  0  0
   15.6552  -16.1235   23.6557 O   0  0  0  0  0  0  0  0  0  0  0  0
   10.6607  -17.5583   26.3072 O   0  0  0  0  0  0  0  0  0  0  0  0
  2  1  1  0
  3  2  1  0
  3  4  1  1
  5  6  1  6
  5  3  1  0
  7  5  1  0
  8  7  2  0
  9  7  1  0
 10  9  1  0
 10 11  1  6
 11 12  1  0
 12 13  1  0
 13 14  2  0
 13 17  1  0
 15 18  1  0
 15 10  1  0
 16 15  2  0
 19 24  1  0
 19 18  1  0
 19 20  1  1
 21 20  1  0
 21 22  1  0
 22 23  2  0
 22 26  1  0
 24 27  1  0
 25 24  2  0
M  END
$$$$
