NGD.pdb
     RDKit          3D

 21 20  0  0  1  0  0  0  0  0999 V2000
    6.9388  -12.3006   17.9470 N   0  0  0  0  0  0  0  0  0  0  0  0
    7.6030  -13.4993   18.3029 C   0  0  0  0  0  0  0  0  0  0  0  0
    7.6037  -14.4985   17.5661 O   0  0  0  0  0  0  0  0  0  0  0  0
    8.3169  -13.5604   19.5917 C   0  0  0  0  0  0  0  0  0  0  0  0
    8.1828  -14.9866   20.1244 C   0  0  2  0  0  0  0  0  0  0  0  0
    6.8031  -15.2688   20.4650 N   0  0  0  0  0  0  0  0  0  0  0  0
    8.9801  -15.0194   21.3827 C   0  0  0  0  0  0  0  0  0  0  0  0
   10.2536  -15.0119   21.3386 O   0  0  0  0  0  0  0  0  0  0  0  0
    8.3552  -15.0611   22.6642 N   0  0  0  0  0  0  0  0  0  0  0  0
    9.1865  -15.0236   23.8307 C   0  0  0  0  0  0  0  0  0  0  0  0
    9.6049  -16.3963   24.2586 C   0  0  0  0  0  0  0  0  0  0  0  0
    8.8407  -17.3477   23.9942 O   0  0  0  0  0  0  0  0  0  0  0  0
   10.8061  -16.6513   24.9369 N   0  0  0  0  0  0  0  0  0  0  0  0
   11.3078  -17.9057   25.4068 C   0  0  1  0  0  0  0  0  0  0  0  0
   12.8032  -17.9935   25.3650 C   0  0  0  0  0  0  0  0  0  0  0  0
   13.3348  -17.8549   23.9913 C   0  0  0  0  0  0  0  0  0  0  0  0
   12.5834  -17.6871   22.9994 O   0  0  0  0  0  0  0  0  0  0  0  0
   10.7328  -18.4100   26.6621 C   0  0  0  0  0  0  0  0  0  0  0  0
   10.1796  -17.5806   27.5961 O   0  0  0  0  0  0  0  0  0  0  0  0
   14.7017  -17.9106   23.7824 O   0  0  0  0  0  0  0  0  0  0  0  0
   10.7503  -19.6447   26.8770 O   0  0  0  0  0  0  0  0  0  0  0  0
  2  1  1  0
  3  2  2  0
  4  2  1  0
  5  6  1  1
  5  4  1  0
  7  5  1  0
  8  7  2  0
  9  7  1  0
 10 11  1  0
 10  9  1  0
 11 13  1  0
 12 11  2  0
 13 14  1  0
 14 18  1  0
 14 15  1  1
 15 16  1  0
 16 17  2  0
 18 21  2  0
 18 19  1  0
 20 16  1  0
M  END
$$$$
