NGD.pdb
     RDKit          3D

 21 20  0  0  1  0  0  0  0  0999 V2000
    6.9880  -12.0050   19.6490 N   0  0  0  0  0  0  0  0  0  0  0  0
    7.5146  -13.3180   19.7042 C   0  0  0  0  0  0  0  0  0  0  0  0
    6.8822  -14.2637   20.2014 O   0  0  0  0  0  0  0  0  0  0  0  0
    8.8590  -13.5682   19.1523 C   0  0  0  0  0  0  0  0  0  0  0  0
    9.1617  -15.0551   19.3353 C   0  0  2  0  0  0  0  0  0  0  0  0
    7.9482  -15.8355   19.2032 N   0  0  0  0  0  0  0  0  0  0  0  0
    9.6443  -15.1945   20.7380 C   0  0  0  0  0  0  0  0  0  0  0  0
   10.7142  -14.6118   21.1120 O   0  0  0  0  0  0  0  0  0  0  0  0
    8.9368  -15.9756   21.6991 N   0  0  0  0  0  0  0  0  0  0  0  0
    9.4764  -16.0829   23.0223 C   0  0  0  0  0  0  0  0  0  0  0  0
   10.7226  -16.9130   23.0479 C   0  0  0  0  0  0  0  0  0  0  0  0
   10.9795  -17.6103   22.0445 O   0  0  0  0  0  0  0  0  0  0  0  0
   11.6007  -16.9377   24.1417 N   0  0  0  0  0  0  0  0  0  0  0  0
   13.0014  -17.2273   24.1454 C   0  0  1  0  0  0  0  0  0  0  0  0
   13.7795  -16.3795   23.1854 C   0  0  0  0  0  0  0  0  0  0  0  0
   15.2114  -16.7495   23.1441 C   0  0  0  0  0  0  0  0  0  0  0  0
   15.5969  -17.9377   23.2719 O   0  0  0  0  0  0  0  0  0  0  0  0
   13.6405  -17.3445   25.4640 C   0  0  0  0  0  0  0  0  0  0  0  0
   13.0903  -16.8046   26.5918 O   0  0  0  0  0  0  0  0  0  0  0  0
   16.1636  -15.7625   22.9591 O   0  0  0  0  0  0  0  0  0  0  0  0
   14.7260  -17.9647   25.5519 O   0  0  0  0  0  0  0  0  0  0  0  0
  2  1  1  0
  3  2  2  0
  4  2  1  0
  5  6  1  1
  5  4  1  0
  7  5  1  0
  8  7  2  0
  9  7  1  0
 10 11  1  0
 10  9  1  0
 11 13  1  0
 12 11  2  0
 13 14  1  0
 14 18  1  0
 14 15  1  6
 15 16  1  0
 16 17  2  0
 18 21  2  0
 18 19  1  0
 20 16  1  0
M  END
$$$$
