NGD.pdb
     RDKit          3D

 21 20  0  0  1  0  0  0  0  0999 V2000
    8.2245  -12.2430   18.5597 N   0  0  0  0  0  0  0  0  0  0  0  0
    7.5634  -13.3751   19.0944 C   0  0  0  0  0  0  0  0  0  0  0  0
    6.9929  -14.2094   18.3734 O   0  0  0  0  0  0  0  0  0  0  0  0
    7.5537  -13.5675   20.5564 C   0  0  0  0  0  0  0  0  0  0  0  0
    8.2803  -14.8791   20.8523 C   0  0  2  0  0  0  0  0  0  0  0  0
    7.3951  -16.0051   20.6335 N   0  0  0  0  0  0  0  0  0  0  0  0
    8.6112  -14.8334   22.3044 C   0  0  0  0  0  0  0  0  0  0  0  0
    9.6334  -14.1910   22.7121 O   0  0  0  0  0  0  0  0  0  0  0  0
    7.8075  -15.4990   23.2768 N   0  0  0  0  0  0  0  0  0  0  0  0
    8.1876  -15.4069   24.6553 C   0  0  0  0  0  0  0  0  0  0  0  0
    8.8479  -16.6628   25.1342 C   0  0  0  0  0  0  0  0  0  0  0  0
    8.2644  -17.7460   24.9213 O   0  0  0  0  0  0  0  0  0  0  0  0
   10.0802  -16.6693   25.8046 N   0  0  0  0  0  0  0  0  0  0  0  0
   10.7781  -17.7864   26.3623 C   0  0  1  0  0  0  0  0  0  0  0  0
   12.2274  -17.8228   25.9834 C   0  0  0  0  0  0  0  0  0  0  0  0
   12.4262  -17.7463   24.5192 C   0  0  0  0  0  0  0  0  0  0  0  0
   12.6515  -16.6590   23.9329 O   0  0  0  0  0  0  0  0  0  0  0  0
   10.5453  -18.0558   27.7885 C   0  0  0  0  0  0  0  0  0  0  0  0
    9.8751  -17.1813   28.5962 O   0  0  0  0  0  0  0  0  0  0  0  0
   12.3639  -18.9038   23.7633 O   0  0  0  0  0  0  0  0  0  0  0  0
   10.9760  -19.1276   28.2750 O   0  0  0  0  0  0  0  0  0  0  0  0
  2  1  1  0
  3  2  2  0
  4  2  1  0
  5  6  1  1
  5  4  1  0
  7  5  1  0
  8  7  2  0
  9  7  1  0
 10 11  1  0
 10  9  1  0
 11 13  1  0
 12 11  2  0
 13 14  1  0
 14 18  1  0
 14 15  1  1
 15 16  1  0
 16 17  2  0
 18 21  2  0
 18 19  1  0
 20 16  1  0
M  END
$$$$
