NGD.pdb
     RDKit          3D

 21 20  0  0  1  0  0  0  0  0999 V2000
    5.9843  -17.7372   15.2439 N   0  0  0  0  0  0  0  0  0  0  0  0
    7.0557  -18.3896   15.9002 C   0  0  0  0  0  0  0  0  0  0  0  0
    7.8235  -19.1624   15.3048 O   0  0  0  0  0  0  0  0  0  0  0  0
    7.2647  -18.1413   17.3387 C   0  0  0  0  0  0  0  0  0  0  0  0
    7.0018  -16.6571   17.5919 C   0  0  2  0  0  0  0  0  0  0  0  0
    8.0017  -15.8481   16.9249 N   0  0  0  0  0  0  0  0  0  0  0  0
    7.1660  -16.4676   19.0607 C   0  0  0  0  0  0  0  0  0  0  0  0
    6.2990  -16.9321   19.8709 O   0  0  0  0  0  0  0  0  0  0  0  0
    8.2833  -15.7679   19.6051 N   0  0  0  0  0  0  0  0  0  0  0  0
    8.3637  -15.6109   21.0271 C   0  0  0  0  0  0  0  0  0  0  0  0
    9.0960  -16.7477   21.6706 C   0  0  0  0  0  0  0  0  0  0  0  0
    9.4059  -17.7219   20.9537 O   0  0  0  0  0  0  0  0  0  0  0  0
    9.4422  -16.7605   23.0300 N   0  0  0  0  0  0  0  0  0  0  0  0
   10.1797  -17.7554   23.7458 C   0  0  1  0  0  0  0  0  0  0  0  0
   10.7526  -17.2486   25.0344 C   0  0  0  0  0  0  0  0  0  0  0  0
   11.6668  -16.1034   24.8296 C   0  0  0  0  0  0  0  0  0  0  0  0
   11.8009  -15.5492   23.7108 O   0  0  0  0  0  0  0  0  0  0  0  0
    9.5429  -19.0740   23.8740 C   0  0  0  0  0  0  0  0  0  0  0  0
   10.2400  -20.2388   23.7204 O   0  0  0  0  0  0  0  0  0  0  0  0
   12.4016  -15.6205   25.8982 O   0  0  0  0  0  0  0  0  0  0  0  0
    8.3184  -19.1263   24.1361 O   0  0  0  0  0  0  0  0  0  0  0  0
  2  1  1  0
  3  2  2  0
  4  2  1  0
  5  6  1  6
  5  4  1  0
  7  5  1  0
  8  7  2  0
  9  7  1  0
 10 11  1  0
 10  9  1  0
 11 13  1  0
 12 11  2  0
 13 14  1  0
 14 18  1  0
 14 15  1  1
 15 16  1  0
 16 17  2  0
 18 21  2  0
 18 19  1  0
 20 16  1  0
M  END
$$$$
