NGD.pdb
     RDKit          3D

 21 20  0  0  1  0  0  0  0  0999 V2000
    6.3798  -13.7185   15.1447 N   0  0  0  0  0  0  0  0  0  0  0  0
    7.4849  -13.7118   16.0297 C   0  0  0  0  0  0  0  0  0  0  0  0
    8.6571  -13.6668   15.6233 O   0  0  0  0  0  0  0  0  0  0  0  0
    7.2326  -13.7596   17.4818 C   0  0  0  0  0  0  0  0  0  0  0  0
    7.7727  -15.0926   17.9986 C   0  0  2  0  0  0  0  0  0  0  0  0
    6.6834  -16.0167   18.2412 N   0  0  0  0  0  0  0  0  0  0  0  0
    8.4104  -14.7838   19.3094 C   0  0  0  0  0  0  0  0  0  0  0  0
    9.6559  -14.5223   19.3739 O   0  0  0  0  0  0  0  0  0  0  0  0
    7.6603  -14.7712   20.5225 N   0  0  0  0  0  0  0  0  0  0  0  0
    8.3346  -14.4247   21.7385 C   0  0  0  0  0  0  0  0  0  0  0  0
    9.2828  -15.4993   22.1730 C   0  0  0  0  0  0  0  0  0  0  0  0
    8.9948  -16.6807   21.8894 O   0  0  0  0  0  0  0  0  0  0  0  0
   10.4662  -15.2335   22.8779 N   0  0  0  0  0  0  0  0  0  0  0  0
   11.3963  -16.1695   23.4301 C   0  0  1  0  0  0  0  0  0  0  0  0
   12.7670  -15.5941   23.6194 C   0  0  0  0  0  0  0  0  0  0  0  0
   13.7572  -16.6215   24.0106 C   0  0  0  0  0  0  0  0  0  0  0  0
   13.8168  -17.7402   23.4433 O   0  0  0  0  0  0  0  0  0  0  0  0
   10.9303  -16.9482   24.5865 C   0  0  0  0  0  0  0  0  0  0  0  0
   10.3221  -16.3646   25.6616 O   0  0  0  0  0  0  0  0  0  0  0  0
   14.6502  -16.3507   25.0326 O   0  0  0  0  0  0  0  0  0  0  0  0
   11.0963  -18.1904   24.5799 O   0  0  0  0  0  0  0  0  0  0  0  0
  2  1  1  0
  3  2  2  0
  4  2  1  0
  5  6  1  1
  5  4  1  0
  7  5  1  0
  8  7  2  0
  9  7  1  0
 10 11  1  0
 10  9  1  0
 11 13  1  0
 12 11  2  0
 13 14  1  0
 14 18  1  0
 14 15  1  1
 15 16  1  0
 16 17  2  0
 18 21  2  0
 18 19  1  0
 20 16  1  0
M  END
$$$$
