NGD.pdb
     RDKit          3D

 21 20  0  0  1  0  0  0  0  0999 V2000
    7.9803  -14.4353   22.6236 N   0  0  0  0  0  0  0  0  0  0  0  0
    7.1900  -14.1877   21.4754 C   0  0  0  0  0  0  0  0  0  0  0  0
    6.0789  -14.7166   21.3109 O   0  0  0  0  0  0  0  0  0  0  0  0
    7.7057  -13.2707   20.4421 C   0  0  0  0  0  0  0  0  0  0  0  0
    8.0668  -14.1128   19.2189 C   0  0  2  0  0  0  0  0  0  0  0  0
    8.2859  -15.4921   19.6046 N   0  0  0  0  0  0  0  0  0  0  0  0
    9.3616  -13.5652   18.7253 C   0  0  0  0  0  0  0  0  0  0  0  0
    9.4346  -12.3645   18.3046 O   0  0  0  0  0  0  0  0  0  0  0  0
   10.5494  -14.3546   18.7050 N   0  0  0  0  0  0  0  0  0  0  0  0
   11.7773  -13.7304   18.3099 C   0  0  0  0  0  0  0  0  0  0  0  0
   12.9374  -14.2284   19.1153 C   0  0  0  0  0  0  0  0  0  0  0  0
   13.9769  -13.5369   19.1297 O   0  0  0  0  0  0  0  0  0  0  0  0
   12.9021  -15.4265   19.8443 N   0  0  0  0  0  0  0  0  0  0  0  0
   13.8401  -15.8994   20.8151 C   0  0  1  0  0  0  0  0  0  0  0  0
   13.2523  -16.0251   22.1878 C   0  0  0  0  0  0  0  0  0  0  0  0
   14.2169  -15.6551   23.2469 C   0  0  0  0  0  0  0  0  0  0  0  0
   15.4316  -15.4526   23.0011 O   0  0  0  0  0  0  0  0  0  0  0  0
   14.6544  -17.0594   20.4253 C   0  0  0  0  0  0  0  0  0  0  0  0
   14.4893  -17.6976   19.2287 O   0  0  0  0  0  0  0  0  0  0  0  0
   13.7766  -15.5256   24.5524 O   0  0  0  0  0  0  0  0  0  0  0  0
   15.5314  -17.4716   21.2202 O   0  0  0  0  0  0  0  0  0  0  0  0
  2  1  1  0
  3  2  2  0
  4  2  1  0
  5  6  1  1
  5  4  1  0
  7  5  1  0
  8  7  2  0
  9  7  1  0
 10 11  1  0
 10  9  1  0
 11 13  1  0
 12 11  2  0
 13 14  1  0
 14 18  1  0
 14 15  1  1
 15 16  1  0
 16 17  2  0
 18 21  2  0
 18 19  1  0
 20 16  1  0
M  END
$$$$
