NGD.pdb
     RDKit          3D

 21 20  0  0  1  0  0  0  0  0999 V2000
    8.6183  -12.4480   18.5534 N   0  0  0  0  0  0  0  0  0  0  0  0
    8.6262  -13.5832   17.7074 C   0  0  0  0  0  0  0  0  0  0  0  0
    8.3345  -13.5120   16.5027 O   0  0  0  0  0  0  0  0  0  0  0  0
    8.9934  -14.8923   18.2783 C   0  0  0  0  0  0  0  0  0  0  0  0
    7.7126  -15.5409   18.8024 C   0  0  2  0  0  0  0  0  0  0  0  0
    7.1357  -14.7339   19.8584 N   0  0  0  0  0  0  0  0  0  0  0  0
    8.1375  -16.8384   19.3991 C   0  0  0  0  0  0  0  0  0  0  0  0
    8.4822  -17.8098   18.6498 O   0  0  0  0  0  0  0  0  0  0  0  0
    8.1719  -17.0376   20.8110 N   0  0  0  0  0  0  0  0  0  0  0  0
    8.5115  -18.3377   21.3090 C   0  0  0  0  0  0  0  0  0  0  0  0
    9.8037  -18.3221   22.0657 C   0  0  0  0  0  0  0  0  0  0  0  0
   10.6180  -17.4107   21.8104 O   0  0  0  0  0  0  0  0  0  0  0  0
   10.1308  -19.2800   23.0371 N   0  0  0  0  0  0  0  0  0  0  0  0
   11.3069  -19.3519   23.8479 C   0  0  1  0  0  0  0  0  0  0  0  0
   11.0072  -19.4004   25.3153 C   0  0  0  0  0  0  0  0  0  0  0  0
   12.2329  -19.3251   26.1407 C   0  0  0  0  0  0  0  0  0  0  0  0
   13.3750  -19.2179   25.6300 O   0  0  0  0  0  0  0  0  0  0  0  0
   12.3277  -20.3247   23.4327 C   0  0  0  0  0  0  0  0  0  0  0  0
   12.0426  -21.3722   22.6034 O   0  0  0  0  0  0  0  0  0  0  0  0
   12.1279  -19.3735   27.5197 O   0  0  0  0  0  0  0  0  0  0  0  0
   13.4993  -20.1824   23.8545 O   0  0  0  0  0  0  0  0  0  0  0  0
  2  1  1  0
  3  2  2  0
  4  2  1  0
  5  6  1  1
  5  4  1  0
  7  5  1  0
  8  7  2  0
  9  7  1  0
 10 11  1  0
 10  9  1  0
 11 13  1  0
 12 11  2  0
 13 14  1  0
 14 18  1  0
 14 15  1  1
 15 16  1  0
 16 17  2  0
 18 21  2  0
 18 19  1  0
 20 16  1  0
M  END
$$$$
