NGD.pdb
     RDKit          3D

 21 20  0  0  1  0  0  0  0  0999 V2000
    7.7918  -13.4612   14.7368 N   0  0  0  0  0  0  0  0  0  0  0  0
    7.9612  -14.7177   15.3667 C   0  0  0  0  0  0  0  0  0  0  0  0
    7.6540  -15.7836   14.8091 O   0  0  0  0  0  0  0  0  0  0  0  0
    8.5213  -14.7594   16.7302 C   0  0  0  0  0  0  0  0  0  0  0  0
    7.4351  -14.2720   17.6885 C   0  0  2  0  0  0  0  0  0  0  0  0
    7.6119  -12.8627   17.9747 N   0  0  0  0  0  0  0  0  0  0  0  0
    7.6523  -15.0263   18.9550 C   0  0  0  0  0  0  0  0  0  0  0  0
    7.4050  -16.2751   19.0114 O   0  0  0  0  0  0  0  0  0  0  0  0
    8.1368  -14.3862   20.1340 N   0  0  0  0  0  0  0  0  0  0  0  0
    8.2939  -15.1720   21.3219 C   0  0  0  0  0  0  0  0  0  0  0  0
    9.7361  -15.3479   21.6846 C   0  0  0  0  0  0  0  0  0  0  0  0
   10.5938  -14.8706   20.9127 O   0  0  0  0  0  0  0  0  0  0  0  0
   10.1555  -16.0200   22.8424 N   0  0  0  0  0  0  0  0  0  0  0  0
   11.4723  -16.0907   23.3964 C   0  0  1  0  0  0  0  0  0  0  0  0
   11.4865  -15.9985   24.8920 C   0  0  0  0  0  0  0  0  0  0  0  0
   10.8815  -17.1870   25.5328 C   0  0  0  0  0  0  0  0  0  0  0  0
    9.8030  -17.6864   25.1275 O   0  0  0  0  0  0  0  0  0  0  0  0
   12.3446  -17.1518   22.8732 C   0  0  0  0  0  0  0  0  0  0  0  0
   13.7061  -17.0890   22.9664 O   0  0  0  0  0  0  0  0  0  0  0  0
   11.5163  -17.7740   26.6133 O   0  0  0  0  0  0  0  0  0  0  0  0
   11.8162  -18.1480   22.3262 O   0  0  0  0  0  0  0  0  0  0  0  0
  2  1  1  0
  3  2  2  0
  4  2  1  0
  5  6  1  1
  5  4  1  0
  7  5  1  0
  8  7  2  0
  9  7  1  0
 10 11  1  0
 10  9  1  0
 11 13  1  0
 12 11  2  0
 13 14  1  0
 14 18  1  0
 14 15  1  1
 15 16  1  0
 16 17  2  0
 18 21  2  0
 18 19  1  0
 20 16  1  0
M  END
$$$$
