NGD.pdb
     RDKit          3D

 21 20  0  0  1  0  0  0  0  0999 V2000
    7.4133  -14.5643   15.6047 N   0  0  0  0  0  0  0  0  0  0  0  0
    8.0684  -14.6220   16.8585 C   0  0  0  0  0  0  0  0  0  0  0  0
    9.2946  -14.7898   16.9567 O   0  0  0  0  0  0  0  0  0  0  0  0
    7.2656  -14.4775   18.0870 C   0  0  0  0  0  0  0  0  0  0  0  0
    8.0382  -13.5619   19.0360 C   0  0  2  0  0  0  0  0  0  0  0  0
    8.6952  -12.5060   18.2927 N   0  0  0  0  0  0  0  0  0  0  0  0
    9.0949  -14.4181   19.6446 C   0  0  0  0  0  0  0  0  0  0  0  0
    8.7973  -15.2602   20.5536 O   0  0  0  0  0  0  0  0  0  0  0  0
   10.4590  -14.3264   19.2383 N   0  0  0  0  0  0  0  0  0  0  0  0
   11.3751  -13.6131   20.0782 C   0  0  0  0  0  0  0  0  0  0  0  0
   11.6887  -14.3740   21.3293 C   0  0  0  0  0  0  0  0  0  0  0  0
   10.9322  -14.2198   22.3107 O   0  0  0  0  0  0  0  0  0  0  0  0
   12.7856  -15.2414   21.4402 N   0  0  0  0  0  0  0  0  0  0  0  0
   13.3250  -15.8391   22.6225 C   0  0  1  0  0  0  0  0  0  0  0  0
   12.6349  -17.1132   23.0044 C   0  0  0  0  0  0  0  0  0  0  0  0
   13.1491  -17.6703   24.2750 C   0  0  0  0  0  0  0  0  0  0  0  0
   14.3268  -18.0901   24.3907 O   0  0  0  0  0  0  0  0  0  0  0  0
   14.7902  -15.9286   22.6988 C   0  0  0  0  0  0  0  0  0  0  0  0
   15.5001  -15.4012   23.7400 O   0  0  0  0  0  0  0  0  0  0  0  0
   12.3136  -17.7349   25.3764 O   0  0  0  0  0  0  0  0  0  0  0  0
   15.4048  -16.5126   21.7756 O   0  0  0  0  0  0  0  0  0  0  0  0
  2  1  1  0
  3  2  2  0
  4  2  1  0
  5  6  1  6
  5  4  1  0
  7  5  1  0
  8  7  2  0
  9  7  1  0
 10 11  1  0
 10  9  1  0
 11 13  1  0
 12 11  2  0
 13 14  1  0
 14 18  1  0
 14 15  1  6
 15 16  1  0
 16 17  2  0
 18 21  2  0
 18 19  1  0
 20 16  1  0
M  END
$$$$
