NGD.pdb
     RDKit          3D

 21 20  0  0  1  0  0  0  0  0999 V2000
    6.6572  -14.1590   20.6846 N   0  0  0  0  0  0  0  0  0  0  0  0
    7.3749  -13.8826   19.4959 C   0  0  0  0  0  0  0  0  0  0  0  0
    7.0960  -12.9194   18.7639 O   0  0  0  0  0  0  0  0  0  0  0  0
    8.4903  -14.7697   19.1168 C   0  0  0  0  0  0  0  0  0  0  0  0
    8.4894  -15.9500   20.0877 C   0  0  2  0  0  0  0  0  0  0  0  0
    7.1420  -16.2252   20.5439 N   0  0  0  0  0  0  0  0  0  0  0  0
    9.2870  -15.5005   21.2633 C   0  0  0  0  0  0  0  0  0  0  0  0
   10.4822  -15.0858   21.1101 O   0  0  0  0  0  0  0  0  0  0  0  0
    8.7494  -15.5192   22.5842 N   0  0  0  0  0  0  0  0  0  0  0  0
    9.6060  -15.1594   23.6751 C   0  0  0  0  0  0  0  0  0  0  0  0
   10.3182  -16.3505   24.2378 C   0  0  0  0  0  0  0  0  0  0  0  0
    9.7327  -17.4526   24.1979 O   0  0  0  0  0  0  0  0  0  0  0  0
   11.6008  -16.2768   24.8014 N   0  0  0  0  0  0  0  0  0  0  0  0
   12.3556  -17.3209   25.4227 C   0  0  1  0  0  0  0  0  0  0  0  0
   13.8245  -17.0301   25.4804 C   0  0  0  0  0  0  0  0  0  0  0  0
   14.3668  -16.6197   24.1664 C   0  0  0  0  0  0  0  0  0  0  0  0
   13.6542  -16.5825   23.1332 O   0  0  0  0  0  0  0  0  0  0  0  0
   11.8201  -17.8515   26.6846 C   0  0  0  0  0  0  0  0  0  0  0  0
   12.2621  -19.0240   27.2289 O   0  0  0  0  0  0  0  0  0  0  0  0
   15.7001  -16.2637   24.0624 O   0  0  0  0  0  0  0  0  0  0  0  0
   10.9295  -17.2007   27.2796 O   0  0  0  0  0  0  0  0  0  0  0  0
  2  1  1  0
  3  2  2  0
  4  2  1  0
  5  6  1  1
  5  4  1  0
  7  5  1  0
  8  7  2  0
  9  7  1  0
 10 11  1  0
 10  9  1  0
 11 13  1  0
 12 11  2  0
 13 14  1  0
 14 18  1  0
 14 15  1  1
 15 16  1  0
 16 17  2  0
 18 21  2  0
 18 19  1  0
 20 16  1  0
M  END
$$$$
