NGD.pdb
     RDKit          3D

 21 20  0  0  1  0  0  0  0  0999 V2000
    7.3451  -18.0249   12.8368 N   0  0  0  0  0  0  0  0  0  0  0  0
    6.9855  -17.2532   13.9680 C   0  0  0  0  0  0  0  0  0  0  0  0
    6.6151  -16.0721   13.8720 O   0  0  0  0  0  0  0  0  0  0  0  0
    7.0538  -17.8751   15.3034 C   0  0  0  0  0  0  0  0  0  0  0  0
    7.9682  -17.0080   16.1681 C   0  0  2  0  0  0  0  0  0  0  0  0
    9.2651  -16.8615   15.5389 N   0  0  0  0  0  0  0  0  0  0  0  0
    8.1583  -17.7686   17.4352 C   0  0  0  0  0  0  0  0  0  0  0  0
    7.1779  -17.9555   18.2275 O   0  0  0  0  0  0  0  0  0  0  0  0
    9.4273  -18.3062   17.8025 N   0  0  0  0  0  0  0  0  0  0  0  0
    9.5349  -19.0162   19.0426 C   0  0  0  0  0  0  0  0  0  0  0  0
   10.4662  -18.3321   19.9950 C   0  0  0  0  0  0  0  0  0  0  0  0
   11.2850  -17.5152   19.5245 O   0  0  0  0  0  0  0  0  0  0  0  0
   10.4549  -18.5708   21.3774 N   0  0  0  0  0  0  0  0  0  0  0  0
   11.2954  -17.9952   22.3815 C   0  0  1  0  0  0  0  0  0  0  0  0
   10.5321  -17.4896   23.5679 C   0  0  0  0  0  0  0  0  0  0  0  0
   11.3816  -16.6985   24.4854 C   0  0  0  0  0  0  0  0  0  0  0  0
   12.6008  -16.4998   24.2604 O   0  0  0  0  0  0  0  0  0  0  0  0
   12.4941  -18.7628   22.7483 C   0  0  0  0  0  0  0  0  0  0  0  0
   13.7037  -18.5581   22.1471 O   0  0  0  0  0  0  0  0  0  0  0  0
   10.8243  -16.1563   25.6302 O   0  0  0  0  0  0  0  0  0  0  0  0
   12.3989  -19.6320   23.6462 O   0  0  0  0  0  0  0  0  0  0  0  0
  2  1  1  0
  3  2  2  0
  4  2  1  0
  5  6  1  6
  5  4  1  0
  7  5  1  0
  8  7  2  0
  9  7  1  0
 10 11  1  0
 10  9  1  0
 11 13  1  0
 12 11  2  0
 13 14  1  0
 14 18  1  0
 14 15  1  1
 15 16  1  0
 16 17  2  0
 18 21  2  0
 18 19  1  0
 20 16  1  0
M  END
$$$$
