NGD.pdb
     RDKit          3D

 21 20  0  0  1  0  0  0  0  0999 V2000
    6.5473  -17.5709   16.1277 N   0  0  0  0  0  0  0  0  0  0  0  0
    6.6037  -18.1390   17.4232 C   0  0  0  0  0  0  0  0  0  0  0  0
    6.3589  -19.3384   17.6305 O   0  0  0  0  0  0  0  0  0  0  0  0
    6.9656  -17.2756   18.5626 C   0  0  0  0  0  0  0  0  0  0  0  0
    8.4914  -17.2297   18.6382 C   0  0  2  0  0  0  0  0  0  0  0  0
    9.0206  -18.5471   18.9271 N   0  0  0  0  0  0  0  0  0  0  0  0
    8.8072  -16.3463   19.7958 C   0  0  0  0  0  0  0  0  0  0  0  0
    8.3852  -15.1442   19.8227 O   0  0  0  0  0  0  0  0  0  0  0  0
    9.5838  -16.8076   20.8997 N   0  0  0  0  0  0  0  0  0  0  0  0
    9.9039  -15.8803   21.9442 C   0  0  0  0  0  0  0  0  0  0  0  0
   10.5671  -16.5574   23.1036 C   0  0  0  0  0  0  0  0  0  0  0  0
    9.9706  -17.5149   23.6388 O   0  0  0  0  0  0  0  0  0  0  0  0
   11.8160  -16.1621   23.6057 N   0  0  0  0  0  0  0  0  0  0  0  0
   12.6662  -16.8650   24.5162 C   0  0  1  0  0  0  0  0  0  0  0  0
   14.0694  -16.3393   24.5352 C   0  0  0  0  0  0  0  0  0  0  0  0
   14.6615  -16.2728   23.1809 C   0  0  0  0  0  0  0  0  0  0  0  0
   14.3155  -17.0565   22.2628 O   0  0  0  0  0  0  0  0  0  0  0  0
   12.1220  -17.1120   25.8592 C   0  0  0  0  0  0  0  0  0  0  0  0
   12.5969  -18.1060   26.6673 O   0  0  0  0  0  0  0  0  0  0  0  0
   15.6278  -15.3206   22.9074 O   0  0  0  0  0  0  0  0  0  0  0  0
   11.1923  -16.3810   26.2740 O   0  0  0  0  0  0  0  0  0  0  0  0
  2  1  1  0
  3  2  2  0
  4  2  1  0
  5  6  1  1
  5  4  1  0
  7  5  1  0
  8  7  2  0
  9  7  1  0
 10 11  1  0
 10  9  1  0
 11 13  1  0
 12 11  2  0
 13 14  1  0
 14 18  1  0
 14 15  1  1
 15 16  1  0
 16 17  2  0
 18 21  2  0
 18 19  1  0
 20 16  1  0
M  END
$$$$
