NGD.pdb
     RDKit          3D

 21 20  0  0  1  0  0  0  0  0999 V2000
    6.4993  -12.6990   18.7559 N   0  0  0  0  0  0  0  0  0  0  0  0
    7.4711  -13.6225   18.3007 C   0  0  0  0  0  0  0  0  0  0  0  0
    7.5395  -13.9789   17.1134 O   0  0  0  0  0  0  0  0  0  0  0  0
    8.4330  -14.1778   19.2708 C   0  0  0  0  0  0  0  0  0  0  0  0
    7.8876  -15.5269   19.7381 C   0  0  2  0  0  0  0  0  0  0  0  0
    6.6722  -15.3401   20.5043 N   0  0  0  0  0  0  0  0  0  0  0  0
    8.9244  -16.0810   20.6536 C   0  0  0  0  0  0  0  0  0  0  0  0
   10.0722  -16.4059   20.2054 O   0  0  0  0  0  0  0  0  0  0  0  0
    8.6725  -16.2666   22.0452 N   0  0  0  0  0  0  0  0  0  0  0  0
    8.8029  -17.5844   22.5928 C   0  0  0  0  0  0  0  0  0  0  0  0
   10.1583  -17.8059   23.1897 C   0  0  0  0  0  0  0  0  0  0  0  0
   10.3845  -18.9087   23.7297 O   0  0  0  0  0  0  0  0  0  0  0  0
   11.1703  -16.8345   23.1666 N   0  0  0  0  0  0  0  0  0  0  0  0
   12.4633  -16.8894   23.7757 C   0  0  1  0  0  0  0  0  0  0  0  0
   13.4723  -16.0171   23.0927 C   0  0  0  0  0  0  0  0  0  0  0  0
   13.6163  -16.3445   21.6570 C   0  0  0  0  0  0  0  0  0  0  0  0
   13.7892  -17.5218   21.2559 O   0  0  0  0  0  0  0  0  0  0  0  0
   12.5000  -16.7796   25.2411 C   0  0  0  0  0  0  0  0  0  0  0  0
   11.3976  -16.4450   25.9753 O   0  0  0  0  0  0  0  0  0  0  0  0
   13.5602  -15.3286   20.7190 O   0  0  0  0  0  0  0  0  0  0  0  0
   13.5816  -17.0044   25.8330 O   0  0  0  0  0  0  0  0  0  0  0  0
  2  1  1  0
  3  2  2  0
  4  2  1  0
  5  6  1  1
  5  4  1  0
  7  5  1  0
  8  7  2  0
  9  7  1  0
 10 11  1  0
 10  9  1  0
 11 13  1  0
 12 11  2  0
 13 14  1  0
 14 18  1  0
 14 15  1  6
 15 16  1  0
 16 17  2  0
 18 21  2  0
 18 19  1  0
 20 16  1  0
M  END
$$$$
