VRD.pdb
     RDKit          3D

 27 26  0  0  1  0  0  0  0  0999 V2000
    9.6093  -14.1226   29.5972 C   0  0  0  0  0  0  0  0  0  0  0  0
    9.9752  -14.6076   28.1884 C   0  0  1  0  0  0  0  0  0  0  0  0
   11.4192  -14.9931   28.1075 C   0  0  0  0  0  0  0  0  0  0  0  0
    9.0380  -15.7423   27.8711 C   0  0  2  0  0  0  0  0  0  0  0  0
    9.3320  -16.8719   28.7283 N   0  0  0  0  0  0  0  0  0  0  0  0
    9.0883  -16.1750   26.4747 C   0  0  0  0  0  0  0  0  0  0  0  0
    9.6489  -17.2692   26.1871 O   0  0  0  0  0  0  0  0  0  0  0  0
    8.8103  -14.4315   18.1329 N   0  0  0  0  0  0  0  0  0  0  0  0
    8.1552  -13.4871   18.9669 C   0  0  0  0  0  0  0  0  0  0  0  0
    8.5877  -12.2913   19.0074 N   0  0  0  0  0  0  0  0  0  0  0  0
    7.0268  -13.9065   19.7386 N   0  0  0  0  0  0  0  0  0  0  0  0
    7.0558  -13.8379   21.1800 C   0  0  0  0  0  0  0  0  0  0  0  0
    8.0644  -14.8536   21.7374 C   0  0  0  0  0  0  0  0  0  0  0  0
    7.9232  -14.8469   23.2102 C   0  0  0  0  0  0  0  0  0  0  0  0
    8.7974  -15.8148   23.9707 C   0  0  2  0  0  0  0  0  0  0  0  0
    8.5522  -15.4613   25.3858 N   0  0  0  0  0  0  0  0  0  0  0  0
   10.2260  -15.7459   23.6619 C   0  0  0  0  0  0  0  0  0  0  0  0
   10.8742  -14.7466   24.1106 O   0  0  0  0  0  0  0  0  0  0  0  0
    8.1326  -11.5951   19.6331 N   0  0  0  0  0  0  0  0  0  0  0  0
   10.9552  -16.6961   22.9100 C   0  0  2  0  0  0  0  0  0  0  0  0
   12.4039  -16.5134   22.6833 C   0  0  0  0  0  0  0  0  0  0  0  0
   13.0563  -17.7618   23.2216 C   0  0  0  0  0  0  0  0  0  0  0  0
   14.5164  -17.7767   23.0323 O   0  0  0  0  0  0  0  0  0  0  0  0
   15.2167  -16.8719   22.5471 C   0  0  0  0  0  0  0  0  0  0  0  0
   12.5982  -16.4795   21.2174 O   0  0  0  0  0  0  0  0  0  0  0  0
   13.7712  -16.0681   20.5948 O   0  0  0  0  0  0  0  0  0  0  0  0
   15.1627  -18.9599   23.4575 O   0  0  0  0  0  0  0  0  0  0  0  0
  2  1  1  1
  3  2  1  0
  4  2  1  0
  4  5  1  1
  6  4  1  0
  6  7  2  0
  9  8  1  0
 10  9  2  0
 11  9  1  0
 12 13  1  0
 12 11  1  0
 13 14  1  0
 15 14  1  6
 15 16  1  0
 16  6  1  0
 17 15  1  0
 18 17  2  0
 19 17  1  0
 20 24  1  0
 20 19  1  0
 20 21  1  6
 22 21  1  0
 23 22  2  0
 24 25  1  0
 26 22  1  0
 27 24  2  0
M  END
$$$$
