VRD.pdb
     RDKit          3D

 27 26  0  0  1  0  0  0  0  0999 V2000
   10.1389  -12.7056   19.9991 C   0  0  0  0  0  0  0  0  0  0  0  0
    8.7235  -13.1096   19.5661 C   0  0  1  0  0  0  0  0  0  0  0  0
    7.9297  -11.9168   19.1329 C   0  0  0  0  0  0  0  0  0  0  0  0
    8.8872  -14.1409   18.4816 C   0  0  2  0  0  0  0  0  0  0  0  0
    7.5860  -14.5348   17.9827 N   0  0  0  0  0  0  0  0  0  0  0  0
    9.6176  -15.3340   18.9088 C   0  0  0  0  0  0  0  0  0  0  0  0
    8.9977  -16.2553   19.5098 O   0  0  0  0  0  0  0  0  0  0  0  0
    8.1063  -18.5396   15.7148 N   0  0  0  0  0  0  0  0  0  0  0  0
    8.6385  -17.8073   14.6206 C   0  0  0  0  0  0  0  0  0  0  0  0
    7.8404  -17.2480   13.8027 N   0  0  0  0  0  0  0  0  0  0  0  0
   10.0575  -17.7185   14.4683 N   0  0  0  0  0  0  0  0  0  0  0  0
   10.9379  -18.1068   15.5441 C   0  0  0  0  0  0  0  0  0  0  0  0
   10.7281  -17.1875   16.7567 C   0  0  0  0  0  0  0  0  0  0  0  0
   11.7027  -17.5991   17.7911 C   0  0  0  0  0  0  0  0  0  0  0  0
   11.6853  -16.8105   19.0784 C   0  0  2  0  0  0  0  0  0  0  0  0
   10.9928  -15.5580   18.7056 N   0  0  0  0  0  0  0  0  0  0  0  0
   12.9987  -16.5218   19.6552 C   0  0  0  0  0  0  0  0  0  0  0  0
   13.8001  -15.8166   18.9618 O   0  0  0  0  0  0  0  0  0  0  0  0
    8.2159  -16.6631   13.0281 N   0  0  0  0  0  0  0  0  0  0  0  0
   13.4581  -16.9541   20.9208 C   0  0  1  0  0  0  0  0  0  0  0  0
   14.8611  -16.7225   21.3229 C   0  0  0  0  0  0  0  0  0  0  0  0
   15.0052  -15.2258   21.4377 C   0  0  0  0  0  0  0  0  0  0  0  0
   16.3917  -14.7646   21.2563 O   0  0  0  0  0  0  0  0  0  0  0  0
   17.3942  -15.4709   21.0547 C   0  0  0  0  0  0  0  0  0  0  0  0
   15.0140  -17.3115   22.6711 O   0  0  0  0  0  0  0  0  0  0  0  0
   16.2194  -17.7688   23.1910 O   0  0  0  0  0  0  0  0  0  0  0  0
   16.5698  -13.3638   21.3236 O   0  0  0  0  0  0  0  0  0  0  0  0
  2  1  1  6
  3  2  1  0
  4  2  1  0
  4  5  1  1
  6  4  1  0
  6  7  2  0
  9  8  1  0
 10  9  2  0
 11  9  1  0
 12 13  1  0
 12 11  1  0
 13 14  1  0
 15 14  1  6
 15 16  1  0
 16  6  1  0
 17 15  1  0
 18 17  2  0
 19 17  1  0
 20 24  1  0
 20 19  1  0
 20 21  1  6
 22 21  1  0
 23 22  2  0
 24 25  1  0
 26 22  1  0
 27 24  2  0
M  END
$$$$
