VRD.pdb
     RDKit          3D

 27 26  0  0  1  0  0  0  0  0999 V2000
    7.8086  -12.3561   21.0528 C   0  0  0  0  0  0  0  0  0  0  0  0
    8.2830  -13.8150   21.0300 C   0  0  1  0  0  0  0  0  0  0  0  0
    8.4912  -14.3375   22.4171 C   0  0  0  0  0  0  0  0  0  0  0  0
    7.2507  -14.5871   20.2523 C   0  0  2  0  0  0  0  0  0  0  0  0
    5.9842  -14.5512   20.9537 N   0  0  0  0  0  0  0  0  0  0  0  0
    7.6210  -15.9802   20.0036 C   0  0  0  0  0  0  0  0  0  0  0  0
    7.0848  -16.8937   20.6909 O   0  0  0  0  0  0  0  0  0  0  0  0
    7.9534  -18.1610   14.7998 N   0  0  0  0  0  0  0  0  0  0  0  0
    8.4627  -19.3880   14.2981 C   0  0  0  0  0  0  0  0  0  0  0  0
    7.7745  -20.0455   13.4538 N   0  0  0  0  0  0  0  0  0  0  0  0
    9.7358  -19.8511   14.7558 N   0  0  0  0  0  0  0  0  0  0  0  0
   10.5507  -19.0283   15.6173 C   0  0  0  0  0  0  0  0  0  0  0  0
   10.1011  -19.1847   17.0777 C   0  0  0  0  0  0  0  0  0  0  0  0
    9.5930  -17.8681   17.5221 C   0  0  0  0  0  0  0  0  0  0  0  0
    9.0258  -17.8068   18.9200 C   0  0  2  0  0  0  0  0  0  0  0  0
    8.5501  -16.4114   19.0376 N   0  0  0  0  0  0  0  0  0  0  0  0
    9.9680  -18.1228   19.9940 C   0  0  0  0  0  0  0  0  0  0  0  0
   10.4258  -19.3095   20.0404 O   0  0  0  0  0  0  0  0  0  0  0  0
    8.1702  -20.9025   13.0156 N   0  0  0  0  0  0  0  0  0  0  0  0
   10.4208  -17.2232   20.9867 C   0  0  1  0  0  0  0  0  0  0  0  0
   11.3366  -17.6865   22.0498 C   0  0  0  0  0  0  0  0  0  0  0  0
   12.6491  -16.9944   21.7804 C   0  0  0  0  0  0  0  0  0  0  0  0
   13.6060  -17.8387   21.0461 O   0  0  0  0  0  0  0  0  0  0  0  0
   13.8476  -19.0416   21.2448 C   0  0  0  0  0  0  0  0  0  0  0  0
   10.7916  -17.1743   23.3259 O   0  0  0  0  0  0  0  0  0  0  0  0
   11.1768  -17.6344   24.5799 O   0  0  0  0  0  0  0  0  0  0  0  0
   14.3100  -17.1832   20.0102 O   0  0  0  0  0  0  0  0  0  0  0  0
  2  1  1  1
  3  2  1  0
  4  2  1  0
  4  5  1  1
  6  4  1  0
  6  7  2  0
  9  8  1  0
 10  9  2  0
 11  9  1  0
 12 13  1  0
 12 11  1  0
 13 14  1  0
 15 14  1  6
 15 16  1  0
 16  6  1  0
 17 15  1  0
 18 17  2  0
 19 17  1  0
 20 24  1  0
 20 19  1  0
 20 21  1  1
 22 21  1  0
 23 22  2  0
 24 25  1  0
 26 22  1  0
 27 24  2  0
M  END
$$$$
