VRD.pdb
     RDKit          3D

 27 26  0  0  1  0  0  0  0  0999 V2000
    9.7349  -12.3341   19.9002 C   0  0  0  0  0  0  0  0  0  0  0  0
    8.4053  -13.0990   19.8653 C   0  0  1  0  0  0  0  0  0  0  0  0
    7.2505  -12.1669   19.6706 C   0  0  0  0  0  0  0  0  0  0  0  0
    8.5323  -14.1254   18.7713 C   0  0  2  0  0  0  0  0  0  0  0  0
    7.2778  -14.8324   18.6178 N   0  0  0  0  0  0  0  0  0  0  0  0
    9.6043  -15.0952   18.9949 C   0  0  0  0  0  0  0  0  0  0  0  0
    9.3991  -16.0760   19.7631 O   0  0  0  0  0  0  0  0  0  0  0  0
   10.1582  -17.5461   15.1938 N   0  0  0  0  0  0  0  0  0  0  0  0
   10.7350  -17.2710   13.9256 C   0  0  0  0  0  0  0  0  0  0  0  0
   10.0080  -17.3490   12.8844 N   0  0  0  0  0  0  0  0  0  0  0  0
   12.1176  -16.9135   13.8538 N   0  0  0  0  0  0  0  0  0  0  0  0
   12.8653  -16.6247   15.0541 C   0  0  0  0  0  0  0  0  0  0  0  0
   11.9247  -16.5931   16.2681 C   0  0  0  0  0  0  0  0  0  0  0  0
   12.7171  -16.1157   17.4228 C   0  0  0  0  0  0  0  0  0  0  0  0
   11.9773  -15.9803   18.7320 C   0  0  2  0  0  0  0  0  0  0  0  0
   10.8855  -15.0346   18.4143 N   0  0  0  0  0  0  0  0  0  0  0  0
   12.7752  -15.4885   19.8557 C   0  0  0  0  0  0  0  0  0  0  0  0
   13.0777  -14.2522   19.8617 O   0  0  0  0  0  0  0  0  0  0  0  0
   10.4180  -17.1508   11.9485 N   0  0  0  0  0  0  0  0  0  0  0  0
   13.2387  -16.2659   20.9422 C   0  0  1  0  0  0  0  0  0  0  0  0
   14.0022  -15.6336   22.0381 C   0  0  0  0  0  0  0  0  0  0  0  0
   13.7810  -16.5133   23.2427 C   0  0  0  0  0  0  0  0  0  0  0  0
   12.4544  -16.3301   23.8545 O   0  0  0  0  0  0  0  0  0  0  0  0
   11.5746  -15.5249   23.5050 C   0  0  0  0  0  0  0  0  0  0  0  0
   15.4290  -15.7142   21.6563 O   0  0  0  0  0  0  0  0  0  0  0  0
   16.4489  -15.0200   22.2971 O   0  0  0  0  0  0  0  0  0  0  0  0
   12.1812  -17.1745   24.9549 O   0  0  0  0  0  0  0  0  0  0  0  0
  2  1  1  6
  3  2  1  0
  4  2  1  0
  4  5  1  1
  6  4  1  0
  6  7  2  0
  9  8  1  0
 10  9  2  0
 11  9  1  0
 12 13  1  0
 12 11  1  0
 13 14  1  0
 15 14  1  6
 15 16  1  0
 16  6  1  0
 17 15  1  0
 18 17  2  0
 19 17  1  0
 20 24  1  0
 20 19  1  0
 20 21  1  6
 22 21  1  0
 23 22  2  0
 24 25  1  0
 26 22  1  0
 27 24  2  0
M  END
$$$$
