VRD.pdb
     RDKit          3D

 27 26  0  0  1  0  0  0  0  0999 V2000
    7.6632  -11.9819   25.6534 C   0  0  0  0  0  0  0  0  0  0  0  0
    7.1166  -13.0434   26.6170 C   0  0  1  0  0  0  0  0  0  0  0  0
    6.3443  -12.4134   27.7337 C   0  0  0  0  0  0  0  0  0  0  0  0
    6.2938  -13.9911   25.7854 C   0  0  2  0  0  0  0  0  0  0  0  0
    5.7956  -15.0651   26.6194 N   0  0  0  0  0  0  0  0  0  0  0  0
    7.0202  -14.5627   24.6517 C   0  0  0  0  0  0  0  0  0  0  0  0
    7.2178  -15.8091   24.6101 O   0  0  0  0  0  0  0  0  0  0  0  0
    8.0202  -15.9038   18.0637 N   0  0  0  0  0  0  0  0  0  0  0  0
    8.1364  -14.8138   17.1611 C   0  0  0  0  0  0  0  0  0  0  0  0
    8.5254  -15.0345   15.9700 N   0  0  0  0  0  0  0  0  0  0  0  0
    7.8127  -13.4973   17.6159 N   0  0  0  0  0  0  0  0  0  0  0  0
    7.3405  -13.2804   18.9624 C   0  0  0  0  0  0  0  0  0  0  0  0
    8.4716  -13.5427   19.9680 C   0  0  0  0  0  0  0  0  0  0  0  0
    7.9252  -13.2826   21.3182 C   0  0  0  0  0  0  0  0  0  0  0  0
    7.9605  -14.4388   22.2885 C   0  0  2  0  0  0  0  0  0  0  0  0
    7.5366  -13.8282   23.5671 N   0  0  0  0  0  0  0  0  0  0  0  0
    9.2601  -15.0949   22.4359 C   0  0  0  0  0  0  0  0  0  0  0  0
    9.7039  -15.7455   21.4361 O   0  0  0  0  0  0  0  0  0  0  0  0
    8.6959  -14.2373   15.3229 N   0  0  0  0  0  0  0  0  0  0  0  0
   10.0725  -15.0674   23.5931 C   0  0  2  0  0  0  0  0  0  0  0  0
   11.2316  -15.9764   23.7110 C   0  0  0  0  0  0  0  0  0  0  0  0
   10.6545  -17.3694   23.6903 C   0  0  0  0  0  0  0  0  0  0  0  0
   11.6662  -18.4159   23.9123 O   0  0  0  0  0  0  0  0  0  0  0  0
   12.5431  -18.7893   23.1146 C   0  0  0  0  0  0  0  0  0  0  0  0
   12.0396  -15.7870   22.4866 O   0  0  0  0  0  0  0  0  0  0  0  0
   13.3834  -16.1264   22.3780 O   0  0  0  0  0  0  0  0  0  0  0  0
   11.6089  -19.0448   25.1770 O   0  0  0  0  0  0  0  0  0  0  0  0
  2  1  1  6
  3  2  1  0
  4  2  1  0
  4  5  1  1
  6  4  1  0
  6  7  2  0
  9  8  1  0
 10  9  2  0
 11  9  1  0
 12 13  1  0
 12 11  1  0
 13 14  1  0
 15 14  1  6
 15 16  1  0
 16  6  1  0
 17 15  1  0
 18 17  2  0
 19 17  1  0
 20 24  1  0
 20 19  1  0
 20 21  1  1
 22 21  1  0
 23 22  2  0
 24 25  1  0
 26 22  1  0
 27 24  2  0
M  END
$$$$
