VRD.pdb
     RDKit          3D

 27 26  0  0  1  0  0  0  0  0999 V2000
    7.5181  -12.2092   25.9347 C   0  0  0  0  0  0  0  0  0  0  0  0
    7.1223  -13.2331   27.0066 C   0  0  1  0  0  0  0  0  0  0  0  0
    6.3762  -12.5805   28.1281 C   0  0  0  0  0  0  0  0  0  0  0  0
    6.3259  -14.3001   26.3039 C   0  0  2  0  0  0  0  0  0  0  0  0
    5.9976  -15.3578   27.2370 N   0  0  0  0  0  0  0  0  0  0  0  0
    7.0080  -14.8777   25.1460 C   0  0  0  0  0  0  0  0  0  0  0  0
    7.6550  -15.9533   25.2837 O   0  0  0  0  0  0  0  0  0  0  0  0
   10.1287  -13.5799   18.6008 N   0  0  0  0  0  0  0  0  0  0  0  0
    9.1856  -13.8292   17.5688 C   0  0  0  0  0  0  0  0  0  0  0  0
    9.6048  -14.0945   16.3972 N   0  0  0  0  0  0  0  0  0  0  0  0
    7.7899  -13.7753   17.8750 N   0  0  0  0  0  0  0  0  0  0  0  0
    7.3413  -13.4152   19.1988 C   0  0  0  0  0  0  0  0  0  0  0  0
    7.9692  -14.3510   20.2425 C   0  0  0  0  0  0  0  0  0  0  0  0
    7.3248  -14.0531   21.5407 C   0  0  0  0  0  0  0  0  0  0  0  0
    7.7242  -14.9302   22.7029 C   0  0  2  0  0  0  0  0  0  0  0  0
    7.0104  -14.3280   23.8498 N   0  0  0  0  0  0  0  0  0  0  0  0
    9.1611  -15.0024   22.9699 C   0  0  0  0  0  0  0  0  0  0  0  0
    9.7165  -13.9707   23.4670 O   0  0  0  0  0  0  0  0  0  0  0  0
    8.9246  -14.2697   15.6292 N   0  0  0  0  0  0  0  0  0  0  0  0
    9.9907  -16.1218   22.7280 C   0  0  2  0  0  0  0  0  0  0  0  0
   11.4284  -16.0700   23.0657 C   0  0  0  0  0  0  0  0  0  0  0  0
   11.7991  -17.4762   23.4649 C   0  0  0  0  0  0  0  0  0  0  0  0
   11.6018  -17.7391   24.9001 O   0  0  0  0  0  0  0  0  0  0  0  0
   11.1081  -16.9679   25.7405 C   0  0  0  0  0  0  0  0  0  0  0  0
   12.1418  -15.7362   21.8137 O   0  0  0  0  0  0  0  0  0  0  0  0
   13.4963  -15.4308   21.7448 O   0  0  0  0  0  0  0  0  0  0  0  0
   12.0292  -19.0130   25.3393 O   0  0  0  0  0  0  0  0  0  0  0  0
  2  1  1  6
  3  2  1  0
  4  2  1  0
  4  5  1  1
  6  4  1  0
  6  7  2  0
  9  8  1  0
 10  9  2  0
 11  9  1  0
 12 13  1  0
 12 11  1  0
 13 14  1  0
 15 14  1  6
 15 16  1  0
 16  6  1  0
 17 15  1  0
 18 17  2  0
 19 17  1  0
 20 24  1  0
 20 19  1  0
 20 21  1  6
 22 21  1  0
 23 22  2  0
 24 25  1  0
 26 22  1  0
 27 24  2  0
M  END
$$$$
