VRD.pdb
     RDKit          3D

 27 26  0  0  1  0  0  0  0  0999 V2000
    9.7321  -12.7589   19.0453 C   0  0  0  0  0  0  0  0  0  0  0  0
    8.2478  -12.9319   19.3929 C   0  0  1  0  0  0  0  0  0  0  0  0
    7.3866  -12.0567   18.5368 C   0  0  0  0  0  0  0  0  0  0  0  0
    7.9422  -14.3982   19.2411 C   0  0  2  0  0  0  0  0  0  0  0  0
    6.5189  -14.6182   19.3935 N   0  0  0  0  0  0  0  0  0  0  0  0
    8.6624  -15.2510   20.1864 C   0  0  0  0  0  0  0  0  0  0  0  0
    8.3170  -15.2554   21.4009 O   0  0  0  0  0  0  0  0  0  0  0  0
    9.0595  -23.4352   20.6886 N   0  0  0  0  0  0  0  0  0  0  0  0
    9.3251  -22.9280   21.9882 C   0  0  0  0  0  0  0  0  0  0  0  0
    9.1201  -23.6739   22.9982 N   0  0  0  0  0  0  0  0  0  0  0  0
    9.8160  -21.5920   22.1258 N   0  0  0  0  0  0  0  0  0  0  0  0
    9.8700  -20.7078   20.9863 C   0  0  0  0  0  0  0  0  0  0  0  0
   10.5879  -19.4032   21.3631 C   0  0  0  0  0  0  0  0  0  0  0  0
    9.9555  -18.3156   20.5844 C   0  0  0  0  0  0  0  0  0  0  0  0
   10.4694  -16.9200   20.8447 C   0  0  2  0  0  0  0  0  0  0  0  0
    9.7403  -16.0949   19.8573 N   0  0  0  0  0  0  0  0  0  0  0  0
   11.9146  -16.7455   20.6961 C   0  0  0  0  0  0  0  0  0  0  0  0
   12.3429  -16.3494   19.5649 O   0  0  0  0  0  0  0  0  0  0  0  0
    9.2895  -23.3077   23.9576 N   0  0  0  0  0  0  0  0  0  0  0  0
   12.8818  -16.9745   21.7020 C   0  0  1  0  0  0  0  0  0  0  0  0
   14.3186  -16.7915   21.4090 C   0  0  0  0  0  0  0  0  0  0  0  0
   14.4514  -15.3729   20.9152 C   0  0  0  0  0  0  0  0  0  0  0  0
   15.8394  -15.0023   20.5927 O   0  0  0  0  0  0  0  0  0  0  0  0
   16.8400  -15.7379   20.6403 C   0  0  0  0  0  0  0  0  0  0  0  0
   15.0282  -16.9046   22.7020 O   0  0  0  0  0  0  0  0  0  0  0  0
   16.3028  -17.4400   22.8486 O   0  0  0  0  0  0  0  0  0  0  0  0
   16.0217  -13.6599   20.1888 O   0  0  0  0  0  0  0  0  0  0  0  0
  2  1  1  6
  3  2  1  0
  4  2  1  0
  4  5  1  1
  6  4  1  0
  6  7  2  0
  9  8  1  0
 10  9  2  0
 11  9  1  0
 12 13  1  0
 12 11  1  0
 13 14  1  0
 15 14  1  6
 15 16  1  0
 16  6  1  0
 17 15  1  0
 18 17  2  0
 19 17  1  0
 20 24  1  0
 20 19  1  0
 20 21  1  1
 22 21  1  0
 23 22  2  0
 24 25  1  0
 26 22  1  0
 27 24  2  0
M  END
$$$$
