VRD.pdb
     RDKit          3D

 27 26  0  0  1  0  0  0  0  0999 V2000
   10.5870  -13.6261   19.6747 C   0  0  0  0  0  0  0  0  0  0  0  0
    9.2753  -12.8302   19.6748 C   0  0  1  0  0  0  0  0  0  0  0  0
    9.3619  -11.6455   18.7641 C   0  0  0  0  0  0  0  0  0  0  0  0
    8.1888  -13.7984   19.2895 C   0  0  2  0  0  0  0  0  0  0  0  0
    6.9151  -13.1105   19.2465 N   0  0  0  0  0  0  0  0  0  0  0  0
    8.0810  -14.9498   20.1852 C   0  0  0  0  0  0  0  0  0  0  0  0
    7.5925  -14.7912   21.3387 O   0  0  0  0  0  0  0  0  0  0  0  0
    8.4670  -23.2429   18.5354 N   0  0  0  0  0  0  0  0  0  0  0  0
    8.0073  -23.3482   19.8748 C   0  0  0  0  0  0  0  0  0  0  0  0
    8.0979  -24.4665   20.4748 N   0  0  0  0  0  0  0  0  0  0  0  0
    7.4551  -22.1938   20.5128 N   0  0  0  0  0  0  0  0  0  0  0  0
    7.4890  -20.9068   19.8605 C   0  0  0  0  0  0  0  0  0  0  0  0
    8.1214  -19.8598   20.7896 C   0  0  0  0  0  0  0  0  0  0  0  0
    8.0481  -18.5563   20.0934 C   0  0  0  0  0  0  0  0  0  0  0  0
    8.5568  -17.3588   20.8594 C   0  0  2  0  0  0  0  0  0  0  0  0
    8.4847  -16.2615   19.8705 N   0  0  0  0  0  0  0  0  0  0  0  0
    9.9138  -17.4849   21.3921 C   0  0  0  0  0  0  0  0  0  0  0  0
   10.8771  -17.4071   20.5638 O   0  0  0  0  0  0  0  0  0  0  0  0
    7.6965  -24.5786   21.4285 N   0  0  0  0  0  0  0  0  0  0  0  0
   10.2526  -17.6820   22.7508 C   0  0  1  0  0  0  0  0  0  0  0  0
   11.6582  -17.9175   23.1412 C   0  0  0  0  0  0  0  0  0  0  0  0
   12.3088  -16.5570   23.1438 C   0  0  0  0  0  0  0  0  0  0  0  0
   13.6067  -16.5373   22.4488 O   0  0  0  0  0  0  0  0  0  0  0  0
   14.1792  -17.4981   21.9069 C   0  0  0  0  0  0  0  0  0  0  0  0
   11.6286  -18.4239   24.5307 O   0  0  0  0  0  0  0  0  0  0  0  0
   12.6645  -19.1363   25.1241 O   0  0  0  0  0  0  0  0  0  0  0  0
   14.2456  -15.2769   22.4103 O   0  0  0  0  0  0  0  0  0  0  0  0
  2  1  1  6
  3  2  1  0
  4  2  1  0
  4  5  1  1
  6  4  1  0
  6  7  2  0
  9  8  1  0
 10  9  2  0
 11  9  1  0
 12 13  1  0
 12 11  1  0
 13 14  1  0
 15 14  1  6
 15 16  1  0
 16  6  1  0
 17 15  1  0
 18 17  2  0
 19 17  1  0
 20 24  1  0
 20 19  1  0
 20 21  1  1
 22 21  1  0
 23 22  2  0
 24 25  1  0
 26 22  1  0
 27 24  2  0
M  END
$$$$
