VRD.pdb
     RDKit          3D

 27 26  0  0  1  0  0  0  0  0999 V2000
    7.4976  -12.0688   25.7996 C   0  0  0  0  0  0  0  0  0  0  0  0
    6.8531  -13.1203   26.7123 C   0  0  1  0  0  0  0  0  0  0  0  0
    6.0184  -12.4755   27.7743 C   0  0  0  0  0  0  0  0  0  0  0  0
    6.0680  -14.0399   25.8153 C   0  0  2  0  0  0  0  0  0  0  0  0
    5.5086  -15.1232   26.5969 N   0  0  0  0  0  0  0  0  0  0  0  0
    6.8516  -14.5990   24.7140 C   0  0  0  0  0  0  0  0  0  0  0  0
    7.4132  -15.7200   24.8626 O   0  0  0  0  0  0  0  0  0  0  0  0
    7.3844  -15.7310   17.4883 N   0  0  0  0  0  0  0  0  0  0  0  0
    8.1857  -14.7009   16.9285 C   0  0  0  0  0  0  0  0  0  0  0  0
    8.8802  -14.9504   15.8920 N   0  0  0  0  0  0  0  0  0  0  0  0
    8.1900  -13.4110   17.5454 N   0  0  0  0  0  0  0  0  0  0  0  0
    7.5112  -13.1943   18.8005 C   0  0  0  0  0  0  0  0  0  0  0  0
    8.1798  -14.0171   19.9120 C   0  0  0  0  0  0  0  0  0  0  0  0
    7.4092  -13.7829   21.1532 C   0  0  0  0  0  0  0  0  0  0  0  0
    7.8268  -14.5857   22.3617 C   0  0  2  0  0  0  0  0  0  0  0  0
    7.0442  -13.9831   23.4625 N   0  0  0  0  0  0  0  0  0  0  0  0
    9.2569  -14.5578   22.6701 C   0  0  0  0  0  0  0  0  0  0  0  0
    9.6314  -13.8289   23.6440 O   0  0  0  0  0  0  0  0  0  0  0  0
    9.4494  -14.1970   15.4543 N   0  0  0  0  0  0  0  0  0  0  0  0
   10.2641  -15.2743   21.9830 C   0  0  2  0  0  0  0  0  0  0  0  0
   11.4759  -15.7261   22.6977 C   0  0  0  0  0  0  0  0  0  0  0  0
   10.9880  -16.6958   23.7445 C   0  0  0  0  0  0  0  0  0  0  0  0
   12.0821  -17.3203   24.5066 O   0  0  0  0  0  0  0  0  0  0  0  0
   13.3008  -17.1239   24.3622 C   0  0  0  0  0  0  0  0  0  0  0  0
   12.2901  -16.4718   21.7134 O   0  0  0  0  0  0  0  0  0  0  0  0
   11.8514  -16.8192   20.4408 O   0  0  0  0  0  0  0  0  0  0  0  0
   11.6712  -18.2363   25.5018 O   0  0  0  0  0  0  0  0  0  0  0  0
  2  1  1  6
  3  2  1  0
  4  2  1  0
  4  5  1  1
  6  4  1  0
  6  7  2  0
  9  8  1  0
 10  9  2  0
 11  9  1  0
 12 13  1  0
 12 11  1  0
 13 14  1  0
 15 14  1  6
 15 16  1  0
 16  6  1  0
 17 15  1  0
 18 17  2  0
 19 17  1  0
 20 24  1  0
 20 19  1  0
 20 21  1  6
 22 21  1  0
 23 22  2  0
 24 25  1  0
 26 22  1  0
 27 24  2  0
M  END
$$$$
