VRD.pdb
     RDKit          3D

 27 26  0  0  1  0  0  0  0  0999 V2000
    8.8406  -13.4208   26.8429 C   0  0  0  0  0  0  0  0  0  0  0  0
    8.2115  -14.5134   27.7173 C   0  0  1  0  0  0  0  0  0  0  0  0
    7.7352  -13.9543   29.0215 C   0  0  0  0  0  0  0  0  0  0  0  0
    7.1108  -15.1338   26.8987 C   0  0  2  0  0  0  0  0  0  0  0  0
    6.5275  -16.2420   27.6259 N   0  0  0  0  0  0  0  0  0  0  0  0
    7.5471  -15.6011   25.5830 C   0  0  0  0  0  0  0  0  0  0  0  0
    8.0454  -16.7559   25.4719 O   0  0  0  0  0  0  0  0  0  0  0  0
    8.6536  -12.6207   18.4420 N   0  0  0  0  0  0  0  0  0  0  0  0
    7.9905  -13.6455   17.7162 C   0  0  0  0  0  0  0  0  0  0  0  0
    8.2302  -13.7793   16.4739 N   0  0  0  0  0  0  0  0  0  0  0  0
    7.0712  -14.4993   18.4021 N   0  0  0  0  0  0  0  0  0  0  0  0
    6.6886  -14.2226   19.7660 C   0  0  0  0  0  0  0  0  0  0  0  0
    7.8785  -14.4613   20.7076 C   0  0  0  0  0  0  0  0  0  0  0  0
    7.3610  -14.3932   22.0921 C   0  0  0  0  0  0  0  0  0  0  0  0
    8.0106  -15.3155   23.0955 C   0  0  2  0  0  0  0  0  0  0  0  0
    7.4601  -14.8585   24.3899 N   0  0  0  0  0  0  0  0  0  0  0  0
    9.4735  -15.2876   23.1184 C   0  0  0  0  0  0  0  0  0  0  0  0
   10.0325  -14.7286   24.1159 O   0  0  0  0  0  0  0  0  0  0  0  0
    7.6948  -14.4738   15.9133 N   0  0  0  0  0  0  0  0  0  0  0  0
   10.3254  -15.8318   22.1295 C   0  0  1  0  0  0  0  0  0  0  0  0
   11.7145  -16.2058   22.4672 C   0  0  0  0  0  0  0  0  0  0  0  0
   11.5980  -17.3616   23.4288 C   0  0  0  0  0  0  0  0  0  0  0  0
   12.6611  -17.3735   24.4474 O   0  0  0  0  0  0  0  0  0  0  0  0
   13.5843  -16.5512   24.5742 C   0  0  0  0  0  0  0  0  0  0  0  0
   12.3321  -16.6987   21.2168 O   0  0  0  0  0  0  0  0  0  0  0  0
   13.7002  -16.7004   20.9698 O   0  0  0  0  0  0  0  0  0  0  0  0
   12.5984  -18.4471   25.3649 O   0  0  0  0  0  0  0  0  0  0  0  0
  2  1  1  6
  3  2  1  0
  4  2  1  0
  4  5  1  1
  6  4  1  0
  6  7  2  0
  9  8  1  0
 10  9  2  0
 11  9  1  0
 12 13  1  0
 12 11  1  0
 13 14  1  0
 15 14  1  6
 15 16  1  0
 16  6  1  0
 17 15  1  0
 18 17  2  0
 19 17  1  0
 20 24  1  0
 20 19  1  0
 20 21  1  6
 22 21  1  0
 23 22  2  0
 24 25  1  0
 26 22  1  0
 27 24  2  0
M  END
$$$$
