VRD.pdb
     RDKit          3D

 27 26  0  0  1  0  0  0  0  0999 V2000
    7.7794  -12.2662   25.5363 C   0  0  0  0  0  0  0  0  0  0  0  0
    6.9322  -12.9466   26.6195 C   0  0  1  0  0  0  0  0  0  0  0  0
    6.0704  -11.9536   27.3349 C   0  0  0  0  0  0  0  0  0  0  0  0
    6.1454  -14.0284   25.9288 C   0  0  2  0  0  0  0  0  0  0  0  0
    5.3126  -14.7170   26.8929 N   0  0  0  0  0  0  0  0  0  0  0  0
    6.9778  -15.0071   25.2296 C   0  0  0  0  0  0  0  0  0  0  0  0
    7.4722  -15.9719   25.8769 O   0  0  0  0  0  0  0  0  0  0  0  0
    8.6142  -14.0884   16.8133 N   0  0  0  0  0  0  0  0  0  0  0  0
    8.5980  -13.3202   18.0075 C   0  0  0  0  0  0  0  0  0  0  0  0
    9.5498  -12.5068   18.2339 N   0  0  0  0  0  0  0  0  0  0  0  0
    7.5118  -13.4820   18.9233 N   0  0  0  0  0  0  0  0  0  0  0  0
    7.3476  -14.7131   19.6585 C   0  0  0  0  0  0  0  0  0  0  0  0
    7.9022  -14.5565   21.0823 C   0  0  0  0  0  0  0  0  0  0  0  0
    7.7799  -15.8730   21.7464 C   0  0  0  0  0  0  0  0  0  0  0  0
    8.1986  -15.9330   23.1958 C   0  0  2  0  0  0  0  0  0  0  0  0
    7.2891  -14.9722   23.8569 N   0  0  0  0  0  0  0  0  0  0  0  0
    9.5955  -15.5868   23.4603 C   0  0  0  0  0  0  0  0  0  0  0  0
    9.8276  -14.7834   24.4198 O   0  0  0  0  0  0  0  0  0  0  0  0
    9.5562  -11.9453   19.1101 N   0  0  0  0  0  0  0  0  0  0  0  0
   10.7157  -16.0699   22.7451 C   0  0  1  0  0  0  0  0  0  0  0  0
   11.9654  -16.4073   23.4580 C   0  0  0  0  0  0  0  0  0  0  0  0
   11.6793  -17.6979   24.1835 C   0  0  0  0  0  0  0  0  0  0  0  0
   12.0461  -17.6516   25.6087 O   0  0  0  0  0  0  0  0  0  0  0  0
   12.6108  -16.7190   26.2055 C   0  0  0  0  0  0  0  0  0  0  0  0
   12.9834  -16.6716   22.4179 O   0  0  0  0  0  0  0  0  0  0  0  0
   14.3337  -16.3696   22.5528 O   0  0  0  0  0  0  0  0  0  0  0  0
   11.7069  -18.8054   26.3516 O   0  0  0  0  0  0  0  0  0  0  0  0
  2  1  1  6
  3  2  1  0
  4  2  1  0
  4  5  1  1
  6  4  1  0
  6  7  2  0
  9  8  1  0
 10  9  2  0
 11  9  1  0
 12 13  1  0
 12 11  1  0
 13 14  1  0
 15 14  1  6
 15 16  1  0
 16  6  1  0
 17 15  1  0
 18 17  2  0
 19 17  1  0
 20 24  1  0
 20 19  1  0
 20 21  1  6
 22 21  1  0
 23 22  2  0
 24 25  1  0
 26 22  1  0
 27 24  2  0
M  END
$$$$
