VRD.pdb
     RDKit          3D

 27 26  0  0  1  0  0  0  0  0999 V2000
   11.9740  -21.7522   17.0001 C   0  0  0  0  0  0  0  0  0  0  0  0
   12.3498  -20.8794   18.2047 C   0  0  1  0  0  0  0  0  0  0  0  0
   13.8282  -20.8886   18.4386 C   0  0  0  0  0  0  0  0  0  0  0  0
   11.8005  -19.5060   17.9243 C   0  0  2  0  0  0  0  0  0  0  0  0
   12.4472  -18.9519   16.7530 N   0  0  0  0  0  0  0  0  0  0  0  0
   11.9502  -18.5726   19.0405 C   0  0  0  0  0  0  0  0  0  0  0  0
   12.9583  -17.8134   19.0796 O   0  0  0  0  0  0  0  0  0  0  0  0
    7.2072  -12.5137   21.4030 N   0  0  0  0  0  0  0  0  0  0  0  0
    7.6364  -12.8399   20.0892 C   0  0  0  0  0  0  0  0  0  0  0  0
    7.5327  -11.9675   19.1690 N   0  0  0  0  0  0  0  0  0  0  0  0
    8.1737  -14.1408   19.8367 N   0  0  0  0  0  0  0  0  0  0  0  0
    8.7323  -14.9264   20.9109 C   0  0  0  0  0  0  0  0  0  0  0  0
    9.0633  -16.3417   20.4139 C   0  0  0  0  0  0  0  0  0  0  0  0
    9.7880  -17.0298   21.5050 C   0  0  0  0  0  0  0  0  0  0  0  0
   11.2052  -17.4542   21.2035 C   0  0  2  0  0  0  0  0  0  0  0  0
   11.0450  -18.4376   20.1105 N   0  0  0  0  0  0  0  0  0  0  0  0
   11.9357  -18.0445   22.3256 C   0  0  0  0  0  0  0  0  0  0  0  0
   11.5213  -19.1629   22.7700 O   0  0  0  0  0  0  0  0  0  0  0  0
    7.9044  -12.1687   18.2179 N   0  0  0  0  0  0  0  0  0  0  0  0
   13.0679  -17.4836   22.9606 C   0  0  2  0  0  0  0  0  0  0  0  0
   13.7154  -18.1879   24.0868 C   0  0  0  0  0  0  0  0  0  0  0  0
   15.1702  -18.3029   23.7068 C   0  0  0  0  0  0  0  0  0  0  0  0
   15.7671  -17.0154   23.3146 O   0  0  0  0  0  0  0  0  0  0  0  0
   15.2236  -15.8982   23.3481 C   0  0  0  0  0  0  0  0  0  0  0  0
   13.6080  -17.2923   25.2592 O   0  0  0  0  0  0  0  0  0  0  0  0
   14.0303  -17.6294   26.5401 O   0  0  0  0  0  0  0  0  0  0  0  0
   17.1019  -17.0901   22.8552 O   0  0  0  0  0  0  0  0  0  0  0  0
  2  1  1  6
  3  2  1  0
  4  2  1  0
  4  5  1  6
  6  4  1  0
  6  7  2  0
  9  8  1  0
 10  9  2  0
 11  9  1  0
 12 13  1  0
 12 11  1  0
 13 14  1  0
 15 14  1  1
 15 16  1  0
 16  6  1  0
 17 15  1  0
 18 17  2  0
 19 17  1  0
 20 24  1  0
 20 19  1  0
 20 21  1  6
 22 21  1  0
 23 22  2  0
 24 25  1  0
 26 22  1  0
 27 24  2  0
M  END
$$$$
