VRD.pdb
     RDKit          3D

 27 26  0  0  1  0  0  0  0  0999 V2000
    6.5118  -11.2740   26.7257 C   0  0  0  0  0  0  0  0  0  0  0  0
    7.3120  -12.4769   26.2091 C   0  0  1  0  0  0  0  0  0  0  0  0
    8.1565  -13.0701   27.2932 C   0  0  0  0  0  0  0  0  0  0  0  0
    6.3085  -13.4443   25.6403 C   0  0  2  0  0  0  0  0  0  0  0  0
    5.4356  -13.9177   26.6944 N   0  0  0  0  0  0  0  0  0  0  0  0
    6.9139  -14.5935   24.9676 C   0  0  0  0  0  0  0  0  0  0  0  0
    6.9664  -15.7031   25.5679 O   0  0  0  0  0  0  0  0  0  0  0  0
    8.2721  -13.7192   17.0115 N   0  0  0  0  0  0  0  0  0  0  0  0
    8.5322  -13.1492   18.2859 C   0  0  0  0  0  0  0  0  0  0  0  0
    9.0102  -11.9720   18.3522 N   0  0  0  0  0  0  0  0  0  0  0  0
    8.2495  -13.9145   19.4603 N   0  0  0  0  0  0  0  0  0  0  0  0
    7.4302  -15.1004   19.3851 C   0  0  0  0  0  0  0  0  0  0  0  0
    7.1433  -15.6350   20.7962 C   0  0  0  0  0  0  0  0  0  0  0  0
    8.3303  -15.3354   21.6270 C   0  0  0  0  0  0  0  0  0  0  0  0
    8.2323  -15.6974   23.0895 C   0  0  2  0  0  0  0  0  0  0  0  0
    7.4616  -14.5769   23.6706 N   0  0  0  0  0  0  0  0  0  0  0  0
    9.5106  -15.8587   23.7831 C   0  0  0  0  0  0  0  0  0  0  0  0
   10.0453  -14.8138   24.2752 O   0  0  0  0  0  0  0  0  0  0  0  0
    9.2759  -11.5703   19.2748 N   0  0  0  0  0  0  0  0  0  0  0  0
   10.2061  -17.0772   23.9602 C   0  0  2  0  0  0  0  0  0  0  0  0
   11.5216  -17.0929   24.6330 C   0  0  0  0  0  0  0  0  0  0  0  0
   11.5762  -18.4016   25.3802 C   0  0  0  0  0  0  0  0  0  0  0  0
   12.8805  -18.6476   26.0176 O   0  0  0  0  0  0  0  0  0  0  0  0
   13.8776  -17.9062   25.9904 C   0  0  0  0  0  0  0  0  0  0  0  0
   12.5407  -17.1238   23.5613 O   0  0  0  0  0  0  0  0  0  0  0  0
   13.8856  -16.8296   23.7544 O   0  0  0  0  0  0  0  0  0  0  0  0
   12.9784  -19.8650   26.7294 O   0  0  0  0  0  0  0  0  0  0  0  0
  2  1  1  1
  3  2  1  0
  4  2  1  0
  4  5  1  1
  6  4  1  0
  6  7  2  0
  9  8  1  0
 10  9  2  0
 11  9  1  0
 12 13  1  0
 12 11  1  0
 13 14  1  0
 15 14  1  6
 15 16  1  0
 16  6  1  0
 17 15  1  0
 18 17  2  0
 19 17  1  0
 20 24  1  0
 20 19  1  0
 20 21  1  6
 22 21  1  0
 23 22  2  0
 24 25  1  0
 26 22  1  0
 27 24  2  0
M  END
$$$$
