SGS.pdb
     RDKit          3D

 17 16  0  0  1  0  0  0  0  0999 V2000
    3.1898  -18.0807   22.3049 O   0  0  0  0  0  0  0  0  0  0  0  0
    2.9914  -18.6783   21.0482 C   0  0  0  0  0  0  0  0  0  0  0  0
    4.3622  -18.9227   20.4674 C   0  0  2  0  0  0  0  0  0  0  0  0
    5.0610  -19.8230   21.3315 N   0  0  0  0  0  0  0  0  0  0  0  0
    5.1037  -17.6691   20.2019 C   0  0  0  0  0  0  0  0  0  0  0  0
    4.7427  -16.9395   19.2454 O   0  0  0  0  0  0  0  0  0  0  0  0
    6.2143  -17.2424   20.9796 N   0  0  0  0  0  0  0  0  0  0  0  0
    6.9231  -15.9990   20.7800 C   0  0  0  0  0  0  0  0  0  0  0  0
    8.0362  -15.7585   21.6922 C   0  0  0  0  0  0  0  0  0  0  0  0
    8.7135  -14.7013   21.5690 O   0  0  0  0  0  0  0  0  0  0  0  0
    7.7919  -14.7889   25.8334 O   0  0  0  0  0  0  0  0  0  0  0  0
    7.5314  -15.3761   24.5936 C   0  0  0  0  0  0  0  0  0  0  0  0
    8.7280  -16.1394   24.0772 C   0  0  2  0  0  0  0  0  0  0  0  0
    8.4257  -16.6376   22.7243 N   0  0  0  0  0  0  0  0  0  0  0  0
    9.0911  -17.2661   24.9712 C   0  0  0  0  0  0  0  0  0  0  0  0
    8.3930  -18.3012   25.1147 O   0  0  0  0  0  0  0  0  0  0  0  0
   10.2715  -17.1700   25.6910 O   0  0  0  0  0  0  0  0  0  0  0  0
  2  3  1  0
  2  1  1  0
  3  4  1  1
  5  7  1  0
  5  3  1  0
  6  5  2  0
  8  9  1  0
  8  7  1  0
  9 10  2  0
 11 12  1  0
 13 12  1  1
 14 13  1  0
 14  9  1  0
 15 13  1  0
 15 17  1  0
 16 15  2  0
M  END
$$$$
