SGS.pdb
     RDKit          3D

 17 16  0  0  1  0  0  0  0  0999 V2000
    8.7676  -19.2503   16.8982 O   0  0  0  0  0  0  0  0  0  0  0  0
    7.5620  -19.0418   17.5901 C   0  0  0  0  0  0  0  0  0  0  0  0
    7.9351  -18.5231   18.9567 C   0  0  2  0  0  0  0  0  0  0  0  0
    8.6170  -17.2767   18.7923 N   0  0  0  0  0  0  0  0  0  0  0  0
    8.6982  -19.5091   19.7551 C   0  0  0  0  0  0  0  0  0  0  0  0
    8.2877  -20.6948   19.8116 O   0  0  0  0  0  0  0  0  0  0  0  0
    9.8833  -19.1825   20.4686 N   0  0  0  0  0  0  0  0  0  0  0  0
   10.8570  -18.2070   20.0343 C   0  0  0  0  0  0  0  0  0  0  0  0
   11.4168  -17.3678   21.0884 C   0  0  0  0  0  0  0  0  0  0  0  0
   12.5819  -16.9041   20.9503 O   0  0  0  0  0  0  0  0  0  0  0  0
    9.3305  -16.1471   24.5760 O   0  0  0  0  0  0  0  0  0  0  0  0
   10.2441  -15.3159   23.9248 C   0  0  0  0  0  0  0  0  0  0  0  0
   11.3447  -16.1101   23.2622 C   0  0  2  0  0  0  0  0  0  0  0  0
   10.7425  -17.0280   22.2799 N   0  0  0  0  0  0  0  0  0  0  0  0
   12.1485  -16.8696   24.2508 C   0  0  0  0  0  0  0  0  0  0  0  0
   12.1660  -18.1240   24.3260 O   0  0  0  0  0  0  0  0  0  0  0  0
   12.9267  -16.1513   25.1448 O   0  0  0  0  0  0  0  0  0  0  0  0
  2  3  1  0
  2  1  1  0
  3  4  1  6
  5  7  1  0
  5  3  1  0
  6  5  2  0
  8  9  1  0
  8  7  1  0
  9 10  2  0
 11 12  1  0
 13 12  1  1
 14 13  1  0
 14  9  1  0
 15 13  1  0
 15 17  1  0
 16 15  2  0
M  END
$$$$
