SGS.pdb
     RDKit          3D

 17 16  0  0  1  0  0  0  0  0999 V2000
    8.6595  -12.8146   18.4040 O   0  0  0  0  0  0  0  0  0  0  0  0
    7.7854  -13.7749   17.8659 C   0  0  0  0  0  0  0  0  0  0  0  0
    7.0556  -14.3933   19.0325 C   0  0  2  0  0  0  0  0  0  0  0  0
    6.4344  -13.3438   19.7798 N   0  0  0  0  0  0  0  0  0  0  0  0
    7.9248  -15.2648   19.8552 C   0  0  0  0  0  0  0  0  0  0  0  0
    8.6963  -16.0720   19.2800 O   0  0  0  0  0  0  0  0  0  0  0  0
    7.9332  -15.2368   21.2762 N   0  0  0  0  0  0  0  0  0  0  0  0
    8.9443  -15.8583   22.1006 C   0  0  0  0  0  0  0  0  0  0  0  0
    8.8046  -15.6391   23.5362 C   0  0  0  0  0  0  0  0  0  0  0  0
    8.2856  -14.5645   23.9456 O   0  0  0  0  0  0  0  0  0  0  0  0
    6.8786  -17.7017   25.8534 O   0  0  0  0  0  0  0  0  0  0  0  0
    7.3666  -16.4150   26.0898 C   0  0  0  0  0  0  0  0  0  0  0  0
    8.8686  -16.3541   25.9439 C   0  0  2  0  0  0  0  0  0  0  0  0
    9.2166  -16.5550   24.5267 N   0  0  0  0  0  0  0  0  0  0  0  0
    9.5462  -17.3676   26.7889 C   0  0  0  0  0  0  0  0  0  0  0  0
    9.4131  -17.4438   28.0363 O   0  0  0  0  0  0  0  0  0  0  0  0
   10.3757  -18.2851   26.1638 O   0  0  0  0  0  0  0  0  0  0  0  0
  2  3  1  0
  2  1  1  0
  3  4  1  1
  5  7  1  0
  5  3  1  0
  6  5  2  0
  8  9  1  0
  8  7  1  0
  9 10  2  0
 11 12  1  0
 13 12  1  6
 14 13  1  0
 14  9  1  0
 15 13  1  0
 15 17  1  0
 16 15  2  0
M  END
$$$$
