SGS.pdb
     RDKit          3D

 17 16  0  0  1  0  0  0  0  0999 V2000
    8.4658  -18.4196   18.6173 O   0  0  0  0  0  0  0  0  0  0  0  0
    7.7635  -17.7799   19.6533 C   0  0  0  0  0  0  0  0  0  0  0  0
    8.5449  -16.5363   19.9981 C   0  0  2  0  0  0  0  0  0  0  0  0
    9.9300  -16.8845   20.0753 N   0  0  0  0  0  0  0  0  0  0  0  0
    8.0403  -15.8617   21.2155 C   0  0  0  0  0  0  0  0  0  0  0  0
    6.8542  -15.4489   21.2351 O   0  0  0  0  0  0  0  0  0  0  0  0
    8.8345  -15.6538   22.3757 N   0  0  0  0  0  0  0  0  0  0  0  0
    8.3675  -15.0094   23.5819 C   0  0  0  0  0  0  0  0  0  0  0  0
    9.3168  -14.9890   24.6897 C   0  0  0  0  0  0  0  0  0  0  0  0
   10.3930  -15.6393   24.5880 O   0  0  0  0  0  0  0  0  0  0  0  0
    8.5719  -12.9302   28.1701 O   0  0  0  0  0  0  0  0  0  0  0  0
    9.9197  -13.0508   27.8256 C   0  0  0  0  0  0  0  0  0  0  0  0
   10.1618  -14.2475   26.9365 C   0  0  2  0  0  0  0  0  0  0  0  0
    9.1200  -14.2844   25.8958 N   0  0  0  0  0  0  0  0  0  0  0  0
   10.1647  -15.5151   27.7070 C   0  0  0  0  0  0  0  0  0  0  0  0
    9.2978  -16.4160   27.5793 O   0  0  0  0  0  0  0  0  0  0  0  0
   11.1856  -15.7167   28.6223 O   0  0  0  0  0  0  0  0  0  0  0  0
  2  3  1  0
  2  1  1  0
  3  4  1  1
  5  7  1  0
  5  3  1  0
  6  5  2  0
  8  9  1  0
  8  7  1  0
  9 10  2  0
 11 12  1  0
 13 12  1  1
 14 13  1  0
 14  9  1  0
 15 13  1  0
 15 17  1  0
 16 15  2  0
M  END
$$$$
