SGS.pdb
     RDKit          3D

 17 16  0  0  1  0  0  0  0  0999 V2000
   -2.2692  -29.1250   28.2896 O   0  0  0  0  0  0  0  0  0  0  0  0
   -3.1403  -28.0221   28.3142 C   0  0  0  0  0  0  0  0  0  0  0  0
   -3.5420  -27.7598   26.8840 C   0  0  2  0  0  0  0  0  0  0  0  0
   -2.3540  -27.5447   26.1171 N   0  0  0  0  0  0  0  0  0  0  0  0
   -4.5289  -26.6634   26.7579 C   0  0  0  0  0  0  0  0  0  0  0  0
   -4.1410  -25.5389   26.3545 O   0  0  0  0  0  0  0  0  0  0  0  0
   -5.9065  -26.8166   27.0722 N   0  0  0  0  0  0  0  0  0  0  0  0
   -6.8918  -25.7649   26.9651 C   0  0  0  0  0  0  0  0  0  0  0  0
   -7.0865  -24.9633   28.1685 C   0  0  0  0  0  0  0  0  0  0  0  0
   -6.7273  -25.4321   29.2833 O   0  0  0  0  0  0  0  0  0  0  0  0
   -7.3640  -20.6907   30.3052 O   0  0  0  0  0  0  0  0  0  0  0  0
   -7.2397  -21.5010   29.1748 C   0  0  0  0  0  0  0  0  0  0  0  0
   -7.7555  -22.8971   29.4317 C   0  0  2  0  0  0  0  0  0  0  0  0
   -7.6612  -23.6752   28.1844 N   0  0  0  0  0  0  0  0  0  0  0  0
   -9.1538  -22.8859   29.9267 C   0  0  0  0  0  0  0  0  0  0  0  0
  -10.1624  -22.9822   29.1831 O   0  0  0  0  0  0  0  0  0  0  0  0
   -9.3588  -22.7615   31.2917 O   0  0  0  0  0  0  0  0  0  0  0  0
  2  3  1  0
  2  1  1  0
  3  4  1  6
  5  7  1  0
  5  3  1  0
  6  5  2  0
  8  9  1  0
  8  7  1  0
  9 10  2  0
 11 12  1  0
 13 12  1  6
 14 13  1  0
 14  9  1  0
 15 13  1  0
 15 17  1  0
 16 15  2  0
M  END
$$$$
