SGS.pdb
     RDKit          3D

 17 16  0  0  1  0  0  0  0  0999 V2000
    7.8950  -18.5591   19.7598 O   0  0  0  0  0  0  0  0  0  0  0  0
    7.0394  -17.4593   19.5750 C   0  0  0  0  0  0  0  0  0  0  0  0
    7.9223  -16.2742   19.2718 C   0  0  2  0  0  0  0  0  0  0  0  0
    8.6040  -16.5267   18.0401 N   0  0  0  0  0  0  0  0  0  0  0  0
    8.8335  -15.9378   20.3890 C   0  0  0  0  0  0  0  0  0  0  0  0
   10.0675  -16.1229   20.2447 O   0  0  0  0  0  0  0  0  0  0  0  0
    8.3823  -15.4110   21.6296 N   0  0  0  0  0  0  0  0  0  0  0  0
    9.2522  -14.9675   22.6948 C   0  0  0  0  0  0  0  0  0  0  0  0
   10.0648  -16.0085   23.3151 C   0  0  0  0  0  0  0  0  0  0  0  0
    9.7023  -17.2126   23.2134 O   0  0  0  0  0  0  0  0  0  0  0  0
   13.9443  -16.0953   23.4195 O   0  0  0  0  0  0  0  0  0  0  0  0
   13.4789  -16.4877   24.6762 C   0  0  0  0  0  0  0  0  0  0  0  0
   12.0200  -16.8761   24.6328 C   0  0  2  0  0  0  0  0  0  0  0  0
   11.2512  -15.7685   24.0395 N   0  0  0  0  0  0  0  0  0  0  0  0
   11.4959  -17.2018   25.9817 C   0  0  0  0  0  0  0  0  0  0  0  0
   11.9008  -18.1665   26.6779 O   0  0  0  0  0  0  0  0  0  0  0  0
   10.4997  -16.3925   26.5045 O   0  0  0  0  0  0  0  0  0  0  0  0
  2  3  1  0
  2  1  1  0
  3  4  1  6
  5  7  1  0
  5  3  1  0
  6  5  2  0
  8  9  1  0
  8  7  1  0
  9 10  2  0
 11 12  1  0
 13 12  1  1
 14 13  1  0
 14  9  1  0
 15 13  1  0
 15 17  1  0
 16 15  2  0
M  END
$$$$
