SGS.pdb
     RDKit          3D

 17 16  0  0  1  0  0  0  0  0999 V2000
    8.0900  -13.6318   15.1085 O   0  0  0  0  0  0  0  0  0  0  0  0
    7.5332  -13.8936   16.3723 C   0  0  0  0  0  0  0  0  0  0  0  0
    8.1595  -15.1763   16.8605 C   0  0  2  0  0  0  0  0  0  0  0  0
    8.0222  -16.1615   15.8328 N   0  0  0  0  0  0  0  0  0  0  0  0
    7.6232  -15.6141   18.1691 C   0  0  0  0  0  0  0  0  0  0  0  0
    6.5767  -16.3082   18.1964 O   0  0  0  0  0  0  0  0  0  0  0  0
    8.2354  -15.2876   19.4096 N   0  0  0  0  0  0  0  0  0  0  0  0
    7.7217  -15.6773   20.7029 C   0  0  0  0  0  0  0  0  0  0  0  0
    8.4472  -15.1457   21.8517 C   0  0  0  0  0  0  0  0  0  0  0  0
    9.5210  -14.5119   21.6601 O   0  0  0  0  0  0  0  0  0  0  0  0
    6.7160  -14.4649   25.4646 O   0  0  0  0  0  0  0  0  0  0  0  0
    7.8931  -13.8052   25.1056 C   0  0  0  0  0  0  0  0  0  0  0  0
    8.8061  -14.6965   24.2974 C   0  0  2  0  0  0  0  0  0  0  0  0
    8.0338  -15.2905   23.1926 N   0  0  0  0  0  0  0  0  0  0  0  0
    9.4154  -15.7620   25.1304 C   0  0  0  0  0  0  0  0  0  0  0  0
    9.1250  -16.9809   25.0336 O   0  0  0  0  0  0  0  0  0  0  0  0
   10.3619  -15.3894   26.0717 O   0  0  0  0  0  0  0  0  0  0  0  0
  2  3  1  0
  2  1  1  0
  3  4  1  6
  5  7  1  0
  5  3  1  0
  6  5  2  0
  8  9  1  0
  8  7  1  0
  9 10  2  0
 11 12  1  0
 13 12  1  1
 14 13  1  0
 14  9  1  0
 15 13  1  0
 15 17  1  0
 16 15  2  0
M  END
$$$$
