SGS.pdb
     RDKit          3D

 17 16  0  0  1  0  0  0  0  0999 V2000
   -0.7363  -24.9167   24.8102 O   0  0  0  0  0  0  0  0  0  0  0  0
    0.4690  -25.5973   25.0548 C   0  0  0  0  0  0  0  0  0  0  0  0
    1.3349  -25.3889   23.8371 C   0  0  2  0  0  0  0  0  0  0  0  0
    2.4531  -26.2763   23.9252 N   0  0  0  0  0  0  0  0  0  0  0  0
    1.7226  -23.9730   23.6453 C   0  0  0  0  0  0  0  0  0  0  0  0
    1.0784  -23.2712   22.8268 O   0  0  0  0  0  0  0  0  0  0  0  0
    2.7962  -23.3586   24.3453 N   0  0  0  0  0  0  0  0  0  0  0  0
    3.1725  -21.9699   24.2101 C   0  0  0  0  0  0  0  0  0  0  0  0
    4.2481  -21.7013   23.2616 C   0  0  0  0  0  0  0  0  0  0  0  0
    4.6954  -22.6471   22.5566 O   0  0  0  0  0  0  0  0  0  0  0  0
    4.4060  -18.7423   20.8861 O   0  0  0  0  0  0  0  0  0  0  0  0
    5.6919  -18.8801   21.4124 C   0  0  0  0  0  0  0  0  0  0  0  0
    5.8897  -20.2344   22.0509 C   0  0  2  0  0  0  0  0  0  0  0  0
    4.8435  -20.4373   23.0679 N   0  0  0  0  0  0  0  0  0  0  0  0
    7.2346  -20.3643   22.6631 C   0  0  0  0  0  0  0  0  0  0  0  0
    7.4375  -20.4460   23.9007 O   0  0  0  0  0  0  0  0  0  0  0  0
    8.3326  -20.3976   21.8181 O   0  0  0  0  0  0  0  0  0  0  0  0
  2  3  1  0
  2  1  1  0
  3  4  1  1
  5  7  1  0
  5  3  1  0
  6  5  2  0
  8  9  1  0
  8  7  1  0
  9 10  2  0
 11 12  1  0
 13 12  1  1
 14 13  1  0
 14  9  1  0
 15 13  1  0
 15 17  1  0
 16 15  2  0
M  END
$$$$
