SGS.pdb
     RDKit          3D

 17 16  0  0  1  0  0  0  0  0999 V2000
    9.0026  -15.4584   18.3473 O   0  0  0  0  0  0  0  0  0  0  0  0
    8.3429  -14.3881   17.7187 C   0  0  0  0  0  0  0  0  0  0  0  0
    8.3534  -13.2416   18.6992 C   0  0  2  0  0  0  0  0  0  0  0  0
    9.7135  -12.9448   19.0272 N   0  0  0  0  0  0  0  0  0  0  0  0
    7.5050  -13.4947   19.8858 C   0  0  0  0  0  0  0  0  0  0  0  0
    6.2838  -13.7374   19.7202 O   0  0  0  0  0  0  0  0  0  0  0  0
    8.0036  -13.4776   21.2167 N   0  0  0  0  0  0  0  0  0  0  0  0
    7.2303  -13.8334   22.3845 C   0  0  0  0  0  0  0  0  0  0  0  0
    7.9655  -13.8416   23.6447 C   0  0  0  0  0  0  0  0  0  0  0  0
    9.2048  -14.0770   23.6309 O   0  0  0  0  0  0  0  0  0  0  0  0
    6.9234  -11.6118   26.7685 O   0  0  0  0  0  0  0  0  0  0  0  0
    7.4254  -12.8377   27.2097 C   0  0  0  0  0  0  0  0  0  0  0  0
    8.2102  -13.5397   26.1268 C   0  0  2  0  0  0  0  0  0  0  0  0
    7.3852  -13.6039   24.9082 N   0  0  0  0  0  0  0  0  0  0  0  0
    8.6234  -14.9028   26.5410 C   0  0  0  0  0  0  0  0  0  0  0  0
    8.1824  -15.9583   26.0206 O   0  0  0  0  0  0  0  0  0  0  0  0
    9.5517  -15.0178   27.5636 O   0  0  0  0  0  0  0  0  0  0  0  0
  2  3  1  0
  2  1  1  0
  3  4  1  1
  5  7  1  0
  5  3  1  0
  6  5  2  0
  8  9  1  0
  8  7  1  0
  9 10  2  0
 11 12  1  0
 13 12  1  1
 14 13  1  0
 14  9  1  0
 15 13  1  0
 15 17  1  0
 16 15  2  0
M  END
$$$$
