SGS.pdb
     RDKit          3D

 17 16  0  0  1  0  0  0  0  0999 V2000
    3.4268  -22.4514   21.5013 O   0  0  0  0  0  0  0  0  0  0  0  0
    3.6529  -21.6294   20.3837 C   0  0  0  0  0  0  0  0  0  0  0  0
    4.9754  -20.9417   20.6165 C   0  0  2  0  0  0  0  0  0  0  0  0
    5.9883  -21.9451   20.7301 N   0  0  0  0  0  0  0  0  0  0  0  0
    4.9416  -20.0088   21.7656 C   0  0  0  0  0  0  0  0  0  0  0  0
    4.2871  -18.9416   21.6639 O   0  0  0  0  0  0  0  0  0  0  0  0
    5.6172  -20.2586   22.9908 N   0  0  0  0  0  0  0  0  0  0  0  0
    5.5477  -19.4021   24.1527 C   0  0  0  0  0  0  0  0  0  0  0  0
    6.8100  -18.7939   24.5596 C   0  0  0  0  0  0  0  0  0  0  0  0
    7.8757  -19.1486   23.9852 O   0  0  0  0  0  0  0  0  0  0  0  0
    7.3792  -15.0614   25.2981 O   0  0  0  0  0  0  0  0  0  0  0  0
    8.0355  -15.7822   26.2978 C   0  0  0  0  0  0  0  0  0  0  0  0
    8.2430  -17.2241   25.8990 C   0  0  2  0  0  0  0  0  0  0  0  0
    6.9359  -17.8190   25.5713 N   0  0  0  0  0  0  0  0  0  0  0  0
    8.9081  -18.0026   26.9723 C   0  0  0  0  0  0  0  0  0  0  0  0
    8.3540  -18.9319   27.6117 O   0  0  0  0  0  0  0  0  0  0  0  0
   10.2197  -17.6850   27.2879 O   0  0  0  0  0  0  0  0  0  0  0  0
  2  3  1  0
  2  1  1  0
  3  4  1  1
  5  7  1  0
  5  3  1  0
  6  5  2  0
  8  9  1  0
  8  7  1  0
  9 10  2  0
 11 12  1  0
 13 12  1  1
 14 13  1  0
 14  9  1  0
 15 13  1  0
 15 17  1  0
 16 15  2  0
M  END
$$$$
