SGS.pdb
     RDKit          3D

 17 16  0  0  1  0  0  0  0  0999 V2000
    3.9898  -15.7180   12.2602 O   0  0  0  0  0  0  0  0  0  0  0  0
    4.6693  -16.6152   11.4181 C   0  0  0  0  0  0  0  0  0  0  0  0
    5.2480  -17.6863   12.3091 C   0  0  2  0  0  0  0  0  0  0  0  0
    4.1656  -18.3997   12.9133 N   0  0  0  0  0  0  0  0  0  0  0  0
    6.2195  -17.1522   13.2902 C   0  0  0  0  0  0  0  0  0  0  0  0
    7.2610  -16.5892   12.8707 O   0  0  0  0  0  0  0  0  0  0  0  0
    6.0351  -17.2434   14.6966 N   0  0  0  0  0  0  0  0  0  0  0  0
    6.9613  -16.7267   15.6782 C   0  0  0  0  0  0  0  0  0  0  0  0
    8.0742  -17.6080   16.0150 C   0  0  0  0  0  0  0  0  0  0  0  0
    8.1036  -18.7725   15.5305 O   0  0  0  0  0  0  0  0  0  0  0  0
   11.8729  -17.0960   15.9153 O   0  0  0  0  0  0  0  0  0  0  0  0
   11.5315  -17.5248   17.1995 C   0  0  0  0  0  0  0  0  0  0  0  0
   10.1935  -18.2251   17.2150 C   0  0  2  0  0  0  0  0  0  0  0  0
    9.1445  -17.2529   16.8624 N   0  0  0  0  0  0  0  0  0  0  0  0
    9.9061  -18.8358   18.5359 C   0  0  0  0  0  0  0  0  0  0  0  0
    8.9797  -18.4587   19.2969 O   0  0  0  0  0  0  0  0  0  0  0  0
   10.7082  -19.8855   18.9548 O   0  0  0  0  0  0  0  0  0  0  0  0
  2  3  1  0
  2  1  1  0
  3  4  1  1
  5  7  1  0
  5  3  1  0
  6  5  2  0
  8  9  1  0
  8  7  1  0
  9 10  2  0
 11 12  1  0
 13 12  1  1
 14 13  1  0
 14  9  1  0
 15 13  1  0
 15 17  1  0
 16 15  2  0
M  END
$$$$
