SGS.pdb
     RDKit          3D

 17 16  0  0  1  0  0  0  0  0999 V2000
    4.1470  -21.6834   20.7943 O   0  0  0  0  0  0  0  0  0  0  0  0
    3.3079  -21.1136   19.8211 C   0  0  0  0  0  0  0  0  0  0  0  0
    3.9160  -19.7822   19.4556 C   0  0  2  0  0  0  0  0  0  0  0  0
    5.2372  -20.0141   18.9593 N   0  0  0  0  0  0  0  0  0  0  0  0
    3.8695  -18.8064   20.5680 C   0  0  0  0  0  0  0  0  0  0  0  0
    2.7542  -18.4787   21.0437 O   0  0  0  0  0  0  0  0  0  0  0  0
    5.0316  -18.2141   21.1327 N   0  0  0  0  0  0  0  0  0  0  0  0
    5.0154  -17.2106   22.1723 C   0  0  0  0  0  0  0  0  0  0  0  0
    6.3257  -16.7566   22.6259 C   0  0  0  0  0  0  0  0  0  0  0  0
    7.3591  -17.3441   22.2035 O   0  0  0  0  0  0  0  0  0  0  0  0
    7.3429  -12.9375   23.6090 O   0  0  0  0  0  0  0  0  0  0  0  0
    7.8149  -13.8854   24.5192 C   0  0  0  0  0  0  0  0  0  0  0  0
    7.8913  -15.2611   23.9005 C   0  0  2  0  0  0  0  0  0  0  0  0
    6.5329  -15.6883   23.5234 N   0  0  0  0  0  0  0  0  0  0  0  0
    8.5034  -16.2477   24.8237 C   0  0  0  0  0  0  0  0  0  0  0  0
    7.8558  -17.1395   25.4276 O   0  0  0  0  0  0  0  0  0  0  0  0
    9.8719  -16.1806   25.0320 O   0  0  0  0  0  0  0  0  0  0  0  0
  2  3  1  0
  2  1  1  0
  3  4  1  1
  5  7  1  0
  5  3  1  0
  6  5  2  0
  8  9  1  0
  8  7  1  0
  9 10  2  0
 11 12  1  0
 13 12  1  1
 14 13  1  0
 14  9  1  0
 15 13  1  0
 15 17  1  0
 16 15  2  0
M  END
$$$$
