SGS.pdb
     RDKit          3D

 17 16  0  0  1  0  0  0  0  0999 V2000
    8.1954  -18.1879   19.7430 O   0  0  0  0  0  0  0  0  0  0  0  0
    8.9113  -17.0984   19.2175 C   0  0  0  0  0  0  0  0  0  0  0  0
    9.5546  -16.4010   20.3904 C   0  0  2  0  0  0  0  0  0  0  0  0
   10.4386  -17.3248   21.0313 N   0  0  0  0  0  0  0  0  0  0  0  0
    8.5648  -15.7994   21.3125 C   0  0  0  0  0  0  0  0  0  0  0  0
    7.8264  -14.8739   20.8931 O   0  0  0  0  0  0  0  0  0  0  0  0
    8.4035  -16.2174   22.6613 N   0  0  0  0  0  0  0  0  0  0  0  0
    7.4024  -15.6976   23.5646 C   0  0  0  0  0  0  0  0  0  0  0  0
    7.8826  -14.7243   24.5398 C   0  0  0  0  0  0  0  0  0  0  0  0
    9.1125  -14.4456   24.5746 O   0  0  0  0  0  0  0  0  0  0  0  0
    5.7567  -11.5992   26.0111 O   0  0  0  0  0  0  0  0  0  0  0  0
    6.4849  -12.2630   27.0004 C   0  0  0  0  0  0  0  0  0  0  0  0
    7.6184  -13.0685   26.4108 C   0  0  2  0  0  0  0  0  0  0  0  0
    7.0604  -14.0563   25.4712 N   0  0  0  0  0  0  0  0  0  0  0  0
    8.4151  -13.7496   27.4604 C   0  0  0  0  0  0  0  0  0  0  0  0
    8.5447  -14.9968   27.5446 O   0  0  0  0  0  0  0  0  0  0  0  0
    9.0544  -12.9618   28.4045 O   0  0  0  0  0  0  0  0  0  0  0  0
  2  3  1  0
  2  1  1  0
  3  4  1  1
  5  7  1  0
  5  3  1  0
  6  5  2  0
  8  9  1  0
  8  7  1  0
  9 10  2  0
 11 12  1  0
 13 12  1  1
 14 13  1  0
 14  9  1  0
 15 13  1  0
 15 17  1  0
 16 15  2  0
M  END
$$$$
