SGS.pdb
     RDKit          3D

 17 16  0  0  1  0  0  0  0  0999 V2000
   -1.7041  -28.4678   24.4747 O   0  0  0  0  0  0  0  0  0  0  0  0
   -2.3737  -28.2724   25.6950 C   0  0  0  0  0  0  0  0  0  0  0  0
   -2.7162  -26.8050   25.7672 C   0  0  2  0  0  0  0  0  0  0  0  0
   -1.5155  -26.0775   26.0404 N   0  0  0  0  0  0  0  0  0  0  0  0
   -3.8076  -26.5178   26.7253 C   0  0  0  0  0  0  0  0  0  0  0  0
   -4.9624  -26.9458   26.4785 O   0  0  0  0  0  0  0  0  0  0  0  0
   -3.6169  -25.7758   27.9225 N   0  0  0  0  0  0  0  0  0  0  0  0
   -4.6709  -25.4358   28.8509 C   0  0  0  0  0  0  0  0  0  0  0  0
   -5.2748  -24.1215   28.6599 C   0  0  0  0  0  0  0  0  0  0  0  0
   -4.8428  -23.3753   27.7389 O   0  0  0  0  0  0  0  0  0  0  0  0
   -9.0061  -23.4322   28.4635 O   0  0  0  0  0  0  0  0  0  0  0  0
   -8.0016  -22.5639   28.0314 C   0  0  0  0  0  0  0  0  0  0  0  0
   -6.9716  -22.3241   29.1097 C   0  0  2  0  0  0  0  0  0  0  0  0
   -6.3275  -23.6058   29.4446 N   0  0  0  0  0  0  0  0  0  0  0  0
   -7.5738  -21.7185   30.3225 C   0  0  0  0  0  0  0  0  0  0  0  0
   -7.7204  -22.3273   31.4122 O   0  0  0  0  0  0  0  0  0  0  0  0
   -8.0000  -20.4019   30.2481 O   0  0  0  0  0  0  0  0  0  0  0  0
  2  3  1  0
  2  1  1  0
  3  4  1  1
  5  7  1  0
  5  3  1  0
  6  5  2  0
  8  9  1  0
  8  7  1  0
  9 10  2  0
 11 12  1  0
 13 12  1  6
 14 13  1  0
 14  9  1  0
 15 13  1  0
 15 17  1  0
 16 15  2  0
M  END
$$$$
