KFP.pdb
     RDKit          3D

 28 29  0  0  1  0  0  0  0  0999 V2000
   20.3456  -20.1540  -12.5774 N   0  0  0  0  0  0  0  0  0  0  0  0
   21.3358  -20.8535  -13.3957 C   0  0  1  0  0  0  0  0  0  0  0  0
   21.1607  -20.3205  -14.7981 C   0  0  0  0  0  0  0  0  0  0  0  0
   21.0364  -21.3875  -15.8419 C   0  0  0  0  0  0  0  0  0  0  0  0
   20.4401  -22.6137  -15.1548 C   0  0  0  0  0  0  0  0  0  0  0  0
   20.3068  -23.7454  -16.1483 C   0  0  0  0  0  0  0  0  0  0  0  0
   19.8268  -24.9134  -15.4589 N   0  0  0  0  0  0  0  0  0  0  0  0
   22.6678  -20.5403  -12.8447 C   0  0  0  0  0  0  0  0  0  0  0  0
   23.0098  -19.3376  -12.6041 O   0  0  0  0  0  0  0  0  0  0  0  0
   23.6581  -21.5445  -12.5439 N   0  0  0  0  0  0  0  0  0  0  0  0
   24.9666  -21.2065  -12.0899 C   0  0  1  0  0  0  0  0  0  0  0  0
   25.3877  -22.0084  -10.8719 C   0  0  0  0  0  0  0  0  0  0  0  0
   26.4036  -21.3075  -10.0603 C   0  0  0  0  0  0  0  0  0  0  0  0
   26.0905  -20.3567   -9.1154 C   0  0  0  0  0  0  0  0  0  0  0  0
   27.0694  -19.7164   -8.3693 C   0  0  0  0  0  0  0  0  0  0  0  0
   28.4012  -20.0163   -8.5535 C   0  0  0  0  0  0  0  0  0  0  0  0
   28.7262  -20.9642   -9.4943 C   0  0  0  0  0  0  0  0  0  0  0  0
   27.7408  -21.5867  -10.2228 C   0  0  0  0  0  0  0  0  0  0  0  0
   26.0277  -21.1376  -13.1003 C   0  0  0  0  0  0  0  0  0  0  0  0
   26.2489  -22.2551  -13.7181 O   0  0  0  0  0  0  0  0  0  0  0  0
   26.8255  -20.0527  -13.4843 N   0  0  0  0  0  0  0  0  0  0  0  0
   26.9413  -18.7754  -12.8534 C   0  0  0  0  0  0  0  0  0  0  0  0
   27.4924  -17.8752  -13.9726 C   0  0  0  0  0  0  0  0  0  0  0  0
   28.5030  -18.7955  -14.6097 C   0  0  0  0  0  0  0  0  0  0  0  0
   27.7222  -20.0926  -14.6525 C   0  0  1  0  0  0  0  0  0  0  0  0
   28.6593  -21.2182  -14.5804 C   0  0  0  0  0  0  0  0  0  0  0  0
   28.8051  -21.8719  -13.5327 O   0  0  0  0  0  0  0  0  0  0  0  0
   29.3930  -21.5555  -15.7018 O   0  0  0  0  0  0  0  0  0  0  0  0
  2  1  1  1
  2  3  1  0
  4  5  1  0
  4  3  1  0
  6  5  1  0
  7  6  1  0
  8  9  2  0
  8  2  1  0
 10  8  1  0
 11 10  1  0
 12 13  1  0
 11 12  1  1
 13 14  2  0
 14 15  1  0
 16 15  2  0
 17 16  1  0
 18 13  1  0
 18 17  2  0
 19 20  2  0
 19 11  1  0
 21 19  1  0
 22 21  1  0
 23 24  1  0
 23 22  1  0
 24 25  1  0
 25 21  1  0
 25 26  1  1
 27 26  2  0
 28 26  1  0
M  END
$$$$
