KFP.pdb
     RDKit          3D

 28 29  0  0  1  0  0  0  0  0999 V2000
   26.2139  -21.8126  -12.9991 N   0  0  0  0  0  0  0  0  0  0  0  0
   25.4457  -20.8594  -12.1986 C   0  0  1  0  0  0  0  0  0  0  0  0
   23.9939  -21.2111  -12.4221 C   0  0  0  0  0  0  0  0  0  0  0  0
   23.4593  -20.7679  -13.7493 C   0  0  0  0  0  0  0  0  0  0  0  0
   22.6825  -19.4761  -13.5063 C   0  0  0  0  0  0  0  0  0  0  0  0
   22.1195  -18.9618  -14.8117 C   0  0  0  0  0  0  0  0  0  0  0  0
   21.3085  -17.8043  -14.5428 N   0  0  0  0  0  0  0  0  0  0  0  0
   25.8495  -21.0354  -10.7908 C   0  0  0  0  0  0  0  0  0  0  0  0
   25.8477  -22.1876  -10.2489 O   0  0  0  0  0  0  0  0  0  0  0  0
   26.2665  -19.9459   -9.9430 N   0  0  0  0  0  0  0  0  0  0  0  0
   26.6790  -20.1506   -8.5937 C   0  0  1  0  0  0  0  0  0  0  0  0
   27.6991  -19.1254   -8.1328 C   0  0  0  0  0  0  0  0  0  0  0  0
   28.1654  -19.3762   -6.7538 C   0  0  0  0  0  0  0  0  0  0  0  0
   29.0678  -20.3639   -6.4299 C   0  0  0  0  0  0  0  0  0  0  0  0
   29.4857  -20.5736   -5.1235 C   0  0  0  0  0  0  0  0  0  0  0  0
   29.0043  -19.7899   -4.0981 C   0  0  0  0  0  0  0  0  0  0  0  0
   28.1027  -18.8003   -4.4092 C   0  0  0  0  0  0  0  0  0  0  0  0
   27.7018  -18.6094   -5.7100 C   0  0  0  0  0  0  0  0  0  0  0  0
   25.6242  -20.3673   -7.5978 C   0  0  0  0  0  0  0  0  0  0  0  0
   24.7573  -19.4071   -7.5218 O   0  0  0  0  0  0  0  0  0  0  0  0
   25.4255  -21.4470   -6.7285 N   0  0  0  0  0  0  0  0  0  0  0  0
   26.2075  -22.6372   -6.6065 C   0  0  0  0  0  0  0  0  0  0  0  0
   25.2418  -23.6294   -5.9358 C   0  0  0  0  0  0  0  0  0  0  0  0
   24.5735  -22.7373   -4.9201 C   0  0  0  0  0  0  0  0  0  0  0  0
   24.3257  -21.4944   -5.7495 C   0  0  1  0  0  0  0  0  0  0  0  0
   24.3311  -20.3221   -4.8686 C   0  0  0  0  0  0  0  0  0  0  0  0
   25.2593  -19.4953   -4.8984 O   0  0  0  0  0  0  0  0  0  0  0  0
   23.2812  -20.1367   -3.9894 O   0  0  0  0  0  0  0  0  0  0  0  0
  2  1  1  6
  2  3  1  0
  4  5  1  0
  4  3  1  0
  6  5  1  0
  7  6  1  0
  8  9  2  0
  8  2  1  0
 10  8  1  0
 11 10  1  0
 12 13  1  0
 11 12  1  1
 13 14  2  0
 14 15  1  0
 16 15  2  0
 17 16  1  0
 18 13  1  0
 18 17  2  0
 19 20  2  0
 19 11  1  0
 21 19  1  0
 22 21  1  0
 23 24  1  0
 23 22  1  0
 24 25  1  0
 25 21  1  0
 25 26  1  1
 27 26  2  0
 28 26  1  0
M  END
$$$$
