KFP.pdb
     RDKit          3D

 28 29  0  0  1  0  0  0  0  0999 V2000
   20.6138  -20.0065  -13.2672 N   0  0  0  0  0  0  0  0  0  0  0  0
   21.6338  -21.0306  -13.4916 C   0  0  1  0  0  0  0  0  0  0  0  0
   21.7692  -21.1544  -14.9908 C   0  0  0  0  0  0  0  0  0  0  0  0
   21.4402  -22.5167  -15.5195 C   0  0  0  0  0  0  0  0  0  0  0  0
   20.1832  -22.9846  -14.7899 C   0  0  0  0  0  0  0  0  0  0  0  0
   19.7562  -24.3356  -15.3170 C   0  0  0  0  0  0  0  0  0  0  0  0
   18.5794  -24.7598  -14.6061 N   0  0  0  0  0  0  0  0  0  0  0  0
   22.8805  -20.5613  -12.8581 C   0  0  0  0  0  0  0  0  0  0  0  0
   23.4972  -19.5407  -13.3047 O   0  0  0  0  0  0  0  0  0  0  0  0
   23.4804  -21.2042  -11.7151 N   0  0  0  0  0  0  0  0  0  0  0  0
   24.7954  -20.8823  -11.2679 C   0  0  1  0  0  0  0  0  0  0  0  0
   25.1090  -21.4705   -9.9042 C   0  0  0  0  0  0  0  0  0  0  0  0
   26.2786  -20.8288   -9.2701 C   0  0  0  0  0  0  0  0  0  0  0  0
   27.5576  -21.3289   -9.3643 C   0  0  0  0  0  0  0  0  0  0  0  0
   28.6354  -20.7015   -8.7563 C   0  0  0  0  0  0  0  0  0  0  0  0
   28.4563  -19.5444   -8.0306 C   0  0  0  0  0  0  0  0  0  0  0  0
   27.1836  -19.0353   -7.9294 C   0  0  0  0  0  0  0  0  0  0  0  0
   26.1296  -19.6726   -8.5395 C   0  0  0  0  0  0  0  0  0  0  0  0
   25.8927  -21.0800  -12.2210 C   0  0  0  0  0  0  0  0  0  0  0  0
   26.1609  -22.3222  -12.4749 O   0  0  0  0  0  0  0  0  0  0  0  0
   26.6815  -20.1314  -12.8833 N   0  0  0  0  0  0  0  0  0  0  0  0
   26.6051  -18.7065  -12.7994 C   0  0  0  0  0  0  0  0  0  0  0  0
   27.2964  -18.2372  -14.0911 C   0  0  0  0  0  0  0  0  0  0  0  0
   28.4585  -19.1959  -14.1595 C   0  0  0  0  0  0  0  0  0  0  0  0
   27.7763  -20.4990  -13.7979 C   0  0  1  0  0  0  0  0  0  0  0  0
   28.7495  -21.3857  -13.1523 C   0  0  0  0  0  0  0  0  0  0  0  0
   28.6941  -21.6287  -11.9340 O   0  0  0  0  0  0  0  0  0  0  0  0
   29.7465  -21.9607  -13.9172 O   0  0  0  0  0  0  0  0  0  0  0  0
  2  1  1  6
  2  3  1  0
  4  5  1  0
  4  3  1  0
  6  5  1  0
  7  6  1  0
  8  9  2  0
  8  2  1  0
 10  8  1  0
 11 10  1  0
 12 13  1  0
 11 12  1  1
 13 14  2  0
 14 15  1  0
 16 15  2  0
 17 16  1  0
 18 13  1  0
 18 17  2  0
 19 20  2  0
 19 11  1  0
 21 19  1  0
 22 21  1  0
 23 24  1  0
 23 22  1  0
 24 25  1  0
 25 21  1  0
 25 26  1  1
 27 26  2  0
 28 26  1  0
M  END
$$$$
