KFP.pdb
     RDKit          3D

 28 29  0  0  1  0  0  0  0  0999 V2000
   23.2356  -23.4475  -17.5825 N   0  0  0  0  0  0  0  0  0  0  0  0
   21.8322  -23.0511  -17.4699 C   0  0  1  0  0  0  0  0  0  0  0  0
   21.0346  -24.1909  -18.0580 C   0  0  0  0  0  0  0  0  0  0  0  0
   20.4325  -23.8842  -19.3948 C   0  0  0  0  0  0  0  0  0  0  0  0
   19.2886  -24.8737  -19.6042 C   0  0  0  0  0  0  0  0  0  0  0  0
   18.6120  -24.6039  -20.9289 C   0  0  0  0  0  0  0  0  0  0  0  0
   17.5700  -25.5766  -21.1239 N   0  0  0  0  0  0  0  0  0  0  0  0
   21.5415  -22.8506  -16.0377 C   0  0  0  0  0  0  0  0  0  0  0  0
   21.8090  -23.7556  -15.1829 O   0  0  0  0  0  0  0  0  0  0  0  0
   20.9485  -21.6468  -15.5095 N   0  0  0  0  0  0  0  0  0  0  0  0
   20.7067  -21.4694  -14.1156 C   0  0  1  0  0  0  0  0  0  0  0  0
   21.0123  -20.0593  -13.6445 C   0  0  0  0  0  0  0  0  0  0  0  0
   20.9628  -19.9343  -12.1735 C   0  0  0  0  0  0  0  0  0  0  0  0
   19.8240  -19.5854  -11.4834 C   0  0  0  0  0  0  0  0  0  0  0  0
   19.8110  -19.4766  -10.1002 C   0  0  0  0  0  0  0  0  0  0  0  0
   20.9515  -19.7174   -9.3662 C   0  0  0  0  0  0  0  0  0  0  0  0
   22.0949  -20.0666  -10.0443 C   0  0  0  0  0  0  0  0  0  0  0  0
   22.0862  -20.1688  -11.4150 C   0  0  0  0  0  0  0  0  0  0  0  0
   19.4291  -21.9632  -13.5907 C   0  0  0  0  0  0  0  0  0  0  0  0
   18.3866  -21.5135  -14.2155 O   0  0  0  0  0  0  0  0  0  0  0  0
   19.1797  -22.8360  -12.5245 N   0  0  0  0  0  0  0  0  0  0  0  0
   20.1143  -23.3709  -11.5846 C   0  0  0  0  0  0  0  0  0  0  0  0
   19.3982  -24.6204  -11.0436 C   0  0  0  0  0  0  0  0  0  0  0  0
   17.9883  -24.1043  -10.9018 C   0  0  0  0  0  0  0  0  0  0  0  0
   17.8330  -23.3358  -12.1976 C   0  0  1  0  0  0  0  0  0  0  0  0
   16.8810  -22.2394  -11.9928 C   0  0  0  0  0  0  0  0  0  0  0  0
   17.2221  -21.0521  -12.1351 O   0  0  0  0  0  0  0  0  0  0  0  0
   15.5799  -22.5365  -11.6345 O   0  0  0  0  0  0  0  0  0  0  0  0
  2  1  1  1
  2  3  1  0
  4  5  1  0
  4  3  1  0
  6  5  1  0
  7  6  1  0
  8  9  2  0
  8  2  1  0
 10  8  1  0
 11 10  1  0
 12 13  1  0
 11 12  1  6
 13 14  2  0
 14 15  1  0
 16 15  2  0
 17 16  1  0
 18 13  1  0
 18 17  2  0
 19 20  2  0
 19 11  1  0
 21 19  1  0
 22 21  1  0
 23 24  1  0
 23 22  1  0
 24 25  1  0
 25 21  1  0
 25 26  1  1
 27 26  2  0
 28 26  1  0
M  END
$$$$
