KFP.pdb
     RDKit          3D

 28 29  0  0  1  0  0  0  0  0999 V2000
   24.7388  -19.0053  -13.1938 N   0  0  0  0  0  0  0  0  0  0  0  0
   24.7785  -20.2137  -12.3706 C   0  0  1  0  0  0  0  0  0  0  0  0
   25.1297  -21.3412  -13.3123 C   0  0  0  0  0  0  0  0  0  0  0  0
   23.9558  -21.8967  -14.0586 C   0  0  0  0  0  0  0  0  0  0  0  0
   23.1355  -22.7062  -13.0570 C   0  0  0  0  0  0  0  0  0  0  0  0
   23.0730  -24.1522  -13.4937 C   0  0  0  0  0  0  0  0  0  0  0  0
   22.0320  -24.2950  -14.4766 N   0  0  0  0  0  0  0  0  0  0  0  0
   25.8106  -20.0121  -11.3362 C   0  0  0  0  0  0  0  0  0  0  0  0
   26.9781  -19.6097  -11.6467 O   0  0  0  0  0  0  0  0  0  0  0  0
   25.5832  -20.2484   -9.9319 N   0  0  0  0  0  0  0  0  0  0  0  0
   26.6380  -20.1974   -8.9741 C   0  0  1  0  0  0  0  0  0  0  0  0
   26.1277  -20.1261   -7.5463 C   0  0  0  0  0  0  0  0  0  0  0  0
   27.2005  -19.8133   -6.5803 C   0  0  0  0  0  0  0  0  0  0  0  0
   27.7519  -20.7494   -5.7351 C   0  0  0  0  0  0  0  0  0  0  0  0
   28.7592  -20.4227   -4.8385 C   0  0  0  0  0  0  0  0  0  0  0  0
   29.2443  -19.1355   -4.7660 C   0  0  0  0  0  0  0  0  0  0  0  0
   28.7015  -18.1919   -5.6051 C   0  0  0  0  0  0  0  0  0  0  0  0
   27.7042  -18.5366   -6.4860 C   0  0  0  0  0  0  0  0  0  0  0  0
   27.7253  -21.1704   -9.1248 C   0  0  0  0  0  0  0  0  0  0  0  0
   27.3421  -22.4078   -9.0884 O   0  0  0  0  0  0  0  0  0  0  0  0
   29.0982  -20.9552   -9.2969 N   0  0  0  0  0  0  0  0  0  0  0  0
   29.7971  -19.7093   -9.3443 C   0  0  0  0  0  0  0  0  0  0  0  0
   31.1063  -20.0640  -10.0701 C   0  0  0  0  0  0  0  0  0  0  0  0
   31.4321  -21.3950   -9.4404 C   0  0  0  0  0  0  0  0  0  0  0  0
   30.0685  -22.0541   -9.4423 C   0  0  1  0  0  0  0  0  0  0  0  0
   29.9918  -22.9988   -8.3233 C   0  0  0  0  0  0  0  0  0  0  0  0
   29.2512  -22.7861   -7.3474 O   0  0  0  0  0  0  0  0  0  0  0  0
   30.7599  -24.1470   -8.3586 O   0  0  0  0  0  0  0  0  0  0  0  0
  2  1  1  6
  2  3  1  0
  4  5  1  0
  4  3  1  0
  6  5  1  0
  7  6  1  0
  8  9  2  0
  8  2  1  0
 10  8  1  0
 11 10  1  0
 12 13  1  0
 11 12  1  1
 13 14  2  0
 14 15  1  0
 16 15  2  0
 17 16  1  0
 18 13  1  0
 18 17  2  0
 19 20  2  0
 19 11  1  0
 21 19  1  0
 22 21  1  0
 23 24  1  0
 23 22  1  0
 24 25  1  0
 25 21  1  0
 25 26  1  1
 27 26  2  0
 28 26  1  0
M  END
$$$$
