KFP.pdb
     RDKit          3D

 28 29  0  0  1  0  0  0  0  0999 V2000
   23.6833  -20.1083  -11.4836 N   0  0  0  0  0  0  0  0  0  0  0  0
   24.9469  -20.7028  -11.9182 C   0  0  1  0  0  0  0  0  0  0  0  0
   25.1900  -20.1778  -13.3134 C   0  0  0  0  0  0  0  0  0  0  0  0
   24.2410  -20.7174  -14.3390 C   0  0  0  0  0  0  0  0  0  0  0  0
   24.4689  -22.2257  -14.4048 C   0  0  0  0  0  0  0  0  0  0  0  0
   23.6476  -22.8209  -15.5258 C   0  0  0  0  0  0  0  0  0  0  0  0
   23.8123  -24.2501  -15.5129 N   0  0  0  0  0  0  0  0  0  0  0  0
   25.9909  -20.2677  -10.9712 C   0  0  0  0  0  0  0  0  0  0  0  0
   27.1515  -19.9422  -11.3814 O   0  0  0  0  0  0  0  0  0  0  0  0
   25.7831  -20.1795   -9.5469 N   0  0  0  0  0  0  0  0  0  0  0  0
   26.8688  -20.1271   -8.6243 C   0  0  1  0  0  0  0  0  0  0  0  0
   26.4219  -19.7832   -7.2151 C   0  0  0  0  0  0  0  0  0  0  0  0
   27.5611  -19.5913   -6.2946 C   0  0  0  0  0  0  0  0  0  0  0  0
   28.1259  -20.6153   -5.5685 C   0  0  0  0  0  0  0  0  0  0  0  0
   29.1962  -20.4013   -4.7118 C   0  0  0  0  0  0  0  0  0  0  0  0
   29.7329  -19.1418   -4.5598 C   0  0  0  0  0  0  0  0  0  0  0  0
   29.1773  -18.1112   -5.2796 C   0  0  0  0  0  0  0  0  0  0  0  0
   28.1173  -18.3448   -6.1229 C   0  0  0  0  0  0  0  0  0  0  0  0
   27.8188  -21.2446   -8.6460 C   0  0  0  0  0  0  0  0  0  0  0  0
   27.2922  -22.3973   -8.3751 O   0  0  0  0  0  0  0  0  0  0  0  0
   29.1938  -21.2422   -8.9109 N   0  0  0  0  0  0  0  0  0  0  0  0
   30.0226  -20.1326   -9.2644 C   0  0  0  0  0  0  0  0  0  0  0  0
   31.2367  -20.7963   -9.9368 C   0  0  0  0  0  0  0  0  0  0  0  0
   31.4510  -21.9848   -9.0336 C   0  0  0  0  0  0  0  0  0  0  0  0
   30.0250  -22.4563   -8.8377 C   0  0  1  0  0  0  0  0  0  0  0  0
   29.9134  -23.1137   -7.5317 C   0  0  0  0  0  0  0  0  0  0  0  0
   29.2302  -22.6217   -6.6165 O   0  0  0  0  0  0  0  0  0  0  0  0
   30.5825  -24.3038   -7.3183 O   0  0  0  0  0  0  0  0  0  0  0  0
  2  1  1  1
  2  3  1  0
  4  5  1  0
  4  3  1  0
  6  5  1  0
  7  6  1  0
  8  9  2  0
  8  2  1  0
 10  8  1  0
 11 10  1  0
 12 13  1  0
 11 12  1  1
 13 14  2  0
 14 15  1  0
 16 15  2  0
 17 16  1  0
 18 13  1  0
 18 17  2  0
 19 20  2  0
 19 11  1  0
 21 19  1  0
 22 21  1  0
 23 24  1  0
 23 22  1  0
 24 25  1  0
 25 21  1  0
 25 26  1  1
 27 26  2  0
 28 26  1  0
M  END
$$$$
