KFP.pdb
     RDKit          3D

 28 29  0  0  1  0  0  0  0  0999 V2000
   27.3260  -18.5741  -19.2495 N   0  0  0  0  0  0  0  0  0  0  0  0
   26.1487  -18.2529  -18.4432 C   0  0  1  0  0  0  0  0  0  0  0  0
   24.9555  -18.6193  -19.2938 C   0  0  0  0  0  0  0  0  0  0  0  0
   24.1550  -17.4409  -19.7563 C   0  0  0  0  0  0  0  0  0  0  0  0
   25.1504  -16.3364  -20.1035 C   0  0  0  0  0  0  0  0  0  0  0  0
   24.4073  -15.0799  -20.4964 C   0  0  0  0  0  0  0  0  0  0  0  0
   25.3597  -14.0189  -20.6885 N   0  0  0  0  0  0  0  0  0  0  0  0
   26.2212  -19.0603  -17.2108 C   0  0  0  0  0  0  0  0  0  0  0  0
   26.3436  -20.3266  -17.2647 O   0  0  0  0  0  0  0  0  0  0  0  0
   26.1613  -18.4933  -15.8862 N   0  0  0  0  0  0  0  0  0  0  0  0
   26.0266  -19.3030  -14.7205 C   0  0  1  0  0  0  0  0  0  0  0  0
   26.4727  -18.5883  -13.4580 C   0  0  0  0  0  0  0  0  0  0  0  0
   26.3517  -19.4395  -12.2568 C   0  0  0  0  0  0  0  0  0  0  0  0
   25.3438  -19.2985  -11.3300 C   0  0  0  0  0  0  0  0  0  0  0  0
   25.2586  -20.1151  -10.2115 C   0  0  0  0  0  0  0  0  0  0  0  0
   26.1918  -21.1042   -9.9917 C   0  0  0  0  0  0  0  0  0  0  0  0
   27.2030  -21.2547  -10.9103 C   0  0  0  0  0  0  0  0  0  0  0  0
   27.2690  -20.4349  -12.0117 C   0  0  0  0  0  0  0  0  0  0  0  0
   24.7513  -20.0044  -14.5376 C   0  0  0  0  0  0  0  0  0  0  0  0
   23.7086  -19.2364  -14.5872 O   0  0  0  0  0  0  0  0  0  0  0  0
   24.5046  -21.3651  -14.3175 N   0  0  0  0  0  0  0  0  0  0  0  0
   25.4445  -22.4419  -14.3060 C   0  0  0  0  0  0  0  0  0  0  0  0
   24.5683  -23.6807  -14.5597 C   0  0  0  0  0  0  0  0  0  0  0  0
   23.3677  -23.3632  -13.7041 C   0  0  0  0  0  0  0  0  0  0  0  0
   23.1615  -21.8990  -14.0320 C   0  0  1  0  0  0  0  0  0  0  0  0
   22.5451  -21.2326  -12.8804 C   0  0  0  0  0  0  0  0  0  0  0  0
   23.2080  -20.4976  -12.1277 O   0  0  0  0  0  0  0  0  0  0  0  0
   21.2002  -21.4284  -12.6306 O   0  0  0  0  0  0  0  0  0  0  0  0
  2  1  1  6
  2  3  1  0
  4  5  1  0
  4  3  1  0
  6  5  1  0
  7  6  1  0
  8  9  2  0
  8  2  1  0
 10  8  1  0
 11 10  1  0
 12 13  1  0
 11 12  1  1
 13 14  2  0
 14 15  1  0
 16 15  2  0
 17 16  1  0
 18 13  1  0
 18 17  2  0
 19 20  2  0
 19 11  1  0
 21 19  1  0
 22 21  1  0
 23 24  1  0
 23 22  1  0
 24 25  1  0
 25 21  1  0
 25 26  1  1
 27 26  2  0
 28 26  1  0
M  END
$$$$
