KFP.pdb
     RDKit          3D

 28 29  0  0  1  0  0  0  0  0999 V2000
   24.2576  -19.3731  -13.2402 N   0  0  0  0  0  0  0  0  0  0  0  0
   23.9278  -19.9746  -11.9484 C   0  0  1  0  0  0  0  0  0  0  0  0
   23.4664  -21.3798  -12.2550 C   0  0  0  0  0  0  0  0  0  0  0  0
   23.8070  -21.8423  -13.6383 C   0  0  0  0  0  0  0  0  0  0  0  0
   24.8763  -22.9228  -13.4946 C   0  0  0  0  0  0  0  0  0  0  0  0
   24.2219  -24.2798  -13.3696 C   0  0  0  0  0  0  0  0  0  0  0  0
   23.6389  -24.6318  -14.6369 N   0  0  0  0  0  0  0  0  0  0  0  0
   25.1524  -19.9591  -11.1262 C   0  0  0  0  0  0  0  0  0  0  0  0
   26.2524  -19.5259  -11.5992 O   0  0  0  0  0  0  0  0  0  0  0  0
   25.1971  -20.4204   -9.7606 N   0  0  0  0  0  0  0  0  0  0  0  0
   26.3650  -20.2882   -8.9537 C   0  0  1  0  0  0  0  0  0  0  0  0
   26.0474  -20.2347   -7.4704 C   0  0  0  0  0  0  0  0  0  0  0  0
   27.2207  -19.8558   -6.6570 C   0  0  0  0  0  0  0  0  0  0  0  0
   27.7332  -18.5788   -6.6202 C   0  0  0  0  0  0  0  0  0  0  0  0
   28.8376  -18.2555   -5.8449 C   0  0  0  0  0  0  0  0  0  0  0  0
   29.4626  -19.2146   -5.0788 C   0  0  0  0  0  0  0  0  0  0  0  0
   28.9599  -20.4935   -5.1073 C   0  0  0  0  0  0  0  0  0  0  0  0
   27.8648  -20.7926   -5.8823 C   0  0  0  0  0  0  0  0  0  0  0  0
   27.4855  -21.1882   -9.2471 C   0  0  0  0  0  0  0  0  0  0  0  0
   27.1947  -22.4479   -9.1585 O   0  0  0  0  0  0  0  0  0  0  0  0
   28.8057  -20.8839   -9.6012 N   0  0  0  0  0  0  0  0  0  0  0  0
   29.4221  -19.5971   -9.6874 C   0  0  0  0  0  0  0  0  0  0  0  0
   30.6304  -19.8432  -10.6072 C   0  0  0  0  0  0  0  0  0  0  0  0
   31.1150  -21.1760  -10.0942 C   0  0  0  0  0  0  0  0  0  0  0  0
   29.8030  -21.9156   -9.9347 C   0  0  1  0  0  0  0  0  0  0  0  0
   29.9394  -22.9067   -8.8626 C   0  0  0  0  0  0  0  0  0  0  0  0
   29.3022  -22.8014   -7.8000 O   0  0  0  0  0  0  0  0  0  0  0  0
   30.7943  -23.9776   -9.0414 O   0  0  0  0  0  0  0  0  0  0  0  0
  2  1  1  6
  2  3  1  0
  4  5  1  0
  4  3  1  0
  6  5  1  0
  7  6  1  0
  8  9  2  0
  8  2  1  0
 10  8  1  0
 11 10  1  0
 12 13  1  0
 11 12  1  1
 13 14  2  0
 14 15  1  0
 16 15  2  0
 17 16  1  0
 18 13  1  0
 18 17  2  0
 19 20  2  0
 19 11  1  0
 21 19  1  0
 22 21  1  0
 23 24  1  0
 23 22  1  0
 24 25  1  0
 25 21  1  0
 25 26  1  1
 27 26  2  0
 28 26  1  0
M  END
$$$$
