KFP.pdb
     RDKit          3D

 28 29  0  0  1  0  0  0  0  0999 V2000
   20.1240  -13.6250  -17.9665 N   0  0  0  0  0  0  0  0  0  0  0  0
   20.7668  -12.4253  -18.5021 C   0  0  1  0  0  0  0  0  0  0  0  0
   20.0354  -12.1045  -19.7840 C   0  0  0  0  0  0  0  0  0  0  0  0
   19.1095  -13.1890  -20.2424 C   0  0  0  0  0  0  0  0  0  0  0  0
   17.8680  -12.5033  -20.8081 C   0  0  0  0  0  0  0  0  0  0  0  0
   16.9240  -13.5380  -21.3771 C   0  0  0  0  0  0  0  0  0  0  0  0
   17.5771  -14.8199  -21.3613 N   0  0  0  0  0  0  0  0  0  0  0  0
   20.6198  -11.3565  -17.4962 C   0  0  0  0  0  0  0  0  0  0  0  0
   19.5677  -11.2685  -16.7843 O   0  0  0  0  0  0  0  0  0  0  0  0
   21.6286  -10.3564  -17.2479 N   0  0  0  0  0  0  0  0  0  0  0  0
   21.4614   -9.3392  -16.2630 C   0  0  1  0  0  0  0  0  0  0  0  0
   22.6693   -9.2018  -15.3541 C   0  0  0  0  0  0  0  0  0  0  0  0
   22.4693   -8.1840  -14.3025 C   0  0  0  0  0  0  0  0  0  0  0  0
   22.6987   -6.8409  -14.4983 C   0  0  0  0  0  0  0  0  0  0  0  0
   22.5009   -5.9099  -13.4888 C   0  0  0  0  0  0  0  0  0  0  0  0
   22.0636   -6.3061  -12.2441 C   0  0  0  0  0  0  0  0  0  0  0  0
   21.8311   -7.6447  -12.0365 C   0  0  0  0  0  0  0  0  0  0  0  0
   22.0333   -8.5506  -13.0503 C   0  0  0  0  0  0  0  0  0  0  0  0
   20.9651   -8.0380  -16.7236 C   0  0  0  0  0  0  0  0  0  0  0  0
   21.7114   -7.4686  -17.6171 O   0  0  0  0  0  0  0  0  0  0  0  0
   19.8182   -7.3329  -16.3386 N   0  0  0  0  0  0  0  0  0  0  0  0
   18.8099   -7.7295  -15.4062 C   0  0  0  0  0  0  0  0  0  0  0  0
   17.6019   -6.8616  -15.7992 C   0  0  0  0  0  0  0  0  0  0  0  0
   18.2752   -5.5409  -16.0758 C   0  0  0  0  0  0  0  0  0  0  0  0
   19.4870   -5.9963  -16.8620 C   0  0  1  0  0  0  0  0  0  0  0  0
   20.5810   -5.0431  -16.6503 C   0  0  0  0  0  0  0  0  0  0  0  0
   20.5609   -3.9112  -17.1649 O   0  0  0  0  0  0  0  0  0  0  0  0
   21.6536   -5.4145  -15.8623 O   0  0  0  0  0  0  0  0  0  0  0  0
  2  1  1  1
  2  3  1  0
  4  5  1  0
  4  3  1  0
  6  5  1  0
  7  6  1  0
  8  9  2  0
  8  2  1  0
 10  8  1  0
 11 10  1  0
 12 13  1  0
 11 12  1  6
 13 14  2  0
 14 15  1  0
 16 15  2  0
 17 16  1  0
 18 13  1  0
 18 17  2  0
 19 20  2  0
 19 11  1  0
 21 19  1  0
 22 21  1  0
 23 24  1  0
 23 22  1  0
 24 25  1  0
 25 21  1  0
 25 26  1  1
 27 26  2  0
 28 26  1  0
M  END
$$$$
