KFP.pdb
     RDKit          3D

 28 29  0  0  1  0  0  0  0  0999 V2000
   27.7691  -20.1953  -17.9564 N   0  0  0  0  0  0  0  0  0  0  0  0
   27.7667  -21.6159  -17.6083 C   0  0  1  0  0  0  0  0  0  0  0  0
   29.0289  -22.1884  -18.2086 C   0  0  0  0  0  0  0  0  0  0  0  0
   29.7436  -21.2481  -19.1300 C   0  0  0  0  0  0  0  0  0  0  0  0
   29.0400  -21.3313  -20.4825 C   0  0  0  0  0  0  0  0  0  0  0  0
   29.9984  -21.8530  -21.5289 C   0  0  0  0  0  0  0  0  0  0  0  0
   29.3228  -21.8911  -22.7985 N   0  0  0  0  0  0  0  0  0  0  0  0
   27.7585  -21.7121  -16.1364 C   0  0  0  0  0  0  0  0  0  0  0  0
   27.9951  -22.8182  -15.5518 O   0  0  0  0  0  0  0  0  0  0  0  0
   27.4896  -20.5913  -15.2696 N   0  0  0  0  0  0  0  0  0  0  0  0
   26.9071  -20.7543  -13.9786 C   0  0  1  0  0  0  0  0  0  0  0  0
   27.4246  -19.7426  -12.9723 C   0  0  0  0  0  0  0  0  0  0  0  0
   26.9938  -20.0498  -11.5931 C   0  0  0  0  0  0  0  0  0  0  0  0
   27.6201  -20.9812  -10.7963 C   0  0  0  0  0  0  0  0  0  0  0  0
   27.1901  -21.2464   -9.5040 C   0  0  0  0  0  0  0  0  0  0  0  0
   26.1099  -20.5773   -8.9724 C   0  0  0  0  0  0  0  0  0  0  0  0
   25.4762  -19.6448   -9.7585 C   0  0  0  0  0  0  0  0  0  0  0  0
   25.9184  -19.3972  -11.0362 C   0  0  0  0  0  0  0  0  0  0  0  0
   25.4488  -20.8993  -13.9167 C   0  0  0  0  0  0  0  0  0  0  0  0
   24.7921  -19.8424  -14.2789 O   0  0  0  0  0  0  0  0  0  0  0  0
   24.6771  -22.0001  -13.5250 N   0  0  0  0  0  0  0  0  0  0  0  0
   25.1267  -23.3024  -13.1443 C   0  0  0  0  0  0  0  0  0  0  0  0
   23.8835  -24.1834  -13.3566 C   0  0  0  0  0  0  0  0  0  0  0  0
   22.7982  -23.2812  -12.8251 C   0  0  0  0  0  0  0  0  0  0  0  0
   23.2078  -21.9540  -13.4291 C   0  0  1  0  0  0  0  0  0  0  0  0
   22.7538  -20.8690  -12.5533 C   0  0  0  0  0  0  0  0  0  0  0  0
   23.5595  -20.1971  -11.8857 O   0  0  0  0  0  0  0  0  0  0  0  0
   21.4026  -20.5913  -12.4716 O   0  0  0  0  0  0  0  0  0  0  0  0
  2  1  1  1
  2  3  1  0
  4  5  1  0
  4  3  1  0
  6  5  1  0
  7  6  1  0
  8  9  2  0
  8  2  1  0
 10  8  1  0
 11 10  1  0
 12 13  1  0
 11 12  1  1
 13 14  2  0
 14 15  1  0
 16 15  2  0
 17 16  1  0
 18 13  1  0
 18 17  2  0
 19 20  2  0
 19 11  1  0
 21 19  1  0
 22 21  1  0
 23 24  1  0
 23 22  1  0
 24 25  1  0
 25 21  1  0
 25 26  1  1
 27 26  2  0
 28 26  1  0
M  END
$$$$
