KFP.pdb
     RDKit          3D

 28 29  0  0  1  0  0  0  0  0999 V2000
   26.4777  -17.4095  -18.3255 N   0  0  0  0  0  0  0  0  0  0  0  0
   26.4622  -18.8495  -18.5810 C   0  0  1  0  0  0  0  0  0  0  0  0
   27.6987  -19.1351  -19.4000 C   0  0  0  0  0  0  0  0  0  0  0  0
   27.5363  -18.8546  -20.8624 C   0  0  0  0  0  0  0  0  0  0  0  0
   27.1754  -17.3768  -20.9937 C   0  0  0  0  0  0  0  0  0  0  0  0
   27.4144  -16.9138  -22.4129 C   0  0  0  0  0  0  0  0  0  0  0  0
   27.8032  -18.0461  -23.2107 N   0  0  0  0  0  0  0  0  0  0  0  0
   26.4920  -19.5324  -17.2737 C   0  0  0  0  0  0  0  0  0  0  0  0
   26.7923  -20.7667  -17.1872 O   0  0  0  0  0  0  0  0  0  0  0  0
   26.1919  -18.8726  -16.0270 N   0  0  0  0  0  0  0  0  0  0  0  0
   26.0000  -19.5961  -14.8136 C   0  0  1  0  0  0  0  0  0  0  0  0
   26.6075  -18.8942  -13.6127 C   0  0  0  0  0  0  0  0  0  0  0  0
   26.4184  -19.6554  -12.3609 C   0  0  0  0  0  0  0  0  0  0  0  0
   27.2175  -20.7142  -11.9931 C   0  0  0  0  0  0  0  0  0  0  0  0
   27.0131  -21.4088  -10.8096 C   0  0  0  0  0  0  0  0  0  0  0  0
   25.9914  -21.0558   -9.9558 C   0  0  0  0  0  0  0  0  0  0  0  0
   25.1867  -20.0001  -10.3123 C   0  0  0  0  0  0  0  0  0  0  0  0
   25.4065  -19.3253  -11.4894 C   0  0  0  0  0  0  0  0  0  0  0  0
   24.6475  -20.0924  -14.5381 C   0  0  0  0  0  0  0  0  0  0  0  0
   23.7407  -19.1681  -14.4862 O   0  0  0  0  0  0  0  0  0  0  0  0
   24.2041  -21.4033  -14.3236 N   0  0  0  0  0  0  0  0  0  0  0  0
   24.9563  -22.6153  -14.4148 C   0  0  0  0  0  0  0  0  0  0  0  0
   23.8743  -23.6904  -14.6150 C   0  0  0  0  0  0  0  0  0  0  0  0
   22.8155  -23.2149  -13.6521 C   0  0  0  0  0  0  0  0  0  0  0  0
   22.8211  -21.7265  -13.9325 C   0  0  1  0  0  0  0  0  0  0  0  0
   22.4175  -21.0092  -12.7190 C   0  0  0  0  0  0  0  0  0  0  0  0
   23.2442  -20.3830  -12.0329 O   0  0  0  0  0  0  0  0  0  0  0  0
   21.0905  -21.0323  -12.3340 O   0  0  0  0  0  0  0  0  0  0  0  0
  2  1  1  1
  2  3  1  0
  4  5  1  0
  4  3  1  0
  6  5  1  0
  7  6  1  0
  8  9  2  0
  8  2  1  0
 10  8  1  0
 11 10  1  0
 12 13  1  0
 11 12  1  1
 13 14  2  0
 14 15  1  0
 16 15  2  0
 17 16  1  0
 18 13  1  0
 18 17  2  0
 19 20  2  0
 19 11  1  0
 21 19  1  0
 22 21  1  0
 23 24  1  0
 23 22  1  0
 24 25  1  0
 25 21  1  0
 25 26  1  1
 27 26  2  0
 28 26  1  0
M  END
$$$$
