KFP.pdb
     RDKit          3D

 28 29  0  0  1  0  0  0  0  0999 V2000
   26.2572  -21.7221  -12.7765 N   0  0  0  0  0  0  0  0  0  0  0  0
   25.5624  -20.7092  -11.9823 C   0  0  1  0  0  0  0  0  0  0  0  0
   24.0883  -20.9569  -12.1990 C   0  0  0  0  0  0  0  0  0  0  0  0
   23.6443  -20.7750  -13.6180 C   0  0  0  0  0  0  0  0  0  0  0  0
   23.6332  -19.2727  -13.8907 C   0  0  0  0  0  0  0  0  0  0  0  0
   23.1927  -19.0121  -15.3132 C   0  0  0  0  0  0  0  0  0  0  0  0
   21.7562  -19.0669  -15.3712 N   0  0  0  0  0  0  0  0  0  0  0  0
   25.9569  -20.9020  -10.5741 C   0  0  0  0  0  0  0  0  0  0  0  0
   25.9938  -22.0658  -10.0586 O   0  0  0  0  0  0  0  0  0  0  0  0
   26.3216  -19.8173   -9.6967 N   0  0  0  0  0  0  0  0  0  0  0  0
   26.7211  -20.0366   -8.3458 C   0  0  1  0  0  0  0  0  0  0  0  0
   27.6554  -18.9572   -7.8303 C   0  0  0  0  0  0  0  0  0  0  0  0
   28.1826  -19.2646   -6.4851 C   0  0  0  0  0  0  0  0  0  0  0  0
   27.7943  -18.5901   -5.3497 C   0  0  0  0  0  0  0  0  0  0  0  0
   28.3090  -18.9038   -4.1000 C   0  0  0  0  0  0  0  0  0  0  0  0
   29.2360  -19.9124   -3.9555 C   0  0  0  0  0  0  0  0  0  0  0  0
   29.6315  -20.5932   -5.0821 C   0  0  0  0  0  0  0  0  0  0  0  0
   29.1091  -20.2665   -6.3108 C   0  0  0  0  0  0  0  0  0  0  0  0
   25.6651  -20.3609   -7.3808 C   0  0  0  0  0  0  0  0  0  0  0  0
   24.7134  -19.4836   -7.3170 O   0  0  0  0  0  0  0  0  0  0  0  0
   25.5426  -21.4659   -6.5294 N   0  0  0  0  0  0  0  0  0  0  0  0
   26.4372  -22.5710   -6.3835 C   0  0  0  0  0  0  0  0  0  0  0  0
   25.5517  -23.6651   -5.7626 C   0  0  0  0  0  0  0  0  0  0  0  0
   24.7533  -22.8589   -4.7693 C   0  0  0  0  0  0  0  0  0  0  0  0
   24.4137  -21.6378   -5.5987 C   0  0  1  0  0  0  0  0  0  0  0  0
   24.2615  -20.4821   -4.7091 C   0  0  0  0  0  0  0  0  0  0  0  0
   25.1002  -19.5642   -4.6926 O   0  0  0  0  0  0  0  0  0  0  0  0
   23.1623  -20.4160   -3.8742 O   0  0  0  0  0  0  0  0  0  0  0  0
  2  1  1  6
  2  3  1  0
  4  5  1  0
  4  3  1  0
  6  5  1  0
  7  6  1  0
  8  9  2  0
  8  2  1  0
 10  8  1  0
 11 10  1  0
 12 13  1  0
 11 12  1  1
 13 14  2  0
 14 15  1  0
 16 15  2  0
 17 16  1  0
 18 13  1  0
 18 17  2  0
 19 20  2  0
 19 11  1  0
 21 19  1  0
 22 21  1  0
 23 24  1  0
 23 22  1  0
 24 25  1  0
 25 21  1  0
 25 26  1  1
 27 26  2  0
 28 26  1  0
M  END
$$$$
