KFP.pdb
     RDKit          3D

 28 29  0  0  1  0  0  0  0  0999 V2000
   27.2653  -18.9384  -19.1313 N   0  0  0  0  0  0  0  0  0  0  0  0
   26.7605  -18.1072  -18.0388 C   0  0  1  0  0  0  0  0  0  0  0  0
   25.4196  -17.5891  -18.5022 C   0  0  0  0  0  0  0  0  0  0  0  0
   25.3559  -16.0980  -18.6295 C   0  0  0  0  0  0  0  0  0  0  0  0
   23.9522  -15.7539  -19.1218 C   0  0  0  0  0  0  0  0  0  0  0  0
   23.8527  -14.2702  -19.3943 C   0  0  0  0  0  0  0  0  0  0  0  0
   22.5211  -13.9706  -19.8491 N   0  0  0  0  0  0  0  0  0  0  0  0
   26.6419  -18.9666  -16.8458 C   0  0  0  0  0  0  0  0  0  0  0  0
   26.5686  -20.2330  -16.9566 O   0  0  0  0  0  0  0  0  0  0  0  0
   26.6014  -18.4530  -15.4989 N   0  0  0  0  0  0  0  0  0  0  0  0
   26.4180  -19.3027  -14.3689 C   0  0  1  0  0  0  0  0  0  0  0  0
   27.1387  -18.7952  -13.1332 C   0  0  0  0  0  0  0  0  0  0  0  0
   26.9636  -19.6911  -11.9718 C   0  0  0  0  0  0  0  0  0  0  0  0
   26.0571  -19.4521  -10.9639 C   0  0  0  0  0  0  0  0  0  0  0  0
   25.9172  -20.3143   -9.8858 C   0  0  0  0  0  0  0  0  0  0  0  0
   26.6909  -21.4500   -9.7901 C   0  0  0  0  0  0  0  0  0  0  0  0
   27.5997  -21.6993  -10.7906 C   0  0  0  0  0  0  0  0  0  0  0  0
   27.7224  -20.8321  -11.8500 C   0  0  0  0  0  0  0  0  0  0  0  0
   25.0477  -19.7335  -14.0719 C   0  0  0  0  0  0  0  0  0  0  0  0
   24.2234  -18.7624  -13.8336 O   0  0  0  0  0  0  0  0  0  0  0  0
   24.5124  -21.0259  -14.0075 N   0  0  0  0  0  0  0  0  0  0  0  0
   25.1970  -22.2727  -14.1486 C   0  0  0  0  0  0  0  0  0  0  0  0
   24.0733  -23.2544  -14.5230 C   0  0  0  0  0  0  0  0  0  0  0  0
   22.9706  -22.7925  -13.6039 C   0  0  0  0  0  0  0  0  0  0  0  0
   23.0859  -21.2895  -13.7509 C   0  0  1  0  0  0  0  0  0  0  0  0
   22.6292  -20.6509  -12.5124 C   0  0  0  0  0  0  0  0  0  0  0  0
   23.4372  -20.2079  -11.6774 O   0  0  0  0  0  0  0  0  0  0  0  0
   21.2727  -20.5414  -12.2728 O   0  0  0  0  0  0  0  0  0  0  0  0
  2  1  1  6
  2  3  1  0
  4  5  1  0
  4  3  1  0
  6  5  1  0
  7  6  1  0
  8  9  2  0
  8  2  1  0
 10  8  1  0
 11 10  1  0
 12 13  1  0
 11 12  1  1
 13 14  2  0
 14 15  1  0
 16 15  2  0
 17 16  1  0
 18 13  1  0
 18 17  2  0
 19 20  2  0
 19 11  1  0
 21 19  1  0
 22 21  1  0
 23 24  1  0
 23 22  1  0
 24 25  1  0
 25 21  1  0
 25 26  1  1
 27 26  2  0
 28 26  1  0
M  END
$$$$
