KFP.pdb
     RDKit          3D

 28 29  0  0  1  0  0  0  0  0999 V2000
   21.0766  -19.9791  -14.6159 N   0  0  0  0  0  0  0  0  0  0  0  0
   21.4868  -20.9363  -13.5888 C   0  0  1  0  0  0  0  0  0  0  0  0
   21.4605  -22.2913  -14.2557 C   0  0  0  0  0  0  0  0  0  0  0  0
   21.9561  -22.2819  -15.6692 C   0  0  0  0  0  0  0  0  0  0  0  0
   23.2403  -23.1075  -15.6950 C   0  0  0  0  0  0  0  0  0  0  0  0
   22.9034  -24.5791  -15.7745 C   0  0  0  0  0  0  0  0  0  0  0  0
   23.5673  -25.2655  -14.6984 N   0  0  0  0  0  0  0  0  0  0  0  0
   22.8434  -20.5603  -13.1483 C   0  0  0  0  0  0  0  0  0  0  0  0
   23.4803  -19.6191  -13.7227 O   0  0  0  0  0  0  0  0  0  0  0  0
   23.5340  -21.2114  -12.0626 N   0  0  0  0  0  0  0  0  0  0  0  0
   24.8815  -20.8937  -11.7224 C   0  0  1  0  0  0  0  0  0  0  0  0
   25.3551  -21.6168  -10.4747 C   0  0  0  0  0  0  0  0  0  0  0  0
   26.4740  -20.9182   -9.8099 C   0  0  0  0  0  0  0  0  0  0  0  0
   26.2945  -19.9350   -8.8633 C   0  0  0  0  0  0  0  0  0  0  0  0
   27.3678  -19.2978   -8.2574 C   0  0  0  0  0  0  0  0  0  0  0  0
   28.6619  -19.6338   -8.5886 C   0  0  0  0  0  0  0  0  0  0  0  0
   28.8539  -20.6141   -9.5326 C   0  0  0  0  0  0  0  0  0  0  0  0
   27.7766  -21.2329  -10.1209 C   0  0  0  0  0  0  0  0  0  0  0  0
   25.8735  -20.9457  -12.8017 C   0  0  0  0  0  0  0  0  0  0  0  0
   26.0233  -22.1187  -13.3318 O   0  0  0  0  0  0  0  0  0  0  0  0
   26.6715  -19.9239  -13.3306 N   0  0  0  0  0  0  0  0  0  0  0  0
   26.8051  -18.5786  -12.8665 C   0  0  0  0  0  0  0  0  0  0  0  0
   27.3437  -17.8300  -14.0979 C   0  0  0  0  0  0  0  0  0  0  0  0
   28.3384  -18.8309  -14.6298 C   0  0  0  0  0  0  0  0  0  0  0  0
   27.5492  -20.1169  -14.4980 C   0  0  1  0  0  0  0  0  0  0  0  0
   28.4806  -21.2320  -14.2995 C   0  0  0  0  0  0  0  0  0  0  0  0
   28.6146  -21.7723  -13.1876 O   0  0  0  0  0  0  0  0  0  0  0  0
   29.2221  -21.6881  -15.3727 O   0  0  0  0  0  0  0  0  0  0  0  0
  2  1  1  6
  2  3  1  0
  4  5  1  0
  4  3  1  0
  6  5  1  0
  7  6  1  0
  8  9  2  0
  8  2  1  0
 10  8  1  0
 11 10  1  0
 12 13  1  0
 11 12  1  1
 13 14  2  0
 14 15  1  0
 16 15  2  0
 17 16  1  0
 18 13  1  0
 18 17  2  0
 19 20  2  0
 19 11  1  0
 21 19  1  0
 22 21  1  0
 23 24  1  0
 23 22  1  0
 24 25  1  0
 25 21  1  0
 25 26  1  1
 27 26  2  0
 28 26  1  0
M  END
$$$$
