KFP.pdb
     RDKit          3D

 28 29  0  0  1  0  0  0  0  0999 V2000
   25.9878  -14.7443  -18.3369 N   0  0  0  0  0  0  0  0  0  0  0  0
   25.0459  -15.8592  -18.2418 C   0  0  1  0  0  0  0  0  0  0  0  0
   25.0392  -16.5092  -19.6051 C   0  0  0  0  0  0  0  0  0  0  0  0
   23.7196  -16.4293  -20.3092 C   0  0  0  0  0  0  0  0  0  0  0  0
   22.8609  -15.4345  -19.5318 C   0  0  0  0  0  0  0  0  0  0  0  0
   21.5349  -15.2433  -20.2321 C   0  0  0  0  0  0  0  0  0  0  0  0
   20.7678  -16.4545  -20.1112 N   0  0  0  0  0  0  0  0  0  0  0  0
   25.5423  -16.7712  -17.1940 C   0  0  0  0  0  0  0  0  0  0  0  0
   26.7542  -17.1617  -17.1872 O   0  0  0  0  0  0  0  0  0  0  0  0
   24.7161  -17.2766  -16.1256 N   0  0  0  0  0  0  0  0  0  0  0  0
   25.2128  -18.1908  -15.1508 C   0  0  1  0  0  0  0  0  0  0  0  0
   24.3934  -18.1850  -13.8732 C   0  0  0  0  0  0  0  0  0  0  0  0
   24.9249  -19.1187  -12.8595 C   0  0  0  0  0  0  0  0  0  0  0  0
   26.0565  -18.8643  -12.1183 C   0  0  0  0  0  0  0  0  0  0  0  0
   26.5298  -19.7631  -11.1732 C   0  0  0  0  0  0  0  0  0  0  0  0
   25.8734  -20.9524  -10.9448 C   0  0  0  0  0  0  0  0  0  0  0  0
   24.7420  -21.2177  -11.6789 C   0  0  0  0  0  0  0  0  0  0  0  0
   24.2901  -20.3135  -12.6104 C   0  0  0  0  0  0  0  0  0  0  0  0
   25.5187  -19.5515  -15.6053 C   0  0  0  0  0  0  0  0  0  0  0  0
   24.5097  -20.1810  -16.1203 O   0  0  0  0  0  0  0  0  0  0  0  0
   26.7272  -20.2573  -15.5598 N   0  0  0  0  0  0  0  0  0  0  0  0
   27.9762  -19.8340  -15.0086 C   0  0  0  0  0  0  0  0  0  0  0  0
   29.0004  -20.7411  -15.7120 C   0  0  0  0  0  0  0  0  0  0  0  0
   28.2722  -22.0616  -15.6973 C   0  0  0  0  0  0  0  0  0  0  0  0
   26.8767  -21.6234  -16.0906 C   0  0  1  0  0  0  0  0  0  0  0  0
   25.9012  -22.5457  -15.5006 C   0  0  0  0  0  0  0  0  0  0  0  0
   25.1072  -22.1706  -14.6202 O   0  0  0  0  0  0  0  0  0  0  0  0
   25.8674  -23.8571  -15.9349 O   0  0  0  0  0  0  0  0  0  0  0  0
  2  1  1  6
  2  3  1  0
  4  5  1  0
  4  3  1  0
  6  5  1  0
  7  6  1  0
  8  9  2  0
  8  2  1  0
 10  8  1  0
 11 10  1  0
 12 13  1  0
 11 12  1  1
 13 14  2  0
 14 15  1  0
 16 15  2  0
 17 16  1  0
 18 13  1  0
 18 17  2  0
 19 20  2  0
 19 11  1  0
 21 19  1  0
 22 21  1  0
 23 24  1  0
 23 22  1  0
 24 25  1  0
 25 21  1  0
 25 26  1  1
 27 26  2  0
 28 26  1  0
M  END
$$$$
