QIF.pdb
     RDKit          3D

 29 29  0  0  1  0  0  0  0  0999 V2000
    9.1306  -20.5738   23.9926 N   0  0  0  0  0  0  0  0  0  0  0  0
    9.4205  -21.0877   22.7020 C   0  0  0  0  0  0  0  0  0  0  0  0
   10.4667  -21.7686   22.5630 O   0  0  0  0  0  0  0  0  0  0  0  0
    8.5209  -20.8285   21.5653 C   0  0  0  0  0  0  0  0  0  0  0  0
    7.2569  -20.1100   21.9882 C   0  0  0  0  0  0  0  0  0  0  0  0
    6.9879  -19.0255   20.9917 C   0  0  2  0  0  0  0  0  0  0  0  0
    7.0381  -19.5085   19.6277 N   0  0  0  0  0  0  0  0  0  0  0  0
    7.8297  -17.8488   21.1167 C   0  0  0  0  0  0  0  0  0  0  0  0
    9.0733  -17.9557   20.9512 O   0  0  0  0  0  0  0  0  0  0  0  0
    7.7272  -11.7623   20.2582 C   0  0  0  0  0  0  0  0  0  0  0  0
    8.4312  -12.9513   20.8703 C   0  0  0  0  0  0  0  0  0  0  0  0
    7.5089  -14.1685   20.9070 C   0  0  2  0  0  0  0  0  0  0  0  0
    6.3932  -13.7952   21.8518 C   0  0  0  0  0  0  0  0  0  0  0  0
    8.2636  -15.3736   21.4446 C   0  0  2  0  0  0  0  0  0  0  0  0
    7.3531  -16.5408   21.4205 N   0  0  0  0  0  0  0  0  0  0  0  0
    8.5837  -15.1263   22.8694 C   0  0  0  0  0  0  0  0  0  0  0  0
    8.1545  -14.0368   23.3803 O   0  0  0  0  0  0  0  0  0  0  0  0
    9.3157  -15.9905   23.7005 N   0  0  0  0  0  0  0  0  0  0  0  0
    9.3365  -15.7417   25.1493 C   0  0  1  0  0  0  0  0  0  0  0  0
    7.9290  -15.6709   25.6754 C   0  0  0  0  0  0  0  0  0  0  0  0
    7.5957  -14.2763   26.0184 C   0  0  0  0  0  0  0  0  0  0  0  0
    8.5307  -13.4361   26.6297 C   0  0  0  0  0  0  0  0  0  0  0  0
    8.1748  -12.1424   26.9054 C   0  0  0  0  0  0  0  0  0  0  0  0
    6.9164  -11.6535   26.5932 C   0  0  0  0  0  0  0  0  0  0  0  0
    5.9940  -12.4821   25.9902 C   0  0  0  0  0  0  0  0  0  0  0  0
    6.3422  -13.7690   25.7136 C   0  0  0  0  0  0  0  0  0  0  0  0
   10.1496  -16.7863   25.7891 C   0  0  0  0  0  0  0  0  0  0  0  0
   10.5017  -16.7354   27.1274 O   0  0  0  0  0  0  0  0  0  0  0  0
   10.5585  -17.7806   25.1124 O   0  0  0  0  0  0  0  0  0  0  0  0
  2  3  2  0
  2  1  1  0
  4  2  1  0
  5  6  1  0
  5  4  1  0
  6  8  1  0
  6  7  1  6
  8  9  2  0
 10 11  1  0
 12 11  1  0
 12 13  1  1
 12 14  1  0
 14 15  1  1
 15  8  1  0
 16 14  1  0
 16 17  2  0
 18 16  1  0
 19 18  1  0
 19 27  1  0
 19 20  1  1
 21 20  1  0
 21 26  2  0
 22 21  1  0
 23 22  2  0
 23 24  1  0
 24 25  2  0
 25 26  1  0
 27 29  2  0
 27 28  1  0
M  END
$$$$
