QIF.pdb
     RDKit          3D

 29 29  0  0  1  0  0  0  0  0999 V2000
   10.9591  -20.7352   22.2944 N   0  0  0  0  0  0  0  0  0  0  0  0
   12.2333  -20.4059   21.7637 C   0  0  0  0  0  0  0  0  0  0  0  0
   13.2433  -20.9318   22.2932 O   0  0  0  0  0  0  0  0  0  0  0  0
   12.3623  -19.4768   20.6284 C   0  0  0  0  0  0  0  0  0  0  0  0
   11.0159  -19.0333   20.0960 C   0  0  0  0  0  0  0  0  0  0  0  0
   11.1372  -17.6033   19.6699 C   0  0  2  0  0  0  0  0  0  0  0  0
   12.4858  -17.2627   19.2679 N   0  0  0  0  0  0  0  0  0  0  0  0
   10.6623  -16.6283   20.6357 C   0  0  0  0  0  0  0  0  0  0  0  0
   11.4885  -16.0467   21.3869 O   0  0  0  0  0  0  0  0  0  0  0  0
    6.7968  -13.0511   19.3628 C   0  0  0  0  0  0  0  0  0  0  0  0
    8.0302  -13.6591   19.9896 C   0  0  0  0  0  0  0  0  0  0  0  0
    7.6598  -14.5062   21.2055 C   0  0  2  0  0  0  0  0  0  0  0  0
    7.1169  -13.5309   22.2207 C   0  0  0  0  0  0  0  0  0  0  0  0
    8.9000  -15.1922   21.7555 C   0  0  2  0  0  0  0  0  0  0  0  0
    9.2967  -16.2615   20.8116 N   0  0  0  0  0  0  0  0  0  0  0  0
    8.5359  -15.8699   23.0211 C   0  0  0  0  0  0  0  0  0  0  0  0
    8.1524  -17.0858   22.9393 O   0  0  0  0  0  0  0  0  0  0  0  0
    8.5805  -15.2864   24.2983 N   0  0  0  0  0  0  0  0  0  0  0  0
    8.2873  -16.1178   25.4748 C   0  0  1  0  0  0  0  0  0  0  0  0
    8.6255  -15.3624   26.7309 C   0  0  0  0  0  0  0  0  0  0  0  0
    8.0260  -14.0163   26.6786 C   0  0  0  0  0  0  0  0  0  0  0  0
    6.6429  -13.8341   26.7667 C   0  0  0  0  0  0  0  0  0  0  0  0
    6.1418  -12.5597   26.7355 C   0  0  0  0  0  0  0  0  0  0  0  0
    6.9715  -11.4561   26.6193 C   0  0  0  0  0  0  0  0  0  0  0  0
    8.3358  -11.6356   26.5325 C   0  0  0  0  0  0  0  0  0  0  0  0
    8.8398  -12.9001   26.5630 C   0  0  0  0  0  0  0  0  0  0  0  0
    6.8811  -16.5415   25.4062 C   0  0  0  0  0  0  0  0  0  0  0  0
    6.3839  -17.5855   26.1680 O   0  0  0  0  0  0  0  0  0  0  0  0
    6.0729  -15.9470   24.6270 O   0  0  0  0  0  0  0  0  0  0  0  0
  2  3  2  0
  2  1  1  0
  4  2  1  0
  5  6  1  0
  5  4  1  0
  6  8  1  0
  6  7  1  1
  8  9  2  0
 10 11  1  0
 12 11  1  0
 12 13  1  1
 12 14  1  0
 14 15  1  6
 15  8  1  0
 16 14  1  0
 16 17  2  0
 18 16  1  0
 19 18  1  0
 19 27  1  0
 19 20  1  1
 21 20  1  0
 21 26  2  0
 22 21  1  0
 23 22  2  0
 23 24  1  0
 24 25  2  0
 25 26  1  0
 27 29  2  0
 27 28  1  0
M  END
$$$$
