QIF.pdb
     RDKit          3D

 29 29  0  0  1  0  0  0  0  0999 V2000
    8.4210  -21.2474   16.9146 N   0  0  0  0  0  0  0  0  0  0  0  0
    8.5622  -19.8872   16.5355 C   0  0  0  0  0  0  0  0  0  0  0  0
    8.4785  -19.6067   15.3142 O   0  0  0  0  0  0  0  0  0  0  0  0
    8.7992  -18.8416   17.5450 C   0  0  0  0  0  0  0  0  0  0  0  0
    7.8767  -18.9783   18.7380 C   0  0  0  0  0  0  0  0  0  0  0  0
    8.6862  -18.7454   19.9756 C   0  0  2  0  0  0  0  0  0  0  0  0
    7.9684  -19.1125   21.1783 N   0  0  0  0  0  0  0  0  0  0  0  0
    9.2168  -17.4017   20.1232 C   0  0  0  0  0  0  0  0  0  0  0  0
   10.0616  -16.9742   19.2933 O   0  0  0  0  0  0  0  0  0  0  0  0
    6.3317  -13.0180   20.4297 C   0  0  0  0  0  0  0  0  0  0  0  0
    7.5413  -13.8898   20.1825 C   0  0  0  0  0  0  0  0  0  0  0  0
    8.2980  -14.1498   21.4838 C   0  0  2  0  0  0  0  0  0  0  0  0
    8.8606  -12.8108   21.8924 C   0  0  0  0  0  0  0  0  0  0  0  0
    9.4289  -15.1351   21.2367 C   0  0  2  0  0  0  0  0  0  0  0  0
    8.8512  -16.4961   21.1608 N   0  0  0  0  0  0  0  0  0  0  0  0
   10.3207  -15.1281   22.4192 C   0  0  0  0  0  0  0  0  0  0  0  0
   10.9210  -14.0327   22.6874 O   0  0  0  0  0  0  0  0  0  0  0  0
   10.5562  -16.2234   23.2668 N   0  0  0  0  0  0  0  0  0  0  0  0
   10.7347  -15.9876   24.7069 C   0  0  1  0  0  0  0  0  0  0  0  0
    9.5280  -15.2814   25.2620 C   0  0  0  0  0  0  0  0  0  0  0  0
    9.7242  -15.0159   26.6989 C   0  0  0  0  0  0  0  0  0  0  0  0
    9.5226  -13.7410   27.2354 C   0  0  0  0  0  0  0  0  0  0  0  0
    9.6972  -13.5560   28.5813 C   0  0  0  0  0  0  0  0  0  0  0  0
   10.0666  -14.5989   29.4154 C   0  0  0  0  0  0  0  0  0  0  0  0
   10.2654  -15.8566   28.8865 C   0  0  0  0  0  0  0  0  0  0  0  0
   10.0933  -16.0465   27.5493 C   0  0  0  0  0  0  0  0  0  0  0  0
   11.0111  -17.2762   25.3586 C   0  0  0  0  0  0  0  0  0  0  0  0
   10.1710  -18.3689   25.2259 O   0  0  0  0  0  0  0  0  0  0  0  0
   12.0496  -17.4183   26.0764 O   0  0  0  0  0  0  0  0  0  0  0  0
  2  3  2  0
  2  1  1  0
  4  2  1  0
  5  6  1  0
  5  4  1  0
  6  8  1  0
  6  7  1  1
  8  9  2  0
 10 11  1  0
 12 11  1  0
 12 13  1  6
 12 14  1  0
 14 15  1  1
 15  8  1  0
 16 14  1  0
 16 17  2  0
 18 16  1  0
 19 18  1  0
 19 27  1  0
 19 20  1  1
 21 20  1  0
 21 26  2  0
 22 21  1  0
 23 22  2  0
 23 24  1  0
 24 25  2  0
 25 26  1  0
 27 29  2  0
 27 28  1  0
M  END
$$$$
