QIF.pdb
     RDKit          3D

 29 29  0  0  1  0  0  0  0  0999 V2000
    9.1053  -20.9467   17.0698 N   0  0  0  0  0  0  0  0  0  0  0  0
   10.2398  -20.0970   17.0022 C   0  0  0  0  0  0  0  0  0  0  0  0
   10.3884  -19.3975   15.9697 O   0  0  0  0  0  0  0  0  0  0  0  0
   11.2092  -20.0404   18.1094 C   0  0  0  0  0  0  0  0  0  0  0  0
   11.3915  -18.6335   18.6389 C   0  0  0  0  0  0  0  0  0  0  0  0
   10.6385  -18.5252   19.9282 C   0  0  2  0  0  0  0  0  0  0  0  0
    9.3330  -19.1469   19.8555 N   0  0  0  0  0  0  0  0  0  0  0  0
   10.5013  -17.1778   20.4524 C   0  0  0  0  0  0  0  0  0  0  0  0
   11.5261  -16.4600   20.5932 O   0  0  0  0  0  0  0  0  0  0  0  0
    7.2414  -12.1090   20.4651 C   0  0  0  0  0  0  0  0  0  0  0  0
    8.2097  -12.9706   21.2422 C   0  0  0  0  0  0  0  0  0  0  0  0
    8.1435  -14.4222   20.7710 C   0  0  2  0  0  0  0  0  0  0  0  0
    6.7764  -14.9123   21.1801 C   0  0  0  0  0  0  0  0  0  0  0  0
    9.2188  -15.2415   21.4663 C   0  0  2  0  0  0  0  0  0  0  0  0
    9.2657  -16.5791   20.8335 N   0  0  0  0  0  0  0  0  0  0  0  0
    8.8029  -15.4612   22.8707 C   0  0  0  0  0  0  0  0  0  0  0  0
    7.6536  -15.9858   23.0608 O   0  0  0  0  0  0  0  0  0  0  0  0
    9.5683  -15.1428   24.0050 N   0  0  0  0  0  0  0  0  0  0  0  0
    8.9925  -15.3605   25.3401 C   0  0  1  0  0  0  0  0  0  0  0  0
    7.5467  -14.9453   25.3464 C   0  0  0  0  0  0  0  0  0  0  0  0
    7.4109  -13.6257   25.9900 C   0  0  0  0  0  0  0  0  0  0  0  0
    8.4906  -12.7413   26.0667 C   0  0  0  0  0  0  0  0  0  0  0  0
    8.3021  -11.5190   26.6555 C   0  0  0  0  0  0  0  0  0  0  0  0
    7.0724  -11.1443   27.1726 C   0  0  0  0  0  0  0  0  0  0  0  0
    6.0072  -12.0165   27.0969 C   0  0  0  0  0  0  0  0  0  0  0  0
    6.1886  -13.2329   26.5126 C   0  0  0  0  0  0  0  0  0  0  0  0
    9.1999  -16.7676   25.7125 C   0  0  0  0  0  0  0  0  0  0  0  0
    9.5219  -17.7407   24.7814 O   0  0  0  0  0  0  0  0  0  0  0  0
    9.0836  -17.1307   26.9243 O   0  0  0  0  0  0  0  0  0  0  0  0
  2  3  2  0
  2  1  1  0
  4  2  1  0
  5  6  1  0
  5  4  1  0
  6  8  1  0
  6  7  1  6
  8  9  2  0
 10 11  1  0
 12 11  1  0
 12 13  1  1
 12 14  1  0
 14 15  1  6
 15  8  1  0
 16 14  1  0
 16 17  2  0
 18 16  1  0
 19 18  1  0
 19 27  1  0
 19 20  1  6
 21 20  1  0
 21 26  2  0
 22 21  1  0
 23 22  2  0
 23 24  1  0
 24 25  2  0
 25 26  1  0
 27 29  2  0
 27 28  1  0
M  END
$$$$
