QIF.pdb
     RDKit          3D

 29 29  0  0  1  0  0  0  0  0999 V2000
   13.3330  -21.2288   19.9540 N   0  0  0  0  0  0  0  0  0  0  0  0
   13.3386  -20.4908   18.7420 C   0  0  0  0  0  0  0  0  0  0  0  0
   14.2930  -20.6753   17.9469 O   0  0  0  0  0  0  0  0  0  0  0  0
   12.2578  -19.5401   18.4307 C   0  0  0  0  0  0  0  0  0  0  0  0
   12.0092  -18.5656   19.5627 C   0  0  0  0  0  0  0  0  0  0  0  0
   10.8362  -17.7140   19.1884 C   0  0  2  0  0  0  0  0  0  0  0  0
   10.9950  -17.1029   17.8854 N   0  0  0  0  0  0  0  0  0  0  0  0
   10.4789  -16.6937   20.1581 C   0  0  0  0  0  0  0  0  0  0  0  0
   11.3845  -15.9970   20.6872 O   0  0  0  0  0  0  0  0  0  0  0  0
    6.8266  -12.9998   19.2102 C   0  0  0  0  0  0  0  0  0  0  0  0
    8.0375  -13.6839   19.8015 C   0  0  0  0  0  0  0  0  0  0  0  0
    7.6440  -14.5408   21.0033 C   0  0  2  0  0  0  0  0  0  0  0  0
    7.1647  -13.5647   22.0493 C   0  0  0  0  0  0  0  0  0  0  0  0
    8.8570  -15.2993   21.5173 C   0  0  2  0  0  0  0  0  0  0  0  0
    9.1477  -16.4040   20.5755 N   0  0  0  0  0  0  0  0  0  0  0  0
    8.4979  -15.9358   22.8055 C   0  0  0  0  0  0  0  0  0  0  0  0
    8.0730  -17.1399   22.7598 O   0  0  0  0  0  0  0  0  0  0  0  0
    8.5890  -15.3256   24.0676 N   0  0  0  0  0  0  0  0  0  0  0  0
    8.2637  -16.1114   25.2668 C   0  0  1  0  0  0  0  0  0  0  0  0
    8.6336  -15.3357   26.5014 C   0  0  0  0  0  0  0  0  0  0  0  0
    7.9358  -14.0369   26.5006 C   0  0  0  0  0  0  0  0  0  0  0  0
    8.2403  -13.0502   25.5585 C   0  0  0  0  0  0  0  0  0  0  0  0
    7.5448  -11.8706   25.5898 C   0  0  0  0  0  0  0  0  0  0  0  0
    6.5531  -11.6373   26.5291 C   0  0  0  0  0  0  0  0  0  0  0  0
    6.2525  -12.6105   27.4584 C   0  0  0  0  0  0  0  0  0  0  0  0
    6.9406  -13.7852   27.4321 C   0  0  0  0  0  0  0  0  0  0  0  0
    6.8415  -16.4796   25.2101 C   0  0  0  0  0  0  0  0  0  0  0  0
    6.2849  -17.4193   26.0614 O   0  0  0  0  0  0  0  0  0  0  0  0
    6.0744  -15.9329   24.3578 O   0  0  0  0  0  0  0  0  0  0  0  0
  2  3  2  0
  2  1  1  0
  4  2  1  0
  5  6  1  0
  5  4  1  0
  6  8  1  0
  6  7  1  6
  8  9  2  0
 10 11  1  0
 12 11  1  0
 12 13  1  1
 12 14  1  0
 14 15  1  6
 15  8  1  0
 16 14  1  0
 16 17  2  0
 18 16  1  0
 19 18  1  0
 19 27  1  0
 19 20  1  1
 21 20  1  0
 21 26  2  0
 22 21  1  0
 23 22  2  0
 23 24  1  0
 24 25  2  0
 25 26  1  0
 27 29  2  0
 27 28  1  0
M  END
$$$$
