QIF.pdb
     RDKit          3D

 29 29  0  0  1  0  0  0  0  0999 V2000
   12.9768  -17.4749   15.9057 N   0  0  0  0  0  0  0  0  0  0  0  0
   11.7314  -18.0122   16.3227 C   0  0  0  0  0  0  0  0  0  0  0  0
   10.7170  -17.7479   15.6310 O   0  0  0  0  0  0  0  0  0  0  0  0
   11.6361  -18.8522   17.5286 C   0  0  0  0  0  0  0  0  0  0  0  0
   11.9474  -18.0774   18.7918 C   0  0  0  0  0  0  0  0  0  0  0  0
   10.7297  -18.1063   19.6621 C   0  0  2  0  0  0  0  0  0  0  0  0
    9.5204  -18.3563   18.9062 N   0  0  0  0  0  0  0  0  0  0  0  0
   10.5403  -16.9347   20.4990 C   0  0  0  0  0  0  0  0  0  0  0  0
   11.5314  -16.4241   21.0843 O   0  0  0  0  0  0  0  0  0  0  0  0
    7.1906  -12.9093   19.1527 C   0  0  0  0  0  0  0  0  0  0  0  0
    8.3700  -13.6577   19.7298 C   0  0  0  0  0  0  0  0  0  0  0  0
    8.0223  -14.2493   21.0946 C   0  0  2  0  0  0  0  0  0  0  0  0
    7.8248  -13.0626   22.0052 C   0  0  0  0  0  0  0  0  0  0  0  0
    9.1749  -15.1037   21.5970 C   0  0  2  0  0  0  0  0  0  0  0  0
    9.2880  -16.2925   20.7219 N   0  0  0  0  0  0  0  0  0  0  0  0
    8.8268  -15.6116   22.9440 C   0  0  0  0  0  0  0  0  0  0  0  0
    7.8035  -16.3714   23.0316 O   0  0  0  0  0  0  0  0  0  0  0  0
    9.5297  -15.3280   24.1269 N   0  0  0  0  0  0  0  0  0  0  0  0
    8.8952  -15.6149   25.4217 C   0  0  1  0  0  0  0  0  0  0  0  0
    7.4475  -15.2078   25.3822 C   0  0  0  0  0  0  0  0  0  0  0  0
    7.3138  -13.8032   25.8100 C   0  0  0  0  0  0  0  0  0  0  0  0
    6.0634  -13.2478   26.0961 C   0  0  0  0  0  0  0  0  0  0  0  0
    5.9996  -11.9441   26.5114 C   0  0  0  0  0  0  0  0  0  0  0  0
    7.1405  -11.1707   26.6527 C   0  0  0  0  0  0  0  0  0  0  0  0
    8.3741  -11.7184   26.3707 C   0  0  0  0  0  0  0  0  0  0  0  0
    8.4437  -13.0139   25.9575 C   0  0  0  0  0  0  0  0  0  0  0  0
    9.0957  -17.0377   25.7330 C   0  0  0  0  0  0  0  0  0  0  0  0
    9.7644  -17.8964   24.8770 O   0  0  0  0  0  0  0  0  0  0  0  0
    8.6478  -17.5226   26.8184 O   0  0  0  0  0  0  0  0  0  0  0  0
  2  3  2  0
  2  1  1  0
  4  2  1  0
  5  6  1  0
  5  4  1  0
  6  8  1  0
  6  7  1  6
  8  9  2  0
 10 11  1  0
 12 11  1  0
 12 13  1  1
 12 14  1  0
 14 15  1  6
 15  8  1  0
 16 14  1  0
 16 17  2  0
 18 16  1  0
 19 18  1  0
 19 27  1  0
 19 20  1  6
 21 20  1  0
 21 26  2  0
 22 21  1  0
 23 22  2  0
 23 24  1  0
 24 25  2  0
 25 26  1  0
 27 29  2  0
 27 28  1  0
M  END
$$$$
