QIF.pdb
     RDKit          3D

 29 29  0  0  1  0  0  0  0  0999 V2000
   14.7142  -18.3660   19.4092 N   0  0  0  0  0  0  0  0  0  0  0  0
   14.5828  -17.0093   19.0147 C   0  0  0  0  0  0  0  0  0  0  0  0
   15.6145  -16.4093   18.6236 O   0  0  0  0  0  0  0  0  0  0  0  0
   13.2768  -16.3306   19.0639 C   0  0  0  0  0  0  0  0  0  0  0  0
   12.1630  -17.2633   19.4911 C   0  0  0  0  0  0  0  0  0  0  0  0
   12.0422  -17.1846   20.9812 C   0  0  2  0  0  0  0  0  0  0  0  0
   12.3481  -18.4453   21.6242 N   0  0  0  0  0  0  0  0  0  0  0  0
   10.7681  -16.6905   21.4727 C   0  0  0  0  0  0  0  0  0  0  0  0
   10.6337  -15.4639   21.7228 O   0  0  0  0  0  0  0  0  0  0  0  0
    6.1389  -18.3450   19.3792 C   0  0  0  0  0  0  0  0  0  0  0  0
    7.1962  -17.4885   20.0368 C   0  0  0  0  0  0  0  0  0  0  0  0
    7.2002  -17.6975   21.5500 C   0  0  2  0  0  0  0  0  0  0  0  0
    5.8787  -17.1514   22.0316 C   0  0  0  0  0  0  0  0  0  0  0  0
    8.3444  -16.9174   22.1771 C   0  0  2  0  0  0  0  0  0  0  0  0
    9.6196  -17.5017   21.7036 N   0  0  0  0  0  0  0  0  0  0  0  0
    8.3080  -17.1324   23.6421 C   0  0  0  0  0  0  0  0  0  0  0  0
    9.1697  -17.9383   24.1323 O   0  0  0  0  0  0  0  0  0  0  0  0
    7.4080  -16.5223   24.5317 N   0  0  0  0  0  0  0  0  0  0  0  0
    7.4406  -16.8994   25.9523 C   0  0  1  0  0  0  0  0  0  0  0  0
    6.6932  -15.8804   26.7683 C   0  0  0  0  0  0  0  0  0  0  0  0
    7.1916  -14.5288   26.4541 C   0  0  0  0  0  0  0  0  0  0  0  0
    6.4644  -13.6593   25.6362 C   0  0  0  0  0  0  0  0  0  0  0  0
    6.9638  -12.4067   25.3958 C   0  0  0  0  0  0  0  0  0  0  0  0
    8.1659  -11.9872   25.9426 C   0  0  0  0  0  0  0  0  0  0  0  0
    8.8833  -12.8447   26.7495 C   0  0  0  0  0  0  0  0  0  0  0  0
    8.3918  -14.0911   26.9921 C   0  0  0  0  0  0  0  0  0  0  0  0
    6.9057  -18.2625   26.0841 C   0  0  0  0  0  0  0  0  0  0  0  0
    6.1998  -18.8830   25.0673 O   0  0  0  0  0  0  0  0  0  0  0  0
    7.0816  -18.9156   27.1595 O   0  0  0  0  0  0  0  0  0  0  0  0
  2  3  2  0
  2  1  1  0
  4  2  1  0
  5  6  1  0
  5  4  1  0
  6  8  1  0
  6  7  1  1
  8  9  2  0
 10 11  1  0
 12 11  1  0
 12 13  1  1
 12 14  1  0
 14 15  1  6
 15  8  1  0
 16 14  1  0
 16 17  2  0
 18 16  1  0
 19 18  1  0
 19 27  1  0
 19 20  1  1
 21 20  1  0
 21 26  2  0
 22 21  1  0
 23 22  2  0
 23 24  1  0
 24 25  2  0
 25 26  1  0
 27 29  2  0
 27 28  1  0
M  END
$$$$
