QIF.pdb
     RDKit          3D

 29 29  0  0  1  0  0  0  0  0999 V2000
   16.0263  -17.7648   21.9045 N   0  0  0  0  0  0  0  0  0  0  0  0
   15.6254  -18.0410   20.5716 C   0  0  0  0  0  0  0  0  0  0  0  0
   16.4625  -18.5814   19.8071 O   0  0  0  0  0  0  0  0  0  0  0  0
   14.2704  -17.7030   20.1042 C   0  0  0  0  0  0  0  0  0  0  0  0
   13.4348  -17.0581   21.1898 C   0  0  0  0  0  0  0  0  0  0  0  0
   12.4982  -16.0899   20.5366 C   0  0  2  0  0  0  0  0  0  0  0  0
   13.1988  -15.0761   19.7765 N   0  0  0  0  0  0  0  0  0  0  0  0
   11.5481  -15.4508   21.4298 C   0  0  0  0  0  0  0  0  0  0  0  0
   11.9651  -14.6540   22.3110 O   0  0  0  0  0  0  0  0  0  0  0  0
    7.2636  -13.0463   19.5743 C   0  0  0  0  0  0  0  0  0  0  0  0
    8.4378  -13.4431   20.4390 C   0  0  0  0  0  0  0  0  0  0  0  0
    8.0165  -14.4701   21.4885 C   0  0  2  0  0  0  0  0  0  0  0  0
    7.0384  -13.7485   22.3824 C   0  0  0  0  0  0  0  0  0  0  0  0
    9.2272  -14.9133   22.2939 C   0  0  2  0  0  0  0  0  0  0  0  0
   10.1384  -15.6550   21.3930 N   0  0  0  0  0  0  0  0  0  0  0  0
    8.7765  -15.8833   23.3184 C   0  0  0  0  0  0  0  0  0  0  0  0
    8.9481  -17.1227   23.0601 O   0  0  0  0  0  0  0  0  0  0  0  0
    8.1804  -15.5512   24.5464 N   0  0  0  0  0  0  0  0  0  0  0  0
    7.9097  -16.6178   25.5214 C   0  0  1  0  0  0  0  0  0  0  0  0
    7.5226  -16.0145   26.8439 C   0  0  0  0  0  0  0  0  0  0  0  0
    8.6154  -15.1573   27.3386 C   0  0  0  0  0  0  0  0  0  0  0  0
    8.5801  -13.7696   27.1745 C   0  0  0  0  0  0  0  0  0  0  0  0
    9.6116  -13.0194   27.6740 C   0  0  0  0  0  0  0  0  0  0  0  0
   10.6811  -13.6037   28.3335 C   0  0  0  0  0  0  0  0  0  0  0  0
   10.7161  -14.9725   28.4955 C   0  0  0  0  0  0  0  0  0  0  0  0
    9.6935  -15.7233   28.0012 C   0  0  0  0  0  0  0  0  0  0  0  0
    6.8843  -17.5105   24.9617 C   0  0  0  0  0  0  0  0  0  0  0  0
    6.7745  -18.8392   25.3356 O   0  0  0  0  0  0  0  0  0  0  0  0
    6.0584  -17.0730   24.1012 O   0  0  0  0  0  0  0  0  0  0  0  0
  2  3  2  0
  2  1  1  0
  4  2  1  0
  5  6  1  0
  5  4  1  0
  6  8  1  0
  6  7  1  1
  8  9  2  0
 10 11  1  0
 12 11  1  0
 12 13  1  1
 12 14  1  0
 14 15  1  6
 15  8  1  0
 16 14  1  0
 16 17  2  0
 18 16  1  0
 19 18  1  0
 19 27  1  0
 19 20  1  1
 21 20  1  0
 21 26  2  0
 22 21  1  0
 23 22  2  0
 23 24  1  0
 24 25  2  0
 25 26  1  0
 27 29  2  0
 27 28  1  0
M  END
$$$$
