QIF.pdb
     RDKit          3D

 29 29  0  0  1  0  0  0  0  0999 V2000
    9.0681  -20.7104   22.0081 N   0  0  0  0  0  0  0  0  0  0  0  0
   10.3006  -20.7787   21.3081 C   0  0  0  0  0  0  0  0  0  0  0  0
   11.2683  -21.3418   21.8771 O   0  0  0  0  0  0  0  0  0  0  0  0
   10.4360  -20.2063   19.9580 C   0  0  0  0  0  0  0  0  0  0  0  0
    9.1292  -19.6416   19.4421 C   0  0  0  0  0  0  0  0  0  0  0  0
    9.4240  -18.3361   18.7713 C   0  0  2  0  0  0  0  0  0  0  0  0
   10.4905  -18.4473   17.7983 N   0  0  0  0  0  0  0  0  0  0  0  0
    9.7052  -17.2297   19.6690 C   0  0  0  0  0  0  0  0  0  0  0  0
   10.8981  -16.9673   19.9747 O   0  0  0  0  0  0  0  0  0  0  0  0
    6.7189  -12.5565   19.6139 C   0  0  0  0  0  0  0  0  0  0  0  0
    7.8782  -13.5239   19.6772 C   0  0  0  0  0  0  0  0  0  0  0  0
    7.9277  -14.2237   21.0342 C   0  0  2  0  0  0  0  0  0  0  0  0
    8.1578  -13.1243   22.0417 C   0  0  0  0  0  0  0  0  0  0  0  0
    9.0852  -15.2087   21.0665 C   0  0  2  0  0  0  0  0  0  0  0  0
    8.7143  -16.3884   20.2525 N   0  0  0  0  0  0  0  0  0  0  0  0
    9.2442  -15.6965   22.4559 C   0  0  0  0  0  0  0  0  0  0  0  0
    8.4089  -16.5735   22.8626 O   0  0  0  0  0  0  0  0  0  0  0  0
   10.2365  -15.2760   23.3571 N   0  0  0  0  0  0  0  0  0  0  0  0
   10.1722  -15.7296   24.7540 C   0  0  1  0  0  0  0  0  0  0  0  0
   11.0953  -14.8994   25.6034 C   0  0  0  0  0  0  0  0  0  0  0  0
   10.6314  -14.9138   27.0028 C   0  0  0  0  0  0  0  0  0  0  0  0
    9.6383  -14.0361   27.4470 C   0  0  0  0  0  0  0  0  0  0  0  0
    9.2291  -14.1084   28.7523 C   0  0  0  0  0  0  0  0  0  0  0  0
    9.7754  -15.0269   29.6344 C   0  0  0  0  0  0  0  0  0  0  0  0
   10.7550  -15.8927   29.1963 C   0  0  0  0  0  0  0  0  0  0  0  0
   11.1657  -15.8255   27.8999 C   0  0  0  0  0  0  0  0  0  0  0  0
    8.7701  -15.6829   25.1942 C   0  0  0  0  0  0  0  0  0  0  0  0
    7.8921  -14.7005   24.7683 O   0  0  0  0  0  0  0  0  0  0  0  0
    8.3233  -16.5619   25.9952 O   0  0  0  0  0  0  0  0  0  0  0  0
  2  3  2  0
  2  1  1  0
  4  2  1  0
  5  6  1  0
  5  4  1  0
  6  8  1  0
  6  7  1  6
  8  9  2  0
 10 11  1  0
 12 11  1  0
 12 13  1  1
 12 14  1  0
 14 15  1  6
 15  8  1  0
 16 14  1  0
 16 17  2  0
 18 16  1  0
 19 18  1  0
 19 27  1  0
 19 20  1  1
 21 20  1  0
 21 26  2  0
 22 21  1  0
 23 22  2  0
 23 24  1  0
 24 25  2  0
 25 26  1  0
 27 29  2  0
 27 28  1  0
M  END
$$$$
