QIF.pdb
     RDKit          3D

 29 29  0  0  1  0  0  0  0  0999 V2000
   13.8032  -17.5994   19.4322 N   0  0  0  0  0  0  0  0  0  0  0  0
   12.7217  -16.8277   18.9337 C   0  0  0  0  0  0  0  0  0  0  0  0
   12.9626  -15.6539   18.5577 O   0  0  0  0  0  0  0  0  0  0  0  0
   11.3622  -17.3892   18.8614 C   0  0  0  0  0  0  0  0  0  0  0  0
   10.4843  -16.9109   19.9986 C   0  0  0  0  0  0  0  0  0  0  0  0
    9.1035  -17.4421   19.7697 C   0  0  2  0  0  0  0  0  0  0  0  0
    8.4886  -16.8805   18.5853 N   0  0  0  0  0  0  0  0  0  0  0  0
    8.1947  -17.3061   20.8942 C   0  0  0  0  0  0  0  0  0  0  0  0
    7.2972  -16.4236   20.8626 O   0  0  0  0  0  0  0  0  0  0  0  0
    5.1919  -21.1602   22.2262 C   0  0  0  0  0  0  0  0  0  0  0  0
    5.7728  -19.7735   22.0717 C   0  0  0  0  0  0  0  0  0  0  0  0
    6.5701  -19.3776   23.3131 C   0  0  2  0  0  0  0  0  0  0  0  0
    5.5633  -19.3310   24.4358 C   0  0  0  0  0  0  0  0  0  0  0  0
    7.1900  -18.0040   23.1136 C   0  0  2  0  0  0  0  0  0  0  0  0
    8.2331  -18.1121   22.0685 N   0  0  0  0  0  0  0  0  0  0  0  0
    7.8907  -17.6225   24.3614 C   0  0  0  0  0  0  0  0  0  0  0  0
    9.0838  -18.0538   24.5126 O   0  0  0  0  0  0  0  0  0  0  0  0
    7.3520  -16.8263   25.3860 N   0  0  0  0  0  0  0  0  0  0  0  0
    8.1870  -16.4991   26.5509 C   0  0  1  0  0  0  0  0  0  0  0  0
    7.6551  -15.2668   27.2303 C   0  0  0  0  0  0  0  0  0  0  0  0
    7.7301  -14.1188   26.3082 C   0  0  0  0  0  0  0  0  0  0  0  0
    6.6439  -13.2564   26.1334 C   0  0  0  0  0  0  0  0  0  0  0  0
    6.7764  -12.1923   25.2812 C   0  0  0  0  0  0  0  0  0  0  0  0
    7.9561  -11.9551   24.5941 C   0  0  0  0  0  0  0  0  0  0  0  0
    9.0277  -12.8055   24.7665 C   0  0  0  0  0  0  0  0  0  0  0  0
    8.9018  -13.8650   25.6124 C   0  0  0  0  0  0  0  0  0  0  0  0
    8.2407  -17.6762   27.4302 C   0  0  0  0  0  0  0  0  0  0  0  0
    7.3531  -18.7321   27.3099 O   0  0  0  0  0  0  0  0  0  0  0  0
    9.1217  -17.7514   28.3424 O   0  0  0  0  0  0  0  0  0  0  0  0
  2  3  2  0
  2  1  1  0
  4  2  1  0
  5  6  1  0
  5  4  1  0
  6  8  1  0
  6  7  1  6
  8  9  2  0
 10 11  1  0
 12 11  1  0
 12 13  1  1
 12 14  1  0
 14 15  1  6
 15  8  1  0
 16 14  1  0
 16 17  2  0
 18 16  1  0
 19 18  1  0
 19 27  1  0
 19 20  1  1
 21 20  1  0
 21 26  2  0
 22 21  1  0
 23 22  2  0
 23 24  1  0
 24 25  2  0
 25 26  1  0
 27 29  2  0
 27 28  1  0
M  END
$$$$
