RIT.pdb
     RDKit          3D

 27 26  0  0  1  0  0  0  0  0999 V2000
   18.3885  -26.3029   -7.5801 N   0  0  0  0  0  0  0  0  0  0  0  0
   18.0756  -25.1563   -6.7632 C   0  0  0  0  0  0  0  0  0  0  0  0
   17.7191  -25.3056   -5.5331 N   0  0  0  0  0  0  0  0  0  0  0  0
   18.1533  -23.8423   -7.2887 N   0  0  0  0  0  0  0  0  0  0  0  0
   18.1978  -23.5592   -8.7051 C   0  0  0  0  0  0  0  0  0  0  0  0
   19.4891  -24.0487   -9.3039 C   0  0  0  0  0  0  0  0  0  0  0  0
   20.1870  -22.9794  -10.1135 C   0  0  0  0  0  0  0  0  0  0  0  0
   19.4033  -22.9008  -11.4307 C   0  0  2  0  0  0  0  0  0  0  0  0
   18.9465  -24.2398  -11.7021 N   0  0  0  0  0  0  0  0  0  0  0  0
   20.3595  -22.4184  -12.4594 C   0  0  0  0  0  0  0  0  0  0  0  0
   21.1653  -23.2278  -13.0065 O   0  0  0  0  0  0  0  0  0  0  0  0
   17.4277  -24.4944   -4.9541 C   0  0  0  0  0  0  0  0  0  0  0  0
   18.0907  -18.9757  -15.3095 C   0  0  0  0  0  0  0  0  0  0  0  0
   19.2127  -19.9583  -15.2571 C   0  0  2  0  0  0  0  0  0  0  0  0
   20.4366  -19.3630  -14.5261 C   0  0  0  0  0  0  0  0  0  0  0  0
   21.2582  -18.6314  -15.5592 C   0  0  2  0  0  0  0  0  0  0  0  0
   21.1587  -20.5382  -13.9066 N   0  0  0  0  0  0  0  0  0  0  0  0
   20.3385  -21.0561  -12.7969 C   0  0  0  0  0  0  0  0  0  0  0  0
   22.5290  -20.2939  -13.4756 O   0  0  0  0  0  0  0  0  0  0  0  0
   22.6523  -19.4604  -12.4921 C   0  0  0  0  0  0  0  0  0  0  0  0
   25.4010  -22.0069  -11.7121 C   0  0  2  0  0  0  0  0  0  0  0  0
   25.8239  -21.5547  -13.0680 O   0  0  0  0  0  0  0  0  0  0  0  0
   25.9117  -22.5764  -14.0012 C   0  0  2  0  0  0  0  0  0  0  0  0
   24.9999  -20.3884  -13.5971 N   0  0  0  0  0  0  0  0  0  0  0  0
   23.6961  -20.8729  -14.0213 C   0  0  0  0  0  0  0  0  0  0  0  0
   25.7071  -19.7899  -14.7550 O   0  0  0  0  0  0  0  0  0  0  0  0
   25.1488  -19.7586  -15.8644 O   0  0  0  0  0  0  0  0  0  0  0  0
  2  3  2  0
  2  1  1  0
  4  2  1  0
  5  4  1  0
  6  5  1  0
  7  6  1  0
  8  7  1  0
  8 10  1  0
  8  9  1  6
 10 17  1  0
 11 10  2  0
 12 13  1  0
 13 14  1  0
 14 15  1  1
 16 14  1  0
 16 18  1  0
 16 17  1  6
 18 19  2  0
 18 24  1  0
 21 22  1  0
 21 20  1  1
 23 21  1  0
 23 24  1  6
 25 23  1  0
 25 27  1  0
 26 25  2  0
M  END
$$$$
