RIT.pdb
     RDKit          3D

 27 26  0  0  1  0  0  0  0  0999 V2000
   23.0784  -16.6522  -17.7156 N   0  0  0  0  0  0  0  0  0  0  0  0
   22.4582  -17.9263  -17.9838 C   0  0  0  0  0  0  0  0  0  0  0  0
   21.7137  -18.0868  -19.0242 N   0  0  0  0  0  0  0  0  0  0  0  0
   22.6516  -19.0297  -17.1155 N   0  0  0  0  0  0  0  0  0  0  0  0
   23.6696  -19.0593  -16.0903 C   0  0  0  0  0  0  0  0  0  0  0  0
   23.1047  -18.6137  -14.7682 C   0  0  0  0  0  0  0  0  0  0  0  0
   23.2150  -19.6854  -13.7074 C   0  0  0  0  0  0  0  0  0  0  0  0
   24.6725  -19.6264  -13.2305 C   0  0  2  0  0  0  0  0  0  0  0  0
   25.4579  -20.2300  -14.2764 N   0  0  0  0  0  0  0  0  0  0  0  0
   24.7324  -20.4056  -11.9677 C   0  0  0  0  0  0  0  0  0  0  0  0
   24.5671  -21.6610  -11.9879 O   0  0  0  0  0  0  0  0  0  0  0  0
   21.2824  -19.0059  -19.2417 C   0  0  0  0  0  0  0  0  0  0  0  0
   27.6494  -20.6324   -6.8666 C   0  0  0  0  0  0  0  0  0  0  0  0
   26.2361  -20.5313   -7.3349 C   0  0  2  0  0  0  0  0  0  0  0  0
   26.1448  -19.7285   -8.6516 C   0  0  0  0  0  0  0  0  0  0  0  0
   25.7651  -18.3148   -8.2842 C   0  0  2  0  0  0  0  0  0  0  0  0
   25.1026  -20.4314   -9.4918 N   0  0  0  0  0  0  0  0  0  0  0  0
   24.9738  -19.7119  -10.7716 C   0  0  0  0  0  0  0  0  0  0  0  0
   23.8007  -20.6266   -8.8671 O   0  0  0  0  0  0  0  0  0  0  0  0
   23.1644  -19.5365   -8.5775 C   0  0  0  0  0  0  0  0  0  0  0  0
   21.1959  -23.5308   -9.7100 C   0  0  2  0  0  0  0  0  0  0  0  0
   20.8356  -22.2912   -8.9648 O   0  0  0  0  0  0  0  0  0  0  0  0
   19.5644  -22.3150   -8.4118 C   0  0  1  0  0  0  0  0  0  0  0  0
   21.8814  -21.8828   -7.9358 N   0  0  0  0  0  0  0  0  0  0  0  0
   23.1932  -21.8650   -8.5630 C   0  0  0  0  0  0  0  0  0  0  0  0
   21.8742  -22.8700   -6.8293 O   0  0  0  0  0  0  0  0  0  0  0  0
   22.8717  -23.5863   -6.6409 O   0  0  0  0  0  0  0  0  0  0  0  0
  2  3  2  0
  2  1  1  0
  4  2  1  0
  5  4  1  0
  6  5  1  0
  7  6  1  0
  8  7  1  0
  8 10  1  0
  8  9  1  6
 10 17  1  0
 11 10  2  0
 12 13  1  0
 13 14  1  0
 14 15  1  6
 16 14  1  0
 16 18  1  0
 16 17  1  1
 18 19  2  0
 18 24  1  0
 21 22  1  0
 21 20  1  6
 23 21  1  0
 23 24  1  6
 25 23  1  0
 25 27  1  0
 26 25  2  0
M  END
$$$$
