RIT.pdb
     RDKit          3D

 27 26  0  0  1  0  0  0  0  0999 V2000
   24.8973  -17.5199  -17.0051 N   0  0  0  0  0  0  0  0  0  0  0  0
   25.5125  -17.3787  -18.3019 C   0  0  0  0  0  0  0  0  0  0  0  0
   24.8178  -16.9971  -19.3188 N   0  0  0  0  0  0  0  0  0  0  0  0
   26.8903  -17.6530  -18.4902 N   0  0  0  0  0  0  0  0  0  0  0  0
   27.7570  -18.1105  -17.4283 C   0  0  0  0  0  0  0  0  0  0  0  0
   27.8718  -19.6113  -17.4461 C   0  0  0  0  0  0  0  0  0  0  0  0
   26.8950  -20.2720  -16.4999 C   0  0  0  0  0  0  0  0  0  0  0  0
   27.7615  -20.8577  -15.3766 C   0  0  2  0  0  0  0  0  0  0  0  0
   28.5439  -21.9044  -15.9827 N   0  0  0  0  0  0  0  0  0  0  0  0
   26.8224  -21.3842  -14.3538 C   0  0  0  0  0  0  0  0  0  0  0  0
   26.1213  -22.4088  -14.6032 O   0  0  0  0  0  0  0  0  0  0  0  0
   25.2592  -16.8437  -20.2461 C   0  0  0  0  0  0  0  0  0  0  0  0
   28.7262  -20.8996   -9.8944 C   0  0  0  0  0  0  0  0  0  0  0  0
   27.6268  -21.6680  -10.5488 C   0  0  2  0  0  0  0  0  0  0  0  0
   26.3689  -20.7897  -10.7301 C   0  0  0  0  0  0  0  0  0  0  0  0
   25.4411  -21.1006   -9.5810 C   0  0  2  0  0  0  0  0  0  0  0  0
   25.7982  -21.1605  -12.0802 N   0  0  0  0  0  0  0  0  0  0  0  0
   26.7410  -20.7158  -13.1221 C   0  0  0  0  0  0  0  0  0  0  0  0
   24.4486  -20.6863  -12.3579 O   0  0  0  0  0  0  0  0  0  0  0  0
   24.3125  -19.3985  -12.3655 C   0  0  0  0  0  0  0  0  0  0  0  0
   21.3269  -23.0790  -13.8448 C   0  0  2  0  0  0  0  0  0  0  0  0
   21.3628  -21.6040  -14.0563 O   0  0  0  0  0  0  0  0  0  0  0  0
   20.1305  -21.0484  -14.3648 C   0  0  1  0  0  0  0  0  0  0  0  0
   22.0435  -20.8501  -12.9216 N   0  0  0  0  0  0  0  0  0  0  0  0
   23.3138  -21.4875  -12.6136 C   0  0  0  0  0  0  0  0  0  0  0  0
   21.1660  -20.8905  -11.7268 O   0  0  0  0  0  0  0  0  0  0  0  0
   21.5224  -21.5353  -10.7265 O   0  0  0  0  0  0  0  0  0  0  0  0
  2  3  2  0
  2  1  1  0
  4  2  1  0
  5  4  1  0
  6  5  1  0
  7  6  1  0
  8  7  1  0
  8 10  1  0
  8  9  1  6
 10 17  1  0
 11 10  2  0
 12 13  1  0
 13 14  1  0
 14 15  1  6
 16 14  1  0
 16 18  1  0
 16 17  1  6
 18 19  2  0
 18 24  1  0
 21 22  1  0
 21 20  1  6
 23 21  1  0
 23 24  1  6
 25 23  1  0
 25 27  1  0
 26 25  2  0
M  END
$$$$
