RIT.pdb
     RDKit          3D

 27 26  0  0  1  0  0  0  0  0999 V2000
   17.8613  -22.4019  -11.1966 N   0  0  0  0  0  0  0  0  0  0  0  0
   17.6966  -23.6019  -11.9795 C   0  0  0  0  0  0  0  0  0  0  0  0
   16.6814  -24.3738  -11.7901 N   0  0  0  0  0  0  0  0  0  0  0  0
   18.6412  -23.9605  -12.9735 N   0  0  0  0  0  0  0  0  0  0  0  0
   19.8589  -23.2193  -13.2102 C   0  0  0  0  0  0  0  0  0  0  0  0
   19.5788  -21.9837  -14.0229 C   0  0  0  0  0  0  0  0  0  0  0  0
   20.8092  -21.1229  -14.1997 C   0  0  0  0  0  0  0  0  0  0  0  0
   21.2296  -20.7305  -12.7768 C   0  0  2  0  0  0  0  0  0  0  0  0
   20.3748  -19.6347  -12.3976 N   0  0  0  0  0  0  0  0  0  0  0  0
   22.6554  -20.3234  -12.8581 C   0  0  0  0  0  0  0  0  0  0  0  0
   22.9675  -19.1980  -13.3478 O   0  0  0  0  0  0  0  0  0  0  0  0
   16.5042  -25.1917  -12.4048 C   0  0  0  0  0  0  0  0  0  0  0  0
   25.5734  -19.7156   -9.8614 C   0  0  0  0  0  0  0  0  0  0  0  0
   25.2377  -21.1545  -10.0710 C   0  0  1  0  0  0  0  0  0  0  0  0
   25.8029  -21.6651  -11.4150 C   0  0  0  0  0  0  0  0  0  0  0  0
   27.2880  -21.3970  -11.4026 C   0  0  2  0  0  0  0  0  0  0  0  0
   25.0635  -20.9012  -12.4901 N   0  0  0  0  0  0  0  0  0  0  0  0
   23.6279  -21.2164  -12.3814 C   0  0  0  0  0  0  0  0  0  0  0  0
   25.5397  -21.0911  -13.8541 O   0  0  0  0  0  0  0  0  0  0  0  0
   25.8864  -22.3037  -14.1483 C   0  0  0  0  0  0  0  0  0  0  0  0
   23.9129  -20.7667  -17.3081 C   0  0  2  0  0  0  0  0  0  0  0  0
   25.1603  -19.9550  -17.2262 O   0  0  0  0  0  0  0  0  0  0  0  0
   24.9390  -18.5920  -17.1007 C   0  0  2  0  0  0  0  0  0  0  0  0
   26.1372  -20.4584  -16.1718 N   0  0  0  0  0  0  0  0  0  0  0  0
   25.6492  -20.0961  -14.8507 C   0  0  0  0  0  0  0  0  0  0  0  0
   27.4581  -19.8254  -16.4031 O   0  0  0  0  0  0  0  0  0  0  0  0
   27.8715  -18.9630  -15.6100 O   0  0  0  0  0  0  0  0  0  0  0  0
  2  3  2  0
  2  1  1  0
  4  2  1  0
  5  4  1  0
  6  5  1  0
  7  6  1  0
  8  7  1  0
  8 10  1  0
  8  9  1  6
 10 17  1  0
 11 10  2  0
 12 13  1  0
 13 14  1  0
 14 15  1  1
 16 14  1  0
 16 18  1  0
 16 17  1  6
 18 19  2  0
 18 24  1  0
 21 22  1  0
 21 20  1  6
 23 21  1  0
 23 24  1  6
 25 23  1  0
 25 27  1  0
 26 25  2  0
M  END
$$$$
