RIT.pdb
     RDKit          3D

 27 26  0  0  1  0  0  0  0  0999 V2000
   13.4414  -21.2183  -14.2172 N   0  0  0  0  0  0  0  0  0  0  0  0
   14.5022  -20.5095  -14.8897 C   0  0  0  0  0  0  0  0  0  0  0  0
   14.2839  -19.9140  -16.0123 N   0  0  0  0  0  0  0  0  0  0  0  0
   15.8053  -20.4483  -14.3354 N   0  0  0  0  0  0  0  0  0  0  0  0
   16.1410  -21.0017  -13.0434 C   0  0  0  0  0  0  0  0  0  0  0  0
   16.9318  -22.2729  -13.1996 C   0  0  0  0  0  0  0  0  0  0  0  0
   17.2904  -22.8921  -11.8677 C   0  0  0  0  0  0  0  0  0  0  0  0
   18.1537  -24.1126  -12.2145 C   0  0  2  0  0  0  0  0  0  0  0  0
   17.6933  -24.5732  -13.4994 N   0  0  0  0  0  0  0  0  0  0  0  0
   17.9136  -25.1138  -11.1443 C   0  0  0  0  0  0  0  0  0  0  0  0
   16.7296  -25.4266  -10.8216 O   0  0  0  0  0  0  0  0  0  0  0  0
   15.0561  -19.4709  -16.5465 C   0  0  0  0  0  0  0  0  0  0  0  0
   20.9701  -29.2710  -11.3931 C   0  0  0  0  0  0  0  0  0  0  0  0
   19.8411  -28.3473  -11.0780 C   0  0  2  0  0  0  0  0  0  0  0  0
   19.9994  -27.7402   -9.6663 C   0  0  0  0  0  0  0  0  0  0  0  0
   19.9430  -28.8834   -8.6826 C   0  0  2  0  0  0  0  0  0  0  0  0
   18.8616  -26.7568   -9.5103 N   0  0  0  0  0  0  0  0  0  0  0  0
   19.0274  -25.6902  -10.5139 C   0  0  0  0  0  0  0  0  0  0  0  0
   18.6755  -26.1979   -8.1776 O   0  0  0  0  0  0  0  0  0  0  0  0
   19.5983  -25.3728   -7.7970 C   0  0  0  0  0  0  0  0  0  0  0  0
   16.1142  -25.0546   -4.1343 C   0  0  2  0  0  0  0  0  0  0  0  0
   16.2145  -25.5147   -5.5484 O   0  0  0  0  0  0  0  0  0  0  0  0
   15.6528  -24.6411   -6.4669 C   0  0  1  0  0  0  0  0  0  0  0  0
   17.6281  -25.9123   -5.9526 N   0  0  0  0  0  0  0  0  0  0  0  0
   17.6064  -26.4699   -7.2954 C   0  0  0  0  0  0  0  0  0  0  0  0
   18.1285  -26.9327   -5.0001 O   0  0  0  0  0  0  0  0  0  0  0  0
   17.7543  -28.1120   -5.1131 O   0  0  0  0  0  0  0  0  0  0  0  0
  2  3  2  0
  2  1  1  0
  4  2  1  0
  5  4  1  0
  6  5  1  0
  7  6  1  0
  8  7  1  0
  8 10  1  0
  8  9  1  6
 10 17  1  0
 11 10  2  0
 12 13  1  0
 13 14  1  0
 14 15  1  1
 16 14  1  0
 16 18  1  0
 16 17  1  6
 18 19  2  0
 18 24  1  0
 21 22  1  0
 21 20  1  1
 23 21  1  0
 23 24  1  1
 25 23  1  0
 25 27  1  0
 26 25  2  0
M  END
$$$$
