RIT.pdb
     RDKit          3D

 27 26  0  0  1  0  0  0  0  0999 V2000
   19.0105  -24.3773   -8.5450 N   0  0  0  0  0  0  0  0  0  0  0  0
   18.2157  -25.1734   -9.4476 C   0  0  0  0  0  0  0  0  0  0  0  0
   17.2423  -25.8927   -9.0033 N   0  0  0  0  0  0  0  0  0  0  0  0
   18.4823  -25.1840  -10.8396 N   0  0  0  0  0  0  0  0  0  0  0  0
   19.4886  -24.3511  -11.4576 C   0  0  0  0  0  0  0  0  0  0  0  0
   18.8771  -23.0791  -11.9806 C   0  0  0  0  0  0  0  0  0  0  0  0
   19.8827  -22.2172  -12.7099 C   0  0  0  0  0  0  0  0  0  0  0  0
   20.5028  -21.3240  -11.6268 C   0  0  2  0  0  0  0  0  0  0  0  0
   19.4274  -20.5124  -11.1170 N   0  0  0  0  0  0  0  0  0  0  0  0
   21.5451  -20.5093  -12.3012 C   0  0  0  0  0  0  0  0  0  0  0  0
   21.2698  -19.3461  -12.7195 O   0  0  0  0  0  0  0  0  0  0  0  0
   16.6692  -26.4776   -9.6418 C   0  0  0  0  0  0  0  0  0  0  0  0
   26.8373  -22.2253  -11.4876 C   0  0  0  0  0  0  0  0  0  0  0  0
   25.5999  -21.9186  -12.2634 C   0  0  2  0  0  0  0  0  0  0  0  0
   25.1279  -20.4706  -12.0037 C   0  0  0  0  0  0  0  0  0  0  0  0
   24.7639  -20.3779  -10.5420 C   0  0  1  0  0  0  0  0  0  0  0  0
   23.9542  -20.2471  -12.9303 N   0  0  0  0  0  0  0  0  0  0  0  0
   22.8243  -21.0661  -12.4563 C   0  0  0  0  0  0  0  0  0  0  0  0
   24.2051  -20.4709  -14.3482 O   0  0  0  0  0  0  0  0  0  0  0  0
   24.0419  -21.6925  -14.7459 C   0  0  0  0  0  0  0  0  0  0  0  0
   22.6926  -19.0360  -17.6968 C   0  0  2  0  0  0  0  0  0  0  0  0
   24.1725  -18.8834  -17.6064 O   0  0  0  0  0  0  0  0  0  0  0  0
   24.5900  -17.5920  -17.3226 C   0  0  2  0  0  0  0  0  0  0  0  0
   24.8256  -19.8957  -16.6747 N   0  0  0  0  0  0  0  0  0  0  0  0
   24.5964  -19.4984  -15.2948 C   0  0  0  0  0  0  0  0  0  0  0  0
   26.2831  -19.9247  -16.9467 O   0  0  0  0  0  0  0  0  0  0  0  0
   27.0758  -19.5136  -16.0828 O   0  0  0  0  0  0  0  0  0  0  0  0
  2  3  2  0
  2  1  1  0
  4  2  1  0
  5  4  1  0
  6  5  1  0
  7  6  1  0
  8  7  1  0
  8 10  1  0
  8  9  1  6
 10 17  1  0
 11 10  2  0
 12 13  1  0
 13 14  1  0
 14 15  1  6
 16 14  1  0
 16 18  1  0
 16 17  1  1
 18 19  2  0
 18 24  1  0
 21 22  1  0
 21 20  1  6
 23 21  1  0
 23 24  1  6
 25 23  1  0
 25 27  1  0
 26 25  2  0
M  END
$$$$
