RIT.pdb
     RDKit          3D

 27 26  0  0  1  0  0  0  0  0999 V2000
   29.3848  -17.1401  -18.7172 N   0  0  0  0  0  0  0  0  0  0  0  0
   27.9622  -16.9039  -18.7370 C   0  0  0  0  0  0  0  0  0  0  0  0
   27.3567  -16.6416  -19.8447 N   0  0  0  0  0  0  0  0  0  0  0  0
   27.1969  -16.9555  -17.5451 N   0  0  0  0  0  0  0  0  0  0  0  0
   27.7707  -17.2384  -16.2494 C   0  0  0  0  0  0  0  0  0  0  0  0
   28.1166  -18.6984  -16.1293 C   0  0  0  0  0  0  0  0  0  0  0  0
   26.9542  -19.5231  -15.6246 C   0  0  0  0  0  0  0  0  0  0  0  0
   27.5569  -20.4556  -14.5651 C   0  0  2  0  0  0  0  0  0  0  0  0
   28.2413  -21.4938  -15.2922 N   0  0  0  0  0  0  0  0  0  0  0  0
   26.4162  -20.9863  -13.7760 C   0  0  0  0  0  0  0  0  0  0  0  0
   25.6780  -21.8948  -14.2593 O   0  0  0  0  0  0  0  0  0  0  0  0
   26.3333  -16.4683  -19.8716 C   0  0  0  0  0  0  0  0  0  0  0  0
   26.9596  -20.7367   -8.4357 C   0  0  0  0  0  0  0  0  0  0  0  0
   26.5564  -21.1754   -9.8040 C   0  0  2  0  0  0  0  0  0  0  0  0
   25.2665  -20.4568  -10.2584 C   0  0  0  0  0  0  0  0  0  0  0  0
   24.1656  -20.8846   -9.3189 C   0  0  2  0  0  0  0  0  0  0  0  0
   25.0365  -20.8881  -11.6892 N   0  0  0  0  0  0  0  0  0  0  0  0
   26.1895  -20.4530  -12.4976 C   0  0  0  0  0  0  0  0  0  0  0  0
   23.7815  -20.4604  -12.2938 O   0  0  0  0  0  0  0  0  0  0  0  0
   23.6421  -19.1786  -12.4151 C   0  0  0  0  0  0  0  0  0  0  0  0
   22.3384  -20.7873  -15.7181 C   0  0  2  0  0  0  0  0  0  0  0  0
   21.3351  -21.2728  -14.7284 O   0  0  0  0  0  0  0  0  0  0  0  0
   21.1931  -22.6517  -14.6994 C   0  0  2  0  0  0  0  0  0  0  0  0
   21.5469  -20.7067  -13.3305 N   0  0  0  0  0  0  0  0  0  0  0  0
   22.7392  -21.2996  -12.7461 C   0  0  0  0  0  0  0  0  0  0  0  0
   20.3674  -21.0405  -12.4959 O   0  0  0  0  0  0  0  0  0  0  0  0
   20.4957  -21.8216  -11.5384 O   0  0  0  0  0  0  0  0  0  0  0  0
  2  3  2  0
  2  1  1  0
  4  2  1  0
  5  4  1  0
  6  5  1  0
  7  6  1  0
  8  7  1  0
  8 10  1  0
  8  9  1  6
 10 17  1  0
 11 10  2  0
 12 13  1  0
 13 14  1  0
 14 15  1  6
 16 14  1  0
 16 18  1  0
 16 17  1  6
 18 19  2  0
 18 24  1  0
 21 22  1  0
 21 20  1  6
 23 21  1  0
 23 24  1  1
 25 23  1  0
 25 27  1  0
 26 25  2  0
M  END
$$$$
