RIT.pdb
     RDKit          3D

 27 26  0  0  1  0  0  0  0  0999 V2000
   19.1964  -25.1704  -14.3729 N   0  0  0  0  0  0  0  0  0  0  0  0
   18.5109  -24.8583  -13.1430 C   0  0  0  0  0  0  0  0  0  0  0  0
   17.9226  -25.7854  -12.4670 N   0  0  0  0  0  0  0  0  0  0  0  0
   18.4680  -23.5311  -12.6475 N   0  0  0  0  0  0  0  0  0  0  0  0
   19.2036  -22.4404  -13.2454 C   0  0  0  0  0  0  0  0  0  0  0  0
   20.1223  -22.9481  -14.3242 C   0  0  0  0  0  0  0  0  0  0  0  0
   21.1270  -21.9053  -14.7591 C   0  0  0  0  0  0  0  0  0  0  0  0
   21.2627  -20.9573  -13.5598 C   0  0  2  0  0  0  0  0  0  0  0  0
   20.3999  -19.8378  -13.8381 N   0  0  0  0  0  0  0  0  0  0  0  0
   22.6919  -20.5586  -13.5001 C   0  0  0  0  0  0  0  0  0  0  0  0
   23.0699  -19.4699  -14.0250 O   0  0  0  0  0  0  0  0  0  0  0  0
   17.4292  -25.5739  -11.5783 C   0  0  0  0  0  0  0  0  0  0  0  0
   25.0834  -21.1376   -8.9554 C   0  0  0  0  0  0  0  0  0  0  0  0
   24.7157  -20.7300  -10.3431 C   0  0  2  0  0  0  0  0  0  0  0  0
   25.5189  -21.5356  -11.3883 C   0  0  0  0  0  0  0  0  0  0  0  0
   26.9794  -21.2368  -11.1524 C   0  0  2  0  0  0  0  0  0  0  0  0
   25.0212  -21.0712  -12.7384 N   0  0  0  0  0  0  0  0  0  0  0  0
   23.5933  -21.4180  -12.8525 C   0  0  0  0  0  0  0  0  0  0  0  0
   25.7696  -21.5450  -13.8953 O   0  0  0  0  0  0  0  0  0  0  0  0
   25.9976  -22.8197  -13.9142 C   0  0  0  0  0  0  0  0  0  0  0  0
   25.2940  -20.8685  -17.9121 C   0  0  2  0  0  0  0  0  0  0  0  0
   26.6546  -20.6211  -17.3559 O   0  0  0  0  0  0  0  0  0  0  0  0
   26.9684  -19.2786  -17.2095 C   0  0  2  0  0  0  0  0  0  0  0  0
   26.9318  -21.3991  -16.0764 N   0  0  0  0  0  0  0  0  0  0  0  0
   26.2497  -20.7566  -14.9644 C   0  0  0  0  0  0  0  0  0  0  0  0
   28.3934  -21.4024  -15.8262 O   0  0  0  0  0  0  0  0  0  0  0  0
   28.8559  -20.7316  -14.8883 O   0  0  0  0  0  0  0  0  0  0  0  0
  2  3  2  0
  2  1  1  0
  4  2  1  0
  5  4  1  0
  6  5  1  0
  7  6  1  0
  8  7  1  0
  8 10  1  0
  8  9  1  6
 10 17  1  0
 11 10  2  0
 12 13  1  0
 13 14  1  0
 14 15  1  6
 16 14  1  0
 16 18  1  0
 16 17  1  6
 18 19  2  0
 18 24  1  0
 21 22  1  0
 21 20  1  6
 23 21  1  0
 23 24  1  6
 25 23  1  0
 25 27  1  0
 26 25  2  0
M  END
$$$$
