RIT.pdb
     RDKit          3D

 27 26  0  0  1  0  0  0  0  0999 V2000
   18.4480  -23.2472  -11.7254 N   0  0  0  0  0  0  0  0  0  0  0  0
   18.2926  -24.3477  -12.6445 C   0  0  0  0  0  0  0  0  0  0  0  0
   17.5140  -25.3350  -12.3592 N   0  0  0  0  0  0  0  0  0  0  0  0
   18.9872  -24.3711  -13.8798 N   0  0  0  0  0  0  0  0  0  0  0  0
   20.1637  -23.5732  -14.1397 C   0  0  0  0  0  0  0  0  0  0  0  0
   19.8409  -22.4415  -15.0781 C   0  0  0  0  0  0  0  0  0  0  0  0
   20.9195  -21.3820  -15.0907 C   0  0  0  0  0  0  0  0  0  0  0  0
   21.0200  -20.8974  -13.6379 C   0  0  2  0  0  0  0  0  0  0  0  0
   20.0198  -19.8712  -13.4910 N   0  0  0  0  0  0  0  0  0  0  0  0
   22.3954  -20.3642  -13.4679 C   0  0  0  0  0  0  0  0  0  0  0  0
   22.7112  -19.2484  -13.9769 O   0  0  0  0  0  0  0  0  0  0  0  0
   17.4621  -26.1741  -12.9686 C   0  0  0  0  0  0  0  0  0  0  0  0
   26.2805  -19.9117   -9.8764 C   0  0  0  0  0  0  0  0  0  0  0  0
   26.6149  -20.7708  -11.0499 C   0  0  2  0  0  0  0  0  0  0  0  0
   25.3751  -21.5562  -11.5326 C   0  0  0  0  0  0  0  0  0  0  0  0
   25.8696  -22.8715  -12.0832 C   0  0  2  0  0  0  0  0  0  0  0  0
   24.7117  -20.6812  -12.5721 N   0  0  0  0  0  0  0  0  0  0  0  0
   23.3171  -21.1290  -12.7359 C   0  0  0  0  0  0  0  0  0  0  0  0
   25.3876  -20.5906  -13.8598 O   0  0  0  0  0  0  0  0  0  0  0  0
   25.3186  -21.6581  -14.5897 C   0  0  0  0  0  0  0  0  0  0  0  0
   26.8813  -16.9986  -15.5085 C   0  0  2  0  0  0  0  0  0  0  0  0
   26.3566  -18.1074  -16.3553 O   0  0  0  0  0  0  0  0  0  0  0  0
   26.7985  -18.0714  -17.6690 C   0  0  1  0  0  0  0  0  0  0  0  0
   26.5616  -19.4844  -15.7378 N   0  0  0  0  0  0  0  0  0  0  0  0
   26.0871  -19.4715  -14.3633 C   0  0  0  0  0  0  0  0  0  0  0  0
   28.0087  -19.8074  -15.7598 O   0  0  0  0  0  0  0  0  0  0  0  0
   28.6606  -19.7710  -14.7028 O   0  0  0  0  0  0  0  0  0  0  0  0
  2  3  2  0
  2  1  1  0
  4  2  1  0
  5  4  1  0
  6  5  1  0
  7  6  1  0
  8  7  1  0
  8 10  1  0
  8  9  1  6
 10 17  1  0
 11 10  2  0
 12 13  1  0
 13 14  1  0
 14 15  1  6
 16 14  1  0
 16 18  1  0
 16 17  1  6
 18 19  2  0
 18 24  1  0
 21 22  1  0
 21 20  1  6
 23 21  1  0
 23 24  1  6
 25 23  1  0
 25 27  1  0
 26 25  2  0
M  END
$$$$
