RIT.pdb
     RDKit          3D

 27 26  0  0  1  0  0  0  0  0999 V2000
   29.3783  -17.8261  -19.0558 N   0  0  0  0  0  0  0  0  0  0  0  0
   28.3441  -18.8231  -19.1842 C   0  0  0  0  0  0  0  0  0  0  0  0
   28.4964  -19.8270  -19.9788 N   0  0  0  0  0  0  0  0  0  0  0  0
   27.1403  -18.7260  -18.4423 N   0  0  0  0  0  0  0  0  0  0  0  0
   26.8508  -17.6300  -17.5461 C   0  0  0  0  0  0  0  0  0  0  0  0
   27.3016  -17.9548  -16.1472 C   0  0  0  0  0  0  0  0  0  0  0  0
   26.2551  -18.7226  -15.3716 C   0  0  0  0  0  0  0  0  0  0  0  0
   26.9912  -19.9482  -14.8136 C   0  0  2  0  0  0  0  0  0  0  0  0
   27.4526  -20.6904  -15.9588 N   0  0  0  0  0  0  0  0  0  0  0  0
   25.9944  -20.7105  -14.0196 C   0  0  0  0  0  0  0  0  0  0  0  0
   25.2343  -21.5476  -14.5900 O   0  0  0  0  0  0  0  0  0  0  0  0
   27.7836  -20.5795  -20.0392 C   0  0  0  0  0  0  0  0  0  0  0  0
   25.6124  -19.7250   -8.3805 C   0  0  0  0  0  0  0  0  0  0  0  0
   25.4038  -19.7708   -9.8575 C   0  0  2  0  0  0  0  0  0  0  0  0
   25.4671  -21.2229  -10.3811 C   0  0  0  0  0  0  0  0  0  0  0  0
   26.9078  -21.6640  -10.2933 C   0  0  1  0  0  0  0  0  0  0  0  0
   24.9391  -21.1740  -11.7971 N   0  0  0  0  0  0  0  0  0  0  0  0
   25.9259  -20.4729  -12.6379 C   0  0  0  0  0  0  0  0  0  0  0  0
   23.6084  -20.6048  -11.9658 O   0  0  0  0  0  0  0  0  0  0  0  0
   23.4692  -19.3980  -11.5168 C   0  0  0  0  0  0  0  0  0  0  0  0
   21.3016  -21.3450  -15.1272 C   0  0  2  0  0  0  0  0  0  0  0  0
   21.1123  -20.1600  -14.2431 O   0  0  0  0  0  0  0  0  0  0  0  0
   19.9431  -19.4557  -14.4869 C   0  0  1  0  0  0  0  0  0  0  0  0
   21.2677  -20.4831  -12.7629 N   0  0  0  0  0  0  0  0  0  0  0  0
   22.4944  -21.2374  -12.5607 C   0  0  0  0  0  0  0  0  0  0  0  0
   20.1075  -21.2972  -12.3269 O   0  0  0  0  0  0  0  0  0  0  0  0
   18.9723  -20.7926  -12.3221 O   0  0  0  0  0  0  0  0  0  0  0  0
  2  3  2  0
  2  1  1  0
  4  2  1  0
  5  4  1  0
  6  5  1  0
  7  6  1  0
  8  7  1  0
  8 10  1  0
  8  9  1  6
 10 17  1  0
 11 10  2  0
 12 13  1  0
 13 14  1  0
 14 15  1  1
 16 14  1  0
 16 18  1  0
 16 17  1  6
 18 19  2  0
 18 24  1  0
 21 22  1  0
 21 20  1  6
 23 21  1  0
 23 24  1  6
 25 23  1  0
 25 27  1  0
 26 25  2  0
M  END
$$$$
