RIT.pdb
     RDKit          3D

 27 26  0  0  1  0  0  0  0  0999 V2000
   27.5413  -25.2081  -16.7901 N   0  0  0  0  0  0  0  0  0  0  0  0
   26.9150  -26.4981  -16.9442 C   0  0  0  0  0  0  0  0  0  0  0  0
   27.2814  -27.2960  -17.8885 N   0  0  0  0  0  0  0  0  0  0  0  0
   25.8867  -26.9202  -16.0648 N   0  0  0  0  0  0  0  0  0  0  0  0
   25.2770  -26.0491  -15.0863 C   0  0  0  0  0  0  0  0  0  0  0  0
   24.6926  -24.8314  -15.7505 C   0  0  0  0  0  0  0  0  0  0  0  0
   23.1878  -24.7717  -15.6160 C   0  0  0  0  0  0  0  0  0  0  0  0
   22.9273  -24.6209  -14.1111 C   0  0  2  0  0  0  0  0  0  0  0  0
   21.6300  -25.1996  -13.8721 N   0  0  0  0  0  0  0  0  0  0  0  0
   22.9493  -23.1638  -13.8256 C   0  0  0  0  0  0  0  0  0  0  0  0
   21.9350  -22.4509  -14.0838 O   0  0  0  0  0  0  0  0  0  0  0  0
   26.8428  -28.2298  -18.0055 C   0  0  0  0  0  0  0  0  0  0  0  0
   25.6501  -21.4243   -9.5442 C   0  0  0  0  0  0  0  0  0  0  0  0
   24.7035  -21.5781  -10.6876 C   0  0  2  0  0  0  0  0  0  0  0  0
   25.2736  -20.9313  -11.9695 C   0  0  0  0  0  0  0  0  0  0  0  0
   25.5053  -19.4714  -11.6648 C   0  0  2  0  0  0  0  0  0  0  0  0
   24.2362  -21.1632  -13.0448 N   0  0  0  0  0  0  0  0  0  0  0  0
   24.1154  -22.6148  -13.2697 C   0  0  0  0  0  0  0  0  0  0  0  0
   24.4449  -20.4540  -14.3005 O   0  0  0  0  0  0  0  0  0  0  0  0
   25.6842  -20.3113  -14.6483 C   0  0  0  0  0  0  0  0  0  0  0  0
   24.2688  -21.0986  -17.8820 C   0  0  2  0  0  0  0  0  0  0  0  0
   23.3943  -19.9318  -17.5729 O   0  0  0  0  0  0  0  0  0  0  0  0
   22.0415  -20.2342  -17.5395 C   0  0  2  0  0  0  0  0  0  0  0  0
   23.8244  -19.1717  -16.3253 N   0  0  0  0  0  0  0  0  0  0  0  0
   23.4413  -19.9283  -15.1441 C   0  0  0  0  0  0  0  0  0  0  0  0
   23.1458  -17.8533  -16.3112 O   0  0  0  0  0  0  0  0  0  0  0  0
   23.4202  -17.0136  -17.1848 O   0  0  0  0  0  0  0  0  0  0  0  0
  2  3  2  0
  2  1  1  0
  4  2  1  0
  5  4  1  0
  6  5  1  0
  7  6  1  0
  8  7  1  0
  8 10  1  0
  8  9  1  6
 10 17  1  0
 11 10  2  0
 12 13  1  0
 13 14  1  0
 14 15  1  6
 16 14  1  0
 16 18  1  0
 16 17  1  1
 18 19  2  0
 18 24  1  0
 21 22  1  0
 21 20  1  6
 23 21  1  0
 23 24  1  6
 25 23  1  0
 25 27  1  0
 26 25  2  0
M  END
$$$$
