RIT.pdb
     RDKit          3D

 27 26  0  0  1  0  0  0  0  0999 V2000
   23.9385  -24.1369  -16.4849 N   0  0  0  0  0  0  0  0  0  0  0  0
   23.6060  -25.0664  -15.4335 C   0  0  0  0  0  0  0  0  0  0  0  0
   24.3533  -26.0919  -15.2047 N   0  0  0  0  0  0  0  0  0  0  0  0
   22.4556  -24.8763  -14.6276 N   0  0  0  0  0  0  0  0  0  0  0  0
   21.2399  -24.2677  -15.1172 C   0  0  0  0  0  0  0  0  0  0  0  0
   21.5138  -22.8852  -15.6457 C   0  0  0  0  0  0  0  0  0  0  0  0
   20.7300  -21.8237  -14.9074 C   0  0  0  0  0  0  0  0  0  0  0  0
   21.3146  -21.8106  -13.4885 C   0  0  2  0  0  0  0  0  0  0  0  0
   20.2704  -21.3079  -12.6329 N   0  0  0  0  0  0  0  0  0  0  0  0
   22.4892  -20.9029  -13.5273 C   0  0  0  0  0  0  0  0  0  0  0  0
   22.3211  -19.6484  -13.5707 O   0  0  0  0  0  0  0  0  0  0  0  0
   24.1126  -26.7801  -14.4654 C   0  0  0  0  0  0  0  0  0  0  0  0
   25.9287  -21.2560   -9.9074 C   0  0  0  0  0  0  0  0  0  0  0  0
   25.1297  -20.8206  -11.0902 C   0  0  2  0  0  0  0  0  0  0  0  0
   25.8902  -21.0996  -12.4056 C   0  0  0  0  0  0  0  0  0  0  0  0
   27.1912  -20.3377  -12.3363 C   0  0  2  0  0  0  0  0  0  0  0  0
   24.9781  -20.6310  -13.5167 N   0  0  0  0  0  0  0  0  0  0  0  0
   23.7705  -21.4760  -13.5151 C   0  0  0  0  0  0  0  0  0  0  0  0
   25.5695  -20.5648  -14.8467 O   0  0  0  0  0  0  0  0  0  0  0  0
   26.1875  -21.6385  -15.2242 C   0  0  0  0  0  0  0  0  0  0  0  0
   24.3610  -20.5036  -18.4442 C   0  0  2  0  0  0  0  0  0  0  0  0
   25.1954  -19.3084  -18.1330 O   0  0  0  0  0  0  0  0  0  0  0  0
   24.4635  -18.1517  -17.9117 C   0  0  2  0  0  0  0  0  0  0  0  0
   26.2011  -19.5515  -17.0155 N   0  0  0  0  0  0  0  0  0  0  0  0
   25.5247  -19.4644  -15.7311 C   0  0  0  0  0  0  0  0  0  0  0  0
   27.2586  -18.5147  -17.0902 O   0  0  0  0  0  0  0  0  0  0  0  0
   27.3430  -17.6600  -16.1925 O   0  0  0  0  0  0  0  0  0  0  0  0
  2  3  2  0
  2  1  1  0
  4  2  1  0
  5  4  1  0
  6  5  1  0
  7  6  1  0
  8  7  1  0
  8 10  1  0
  8  9  1  1
 10 17  1  0
 11 10  2  0
 12 13  1  0
 13 14  1  0
 14 15  1  6
 16 14  1  0
 16 18  1  0
 16 17  1  6
 18 19  2  0
 18 24  1  0
 21 22  1  0
 21 20  1  6
 23 21  1  0
 23 24  1  6
 25 23  1  0
 25 27  1  0
 26 25  2  0
M  END
$$$$
