MAR.pdb
     RDKit          3D

 25 24  0  0  1  0  0  0  0  0999 V2000
    6.6551  -19.3314   24.4217 C   0  0  0  0  0  0  0  0  0  0  0  0
    6.0009  -20.4700   23.1793 S   0  0  0  0  0  0  0  0  0  0  0  0
    5.7174  -19.5990   21.6394 C   0  0  0  0  0  0  0  0  0  0  0  0
    6.8164  -18.5804   21.3482 C   0  0  0  0  0  0  0  0  0  0  0  0
    6.4342  -17.8104   20.0851 C   0  0  2  0  0  0  0  0  0  0  0  0
    6.4803  -18.6720   18.9228 N   0  0  0  0  0  0  0  0  0  0  0  0
    7.2994  -16.6489   19.8594 C   0  0  0  0  0  0  0  0  0  0  0  0
    8.4631  -16.8937   19.3881 O   0  0  0  0  0  0  0  0  0  0  0  0
    7.0508  -12.9282   20.0918 C   0  0  0  0  0  0  0  0  0  0  0  0
    7.9079  -14.1937   19.9560 C   0  0  2  0  0  0  0  0  0  0  0  0
    6.9863  -15.3017   20.1056 N   0  0  0  0  0  0  0  0  0  0  0  0
    8.9145  -14.2667   21.0387 C   0  0  0  0  0  0  0  0  0  0  0  0
    9.8801  -13.4957   21.0345 O   0  0  0  0  0  0  0  0  0  0  0  0
    8.0009  -12.1546   27.1519 N   0  0  0  0  0  0  0  0  0  0  0  0
    6.6398  -12.4543   26.8663 C   0  0  0  0  0  0  0  0  0  0  0  0
    5.7254  -11.5458   26.8991 N   0  0  0  0  0  0  0  0  0  0  0  0
    6.2843  -13.7876   26.5366 N   0  0  0  0  0  0  0  0  0  0  0  0
    7.3332  -14.7034   26.1604 C   0  0  0  0  0  0  0  0  0  0  0  0
    7.9928  -14.3277   24.8389 C   0  0  0  0  0  0  0  0  0  0  0  0
    8.9734  -15.4208   24.5164 C   0  0  0  0  0  0  0  0  0  0  0  0
    9.7067  -15.2194   23.2264 C   0  0  2  0  0  0  0  0  0  0  0  0
    8.7949  -15.2254   22.1097 N   0  0  0  0  0  0  0  0  0  0  0  0
   10.8150  -16.1384   23.0018 C   0  0  0  0  0  0  0  0  0  0  0  0
   10.5738  -17.2556   22.4744 O   0  0  0  0  0  0  0  0  0  0  0  0
   12.1356  -15.8907   23.3218 O   0  0  0  0  0  0  0  0  0  0  0  0
  2  1  1  0
  2  3  1  0
  4  3  1  0
  4  5  1  0
  5  6  1  6
  7  5  1  0
  7  8  2  0
 10  9  1  1
 10 11  1  0
 10 12  1  0
 11  7  1  0
 12 22  1  0
 13 12  2  0
 14 15  1  0
 15 16  2  0
 17 15  1  0
 17 18  1  0
 19 18  1  0
 20 19  1  0
 21 23  1  0
 21 20  1  1
 22 21  1  0
 23 24  2  0
 23 25  1  0
M  END
$$$$
