MAR.pdb
     RDKit          3D

 25 24  0  0  1  0  0  0  0  0999 V2000
    6.9397  -11.0692   27.4510 C   0  0  0  0  0  0  0  0  0  0  0  0
    7.3577  -12.3528   26.2487 S   0  0  0  0  0  0  0  0  0  0  0  0
    7.2840  -13.9660   27.0248 C   0  0  0  0  0  0  0  0  0  0  0  0
    7.7047  -15.0798   26.0694 C   0  0  0  0  0  0  0  0  0  0  0  0
    7.5886  -16.4132   26.8063 C   0  0  2  0  0  0  0  0  0  0  0  0
    8.3745  -16.4001   28.0219 N   0  0  0  0  0  0  0  0  0  0  0  0
    8.0054  -17.5457   25.9744 C   0  0  0  0  0  0  0  0  0  0  0  0
    9.2206  -17.9242   26.1020 O   0  0  0  0  0  0  0  0  0  0  0  0
    6.4643  -19.9340   23.5531 C   0  0  0  0  0  0  0  0  0  0  0  0
    7.7119  -19.2435   24.1199 C   0  0  2  0  0  0  0  0  0  0  0  0
    7.2143  -18.2555   25.0557 N   0  0  0  0  0  0  0  0  0  0  0  0
    8.4599  -18.5464   23.0497 C   0  0  0  0  0  0  0  0  0  0  0  0
    8.1009  -18.6607   21.8729 O   0  0  0  0  0  0  0  0  0  0  0  0
    8.3185  -12.1720   18.3812 N   0  0  0  0  0  0  0  0  0  0  0  0
    8.2631  -13.5219   17.9354 C   0  0  0  0  0  0  0  0  0  0  0  0
    8.2412  -13.8201   16.6811 N   0  0  0  0  0  0  0  0  0  0  0  0
    8.2324  -14.5630   18.8987 N   0  0  0  0  0  0  0  0  0  0  0  0
    8.2949  -14.2068   20.2950 C   0  0  0  0  0  0  0  0  0  0  0  0
    9.5234  -14.7796   20.9914 C   0  0  0  0  0  0  0  0  0  0  0  0
    9.0382  -15.8812   21.8923 C   0  0  0  0  0  0  0  0  0  0  0  0
   10.1253  -16.7809   22.3932 C   0  0  2  0  0  0  0  0  0  0  0  0
    9.6094  -17.7283   23.3496 N   0  0  0  0  0  0  0  0  0  0  0  0
   11.2968  -16.0921   22.9189 C   0  0  0  0  0  0  0  0  0  0  0  0
   11.9532  -15.3449   22.1473 O   0  0  0  0  0  0  0  0  0  0  0  0
   11.7638  -16.1859   24.2154 O   0  0  0  0  0  0  0  0  0  0  0  0
  2  1  1  0
  2  3  1  0
  4  3  1  0
  4  5  1  0
  5  6  1  1
  7  5  1  0
  7  8  2  0
 10  9  1  6
 10 11  1  0
 10 12  1  0
 11  7  1  0
 12 22  1  0
 13 12  2  0
 14 15  1  0
 15 16  2  0
 17 15  1  0
 17 18  1  0
 19 18  1  0
 20 19  1  0
 21 23  1  0
 21 20  1  1
 22 21  1  0
 23 24  2  0
 23 25  1  0
M  END
$$$$
