MAR.pdb
     RDKit          3D

 25 24  0  0  1  0  0  0  0  0999 V2000
    7.8609  -12.4845   27.8912 C   0  0  0  0  0  0  0  0  0  0  0  0
    6.2139  -12.4357   27.1476 S   0  0  0  0  0  0  0  0  0  0  0  0
    5.8913  -13.9659   26.2731 C   0  0  0  0  0  0  0  0  0  0  0  0
    6.8293  -14.1530   25.0834 C   0  0  0  0  0  0  0  0  0  0  0  0
    6.1492  -15.0805   24.0776 C   0  0  2  0  0  0  0  0  0  0  0  0
    5.9021  -16.3816   24.6620 N   0  0  0  0  0  0  0  0  0  0  0  0
    6.9363  -15.2436   22.8519 C   0  0  0  0  0  0  0  0  0  0  0  0
    7.2161  -16.4455   22.5153 O   0  0  0  0  0  0  0  0  0  0  0  0
    8.4902  -13.0303   20.2644 C   0  0  0  0  0  0  0  0  0  0  0  0
    8.2440  -14.4300   20.8431 C   0  0  2  0  0  0  0  0  0  0  0  0
    7.4137  -14.2234   22.0124 N   0  0  0  0  0  0  0  0  0  0  0  0
    9.5162  -15.0541   21.2708 C   0  0  0  0  0  0  0  0  0  0  0  0
   10.4589  -15.1371   20.4764 O   0  0  0  0  0  0  0  0  0  0  0  0
   12.6463  -15.9962   28.4534 N   0  0  0  0  0  0  0  0  0  0  0  0
   11.3991  -15.3712   28.7328 C   0  0  0  0  0  0  0  0  0  0  0  0
   11.2388  -14.6104   29.7615 N   0  0  0  0  0  0  0  0  0  0  0  0
   10.3074  -15.5927   27.8543 N   0  0  0  0  0  0  0  0  0  0  0  0
   10.4791  -16.5284   26.7702 C   0  0  0  0  0  0  0  0  0  0  0  0
   11.0741  -15.8806   25.5257 C   0  0  0  0  0  0  0  0  0  0  0  0
   10.7870  -16.8048   24.3751 C   0  0  0  0  0  0  0  0  0  0  0  0
   10.9296  -16.1636   23.0294 C   0  0  2  0  0  0  0  0  0  0  0  0
    9.6844  -15.5732   22.6061 N   0  0  0  0  0  0  0  0  0  0  0  0
   11.4769  -17.0296   21.9932 C   0  0  0  0  0  0  0  0  0  0  0  0
   10.6798  -17.6164   21.2154 O   0  0  0  0  0  0  0  0  0  0  0  0
   12.8202  -17.2714   21.7813 O   0  0  0  0  0  0  0  0  0  0  0  0
  2  1  1  0
  2  3  1  0
  4  3  1  0
  4  5  1  0
  5  6  1  1
  7  5  1  0
  7  8  2  0
 10  9  1  1
 10 11  1  0
 10 12  1  0
 11  7  1  0
 12 22  1  0
 13 12  2  0
 14 15  1  0
 15 16  2  0
 17 15  1  0
 17 18  1  0
 19 18  1  0
 20 19  1  0
 21 23  1  0
 21 20  1  1
 22 21  1  0
 23 24  2  0
 23 25  1  0
M  END
$$$$
