MAR.pdb
     RDKit          3D

 25 24  0  0  1  0  0  0  0  0999 V2000
    4.8333  -11.4659   27.1203 C   0  0  0  0  0  0  0  0  0  0  0  0
    6.4911  -11.2364   26.4369 S   0  0  0  0  0  0  0  0  0  0  0  0
    7.3943  -12.7830   26.4887 C   0  0  0  0  0  0  0  0  0  0  0  0
    6.6968  -13.8792   25.6874 C   0  0  0  0  0  0  0  0  0  0  0  0
    7.7660  -14.7083   24.9775 C   0  0  2  0  0  0  0  0  0  0  0  0
    9.0747  -14.1125   25.1440 N   0  0  0  0  0  0  0  0  0  0  0  0
    7.4867  -14.8674   23.5474 C   0  0  0  0  0  0  0  0  0  0  0  0
    6.4062  -15.4827   23.2472 O   0  0  0  0  0  0  0  0  0  0  0  0
    7.6781  -13.1845   20.5384 C   0  0  0  0  0  0  0  0  0  0  0  0
    7.9570  -14.5947   21.0751 C   0  0  2  0  0  0  0  0  0  0  0  0
    8.2776  -14.4176   22.4770 N   0  0  0  0  0  0  0  0  0  0  0  0
    9.1265  -15.1952   20.3949 C   0  0  0  0  0  0  0  0  0  0  0  0
    9.0337  -15.5602   19.2181 O   0  0  0  0  0  0  0  0  0  0  0  0
   12.9064  -18.7828   26.5714 N   0  0  0  0  0  0  0  0  0  0  0  0
   11.9102  -19.7602   26.2950 C   0  0  0  0  0  0  0  0  0  0  0  0
   11.6190  -20.6880   27.1417 N   0  0  0  0  0  0  0  0  0  0  0  0
   11.2217  -19.7081   25.0556 N   0  0  0  0  0  0  0  0  0  0  0  0
   10.9256  -18.4148   24.4900 C   0  0  0  0  0  0  0  0  0  0  0  0
   10.1920  -18.5120   23.1577 C   0  0  0  0  0  0  0  0  0  0  0  0
    9.9285  -17.1034   22.7029 C   0  0  0  0  0  0  0  0  0  0  0  0
   10.8009  -16.6561   21.5710 C   0  0  2  0  0  0  0  0  0  0  0  0
   10.3848  -15.3665   21.0790 N   0  0  0  0  0  0  0  0  0  0  0  0
   10.9302  -17.6149   20.4814 C   0  0  0  0  0  0  0  0  0  0  0  0
    9.8968  -18.2078   20.0748 O   0  0  0  0  0  0  0  0  0  0  0  0
   12.1090  -17.9404   19.8393 O   0  0  0  0  0  0  0  0  0  0  0  0
  2  1  1  0
  2  3  1  0
  4  3  1  0
  4  5  1  0
  5  6  1  6
  7  5  1  0
  7  8  2  0
 10  9  1  6
 10 11  1  0
 10 12  1  0
 11  7  1  0
 12 22  1  0
 13 12  2  0
 14 15  1  0
 15 16  2  0
 17 15  1  0
 17 18  1  0
 19 18  1  0
 20 19  1  0
 21 23  1  0
 21 20  1  1
 22 21  1  0
 23 24  2  0
 23 25  1  0
M  END
$$$$
