MAR.pdb
     RDKit          3D

 25 24  0  0  1  0  0  0  0  0999 V2000
    8.9667  -17.8398   16.8419 C   0  0  0  0  0  0  0  0  0  0  0  0
    8.0003  -16.7612   15.7599 S   0  0  0  0  0  0  0  0  0  0  0  0
    7.6343  -15.2210   16.5991 C   0  0  0  0  0  0  0  0  0  0  0  0
    8.5265  -15.0091   17.8194 C   0  0  0  0  0  0  0  0  0  0  0  0
    8.0630  -13.7430   18.5383 C   0  0  2  0  0  0  0  0  0  0  0  0
    8.4405  -12.5604   17.7937 N   0  0  0  0  0  0  0  0  0  0  0  0
    8.6000  -13.6485   19.8988 C   0  0  0  0  0  0  0  0  0  0  0  0
    9.8609  -13.4569   19.9971 O   0  0  0  0  0  0  0  0  0  0  0  0
    7.3238  -13.3597   23.3765 C   0  0  0  0  0  0  0  0  0  0  0  0
    8.4662  -13.7392   22.4250 C   0  0  2  0  0  0  0  0  0  0  0  0
    7.8789  -13.7463   21.1005 N   0  0  0  0  0  0  0  0  0  0  0  0
    8.9722  -15.0974   22.7251 C   0  0  0  0  0  0  0  0  0  0  0  0
    8.3138  -16.0877   22.3894 O   0  0  0  0  0  0  0  0  0  0  0  0
   16.4204  -15.5615   20.2706 N   0  0  0  0  0  0  0  0  0  0  0  0
   15.2705  -14.9103   19.7435 C   0  0  0  0  0  0  0  0  0  0  0  0
   15.3692  -13.8817   18.9721 N   0  0  0  0  0  0  0  0  0  0  0  0
   13.9849  -15.4091   20.0770 N   0  0  0  0  0  0  0  0  0  0  0  0
   13.7302  -15.7867   21.4455 C   0  0  0  0  0  0  0  0  0  0  0  0
   12.3480  -16.3993   21.6368 C   0  0  0  0  0  0  0  0  0  0  0  0
   12.1946  -16.6756   23.1066 C   0  0  0  0  0  0  0  0  0  0  0  0
   10.7796  -16.6145   23.5929 C   0  0  2  0  0  0  0  0  0  0  0  0
   10.2279  -15.2957   23.4067 N   0  0  0  0  0  0  0  0  0  0  0  0
   10.5815  -17.0761   24.9607 C   0  0  0  0  0  0  0  0  0  0  0  0
   10.1158  -16.2693   25.8073 O   0  0  0  0  0  0  0  0  0  0  0  0
   10.8642  -18.3462   25.4241 O   0  0  0  0  0  0  0  0  0  0  0  0
  2  1  1  0
  2  3  1  0
  4  3  1  0
  4  5  1  0
  5  6  1  6
  7  5  1  0
  7  8  2  0
 10  9  1  1
 10 11  1  0
 10 12  1  0
 11  7  1  0
 12 22  1  0
 13 12  2  0
 14 15  1  0
 15 16  2  0
 17 15  1  0
 17 18  1  0
 19 18  1  0
 20 19  1  0
 21 23  1  0
 21 20  1  1
 22 21  1  0
 23 24  2  0
 23 25  1  0
M  END
$$$$
