MAR.pdb
     RDKit          3D

 25 24  0  0  1  0  0  0  0  0999 V2000
    8.5549  -11.5487   20.4184 C   0  0  0  0  0  0  0  0  0  0  0  0
    7.1845  -12.7229   20.3115 S   0  0  0  0  0  0  0  0  0  0  0  0
    7.8127  -14.4007   20.3339 C   0  0  0  0  0  0  0  0  0  0  0  0
    9.0172  -14.5725   19.4120 C   0  0  0  0  0  0  0  0  0  0  0  0
    9.5614  -15.9887   19.5927 C   0  0  2  0  0  0  0  0  0  0  0  0
    8.4962  -16.9650   19.5047 N   0  0  0  0  0  0  0  0  0  0  0  0
   10.2643  -16.1550   20.8682 C   0  0  0  0  0  0  0  0  0  0  0  0
   11.3549  -15.5003   21.0025 O   0  0  0  0  0  0  0  0  0  0  0  0
    9.6821  -17.8793   24.1322 C   0  0  0  0  0  0  0  0  0  0  0  0
   10.6153  -17.1145   23.1842 C   0  0  2  0  0  0  0  0  0  0  0  0
    9.8679  -16.9545   21.9532 N   0  0  0  0  0  0  0  0  0  0  0  0
   11.8352  -17.9021   22.8976 C   0  0  0  0  0  0  0  0  0  0  0  0
   11.7654  -18.9066   22.1814 O   0  0  0  0  0  0  0  0  0  0  0  0
   16.3738  -13.8678   19.5107 N   0  0  0  0  0  0  0  0  0  0  0  0
   15.5466  -14.6052   18.6184 C   0  0  0  0  0  0  0  0  0  0  0  0
   15.0945  -14.0851   17.5285 N   0  0  0  0  0  0  0  0  0  0  0  0
   15.2142  -15.9466   18.9394 N   0  0  0  0  0  0  0  0  0  0  0  0
   15.7030  -16.4954   20.1804 C   0  0  0  0  0  0  0  0  0  0  0  0
   14.6001  -17.1426   21.0094 C   0  0  0  0  0  0  0  0  0  0  0  0
   15.2400  -17.6286   22.2802 C   0  0  0  0  0  0  0  0  0  0  0  0
   14.2942  -18.3223   23.2111 C   0  0  2  0  0  0  0  0  0  0  0  0
   13.1170  -17.5220   23.4392 N   0  0  0  0  0  0  0  0  0  0  0  0
   14.8833  -18.7572   24.4709 C   0  0  0  0  0  0  0  0  0  0  0  0
   14.4319  -18.2786   25.5441 O   0  0  0  0  0  0  0  0  0  0  0  0
   15.9150  -19.6667   24.5985 O   0  0  0  0  0  0  0  0  0  0  0  0
  2  1  1  0
  2  3  1  0
  4  3  1  0
  4  5  1  0
  5  6  1  1
  7  5  1  0
  7  8  2  0
 10  9  1  1
 10 11  1  0
 10 12  1  0
 11  7  1  0
 12 22  1  0
 13 12  2  0
 14 15  1  0
 15 16  2  0
 17 15  1  0
 17 18  1  0
 19 18  1  0
 20 19  1  0
 21 23  1  0
 21 20  1  1
 22 21  1  0
 23 24  2  0
 23 25  1  0
M  END
$$$$
