MAR.pdb
     RDKit          3D

 25 24  0  0  1  0  0  0  0  0999 V2000
    7.9499  -11.0292   19.3238 C   0  0  0  0  0  0  0  0  0  0  0  0
    7.5811  -12.5460   18.4120 S   0  0  0  0  0  0  0  0  0  0  0  0
    8.2302  -13.9639   19.2944 C   0  0  0  0  0  0  0  0  0  0  0  0
    8.0654  -13.8214   20.8052 C   0  0  0  0  0  0  0  0  0  0  0  0
    8.6440  -15.0692   21.4706 C   0  0  2  0  0  0  0  0  0  0  0  0
    7.7996  -16.2200   21.2295 N   0  0  0  0  0  0  0  0  0  0  0  0
    8.8230  -14.8962   22.9150 C   0  0  0  0  0  0  0  0  0  0  0  0
    9.9795  -14.5072   23.2990 O   0  0  0  0  0  0  0  0  0  0  0  0
    6.6524  -14.7540   25.9285 C   0  0  0  0  0  0  0  0  0  0  0  0
    8.0613  -14.8515   25.3286 C   0  0  2  0  0  0  0  0  0  0  0  0
    7.8625  -15.1120   23.9172 N   0  0  0  0  0  0  0  0  0  0  0  0
    8.8072  -15.9859   25.9182 C   0  0  0  0  0  0  0  0  0  0  0  0
    8.9174  -16.0789   27.1454 O   0  0  0  0  0  0  0  0  0  0  0  0
   10.6034  -19.2351   19.9961 N   0  0  0  0  0  0  0  0  0  0  0  0
    9.3099  -19.8098   20.1388 C   0  0  0  0  0  0  0  0  0  0  0  0
    8.4632  -19.8210   19.1663 N   0  0  0  0  0  0  0  0  0  0  0  0
    8.9470  -20.3849   21.3839 N   0  0  0  0  0  0  0  0  0  0  0  0
    9.8510  -20.2346   22.4976 C   0  0  0  0  0  0  0  0  0  0  0  0
    9.3046  -19.3048   23.5744 C   0  0  0  0  0  0  0  0  0  0  0  0
   10.3804  -19.1658   24.6154 C   0  0  0  0  0  0  0  0  0  0  0  0
   10.0855  -18.1357   25.6615 C   0  0  2  0  0  0  0  0  0  0  0  0
    9.4150  -16.9961   25.0870 N   0  0  0  0  0  0  0  0  0  0  0  0
   11.2356  -17.7212   26.4544 C   0  0  0  0  0  0  0  0  0  0  0  0
   11.7403  -16.5886   26.2373 O   0  0  0  0  0  0  0  0  0  0  0  0
   11.8364  -18.4738   27.4445 O   0  0  0  0  0  0  0  0  0  0  0  0
  2  1  1  0
  2  3  1  0
  4  3  1  0
  4  5  1  0
  5  6  1  1
  7  5  1  0
  7  8  2  0
 10  9  1  1
 10 11  1  0
 10 12  1  0
 11  7  1  0
 12 22  1  0
 13 12  2  0
 14 15  1  0
 15 16  2  0
 17 15  1  0
 17 18  1  0
 19 18  1  0
 20 19  1  0
 21 23  1  0
 21 20  1  6
 22 21  1  0
 23 24  2  0
 23 25  1  0
M  END
$$$$
