MAR.pdb
     RDKit          3D

 25 24  0  0  1  0  0  0  0  0999 V2000
    7.3711  -10.9459   27.3328 C   0  0  0  0  0  0  0  0  0  0  0  0
    5.8361  -11.8987   27.2700 S   0  0  0  0  0  0  0  0  0  0  0  0
    6.1451  -13.5109   26.5518 C   0  0  0  0  0  0  0  0  0  0  0  0
    7.6361  -13.8317   26.4876 C   0  0  0  0  0  0  0  0  0  0  0  0
    7.8687  -14.8009   25.3296 C   0  0  2  0  0  0  0  0  0  0  0  0
    6.6516  -15.5123   25.0009 N   0  0  0  0  0  0  0  0  0  0  0  0
    8.9300  -15.7692   25.6203 C   0  0  0  0  0  0  0  0  0  0  0  0
   10.0575  -15.2822   25.9779 O   0  0  0  0  0  0  0  0  0  0  0  0
    9.3586  -19.4260   26.0722 C   0  0  0  0  0  0  0  0  0  0  0  0
    9.9614  -18.0808   25.6461 C   0  0  2  0  0  0  0  0  0  0  0  0
    8.8394  -17.1693   25.5474 N   0  0  0  0  0  0  0  0  0  0  0  0
   10.6015  -18.1884   24.3158 C   0  0  0  0  0  0  0  0  0  0  0  0
   10.2755  -19.0997   23.5477 O   0  0  0  0  0  0  0  0  0  0  0  0
    7.3791  -13.1439   19.5309 N   0  0  0  0  0  0  0  0  0  0  0  0
    8.2988  -13.5797   18.5368 C   0  0  0  0  0  0  0  0  0  0  0  0
    8.2082  -13.1866   17.3120 N   0  0  0  0  0  0  0  0  0  0  0  0
    9.3409  -14.4684   18.9070 N   0  0  0  0  0  0  0  0  0  0  0  0
    9.3860  -14.9422   20.2685 C   0  0  0  0  0  0  0  0  0  0  0  0
   10.5667  -15.8705   20.5270 C   0  0  0  0  0  0  0  0  0  0  0  0
   10.4883  -16.2814   21.9711 C   0  0  0  0  0  0  0  0  0  0  0  0
   11.7530  -16.8821   22.5023 C   0  0  2  0  0  0  0  0  0  0  0  0
   11.6069  -17.2460   23.8896 N   0  0  0  0  0  0  0  0  0  0  0  0
   12.9483  -16.0745   22.2964 C   0  0  0  0  0  0  0  0  0  0  0  0
   13.5464  -15.6156   23.3045 O   0  0  0  0  0  0  0  0  0  0  0  0
   13.4977  -15.7591   21.0690 O   0  0  0  0  0  0  0  0  0  0  0  0
  2  1  1  0
  2  3  1  0
  4  3  1  0
  4  5  1  0
  5  6  1  1
  7  5  1  0
  7  8  2  0
 10  9  1  6
 10 11  1  0
 10 12  1  0
 11  7  1  0
 12 22  1  0
 13 12  2  0
 14 15  1  0
 15 16  2  0
 17 15  1  0
 17 18  1  0
 19 18  1  0
 20 19  1  0
 21 23  1  0
 21 20  1  1
 22 21  1  0
 23 24  2  0
 23 25  1  0
M  END
$$$$
