MAR.pdb
     RDKit          3D

 25 24  0  0  1  0  0  0  0  0999 V2000
    7.6943  -18.2044   17.4952 C   0  0  0  0  0  0  0  0  0  0  0  0
    8.0562  -16.8549   16.3482 S   0  0  0  0  0  0  0  0  0  0  0  0
    7.7012  -15.2796   17.1246 C   0  0  0  0  0  0  0  0  0  0  0  0
    8.7366  -14.9197   18.1870 C   0  0  0  0  0  0  0  0  0  0  0  0
    8.2629  -13.6606   18.9113 C   0  0  2  0  0  0  0  0  0  0  0  0
    8.7495  -12.4702   18.2467 N   0  0  0  0  0  0  0  0  0  0  0  0
    8.6839  -13.6357   20.3151 C   0  0  0  0  0  0  0  0  0  0  0  0
    9.9355  -13.4790   20.5275 O   0  0  0  0  0  0  0  0  0  0  0  0
    7.0832  -14.0013   23.6772 C   0  0  0  0  0  0  0  0  0  0  0  0
    8.3289  -14.0684   22.7837 C   0  0  2  0  0  0  0  0  0  0  0  0
    7.8610  -13.7657   21.4463 N   0  0  0  0  0  0  0  0  0  0  0  0
    8.9053  -15.4317   22.7857 C   0  0  0  0  0  0  0  0  0  0  0  0
    8.8501  -16.1249   21.7644 O   0  0  0  0  0  0  0  0  0  0  0  0
   14.4055  -15.1721   17.6008 N   0  0  0  0  0  0  0  0  0  0  0  0
   14.2499  -14.9791   19.0018 C   0  0  0  0  0  0  0  0  0  0  0  0
   14.9502  -14.1098   19.6472 N   0  0  0  0  0  0  0  0  0  0  0  0
   13.2983  -15.7644   19.7021 N   0  0  0  0  0  0  0  0  0  0  0  0
   13.0960  -15.5050   21.1064 C   0  0  0  0  0  0  0  0  0  0  0  0
   12.0556  -16.4283   21.7289 C   0  0  0  0  0  0  0  0  0  0  0  0
   11.8072  -15.9253   23.1238 C   0  0  0  0  0  0  0  0  0  0  0  0
   10.7766  -16.7072   23.8780 C   0  0  2  0  0  0  0  0  0  0  0  0
    9.5366  -15.9766   23.9627 N   0  0  0  0  0  0  0  0  0  0  0  0
   11.2008  -17.1717   25.1924 C   0  0  0  0  0  0  0  0  0  0  0  0
   10.9589  -16.4485   26.1940 O   0  0  0  0  0  0  0  0  0  0  0  0
   11.8590  -18.3593   25.4459 O   0  0  0  0  0  0  0  0  0  0  0  0
  2  1  1  0
  2  3  1  0
  4  3  1  0
  4  5  1  0
  5  6  1  6
  7  5  1  0
  7  8  2  0
 10  9  1  1
 10 11  1  0
 10 12  1  0
 11  7  1  0
 12 22  1  0
 13 12  2  0
 14 15  1  0
 15 16  2  0
 17 15  1  0
 17 18  1  0
 19 18  1  0
 20 19  1  0
 21 23  1  0
 21 20  1  1
 22 21  1  0
 23 24  2  0
 23 25  1  0
M  END
$$$$
