ELE.pdb
     RDKit          3D

 27 26  0  0  1  0  0  0  0  0999 V2000
   10.1711  -16.4608   15.6928 N   0  0  0  0  0  0  0  0  0  0  0  0
    9.9755  -17.2758   16.8803 C   0  0  1  0  0  0  0  0  0  0  0  0
   10.9094  -18.4360   16.8099 C   0  0  0  0  0  0  0  0  0  0  0  0
   10.6062  -19.4120   15.7192 C   0  0  0  0  0  0  0  0  0  0  0  0
   11.5561  -20.5615   15.8621 C   0  0  0  0  0  0  0  0  0  0  0  0
   11.4043  -21.4435   16.7442 O   0  0  0  0  0  0  0  0  0  0  0  0
   10.2099  -16.3887   18.0478 C   0  0  0  0  0  0  0  0  0  0  0  0
   11.3492  -15.8686   18.2583 O   0  0  0  0  0  0  0  0  0  0  0  0
   12.6438  -20.6884   15.0159 O   0  0  0  0  0  0  0  0  0  0  0  0
    8.6435  -12.3662   19.5511 C   0  0  0  0  0  0  0  0  0  0  0  0
    7.7100  -13.5760   19.6661 C   0  0  2  0  0  0  0  0  0  0  0  0
    6.3778  -13.0221   20.1862 C   0  0  0  0  0  0  0  0  0  0  0  0
    8.2426  -14.5598   20.6657 C   0  0  0  0  0  0  0  0  0  0  0  0
    9.4462  -15.2476   20.1690 C   0  0  2  0  0  0  0  0  0  0  0  0
    9.2052  -16.0632   18.9925 N   0  0  0  0  0  0  0  0  0  0  0  0
   10.0801  -16.0785   21.1962 C   0  0  0  0  0  0  0  0  0  0  0  0
    9.7202  -17.2235   21.5437 O   0  0  0  0  0  0  0  0  0  0  0  0
   11.2195  -15.5644   21.8867 N   0  0  0  0  0  0  0  0  0  0  0  0
   11.9443  -16.3541   22.8955 C   0  0  1  0  0  0  0  0  0  0  0  0
   13.3157  -15.7870   23.0112 C   0  0  0  0  0  0  0  0  0  0  0  0
   14.1662  -16.3098   24.1074 C   0  0  0  0  0  0  0  0  0  0  0  0
   15.6031  -16.0739   23.8921 C   0  0  0  0  0  0  0  0  0  0  0  0
   16.4735  -16.5307   24.6394 O   0  0  0  0  0  0  0  0  0  0  0  0
   11.1788  -16.2643   24.1501 C   0  0  0  0  0  0  0  0  0  0  0  0
   11.4524  -17.0103   25.1103 O   0  0  0  0  0  0  0  0  0  0  0  0
   16.0350  -15.3043   22.8050 O   0  0  0  0  0  0  0  0  0  0  0  0
   10.1572  -15.3533   24.2643 O   0  0  0  0  0  0  0  0  0  0  0  0
  2  1  1  6
  2  3  1  0
  2  7  1  0
  4  3  1  0
  4  5  1  0
  5  6  2  0
  7  8  2  0
  9  5  1  0
 11 10  1  1
 11 12  1  0
 13 11  1  0
 14 16  1  0
 14 13  1  1
 15  7  1  0
 15 14  1  0
 16 17  2  0
 18 16  1  0
 19 18  1  0
 19 24  1  0
 20 21  1  0
 19 20  1  1
 22 26  1  0
 22 21  1  0
 23 22  2  0
 24 25  2  0
 24 27  1  0
M  END
$$$$
