ELE.pdb
     RDKit          3D

 27 26  0  0  1  0  0  0  0  0999 V2000
    6.7937  -18.0142   22.5826 N   0  0  0  0  0  0  0  0  0  0  0  0
    7.8798  -17.3765   21.8571 C   0  0  1  0  0  0  0  0  0  0  0  0
    7.4467  -17.1816   20.4437 C   0  0  0  0  0  0  0  0  0  0  0  0
    8.4764  -16.5558   19.5593 C   0  0  0  0  0  0  0  0  0  0  0  0
    7.9064  -16.4904   18.1754 C   0  0  0  0  0  0  0  0  0  0  0  0
    8.5121  -15.9206   17.2334 O   0  0  0  0  0  0  0  0  0  0  0  0
    8.1816  -16.1098   22.5708 C   0  0  0  0  0  0  0  0  0  0  0  0
    9.0675  -15.3087   22.1394 O   0  0  0  0  0  0  0  0  0  0  0  0
    6.6794  -17.0629   17.8892 O   0  0  0  0  0  0  0  0  0  0  0  0
    6.0265  -12.3240   27.0079 C   0  0  0  0  0  0  0  0  0  0  0  0
    7.1887  -12.7979   26.1287 C   0  0  2  0  0  0  0  0  0  0  0  0
    7.5767  -11.5884   25.2693 C   0  0  0  0  0  0  0  0  0  0  0  0
    6.7454  -13.9076   25.2217 C   0  0  0  0  0  0  0  0  0  0  0  0
    7.8807  -14.5223   24.5135 C   0  0  2  0  0  0  0  0  0  0  0  0
    7.5205  -15.7086   23.7581 N   0  0  0  0  0  0  0  0  0  0  0  0
    8.9879  -14.8554   25.4137 C   0  0  0  0  0  0  0  0  0  0  0  0
    9.5931  -14.0600   26.1637 O   0  0  0  0  0  0  0  0  0  0  0  0
    9.4460  -16.2070   25.4660 N   0  0  0  0  0  0  0  0  0  0  0  0
   10.5508  -16.6247   26.3444 C   0  0  1  0  0  0  0  0  0  0  0  0
   10.0159  -17.6458   27.2862 C   0  0  0  0  0  0  0  0  0  0  0  0
   10.9975  -18.3241   28.1664 C   0  0  0  0  0  0  0  0  0  0  0  0
   10.3831  -19.3060   29.0749 C   0  0  0  0  0  0  0  0  0  0  0  0
    9.7029  -20.2542   28.6711 O   0  0  0  0  0  0  0  0  0  0  0  0
   11.6207  -17.1475   25.4786 C   0  0  0  0  0  0  0  0  0  0  0  0
   12.7518  -17.3829   25.9464 O   0  0  0  0  0  0  0  0  0  0  0  0
   10.5573  -19.1893   30.4594 O   0  0  0  0  0  0  0  0  0  0  0  0
   11.3723  -17.3780   24.1476 O   0  0  0  0  0  0  0  0  0  0  0  0
  2  1  1  1
  2  3  1  0
  2  7  1  0
  4  3  1  0
  4  5  1  0
  5  6  2  0
  7  8  2  0
  9  5  1  0
 11 10  1  1
 11 12  1  0
 13 11  1  0
 14 16  1  0
 14 13  1  1
 15  7  1  0
 15 14  1  0
 16 17  2  0
 18 16  1  0
 19 18  1  0
 19 24  1  0
 20 21  1  0
 19 20  1  1
 22 26  1  0
 22 21  1  0
 23 22  2  0
 24 25  2  0
 24 27  1  0
M  END
$$$$
