ELE.pdb
     RDKit          3D

 27 26  0  0  1  0  0  0  0  0999 V2000
    7.5337  -17.3322   22.5388 N   0  0  0  0  0  0  0  0  0  0  0  0
    8.6960  -16.6209   22.0331 C   0  0  1  0  0  0  0  0  0  0  0  0
    8.3525  -16.0543   20.6973 C   0  0  0  0  0  0  0  0  0  0  0  0
    8.0433  -17.0754   19.6505 C   0  0  0  0  0  0  0  0  0  0  0  0
    7.7134  -16.3430   18.3859 C   0  0  0  0  0  0  0  0  0  0  0  0
    8.5326  -15.5656   17.8350 O   0  0  0  0  0  0  0  0  0  0  0  0
    9.0405  -15.5937   23.0484 C   0  0  0  0  0  0  0  0  0  0  0  0
   10.0680  -14.8592   22.9161 O   0  0  0  0  0  0  0  0  0  0  0  0
    6.4801  -16.5026   17.7785 O   0  0  0  0  0  0  0  0  0  0  0  0
    7.3181  -11.7071   24.5544 C   0  0  0  0  0  0  0  0  0  0  0  0
    6.5717  -12.9743   24.9848 C   0  0  2  0  0  0  0  0  0  0  0  0
    5.3450  -12.4862   25.7653 C   0  0  0  0  0  0  0  0  0  0  0  0
    7.4235  -13.8028   25.9004 C   0  0  0  0  0  0  0  0  0  0  0  0
    8.5991  -14.3536   25.2053 C   0  0  2  0  0  0  0  0  0  0  0  0
    8.2683  -15.3606   24.2133 N   0  0  0  0  0  0  0  0  0  0  0  0
    9.5867  -14.9124   26.1324 C   0  0  0  0  0  0  0  0  0  0  0  0
   10.0392  -14.3518   27.1534 O   0  0  0  0  0  0  0  0  0  0  0  0
   10.1038  -16.2188   25.8775 N   0  0  0  0  0  0  0  0  0  0  0  0
   11.0897  -16.8564   26.7653 C   0  0  1  0  0  0  0  0  0  0  0  0
   10.3564  -17.8115   27.6403 C   0  0  0  0  0  0  0  0  0  0  0  0
   11.1750  -18.6586   28.5407 C   0  0  0  0  0  0  0  0  0  0  0  0
   10.3713  -19.5654   29.3765 C   0  0  0  0  0  0  0  0  0  0  0  0
    9.1446  -19.6585   29.2708 O   0  0  0  0  0  0  0  0  0  0  0  0
   12.0866  -17.5157   25.9054 C   0  0  0  0  0  0  0  0  0  0  0  0
   11.7716  -17.9167   24.7681 O   0  0  0  0  0  0  0  0  0  0  0  0
   10.9917  -20.3693   30.3406 O   0  0  0  0  0  0  0  0  0  0  0  0
   13.3717  -17.6902   26.3578 O   0  0  0  0  0  0  0  0  0  0  0  0
  2  1  1  1
  2  3  1  0
  2  7  1  0
  4  3  1  0
  4  5  1  0
  5  6  2  0
  7  8  2  0
  9  5  1  0
 11 10  1  1
 11 12  1  0
 13 11  1  0
 14 16  1  0
 14 13  1  1
 15  7  1  0
 15 14  1  0
 16 17  2  0
 18 16  1  0
 19 18  1  0
 19 24  1  0
 20 21  1  0
 19 20  1  1
 22 26  1  0
 22 21  1  0
 23 22  2  0
 24 25  2  0
 24 27  1  0
M  END
$$$$
