ELE.pdb
     RDKit          3D

 27 26  0  0  1  0  0  0  0  0999 V2000
    7.9123  -15.5452   19.9071 N   0  0  0  0  0  0  0  0  0  0  0  0
    7.0371  -15.7435   21.0505 C   0  0  1  0  0  0  0  0  0  0  0  0
    6.5088  -17.1369   20.9986 C   0  0  0  0  0  0  0  0  0  0  0  0
    7.5438  -18.2005   21.1759 C   0  0  0  0  0  0  0  0  0  0  0  0
    6.8712  -19.5249   20.9808 C   0  0  0  0  0  0  0  0  0  0  0  0
    6.4265  -20.1933   21.9475 O   0  0  0  0  0  0  0  0  0  0  0  0
    7.8474  -15.4553   22.2610 C   0  0  0  0  0  0  0  0  0  0  0  0
    9.1027  -15.2791   22.1835 O   0  0  0  0  0  0  0  0  0  0  0  0
    6.7174  -20.0591   19.7135 O   0  0  0  0  0  0  0  0  0  0  0  0
    6.2185  -12.4109   27.3683 C   0  0  0  0  0  0  0  0  0  0  0  0
    7.3359  -12.9701   26.4812 C   0  0  2  0  0  0  0  0  0  0  0  0
    8.0369  -11.7461   25.8788 C   0  0  0  0  0  0  0  0  0  0  0  0
    6.7618  -13.7911   25.3646 C   0  0  0  0  0  0  0  0  0  0  0  0
    7.8128  -14.4686   24.5869 C   0  0  2  0  0  0  0  0  0  0  0  0
    7.2954  -15.3574   23.5623 N   0  0  0  0  0  0  0  0  0  0  0  0
    8.7417  -15.2190   25.4361 C   0  0  0  0  0  0  0  0  0  0  0  0
    9.3588  -14.7732   26.4270 O   0  0  0  0  0  0  0  0  0  0  0  0
    8.9902  -16.5923   25.1335 N   0  0  0  0  0  0  0  0  0  0  0  0
   10.2246  -17.2747   25.5544 C   0  0  1  0  0  0  0  0  0  0  0  0
   11.3559  -16.6612   24.8063 C   0  0  0  0  0  0  0  0  0  0  0  0
   12.7234  -16.9682   25.2902 C   0  0  0  0  0  0  0  0  0  0  0  0
   13.7693  -16.6931   24.2917 C   0  0  0  0  0  0  0  0  0  0  0  0
   13.5391  -16.6486   23.0794 O   0  0  0  0  0  0  0  0  0  0  0  0
   10.3409  -17.1030   27.0121 C   0  0  0  0  0  0  0  0  0  0  0  0
    9.6192  -16.2809   27.6097 O   0  0  0  0  0  0  0  0  0  0  0  0
   15.0900  -16.4683   24.6992 O   0  0  0  0  0  0  0  0  0  0  0  0
   11.2490  -17.8528   27.7189 O   0  0  0  0  0  0  0  0  0  0  0  0
  2  1  1  6
  2  3  1  0
  2  7  1  0
  4  3  1  0
  4  5  1  0
  5  6  2  0
  7  8  2  0
  9  5  1  0
 11 10  1  1
 11 12  1  0
 13 11  1  0
 14 16  1  0
 14 13  1  1
 15  7  1  0
 15 14  1  0
 16 17  2  0
 18 16  1  0
 19 18  1  0
 19 24  1  0
 20 21  1  0
 19 20  1  6
 22 26  1  0
 22 21  1  0
 23 22  2  0
 24 25  2  0
 24 27  1  0
M  END
$$$$
