ELE.pdb
     RDKit          3D

 27 26  0  0  1  0  0  0  0  0999 V2000
    7.3225  -17.3033   22.3010 N   0  0  0  0  0  0  0  0  0  0  0  0
    8.6389  -16.8017   21.9432 C   0  0  1  0  0  0  0  0  0  0  0  0
    8.5703  -16.2559   20.5573 C   0  0  0  0  0  0  0  0  0  0  0  0
    7.4769  -16.8317   19.7165 C   0  0  0  0  0  0  0  0  0  0  0  0
    7.9180  -16.7588   18.2867 C   0  0  0  0  0  0  0  0  0  0  0  0
    8.8106  -17.5145   17.8271 O   0  0  0  0  0  0  0  0  0  0  0  0
    9.0011  -15.7898   22.9678 C   0  0  0  0  0  0  0  0  0  0  0  0
   10.0653  -15.1043   22.8654 O   0  0  0  0  0  0  0  0  0  0  0  0
    7.3482  -15.8450   17.4174 O   0  0  0  0  0  0  0  0  0  0  0  0
    7.2786  -11.9609   24.3647 C   0  0  0  0  0  0  0  0  0  0  0  0
    6.5156  -13.1690   24.9183 C   0  0  2  0  0  0  0  0  0  0  0  0
    5.3621  -12.5861   25.7442 C   0  0  0  0  0  0  0  0  0  0  0  0
    7.3946  -13.9769   25.8267 C   0  0  0  0  0  0  0  0  0  0  0  0
    8.5577  -14.5304   25.1130 C   0  0  2  0  0  0  0  0  0  0  0  0
    8.2068  -15.5189   24.1094 N   0  0  0  0  0  0  0  0  0  0  0  0
    9.5471  -15.1137   26.0228 C   0  0  0  0  0  0  0  0  0  0  0  0
   10.0792  -14.5417   26.9981 O   0  0  0  0  0  0  0  0  0  0  0  0
    9.9674  -16.4611   25.8059 N   0  0  0  0  0  0  0  0  0  0  0  0
   10.9454  -17.1259   26.6825 C   0  0  1  0  0  0  0  0  0  0  0  0
   10.2776  -18.3125   27.2839 C   0  0  0  0  0  0  0  0  0  0  0  0
   11.1033  -19.1682   28.1695 C   0  0  0  0  0  0  0  0  0  0  0  0
   10.3438  -20.2646   28.7923 C   0  0  0  0  0  0  0  0  0  0  0  0
    9.7886  -20.1525   29.8895 O   0  0  0  0  0  0  0  0  0  0  0  0
   12.1053  -17.4819   25.8484 C   0  0  0  0  0  0  0  0  0  0  0  0
   12.0117  -17.4824   24.6055 O   0  0  0  0  0  0  0  0  0  0  0  0
   10.2265  -21.4985   28.1407 O   0  0  0  0  0  0  0  0  0  0  0  0
   13.2982  -17.8151   26.4421 O   0  0  0  0  0  0  0  0  0  0  0  0
  2  1  1  1
  2  3  1  0
  2  7  1  0
  4  3  1  0
  4  5  1  0
  5  6  2  0
  7  8  2  0
  9  5  1  0
 11 10  1  1
 11 12  1  0
 13 11  1  0
 14 16  1  0
 14 13  1  1
 15  7  1  0
 15 14  1  0
 16 17  2  0
 18 16  1  0
 19 18  1  0
 19 24  1  0
 20 21  1  0
 19 20  1  6
 22 26  1  0
 22 21  1  0
 23 22  2  0
 24 25  2  0
 24 27  1  0
M  END
$$$$
