ELE.pdb
     RDKit          3D

 27 26  0  0  1  0  0  0  0  0999 V2000
    9.2862  -15.0139   19.8465 N   0  0  0  0  0  0  0  0  0  0  0  0
    8.2409  -15.5129   20.7245 C   0  0  1  0  0  0  0  0  0  0  0  0
    8.1784  -16.9958   20.5810 C   0  0  0  0  0  0  0  0  0  0  0  0
    7.6028  -17.4706   19.2859 C   0  0  0  0  0  0  0  0  0  0  0  0
    7.4701  -18.9606   19.3678 C   0  0  0  0  0  0  0  0  0  0  0  0
    6.7234  -19.5160   20.2121 O   0  0  0  0  0  0  0  0  0  0  0  0
    8.5846  -15.0582   22.0957 C   0  0  0  0  0  0  0  0  0  0  0  0
    9.7881  -15.0483   22.5012 O   0  0  0  0  0  0  0  0  0  0  0  0
    8.1751  -19.7809   18.5045 O   0  0  0  0  0  0  0  0  0  0  0  0
    6.0330  -12.5675   27.2330 C   0  0  0  0  0  0  0  0  0  0  0  0
    7.2380  -13.1574   26.4926 C   0  0  2  0  0  0  0  0  0  0  0  0
    8.2977  -12.0487   26.4787 C   0  0  0  0  0  0  0  0  0  0  0  0
    6.8748  -13.4906   25.0757 C   0  0  0  0  0  0  0  0  0  0  0  0
    7.9404  -14.2517   24.4020 C   0  0  2  0  0  0  0  0  0  0  0  0
    7.6200  -14.6119   23.0326 N   0  0  0  0  0  0  0  0  0  0  0  0
    8.3097  -15.4660   25.1343 C   0  0  0  0  0  0  0  0  0  0  0  0
    7.5609  -16.4362   25.3782 O   0  0  0  0  0  0  0  0  0  0  0  0
    9.6428  -15.5879   25.6314 N   0  0  0  0  0  0  0  0  0  0  0  0
   10.1301  -16.8225   26.2678 C   0  0  1  0  0  0  0  0  0  0  0  0
   11.4575  -17.1414   25.6743 C   0  0  0  0  0  0  0  0  0  0  0  0
   12.0194  -18.4809   25.9716 C   0  0  0  0  0  0  0  0  0  0  0  0
   12.6402  -19.1241   24.8020 C   0  0  0  0  0  0  0  0  0  0  0  0
   11.9816  -19.6890   23.9235 O   0  0  0  0  0  0  0  0  0  0  0  0
   10.1957  -16.5681   27.7165 C   0  0  0  0  0  0  0  0  0  0  0  0
   10.0983  -15.4065   28.1577 O   0  0  0  0  0  0  0  0  0  0  0  0
   14.0319  -19.1131   24.6488 O   0  0  0  0  0  0  0  0  0  0  0  0
   10.3648  -17.6162   28.5880 O   0  0  0  0  0  0  0  0  0  0  0  0
  2  1  1  6
  2  3  1  0
  2  7  1  0
  4  3  1  0
  4  5  1  0
  5  6  2  0
  7  8  2  0
  9  5  1  0
 11 10  1  1
 11 12  1  0
 13 11  1  0
 14 16  1  0
 14 13  1  1
 15  7  1  0
 15 14  1  0
 16 17  2  0
 18 16  1  0
 19 18  1  0
 19 24  1  0
 20 21  1  0
 19 20  1  6
 22 26  1  0
 22 21  1  0
 23 22  2  0
 24 25  2  0
 24 27  1  0
M  END
$$$$
