ELE.pdb
     RDKit          3D

 27 26  0  0  1  0  0  0  0  0999 V2000
    9.0701  -15.6520   20.2746 N   0  0  0  0  0  0  0  0  0  0  0  0
    8.5006  -16.3263   21.4294 C   0  0  1  0  0  0  0  0  0  0  0  0
    9.1201  -17.6786   21.5336 C   0  0  0  0  0  0  0  0  0  0  0  0
    8.7083  -18.6346   20.4611 C   0  0  0  0  0  0  0  0  0  0  0  0
    9.1735  -19.9996   20.8671 C   0  0  0  0  0  0  0  0  0  0  0  0
   10.2142  -20.5166   20.3891 O   0  0  0  0  0  0  0  0  0  0  0  0
    8.7640  -15.4552   22.6027 C   0  0  0  0  0  0  0  0  0  0  0  0
    9.9374  -15.0474   22.8668 O   0  0  0  0  0  0  0  0  0  0  0  0
    8.4616  -20.7419   21.7931 O   0  0  0  0  0  0  0  0  0  0  0  0
    5.8931  -12.3552   27.1935 C   0  0  0  0  0  0  0  0  0  0  0  0
    7.1758  -12.9121   26.5667 C   0  0  2  0  0  0  0  0  0  0  0  0
    8.0880  -11.6991   26.3456 C   0  0  0  0  0  0  0  0  0  0  0  0
    6.8829  -13.5400   25.2361 C   0  0  0  0  0  0  0  0  0  0  0  0
    8.0240  -14.3271   24.7392 C   0  0  2  0  0  0  0  0  0  0  0  0
    7.7515  -15.0234   23.4949 N   0  0  0  0  0  0  0  0  0  0  0  0
    8.5069  -15.2971   25.7256 C   0  0  0  0  0  0  0  0  0  0  0  0
    7.8750  -16.2838   26.1598 O   0  0  0  0  0  0  0  0  0  0  0  0
    9.8191  -15.1316   26.2642 N   0  0  0  0  0  0  0  0  0  0  0  0
   10.4340  -16.1357   27.1475 C   0  0  1  0  0  0  0  0  0  0  0  0
   11.8575  -16.2843   26.7383 C   0  0  0  0  0  0  0  0  0  0  0  0
   12.2972  -17.6383   26.3241 C   0  0  0  0  0  0  0  0  0  0  0  0
   13.2658  -17.6219   25.2158 C   0  0  0  0  0  0  0  0  0  0  0  0
   13.1324  -18.3154   24.2029 O   0  0  0  0  0  0  0  0  0  0  0  0
   10.2822  -15.6504   28.5293 C   0  0  0  0  0  0  0  0  0  0  0  0
    9.9044  -14.4832   28.7496 O   0  0  0  0  0  0  0  0  0  0  0  0
   14.3958  -16.7974   25.2806 O   0  0  0  0  0  0  0  0  0  0  0  0
   10.5576  -16.4878   29.5826 O   0  0  0  0  0  0  0  0  0  0  0  0
  2  1  1  6
  2  3  1  0
  2  7  1  0
  4  3  1  0
  4  5  1  0
  5  6  2  0
  7  8  2  0
  9  5  1  0
 11 10  1  6
 11 12  1  0
 13 11  1  0
 14 16  1  0
 14 13  1  1
 15  7  1  0
 15 14  1  0
 16 17  2  0
 18 16  1  0
 19 18  1  0
 19 24  1  0
 20 21  1  0
 19 20  1  6
 22 26  1  0
 22 21  1  0
 23 22  2  0
 24 25  2  0
 24 27  1  0
M  END
$$$$
