ELE.pdb
     RDKit          3D

 27 26  0  0  1  0  0  0  0  0999 V2000
    8.2667  -17.8256   22.6926 N   0  0  0  0  0  0  0  0  0  0  0  0
    9.5921  -17.2301   22.6563 C   0  0  1  0  0  0  0  0  0  0  0  0
    9.9451  -16.9619   21.2327 C   0  0  0  0  0  0  0  0  0  0  0  0
   11.3116  -16.3917   21.0286 C   0  0  0  0  0  0  0  0  0  0  0  0
   11.4623  -16.0864   19.5696 C   0  0  0  0  0  0  0  0  0  0  0  0
   12.4721  -15.4919   19.1158 O   0  0  0  0  0  0  0  0  0  0  0  0
    9.5323  -16.0086   23.4986 C   0  0  0  0  0  0  0  0  0  0  0  0
   10.5312  -15.2306   23.5978 O   0  0  0  0  0  0  0  0  0  0  0  0
   10.4810  -16.4546   18.6659 O   0  0  0  0  0  0  0  0  0  0  0  0
    8.2550  -12.5489   26.8919 C   0  0  0  0  0  0  0  0  0  0  0  0
    7.0948  -12.4936   25.8923 C   0  0  2  0  0  0  0  0  0  0  0  0
    5.8190  -12.4473   26.7422 C   0  0  0  0  0  0  0  0  0  0  0  0
    7.0647  -13.7348   25.0502 C   0  0  0  0  0  0  0  0  0  0  0  0
    8.3416  -14.4660   25.1071 C   0  0  2  0  0  0  0  0  0  0  0  0
    8.3849  -15.6276   24.2374 N   0  0  0  0  0  0  0  0  0  0  0  0
    8.6873  -14.8837   26.4684 C   0  0  0  0  0  0  0  0  0  0  0  0
    8.7509  -14.1432   27.4729 O   0  0  0  0  0  0  0  0  0  0  0  0
    8.9860  -16.2593   26.7083 N   0  0  0  0  0  0  0  0  0  0  0  0
    9.2250  -16.7828   28.0631 C   0  0  1  0  0  0  0  0  0  0  0  0
    8.9314  -18.2419   28.0404 C   0  0  0  0  0  0  0  0  0  0  0  0
    7.8150  -18.6868   27.1720 C   0  0  0  0  0  0  0  0  0  0  0  0
    7.6295  -20.1470   27.1652 C   0  0  0  0  0  0  0  0  0  0  0  0
    8.3089  -20.9091   27.8596 O   0  0  0  0  0  0  0  0  0  0  0  0
   10.6262  -16.4849   28.4033 C   0  0  0  0  0  0  0  0  0  0  0  0
   11.4015  -16.0294   27.5400 O   0  0  0  0  0  0  0  0  0  0  0  0
    6.6512  -20.7285   26.3494 O   0  0  0  0  0  0  0  0  0  0  0  0
   11.0830  -16.7094   29.6790 O   0  0  0  0  0  0  0  0  0  0  0  0
  2  1  1  6
  2  3  1  0
  2  7  1  0
  4  3  1  0
  4  5  1  0
  5  6  2  0
  7  8  2  0
  9  5  1  0
 11 10  1  1
 11 12  1  0
 13 11  1  0
 14 16  1  0
 14 13  1  1
 15  7  1  0
 15 14  1  0
 16 17  2  0
 18 16  1  0
 19 18  1  0
 19 24  1  0
 20 21  1  0
 19 20  1  6
 22 26  1  0
 22 21  1  0
 23 22  2  0
 24 25  2  0
 24 27  1  0
M  END
$$$$
