ELE.pdb
     RDKit          3D

 27 26  0  0  1  0  0  0  0  0999 V2000
    9.9066  -19.4365   20.0259 N   0  0  0  0  0  0  0  0  0  0  0  0
   11.0547  -18.6278   19.6514 C   0  0  1  0  0  0  0  0  0  0  0  0
   11.2652  -18.7673   18.1818 C   0  0  0  0  0  0  0  0  0  0  0  0
   10.1391  -18.2570   17.3419 C   0  0  0  0  0  0  0  0  0  0  0  0
   10.5441  -18.3976   15.9064 C   0  0  0  0  0  0  0  0  0  0  0  0
   11.3712  -17.6186   15.3698 O   0  0  0  0  0  0  0  0  0  0  0  0
   10.7556  -17.2391   20.0840 C   0  0  0  0  0  0  0  0  0  0  0  0
   11.6280  -16.3208   19.9913 O   0  0  0  0  0  0  0  0  0  0  0  0
   10.0124  -19.4029   15.1178 O   0  0  0  0  0  0  0  0  0  0  0  0
    6.1882  -13.1940   20.8152 C   0  0  0  0  0  0  0  0  0  0  0  0
    7.6345  -13.6039   21.1126 C   0  0  2  0  0  0  0  0  0  0  0  0
    8.5120  -12.6305   20.3160 C   0  0  0  0  0  0  0  0  0  0  0  0
    7.8989  -14.9973   20.6235 C   0  0  0  0  0  0  0  0  0  0  0  0
    9.2156  -15.4905   21.0613 C   0  0  2  0  0  0  0  0  0  0  0  0
    9.5053  -16.8428   20.6200 N   0  0  0  0  0  0  0  0  0  0  0  0
    9.3831  -15.4236   22.5155 C   0  0  0  0  0  0  0  0  0  0  0  0
    9.1738  -14.4247   23.2365 O   0  0  0  0  0  0  0  0  0  0  0  0
    9.8261  -16.5907   23.2088 N   0  0  0  0  0  0  0  0  0  0  0  0
    9.8885  -16.6507   24.6783 C   0  0  1  0  0  0  0  0  0  0  0  0
    8.7581  -17.5003   25.1427 C   0  0  0  0  0  0  0  0  0  0  0  0
    8.7093  -17.8170   26.5904 C   0  0  0  0  0  0  0  0  0  0  0  0
    7.6305  -18.7537   26.9451 C   0  0  0  0  0  0  0  0  0  0  0  0
    6.8321  -19.1972   26.1142 O   0  0  0  0  0  0  0  0  0  0  0  0
   11.2058  -17.2033   25.0352 C   0  0  0  0  0  0  0  0  0  0  0  0
   11.8553  -17.8703   24.2064 O   0  0  0  0  0  0  0  0  0  0  0  0
    7.4753  -19.1795   28.2700 O   0  0  0  0  0  0  0  0  0  0  0  0
   11.7233  -16.9829   26.2883 O   0  0  0  0  0  0  0  0  0  0  0  0
  2  1  1  6
  2  3  1  0
  2  7  1  0
  4  3  1  0
  4  5  1  0
  5  6  2  0
  7  8  2  0
  9  5  1  0
 11 10  1  6
 11 12  1  0
 13 11  1  0
 14 16  1  0
 14 13  1  1
 15  7  1  0
 15 14  1  0
 16 17  2  0
 18 16  1  0
 19 18  1  0
 19 24  1  0
 20 21  1  0
 19 20  1  6
 22 26  1  0
 22 21  1  0
 23 22  2  0
 24 25  2  0
 24 27  1  0
M  END
$$$$
