ELE.pdb
     RDKit          3D

 27 26  0  0  1  0  0  0  0  0999 V2000
    7.8763  -16.7312   21.0195 N   0  0  0  0  0  0  0  0  0  0  0  0
    9.1575  -16.9955   21.6530 C   0  0  1  0  0  0  0  0  0  0  0  0
   10.2238  -16.8796   20.6172 C   0  0  0  0  0  0  0  0  0  0  0  0
    9.7184  -16.7792   19.2141 C   0  0  0  0  0  0  0  0  0  0  0  0
   10.9086  -16.7365   18.3053 C   0  0  0  0  0  0  0  0  0  0  0  0
   12.0842  -16.7749   18.7474 O   0  0  0  0  0  0  0  0  0  0  0  0
    9.2924  -16.0185   22.7630 C   0  0  0  0  0  0  0  0  0  0  0  0
   10.4313  -15.7187   23.2383 O   0  0  0  0  0  0  0  0  0  0  0  0
   10.7470  -16.6523   16.9334 O   0  0  0  0  0  0  0  0  0  0  0  0
    6.0374  -12.1522   26.4277 C   0  0  0  0  0  0  0  0  0  0  0  0
    7.3221  -12.9226   26.1051 C   0  0  2  0  0  0  0  0  0  0  0  0
    8.4102  -11.8562   25.9290 C   0  0  0  0  0  0  0  0  0  0  0  0
    7.1759  -13.6753   24.8157 C   0  0  0  0  0  0  0  0  0  0  0  0
    8.2707  -14.6401   24.6179 C   0  0  2  0  0  0  0  0  0  0  0  0
    8.1882  -15.3627   23.3615 N   0  0  0  0  0  0  0  0  0  0  0  0
    8.3678  -15.6089   25.7129 C   0  0  0  0  0  0  0  0  0  0  0  0
    7.4349  -16.3073   26.1642 O   0  0  0  0  0  0  0  0  0  0  0  0
    9.6319  -15.8003   26.3489 N   0  0  0  0  0  0  0  0  0  0  0  0
    9.8554  -16.8656   27.3397 C   0  0  1  0  0  0  0  0  0  0  0  0
   10.8590  -17.8063   26.7710 C   0  0  0  0  0  0  0  0  0  0  0  0
   11.3507  -18.8819   27.6653 C   0  0  0  0  0  0  0  0  0  0  0  0
   12.3624  -19.7456   27.0349 C   0  0  0  0  0  0  0  0  0  0  0  0
   12.7702  -19.5647   25.8836 O   0  0  0  0  0  0  0  0  0  0  0  0
   10.3149  -16.2171   28.5792 C   0  0  0  0  0  0  0  0  0  0  0  0
   10.1569  -16.7787   29.6806 O   0  0  0  0  0  0  0  0  0  0  0  0
   12.9051  -20.8256   27.7419 O   0  0  0  0  0  0  0  0  0  0  0  0
   10.9218  -14.9862   28.5227 O   0  0  0  0  0  0  0  0  0  0  0  0
  2  1  1  6
  2  3  1  0
  2  7  1  0
  4  3  1  0
  4  5  1  0
  5  6  2  0
  7  8  2  0
  9  5  1  0
 11 10  1  6
 11 12  1  0
 13 11  1  0
 14 16  1  0
 14 13  1  1
 15  7  1  0
 15 14  1  0
 16 17  2  0
 18 16  1  0
 19 18  1  0
 19 24  1  0
 20 21  1  0
 19 20  1  6
 22 26  1  0
 22 21  1  0
 23 22  2  0
 24 25  2  0
 24 27  1  0
M  END
$$$$
