ELE.pdb
     RDKit          3D

 27 26  0  0  1  0  0  0  0  0999 V2000
    7.3767  -17.7580   22.7771 N   0  0  0  0  0  0  0  0  0  0  0  0
    8.4243  -17.0011   22.1120 C   0  0  1  0  0  0  0  0  0  0  0  0
    7.8610  -16.4274   20.8563 C   0  0  0  0  0  0  0  0  0  0  0  0
    8.8811  -15.8770   19.9127 C   0  0  0  0  0  0  0  0  0  0  0  0
    8.1606  -15.4226   18.6803 C   0  0  0  0  0  0  0  0  0  0  0  0
    7.5313  -16.2238   17.9448 O   0  0  0  0  0  0  0  0  0  0  0  0
    8.8900  -15.9775   23.0816 C   0  0  0  0  0  0  0  0  0  0  0  0
    9.8440  -15.1894   22.7960 O   0  0  0  0  0  0  0  0  0  0  0  0
    8.1665  -14.0892   18.3100 O   0  0  0  0  0  0  0  0  0  0  0  0
    7.8032  -12.0143   24.8685 C   0  0  0  0  0  0  0  0  0  0  0  0
    6.9135  -13.1989   25.2602 C   0  0  2  0  0  0  0  0  0  0  0  0
    5.7928  -12.6063   26.1233 C   0  0  0  0  0  0  0  0  0  0  0  0
    7.6836  -14.1860   26.0867 C   0  0  0  0  0  0  0  0  0  0  0  0
    8.7749  -14.8093   25.3192 C   0  0  2  0  0  0  0  0  0  0  0  0
    8.3197  -15.8065   24.3674 N   0  0  0  0  0  0  0  0  0  0  0  0
    9.7930  -15.4129   26.1830 C   0  0  0  0  0  0  0  0  0  0  0  0
   10.3631  -14.8602   27.1479 O   0  0  0  0  0  0  0  0  0  0  0  0
   10.1975  -16.7586   25.9287 N   0  0  0  0  0  0  0  0  0  0  0  0
   11.2731  -17.4097   26.6941 C   0  0  1  0  0  0  0  0  0  0  0  0
   10.7393  -18.6981   27.2143 C   0  0  0  0  0  0  0  0  0  0  0  0
    9.9815  -18.6435   28.4876 C   0  0  0  0  0  0  0  0  0  0  0  0
    9.5758  -19.9699   28.9806 C   0  0  0  0  0  0  0  0  0  0  0  0
    9.9547  -20.4231   30.0649 O   0  0  0  0  0  0  0  0  0  0  0  0
   12.4116  -17.5887   25.7778 C   0  0  0  0  0  0  0  0  0  0  0  0
   12.3134  -17.2623   24.5789 O   0  0  0  0  0  0  0  0  0  0  0  0
    8.7264  -20.7764   28.2134 O   0  0  0  0  0  0  0  0  0  0  0  0
   13.5895  -18.1180   26.2458 O   0  0  0  0  0  0  0  0  0  0  0  0
  2  1  1  1
  2  3  1  0
  2  7  1  0
  4  3  1  0
  4  5  1  0
  5  6  2  0
  7  8  2  0
  9  5  1  0
 11 10  1  1
 11 12  1  0
 13 11  1  0
 14 16  1  0
 14 13  1  1
 15  7  1  0
 15 14  1  0
 16 17  2  0
 18 16  1  0
 19 18  1  0
 19 24  1  0
 20 21  1  0
 19 20  1  6
 22 26  1  0
 22 21  1  0
 23 22  2  0
 24 25  2  0
 24 27  1  0
M  END
$$$$
