ELE.pdb
     RDKit          3D

 27 26  0  0  1  0  0  0  0  0999 V2000
    8.3862  -15.9224   20.7325 N   0  0  0  0  0  0  0  0  0  0  0  0
    8.9169  -16.6822   21.8521 C   0  0  1  0  0  0  0  0  0  0  0  0
   10.1920  -17.3230   21.4196 C   0  0  0  0  0  0  0  0  0  0  0  0
   10.1038  -18.0727   20.1295 C   0  0  0  0  0  0  0  0  0  0  0  0
   11.4348  -18.7163   19.8871 C   0  0  0  0  0  0  0  0  0  0  0  0
   12.4124  -18.0706   19.4330 O   0  0  0  0  0  0  0  0  0  0  0  0
    9.0790  -15.7256   22.9762 C   0  0  0  0  0  0  0  0  0  0  0  0
   10.1758  -15.1137   23.1639 O   0  0  0  0  0  0  0  0  0  0  0  0
   11.6302  -20.0589   20.1596 O   0  0  0  0  0  0  0  0  0  0  0  0
    5.7299  -12.2003   26.7864 C   0  0  0  0  0  0  0  0  0  0  0  0
    7.1029  -12.6762   26.2999 C   0  0  2  0  0  0  0  0  0  0  0  0
    7.8189  -11.4194   25.7898 C   0  0  0  0  0  0  0  0  0  0  0  0
    6.9536  -13.6388   25.1591 C   0  0  0  0  0  0  0  0  0  0  0  0
    8.1746  -14.4353   24.9515 C   0  0  2  0  0  0  0  0  0  0  0  0
    8.0477  -15.4301   23.9018 N   0  0  0  0  0  0  0  0  0  0  0  0
    8.6251  -15.0992   26.1776 C   0  0  0  0  0  0  0  0  0  0  0  0
    8.8492  -14.5464   27.2756 O   0  0  0  0  0  0  0  0  0  0  0  0
    8.8388  -16.5109   26.1539 N   0  0  0  0  0  0  0  0  0  0  0  0
    9.2904  -17.2535   27.3418 C   0  0  1  0  0  0  0  0  0  0  0  0
    9.1890  -18.7056   27.0308 C   0  0  0  0  0  0  0  0  0  0  0  0
   10.2947  -19.3001   26.2417 C   0  0  0  0  0  0  0  0  0  0  0  0
   10.0967  -20.7287   25.9474 C   0  0  0  0  0  0  0  0  0  0  0  0
   10.1150  -21.1820   24.7990 O   0  0  0  0  0  0  0  0  0  0  0  0
   10.6694  -16.8226   27.6256 C   0  0  0  0  0  0  0  0  0  0  0  0
   11.3866  -16.3640   26.7151 O   0  0  0  0  0  0  0  0  0  0  0  0
    9.8763  -21.6381   26.9891 O   0  0  0  0  0  0  0  0  0  0  0  0
   11.1696  -16.9257   28.9006 O   0  0  0  0  0  0  0  0  0  0  0  0
  2  1  1  6
  2  3  1  0
  2  7  1  0
  4  3  1  0
  4  5  1  0
  5  6  2  0
  7  8  2  0
  9  5  1  0
 11 10  1  6
 11 12  1  0
 13 11  1  0
 14 16  1  0
 14 13  1  1
 15  7  1  0
 15 14  1  0
 16 17  2  0
 18 16  1  0
 19 18  1  0
 19 24  1  0
 20 21  1  0
 19 20  1  6
 22 26  1  0
 22 21  1  0
 23 22  2  0
 24 25  2  0
 24 27  1  0
M  END
$$$$
