ELE.pdb
     RDKit          3D

 27 26  0  0  1  0  0  0  0  0999 V2000
    8.1685  -17.4388   22.0006 N   0  0  0  0  0  0  0  0  0  0  0  0
    9.5189  -16.9038   22.0523 C   0  0  1  0  0  0  0  0  0  0  0  0
    9.8673  -16.3826   20.6995 C   0  0  0  0  0  0  0  0  0  0  0  0
   10.6098  -17.3488   19.8340 C   0  0  0  0  0  0  0  0  0  0  0  0
   10.1992  -17.0955   18.4156 C   0  0  0  0  0  0  0  0  0  0  0  0
   10.8119  -16.2800   17.6818 O   0  0  0  0  0  0  0  0  0  0  0  0
    9.5242  -15.8652   23.1136 C   0  0  0  0  0  0  0  0  0  0  0  0
   10.6096  -15.3402   23.5124 O   0  0  0  0  0  0  0  0  0  0  0  0
    9.1184  -17.7607   17.8637 O   0  0  0  0  0  0  0  0  0  0  0  0
    5.6984  -12.0829   26.2583 C   0  0  0  0  0  0  0  0  0  0  0  0
    7.1063  -12.6240   25.9879 C   0  0  2  0  0  0  0  0  0  0  0  0
    7.9329  -11.4154   25.5316 C   0  0  0  0  0  0  0  0  0  0  0  0
    7.0793  -13.6325   24.8775 C   0  0  0  0  0  0  0  0  0  0  0  0
    8.3486  -14.3726   24.7794 C   0  0  2  0  0  0  0  0  0  0  0  0
    8.3478  -15.3926   23.7464 N   0  0  0  0  0  0  0  0  0  0  0  0
    8.7364  -14.9899   26.0505 C   0  0  0  0  0  0  0  0  0  0  0  0
    9.2978  -14.4158   27.0079 O   0  0  0  0  0  0  0  0  0  0  0  0
    8.4629  -16.3772   26.2504 N   0  0  0  0  0  0  0  0  0  0  0  0
    8.8206  -17.0729   27.4973 C   0  0  1  0  0  0  0  0  0  0  0  0
    8.1299  -18.3914   27.4914 C   0  0  0  0  0  0  0  0  0  0  0  0
    8.6623  -19.4221   26.5679 C   0  0  0  0  0  0  0  0  0  0  0  0
    7.9664  -20.7148   26.6752 C   0  0  0  0  0  0  0  0  0  0  0  0
    8.0911  -21.6113   25.8354 O   0  0  0  0  0  0  0  0  0  0  0  0
   10.2878  -17.1941   27.5220 C   0  0  0  0  0  0  0  0  0  0  0  0
   10.9514  -17.0323   26.4793 O   0  0  0  0  0  0  0  0  0  0  0  0
    7.1209  -20.9710   27.7616 O   0  0  0  0  0  0  0  0  0  0  0  0
   10.9302  -17.4866   28.7002 O   0  0  0  0  0  0  0  0  0  0  0  0
  2  1  1  6
  2  3  1  0
  2  7  1  0
  4  3  1  0
  4  5  1  0
  5  6  2  0
  7  8  2  0
  9  5  1  0
 11 10  1  6
 11 12  1  0
 13 11  1  0
 14 16  1  0
 14 13  1  1
 15  7  1  0
 15 14  1  0
 16 17  2  0
 18 16  1  0
 19 18  1  0
 19 24  1  0
 20 21  1  0
 19 20  1  6
 22 26  1  0
 22 21  1  0
 23 22  2  0
 24 25  2  0
 24 27  1  0
M  END
$$$$
