ELE.pdb
     RDKit          3D

 27 26  0  0  1  0  0  0  0  0999 V2000
    8.3771  -15.1853   20.8345 N   0  0  0  0  0  0  0  0  0  0  0  0
    7.8575  -15.8995   21.9888 C   0  0  1  0  0  0  0  0  0  0  0  0
    8.2413  -17.3347   21.8621 C   0  0  0  0  0  0  0  0  0  0  0  0
    9.5894  -17.5662   21.2596 C   0  0  0  0  0  0  0  0  0  0  0  0
    9.8496  -19.0414   21.2835 C   0  0  0  0  0  0  0  0  0  0  0  0
    8.9319  -19.8812   21.1064 O   0  0  0  0  0  0  0  0  0  0  0  0
    8.4212  -15.2329   23.1900 C   0  0  0  0  0  0  0  0  0  0  0  0
    9.6333  -14.8552   23.2226 O   0  0  0  0  0  0  0  0  0  0  0  0
   11.1255  -19.5300   21.5044 O   0  0  0  0  0  0  0  0  0  0  0  0
    7.6092  -11.4536   25.6232 C   0  0  0  0  0  0  0  0  0  0  0  0
    6.6163  -12.6107   25.7761 C   0  0  2  0  0  0  0  0  0  0  0  0
    5.4966  -12.0779   26.6787 C   0  0  0  0  0  0  0  0  0  0  0  0
    7.2672  -13.7775   26.4583 C   0  0  0  0  0  0  0  0  0  0  0  0
    8.2463  -14.4459   25.5847 C   0  0  2  0  0  0  0  0  0  0  0  0
    7.6684  -14.9742   24.3622 N   0  0  0  0  0  0  0  0  0  0  0  0
    8.9642  -15.5237   26.2704 C   0  0  0  0  0  0  0  0  0  0  0  0
    8.4643  -16.5848   26.7013 O   0  0  0  0  0  0  0  0  0  0  0  0
   10.3691  -15.3836   26.4844 N   0  0  0  0  0  0  0  0  0  0  0  0
   11.1577  -16.4050   27.1927 C   0  0  1  0  0  0  0  0  0  0  0  0
   12.5412  -16.3657   26.6449 C   0  0  0  0  0  0  0  0  0  0  0  0
   12.6800  -16.4433   25.1708 C   0  0  0  0  0  0  0  0  0  0  0  0
   14.0723  -16.3158   24.7100 C   0  0  0  0  0  0  0  0  0  0  0  0
   15.0206  -16.1640   25.4861 O   0  0  0  0  0  0  0  0  0  0  0  0
   11.0996  -16.0810   28.6279 C   0  0  0  0  0  0  0  0  0  0  0  0
   11.6488  -16.8239   29.4646 O   0  0  0  0  0  0  0  0  0  0  0  0
   14.3683  -16.3643   23.3422 O   0  0  0  0  0  0  0  0  0  0  0  0
   10.4371  -14.9537   29.0484 O   0  0  0  0  0  0  0  0  0  0  0  0
  2  1  1  6
  2  3  1  0
  2  7  1  0
  4  3  1  0
  4  5  1  0
  5  6  2  0
  7  8  2  0
  9  5  1  0
 11 10  1  1
 11 12  1  0
 13 11  1  0
 14 16  1  0
 14 13  1  1
 15  7  1  0
 15 14  1  0
 16 17  2  0
 18 16  1  0
 19 18  1  0
 19 24  1  0
 20 21  1  0
 19 20  1  6
 22 26  1  0
 22 21  1  0
 23 22  2  0
 24 25  2  0
 24 27  1  0
M  END
$$$$
