HWS.pdb
     RDKit          3D

 31 33  0  0  1  0  0  0  0  0999 V2000
    9.2641  -16.0403   20.4459 N   0  0  0  0  0  0  0  0  0  0  0  0
   10.1027  -16.8540   21.3406 C   0  0  1  0  0  0  0  0  0  0  0  0
   11.5120  -16.8550   20.8567 C   0  0  0  0  0  0  0  0  0  0  0  0
   11.6931  -17.5763   19.5841 C   0  0  0  0  0  0  0  0  0  0  0  0
   10.6195  -18.0122   18.7797 C   0  0  0  0  0  0  0  0  0  0  0  0
   11.1216  -18.6285   17.7023 N   0  0  0  0  0  0  0  0  0  0  0  0
   12.4681  -18.6132   17.7693 C   0  0  0  0  0  0  0  0  0  0  0  0
   12.7769  -17.9752   18.9091 N   0  0  0  0  0  0  0  0  0  0  0  0
   10.0325  -16.2651   22.7102 C   0  0  0  0  0  0  0  0  0  0  0  0
   10.3832  -15.1053   22.9336 O   0  0  0  0  0  0  0  0  0  0  0  0
    9.5507  -17.0455   23.8015 N   0  0  0  0  0  0  0  0  0  0  0  0
    9.4363  -16.4556   25.1455 C   0  0  1  0  0  0  0  0  0  0  0  0
    8.0528  -16.8618   25.6697 C   0  0  0  0  0  0  0  0  0  0  0  0
    7.0940  -15.7902   25.3789 C   0  0  0  0  0  0  0  0  0  0  0  0
    5.9221  -15.8383   24.6549 C   0  0  0  0  0  0  0  0  0  0  0  0
    5.3445  -14.6362   24.6305 N   0  0  0  0  0  0  0  0  0  0  0  0
    6.1197  -13.7693   25.3359 C   0  0  0  0  0  0  0  0  0  0  0  0
    5.9713  -12.4225   25.6113 C   0  0  0  0  0  0  0  0  0  0  0  0
    6.9390  -11.7935   26.3690 C   0  0  0  0  0  0  0  0  0  0  0  0
    8.0345  -12.4919   26.8442 C   0  0  0  0  0  0  0  0  0  0  0  0
    8.1672  -13.8263   26.5627 C   0  0  0  0  0  0  0  0  0  0  0  0
    7.2032  -14.4628   25.8051 C   0  0  0  0  0  0  0  0  0  0  0  0
   10.4277  -17.0569   26.0640 C   0  0  0  0  0  0  0  0  0  0  0  0
   10.8547  -18.2231   25.8707 O   0  0  0  0  0  0  0  0  0  0  0  0
   11.1894  -15.4321   29.7999 O   0  0  0  0  0  0  0  0  0  0  0  0
   12.2761  -16.0532   29.2365 C   0  0  0  0  0  0  0  0  0  0  0  0
   11.9139  -16.9735   28.0915 C   0  0  2  0  0  0  0  0  0  0  0  0
   10.9516  -16.3734   27.1992 N   0  0  0  0  0  0  0  0  0  0  0  0
   11.2898  -18.1995   28.6545 C   0  0  0  0  0  0  0  0  0  0  0  0
   11.9701  -19.0569   29.5061 O   0  0  0  0  0  0  0  0  0  0  0  0
   10.0997  -18.4433   28.3294 O   0  0  0  0  0  0  0  0  0  0  0  0
  2  1  1  6
  2  3  1  0
  3  4  1  0
  4  5  2  0
  6  5  1  0
  7  6  1  0
  8  7  2  0
  8  4  1  0
  9  2  1  0
 10  9  2  0
 11  9  1  0
 12 11  1  0
 12 13  1  1
 14 13  1  0
 14 22  1  0
 15 16  1  0
 15 14  2  0
 16 17  1  0
 17 18  2  0
 17 22  1  0
 18 19  1  0
 19 20  2  0
 21 20  1  0
 22 21  2  0
 23 12  1  0
 23 28  1  0
 24 23  2  0
 26 25  1  0
 27 28  1  0
 27 26  1  1
 29 27  1  0
 29 30  1  0
 31 29  2  0
M  END
$$$$
