HWS.pdb
     RDKit          3D

 31 33  0  0  1  0  0  0  0  0999 V2000
    9.8325  -17.8472   19.5817 N   0  0  0  0  0  0  0  0  0  0  0  0
   10.9602  -16.9938   19.9888 C   0  0  1  0  0  0  0  0  0  0  0  0
   11.3168  -16.0594   18.8843 C   0  0  0  0  0  0  0  0  0  0  0  0
   11.5800  -16.7405   17.6039 C   0  0  0  0  0  0  0  0  0  0  0  0
   12.8775  -16.9898   17.1098 C   0  0  0  0  0  0  0  0  0  0  0  0
   12.7681  -17.6198   15.9335 N   0  0  0  0  0  0  0  0  0  0  0  0
   11.4631  -17.7909   15.6411 C   0  0  0  0  0  0  0  0  0  0  0  0
   10.7790  -17.2526   16.6628 N   0  0  0  0  0  0  0  0  0  0  0  0
   10.5493  -16.2226   21.1988 C   0  0  0  0  0  0  0  0  0  0  0  0
   11.2671  -15.3441   21.6795 O   0  0  0  0  0  0  0  0  0  0  0  0
    9.2997  -16.4920   21.8296 N   0  0  0  0  0  0  0  0  0  0  0  0
    8.9959  -15.9234   23.1531 C   0  0  1  0  0  0  0  0  0  0  0  0
    7.4686  -15.7923   23.2170 C   0  0  0  0  0  0  0  0  0  0  0  0
    7.0878  -15.2249   24.5151 C   0  0  0  0  0  0  0  0  0  0  0  0
    6.5324  -15.8473   25.6123 C   0  0  0  0  0  0  0  0  0  0  0  0
    6.3395  -14.9661   26.5950 N   0  0  0  0  0  0  0  0  0  0  0  0
    6.7621  -13.7450   26.1701 C   0  0  0  0  0  0  0  0  0  0  0  0
    6.7813  -12.5127   26.7967 C   0  0  0  0  0  0  0  0  0  0  0  0
    7.2789  -11.4275   26.1031 C   0  0  0  0  0  0  0  0  0  0  0  0
    7.7490  -11.5661   24.8095 C   0  0  0  0  0  0  0  0  0  0  0  0
    7.7233  -12.7941   24.2023 C   0  0  0  0  0  0  0  0  0  0  0  0
    7.2269  -13.8848   24.8897 C   0  0  0  0  0  0  0  0  0  0  0  0
    9.3827  -16.8656   24.2257 C   0  0  0  0  0  0  0  0  0  0  0  0
    9.0513  -18.0765   24.1645 O   0  0  0  0  0  0  0  0  0  0  0  0
   12.6560  -17.2232   25.1455 O   0  0  0  0  0  0  0  0  0  0  0  0
   12.0845  -17.6102   26.3319 C   0  0  0  0  0  0  0  0  0  0  0  0
   10.5839  -17.4196   26.3651 C   0  0  2  0  0  0  0  0  0  0  0  0
   10.1368  -16.4751   25.3700 N   0  0  0  0  0  0  0  0  0  0  0  0
   10.2101  -16.8705   27.6949 C   0  0  0  0  0  0  0  0  0  0  0  0
   10.5351  -17.5095   28.8819 O   0  0  0  0  0  0  0  0  0  0  0  0
    9.5758  -15.7847   27.7139 O   0  0  0  0  0  0  0  0  0  0  0  0
  2  1  1  6
  2  3  1  0
  3  4  1  0
  4  5  2  0
  6  5  1  0
  7  6  1  0
  8  7  2  0
  8  4  1  0
  9  2  1  0
 10  9  2  0
 11  9  1  0
 12 11  1  0
 12 13  1  6
 14 13  1  0
 14 22  1  0
 15 16  1  0
 15 14  2  0
 16 17  1  0
 17 18  2  0
 17 22  1  0
 18 19  1  0
 19 20  2  0
 21 20  1  0
 22 21  2  0
 23 12  1  0
 23 28  1  0
 24 23  2  0
 26 25  1  0
 27 28  1  0
 27 26  1  1
 29 27  1  0
 29 30  1  0
 31 29  2  0
M  END
$$$$
