HWS.pdb
     RDKit          3D

 31 33  0  0  1  0  0  0  0  0999 V2000
    9.2054  -16.1717   20.3652 N   0  0  0  0  0  0  0  0  0  0  0  0
    9.4204  -17.3130   21.2690 C   0  0  1  0  0  0  0  0  0  0  0  0
   10.5368  -18.1603   20.7630 C   0  0  0  0  0  0  0  0  0  0  0  0
   10.1824  -18.9391   19.5627 C   0  0  0  0  0  0  0  0  0  0  0  0
    8.8714  -19.0184   19.0483 C   0  0  0  0  0  0  0  0  0  0  0  0
    8.8907  -19.7987   17.9605 N   0  0  0  0  0  0  0  0  0  0  0  0
   10.1501  -20.2289   17.7448 C   0  0  0  0  0  0  0  0  0  0  0  0
   10.8984  -19.6952   18.7231 N   0  0  0  0  0  0  0  0  0  0  0  0
    9.7554  -16.7804   22.6224 C   0  0  0  0  0  0  0  0  0  0  0  0
   10.5971  -15.8942   22.7779 O   0  0  0  0  0  0  0  0  0  0  0  0
    9.0971  -17.2947   23.7775 N   0  0  0  0  0  0  0  0  0  0  0  0
    9.4460  -16.7950   25.1176 C   0  0  1  0  0  0  0  0  0  0  0  0
    8.1616  -16.8882   25.9517 C   0  0  0  0  0  0  0  0  0  0  0  0
    7.3144  -15.7259   25.6628 C   0  0  0  0  0  0  0  0  0  0  0  0
    6.1275  -15.6609   24.9650 C   0  0  0  0  0  0  0  0  0  0  0  0
    5.6791  -14.4050   24.9320 N   0  0  0  0  0  0  0  0  0  0  0  0
    6.5574  -13.6143   25.6053 C   0  0  0  0  0  0  0  0  0  0  0  0
    6.5580  -12.2553   25.8601 C   0  0  0  0  0  0  0  0  0  0  0  0
    7.6038  -11.7206   26.5858 C   0  0  0  0  0  0  0  0  0  0  0  0
    8.6304  -12.5234   27.0495 C   0  0  0  0  0  0  0  0  0  0  0  0
    8.6155  -13.8685   26.7887 C   0  0  0  0  0  0  0  0  0  0  0  0
    7.5725  -14.4111   26.0632 C   0  0  0  0  0  0  0  0  0  0  0  0
   10.4336  -17.6859   25.7647 C   0  0  0  0  0  0  0  0  0  0  0  0
   10.3048  -18.9348   25.7052 O   0  0  0  0  0  0  0  0  0  0  0  0
   13.9087  -16.1034   27.2793 O   0  0  0  0  0  0  0  0  0  0  0  0
   13.9247  -17.4637   27.0971 C   0  0  0  0  0  0  0  0  0  0  0  0
   12.5439  -18.0819   27.0748 C   0  0  2  0  0  0  0  0  0  0  0  0
   11.5672  -17.2021   26.4797 N   0  0  0  0  0  0  0  0  0  0  0  0
   12.1184  -18.3302   28.4773 C   0  0  0  0  0  0  0  0  0  0  0  0
   12.8705  -19.0913   29.3594 O   0  0  0  0  0  0  0  0  0  0  0  0
   11.0317  -17.8188   28.8504 O   0  0  0  0  0  0  0  0  0  0  0  0
  2  1  1  6
  2  3  1  0
  3  4  1  0
  4  5  2  0
  6  5  1  0
  7  6  1  0
  8  7  2  0
  8  4  1  0
  9  2  1  0
 10  9  2  0
 11  9  1  0
 12 11  1  0
 12 13  1  1
 14 13  1  0
 14 22  1  0
 15 16  1  0
 15 14  2  0
 16 17  1  0
 17 18  2  0
 17 22  1  0
 18 19  1  0
 19 20  2  0
 21 20  1  0
 22 21  2  0
 23 12  1  0
 23 28  1  0
 24 23  2  0
 26 25  1  0
 27 28  1  0
 27 26  1  1
 29 27  1  0
 29 30  1  0
 31 29  2  0
M  END
$$$$
