HWS.pdb
     RDKit          3D

 31 33  0  0  1  0  0  0  0  0999 V2000
    9.6615  -17.0923   19.0591 N   0  0  0  0  0  0  0  0  0  0  0  0
   10.8086  -17.1140   19.9806 C   0  0  1  0  0  0  0  0  0  0  0  0
   11.9917  -16.4771   19.3365 C   0  0  0  0  0  0  0  0  0  0  0  0
   12.3331  -17.0651   18.0288 C   0  0  0  0  0  0  0  0  0  0  0  0
   12.3251  -18.4529   17.7760 C   0  0  0  0  0  0  0  0  0  0  0  0
   12.6796  -18.6523   16.5005 N   0  0  0  0  0  0  0  0  0  0  0  0
   12.9169  -17.4616   15.9142 C   0  0  0  0  0  0  0  0  0  0  0  0
   12.7000  -16.5321   16.8580 N   0  0  0  0  0  0  0  0  0  0  0  0
   10.4313  -16.3628   21.2139 C   0  0  0  0  0  0  0  0  0  0  0  0
   11.0979  -15.4090   21.6188 O   0  0  0  0  0  0  0  0  0  0  0  0
    9.2749  -16.7406   21.9569 N   0  0  0  0  0  0  0  0  0  0  0  0
    8.9938  -16.1213   23.2626 C   0  0  1  0  0  0  0  0  0  0  0  0
    7.4717  -15.9384   23.3253 C   0  0  0  0  0  0  0  0  0  0  0  0
    7.1141  -15.3126   24.6030 C   0  0  0  0  0  0  0  0  0  0  0  0
    6.5720  -15.8832   25.7346 C   0  0  0  0  0  0  0  0  0  0  0  0
    6.3993  -14.9588   26.6807 N   0  0  0  0  0  0  0  0  0  0  0  0
    6.8222  -13.7601   26.1967 C   0  0  0  0  0  0  0  0  0  0  0  0
    6.8579  -12.5018   26.7686 C   0  0  0  0  0  0  0  0  0  0  0  0
    7.3510  -11.4510   26.0209 C   0  0  0  0  0  0  0  0  0  0  0  0
    7.8004  -11.6487   24.7277 C   0  0  0  0  0  0  0  0  0  0  0  0
    7.7585  -12.9018   24.1750 C   0  0  0  0  0  0  0  0  0  0  0  0
    7.2665  -13.9584   24.9167 C   0  0  0  0  0  0  0  0  0  0  0  0
    9.3528  -17.0417   24.3635 C   0  0  0  0  0  0  0  0  0  0  0  0
    9.0016  -18.2481   24.3296 O   0  0  0  0  0  0  0  0  0  0  0  0
   12.6465  -16.3295   26.6364 O   0  0  0  0  0  0  0  0  0  0  0  0
   12.0934  -17.5841   26.5710 C   0  0  0  0  0  0  0  0  0  0  0  0
   10.5824  -17.5699   26.4931 C   0  0  2  0  0  0  0  0  0  0  0  0
   10.1007  -16.6343   25.5059 N   0  0  0  0  0  0  0  0  0  0  0  0
   10.0489  -17.1355   27.8108 C   0  0  0  0  0  0  0  0  0  0  0  0
   10.3541  -17.7958   28.9915 O   0  0  0  0  0  0  0  0  0  0  0  0
    9.2953  -16.1289   27.8254 O   0  0  0  0  0  0  0  0  0  0  0  0
  2  1  1  6
  2  3  1  0
  3  4  1  0
  4  5  2  0
  6  5  1  0
  7  6  1  0
  8  7  2  0
  8  4  1  0
  9  2  1  0
 10  9  2  0
 11  9  1  0
 12 11  1  0
 12 13  1  6
 14 13  1  0
 14 22  1  0
 15 16  1  0
 15 14  2  0
 16 17  1  0
 17 18  2  0
 17 22  1  0
 18 19  1  0
 19 20  2  0
 21 20  1  0
 22 21  2  0
 23 12  1  0
 23 28  1  0
 24 23  2  0
 26 25  1  0
 27 28  1  0
 27 26  1  1
 29 27  1  0
 29 30  1  0
 31 29  2  0
M  END
$$$$
