HWS.pdb
     RDKit          3D

 31 33  0  0  1  0  0  0  0  0999 V2000
    9.5122  -17.4724   21.3038 N   0  0  0  0  0  0  0  0  0  0  0  0
   10.8094  -17.0775   21.8755 C   0  0  1  0  0  0  0  0  0  0  0  0
   11.4766  -16.0844   20.9872 C   0  0  0  0  0  0  0  0  0  0  0  0
   11.9984  -16.6724   19.7404 C   0  0  0  0  0  0  0  0  0  0  0  0
   11.8089  -18.0232   19.3808 C   0  0  0  0  0  0  0  0  0  0  0  0
   12.4030  -18.2334   18.1995 N   0  0  0  0  0  0  0  0  0  0  0  0
   12.9681  -17.0849   17.7760 C   0  0  0  0  0  0  0  0  0  0  0  0
   12.7068  -16.1701   18.7229 N   0  0  0  0  0  0  0  0  0  0  0  0
   10.5641  -16.4776   23.2200 C   0  0  0  0  0  0  0  0  0  0  0  0
   11.1422  -15.4528   23.5855 O   0  0  0  0  0  0  0  0  0  0  0  0
    9.6421  -17.0885   24.1193 N   0  0  0  0  0  0  0  0  0  0  0  0
    9.5035  -16.5885   25.4971 C   0  0  1  0  0  0  0  0  0  0  0  0
    8.0598  -16.8958   25.9156 C   0  0  0  0  0  0  0  0  0  0  0  0
    7.1739  -15.8496   25.3933 C   0  0  0  0  0  0  0  0  0  0  0  0
    6.2129  -15.9290   24.4085 C   0  0  0  0  0  0  0  0  0  0  0  0
    5.6294  -14.7420   24.2356 N   0  0  0  0  0  0  0  0  0  0  0  0
    6.1902  -13.8542   25.1001 C   0  0  0  0  0  0  0  0  0  0  0  0
    5.9473  -12.5111   25.3205 C   0  0  0  0  0  0  0  0  0  0  0  0
    6.6880  -11.8560   26.2841 C   0  0  0  0  0  0  0  0  0  0  0  0
    7.6529  -12.5253   27.0152 C   0  0  0  0  0  0  0  0  0  0  0  0
    7.8819  -13.8565   26.7850 C   0  0  0  0  0  0  0  0  0  0  0  0
    7.1449  -14.5190   25.8225 C   0  0  0  0  0  0  0  0  0  0  0  0
   10.3790  -17.3472   26.4168 C   0  0  0  0  0  0  0  0  0  0  0  0
   10.6902  -18.5391   26.1670 O   0  0  0  0  0  0  0  0  0  0  0  0
   11.1464  -15.9482   30.2246 O   0  0  0  0  0  0  0  0  0  0  0  0
   12.1506  -16.7434   29.7314 C   0  0  0  0  0  0  0  0  0  0  0  0
   11.7339  -17.5568   28.5255 C   0  0  2  0  0  0  0  0  0  0  0  0
   10.9144  -16.7935   27.6156 N   0  0  0  0  0  0  0  0  0  0  0  0
   10.9186  -18.7076   28.9950 C   0  0  0  0  0  0  0  0  0  0  0  0
    9.5913  -18.8771   28.6308 O   0  0  0  0  0  0  0  0  0  0  0  0
   11.4793  -19.5430   29.7495 O   0  0  0  0  0  0  0  0  0  0  0  0
  2  1  1  6
  2  3  1  0
  3  4  1  0
  4  5  2  0
  6  5  1  0
  7  6  1  0
  8  7  2  0
  8  4  1  0
  9  2  1  0
 10  9  2  0
 11  9  1  0
 12 11  1  0
 12 13  1  1
 14 13  1  0
 14 22  1  0
 15 16  1  0
 15 14  2  0
 16 17  1  0
 17 18  2  0
 17 22  1  0
 18 19  1  0
 19 20  2  0
 21 20  1  0
 22 21  2  0
 23 12  1  0
 23 28  1  0
 24 23  2  0
 26 25  1  0
 27 28  1  0
 27 26  1  1
 29 27  1  0
 29 30  1  0
 31 29  2  0
M  END
$$$$
