HWS.pdb
     RDKit          3D

 31 33  0  0  1  0  0  0  0  0999 V2000
    8.2009  -16.6105   20.9452 N   0  0  0  0  0  0  0  0  0  0  0  0
    9.1552  -15.5024   21.1094 C   0  0  1  0  0  0  0  0  0  0  0  0
    8.5215  -14.2188   20.6958 C   0  0  0  0  0  0  0  0  0  0  0  0
    8.2189  -14.1534   19.2547 C   0  0  0  0  0  0  0  0  0  0  0  0
    8.5605  -15.1743   18.3430 C   0  0  0  0  0  0  0  0  0  0  0  0
    8.1477  -14.8072   17.1234 N   0  0  0  0  0  0  0  0  0  0  0  0
    7.5554  -13.5984   17.2002 C   0  0  0  0  0  0  0  0  0  0  0  0
    7.6153  -13.2358   18.4912 N   0  0  0  0  0  0  0  0  0  0  0  0
    9.5523  -15.4371   22.5467 C   0  0  0  0  0  0  0  0  0  0  0  0
   10.2028  -14.4917   22.9950 O   0  0  0  0  0  0  0  0  0  0  0  0
    9.1800  -16.4831   23.4408 N   0  0  0  0  0  0  0  0  0  0  0  0
    9.6295  -16.4596   24.8425 C   0  0  1  0  0  0  0  0  0  0  0  0
    8.3862  -16.7578   25.6906 C   0  0  0  0  0  0  0  0  0  0  0  0
    7.4220  -15.6634   25.5332 C   0  0  0  0  0  0  0  0  0  0  0  0
    6.1823  -15.6703   24.9308 C   0  0  0  0  0  0  0  0  0  0  0  0
    5.6265  -14.4599   25.0037 N   0  0  0  0  0  0  0  0  0  0  0  0
    6.4842  -13.6285   25.6541 C   0  0  0  0  0  0  0  0  0  0  0  0
    6.3882  -12.2897   25.9861 C   0  0  0  0  0  0  0  0  0  0  0  0
    7.4384  -11.7004   26.6613 C   0  0  0  0  0  0  0  0  0  0  0  0
    8.5638  -12.4300   27.0002 C   0  0  0  0  0  0  0  0  0  0  0  0
    8.6439  -13.7560   26.6641 C   0  0  0  0  0  0  0  0  0  0  0  0
    7.5971  -14.3528   25.9884 C   0  0  0  0  0  0  0  0  0  0  0  0
   10.5879  -17.5563   25.1003 C   0  0  0  0  0  0  0  0  0  0  0  0
   10.2885  -18.7459   24.8261 O   0  0  0  0  0  0  0  0  0  0  0  0
   14.3702  -16.6321   26.2433 O   0  0  0  0  0  0  0  0  0  0  0  0
   14.2279  -17.9720   25.9820 C   0  0  0  0  0  0  0  0  0  0  0  0
   12.7855  -18.4284   25.9584 C   0  0  2  0  0  0  0  0  0  0  0  0
   11.8803  -17.3446   25.6617 N   0  0  0  0  0  0  0  0  0  0  0  0
   12.4336  -18.9408   27.3087 C   0  0  0  0  0  0  0  0  0  0  0  0
   13.1232  -19.9814   27.9127 O   0  0  0  0  0  0  0  0  0  0  0  0
   11.4704  -18.3915   27.9019 O   0  0  0  0  0  0  0  0  0  0  0  0
  2  1  1  1
  2  3  1  0
  3  4  1  0
  4  5  2  0
  6  5  1  0
  7  6  1  0
  8  7  2  0
  8  4  1  0
  9  2  1  0
 10  9  2  0
 11  9  1  0
 12 11  1  0
 12 13  1  1
 14 13  1  0
 14 22  1  0
 15 16  1  0
 15 14  2  0
 16 17  1  0
 17 18  2  0
 17 22  1  0
 18 19  1  0
 19 20  2  0
 21 20  1  0
 22 21  2  0
 23 12  1  0
 23 28  1  0
 24 23  2  0
 26 25  1  0
 27 28  1  0
 27 26  1  1
 29 27  1  0
 29 30  1  0
 31 29  2  0
M  END
$$$$
