HWS.pdb
     RDKit          3D

 31 33  0  0  1  0  0  0  0  0999 V2000
    8.6705  -16.6741   21.2640 N   0  0  0  0  0  0  0  0  0  0  0  0
    9.6895  -15.6408   21.5080 C   0  0  1  0  0  0  0  0  0  0  0  0
    9.2347  -14.3353   20.9520 C   0  0  0  0  0  0  0  0  0  0  0  0
    8.8771  -14.4006   19.5235 C   0  0  0  0  0  0  0  0  0  0  0  0
    8.9131  -15.5915   18.7682 C   0  0  0  0  0  0  0  0  0  0  0  0
    8.5333  -15.3092   17.5158 N   0  0  0  0  0  0  0  0  0  0  0  0
    8.2529  -13.9938   17.4225 C   0  0  0  0  0  0  0  0  0  0  0  0
    8.4694  -13.4795   18.6433 N   0  0  0  0  0  0  0  0  0  0  0  0
    9.8942  -15.5256   22.9820 C   0  0  0  0  0  0  0  0  0  0  0  0
   10.6223  -14.6582   23.4673 O   0  0  0  0  0  0  0  0  0  0  0  0
    9.2407  -16.4304   23.8686 N   0  0  0  0  0  0  0  0  0  0  0  0
    9.4995  -16.3713   25.3167 C   0  0  1  0  0  0  0  0  0  0  0  0
    8.1492  -16.6274   25.9988 C   0  0  0  0  0  0  0  0  0  0  0  0
    7.2310  -15.5296   25.6764 C   0  0  0  0  0  0  0  0  0  0  0  0
    6.1480  -15.5174   24.8239 C   0  0  0  0  0  0  0  0  0  0  0  0
    5.5788  -14.3111   24.8173 N   0  0  0  0  0  0  0  0  0  0  0  0
    6.2710  -13.5014   25.6631 C   0  0  0  0  0  0  0  0  0  0  0  0
    6.0947  -12.1752   26.0118 C   0  0  0  0  0  0  0  0  0  0  0  0
    6.9719  -11.6082   26.9147 C   0  0  0  0  0  0  0  0  0  0  0  0
    8.0058  -12.3474   27.4608 C   0  0  0  0  0  0  0  0  0  0  0  0
    8.1672  -13.6608   27.1051 C   0  0  0  0  0  0  0  0  0  0  0  0
    7.2936  -14.2353   26.2022 C   0  0  0  0  0  0  0  0  0  0  0  0
   10.3958  -17.4727   25.7308 C   0  0  0  0  0  0  0  0  0  0  0  0
   10.3788  -18.5740   25.1253 O   0  0  0  0  0  0  0  0  0  0  0  0
   12.7754  -17.1041   29.1468 O   0  0  0  0  0  0  0  0  0  0  0  0
   13.1913  -18.0433   28.2364 C   0  0  0  0  0  0  0  0  0  0  0  0
   12.1000  -18.4789   27.2831 C   0  0  2  0  0  0  0  0  0  0  0  0
   11.3144  -17.3629   26.8145 N   0  0  0  0  0  0  0  0  0  0  0  0
   11.1799  -19.3928   28.0096 C   0  0  0  0  0  0  0  0  0  0  0  0
   11.6030  -20.5957   28.5548 O   0  0  0  0  0  0  0  0  0  0  0  0
    9.9788  -19.0365   28.1185 O   0  0  0  0  0  0  0  0  0  0  0  0
  2  1  1  1
  2  3  1  0
  3  4  1  0
  4  5  2  0
  6  5  1  0
  7  6  1  0
  8  7  2  0
  8  4  1  0
  9  2  1  0
 10  9  2  0
 11  9  1  0
 12 11  1  0
 12 13  1  1
 14 13  1  0
 14 22  1  0
 15 16  1  0
 15 14  2  0
 16 17  1  0
 17 18  2  0
 17 22  1  0
 18 19  1  0
 19 20  2  0
 21 20  1  0
 22 21  2  0
 23 12  1  0
 23 28  1  0
 24 23  2  0
 26 25  1  0
 27 28  1  0
 27 26  1  1
 29 27  1  0
 29 30  1  0
 31 29  2  0
M  END
$$$$
