HWS.pdb
     RDKit          3D

 31 33  0  0  1  0  0  0  0  0999 V2000
    7.0229  -15.1048   20.8119 N   0  0  0  0  0  0  0  0  0  0  0  0
    8.4827  -15.2907   20.7948 C   0  0  1  0  0  0  0  0  0  0  0  0
    9.1219  -14.2288   19.9677 C   0  0  0  0  0  0  0  0  0  0  0  0
    8.7587  -14.3005   18.5410 C   0  0  0  0  0  0  0  0  0  0  0  0
    8.0637  -13.2760   17.8648 C   0  0  0  0  0  0  0  0  0  0  0  0
    7.8930  -13.6507   16.5908 N   0  0  0  0  0  0  0  0  0  0  0  0
    8.4434  -14.8679   16.4084 C   0  0  0  0  0  0  0  0  0  0  0  0
    8.9531  -15.2279   17.5968 N   0  0  0  0  0  0  0  0  0  0  0  0
    8.9798  -15.2134   22.2000 C   0  0  0  0  0  0  0  0  0  0  0  0
    9.3481  -14.1480   22.6973 O   0  0  0  0  0  0  0  0  0  0  0  0
    9.0381  -16.3886   23.0047 N   0  0  0  0  0  0  0  0  0  0  0  0
    9.5798  -16.3284   24.3723 C   0  0  1  0  0  0  0  0  0  0  0  0
    8.3940  -16.5931   25.3092 C   0  0  0  0  0  0  0  0  0  0  0  0
    7.4374  -15.4862   25.1999 C   0  0  0  0  0  0  0  0  0  0  0  0
    6.2509  -15.4218   24.5016 C   0  0  0  0  0  0  0  0  0  0  0  0
    5.6817  -14.2268   24.6670 N   0  0  0  0  0  0  0  0  0  0  0  0
    6.4774  -13.4769   25.4761 C   0  0  0  0  0  0  0  0  0  0  0  0
    6.3445  -12.1849   25.9502 C   0  0  0  0  0  0  0  0  0  0  0  0
    7.3319  -11.6789   26.7719 C   0  0  0  0  0  0  0  0  0  0  0  0
    8.4316  -12.4445   27.1157 C   0  0  0  0  0  0  0  0  0  0  0  0
    8.5488  -13.7233   26.6377 C   0  0  0  0  0  0  0  0  0  0  0  0
    7.5650  -14.2368   25.8150 C   0  0  0  0  0  0  0  0  0  0  0  0
   10.5472  -17.4244   24.5978 C   0  0  0  0  0  0  0  0  0  0  0  0
   10.1935  -18.6248   24.4806 O   0  0  0  0  0  0  0  0  0  0  0  0
   14.4509  -16.5917   25.8390 O   0  0  0  0  0  0  0  0  0  0  0  0
   14.2556  -17.8282   25.2761 C   0  0  0  0  0  0  0  0  0  0  0  0
   12.8098  -18.2739   25.2945 C   0  0  2  0  0  0  0  0  0  0  0  0
   11.9087  -17.1998   24.9533 N   0  0  0  0  0  0  0  0  0  0  0  0
   12.4718  -18.7128   26.6739 C   0  0  0  0  0  0  0  0  0  0  0  0
   11.4638  -18.1184   27.4179 O   0  0  0  0  0  0  0  0  0  0  0  0
   13.1414  -19.6604   27.1588 O   0  0  0  0  0  0  0  0  0  0  0  0
  2  1  1  1
  2  3  1  0
  3  4  1  0
  4  5  2  0
  6  5  1  0
  7  6  1  0
  8  7  2  0
  8  4  1  0
  9  2  1  0
 10  9  2  0
 11  9  1  0
 12 11  1  0
 12 13  1  1
 14 13  1  0
 14 22  1  0
 15 16  1  0
 15 14  2  0
 16 17  1  0
 17 18  2  0
 17 22  1  0
 18 19  1  0
 19 20  2  0
 21 20  1  0
 22 21  2  0
 23 12  1  0
 23 28  1  0
 24 23  2  0
 26 25  1  0
 27 28  1  0
 27 26  1  1
 29 27  1  0
 29 30  1  0
 31 29  2  0
M  END
$$$$
