HWS.pdb
     RDKit          3D

 31 33  0  0  1  0  0  0  0  0999 V2000
    8.5158  -16.4874   20.8158 N   0  0  0  0  0  0  0  0  0  0  0  0
    9.0978  -15.1907   21.1973 C   0  0  1  0  0  0  0  0  0  0  0  0
    8.1686  -14.0864   20.8265 C   0  0  0  0  0  0  0  0  0  0  0  0
    8.0043  -13.9241   19.3707 C   0  0  0  0  0  0  0  0  0  0  0  0
    8.6502  -12.9161   18.6246 C   0  0  0  0  0  0  0  0  0  0  0  0
    8.2912  -13.0446   17.3412 N   0  0  0  0  0  0  0  0  0  0  0  0
    7.4443  -14.0866   17.2192 C   0  0  0  0  0  0  0  0  0  0  0  0
    7.2941  -14.5908   18.4540 N   0  0  0  0  0  0  0  0  0  0  0  0
    9.3233  -15.1959   22.6727 C   0  0  0  0  0  0  0  0  0  0  0  0
    9.8040  -14.2230   23.2562 O   0  0  0  0  0  0  0  0  0  0  0  0
    8.9810  -16.3438   23.4454 N   0  0  0  0  0  0  0  0  0  0  0  0
    9.3903  -16.4406   24.8563 C   0  0  1  0  0  0  0  0  0  0  0  0
    8.1033  -16.6872   25.6543 C   0  0  0  0  0  0  0  0  0  0  0  0
    7.2717  -15.4794   25.6124 C   0  0  0  0  0  0  0  0  0  0  0  0
    6.0586  -15.2742   24.9912 C   0  0  0  0  0  0  0  0  0  0  0  0
    5.6383  -14.0255   25.1993 N   0  0  0  0  0  0  0  0  0  0  0  0
    6.5618  -13.3794   25.9607 C   0  0  0  0  0  0  0  0  0  0  0  0
    6.6042  -12.0869   26.4498 C   0  0  0  0  0  0  0  0  0  0  0  0
    7.6914  -11.7045   27.2102 C   0  0  0  0  0  0  0  0  0  0  0  0
    8.7177  -12.5922   27.4791 C   0  0  0  0  0  0  0  0  0  0  0  0
    8.6610  -13.8698   26.9871 C   0  0  0  0  0  0  0  0  0  0  0  0
    7.5765  -14.2600   26.2254 C   0  0  0  0  0  0  0  0  0  0  0  0
   10.2508  -17.6248   25.0687 C   0  0  0  0  0  0  0  0  0  0  0  0
    9.8278  -18.7789   24.8059 O   0  0  0  0  0  0  0  0  0  0  0  0
   14.2449  -17.2739   26.4241 O   0  0  0  0  0  0  0  0  0  0  0  0
   13.8915  -18.3542   25.6546 C   0  0  0  0  0  0  0  0  0  0  0  0
   12.4214  -18.7001   25.7459 C   0  0  2  0  0  0  0  0  0  0  0  0
   11.5812  -17.5400   25.5718 N   0  0  0  0  0  0  0  0  0  0  0  0
   12.1504  -19.2421   27.1033 C   0  0  0  0  0  0  0  0  0  0  0  0
   12.8180  -20.3469   27.6103 O   0  0  0  0  0  0  0  0  0  0  0  0
   11.2785  -18.6571   27.7954 O   0  0  0  0  0  0  0  0  0  0  0  0
  2  1  1  1
  2  3  1  0
  3  4  1  0
  4  5  2  0
  6  5  1  0
  7  6  1  0
  8  7  2  0
  8  4  1  0
  9  2  1  0
 10  9  2  0
 11  9  1  0
 12 11  1  0
 12 13  1  1
 14 13  1  0
 14 22  1  0
 15 16  1  0
 15 14  2  0
 16 17  1  0
 17 18  2  0
 17 22  1  0
 18 19  1  0
 19 20  2  0
 21 20  1  0
 22 21  2  0
 23 12  1  0
 23 28  1  0
 24 23  2  0
 26 25  1  0
 27 28  1  0
 27 26  1  1
 29 27  1  0
 29 30  1  0
 31 29  2  0
M  END
$$$$
