HWS.pdb
     RDKit          3D

 31 33  0  0  1  0  0  0  0  0999 V2000
    8.1289  -12.7202   18.0286 N   0  0  0  0  0  0  0  0  0  0  0  0
    8.0901  -14.1209   18.4781 C   0  0  1  0  0  0  0  0  0  0  0  0
    9.0677  -14.9330   17.7003 C   0  0  0  0  0  0  0  0  0  0  0  0
    8.6697  -15.1406   16.2963 C   0  0  0  0  0  0  0  0  0  0  0  0
    7.5244  -14.5530   15.7194 C   0  0  0  0  0  0  0  0  0  0  0  0
    7.4500  -14.9397   14.4397 N   0  0  0  0  0  0  0  0  0  0  0  0
    8.4912  -15.7491   14.1592 C   0  0  0  0  0  0  0  0  0  0  0  0
    9.2019  -15.8482   15.2936 N   0  0  0  0  0  0  0  0  0  0  0  0
    8.4365  -14.1555   19.9295 C   0  0  0  0  0  0  0  0  0  0  0  0
    9.3773  -13.5031   20.3849 O   0  0  0  0  0  0  0  0  0  0  0  0
    7.6733  -14.9557   20.8291 N   0  0  0  0  0  0  0  0  0  0  0  0
    7.9524  -14.9235   22.2743 C   0  0  1  0  0  0  0  0  0  0  0  0
    6.5962  -15.0949   22.9711 C   0  0  0  0  0  0  0  0  0  0  0  0
    6.7854  -15.0008   24.4228 C   0  0  0  0  0  0  0  0  0  0  0  0
    6.7508  -15.9963   25.3754 C   0  0  0  0  0  0  0  0  0  0  0  0
    6.9735  -15.4844   26.5869 N   0  0  0  0  0  0  0  0  0  0  0  0
    7.1597  -14.1428   26.4621 C   0  0  0  0  0  0  0  0  0  0  0  0
    7.4201  -13.1623   27.4016 C   0  0  0  0  0  0  0  0  0  0  0  0
    7.5640  -11.8582   26.9716 C   0  0  0  0  0  0  0  0  0  0  0  0
    7.4510  -11.5356   25.6312 C   0  0  0  0  0  0  0  0  0  0  0  0
    7.1928  -12.5187   24.7124 C   0  0  0  0  0  0  0  0  0  0  0  0
    7.0474  -13.8260   25.1347 C   0  0  0  0  0  0  0  0  0  0  0  0
    8.7791  -16.0841   22.6708 C   0  0  0  0  0  0  0  0  0  0  0  0
    8.4444  -17.2505   22.3430 O   0  0  0  0  0  0  0  0  0  0  0  0
   12.6297  -15.5040   23.8230 O   0  0  0  0  0  0  0  0  0  0  0  0
   12.2818  -16.7954   23.5145 C   0  0  0  0  0  0  0  0  0  0  0  0
   10.8166  -17.0934   23.7462 C   0  0  2  0  0  0  0  0  0  0  0  0
    9.9784  -15.9621   23.4306 N   0  0  0  0  0  0  0  0  0  0  0  0
   10.6224  -17.3988   25.1879 C   0  0  0  0  0  0  0  0  0  0  0  0
   11.2637  -18.4547   25.8179 O   0  0  0  0  0  0  0  0  0  0  0  0
    9.8417  -16.6554   25.8357 O   0  0  0  0  0  0  0  0  0  0  0  0
  2  1  1  6
  2  3  1  0
  3  4  1  0
  4  5  2  0
  6  5  1  0
  7  6  1  0
  8  7  2  0
  8  4  1  0
  9  2  1  0
 10  9  2  0
 11  9  1  0
 12 11  1  0
 12 13  1  1
 14 13  1  0
 14 22  1  0
 15 16  1  0
 15 14  2  0
 16 17  1  0
 17 18  2  0
 17 22  1  0
 18 19  1  0
 19 20  2  0
 21 20  1  0
 22 21  2  0
 23 12  1  0
 23 28  1  0
 24 23  2  0
 26 25  1  0
 27 28  1  0
 27 26  1  1
 29 27  1  0
 29 30  1  0
 31 29  2  0
M  END
$$$$
