HWS.pdb
     RDKit          3D

 31 33  0  0  1  0  0  0  0  0999 V2000
    8.3537  -16.0568   20.6295 N   0  0  0  0  0  0  0  0  0  0  0  0
    9.1249  -17.1511   21.2406 C   0  0  1  0  0  0  0  0  0  0  0  0
   10.3692  -17.3963   20.4584 C   0  0  0  0  0  0  0  0  0  0  0  0
   10.1140  -17.8813   19.0901 C   0  0  0  0  0  0  0  0  0  0  0  0
   10.1898  -17.0571   17.9478 C   0  0  0  0  0  0  0  0  0  0  0  0
    9.9043  -17.7998   16.8710 N   0  0  0  0  0  0  0  0  0  0  0  0
    9.6471  -19.0650   17.2597 C   0  0  0  0  0  0  0  0  0  0  0  0
    9.7816  -19.0788   18.5951 N   0  0  0  0  0  0  0  0  0  0  0  0
    9.4688  -16.7563   22.6383 C   0  0  0  0  0  0  0  0  0  0  0  0
   10.2780  -15.8579   22.8754 O   0  0  0  0  0  0  0  0  0  0  0  0
    8.8577  -17.4212   23.7412 N   0  0  0  0  0  0  0  0  0  0  0  0
    9.2189  -17.0593   25.1218 C   0  0  1  0  0  0  0  0  0  0  0  0
    7.8951  -16.9398   25.8882 C   0  0  0  0  0  0  0  0  0  0  0  0
    7.2011  -15.7192   25.4631 C   0  0  0  0  0  0  0  0  0  0  0  0
    6.1485  -15.5726   24.5854 C   0  0  0  0  0  0  0  0  0  0  0  0
    5.8142  -14.2859   24.4758 N   0  0  0  0  0  0  0  0  0  0  0  0
    6.6361  -13.5556   25.2765 C   0  0  0  0  0  0  0  0  0  0  0  0
    6.7064  -12.1968   25.5220 C   0  0  0  0  0  0  0  0  0  0  0  0
    7.6643  -11.7340   26.4021 C   0  0  0  0  0  0  0  0  0  0  0  0
    8.5364  -12.6075   27.0267 C   0  0  0  0  0  0  0  0  0  0  0  0
    8.4540  -13.9515   26.7729 C   0  0  0  0  0  0  0  0  0  0  0  0
    7.4983  -14.4223   25.8935 C   0  0  0  0  0  0  0  0  0  0  0  0
    9.9801  -18.1528   25.7644 C   0  0  0  0  0  0  0  0  0  0  0  0
    9.5992  -19.3459   25.6589 O   0  0  0  0  0  0  0  0  0  0  0  0
   13.8614  -17.6038   27.0081 O   0  0  0  0  0  0  0  0  0  0  0  0
   13.3931  -18.8881   26.8855 C   0  0  0  0  0  0  0  0  0  0  0  0
   11.9060  -19.0107   27.1360 C   0  0  2  0  0  0  0  0  0  0  0  0
   11.1644  -17.9337   26.5258 N   0  0  0  0  0  0  0  0  0  0  0  0
   11.6695  -18.9350   28.6016 C   0  0  0  0  0  0  0  0  0  0  0  0
   12.2550  -19.8181   29.4964 O   0  0  0  0  0  0  0  0  0  0  0  0
   10.9055  -18.0267   29.0173 O   0  0  0  0  0  0  0  0  0  0  0  0
  2  1  1  6
  2  3  1  0
  3  4  1  0
  4  5  2  0
  6  5  1  0
  7  6  1  0
  8  7  2  0
  8  4  1  0
  9  2  1  0
 10  9  2  0
 11  9  1  0
 12 11  1  0
 12 13  1  1
 14 13  1  0
 14 22  1  0
 15 16  1  0
 15 14  2  0
 16 17  1  0
 17 18  2  0
 17 22  1  0
 18 19  1  0
 19 20  2  0
 21 20  1  0
 22 21  2  0
 23 12  1  0
 23 28  1  0
 24 23  2  0
 26 25  1  0
 27 28  1  0
 27 26  1  1
 29 27  1  0
 29 30  1  0
 31 29  2  0
M  END
$$$$
