HWS.pdb
     RDKit          3D

 31 33  0  0  1  0  0  0  0  0999 V2000
    8.0045  -12.8777   18.1865 N   0  0  0  0  0  0  0  0  0  0  0  0
    8.0948  -14.2727   18.6463 C   0  0  1  0  0  0  0  0  0  0  0  0
    9.1447  -14.9963   17.8752 C   0  0  0  0  0  0  0  0  0  0  0  0
    8.8374  -15.1159   16.4386 C   0  0  0  0  0  0  0  0  0  0  0  0
    7.7666  -15.8841   15.9354 C   0  0  0  0  0  0  0  0  0  0  0  0
    7.7637  -15.7817   14.6004 N   0  0  0  0  0  0  0  0  0  0  0  0
    8.7803  -14.9848   14.2140 C   0  0  0  0  0  0  0  0  0  0  0  0
    9.4031  -14.6033   15.3401 N   0  0  0  0  0  0  0  0  0  0  0  0
    8.4408  -14.2645   20.0982 C   0  0  0  0  0  0  0  0  0  0  0  0
    9.5320  -13.8575   20.5001 O   0  0  0  0  0  0  0  0  0  0  0  0
    7.5004  -14.7343   21.0611 N   0  0  0  0  0  0  0  0  0  0  0  0
    7.8656  -14.8048   22.4855 C   0  0  1  0  0  0  0  0  0  0  0  0
    6.5510  -15.0085   23.2499 C   0  0  0  0  0  0  0  0  0  0  0  0
    6.8299  -15.0319   24.6900 C   0  0  0  0  0  0  0  0  0  0  0  0
    7.0106  -16.1110   25.5281 C   0  0  0  0  0  0  0  0  0  0  0  0
    7.2440  -15.6946   26.7737 N   0  0  0  0  0  0  0  0  0  0  0  0
    7.2229  -14.3347   26.7863 C   0  0  0  0  0  0  0  0  0  0  0  0
    7.4052  -13.4247   27.8111 C   0  0  0  0  0  0  0  0  0  0  0  0
    7.3255  -12.0776   27.5192 C   0  0  0  0  0  0  0  0  0  0  0  0
    7.0691  -11.6438   26.2309 C   0  0  0  0  0  0  0  0  0  0  0  0
    6.8907  -12.5582   25.2262 C   0  0  0  0  0  0  0  0  0  0  0  0
    6.9689  -13.9078   25.5102 C   0  0  0  0  0  0  0  0  0  0  0  0
    8.6966  -15.9993   22.7514 C   0  0  0  0  0  0  0  0  0  0  0  0
    8.5403  -17.0503   22.0798 O   0  0  0  0  0  0  0  0  0  0  0  0
   13.0986  -17.1166   22.8621 O   0  0  0  0  0  0  0  0  0  0  0  0
   12.0073  -16.2902   22.9629 C   0  0  0  0  0  0  0  0  0  0  0  0
   10.8401  -16.9240   23.6876 C   0  0  2  0  0  0  0  0  0  0  0  0
    9.7030  -16.0386   23.7593 N   0  0  0  0  0  0  0  0  0  0  0  0
   11.2588  -17.2193   25.0830 C   0  0  0  0  0  0  0  0  0  0  0  0
   10.7907  -16.4955   26.1693 O   0  0  0  0  0  0  0  0  0  0  0  0
   12.0686  -18.1660   25.2549 O   0  0  0  0  0  0  0  0  0  0  0  0
  2  1  1  6
  2  3  1  0
  3  4  1  0
  4  5  2  0
  6  5  1  0
  7  6  1  0
  8  7  2  0
  8  4  1  0
  9  2  1  0
 10  9  2  0
 11  9  1  0
 12 11  1  0
 12 13  1  1
 14 13  1  0
 14 22  1  0
 15 16  1  0
 15 14  2  0
 16 17  1  0
 17 18  2  0
 17 22  1  0
 18 19  1  0
 19 20  2  0
 21 20  1  0
 22 21  2  0
 23 12  1  0
 23 28  1  0
 24 23  2  0
 26 25  1  0
 27 28  1  0
 27 26  1  6
 29 27  1  0
 29 30  1  0
 31 29  2  0
M  END
$$$$
