HWS.pdb
     RDKit          3D

 31 33  0  0  1  0  0  0  0  0999 V2000
    9.7378  -17.7808   21.3285 N   0  0  0  0  0  0  0  0  0  0  0  0
   10.1372  -16.3644   21.3286 C   0  0  1  0  0  0  0  0  0  0  0  0
    9.3161  -15.6034   20.3454 C   0  0  0  0  0  0  0  0  0  0  0  0
    9.4662  -16.0853   18.9605 C   0  0  0  0  0  0  0  0  0  0  0  0
   10.7152  -16.2361   18.3224 C   0  0  0  0  0  0  0  0  0  0  0  0
   10.5034  -16.6894   17.0806 N   0  0  0  0  0  0  0  0  0  0  0  0
    9.1783  -16.8396   16.8827 C   0  0  0  0  0  0  0  0  0  0  0  0
    8.5862  -16.4688   18.0288 N   0  0  0  0  0  0  0  0  0  0  0  0
    9.9259  -15.8197   22.7020 C   0  0  0  0  0  0  0  0  0  0  0  0
   10.2072  -14.6541   22.9852 O   0  0  0  0  0  0  0  0  0  0  0  0
    9.3860  -16.6507   23.7268 N   0  0  0  0  0  0  0  0  0  0  0  0
    9.3080  -16.1657   25.1146 C   0  0  1  0  0  0  0  0  0  0  0  0
    8.0124  -16.7483   25.6943 C   0  0  0  0  0  0  0  0  0  0  0  0
    6.9861  -15.7006   25.7281 C   0  0  0  0  0  0  0  0  0  0  0  0
    5.6174  -15.8133   25.6103 C   0  0  0  0  0  0  0  0  0  0  0  0
    5.0458  -14.6111   25.6955 N   0  0  0  0  0  0  0  0  0  0  0  0
    6.0213  -13.6797   25.8711 C   0  0  0  0  0  0  0  0  0  0  0  0
    5.9618  -12.3058   26.0146 C   0  0  0  0  0  0  0  0  0  0  0  0
    7.1415  -11.6080   26.1808 C   0  0  0  0  0  0  0  0  0  0  0  0
    8.3584  -12.2654   26.2040 C   0  0  0  0  0  0  0  0  0  0  0  0
    8.4008  -13.6274   26.0606 C   0  0  0  0  0  0  0  0  0  0  0  0
    7.2248  -14.3327   25.8938 C   0  0  0  0  0  0  0  0  0  0  0  0
   10.4167  -16.7188   25.9225 C   0  0  0  0  0  0  0  0  0  0  0  0
   11.2042  -17.5674   25.4330 O   0  0  0  0  0  0  0  0  0  0  0  0
   12.7479  -16.8859   30.2461 O   0  0  0  0  0  0  0  0  0  0  0  0
   11.8332  -16.2749   29.4251 C   0  0  0  0  0  0  0  0  0  0  0  0
   11.6799  -16.9590   28.0842 C   0  0  2  0  0  0  0  0  0  0  0  0
   10.6607  -16.3376   27.2736 N   0  0  0  0  0  0  0  0  0  0  0  0
   11.2602  -18.3653   28.3205 C   0  0  0  0  0  0  0  0  0  0  0  0
   12.1684  -19.3770   28.5939 O   0  0  0  0  0  0  0  0  0  0  0  0
   10.0295  -18.6179   28.2639 O   0  0  0  0  0  0  0  0  0  0  0  0
  2  1  1  1
  2  3  1  0
  3  4  1  0
  4  5  2  0
  6  5  1  0
  7  6  1  0
  8  7  2  0
  8  4  1  0
  9  2  1  0
 10  9  2  0
 11  9  1  0
 12 11  1  0
 12 13  1  1
 14 13  1  0
 14 22  1  0
 15 16  1  0
 15 14  2  0
 16 17  1  0
 17 18  2  0
 17 22  1  0
 18 19  1  0
 19 20  2  0
 21 20  1  0
 22 21  2  0
 23 12  1  0
 23 28  1  0
 24 23  2  0
 26 25  1  0
 27 28  1  0
 27 26  1  1
 29 27  1  0
 29 30  1  0
 31 29  2  0
M  END
$$$$
