HWS.pdb
     RDKit          3D

 31 33  0  0  1  0  0  0  0  0999 V2000
    7.2303  -14.5845   21.0443 N   0  0  0  0  0  0  0  0  0  0  0  0
    8.3340  -15.5522   21.1508 C   0  0  1  0  0  0  0  0  0  0  0  0
    9.3091  -15.3366   20.0450 C   0  0  0  0  0  0  0  0  0  0  0  0
    8.6924  -14.8037   18.8169 C   0  0  0  0  0  0  0  0  0  0  0  0
    7.8480  -13.6739   18.7997 C   0  0  0  0  0  0  0  0  0  0  0  0
    7.4596  -13.4555   17.5372 N   0  0  0  0  0  0  0  0  0  0  0  0
    8.0111  -14.3886   16.7353 C   0  0  0  0  0  0  0  0  0  0  0  0
    8.7435  -15.1803   17.5343 N   0  0  0  0  0  0  0  0  0  0  0  0
    9.0039  -15.3533   22.4697 C   0  0  0  0  0  0  0  0  0  0  0  0
    9.7326  -14.3832   22.6844 O   0  0  0  0  0  0  0  0  0  0  0  0
    8.8096  -16.2961   23.5210 N   0  0  0  0  0  0  0  0  0  0  0  0
    9.5237  -16.1434   24.7994 C   0  0  1  0  0  0  0  0  0  0  0  0
    8.4694  -16.3310   25.8981 C   0  0  0  0  0  0  0  0  0  0  0  0
    7.4637  -15.2688   25.7870 C   0  0  0  0  0  0  0  0  0  0  0  0
    6.1586  -15.3427   25.3500 C   0  0  0  0  0  0  0  0  0  0  0  0
    5.5838  -14.1403   25.4062 N   0  0  0  0  0  0  0  0  0  0  0  0
    6.4937  -13.2475   25.8804 C   0  0  0  0  0  0  0  0  0  0  0  0
    6.4040  -11.8897   26.1250 C   0  0  0  0  0  0  0  0  0  0  0  0
    7.5147  -11.2331   26.6166 C   0  0  0  0  0  0  0  0  0  0  0  0
    8.6932  -11.9152   26.8604 C   0  0  0  0  0  0  0  0  0  0  0  0
    8.7662  -13.2609   26.6128 C   0  0  0  0  0  0  0  0  0  0  0  0
    7.6592  -13.9250   26.1209 C   0  0  0  0  0  0  0  0  0  0  0  0
   10.5133  -17.2286   24.9757 C   0  0  0  0  0  0  0  0  0  0  0  0
   10.2002  -18.4240   24.7462 O   0  0  0  0  0  0  0  0  0  0  0  0
   14.2956  -16.2974   26.2729 O   0  0  0  0  0  0  0  0  0  0  0  0
   14.2064  -17.5727   25.7731 C   0  0  0  0  0  0  0  0  0  0  0  0
   12.7832  -18.0724   25.6554 C   0  0  2  0  0  0  0  0  0  0  0  0
   11.8521  -16.9986   25.4060 N   0  0  0  0  0  0  0  0  0  0  0  0
   12.3981  -18.6999   26.9468 C   0  0  0  0  0  0  0  0  0  0  0  0
   13.1323  -19.7250   27.5241 O   0  0  0  0  0  0  0  0  0  0  0  0
   11.3636  -18.2652   27.5144 O   0  0  0  0  0  0  0  0  0  0  0  0
  2  1  1  6
  2  3  1  0
  3  4  1  0
  4  5  2  0
  6  5  1  0
  7  6  1  0
  8  7  2  0
  8  4  1  0
  9  2  1  0
 10  9  2  0
 11  9  1  0
 12 11  1  0
 12 13  1  1
 14 13  1  0
 14 22  1  0
 15 16  1  0
 15 14  2  0
 16 17  1  0
 17 18  2  0
 17 22  1  0
 18 19  1  0
 19 20  2  0
 21 20  1  0
 22 21  2  0
 23 12  1  0
 23 28  1  0
 24 23  2  0
 26 25  1  0
 27 28  1  0
 27 26  1  1
 29 27  1  0
 29 30  1  0
 31 29  2  0
M  END
$$$$
