HWS.pdb
     RDKit          3D

 31 33  0  0  1  0  0  0  0  0999 V2000
    6.9888  -15.6812   20.6046 N   0  0  0  0  0  0  0  0  0  0  0  0
    8.3922  -16.1211   20.6577 C   0  0  1  0  0  0  0  0  0  0  0  0
    9.1677  -15.4847   19.5559 C   0  0  0  0  0  0  0  0  0  0  0  0
    8.7194  -15.8943   18.2128 C   0  0  0  0  0  0  0  0  0  0  0  0
    8.5141  -17.2391   17.8397 C   0  0  0  0  0  0  0  0  0  0  0  0
    8.1116  -17.2669   16.5631 N   0  0  0  0  0  0  0  0  0  0  0  0
    8.0461  -16.0058   16.0906 C   0  0  0  0  0  0  0  0  0  0  0  0
    8.4168  -15.2085   17.1048 N   0  0  0  0  0  0  0  0  0  0  0  0
    8.9577  -15.7199   21.9793 C   0  0  0  0  0  0  0  0  0  0  0  0
    9.5216  -14.6360   22.1386 O   0  0  0  0  0  0  0  0  0  0  0  0
    8.8539  -16.5964   23.0986 N   0  0  0  0  0  0  0  0  0  0  0  0
    9.5389  -16.2756   24.3616 C   0  0  1  0  0  0  0  0  0  0  0  0
    8.5201  -16.5465   25.4764 C   0  0  0  0  0  0  0  0  0  0  0  0
    7.4519  -15.5435   25.4067 C   0  0  0  0  0  0  0  0  0  0  0  0
    6.1383  -15.6909   25.0161 C   0  0  0  0  0  0  0  0  0  0  0  0
    5.4979  -14.5237   25.0990 N   0  0  0  0  0  0  0  0  0  0  0  0
    6.3717  -13.5816   25.5450 C   0  0  0  0  0  0  0  0  0  0  0  0
    6.2132  -12.2319   25.7997 C   0  0  0  0  0  0  0  0  0  0  0  0
    7.3012  -11.5141   26.2548 C   0  0  0  0  0  0  0  0  0  0  0  0
    8.5249  -12.1281   26.4529 C   0  0  0  0  0  0  0  0  0  0  0  0
    8.6659  -13.4666   26.1960 C   0  0  0  0  0  0  0  0  0  0  0  0
    7.5819  -14.1917   25.7404 C   0  0  0  0  0  0  0  0  0  0  0  0
   10.6695  -17.2016   24.5905 C   0  0  0  0  0  0  0  0  0  0  0  0
   10.5639  -18.4223   24.3105 O   0  0  0  0  0  0  0  0  0  0  0  0
   14.5326  -15.8200   25.6444 O   0  0  0  0  0  0  0  0  0  0  0  0
   14.3567  -16.9988   24.9636 C   0  0  0  0  0  0  0  0  0  0  0  0
   13.0421  -17.6803   25.2744 C   0  0  2  0  0  0  0  0  0  0  0  0
   11.9208  -16.7839   25.1291 N   0  0  0  0  0  0  0  0  0  0  0  0
   13.0693  -18.1277   26.6917 C   0  0  0  0  0  0  0  0  0  0  0  0
   13.9833  -19.0594   27.1606 O   0  0  0  0  0  0  0  0  0  0  0  0
   12.2203  -17.6261   27.4722 O   0  0  0  0  0  0  0  0  0  0  0  0
  2  1  1  1
  2  3  1  0
  3  4  1  0
  4  5  2  0
  6  5  1  0
  7  6  1  0
  8  7  2  0
  8  4  1  0
  9  2  1  0
 10  9  2  0
 11  9  1  0
 12 11  1  0
 12 13  1  1
 14 13  1  0
 14 22  1  0
 15 16  1  0
 15 14  2  0
 16 17  1  0
 17 18  2  0
 17 22  1  0
 18 19  1  0
 19 20  2  0
 21 20  1  0
 22 21  2  0
 23 12  1  0
 23 28  1  0
 24 23  2  0
 26 25  1  0
 27 28  1  0
 27 26  1  1
 29 27  1  0
 29 30  1  0
 31 29  2  0
M  END
$$$$
