YYV.pdb
     RDKit          3D

 32 33  0  0  1  0  0  0  0  0999 V2000
   15.6960  -14.4392   17.9464 O   0  0  0  0  0  0  0  0  0  0  0  0
   14.5047  -14.5238   18.6342 C   0  0  0  0  0  0  0  0  0  0  0  0
   13.3808  -13.8629   18.1348 C   0  0  0  0  0  0  0  0  0  0  0  0
   12.1613  -13.9327   18.8129 C   0  0  0  0  0  0  0  0  0  0  0  0
   12.0722  -14.6567   19.9770 C   0  0  0  0  0  0  0  0  0  0  0  0
   10.8060  -14.7581   20.7259 C   0  0  0  0  0  0  0  0  0  0  0  0
   10.4485  -16.2261   20.8190 C   0  0  2  0  0  0  0  0  0  0  0  0
    9.8260  -16.6020   19.5654 N   0  0  0  0  0  0  0  0  0  0  0  0
    9.5439  -16.5064   21.9718 C   0  0  0  0  0  0  0  0  0  0  0  0
    8.2940  -16.5069   21.8306 O   0  0  0  0  0  0  0  0  0  0  0  0
   13.1968  -15.2947   20.4406 C   0  0  0  0  0  0  0  0  0  0  0  0
   14.4056  -15.2469   19.8016 C   0  0  0  0  0  0  0  0  0  0  0  0
    7.2613  -19.3908   29.7976 O   0  0  0  0  0  0  0  0  0  0  0  0
    7.9426  -19.1116   28.6375 C   0  0  0  0  0  0  0  0  0  0  0  0
    7.3062  -19.2338   27.4058 C   0  0  0  0  0  0  0  0  0  0  0  0
    7.9924  -18.9531   26.2435 C   0  0  0  0  0  0  0  0  0  0  0  0
    9.3024  -18.5556   26.3409 C   0  0  0  0  0  0  0  0  0  0  0  0
   10.0518  -18.2504   25.0946 C   0  0  0  0  0  0  0  0  0  0  0  0
    9.3562  -17.0973   24.4090 C   0  0  2  0  0  0  0  0  0  0  0  0
   10.1388  -16.7725   23.2329 N   0  0  0  0  0  0  0  0  0  0  0  0
    9.3159  -15.8814   25.2553 C   0  0  0  0  0  0  0  0  0  0  0  0
   10.3586  -15.3647   25.7297 O   0  0  0  0  0  0  0  0  0  0  0  0
    9.9451  -18.4306   27.5571 C   0  0  0  0  0  0  0  0  0  0  0  0
    9.2604  -18.7095   28.6973 C   0  0  0  0  0  0  0  0  0  0  0  0
    6.0852  -13.1348   25.1832 C   0  0  0  0  0  0  0  0  0  0  0  0
    6.5932  -13.5150   26.5375 C   0  0  2  0  0  0  0  0  0  0  0  0
    6.5085  -12.3990   27.5406 C   0  0  0  0  0  0  0  0  0  0  0  0
    8.0120  -14.0966   26.4801 C   0  0  2  0  0  0  0  0  0  0  0  0
    8.0765  -15.2291   25.5776 N   0  0  0  0  0  0  0  0  0  0  0  0
    8.4808  -14.4493   27.8411 C   0  0  0  0  0  0  0  0  0  0  0  0
    9.1185  -13.4649   28.5819 O   0  0  0  0  0  0  0  0  0  0  0  0
    8.3384  -15.5805   28.3674 O   0  0  0  0  0  0  0  0  0  0  0  0
  2  1  1  0
  3  2  2  0
  4  3  1  0
  5  4  2  0
  5 11  1  0
  6  5  1  0
  7  8  1  6
  7  9  1  0
  7  6  1  0
  9 20  1  0
 10  9  2  0
 11 12  2  0
 12  2  1  0
 14 13  1  0
 15 14  2  0
 16 15  1  0
 17 16  2  0
 17 23  1  0
 18 17  1  0
 19 18  1  1
 20 19  1  0
 21 29  1  0
 21 19  1  0
 22 21  2  0
 23 24  2  0
 24 14  1  0
 26 25  1  6
 26 27  1  0
 26 28  1  0
 28 29  1  6
 28 30  1  0
 30 31  1  0
 32 30  2  0
M  END
$$$$
