YYV.pdb
     RDKit          3D

 32 33  0  0  1  0  0  0  0  0999 V2000
    9.1318  -12.4382   16.7276 O   0  0  0  0  0  0  0  0  0  0  0  0
    8.3783  -13.0540   17.7035 C   0  0  0  0  0  0  0  0  0  0  0  0
    7.2523  -13.7911   17.3318 C   0  0  0  0  0  0  0  0  0  0  0  0
    6.4716  -14.4251   18.3015 C   0  0  0  0  0  0  0  0  0  0  0  0
    6.8174  -14.3198   19.6268 C   0  0  0  0  0  0  0  0  0  0  0  0
    6.0230  -14.9719   20.6842 C   0  0  0  0  0  0  0  0  0  0  0  0
    6.6909  -16.2915   21.0071 C   0  0  2  0  0  0  0  0  0  0  0  0
    6.0055  -17.3214   20.2524 N   0  0  0  0  0  0  0  0  0  0  0  0
    6.6597  -16.5878   22.4690 C   0  0  0  0  0  0  0  0  0  0  0  0
    5.6016  -16.9708   23.0309 O   0  0  0  0  0  0  0  0  0  0  0  0
    7.9310  -13.5871   19.9582 C   0  0  0  0  0  0  0  0  0  0  0  0
    8.7169  -12.9543   19.0343 C   0  0  0  0  0  0  0  0  0  0  0  0
    9.3882  -18.9976   30.2211 O   0  0  0  0  0  0  0  0  0  0  0  0
    9.2840  -18.7132   28.8810 C   0  0  0  0  0  0  0  0  0  0  0  0
   10.3362  -18.0933   28.2134 C   0  0  0  0  0  0  0  0  0  0  0  0
   10.2287  -17.8092   26.8686 C   0  0  0  0  0  0  0  0  0  0  0  0
    9.0681  -18.1529   26.2216 C   0  0  0  0  0  0  0  0  0  0  0  0
    8.9412  -17.8515   24.7721 C   0  0  0  0  0  0  0  0  0  0  0  0
    7.9533  -16.7180   24.6217 C   0  0  2  0  0  0  0  0  0  0  0  0
    7.8622  -16.4237   23.2052 N   0  0  0  0  0  0  0  0  0  0  0  0
    8.4108  -15.4800   25.2957 C   0  0  0  0  0  0  0  0  0  0  0  0
    9.4792  -14.9018   24.9739 O   0  0  0  0  0  0  0  0  0  0  0  0
    8.0170  -18.7684   26.8727 C   0  0  0  0  0  0  0  0  0  0  0  0
    8.1322  -19.0444   28.1984 C   0  0  0  0  0  0  0  0  0  0  0  0
    5.9738  -13.4268   28.3573 C   0  0  0  0  0  0  0  0  0  0  0  0
    6.9186  -12.7710   27.4013 C   0  0  2  0  0  0  0  0  0  0  0  0
    6.2461  -12.2479   26.1632 C   0  0  0  0  0  0  0  0  0  0  0  0
    8.1013  -13.6804   27.0425 C   0  0  2  0  0  0  0  0  0  0  0  0
    7.6521  -14.8755   26.3561 N   0  0  0  0  0  0  0  0  0  0  0  0
    8.8895  -14.0047   28.2550 C   0  0  0  0  0  0  0  0  0  0  0  0
    9.5506  -12.9663   28.8947 O   0  0  0  0  0  0  0  0  0  0  0  0
    8.9981  -15.1575   28.7409 O   0  0  0  0  0  0  0  0  0  0  0  0
  2  1  1  0
  3  2  2  0
  4  3  1  0
  5  4  2  0
  5 11  1  0
  6  5  1  0
  7  8  1  6
  7  9  1  0
  7  6  1  0
  9 20  1  0
 10  9  2  0
 11 12  2  0
 12  2  1  0
 14 13  1  0
 15 14  2  0
 16 15  1  0
 17 16  2  0
 17 23  1  0
 18 17  1  0
 19 18  1  6
 20 19  1  0
 21 29  1  0
 21 19  1  0
 22 21  2  0
 23 24  2  0
 24 14  1  0
 26 25  1  6
 26 27  1  0
 26 28  1  0
 28 29  1  1
 28 30  1  0
 30 31  1  0
 32 30  2  0
M  END
$$$$
