YYV.pdb
     RDKit          3D

 32 33  0  0  1  0  0  0  0  0999 V2000
   17.3531  -24.2096   18.9259 O   0  0  0  0  0  0  0  0  0  0  0  0
   16.6879  -23.9250   20.0990 C   0  0  0  0  0  0  0  0  0  0  0  0
   16.6423  -24.8890   21.1079 C   0  0  0  0  0  0  0  0  0  0  0  0
   15.9746  -24.6256   22.3065 C   0  0  0  0  0  0  0  0  0  0  0  0
   15.3610  -23.4102   22.4890 C   0  0  0  0  0  0  0  0  0  0  0  0
   14.6450  -23.0885   23.7373 C   0  0  0  0  0  0  0  0  0  0  0  0
   13.3767  -23.9147   23.7604 C   0  0  2  0  0  0  0  0  0  0  0  0
   12.5380  -23.4536   22.6723 N   0  0  0  0  0  0  0  0  0  0  0  0
   12.6661  -23.8065   25.0678 C   0  0  0  0  0  0  0  0  0  0  0  0
   11.8044  -22.9119   25.2658 O   0  0  0  0  0  0  0  0  0  0  0  0
   15.4249  -22.4843   21.4763 C   0  0  0  0  0  0  0  0  0  0  0  0
   16.0700  -22.7098   20.2911 C   0  0  0  0  0  0  0  0  0  0  0  0
   10.0954  -26.1655   32.9930 O   0  0  0  0  0  0  0  0  0  0  0  0
   10.6895  -26.1570   31.7541 C   0  0  0  0  0  0  0  0  0  0  0  0
   12.0708  -26.0289   31.6414 C   0  0  0  0  0  0  0  0  0  0  0  0
   12.6640  -26.0207   30.3970 C   0  0  0  0  0  0  0  0  0  0  0  0
   11.8594  -26.1411   29.2917 C   0  0  0  0  0  0  0  0  0  0  0  0
   12.4879  -26.1334   27.9452 C   0  0  0  0  0  0  0  0  0  0  0  0
   12.3593  -24.7362   27.3843 C   0  0  2  0  0  0  0  0  0  0  0  0
   12.9936  -24.7454   26.0808 N   0  0  0  0  0  0  0  0  0  0  0  0
   13.0715  -23.7314   28.2086 C   0  0  0  0  0  0  0  0  0  0  0  0
   14.3241  -23.7188   28.3092 O   0  0  0  0  0  0  0  0  0  0  0  0
   10.4876  -26.2688   29.3902 C   0  0  0  0  0  0  0  0  0  0  0  0
    9.9120  -26.2759   30.6212 C   0  0  0  0  0  0  0  0  0  0  0  0
   11.3421  -19.9063   29.1090 C   0  0  0  0  0  0  0  0  0  0  0  0
   12.7849  -20.2931   29.0346 C   0  0  2  0  0  0  0  0  0  0  0  0
   13.3500  -20.2217   27.6437 C   0  0  0  0  0  0  0  0  0  0  0  0
   13.0481  -21.6668   29.6655 C   0  0  2  0  0  0  0  0  0  0  0  0
   12.3622  -22.7162   28.9377 N   0  0  0  0  0  0  0  0  0  0  0  0
   12.6747  -21.6562   31.0997 C   0  0  0  0  0  0  0  0  0  0  0  0
   13.4646  -20.9185   31.9692 O   0  0  0  0  0  0  0  0  0  0  0  0
   11.6904  -22.2712   31.5791 O   0  0  0  0  0  0  0  0  0  0  0  0
  2  1  1  0
  3  2  2  0
  4  3  1  0
  5  4  2  0
  5 11  1  0
  6  5  1  0
  7  8  1  6
  7  9  1  0
  7  6  1  0
  9 20  1  0
 10  9  2  0
 11 12  2  0
 12  2  1  0
 14 13  1  0
 15 14  2  0
 16 15  1  0
 17 16  2  0
 17 23  1  0
 18 17  1  0
 19 18  1  1
 20 19  1  0
 21 29  1  0
 21 19  1  0
 22 21  2  0
 23 24  2  0
 24 14  1  0
 26 25  1  6
 26 27  1  0
 26 28  1  0
 28 29  1  6
 28 30  1  0
 30 31  1  0
 32 30  2  0
M  END
$$$$
