YYV.pdb
     RDKit          3D

 32 33  0  0  1  0  0  0  0  0999 V2000
    6.7200  -13.4239   14.8257 O   0  0  0  0  0  0  0  0  0  0  0  0
    6.9887  -13.8831   16.0971 C   0  0  0  0  0  0  0  0  0  0  0  0
    7.1448  -12.9630   17.1355 C   0  0  0  0  0  0  0  0  0  0  0  0
    7.4176  -13.4024   18.4333 C   0  0  0  0  0  0  0  0  0  0  0  0
    7.5321  -14.7481   18.6844 C   0  0  0  0  0  0  0  0  0  0  0  0
    7.8192  -15.2573   20.0382 C   0  0  0  0  0  0  0  0  0  0  0  0
    9.1661  -14.7066   20.4556 C   0  0  2  0  0  0  0  0  0  0  0  0
   10.1532  -15.2253   19.5300 N   0  0  0  0  0  0  0  0  0  0  0  0
    9.5053  -15.0726   21.8616 C   0  0  0  0  0  0  0  0  0  0  0  0
   10.2853  -16.0267   22.1135 O   0  0  0  0  0  0  0  0  0  0  0  0
    7.3729  -15.6263   17.6403 C   0  0  0  0  0  0  0  0  0  0  0  0
    7.1052  -15.2298   16.3585 C   0  0  0  0  0  0  0  0  0  0  0  0
    9.5559  -14.3345   30.5109 O   0  0  0  0  0  0  0  0  0  0  0  0
    9.2916  -14.1326   29.1778 C   0  0  0  0  0  0  0  0  0  0  0  0
   10.2872  -14.3410   28.2278 C   0  0  0  0  0  0  0  0  0  0  0  0
   10.0191  -14.1376   26.8909 C   0  0  0  0  0  0  0  0  0  0  0  0
    8.7581  -13.7294   26.5348 C   0  0  0  0  0  0  0  0  0  0  0  0
    8.4578  -13.5070   25.0966 C   0  0  0  0  0  0  0  0  0  0  0  0
    9.2995  -14.4727   24.2951 C   0  0  2  0  0  0  0  0  0  0  0  0
    8.9197  -14.3098   22.9057 N   0  0  0  0  0  0  0  0  0  0  0  0
    9.0336  -15.8850   24.6571 C   0  0  0  0  0  0  0  0  0  0  0  0
    7.8847  -16.3880   24.5789 O   0  0  0  0  0  0  0  0  0  0  0  0
    7.7616  -13.5191   27.4678 C   0  0  0  0  0  0  0  0  0  0  0  0
    8.0354  -13.7222   28.7833 C   0  0  0  0  0  0  0  0  0  0  0  0
    9.9332  -19.0910   23.2543 C   0  0  0  0  0  0  0  0  0  0  0  0
   10.4895  -19.1346   24.6418 C   0  0  2  0  0  0  0  0  0  0  0  0
   10.4611  -20.5077   25.2523 C   0  0  0  0  0  0  0  0  0  0  0  0
    9.8201  -18.1081   25.5652 C   0  0  2  0  0  0  0  0  0  0  0  0
   10.0812  -16.7542   25.1179 N   0  0  0  0  0  0  0  0  0  0  0  0
   10.2505  -18.3176   26.9679 C   0  0  0  0  0  0  0  0  0  0  0  0
   11.0188  -17.3285   27.5643 O   0  0  0  0  0  0  0  0  0  0  0  0
    9.9651  -19.3316   27.6515 O   0  0  0  0  0  0  0  0  0  0  0  0
  2  1  1  0
  3  2  2  0
  4  3  1  0
  5  4  2  0
  5 11  1  0
  6  5  1  0
  7  8  1  6
  7  9  1  0
  7  6  1  0
  9 20  1  0
 10  9  2  0
 11 12  2  0
 12  2  1  0
 14 13  1  0
 15 14  2  0
 16 15  1  0
 17 16  2  0
 17 23  1  0
 18 17  1  0
 19 18  1  1
 20 19  1  0
 21 29  1  0
 21 19  1  0
 22 21  2  0
 23 24  2  0
 24 14  1  0
 26 25  1  6
 26 27  1  0
 26 28  1  0
 28 29  1  6
 28 30  1  0
 30 31  1  0
 32 30  2  0
M  END
$$$$
