YYV.pdb
     RDKit          3D

 32 33  0  0  1  0  0  0  0  0999 V2000
    7.6702  -11.9515   16.2801 O   0  0  0  0  0  0  0  0  0  0  0  0
    7.5715  -12.6160   17.4835 C   0  0  0  0  0  0  0  0  0  0  0  0
    8.5348  -12.3893   18.4684 C   0  0  0  0  0  0  0  0  0  0  0  0
    8.4577  -13.0501   19.6969 C   0  0  0  0  0  0  0  0  0  0  0  0
    7.4268  -13.9269   19.9327 C   0  0  0  0  0  0  0  0  0  0  0  0
    7.3054  -14.6464   21.2141 C   0  0  0  0  0  0  0  0  0  0  0  0
    8.2011  -15.8645   21.1388 C   0  0  2  0  0  0  0  0  0  0  0  0
    7.6296  -16.7640   20.1569 N   0  0  0  0  0  0  0  0  0  0  0  0
    8.3398  -16.5357   22.4640 C   0  0  0  0  0  0  0  0  0  0  0  0
    7.3747  -17.1539   22.9823 O   0  0  0  0  0  0  0  0  0  0  0  0
    6.4961  -14.1269   18.9425 C   0  0  0  0  0  0  0  0  0  0  0  0
    6.5420  -13.4965   17.7291 C   0  0  0  0  0  0  0  0  0  0  0  0
    9.2565  -22.2106   21.0918 O   0  0  0  0  0  0  0  0  0  0  0  0
    9.6738  -21.1743   21.8916 C   0  0  0  0  0  0  0  0  0  0  0  0
    9.4483  -21.2155   23.2644 C   0  0  0  0  0  0  0  0  0  0  0  0
    9.8682  -20.1742   24.0644 C   0  0  0  0  0  0  0  0  0  0  0  0
   10.5055  -19.1135   23.4707 C   0  0  0  0  0  0  0  0  0  0  0  0
   10.9625  -17.9855   24.3233 C   0  0  0  0  0  0  0  0  0  0  0  0
    9.8186  -17.0053   24.4432 C   0  0  2  0  0  0  0  0  0  0  0  0
    9.5955  -16.4545   23.1210 N   0  0  0  0  0  0  0  0  0  0  0  0
   10.1421  -15.8703   25.3395 C   0  0  0  0  0  0  0  0  0  0  0  0
   11.0720  -15.0641   25.0849 O   0  0  0  0  0  0  0  0  0  0  0  0
   10.7353  -19.0608   22.1098 C   0  0  0  0  0  0  0  0  0  0  0  0
   10.3177  -20.0920   21.3294 C   0  0  0  0  0  0  0  0  0  0  0  0
    7.3907  -14.2527   28.2266 C   0  0  0  0  0  0  0  0  0  0  0  0
    8.6147  -13.5923   27.6766 C   0  0  2  0  0  0  0  0  0  0  0  0
    8.3566  -12.8130   26.4176 C   0  0  0  0  0  0  0  0  0  0  0  0
    9.7689  -14.5846   27.4826 C   0  0  2  0  0  0  0  0  0  0  0  0
    9.4053  -15.6333   26.5504 N   0  0  0  0  0  0  0  0  0  0  0  0
   10.2020  -15.1343   28.7890 C   0  0  0  0  0  0  0  0  0  0  0  0
   10.7795  -14.2616   29.6996 O   0  0  0  0  0  0  0  0  0  0  0  0
   10.0805  -16.3380   29.1254 O   0  0  0  0  0  0  0  0  0  0  0  0
  2  1  1  0
  3  2  2  0
  4  3  1  0
  5  4  2  0
  5 11  1  0
  6  5  1  0
  7  8  1  6
  7  9  1  0
  7  6  1  0
  9 20  1  0
 10  9  2  0
 11 12  2  0
 12  2  1  0
 14 13  1  0
 15 14  2  0
 16 15  1  0
 17 16  2  0
 17 23  1  0
 18 17  1  0
 19 18  1  6
 20 19  1  0
 21 29  1  0
 21 19  1  0
 22 21  2  0
 23 24  2  0
 24 14  1  0
 26 25  1  6
 26 27  1  0
 26 28  1  0
 28 29  1  6
 28 30  1  0
 30 31  1  0
 32 30  2  0
M  END
$$$$
