YYV.pdb
     RDKit          3D

 32 33  0  0  1  0  0  0  0  0999 V2000
    7.1005  -13.4645   15.3545 O   0  0  0  0  0  0  0  0  0  0  0  0
    7.6772  -13.9864   16.4923 C   0  0  0  0  0  0  0  0  0  0  0  0
    7.7124  -15.3714   16.6649 C   0  0  0  0  0  0  0  0  0  0  0  0
    8.2912  -15.9259   17.8092 C   0  0  0  0  0  0  0  0  0  0  0  0
    8.8273  -15.1001   18.7671 C   0  0  0  0  0  0  0  0  0  0  0  0
    9.4481  -15.6409   19.9904 C   0  0  0  0  0  0  0  0  0  0  0  0
    9.8003  -14.4672   20.8793 C   0  0  2  0  0  0  0  0  0  0  0  0
   11.0697  -13.9401   20.4203 N   0  0  0  0  0  0  0  0  0  0  0  0
    9.8712  -14.8597   22.3169 C   0  0  0  0  0  0  0  0  0  0  0  0
   10.9783  -15.0289   22.8894 O   0  0  0  0  0  0  0  0  0  0  0  0
    8.7760  -13.7422   18.5661 C   0  0  0  0  0  0  0  0  0  0  0  0
    8.2170  -13.1668   17.4578 C   0  0  0  0  0  0  0  0  0  0  0  0
    6.7562  -10.4253   27.6500 O   0  0  0  0  0  0  0  0  0  0  0  0
    6.8620  -11.6141   26.9694 C   0  0  0  0  0  0  0  0  0  0  0  0
    7.7795  -12.5765   27.3807 C   0  0  0  0  0  0  0  0  0  0  0  0
    7.8834  -13.7684   26.6958 C   0  0  0  0  0  0  0  0  0  0  0  0
    7.0651  -13.9700   25.6126 C   0  0  0  0  0  0  0  0  0  0  0  0
    7.1685  -15.2511   24.8668 C   0  0  0  0  0  0  0  0  0  0  0  0
    8.6027  -15.4088   24.4179 C   0  0  2  0  0  0  0  0  0  0  0  0
    8.6494  -15.0360   23.0178 N   0  0  0  0  0  0  0  0  0  0  0  0
    9.0702  -16.8120   24.5112 C   0  0  0  0  0  0  0  0  0  0  0  0
    8.4627  -17.7559   23.9461 O   0  0  0  0  0  0  0  0  0  0  0  0
    6.1507  -13.0230   25.1945 C   0  0  0  0  0  0  0  0  0  0  0  0
    6.0555  -11.8512   25.8760 C   0  0  0  0  0  0  0  0  0  0  0  0
   13.1000  -17.9683   25.4811 C   0  0  0  0  0  0  0  0  0  0  0  0
   12.0372  -18.8037   24.8415 C   0  0  2  0  0  0  0  0  0  0  0  0
   11.9998  -18.6765   23.3444 C   0  0  0  0  0  0  0  0  0  0  0  0
   10.6530  -18.5435   25.4504 C   0  0  2  0  0  0  0  0  0  0  0  0
   10.2473  -17.1655   25.2562 N   0  0  0  0  0  0  0  0  0  0  0  0
   10.6391  -18.9254   26.8824 C   0  0  0  0  0  0  0  0  0  0  0  0
   10.3964  -17.9287   27.8162 O   0  0  0  0  0  0  0  0  0  0  0  0
   10.8324  -20.0918   27.3055 O   0  0  0  0  0  0  0  0  0  0  0  0
  2  1  1  0
  3  2  2  0
  4  3  1  0
  5  4  2  0
  5 11  1  0
  6  5  1  0
  7  8  1  6
  7  9  1  0
  7  6  1  0
  9 20  1  0
 10  9  2  0
 11 12  2  0
 12  2  1  0
 14 13  1  0
 15 14  2  0
 16 15  1  0
 17 16  2  0
 17 23  1  0
 18 17  1  0
 19 18  1  6
 20 19  1  0
 21 29  1  0
 21 19  1  0
 22 21  2  0
 23 24  2  0
 24 14  1  0
 26 25  1  1
 26 27  1  0
 26 28  1  0
 28 29  1  1
 28 30  1  0
 30 31  1  0
 32 30  2  0
M  END
$$$$
