YYV.pdb
     RDKit          3D

 32 33  0  0  1  0  0  0  0  0999 V2000
    7.7960  -20.9564   26.6038 O   0  0  0  0  0  0  0  0  0  0  0  0
    7.8751  -20.7873   25.2383 C   0  0  0  0  0  0  0  0  0  0  0  0
    6.7291  -20.9675   24.4616 C   0  0  0  0  0  0  0  0  0  0  0  0
    6.7824  -20.8020   23.0753 C   0  0  0  0  0  0  0  0  0  0  0  0
    7.9711  -20.4602   22.4776 C   0  0  0  0  0  0  0  0  0  0  0  0
    8.0742  -20.2751   21.0183 C   0  0  0  0  0  0  0  0  0  0  0  0
    7.4657  -18.9295   20.6859 C   0  0  2  0  0  0  0  0  0  0  0  0
    7.4132  -18.8212   19.2418 N   0  0  0  0  0  0  0  0  0  0  0  0
    8.2451  -17.8045   21.2799 C   0  0  0  0  0  0  0  0  0  0  0  0
    9.4356  -17.5877   20.9366 O   0  0  0  0  0  0  0  0  0  0  0  0
    9.0796  -20.2906   23.2709 C   0  0  0  0  0  0  0  0  0  0  0  0
    9.0619  -20.4448   24.6303 C   0  0  0  0  0  0  0  0  0  0  0  0
    7.6999  -12.5030   17.6943 O   0  0  0  0  0  0  0  0  0  0  0  0
    7.6023  -13.0464   18.9524 C   0  0  0  0  0  0  0  0  0  0  0  0
    6.7569  -14.1276   19.1839 C   0  0  0  0  0  0  0  0  0  0  0  0
    6.6610  -14.6707   20.4474 C   0  0  0  0  0  0  0  0  0  0  0  0
    7.4150  -14.1182   21.4522 C   0  0  0  0  0  0  0  0  0  0  0  0
    7.3196  -14.6955   22.8181 C   0  0  0  0  0  0  0  0  0  0  0  0
    8.2657  -15.8716   22.8887 C   0  0  2  0  0  0  0  0  0  0  0  0
    7.6003  -16.9869   22.2446 N   0  0  0  0  0  0  0  0  0  0  0  0
    8.5510  -16.2811   24.2841 C   0  0  0  0  0  0  0  0  0  0  0  0
    7.6361  -16.5905   25.0882 O   0  0  0  0  0  0  0  0  0  0  0  0
    8.2576  -13.0454   21.2354 C   0  0  0  0  0  0  0  0  0  0  0  0
    8.3454  -12.5168   19.9866 C   0  0  0  0  0  0  0  0  0  0  0  0
   11.1040  -18.9026   27.3113 C   0  0  0  0  0  0  0  0  0  0  0  0
   10.8080  -18.3002   25.9748 C   0  0  2  0  0  0  0  0  0  0  0  0
   11.9901  -18.2993   25.0466 C   0  0  0  0  0  0  0  0  0  0  0  0
   10.2023  -16.8955   26.0955 C   0  0  2  0  0  0  0  0  0  0  0  0
    9.8946  -16.3452   24.7903 N   0  0  0  0  0  0  0  0  0  0  0  0
   11.1042  -16.0092   26.8686 C   0  0  0  0  0  0  0  0  0  0  0  0
   11.2272  -16.2396   28.2310 O   0  0  0  0  0  0  0  0  0  0  0  0
   11.7640  -15.0636   26.3711 O   0  0  0  0  0  0  0  0  0  0  0  0
  2  1  1  0
  3  2  2  0
  4  3  1  0
  5  4  2  0
  5 11  1  0
  6  5  1  0
  7  8  1  6
  7  9  1  0
  7  6  1  0
  9 20  1  0
 10  9  2  0
 11 12  2  0
 12  2  1  0
 14 13  1  0
 15 14  2  0
 16 15  1  0
 17 16  2  0
 17 23  1  0
 18 17  1  0
 19 18  1  1
 20 19  1  0
 21 29  1  0
 21 19  1  0
 22 21  2  0
 23 24  2  0
 24 14  1  0
 26 25  1  1
 26 27  1  0
 26 28  1  0
 28 29  1  6
 28 30  1  0
 30 31  1  0
 32 30  2  0
M  END
$$$$
