YYV.pdb
     RDKit          3D

 32 33  0  0  1  0  0  0  0  0999 V2000
    6.2933  -12.9658   17.5256 O   0  0  0  0  0  0  0  0  0  0  0  0
    7.3846  -13.6977   17.9413 C   0  0  0  0  0  0  0  0  0  0  0  0
    8.3341  -13.0956   18.7690 C   0  0  0  0  0  0  0  0  0  0  0  0
    9.4494  -13.8155   19.2044 C   0  0  0  0  0  0  0  0  0  0  0  0
    9.6086  -15.1228   18.8136 C   0  0  0  0  0  0  0  0  0  0  0  0
   10.7697  -15.9209   19.2487 C   0  0  0  0  0  0  0  0  0  0  0  0
   10.2957  -16.8564   20.3404 C   0  0  2  0  0  0  0  0  0  0  0  0
    8.9927  -17.3556   19.9494 N   0  0  0  0  0  0  0  0  0  0  0  0
   10.2333  -16.1768   21.6671 C   0  0  0  0  0  0  0  0  0  0  0  0
   11.2761  -15.7543   22.2293 O   0  0  0  0  0  0  0  0  0  0  0  0
    8.6559  -15.6848   17.9991 C   0  0  0  0  0  0  0  0  0  0  0  0
    7.5527  -15.0084   17.5548 C   0  0  0  0  0  0  0  0  0  0  0  0
    6.8007  -12.1497   28.4809 O   0  0  0  0  0  0  0  0  0  0  0  0
    6.9593  -12.7763   27.2684 C   0  0  0  0  0  0  0  0  0  0  0  0
    6.2330  -13.9268   26.9751 C   0  0  0  0  0  0  0  0  0  0  0  0
    6.3942  -14.5532   25.7577 C   0  0  0  0  0  0  0  0  0  0  0  0
    7.2804  -14.0127   24.8599 C   0  0  0  0  0  0  0  0  0  0  0  0
    7.4623  -14.6796   23.5445 C   0  0  0  0  0  0  0  0  0  0  0  0
    8.7876  -15.4048   23.5746 C   0  0  2  0  0  0  0  0  0  0  0  0
    8.9596  -16.0223   22.2744 N   0  0  0  0  0  0  0  0  0  0  0  0
    8.8106  -16.4929   24.5805 C   0  0  0  0  0  0  0  0  0  0  0  0
    7.9909  -17.4450   24.5512 O   0  0  0  0  0  0  0  0  0  0  0  0
    8.0070  -12.8716   25.1389 C   0  0  0  0  0  0  0  0  0  0  0  0
    7.8413  -12.2611   26.3417 C   0  0  0  0  0  0  0  0  0  0  0  0
   12.3398  -17.8674   26.5167 C   0  0  0  0  0  0  0  0  0  0  0  0
   11.0185  -18.5347   26.3028 C   0  0  2  0  0  0  0  0  0  0  0  0
   10.8773  -19.1538   24.9407 C   0  0  0  0  0  0  0  0  0  0  0  0
    9.8420  -17.5973   26.6058 C   0  0  2  0  0  0  0  0  0  0  0  0
    9.7761  -16.5141   25.6448 N   0  0  0  0  0  0  0  0  0  0  0  0
    9.9275  -17.0950   27.9975 C   0  0  0  0  0  0  0  0  0  0  0  0
    9.8037  -18.0160   29.0273 O   0  0  0  0  0  0  0  0  0  0  0  0
   10.1045  -15.8904   28.3052 O   0  0  0  0  0  0  0  0  0  0  0  0
  2  1  1  0
  3  2  2  0
  4  3  1  0
  5  4  2  0
  5 11  1  0
  6  5  1  0
  7  8  1  6
  7  9  1  0
  7  6  1  0
  9 20  1  0
 10  9  2  0
 11 12  2  0
 12  2  1  0
 14 13  1  0
 15 14  2  0
 16 15  1  0
 17 16  2  0
 17 23  1  0
 18 17  1  0
 19 18  1  6
 20 19  1  0
 21 29  1  0
 21 19  1  0
 22 21  2  0
 23 24  2  0
 24 14  1  0
 26 25  1  6
 26 27  1  0
 26 28  1  0
 28 29  1  6
 28 30  1  0
 30 31  1  0
 32 30  2  0
M  END
$$$$
