YYV.pdb
     RDKit          3D

 32 33  0  0  1  0  0  0  0  0999 V2000
   11.6136  -18.6072   14.4703 O   0  0  0  0  0  0  0  0  0  0  0  0
   11.0406  -17.8284   15.4524 C   0  0  0  0  0  0  0  0  0  0  0  0
   11.8516  -17.2820   16.4489 C   0  0  0  0  0  0  0  0  0  0  0  0
   11.2956  -16.4890   17.4558 C   0  0  0  0  0  0  0  0  0  0  0  0
    9.9432  -16.2481   17.4615 C   0  0  0  0  0  0  0  0  0  0  0  0
    9.3131  -15.4174   18.5042 C   0  0  0  0  0  0  0  0  0  0  0  0
    9.4446  -16.1583   19.8177 C   0  0  2  0  0  0  0  0  0  0  0  0
    8.6596  -17.3718   19.7125 N   0  0  0  0  0  0  0  0  0  0  0  0
    8.9949  -15.3275   20.9725 C   0  0  0  0  0  0  0  0  0  0  0  0
    8.1623  -14.3976   20.8174 O   0  0  0  0  0  0  0  0  0  0  0  0
    9.1741  -16.8008   16.4665 C   0  0  0  0  0  0  0  0  0  0  0  0
    9.6862  -17.5814   15.4664 C   0  0  0  0  0  0  0  0  0  0  0  0
    5.3026  -11.8526   27.2995 O   0  0  0  0  0  0  0  0  0  0  0  0
    5.8538  -12.7055   26.3740 C   0  0  0  0  0  0  0  0  0  0  0  0
    5.7073  -14.0822   26.5168 C   0  0  0  0  0  0  0  0  0  0  0  0
    6.2615  -14.9355   25.5866 C   0  0  0  0  0  0  0  0  0  0  0  0
    6.9511  -14.3902   24.5327 C   0  0  0  0  0  0  0  0  0  0  0  0
    7.5528  -15.3004   23.5240 C   0  0  0  0  0  0  0  0  0  0  0  0
    9.0347  -15.0104   23.4670 C   0  0  2  0  0  0  0  0  0  0  0  0
    9.5369  -15.6200   22.2514 N   0  0  0  0  0  0  0  0  0  0  0  0
    9.7714  -15.6220   24.5981 C   0  0  0  0  0  0  0  0  0  0  0  0
   10.3274  -16.7449   24.5019 O   0  0  0  0  0  0  0  0  0  0  0  0
    7.1035  -13.0259   24.3798 C   0  0  0  0  0  0  0  0  0  0  0  0
    6.5536  -12.1928   25.3019 C   0  0  0  0  0  0  0  0  0  0  0  0
    9.3356  -14.2222   28.7300 C   0  0  0  0  0  0  0  0  0  0  0  0
   10.6746  -14.5823   28.1695 C   0  0  2  0  0  0  0  0  0  0  0  0
   11.5046  -13.3867   27.7944 C   0  0  0  0  0  0  0  0  0  0  0  0
   10.5646  -15.5655   26.9967 C   0  0  2  0  0  0  0  0  0  0  0  0
    9.8877  -14.9586   25.8677 N   0  0  0  0  0  0  0  0  0  0  0  0
    9.8979  -16.8156   27.4319 C   0  0  0  0  0  0  0  0  0  0  0  0
    8.6437  -17.0963   26.9099 O   0  0  0  0  0  0  0  0  0  0  0  0
   10.3939  -17.6369   28.2420 O   0  0  0  0  0  0  0  0  0  0  0  0
  2  1  1  0
  3  2  2  0
  4  3  1  0
  5  4  2  0
  5 11  1  0
  6  5  1  0
  7  8  1  6
  7  9  1  0
  7  6  1  0
  9 20  1  0
 10  9  2  0
 11 12  2  0
 12  2  1  0
 14 13  1  0
 15 14  2  0
 16 15  1  0
 17 16  2  0
 17 23  1  0
 18 17  1  0
 19 18  1  1
 20 19  1  0
 21 29  1  0
 21 19  1  0
 22 21  2  0
 23 24  2  0
 24 14  1  0
 26 25  1  6
 26 27  1  0
 26 28  1  0
 28 29  1  6
 28 30  1  0
 30 31  1  0
 32 30  2  0
M  END
$$$$
