YYV.pdb
     RDKit          3D

 32 33  0  0  1  0  0  0  0  0999 V2000
    6.0102  -13.0255   15.4992 O   0  0  0  0  0  0  0  0  0  0  0  0
    6.6380  -13.7079   16.5187 C   0  0  0  0  0  0  0  0  0  0  0  0
    7.4986  -13.0163   17.3733 C   0  0  0  0  0  0  0  0  0  0  0  0
    8.1473  -13.6846   18.4146 C   0  0  0  0  0  0  0  0  0  0  0  0
    7.9344  -15.0297   18.5948 C   0  0  0  0  0  0  0  0  0  0  0  0
    8.5976  -15.7758   19.6801 C   0  0  0  0  0  0  0  0  0  0  0  0
   10.0054  -16.0911   19.2217 C   0  0  2  0  0  0  0  0  0  0  0  0
    9.9034  -17.0077   18.1040 N   0  0  0  0  0  0  0  0  0  0  0  0
   10.8304  -16.6743   20.3195 C   0  0  0  0  0  0  0  0  0  0  0  0
   11.0540  -17.9108   20.3764 O   0  0  0  0  0  0  0  0  0  0  0  0
    7.0818  -15.6799   17.7364 C   0  0  0  0  0  0  0  0  0  0  0  0
    6.4309  -15.0560   16.7073 C   0  0  0  0  0  0  0  0  0  0  0  0
   16.2397  -15.0026   17.7675 O   0  0  0  0  0  0  0  0  0  0  0  0
   15.5210  -15.0517   18.9375 C   0  0  0  0  0  0  0  0  0  0  0  0
   15.7825  -16.0437   19.8782 C   0  0  0  0  0  0  0  0  0  0  0  0
   15.0598  -16.0903   21.0512 C   0  0  0  0  0  0  0  0  0  0  0  0
   14.0900  -15.1411   21.2563 C   0  0  0  0  0  0  0  0  0  0  0  0
   13.3047  -15.1818   22.5172 C   0  0  0  0  0  0  0  0  0  0  0  0
   12.2341  -16.2365   22.3598 C   0  0  2  0  0  0  0  0  0  0  0  0
   11.3549  -15.7892   21.2976 N   0  0  0  0  0  0  0  0  0  0  0  0
   11.4050  -16.3827   23.5794 C   0  0  0  0  0  0  0  0  0  0  0  0
   11.9052  -16.6775   24.6940 O   0  0  0  0  0  0  0  0  0  0  0  0
   13.8209  -14.1518   20.3308 C   0  0  0  0  0  0  0  0  0  0  0  0
   14.5386  -14.1139   19.1775 C   0  0  0  0  0  0  0  0  0  0  0  0
    6.9567  -15.8370   23.6254 C   0  0  0  0  0  0  0  0  0  0  0  0
    7.9362  -15.4039   24.6693 C   0  0  2  0  0  0  0  0  0  0  0  0
    8.3553  -13.9670   24.5336 C   0  0  0  0  0  0  0  0  0  0  0  0
    9.1582  -16.3296   24.7347 C   0  0  2  0  0  0  0  0  0  0  0  0
    9.9806  -16.1939   23.5488 N   0  0  0  0  0  0  0  0  0  0  0  0
    8.7321  -17.7324   24.9522 C   0  0  0  0  0  0  0  0  0  0  0  0
    8.1367  -18.0478   26.1648 O   0  0  0  0  0  0  0  0  0  0  0  0
    8.8748  -18.6536   24.1109 O   0  0  0  0  0  0  0  0  0  0  0  0
  2  1  1  0
  3  2  2  0
  4  3  1  0
  5  4  2  0
  5 11  1  0
  6  5  1  0
  7  8  1  6
  7  9  1  0
  7  6  1  0
  9 20  1  0
 10  9  2  0
 11 12  2  0
 12  2  1  0
 14 13  1  0
 15 14  2  0
 16 15  1  0
 17 16  2  0
 17 23  1  0
 18 17  1  0
 19 18  1  1
 20 19  1  0
 21 29  1  0
 21 19  1  0
 22 21  2  0
 23 24  2  0
 24 14  1  0
 26 25  1  6
 26 27  1  0
 26 28  1  0
 28 29  1  6
 28 30  1  0
 30 31  1  0
 32 30  2  0
M  END
$$$$
