YYV.pdb
     RDKit          3D

 32 33  0  0  1  0  0  0  0  0999 V2000
    9.5836  -13.1740   16.7680 O   0  0  0  0  0  0  0  0  0  0  0  0
    8.8233  -13.5536   17.8529 C   0  0  0  0  0  0  0  0  0  0  0  0
    7.4528  -13.2869   17.8517 C   0  0  0  0  0  0  0  0  0  0  0  0
    6.6597  -13.6613   18.9392 C   0  0  0  0  0  0  0  0  0  0  0  0
    7.2355  -14.2951   20.0133 C   0  0  0  0  0  0  0  0  0  0  0  0
    6.4375  -14.7083   21.1824 C   0  0  0  0  0  0  0  0  0  0  0  0
    6.5046  -16.2182   21.2687 C   0  0  2  0  0  0  0  0  0  0  0  0
    5.4059  -16.7474   20.4859 N   0  0  0  0  0  0  0  0  0  0  0  0
    6.4375  -16.6983   22.6797 C   0  0  0  0  0  0  0  0  0  0  0  0
    5.3356  -16.8069   23.2763 O   0  0  0  0  0  0  0  0  0  0  0  0
    8.5864  -14.5424   19.9823 C   0  0  0  0  0  0  0  0  0  0  0  0
    9.3915  -14.1893   18.9340 C   0  0  0  0  0  0  0  0  0  0  0  0
    8.9816  -19.7270   30.3360 O   0  0  0  0  0  0  0  0  0  0  0  0
    8.8534  -19.4615   28.9940 C   0  0  0  0  0  0  0  0  0  0  0  0
    9.9705  -19.1152   28.2395 C   0  0  0  0  0  0  0  0  0  0  0  0
    9.8386  -18.8494   26.8931 C   0  0  0  0  0  0  0  0  0  0  0  0
    8.5893  -18.9364   26.3319 C   0  0  0  0  0  0  0  0  0  0  0  0
    8.4354  -18.6520   24.8815 C   0  0  0  0  0  0  0  0  0  0  0  0
    7.7301  -17.3226   24.7447 C   0  0  2  0  0  0  0  0  0  0  0  0
    7.6569  -17.0284   23.3271 N   0  0  0  0  0  0  0  0  0  0  0  0
    8.4849  -16.2173   25.3810 C   0  0  0  0  0  0  0  0  0  0  0  0
    9.6093  -15.8483   24.9582 O   0  0  0  0  0  0  0  0  0  0  0  0
    7.4731  -19.2791   27.0697 C   0  0  0  0  0  0  0  0  0  0  0  0
    7.6130  -19.5393   28.3962 C   0  0  0  0  0  0  0  0  0  0  0  0
    6.6344  -13.4048   28.2066 C   0  0  0  0  0  0  0  0  0  0  0  0
    7.7659  -13.1691   27.2575 C   0  0  2  0  0  0  0  0  0  0  0  0
    7.3197  -12.6808   25.9080 C   0  0  0  0  0  0  0  0  0  0  0  0
    8.6745  -14.3985   27.1249 C   0  0  2  0  0  0  0  0  0  0  0  0
    7.9665  -15.5086   26.5187 N   0  0  0  0  0  0  0  0  0  0  0  0
    9.2455  -14.7629   28.4432 C   0  0  0  0  0  0  0  0  0  0  0  0
    8.9233  -16.0063   28.9672 O   0  0  0  0  0  0  0  0  0  0  0  0
   10.0015  -14.0200   29.1165 O   0  0  0  0  0  0  0  0  0  0  0  0
  2  1  1  0
  3  2  2  0
  4  3  1  0
  5  4  2  0
  5 11  1  0
  6  5  1  0
  7  8  1  6
  7  9  1  0
  7  6  1  0
  9 20  1  0
 10  9  2  0
 11 12  2  0
 12  2  1  0
 14 13  1  0
 15 14  2  0
 16 15  1  0
 17 16  2  0
 17 23  1  0
 18 17  1  0
 19 18  1  6
 20 19  1  0
 21 29  1  0
 21 19  1  0
 22 21  2  0
 23 24  2  0
 24 14  1  0
 26 25  1  1
 26 27  1  0
 26 28  1  0
 28 29  1  1
 28 30  1  0
 30 31  1  0
 32 30  2  0
M  END
$$$$
