YYV.pdb
     RDKit          3D

 32 33  0  0  1  0  0  0  0  0999 V2000
    7.6057  -20.8099   15.3848 O   0  0  0  0  0  0  0  0  0  0  0  0
    8.0885  -20.1859   16.5148 C   0  0  0  0  0  0  0  0  0  0  0  0
    7.2607  -20.0637   17.6324 C   0  0  0  0  0  0  0  0  0  0  0  0
    7.7258  -19.4355   18.7903 C   0  0  0  0  0  0  0  0  0  0  0  0
    9.0053  -18.9368   18.8250 C   0  0  0  0  0  0  0  0  0  0  0  0
    9.5384  -18.2663   20.0253 C   0  0  0  0  0  0  0  0  0  0  0  0
    9.2059  -16.7940   19.9098 C   0  0  2  0  0  0  0  0  0  0  0  0
    9.8971  -16.2827   18.7433 N   0  0  0  0  0  0  0  0  0  0  0  0
    9.5934  -16.0383   21.1365 C   0  0  0  0  0  0  0  0  0  0  0  0
   10.5859  -15.2657   21.1360 O   0  0  0  0  0  0  0  0  0  0  0  0
    9.7934  -19.0738   17.7084 C   0  0  0  0  0  0  0  0  0  0  0  0
    9.3694  -19.6830   16.5590 C   0  0  0  0  0  0  0  0  0  0  0  0
    7.3685  -11.7780   28.3110 O   0  0  0  0  0  0  0  0  0  0  0  0
    7.4123  -12.4585   27.1182 C   0  0  0  0  0  0  0  0  0  0  0  0
    6.5783  -12.0846   26.0685 C   0  0  0  0  0  0  0  0  0  0  0  0
    6.6244  -12.7693   24.8728 C   0  0  0  0  0  0  0  0  0  0  0  0
    7.5060  -13.8146   24.7550 C   0  0  0  0  0  0  0  0  0  0  0  0
    7.5642  -14.5597   23.4707 C   0  0  0  0  0  0  0  0  0  0  0  0
    8.8727  -15.3148   23.4346 C   0  0  2  0  0  0  0  0  0  0  0  0
    8.8062  -16.2193   22.3038 N   0  0  0  0  0  0  0  0  0  0  0  0
    9.0767  -16.1448   24.6454 C   0  0  0  0  0  0  0  0  0  0  0  0
    8.1608  -16.8583   25.1263 O   0  0  0  0  0  0  0  0  0  0  0  0
    8.3387  -14.1953   25.7891 C   0  0  0  0  0  0  0  0  0  0  0  0
    8.2860  -13.5144   26.9639 C   0  0  0  0  0  0  0  0  0  0  0  0
   12.5814  -17.8124   24.3700 C   0  0  0  0  0  0  0  0  0  0  0  0
   12.2790  -17.6089   25.8205 C   0  0  2  0  0  0  0  0  0  0  0  0
   12.7786  -18.7242   26.6955 C   0  0  0  0  0  0  0  0  0  0  0  0
   10.7885  -17.3411   26.0680 C   0  0  2  0  0  0  0  0  0  0  0  0
   10.3380  -16.1755   25.3335 N   0  0  0  0  0  0  0  0  0  0  0  0
   10.5209  -17.2147   27.5202 C   0  0  0  0  0  0  0  0  0  0  0  0
   10.6828  -15.9660   28.1024 O   0  0  0  0  0  0  0  0  0  0  0  0
   10.1575  -18.1638   28.2579 O   0  0  0  0  0  0  0  0  0  0  0  0
  2  1  1  0
  3  2  2  0
  4  3  1  0
  5  4  2  0
  5 11  1  0
  6  5  1  0
  7  8  1  6
  7  9  1  0
  7  6  1  0
  9 20  1  0
 10  9  2  0
 11 12  2  0
 12  2  1  0
 14 13  1  0
 15 14  2  0
 16 15  1  0
 17 16  2  0
 17 23  1  0
 18 17  1  0
 19 18  1  1
 20 19  1  0
 21 29  1  0
 21 19  1  0
 22 21  2  0
 23 24  2  0
 24 14  1  0
 26 25  1  6
 26 27  1  0
 26 28  1  0
 28 29  1  6
 28 30  1  0
 30 31  1  0
 32 30  2  0
M  END
$$$$
