YYV.pdb
     RDKit          3D

 32 33  0  0  1  0  0  0  0  0999 V2000
    8.9536  -12.8172   16.0718 O   0  0  0  0  0  0  0  0  0  0  0  0
    8.3232  -13.3230   17.1881 C   0  0  0  0  0  0  0  0  0  0  0  0
    7.2034  -14.1411   17.0268 C   0  0  0  0  0  0  0  0  0  0  0  0
    6.5462  -14.6665   18.1420 C   0  0  0  0  0  0  0  0  0  0  0  0
    7.0077  -14.3740   19.4023 C   0  0  0  0  0  0  0  0  0  0  0  0
    6.3458  -14.9062   20.6078 C   0  0  0  0  0  0  0  0  0  0  0  0
    7.0316  -16.2071   20.9668 C   0  0  2  0  0  0  0  0  0  0  0  0
    6.4370  -17.2501   20.1553 N   0  0  0  0  0  0  0  0  0  0  0  0
    6.9043  -16.5205   22.4199 C   0  0  0  0  0  0  0  0  0  0  0  0
    5.7815  -16.7501   22.9381 O   0  0  0  0  0  0  0  0  0  0  0  0
    8.1117  -13.5660   19.5257 C   0  0  0  0  0  0  0  0  0  0  0  0
    8.7783  -13.0353   18.4553 C   0  0  0  0  0  0  0  0  0  0  0  0
    9.0256  -19.0546   30.3471 O   0  0  0  0  0  0  0  0  0  0  0  0
    9.0038  -18.8007   28.9970 C   0  0  0  0  0  0  0  0  0  0  0  0
    7.8369  -19.0031   28.2658 C   0  0  0  0  0  0  0  0  0  0  0  0
    7.8180  -18.7476   26.9113 C   0  0  0  0  0  0  0  0  0  0  0  0
    8.9698  -18.2944   26.3184 C   0  0  0  0  0  0  0  0  0  0  0  0
    8.9611  -18.0156   24.8588 C   0  0  0  0  0  0  0  0  0  0  0  0
    8.0786  -16.8115   24.6247 C   0  0  2  0  0  0  0  0  0  0  0  0
    8.0907  -16.5512   23.1987 N   0  0  0  0  0  0  0  0  0  0  0  0
    8.5972  -15.5954   25.2943 C   0  0  0  0  0  0  0  0  0  0  0  0
    9.7105  -15.0941   24.9968 O   0  0  0  0  0  0  0  0  0  0  0  0
   10.1340  -18.0895   27.0328 C   0  0  0  0  0  0  0  0  0  0  0  0
   10.1429  -18.3442   28.3676 C   0  0  0  0  0  0  0  0  0  0  0  0
    6.1655  -13.1003   28.0138 C   0  0  0  0  0  0  0  0  0  0  0  0
    7.3332  -12.6765   27.1810 C   0  0  2  0  0  0  0  0  0  0  0  0
    6.9404  -12.1420   25.8323 C   0  0  0  0  0  0  0  0  0  0  0  0
    8.3819  -13.7887   27.0478 C   0  0  2  0  0  0  0  0  0  0  0  0
    7.8494  -14.9250   26.3224 N   0  0  0  0  0  0  0  0  0  0  0  0
    8.8937  -14.1780   28.3832 C   0  0  0  0  0  0  0  0  0  0  0  0
    9.5959  -13.2278   29.1100 O   0  0  0  0  0  0  0  0  0  0  0  0
    8.7331  -15.3115   28.8994 O   0  0  0  0  0  0  0  0  0  0  0  0
  2  1  1  0
  3  2  2  0
  4  3  1  0
  5  4  2  0
  5 11  1  0
  6  5  1  0
  7  8  1  6
  7  9  1  0
  7  6  1  0
  9 20  1  0
 10  9  2  0
 11 12  2  0
 12  2  1  0
 14 13  1  0
 15 14  2  0
 16 15  1  0
 17 16  2  0
 17 23  1  0
 18 17  1  0
 19 18  1  6
 20 19  1  0
 21 29  1  0
 21 19  1  0
 22 21  2  0
 23 24  2  0
 24 14  1  0
 26 25  1  6
 26 27  1  0
 26 28  1  0
 28 29  1  1
 28 30  1  0
 30 31  1  0
 32 30  2  0
M  END
$$$$
