YYV.pdb
     RDKit          3D

 32 33  0  0  1  0  0  0  0  0999 V2000
    4.9590  -26.6256   19.0502 O   0  0  0  0  0  0  0  0  0  0  0  0
    5.6861  -25.4670   19.2189 C   0  0  0  0  0  0  0  0  0  0  0  0
    5.0127  -24.2480   19.3179 C   0  0  0  0  0  0  0  0  0  0  0  0
    5.7262  -23.0591   19.4892 C   0  0  0  0  0  0  0  0  0  0  0  0
    7.0976  -23.0944   19.5601 C   0  0  0  0  0  0  0  0  0  0  0  0
    7.8915  -21.8649   19.7403 C   0  0  0  0  0  0  0  0  0  0  0  0
    7.4284  -20.8674   18.7001 C   0  0  2  0  0  0  0  0  0  0  0  0
    7.7786  -21.4018   17.3994 N   0  0  0  0  0  0  0  0  0  0  0  0
    8.0388  -19.5221   18.9088 C   0  0  0  0  0  0  0  0  0  0  0  0
    9.1734  -19.2450   18.4420 O   0  0  0  0  0  0  0  0  0  0  0  0
    7.7288  -24.3103   19.4591 C   0  0  0  0  0  0  0  0  0  0  0  0
    7.0608  -25.4924   19.2911 C   0  0  0  0  0  0  0  0  0  0  0  0
    8.3535  -11.1093   20.8481 O   0  0  0  0  0  0  0  0  0  0  0  0
    7.9211  -12.4065   20.7143 C   0  0  0  0  0  0  0  0  0  0  0  0
    7.6755  -13.1821   21.8437 C   0  0  0  0  0  0  0  0  0  0  0  0
    7.2416  -14.4834   21.7063 C   0  0  0  0  0  0  0  0  0  0  0  0
    7.0632  -14.9796   20.4392 C   0  0  0  0  0  0  0  0  0  0  0  0
    6.5959  -16.3811   20.2792 C   0  0  0  0  0  0  0  0  0  0  0  0
    7.7913  -17.2257   19.9037 C   0  0  2  0  0  0  0  0  0  0  0  0
    7.2982  -18.5652   19.6510 N   0  0  0  0  0  0  0  0  0  0  0  0
    8.7781  -17.3249   21.0049 C   0  0  0  0  0  0  0  0  0  0  0  0
    8.5231  -17.9313   22.0757 O   0  0  0  0  0  0  0  0  0  0  0  0
    7.3034  -14.2203   19.3108 C   0  0  0  0  0  0  0  0  0  0  0  0
    7.7308  -12.9385   19.4562 C   0  0  0  0  0  0  0  0  0  0  0  0
   12.4312  -18.4235   20.6099 C   0  0  0  0  0  0  0  0  0  0  0  0
   12.4471  -17.1702   21.4260 C   0  0  2  0  0  0  0  0  0  0  0  0
   13.4700  -17.1891   22.5270 C   0  0  0  0  0  0  0  0  0  0  0  0
   11.0570  -16.8188   21.9724 C   0  0  2  0  0  0  0  0  0  0  0  0
   10.0824  -16.7298   20.9032 N   0  0  0  0  0  0  0  0  0  0  0  0
   11.1161  -15.5707   22.7695 C   0  0  0  0  0  0  0  0  0  0  0  0
   11.5218  -15.6658   24.0926 O   0  0  0  0  0  0  0  0  0  0  0  0
   10.8231  -14.4332   22.3255 O   0  0  0  0  0  0  0  0  0  0  0  0
  2  1  1  0
  3  2  2  0
  4  3  1  0
  5  4  2  0
  5 11  1  0
  6  5  1  0
  7  8  1  6
  7  9  1  0
  7  6  1  0
  9 20  1  0
 10  9  2  0
 11 12  2  0
 12  2  1  0
 14 13  1  0
 15 14  2  0
 16 15  1  0
 17 16  2  0
 17 23  1  0
 18 17  1  0
 19 18  1  1
 20 19  1  0
 21 29  1  0
 21 19  1  0
 22 21  2  0
 23 24  2  0
 24 14  1  0
 26 25  1  1
 26 27  1  0
 26 28  1  0
 28 29  1  6
 28 30  1  0
 30 31  1  0
 32 30  2  0
M  END
$$$$
