YYV.pdb
     RDKit          3D

 32 33  0  0  1  0  0  0  0  0999 V2000
    9.3969  -12.7286   18.3071 O   0  0  0  0  0  0  0  0  0  0  0  0
    8.4938  -13.5218   18.9815 C   0  0  0  0  0  0  0  0  0  0  0  0
    8.1377  -13.1886   20.2897 C   0  0  0  0  0  0  0  0  0  0  0  0
    7.2245  -13.9760   20.9952 C   0  0  0  0  0  0  0  0  0  0  0  0
    6.6765  -15.0833   20.3946 C   0  0  0  0  0  0  0  0  0  0  0  0
    5.7089  -15.9431   21.1009 C   0  0  0  0  0  0  0  0  0  0  0  0
    6.4645  -17.1478   21.6199 C   0  0  2  0  0  0  0  0  0  0  0  0
    5.8007  -18.3303   21.1090 N   0  0  0  0  0  0  0  0  0  0  0  0
    6.5231  -17.1679   23.1105 C   0  0  0  0  0  0  0  0  0  0  0  0
    5.4827  -17.3294   23.7986 O   0  0  0  0  0  0  0  0  0  0  0  0
    7.0484  -15.3828   19.1067 C   0  0  0  0  0  0  0  0  0  0  0  0
    7.9393  -14.6334   18.3879 C   0  0  0  0  0  0  0  0  0  0  0  0
    5.8531  -22.7437   25.9648 O   0  0  0  0  0  0  0  0  0  0  0  0
    6.6021  -21.5971   25.8548 C   0  0  0  0  0  0  0  0  0  0  0  0
    7.3420  -21.3527   24.7015 C   0  0  0  0  0  0  0  0  0  0  0  0
    8.0927  -20.2014   24.5941 C   0  0  0  0  0  0  0  0  0  0  0  0
    8.0856  -19.3194   25.6455 C   0  0  0  0  0  0  0  0  0  0  0  0
    8.8911  -18.0751   25.5407 C   0  0  0  0  0  0  0  0  0  0  0  0
    7.9547  -16.9497   25.1667 C   0  0  2  0  0  0  0  0  0  0  0  0
    7.7905  -16.9990   23.7272 N   0  0  0  0  0  0  0  0  0  0  0  0
    8.5157  -15.6182   25.4962 C   0  0  0  0  0  0  0  0  0  0  0  0
    9.5848  -15.2003   24.9846 O   0  0  0  0  0  0  0  0  0  0  0  0
    7.3558  -19.5504   26.7952 C   0  0  0  0  0  0  0  0  0  0  0  0
    6.6188  -20.6881   26.8919 C   0  0  0  0  0  0  0  0  0  0  0  0
    6.3907  -12.5981   27.9607 C   0  0  0  0  0  0  0  0  0  0  0  0
    7.4309  -12.3606   26.9127 C   0  0  2  0  0  0  0  0  0  0  0  0
    6.8543  -12.0940   25.5506 C   0  0  0  0  0  0  0  0  0  0  0  0
    8.4668  -13.4914   26.8599 C   0  0  2  0  0  0  0  0  0  0  0  0
    7.8623  -14.7338   26.4216 N   0  0  0  0  0  0  0  0  0  0  0  0
    9.1379  -13.6383   28.1731 C   0  0  0  0  0  0  0  0  0  0  0  0
    9.9004  -12.5748   28.6334 O   0  0  0  0  0  0  0  0  0  0  0  0
    9.0613  -14.6622   28.8961 O   0  0  0  0  0  0  0  0  0  0  0  0
  2  1  1  0
  3  2  2  0
  4  3  1  0
  5  4  2  0
  5 11  1  0
  6  5  1  0
  7  8  1  1
  7  9  1  0
  7  6  1  0
  9 20  1  0
 10  9  2  0
 11 12  2  0
 12  2  1  0
 14 13  1  0
 15 14  2  0
 16 15  1  0
 17 16  2  0
 17 23  1  0
 18 17  1  0
 19 18  1  6
 20 19  1  0
 21 29  1  0
 21 19  1  0
 22 21  2  0
 23 24  2  0
 24 14  1  0
 26 25  1  1
 26 27  1  0
 26 28  1  0
 28 29  1  1
 28 30  1  0
 30 31  1  0
 32 30  2  0
M  END
$$$$
