YYV.pdb
     RDKit          3D

 32 33  0  0  1  0  0  0  0  0999 V2000
    7.7445  -14.8107   13.6032 O   0  0  0  0  0  0  0  0  0  0  0  0
    8.0586  -14.5577   14.9211 C   0  0  0  0  0  0  0  0  0  0  0  0
    9.2378  -15.0822   15.4537 C   0  0  0  0  0  0  0  0  0  0  0  0
    9.5793  -14.8405   16.7866 C   0  0  0  0  0  0  0  0  0  0  0  0
    8.7474  -14.0821   17.5739 C   0  0  0  0  0  0  0  0  0  0  0  0
    9.0674  -13.8013   18.9856 C   0  0  0  0  0  0  0  0  0  0  0  0
    9.1935  -15.1315   19.6971 C   0  0  2  0  0  0  0  0  0  0  0  0
    7.9627  -15.8626   19.4727 N   0  0  0  0  0  0  0  0  0  0  0  0
    9.4565  -14.9595   21.1556 C   0  0  0  0  0  0  0  0  0  0  0  0
   10.6094  -14.6894   21.5796 O   0  0  0  0  0  0  0  0  0  0  0  0
    7.5951  -13.5812   17.0186 C   0  0  0  0  0  0  0  0  0  0  0  0
    7.2311  -13.7987   15.7179 C   0  0  0  0  0  0  0  0  0  0  0  0
    7.5209  -12.5850   29.1980 O   0  0  0  0  0  0  0  0  0  0  0  0
    7.4321  -12.9542   27.8775 C   0  0  0  0  0  0  0  0  0  0  0  0
    6.7997  -14.1427   27.5244 C   0  0  0  0  0  0  0  0  0  0  0  0
    6.7121  -14.5105   26.1986 C   0  0  0  0  0  0  0  0  0  0  0  0
    7.2607  -13.6787   25.2549 C   0  0  0  0  0  0  0  0  0  0  0  0
    7.1723  -14.0651   23.8228 C   0  0  0  0  0  0  0  0  0  0  0  0
    8.4568  -14.7712   23.4556 C   0  0  2  0  0  0  0  0  0  0  0  0
    8.3640  -15.1105   22.0493 N   0  0  0  0  0  0  0  0  0  0  0  0
    8.6334  -16.0406   24.1996 C   0  0  0  0  0  0  0  0  0  0  0  0
    7.7983  -16.9769   24.1277 O   0  0  0  0  0  0  0  0  0  0  0  0
    7.8908  -12.4968   25.5924 C   0  0  0  0  0  0  0  0  0  0  0  0
    7.9722  -12.1427   26.9019 C   0  0  0  0  0  0  0  0  0  0  0  0
   12.4527  -17.5980   25.5012 C   0  0  0  0  0  0  0  0  0  0  0  0
   11.1542  -18.2941   25.2441 C   0  0  2  0  0  0  0  0  0  0  0  0
   10.9516  -18.6633   23.8013 C   0  0  0  0  0  0  0  0  0  0  0  0
    9.9565  -17.5002   25.7822 C   0  0  2  0  0  0  0  0  0  0  0  0
    9.7739  -16.2658   25.0447 N   0  0  0  0  0  0  0  0  0  0  0  0
   10.1102  -17.2560   27.2359 C   0  0  0  0  0  0  0  0  0  0  0  0
   10.0440  -18.3495   28.0869 O   0  0  0  0  0  0  0  0  0  0  0  0
   10.2964  -16.1244   27.7474 O   0  0  0  0  0  0  0  0  0  0  0  0
  2  1  1  0
  3  2  2  0
  4  3  1  0
  5  4  2  0
  5 11  1  0
  6  5  1  0
  7  8  1  1
  7  9  1  0
  7  6  1  0
  9 20  1  0
 10  9  2  0
 11 12  2  0
 12  2  1  0
 14 13  1  0
 15 14  2  0
 16 15  1  0
 17 16  2  0
 17 23  1  0
 18 17  1  0
 19 18  1  1
 20 19  1  0
 21 29  1  0
 21 19  1  0
 22 21  2  0
 23 24  2  0
 24 14  1  0
 26 25  1  6
 26 27  1  0
 26 28  1  0
 28 29  1  6
 28 30  1  0
 30 31  1  0
 32 30  2  0
M  END
$$$$
