FIC.pdb
     RDKit          3D

 26 26  0  0  1  0  0  0  0  0999 V2000
    7.0594  -18.9048   27.3127 N   0  0  0  0  0  0  0  0  0  0  0  0
    7.7120  -17.6223   27.4330 C   0  0  1  0  0  0  0  0  0  0  0  0
    9.1549  -17.7835   27.9044 C   0  0  0  0  0  0  0  0  0  0  0  0
    9.7170  -16.5322   28.4285 C   0  0  0  0  0  0  0  0  0  0  0  0
   10.0629  -15.5348   27.5598 C   0  0  0  0  0  0  0  0  0  0  0  0
   10.5885  -14.3725   28.0911 C   0  0  0  0  0  0  0  0  0  0  0  0
   10.7558  -14.2301   29.4525 C   0  0  0  0  0  0  0  0  0  0  0  0
   10.3968  -15.2522   30.2858 C   0  0  0  0  0  0  0  0  0  0  0  0
    9.8728  -16.4206   29.8063 C   0  0  0  0  0  0  0  0  0  0  0  0
    7.7566  -16.9724   26.1177 C   0  0  0  0  0  0  0  0  0  0  0  0
    7.9431  -17.6800   25.0798 O   0  0  0  0  0  0  0  0  0  0  0  0
    5.9385  -11.8640   26.2784 C   0  0  0  0  0  0  0  0  0  0  0  0
    5.9956  -13.2297   25.6560 C   0  0  0  0  0  0  0  0  0  0  0  0
    7.2894  -13.4781   24.9352 C   0  0  2  0  0  0  0  0  0  0  0  0
    7.3136  -12.6729   23.6651 C   0  0  0  0  0  0  0  0  0  0  0  0
    7.5622  -14.9239   24.6600 C   0  0  2  0  0  0  0  0  0  0  0  0
    7.6002  -15.5969   25.9681 N   0  0  0  0  0  0  0  0  0  0  0  0
    8.8458  -15.1544   23.9700 C   0  0  0  0  0  0  0  0  0  0  0  0
    9.9027  -14.6624   24.4381 O   0  0  0  0  0  0  0  0  0  0  0  0
    8.9946  -15.9098   22.7825 N   0  0  0  0  0  0  0  0  0  0  0  0
   10.2267  -16.0000   22.1089 C   0  0  1  0  0  0  0  0  0  0  0  0
   11.0476  -17.2235   22.3416 C   0  0  0  0  0  0  0  0  0  0  0  0
    9.9442  -18.5418   22.9594 S   0  0  0  0  0  0  0  0  0  0  0  0
   10.0879  -15.8585   20.6132 C   0  0  0  0  0  0  0  0  0  0  0  0
   11.2502  -15.7900   19.8546 O   0  0  0  0  0  0  0  0  0  0  0  0
    8.9766  -15.8041   20.0665 O   0  0  0  0  0  0  0  0  0  0  0  0
  2  1  1  6
  3  2  1  0
  4  3  1  0
  5  4  2  0
  6  5  1  0
  7  6  2  0
  7  8  1  0
  8  9  2  0
  9  4  1  0
 10  2  1  0
 10 17  1  0
 11 10  2  0
 13 12  1  0
 14 16  1  0
 14 13  1  0
 14 15  1  6
 16 17  1  1
 18 16  1  0
 19 18  2  0
 20 18  1  0
 21 22  1  6
 21 20  1  0
 22 23  1  0
 24 25  1  0
 24 21  1  0
 26 24  2  0
M  END
$$$$
