FIC.pdb
     RDKit          3D

 26 26  0  0  1  0  0  0  0  0999 V2000
    7.6250  -19.0622   27.2082 N   0  0  0  0  0  0  0  0  0  0  0  0
    8.0234  -17.6838   27.3711 C   0  0  1  0  0  0  0  0  0  0  0  0
    9.4311  -17.5852   27.9532 C   0  0  0  0  0  0  0  0  0  0  0  0
    9.6329  -16.3542   28.7280 C   0  0  0  0  0  0  0  0  0  0  0  0
    9.6060  -16.4076   30.0939 C   0  0  0  0  0  0  0  0  0  0  0  0
    9.7999  -15.2283   30.7877 C   0  0  0  0  0  0  0  0  0  0  0  0
   10.0128  -14.0414   30.1187 C   0  0  0  0  0  0  0  0  0  0  0  0
   10.0320  -14.0326   28.7521 C   0  0  0  0  0  0  0  0  0  0  0  0
    9.8450  -15.1740   28.0229 C   0  0  0  0  0  0  0  0  0  0  0  0
    8.0503  -17.0256   26.0595 C   0  0  0  0  0  0  0  0  0  0  0  0
    8.0942  -17.7356   25.0075 O   0  0  0  0  0  0  0  0  0  0  0  0
    6.5350  -11.9739   26.5817 C   0  0  0  0  0  0  0  0  0  0  0  0
    6.4185  -13.2272   25.7624 C   0  0  0  0  0  0  0  0  0  0  0  0
    7.6549  -13.5026   24.9558 C   0  0  2  0  0  0  0  0  0  0  0  0
    7.6248  -12.6742   23.7009 C   0  0  0  0  0  0  0  0  0  0  0  0
    7.8620  -14.9507   24.6388 C   0  0  2  0  0  0  0  0  0  0  0  0
    8.0293  -15.6396   25.9284 N   0  0  0  0  0  0  0  0  0  0  0  0
    9.0555  -15.2013   23.8084 C   0  0  0  0  0  0  0  0  0  0  0  0
   10.1885  -14.8501   24.2225 O   0  0  0  0  0  0  0  0  0  0  0  0
    9.0333  -15.8261   22.5388 N   0  0  0  0  0  0  0  0  0  0  0  0
   10.2159  -16.1276   21.8383 C   0  0  1  0  0  0  0  0  0  0  0  0
   10.8661  -17.4396   22.1229 C   0  0  0  0  0  0  0  0  0  0  0  0
   10.8227  -17.7181   23.9278 S   0  0  0  0  0  0  0  0  0  0  0  0
   10.0447  -16.0531   20.3412 C   0  0  0  0  0  0  0  0  0  0  0  0
   11.1624  -16.2748   19.5458 O   0  0  0  0  0  0  0  0  0  0  0  0
    8.9459  -15.8026   19.8250 O   0  0  0  0  0  0  0  0  0  0  0  0
  2  1  1  6
  3  2  1  0
  4  3  1  0
  5  4  2  0
  6  5  1  0
  7  6  2  0
  7  8  1  0
  8  9  2  0
  9  4  1  0
 10  2  1  0
 10 17  1  0
 11 10  2  0
 13 12  1  0
 14 16  1  0
 14 13  1  0
 14 15  1  6
 16 17  1  1
 18 16  1  0
 19 18  2  0
 20 18  1  0
 21 22  1  6
 21 20  1  0
 22 23  1  0
 24 25  1  0
 24 21  1  0
 26 24  2  0
M  END
$$$$
