FIC.pdb
     RDKit          3D

 26 26  0  0  1  0  0  0  0  0999 V2000
    5.6324  -17.9465   24.9552 N   0  0  0  0  0  0  0  0  0  0  0  0
    6.0811  -16.5740   24.9489 C   0  0  1  0  0  0  0  0  0  0  0  0
    6.6257  -16.1690   26.3163 C   0  0  0  0  0  0  0  0  0  0  0  0
    6.8107  -14.7174   26.4390 C   0  0  0  0  0  0  0  0  0  0  0  0
    8.0669  -14.2139   26.6332 C   0  0  0  0  0  0  0  0  0  0  0  0
    8.2003  -12.8429   26.7438 C   0  0  0  0  0  0  0  0  0  0  0  0
    7.0996  -12.0165   26.6602 C   0  0  0  0  0  0  0  0  0  0  0  0
    5.8614  -12.5615   26.4654 C   0  0  0  0  0  0  0  0  0  0  0  0
    5.6801  -13.9118   26.3501 C   0  0  0  0  0  0  0  0  0  0  0  0
    7.1775  -16.4237   23.9847 C   0  0  0  0  0  0  0  0  0  0  0  0
    8.0336  -17.3541   23.8655 O   0  0  0  0  0  0  0  0  0  0  0  0
    6.4252  -12.5088   20.1876 C   0  0  0  0  0  0  0  0  0  0  0  0
    6.8111  -13.8635   20.7086 C   0  0  0  0  0  0  0  0  0  0  0  0
    8.0991  -13.8360   21.4803 C   0  0  2  0  0  0  0  0  0  0  0  0
    9.2262  -13.4707   20.5539 C   0  0  0  0  0  0  0  0  0  0  0  0
    8.3953  -15.1083   22.2111 C   0  0  2  0  0  0  0  0  0  0  0  0
    7.3119  -15.2878   23.1907 N   0  0  0  0  0  0  0  0  0  0  0  0
    9.6844  -15.0825   22.9284 C   0  0  0  0  0  0  0  0  0  0  0  0
    9.8509  -14.2836   23.8836 O   0  0  0  0  0  0  0  0  0  0  0  0
   10.7903  -15.9107   22.6219 N   0  0  0  0  0  0  0  0  0  0  0  0
   11.7709  -16.2256   23.5807 C   0  0  1  0  0  0  0  0  0  0  0  0
   11.3076  -16.8355   24.8607 C   0  0  0  0  0  0  0  0  0  0  0  0
   12.7723  -17.1475   25.9069 S   0  0  0  0  0  0  0  0  0  0  0  0
   12.8469  -17.1349   23.0407 C   0  0  0  0  0  0  0  0  0  0  0  0
   12.6316  -17.7385   21.8077 O   0  0  0  0  0  0  0  0  0  0  0  0
   13.8950  -17.3448   23.6686 O   0  0  0  0  0  0  0  0  0  0  0  0
  2  1  1  1
  3  2  1  0
  4  3  1  0
  5  4  2  0
  6  5  1  0
  7  6  2  0
  7  8  1  0
  8  9  2  0
  9  4  1  0
 10  2  1  0
 10 17  1  0
 11 10  2  0
 13 12  1  0
 14 16  1  0
 14 13  1  0
 14 15  1  6
 16 17  1  1
 18 16  1  0
 19 18  2  0
 20 18  1  0
 21 22  1  1
 21 20  1  0
 22 23  1  0
 24 25  1  0
 24 21  1  0
 26 24  2  0
M  END
$$$$
