FIC.pdb
     RDKit          3D

 26 26  0  0  1  0  0  0  0  0999 V2000
    7.3484  -19.1907   27.4230 N   0  0  0  0  0  0  0  0  0  0  0  0
    7.9323  -17.8708   27.4706 C   0  0  1  0  0  0  0  0  0  0  0  0
    9.4425  -17.9467   27.6798 C   0  0  0  0  0  0  0  0  0  0  0  0
   10.0071  -16.6783   28.1581 C   0  0  0  0  0  0  0  0  0  0  0  0
   10.1227  -16.4584   29.5025 C   0  0  0  0  0  0  0  0  0  0  0  0
   10.6587  -15.2528   29.9134 C   0  0  0  0  0  0  0  0  0  0  0  0
   11.0613  -14.3080   28.9933 C   0  0  0  0  0  0  0  0  0  0  0  0
   10.9280  -14.5683   27.6582 C   0  0  0  0  0  0  0  0  0  0  0  0
   10.4034  -15.7466   27.2042 C   0  0  0  0  0  0  0  0  0  0  0  0
    7.7065  -17.1911   26.1895 C   0  0  0  0  0  0  0  0  0  0  0  0
    7.3947  -17.8771   25.1673 O   0  0  0  0  0  0  0  0  0  0  0  0
    6.0904  -11.9907   26.5344 C   0  0  0  0  0  0  0  0  0  0  0  0
    6.1234  -13.3859   25.9794 C   0  0  0  0  0  0  0  0  0  0  0  0
    7.3602  -13.6526   25.1705 C   0  0  2  0  0  0  0  0  0  0  0  0
    7.3519  -12.7787   23.9465 C   0  0  0  0  0  0  0  0  0  0  0  0
    7.5451  -15.0915   24.8021 C   0  0  2  0  0  0  0  0  0  0  0  0
    7.8233  -15.8100   26.0559 N   0  0  0  0  0  0  0  0  0  0  0  0
    8.6651  -15.3153   23.8681 C   0  0  0  0  0  0  0  0  0  0  0  0
    8.6459  -14.7805   22.7315 O   0  0  0  0  0  0  0  0  0  0  0  0
    9.8011  -16.1099   24.1526 N   0  0  0  0  0  0  0  0  0  0  0  0
   10.8473  -16.2696   23.2252 C   0  0  1  0  0  0  0  0  0  0  0  0
   11.7682  -15.1135   23.0244 C   0  0  0  0  0  0  0  0  0  0  0  0
   12.9767  -15.1023   24.3943 S   0  0  0  0  0  0  0  0  0  0  0  0
   11.7206  -17.4622   23.5274 C   0  0  0  0  0  0  0  0  0  0  0  0
   11.4390  -18.2035   24.6685 O   0  0  0  0  0  0  0  0  0  0  0  0
   12.6632  -17.7807   22.7879 O   0  0  0  0  0  0  0  0  0  0  0  0
  2  1  1  6
  3  2  1  0
  4  3  1  0
  5  4  2  0
  6  5  1  0
  7  6  2  0
  7  8  1  0
  8  9  2  0
  9  4  1  0
 10  2  1  0
 10 17  1  0
 11 10  2  0
 13 12  1  0
 14 16  1  0
 14 13  1  0
 14 15  1  6
 16 17  1  1
 18 16  1  0
 19 18  2  0
 20 18  1  0
 21 22  1  1
 21 20  1  0
 22 23  1  0
 24 25  1  0
 24 21  1  0
 26 24  2  0
M  END
$$$$
