FIC.pdb
     RDKit          3D

 26 26  0  0  1  0  0  0  0  0999 V2000
    7.2896  -19.1138   27.0903 N   0  0  0  0  0  0  0  0  0  0  0  0
    7.8495  -17.7976   27.2892 C   0  0  1  0  0  0  0  0  0  0  0  0
    9.3125  -17.8831   27.7166 C   0  0  0  0  0  0  0  0  0  0  0  0
    9.8082  -16.6193   28.2764 C   0  0  0  0  0  0  0  0  0  0  0  0
   10.1492  -16.5578   29.5990 C   0  0  0  0  0  0  0  0  0  0  0  0
   10.6116  -15.3511   30.0886 C   0  0  0  0  0  0  0  0  0  0  0  0
   10.7227  -14.2503   29.2656 C   0  0  0  0  0  0  0  0  0  0  0  0
   10.3709  -14.3552   27.9491 C   0  0  0  0  0  0  0  0  0  0  0  0
    9.9084  -15.5280   27.4197 C   0  0  0  0  0  0  0  0  0  0  0  0
    7.8110  -17.0548   26.0239 C   0  0  0  0  0  0  0  0  0  0  0  0
    7.7983  -17.6943   24.9268 O   0  0  0  0  0  0  0  0  0  0  0  0
    6.0654  -11.9149   26.5802 C   0  0  0  0  0  0  0  0  0  0  0  0
    6.1093  -13.2457   25.8855 C   0  0  0  0  0  0  0  0  0  0  0  0
    7.4020  -13.4691   25.1545 C   0  0  2  0  0  0  0  0  0  0  0  0
    7.4685  -12.5466   23.9686 C   0  0  0  0  0  0  0  0  0  0  0  0
    7.6281  -14.8903   24.7430 C   0  0  2  0  0  0  0  0  0  0  0  0
    7.7879  -15.6632   25.9852 N   0  0  0  0  0  0  0  0  0  0  0  0
    8.8337  -15.0724   23.9122 C   0  0  0  0  0  0  0  0  0  0  0  0
    8.8548  -14.6273   22.7376 O   0  0  0  0  0  0  0  0  0  0  0  0
   10.0118  -15.7295   24.3402 N   0  0  0  0  0  0  0  0  0  0  0  0
   11.1560  -15.8090   23.5250 C   0  0  1  0  0  0  0  0  0  0  0  0
   12.4798  -15.5959   24.1786 C   0  0  0  0  0  0  0  0  0  0  0  0
   12.5734  -16.6814   25.6449 S   0  0  0  0  0  0  0  0  0  0  0  0
   11.2545  -17.1173   22.7802 C   0  0  0  0  0  0  0  0  0  0  0  0
   10.2623  -18.0661   22.9958 O   0  0  0  0  0  0  0  0  0  0  0  0
   12.1872  -17.3502   21.9975 O   0  0  0  0  0  0  0  0  0  0  0  0
  2  1  1  6
  3  2  1  0
  4  3  1  0
  5  4  2  0
  6  5  1  0
  7  6  2  0
  7  8  1  0
  8  9  2  0
  9  4  1  0
 10  2  1  0
 10 17  1  0
 11 10  2  0
 13 12  1  0
 14 16  1  0
 14 13  1  0
 14 15  1  6
 16 17  1  1
 18 16  1  0
 19 18  2  0
 20 18  1  0
 21 22  1  1
 21 20  1  0
 22 23  1  0
 24 25  1  0
 24 21  1  0
 26 24  2  0
M  END
$$$$
