FIC.pdb
     RDKit          3D

 26 26  0  0  1  0  0  0  0  0999 V2000
    5.7011  -18.0435   25.3342 N   0  0  0  0  0  0  0  0  0  0  0  0
    6.0457  -16.6462   25.2164 C   0  0  1  0  0  0  0  0  0  0  0  0
    6.5947  -16.1040   26.5336 C   0  0  0  0  0  0  0  0  0  0  0  0
    6.5993  -14.6363   26.5778 C   0  0  0  0  0  0  0  0  0  0  0  0
    5.4113  -13.9596   26.5644 C   0  0  0  0  0  0  0  0  0  0  0  0
    5.4567  -12.5792   26.6072 C   0  0  0  0  0  0  0  0  0  0  0  0
    6.6629  -11.9130   26.6614 C   0  0  0  0  0  0  0  0  0  0  0  0
    7.8275  -12.6282   26.6729 C   0  0  0  0  0  0  0  0  0  0  0  0
    7.8324  -13.9949   26.6320 C   0  0  0  0  0  0  0  0  0  0  0  0
    7.1018  -16.4875   24.2095 C   0  0  0  0  0  0  0  0  0  0  0  0
    8.0119  -17.3684   24.1178 O   0  0  0  0  0  0  0  0  0  0  0  0
    8.0796  -12.5864   19.4841 C   0  0  0  0  0  0  0  0  0  0  0  0
    8.5078  -13.8208   20.2248 C   0  0  0  0  0  0  0  0  0  0  0  0
    7.7297  -14.0283   21.4924 C   0  0  2  0  0  0  0  0  0  0  0  0
    7.8910  -12.8233   22.3778 C   0  0  0  0  0  0  0  0  0  0  0  0
    8.0865  -15.2843   22.2241 C   0  0  2  0  0  0  0  0  0  0  0  0
    7.1400  -15.3964   23.3453 N   0  0  0  0  0  0  0  0  0  0  0  0
    9.4605  -15.2760   22.7617 C   0  0  0  0  0  0  0  0  0  0  0  0
    9.8285  -14.3434   23.5187 O   0  0  0  0  0  0  0  0  0  0  0  0
   10.4356  -16.2646   22.4881 N   0  0  0  0  0  0  0  0  0  0  0  0
   11.7560  -16.1570   22.9623 C   0  0  1  0  0  0  0  0  0  0  0  0
   12.2324  -17.2065   23.9092 C   0  0  0  0  0  0  0  0  0  0  0  0
   11.1327  -17.2004   25.3678 S   0  0  0  0  0  0  0  0  0  0  0  0
   12.7739  -16.0929   21.8505 C   0  0  0  0  0  0  0  0  0  0  0  0
   14.0940  -15.8233   22.1905 O   0  0  0  0  0  0  0  0  0  0  0  0
   12.4543  -16.2734   20.6664 O   0  0  0  0  0  0  0  0  0  0  0  0
  2  1  1  1
  3  2  1  0
  4  3  1  0
  5  4  2  0
  6  5  1  0
  7  6  2  0
  7  8  1  0
  8  9  2  0
  9  4  1  0
 10  2  1  0
 10 17  1  0
 11 10  2  0
 13 12  1  0
 14 16  1  0
 14 13  1  0
 14 15  1  1
 16 17  1  1
 18 16  1  0
 19 18  2  0
 20 18  1  0
 21 22  1  1
 21 20  1  0
 22 23  1  0
 24 25  1  0
 24 21  1  0
 26 24  2  0
M  END
$$$$
