FIC.pdb
     RDKit          3D

 26 26  0  0  1  0  0  0  0  0999 V2000
    5.8033  -17.5151   24.3364 N   0  0  0  0  0  0  0  0  0  0  0  0
    6.7441  -16.4531   24.6050 C   0  0  1  0  0  0  0  0  0  0  0  0
    6.4579  -15.7949   25.9524 C   0  0  0  0  0  0  0  0  0  0  0  0
    6.6519  -14.3397   25.9184 C   0  0  0  0  0  0  0  0  0  0  0  0
    7.4597  -13.7473   26.8489 C   0  0  0  0  0  0  0  0  0  0  0  0
    7.6173  -12.3760   26.7841 C   0  0  0  0  0  0  0  0  0  0  0  0
    6.9785  -11.6362   25.8113 C   0  0  0  0  0  0  0  0  0  0  0  0
    6.1797  -12.2685   24.9002 C   0  0  0  0  0  0  0  0  0  0  0  0
    5.9935  -13.6228   24.9246 C   0  0  0  0  0  0  0  0  0  0  0  0
    8.1006  -17.0093   24.6747 C   0  0  0  0  0  0  0  0  0  0  0  0
    8.2779  -18.1548   25.1933 O   0  0  0  0  0  0  0  0  0  0  0  0
   11.5005  -15.9026   20.6997 C   0  0  0  0  0  0  0  0  0  0  0  0
   10.7619  -16.5625   21.8286 C   0  0  0  0  0  0  0  0  0  0  0  0
   11.3545  -16.2377   23.1697 C   0  0  2  0  0  0  0  0  0  0  0  0
   12.7900  -16.6854   23.2006 C   0  0  0  0  0  0  0  0  0  0  0  0
   10.5896  -16.8056   24.3242 C   0  0  2  0  0  0  0  0  0  0  0  0
    9.2075  -16.3188   24.1879 N   0  0  0  0  0  0  0  0  0  0  0  0
   11.1147  -16.3827   25.6365 C   0  0  0  0  0  0  0  0  0  0  0  0
   11.5745  -15.2223   25.7799 O   0  0  0  0  0  0  0  0  0  0  0  0
   11.1463  -17.2016   26.7903 N   0  0  0  0  0  0  0  0  0  0  0  0
   11.7695  -16.7841   27.9808 C   0  0  1  0  0  0  0  0  0  0  0  0
   10.9240  -16.0776   28.9863 C   0  0  0  0  0  0  0  0  0  0  0  0
    9.8582  -14.8876   28.1002 S   0  0  0  0  0  0  0  0  0  0  0  0
   12.4480  -17.9147   28.7141 C   0  0  0  0  0  0  0  0  0  0  0  0
   13.2112  -17.6010   29.8322 O   0  0  0  0  0  0  0  0  0  0  0  0
   12.3354  -19.0912   28.3401 O   0  0  0  0  0  0  0  0  0  0  0  0
  2  1  1  1
  3  2  1  0
  4  3  1  0
  5  4  2  0
  6  5  1  0
  7  6  2  0
  7  8  1  0
  8  9  2  0
  9  4  1  0
 10  2  1  0
 10 17  1  0
 11 10  2  0
 13 12  1  0
 14 16  1  0
 14 13  1  0
 14 15  1  6
 16 17  1  6
 18 16  1  0
 19 18  2  0
 20 18  1  0
 21 22  1  1
 21 20  1  0
 22 23  1  0
 24 25  1  0
 24 21  1  0
 26 24  2  0
M  END
$$$$
