FIC.pdb
     RDKit          3D

 26 26  0  0  1  0  0  0  0  0999 V2000
    5.2862  -18.7466   22.2628 N   0  0  0  0  0  0  0  0  0  0  0  0
    5.7694  -18.5494   23.6092 C   0  0  1  0  0  0  0  0  0  0  0  0
    6.4161  -19.8215   24.1514 C   0  0  0  0  0  0  0  0  0  0  0  0
    5.4872  -20.9586   24.1709 C   0  0  0  0  0  0  0  0  0  0  0  0
    5.7070  -22.0206   23.3383 C   0  0  0  0  0  0  0  0  0  0  0  0
    4.8109  -23.0715   23.3858 C   0  0  0  0  0  0  0  0  0  0  0  0
    3.7336  -23.0435   24.2462 C   0  0  0  0  0  0  0  0  0  0  0  0
    3.5509  -21.9621   25.0617 C   0  0  0  0  0  0  0  0  0  0  0  0
    4.4108  -20.8991   25.0500 C   0  0  0  0  0  0  0  0  0  0  0  0
    6.8013  -17.5056   23.6092 C   0  0  0  0  0  0  0  0  0  0  0  0
    7.5589  -17.3793   22.5979 O   0  0  0  0  0  0  0  0  0  0  0  0
    5.8091  -13.0087   26.4301 C   0  0  0  0  0  0  0  0  0  0  0  0
    6.3722  -13.8503   25.3209 C   0  0  0  0  0  0  0  0  0  0  0  0
    7.6017  -14.6039   25.7398 C   0  0  2  0  0  0  0  0  0  0  0  0
    8.7059  -13.6275   26.0382 C   0  0  0  0  0  0  0  0  0  0  0  0
    8.0482  -15.6339   24.7498 C   0  0  2  0  0  0  0  0  0  0  0  0
    6.9791  -16.6432   24.6878 N   0  0  0  0  0  0  0  0  0  0  0  0
    9.3087  -16.3002   25.1295 C   0  0  0  0  0  0  0  0  0  0  0  0
    9.3569  -16.9940   26.1757 O   0  0  0  0  0  0  0  0  0  0  0  0
   10.5125  -16.2223   24.3894 N   0  0  0  0  0  0  0  0  0  0  0  0
   11.6083  -17.0615   24.6629 C   0  0  1  0  0  0  0  0  0  0  0  0
   12.2752  -17.7191   23.5019 C   0  0  0  0  0  0  0  0  0  0  0  0
   12.7844  -16.4183   22.3247 S   0  0  0  0  0  0  0  0  0  0  0  0
   12.6976  -16.3668   25.4420 C   0  0  0  0  0  0  0  0  0  0  0  0
   13.8015  -17.1168   25.8291 O   0  0  0  0  0  0  0  0  0  0  0  0
   12.6213  -15.1644   25.7339 O   0  0  0  0  0  0  0  0  0  0  0  0
  2  1  1  6
  3  2  1  0
  4  3  1  0
  5  4  2  0
  6  5  1  0
  7  6  2  0
  7  8  1  0
  8  9  2  0
  9  4  1  0
 10  2  1  0
 10 17  1  0
 11 10  2  0
 13 12  1  0
 14 16  1  0
 14 13  1  0
 14 15  1  6
 16 17  1  1
 18 16  1  0
 19 18  2  0
 20 18  1  0
 21 22  1  6
 21 20  1  0
 22 23  1  0
 24 25  1  0
 24 21  1  0
 26 24  2  0
M  END
$$$$
