FIC.pdb
     RDKit          3D

 26 26  0  0  1  0  0  0  0  0999 V2000
    7.8529  -19.1575   27.2678 N   0  0  0  0  0  0  0  0  0  0  0  0
    8.2330  -17.7708   27.4016 C   0  0  1  0  0  0  0  0  0  0  0  0
    9.6774  -17.6418   27.8786 C   0  0  0  0  0  0  0  0  0  0  0  0
    9.8749  -16.4870   28.7638 C   0  0  0  0  0  0  0  0  0  0  0  0
   10.0002  -16.6860   30.1107 C   0  0  0  0  0  0  0  0  0  0  0  0
   10.1848  -15.5745   30.9107 C   0  0  0  0  0  0  0  0  0  0  0  0
   10.2398  -14.3103   30.3626 C   0  0  0  0  0  0  0  0  0  0  0  0
   10.1100  -14.1560   29.0109 C   0  0  0  0  0  0  0  0  0  0  0  0
    9.9258  -15.2257   28.1794 C   0  0  0  0  0  0  0  0  0  0  0  0
    8.1495  -17.1136   26.0919 C   0  0  0  0  0  0  0  0  0  0  0  0
    8.1135  -17.8242   25.0400 O   0  0  0  0  0  0  0  0  0  0  0  0
    6.5953  -12.0074   26.5444 C   0  0  0  0  0  0  0  0  0  0  0  0
    6.5461  -13.3541   25.8814 C   0  0  0  0  0  0  0  0  0  0  0  0
    7.7255  -13.5951   24.9836 C   0  0  2  0  0  0  0  0  0  0  0  0
    7.5649  -12.7886   23.7244 C   0  0  0  0  0  0  0  0  0  0  0  0
    7.9636  -15.0392   24.6700 C   0  0  2  0  0  0  0  0  0  0  0  0
    8.1081  -15.7278   25.9626 N   0  0  0  0  0  0  0  0  0  0  0  0
    9.1822  -15.2694   23.8706 C   0  0  0  0  0  0  0  0  0  0  0  0
   10.2523  -14.6905   24.1839 O   0  0  0  0  0  0  0  0  0  0  0  0
    9.2521  -16.1174   22.7397 N   0  0  0  0  0  0  0  0  0  0  0  0
   10.4560  -16.3279   22.0423 C   0  0  1  0  0  0  0  0  0  0  0  0
   10.9943  -17.7186   22.0074 C   0  0  0  0  0  0  0  0  0  0  0  0
   11.0637  -18.3466   23.7215 S   0  0  0  0  0  0  0  0  0  0  0  0
   10.3920  -15.8600   20.6094 C   0  0  0  0  0  0  0  0  0  0  0  0
    9.1668  -15.4227   20.1210 O   0  0  0  0  0  0  0  0  0  0  0  0
   11.3948  -15.8610   19.8806 O   0  0  0  0  0  0  0  0  0  0  0  0
  2  1  1  6
  3  2  1  0
  4  3  1  0
  5  4  2  0
  6  5  1  0
  7  6  2  0
  7  8  1  0
  8  9  2  0
  9  4  1  0
 10  2  1  0
 10 17  1  0
 11 10  2  0
 13 12  1  0
 14 16  1  0
 14 13  1  0
 14 15  1  6
 16 17  1  1
 18 16  1  0
 19 18  2  0
 20 18  1  0
 21 22  1  6
 21 20  1  0
 22 23  1  0
 24 25  1  0
 24 21  1  0
 26 24  2  0
M  END
$$$$
