FIC.pdb
     RDKit          3D

 26 26  0  0  1  0  0  0  0  0999 V2000
    5.2981  -17.5911   25.0375 N   0  0  0  0  0  0  0  0  0  0  0  0
    5.9691  -16.3127   25.0103 C   0  0  1  0  0  0  0  0  0  0  0  0
    6.5333  -15.9604   26.3843 C   0  0  0  0  0  0  0  0  0  0  0  0
    6.6872  -14.5123   26.5730 C   0  0  0  0  0  0  0  0  0  0  0  0
    5.5754  -13.7175   26.6124 C   0  0  0  0  0  0  0  0  0  0  0  0
    5.7612  -12.3599   26.7916 C   0  0  0  0  0  0  0  0  0  0  0  0
    7.0278  -11.8314   26.9255 C   0  0  0  0  0  0  0  0  0  0  0  0
    8.1124  -12.6618   26.8802 C   0  0  0  0  0  0  0  0  0  0  0  0
    7.9782  -14.0111   26.7048 C   0  0  0  0  0  0  0  0  0  0  0  0
    7.1029  -16.3767   24.0804 C   0  0  0  0  0  0  0  0  0  0  0  0
    7.8018  -17.4354   24.0228 O   0  0  0  0  0  0  0  0  0  0  0  0
    7.0085  -12.6340   20.0368 C   0  0  0  0  0  0  0  0  0  0  0  0
    7.1150  -13.9428   20.7657 C   0  0  0  0  0  0  0  0  0  0  0  0
    8.4366  -14.1074   21.4595 C   0  0  2  0  0  0  0  0  0  0  0  0
    9.5438  -14.0327   20.4444 C   0  0  0  0  0  0  0  0  0  0  0  0
    8.5407  -15.3569   22.2770 C   0  0  2  0  0  0  0  0  0  0  0  0
    7.4407  -15.3085   23.2535 N   0  0  0  0  0  0  0  0  0  0  0  0
    9.8181  -15.4722   23.0063 C   0  0  0  0  0  0  0  0  0  0  0  0
   10.2297  -14.5089   23.6998 O   0  0  0  0  0  0  0  0  0  0  0  0
   10.6505  -16.6167   22.9913 N   0  0  0  0  0  0  0  0  0  0  0  0
   11.9331  -16.6101   23.5700 C   0  0  1  0  0  0  0  0  0  0  0  0
   12.2416  -17.6768   24.5660 C   0  0  0  0  0  0  0  0  0  0  0  0
   11.0017  -17.5833   25.9044 S   0  0  0  0  0  0  0  0  0  0  0  0
   13.0385  -16.6529   22.5442 C   0  0  0  0  0  0  0  0  0  0  0  0
   14.3294  -16.3567   22.9647 O   0  0  0  0  0  0  0  0  0  0  0  0
   12.8143  -16.9420   21.3597 O   0  0  0  0  0  0  0  0  0  0  0  0
  2  1  1  1
  3  2  1  0
  4  3  1  0
  5  4  2  0
  6  5  1  0
  7  6  2  0
  7  8  1  0
  8  9  2  0
  9  4  1  0
 10  2  1  0
 10 17  1  0
 11 10  2  0
 13 12  1  0
 14 16  1  0
 14 13  1  0
 14 15  1  6
 16 17  1  1
 18 16  1  0
 19 18  2  0
 20 18  1  0
 21 22  1  1
 21 20  1  0
 22 23  1  0
 24 25  1  0
 24 21  1  0
 26 24  2  0
M  END
$$$$
