FIC.pdb
     RDKit          3D

 26 26  0  0  1  0  0  0  0  0999 V2000
    6.1386  -17.8683   25.4788 N   0  0  0  0  0  0  0  0  0  0  0  0
    6.5578  -16.5315   25.1289 C   0  0  1  0  0  0  0  0  0  0  0  0
    7.6881  -16.0559   26.0381 C   0  0  0  0  0  0  0  0  0  0  0  0
    7.5291  -14.6537   26.4441 C   0  0  0  0  0  0  0  0  0  0  0  0
    8.3094  -14.1520   27.4484 C   0  0  0  0  0  0  0  0  0  0  0  0
    8.1304  -12.8281   27.8020 C   0  0  0  0  0  0  0  0  0  0  0  0
    7.1947  -12.0453   27.1593 C   0  0  0  0  0  0  0  0  0  0  0  0
    6.4352  -12.5866   26.1603 C   0  0  0  0  0  0  0  0  0  0  0  0
    6.5766  -13.8912   25.7760 C   0  0  0  0  0  0  0  0  0  0  0  0
    7.0760  -16.5265   23.7557 C   0  0  0  0  0  0  0  0  0  0  0  0
    7.2593  -17.6305   23.1555 O   0  0  0  0  0  0  0  0  0  0  0  0
    7.4364  -12.3763   19.2214 C   0  0  0  0  0  0  0  0  0  0  0  0
    7.8073  -13.7466   19.7117 C   0  0  0  0  0  0  0  0  0  0  0  0
    7.4424  -13.9587   21.1529 C   0  0  2  0  0  0  0  0  0  0  0  0
    8.0345  -12.8535   21.9835 C   0  0  0  0  0  0  0  0  0  0  0  0
    7.8347  -15.3010   21.6864 C   0  0  2  0  0  0  0  0  0  0  0  0
    7.3755  -15.3442   23.0839 N   0  0  0  0  0  0  0  0  0  0  0  0
    9.2908  -15.5375   21.6577 C   0  0  0  0  0  0  0  0  0  0  0  0
   10.0159  -14.8702   20.8783 O   0  0  0  0  0  0  0  0  0  0  0  0
    9.9661  -16.4861   22.4620 N   0  0  0  0  0  0  0  0  0  0  0  0
   11.3706  -16.5344   22.5332 C   0  0  1  0  0  0  0  0  0  0  0  0
   12.0818  -15.2780   22.9082 C   0  0  0  0  0  0  0  0  0  0  0  0
   11.8767  -15.0209   24.7051 S   0  0  0  0  0  0  0  0  0  0  0  0
   11.8728  -17.6041   23.4710 C   0  0  0  0  0  0  0  0  0  0  0  0
   10.9328  -18.3507   24.1711 O   0  0  0  0  0  0  0  0  0  0  0  0
   13.0844  -17.8197   23.6208 O   0  0  0  0  0  0  0  0  0  0  0  0
  2  1  1  1
  3  2  1  0
  4  3  1  0
  5  4  2  0
  6  5  1  0
  7  6  2  0
  7  8  1  0
  8  9  2  0
  9  4  1  0
 10  2  1  0
 10 17  1  0
 11 10  2  0
 13 12  1  0
 14 16  1  0
 14 13  1  0
 14 15  1  1
 16 17  1  1
 18 16  1  0
 19 18  2  0
 20 18  1  0
 21 22  1  1
 21 20  1  0
 22 23  1  0
 24 25  1  0
 24 21  1  0
 26 24  2  0
M  END
$$$$
