FIC.pdb
     RDKit          3D

 26 26  0  0  1  0  0  0  0  0999 V2000
    5.6631  -17.9054   25.4024 N   0  0  0  0  0  0  0  0  0  0  0  0
    6.1461  -16.5603   25.1957 C   0  0  1  0  0  0  0  0  0  0  0  0
    7.0368  -16.1139   26.3523 C   0  0  0  0  0  0  0  0  0  0  0  0
    7.1053  -14.6523   26.4759 C   0  0  0  0  0  0  0  0  0  0  0  0
    8.3246  -14.0431   26.5827 C   0  0  0  0  0  0  0  0  0  0  0  0
    8.3479  -12.6661   26.6972 C   0  0  0  0  0  0  0  0  0  0  0  0
    7.1772  -11.9374   26.7028 C   0  0  0  0  0  0  0  0  0  0  0  0
    5.9793  -12.5864   26.5938 C   0  0  0  0  0  0  0  0  0  0  0  0
    5.9064  -13.9468   26.4784 C   0  0  0  0  0  0  0  0  0  0  0  0
    6.9644  -16.5177   23.9780 C   0  0  0  0  0  0  0  0  0  0  0  0
    7.6453  -17.5381   23.6495 O   0  0  0  0  0  0  0  0  0  0  0  0
    7.6816  -12.5570   19.2587 C   0  0  0  0  0  0  0  0  0  0  0  0
    8.1048  -13.8361   19.9222 C   0  0  0  0  0  0  0  0  0  0  0  0
    7.4454  -14.0359   21.2566 C   0  0  2  0  0  0  0  0  0  0  0  0
    7.7372  -12.8525   22.1376 C   0  0  0  0  0  0  0  0  0  0  0  0
    7.8230  -15.3161   21.9339 C   0  0  2  0  0  0  0  0  0  0  0  0
    7.0201  -15.3886   23.1650 N   0  0  0  0  0  0  0  0  0  0  0  0
    9.2521  -15.3859   22.2944 C   0  0  0  0  0  0  0  0  0  0  0  0
    9.7588  -14.4882   23.0125 O   0  0  0  0  0  0  0  0  0  0  0  0
   10.1337  -16.4149   21.8858 N   0  0  0  0  0  0  0  0  0  0  0  0
   11.4969  -16.4071   22.2346 C   0  0  1  0  0  0  0  0  0  0  0  0
   11.9681  -17.4574   23.1832 C   0  0  0  0  0  0  0  0  0  0  0  0
   10.8462  -17.4689   24.6248 S   0  0  0  0  0  0  0  0  0  0  0  0
   12.4086  -16.4772   21.0345 C   0  0  0  0  0  0  0  0  0  0  0  0
   13.3616  -17.4879   20.9984 O   0  0  0  0  0  0  0  0  0  0  0  0
   12.3197  -15.6638   20.1032 O   0  0  0  0  0  0  0  0  0  0  0  0
  2  1  1  1
  3  2  1  0
  4  3  1  0
  5  4  2  0
  6  5  1  0
  7  6  2  0
  7  8  1  0
  8  9  2  0
  9  4  1  0
 10  2  1  0
 10 17  1  0
 11 10  2  0
 13 12  1  0
 14 16  1  0
 14 13  1  0
 14 15  1  1
 16 17  1  1
 18 16  1  0
 19 18  2  0
 20 18  1  0
 21 22  1  1
 21 20  1  0
 22 23  1  0
 24 25  1  0
 24 21  1  0
 26 24  2  0
M  END
$$$$
