FIC.pdb
     RDKit          3D

 26 26  0  0  1  0  0  0  0  0999 V2000
    5.6945  -17.2600   25.4017 N   0  0  0  0  0  0  0  0  0  0  0  0
    6.3868  -16.0459   25.0383 C   0  0  1  0  0  0  0  0  0  0  0  0
    7.2872  -15.5672   26.1743 C   0  0  0  0  0  0  0  0  0  0  0  0
    7.0267  -14.1707   26.5462 C   0  0  0  0  0  0  0  0  0  0  0  0
    5.8145  -13.6114   26.2512 C   0  0  0  0  0  0  0  0  0  0  0  0
    5.6074  -12.2951   26.6172 C   0  0  0  0  0  0  0  0  0  0  0  0
    6.5941  -11.5759   27.2580 C   0  0  0  0  0  0  0  0  0  0  0  0
    7.7918  -12.1736   27.5341 C   0  0  0  0  0  0  0  0  0  0  0  0
    8.0428  -13.4732   27.1913 C   0  0  0  0  0  0  0  0  0  0  0  0
    7.2513  -16.3052   23.8809 C   0  0  0  0  0  0  0  0  0  0  0  0
    7.7904  -17.4476   23.7501 O   0  0  0  0  0  0  0  0  0  0  0  0
    7.0214  -12.4837   19.9539 C   0  0  0  0  0  0  0  0  0  0  0  0
    7.0561  -13.8639   20.5450 C   0  0  0  0  0  0  0  0  0  0  0  0
    8.4295  -14.2546   21.0102 C   0  0  2  0  0  0  0  0  0  0  0  0
    9.3491  -14.3463   19.8237 C   0  0  0  0  0  0  0  0  0  0  0  0
    8.4612  -15.5172   21.8134 C   0  0  2  0  0  0  0  0  0  0  0  0
    7.5022  -15.3345   22.9146 N   0  0  0  0  0  0  0  0  0  0  0  0
    9.7893  -15.8122   22.3845 C   0  0  0  0  0  0  0  0  0  0  0  0
   10.2845  -15.0403   23.2432 O   0  0  0  0  0  0  0  0  0  0  0  0
   10.5827  -16.9309   22.0355 N   0  0  0  0  0  0  0  0  0  0  0  0
   11.9337  -17.0312   22.4160 C   0  0  1  0  0  0  0  0  0  0  0  0
   12.2623  -17.9515   23.5430 C   0  0  0  0  0  0  0  0  0  0  0  0
   10.9320  -19.1971   23.6688 S   0  0  0  0  0  0  0  0  0  0  0  0
   12.8369  -17.4200   21.2717 C   0  0  0  0  0  0  0  0  0  0  0  0
   14.2096  -17.3892   21.4857 O   0  0  0  0  0  0  0  0  0  0  0  0
   12.3801  -17.7582   20.1700 O   0  0  0  0  0  0  0  0  0  0  0  0
  2  1  1  1
  3  2  1  0
  4  3  1  0
  5  4  2  0
  6  5  1  0
  7  6  2  0
  7  8  1  0
  8  9  2  0
  9  4  1  0
 10  2  1  0
 10 17  1  0
 11 10  2  0
 13 12  1  0
 14 16  1  0
 14 13  1  0
 14 15  1  6
 16 17  1  1
 18 16  1  0
 19 18  2  0
 20 18  1  0
 21 22  1  1
 21 20  1  0
 22 23  1  0
 24 25  1  0
 24 21  1  0
 26 24  2  0
M  END
$$$$
