FIC.pdb
     RDKit          3D

 26 26  0  0  1  0  0  0  0  0999 V2000
    9.8207  -17.6413   26.6528 N   0  0  0  0  0  0  0  0  0  0  0  0
    8.4028  -17.8408   26.8398 C   0  0  1  0  0  0  0  0  0  0  0  0
    7.9594  -17.3633   28.2203 C   0  0  0  0  0  0  0  0  0  0  0  0
    8.9280  -16.4463   28.8346 C   0  0  0  0  0  0  0  0  0  0  0  0
    8.8231  -15.1032   28.6019 C   0  0  0  0  0  0  0  0  0  0  0  0
    9.7531  -14.2725   29.1975 C   0  0  0  0  0  0  0  0  0  0  0  0
   10.7505  -14.7876   29.9983 C   0  0  0  0  0  0  0  0  0  0  0  0
   10.8192  -16.1369   30.2048 C   0  0  0  0  0  0  0  0  0  0  0  0
    9.9216  -16.9979   29.6368 C   0  0  0  0  0  0  0  0  0  0  0  0
    7.6640  -17.0480   25.8499 C   0  0  0  0  0  0  0  0  0  0  0  0
    6.4717  -17.3724   25.5570 O   0  0  0  0  0  0  0  0  0  0  0  0
    6.8562  -12.4770   26.5645 C   0  0  0  0  0  0  0  0  0  0  0  0
    6.4443  -13.5531   25.6013 C   0  0  0  0  0  0  0  0  0  0  0  0
    7.4749  -13.7952   24.5362 C   0  0  2  0  0  0  0  0  0  0  0  0
    7.1952  -12.8997   23.3608 C   0  0  0  0  0  0  0  0  0  0  0  0
    7.5805  -15.2258   24.1087 C   0  0  2  0  0  0  0  0  0  0  0  0
    8.2299  -15.9447   25.2165 N   0  0  0  0  0  0  0  0  0  0  0  0
    8.3851  -15.4114   22.8860 C   0  0  0  0  0  0  0  0  0  0  0  0
    7.9848  -14.9299   21.7968 O   0  0  0  0  0  0  0  0  0  0  0  0
    9.6142  -16.1109   22.8323 N   0  0  0  0  0  0  0  0  0  0  0  0
   10.3825  -16.1734   21.6551 C   0  0  1  0  0  0  0  0  0  0  0  0
   11.6904  -15.4562   21.6509 C   0  0  0  0  0  0  0  0  0  0  0  0
   12.5009  -15.7384   23.2635 S   0  0  0  0  0  0  0  0  0  0  0  0
   10.6716  -17.5886   21.2192 C   0  0  0  0  0  0  0  0  0  0  0  0
   11.3299  -17.7762   20.0099 O   0  0  0  0  0  0  0  0  0  0  0  0
   10.3369  -18.5620   21.9100 O   0  0  0  0  0  0  0  0  0  0  0  0
  2  1  1  6
  3  2  1  0
  4  3  1  0
  5  4  2  0
  6  5  1  0
  7  6  2  0
  7  8  1  0
  8  9  2  0
  9  4  1  0
 10  2  1  0
 10 17  1  0
 11 10  2  0
 13 12  1  0
 14 16  1  0
 14 13  1  0
 14 15  1  6
 16 17  1  1
 18 16  1  0
 19 18  2  0
 20 18  1  0
 21 22  1  1
 21 20  1  0
 22 23  1  0
 24 25  1  0
 24 21  1  0
 26 24  2  0
M  END
$$$$
