QHR.pdb
     RDKit          3D

 31 31  0  0  1  0  0  0  0  0999 V2000
   12.7391  -25.0032   18.6572 N   0  0  0  0  0  0  0  0  0  0  0  0
   11.3460  -24.7416   18.7625 C   0  0  0  0  0  0  0  0  0  0  0  0
   10.6066  -24.7379   17.7265 O   0  0  0  0  0  0  0  0  0  0  0  0
   10.7517  -24.4712   20.0893 C   0  0  0  0  0  0  0  0  0  0  0  0
   11.8013  -24.5057   21.1802 C   0  0  0  0  0  0  0  0  0  0  0  0
   11.1189  -24.2367   22.4919 C   0  0  2  0  0  0  0  0  0  0  0  0
    9.6797  -24.3743   22.3975 N   0  0  0  0  0  0  0  0  0  0  0  0
   11.4992  -22.9059   23.0534 C   0  0  0  0  0  0  0  0  0  0  0  0
   12.5556  -22.3337   22.6410 O   0  0  0  0  0  0  0  0  0  0  0  0
   10.7442  -22.2195   24.0393 N   0  0  0  0  0  0  0  0  0  0  0  0
   11.1396  -20.8519   24.4223 C   0  0  1  0  0  0  0  0  0  0  0  0
   10.0735  -19.8715   23.9833 C   0  0  0  0  0  0  0  0  0  0  0  0
   10.5324  -18.4962   24.2610 C   0  0  0  0  0  0  0  0  0  0  0  0
   11.7351  -18.1823   24.8795 C   0  0  0  0  0  0  0  0  0  0  0  0
   11.8648  -16.8549   24.9881 N   0  0  0  0  0  0  0  0  0  0  0  0
   10.7694  -16.3082   24.4518 C   0  0  0  0  0  0  0  0  0  0  0  0
    9.9745  -17.2987   24.0177 N   0  0  0  0  0  0  0  0  0  0  0  0
   11.3267  -20.7690   25.8882 C   0  0  0  0  0  0  0  0  0  0  0  0
   11.8229  -19.7674   26.4616 O   0  0  0  0  0  0  0  0  0  0  0  0
   17.3620  -21.4162   31.0893 N   0  0  0  0  0  0  0  0  0  0  0  0
   16.3129  -21.9279   31.8945 C   0  0  0  0  0  0  0  0  0  0  0  0
   16.5432  -22.3837   33.0749 N   0  0  0  0  0  0  0  0  0  0  0  0
   14.9550  -21.9565   31.4283 N   0  0  0  0  0  0  0  0  0  0  0  0
   14.5591  -21.4330   30.1550 C   0  0  0  0  0  0  0  0  0  0  0  0
   13.1152  -21.6702   29.8325 C   0  0  0  0  0  0  0  0  0  0  0  0
   12.7759  -21.6235   28.3732 C   0  0  0  0  0  0  0  0  0  0  0  0
   11.2932  -21.8364   28.1915 C   0  0  2  0  0  0  0  0  0  0  0  0
   10.9509  -21.8374   26.7691 N   0  0  0  0  0  0  0  0  0  0  0  0
   10.4519  -20.8041   28.8144 C   0  0  0  0  0  0  0  0  0  0  0  0
    9.9118  -20.9872   30.1112 O   0  0  0  0  0  0  0  0  0  0  0  0
   10.1410  -19.7120   28.2913 O   0  0  0  0  0  0  0  0  0  0  0  0
  2  4  1  0
  2  1  1  0
  3  2  2  0
  5  4  1  0
  6  5  1  0
  6  7  1  6
  8  6  1  0
  9  8  2  0
 10  8  1  0
 11 12  1  1
 11 10  1  0
 12 13  1  0
 13 17  1  0
 13 14  2  0
 14 15  1  0
 16 15  1  0
 17 16  2  0
 18 11  1  0
 19 18  2  0
 20 21  1  0
 21 22  2  0
 23 21  1  0
 24 23  1  0
 25 24  1  0
 27 26  1  6
 26 25  1  0
 27 28  1  0
 28 18  1  0
 29 27  1  0
 29 30  1  0
 31 29  2  0
M  END
$$$$
