QHR.pdb
     RDKit          3D

 31 31  0  0  1  0  0  0  0  0999 V2000
    7.4545  -16.7799   14.9780 N   0  0  0  0  0  0  0  0  0  0  0  0
    8.7539  -16.5358   15.4998 C   0  0  0  0  0  0  0  0  0  0  0  0
    9.7394  -17.2623   15.1522 O   0  0  0  0  0  0  0  0  0  0  0  0
    8.9609  -15.4266   16.4557 C   0  0  0  0  0  0  0  0  0  0  0  0
    7.6662  -14.6937   16.7374 C   0  0  0  0  0  0  0  0  0  0  0  0
    7.9660  -13.5657   17.6843 C   0  0  2  0  0  0  0  0  0  0  0  0
    8.9652  -12.6595   17.1558 N   0  0  0  0  0  0  0  0  0  0  0  0
    8.3508  -14.0646   19.0386 C   0  0  0  0  0  0  0  0  0  0  0  0
    9.5788  -14.1115   19.3604 O   0  0  0  0  0  0  0  0  0  0  0  0
    7.4176  -14.5003   20.0146 N   0  0  0  0  0  0  0  0  0  0  0  0
    7.8846  -14.7578   21.3889 C   0  0  1  0  0  0  0  0  0  0  0  0
    6.7360  -15.2723   22.2293 C   0  0  0  0  0  0  0  0  0  0  0  0
    7.2142  -15.5312   23.6018 C   0  0  0  0  0  0  0  0  0  0  0  0
    8.5089  -15.2854   24.0388 C   0  0  0  0  0  0  0  0  0  0  0  0
    8.6316  -15.6214   25.3282 N   0  0  0  0  0  0  0  0  0  0  0  0
    7.4415  -16.0786   25.7298 C   0  0  0  0  0  0  0  0  0  0  0  0
    6.5962  -16.0217   24.6889 N   0  0  0  0  0  0  0  0  0  0  0  0
    8.9822  -15.7507   21.3747 C   0  0  0  0  0  0  0  0  0  0  0  0
    8.9001  -16.8567   20.7848 O   0  0  0  0  0  0  0  0  0  0  0  0
   16.3513  -12.9982   18.6859 N   0  0  0  0  0  0  0  0  0  0  0  0
   15.7705  -14.1023   18.0120 C   0  0  0  0  0  0  0  0  0  0  0  0
   16.2636  -14.5413   16.9082 N   0  0  0  0  0  0  0  0  0  0  0  0
   14.6134  -14.7749   18.5326 N   0  0  0  0  0  0  0  0  0  0  0  0
   14.2831  -14.7875   19.9264 C   0  0  0  0  0  0  0  0  0  0  0  0
   13.0769  -15.6158   20.2487 C   0  0  0  0  0  0  0  0  0  0  0  0
   12.6443  -15.5740   21.6833 C   0  0  0  0  0  0  0  0  0  0  0  0
   11.3901  -16.3943   21.8577 C   0  0  2  0  0  0  0  0  0  0  0  0
   10.2321  -15.5191   22.0401 N   0  0  0  0  0  0  0  0  0  0  0  0
   11.4109  -17.2936   23.0206 C   0  0  0  0  0  0  0  0  0  0  0  0
   11.9861  -18.5854   22.9343 O   0  0  0  0  0  0  0  0  0  0  0  0
   10.9466  -17.0258   24.1501 O   0  0  0  0  0  0  0  0  0  0  0  0
  2  4  1  0
  2  1  1  0
  3  2  2  0
  5  4  1  0
  6  5  1  0
  6  7  1  6
  8  6  1  0
  9  8  2  0
 10  8  1  0
 11 12  1  1
 11 10  1  0
 12 13  1  0
 13 17  1  0
 13 14  2  0
 14 15  1  0
 16 15  1  0
 17 16  2  0
 18 11  1  0
 19 18  2  0
 20 21  1  0
 21 22  2  0
 23 21  1  0
 24 23  1  0
 25 24  1  0
 27 26  1  1
 26 25  1  0
 27 28  1  0
 28 18  1  0
 29 27  1  0
 29 30  1  0
 31 29  2  0
M  END
$$$$
