QHR.pdb
     RDKit          3D

 31 31  0  0  1  0  0  0  0  0999 V2000
    8.5739  -12.1980   17.5946 N   0  0  0  0  0  0  0  0  0  0  0  0
    8.0362  -13.4814   17.3046 C   0  0  0  0  0  0  0  0  0  0  0  0
    7.9632  -13.8979   16.1042 O   0  0  0  0  0  0  0  0  0  0  0  0
    7.5574  -14.3396   18.4097 C   0  0  0  0  0  0  0  0  0  0  0  0
    8.4402  -14.2062   19.6327 C   0  0  0  0  0  0  0  0  0  0  0  0
    8.5288  -15.5536   20.2925 C   0  0  2  0  0  0  0  0  0  0  0  0
    7.4357  -16.4233   19.9080 N   0  0  0  0  0  0  0  0  0  0  0  0
    8.6318  -15.4390   21.7782 C   0  0  0  0  0  0  0  0  0  0  0  0
    9.6866  -14.9552   22.2949 O   0  0  0  0  0  0  0  0  0  0  0  0
    7.6086  -15.8427   22.6744 N   0  0  0  0  0  0  0  0  0  0  0  0
    7.8410  -15.7305   24.1258 C   0  0  1  0  0  0  0  0  0  0  0  0
    6.5197  -15.5476   24.8407 C   0  0  0  0  0  0  0  0  0  0  0  0
    6.5324  -14.2621   25.5664 C   0  0  0  0  0  0  0  0  0  0  0  0
    7.6153  -13.3939   25.6018 C   0  0  0  0  0  0  0  0  0  0  0  0
    7.3187  -12.3170   26.3386 N   0  0  0  0  0  0  0  0  0  0  0  0
    6.0663  -12.4748   26.7781 C   0  0  0  0  0  0  0  0  0  0  0  0
    5.6009  -13.6438   26.3111 N   0  0  0  0  0  0  0  0  0  0  0  0
    8.5204  -16.9464   24.6269 C   0  0  0  0  0  0  0  0  0  0  0  0
    8.4429  -18.0617   24.0541 O   0  0  0  0  0  0  0  0  0  0  0  0
   16.2246  -19.1748   22.9558 N   0  0  0  0  0  0  0  0  0  0  0  0
   15.8361  -20.0965   23.9611 C   0  0  0  0  0  0  0  0  0  0  0  0
   16.5430  -21.1408   24.2139 N   0  0  0  0  0  0  0  0  0  0  0  0
   14.6435  -19.9020   24.7368 N   0  0  0  0  0  0  0  0  0  0  0  0
   13.6686  -18.8996   24.4257 C   0  0  0  0  0  0  0  0  0  0  0  0
   12.5196  -18.8627   25.3866 C   0  0  0  0  0  0  0  0  0  0  0  0
   11.4470  -17.8698   25.0541 C   0  0  0  0  0  0  0  0  0  0  0  0
   10.3422  -17.9566   26.0780 C   0  0  2  0  0  0  0  0  0  0  0  0
    9.3248  -16.9388   25.8149 N   0  0  0  0  0  0  0  0  0  0  0  0
   10.7830  -17.7460   27.4647 C   0  0  0  0  0  0  0  0  0  0  0  0
   11.2098  -18.8321   28.2679 O   0  0  0  0  0  0  0  0  0  0  0  0
   10.8253  -16.6422   28.0502 O   0  0  0  0  0  0  0  0  0  0  0  0
  2  4  1  0
  2  1  1  0
  3  2  2  0
  5  4  1  0
  6  5  1  0
  6  7  1  1
  8  6  1  0
  9  8  2  0
 10  8  1  0
 11 12  1  1
 11 10  1  0
 12 13  1  0
 13 17  1  0
 13 14  2  0
 14 15  1  0
 16 15  1  0
 17 16  2  0
 18 11  1  0
 19 18  2  0
 20 21  1  0
 21 22  2  0
 23 21  1  0
 24 23  1  0
 25 24  1  0
 27 26  1  6
 26 25  1  0
 27 28  1  0
 28 18  1  0
 29 27  1  0
 29 30  1  0
 31 29  2  0
M  END
$$$$
