QHR.pdb
     RDKit          3D

 31 31  0  0  1  0  0  0  0  0999 V2000
    9.0271  -14.4174   13.8399 N   0  0  0  0  0  0  0  0  0  0  0  0
    7.9413  -14.6308   14.7321 C   0  0  0  0  0  0  0  0  0  0  0  0
    6.9092  -15.2734   14.3556 O   0  0  0  0  0  0  0  0  0  0  0  0
    8.0132  -14.1003   16.1105 C   0  0  0  0  0  0  0  0  0  0  0  0
    8.4516  -15.1689   17.0897 C   0  0  0  0  0  0  0  0  0  0  0  0
    8.2648  -14.6311   18.4806 C   0  0  2  0  0  0  0  0  0  0  0  0
    8.2647  -13.1827   18.5110 N   0  0  0  0  0  0  0  0  0  0  0  0
    9.2699  -15.1919   19.4327 C   0  0  0  0  0  0  0  0  0  0  0  0
    9.3792  -16.4516   19.5540 O   0  0  0  0  0  0  0  0  0  0  0  0
   10.1322  -14.3961   20.2305 N   0  0  0  0  0  0  0  0  0  0  0  0
   11.0474  -15.0584   21.1776 C   0  0  1  0  0  0  0  0  0  0  0  0
   12.2686  -14.1919   21.3964 C   0  0  0  0  0  0  0  0  0  0  0  0
   13.1927  -14.3555   20.2568 C   0  0  0  0  0  0  0  0  0  0  0  0
   13.2506  -15.4856   19.4522 C   0  0  0  0  0  0  0  0  0  0  0  0
   14.1854  -15.3310   18.5073 N   0  0  0  0  0  0  0  0  0  0  0  0
   14.7302  -14.1239   18.6876 C   0  0  0  0  0  0  0  0  0  0  0  0
   14.1298  -13.5444   19.7389 N   0  0  0  0  0  0  0  0  0  0  0  0
   10.3601  -15.2946   22.4671 C   0  0  0  0  0  0  0  0  0  0  0  0
    9.7116  -14.4052   23.0725 O   0  0  0  0  0  0  0  0  0  0  0  0
    6.5491  -19.7024   20.7379 N   0  0  0  0  0  0  0  0  0  0  0  0
    5.5311  -18.9382   21.3628 C   0  0  0  0  0  0  0  0  0  0  0  0
    4.5012  -18.5386   20.7040 N   0  0  0  0  0  0  0  0  0  0  0  0
    5.6062  -18.5817   22.7517 N   0  0  0  0  0  0  0  0  0  0  0  0
    6.7515  -18.8619   23.5653 C   0  0  0  0  0  0  0  0  0  0  0  0
    7.7040  -17.7106   23.6757 C   0  0  0  0  0  0  0  0  0  0  0  0
    8.9355  -17.9823   24.4859 C   0  0  0  0  0  0  0  0  0  0  0  0
    9.8328  -16.7695   24.4650 C   0  0  2  0  0  0  0  0  0  0  0  0
   10.3849  -16.5693   23.1251 N   0  0  0  0  0  0  0  0  0  0  0  0
   10.9850  -16.8523   25.3745 C   0  0  0  0  0  0  0  0  0  0  0  0
   10.8097  -16.8164   26.7798 O   0  0  0  0  0  0  0  0  0  0  0  0
   12.1794  -16.9578   25.0205 O   0  0  0  0  0  0  0  0  0  0  0  0
  2  4  1  0
  2  1  1  0
  3  2  2  0
  5  4  1  0
  6  5  1  0
  6  7  1  6
  8  6  1  0
  9  8  2  0
 10  8  1  0
 11 12  1  1
 11 10  1  0
 12 13  1  0
 13 17  1  0
 13 14  2  0
 14 15  1  0
 16 15  1  0
 17 16  2  0
 18 11  1  0
 19 18  2  0
 20 21  1  0
 21 22  2  0
 23 21  1  0
 24 23  1  0
 25 24  1  0
 27 26  1  6
 26 25  1  0
 27 28  1  0
 28 18  1  0
 29 27  1  0
 29 30  1  0
 31 29  2  0
M  END
$$$$
