QHR.pdb
     RDKit          3D

 31 31  0  0  1  0  0  0  0  0999 V2000
   16.4188  -14.8230   17.1218 N   0  0  0  0  0  0  0  0  0  0  0  0
   15.1122  -14.3025   16.9163 C   0  0  0  0  0  0  0  0  0  0  0  0
   14.9351  -13.2493   16.2240 O   0  0  0  0  0  0  0  0  0  0  0  0
   13.9486  -14.9926   17.5134 C   0  0  0  0  0  0  0  0  0  0  0  0
   14.1803  -15.2953   18.9788 C   0  0  0  0  0  0  0  0  0  0  0  0
   13.1468  -16.2946   19.4171 C   0  0  2  0  0  0  0  0  0  0  0  0
   12.5657  -17.0067   18.2972 N   0  0  0  0  0  0  0  0  0  0  0  0
   12.0902  -15.6655   20.2649 C   0  0  0  0  0  0  0  0  0  0  0  0
   12.4310  -14.9297   21.2428 O   0  0  0  0  0  0  0  0  0  0  0  0
   10.6983  -15.8365   20.0489 N   0  0  0  0  0  0  0  0  0  0  0  0
    9.7458  -15.2417   21.0039 C   0  0  1  0  0  0  0  0  0  0  0  0
    8.3423  -15.3279   20.4442 C   0  0  0  0  0  0  0  0  0  0  0  0
    8.2358  -14.4538   19.2593 C   0  0  0  0  0  0  0  0  0  0  0  0
    8.7397  -13.1619   19.1920 C   0  0  0  0  0  0  0  0  0  0  0  0
    8.4869  -12.6307   17.9901 N   0  0  0  0  0  0  0  0  0  0  0  0
    7.8302  -13.5551   17.2825 C   0  0  0  0  0  0  0  0  0  0  0  0
    7.6831  -14.6461   18.0502 N   0  0  0  0  0  0  0  0  0  0  0  0
    9.8153  -15.9528   22.3002 C   0  0  0  0  0  0  0  0  0  0  0  0
    9.8261  -17.2053   22.3966 O   0  0  0  0  0  0  0  0  0  0  0  0
   10.2080  -17.1284   31.0937 N   0  0  0  0  0  0  0  0  0  0  0  0
   10.5570  -15.8658   30.5506 C   0  0  0  0  0  0  0  0  0  0  0  0
   10.0216  -14.7823   30.9907 N   0  0  0  0  0  0  0  0  0  0  0  0
   11.5201  -15.7445   29.4925 N   0  0  0  0  0  0  0  0  0  0  0  0
   11.2796  -14.9777   28.3066 C   0  0  0  0  0  0  0  0  0  0  0  0
   10.7631  -15.7930   27.1606 C   0  0  0  0  0  0  0  0  0  0  0  0
   10.5665  -15.0358   25.8819 C   0  0  0  0  0  0  0  0  0  0  0  0
    9.9912  -15.9550   24.8328 C   0  0  2  0  0  0  0  0  0  0  0  0
    9.8765  -15.2559   23.5528 N   0  0  0  0  0  0  0  0  0  0  0  0
    8.6472  -16.4633   25.1436 C   0  0  0  0  0  0  0  0  0  0  0  0
    8.4651  -17.5451   26.0401 O   0  0  0  0  0  0  0  0  0  0  0  0
    7.5785  -16.0166   24.6731 O   0  0  0  0  0  0  0  0  0  0  0  0
  2  4  1  0
  2  1  1  0
  3  2  2  0
  5  4  1  0
  6  5  1  0
  6  7  1  6
  8  6  1  0
  9  8  2  0
 10  8  1  0
 11 12  1  6
 11 10  1  0
 12 13  1  0
 13 17  1  0
 13 14  2  0
 14 15  1  0
 16 15  1  0
 17 16  2  0
 18 11  1  0
 19 18  2  0
 20 21  1  0
 21 22  2  0
 23 21  1  0
 24 23  1  0
 25 24  1  0
 27 26  1  1
 26 25  1  0
 27 28  1  0
 28 18  1  0
 29 27  1  0
 29 30  1  0
 31 29  2  0
M  END
$$$$
