QHR.pdb
     RDKit          3D

 31 31  0  0  1  0  0  0  0  0999 V2000
    8.4499  -12.2001   15.9521 N   0  0  0  0  0  0  0  0  0  0  0  0
    8.3918  -13.5019   15.3844 C   0  0  0  0  0  0  0  0  0  0  0  0
    7.9666  -13.6734   14.1972 O   0  0  0  0  0  0  0  0  0  0  0  0
    8.8300  -14.6671   16.1826 C   0  0  0  0  0  0  0  0  0  0  0  0
    9.3127  -14.2449   17.5543 C   0  0  0  0  0  0  0  0  0  0  0  0
    9.2137  -15.4331   18.4691 C   0  0  2  0  0  0  0  0  0  0  0  0
    8.1343  -16.3236   18.0935 N   0  0  0  0  0  0  0  0  0  0  0  0
    9.1035  -15.0240   19.9014 C   0  0  0  0  0  0  0  0  0  0  0  0
   10.0317  -14.3332   20.4260 O   0  0  0  0  0  0  0  0  0  0  0  0
    8.0077  -15.3612   20.7373 N   0  0  0  0  0  0  0  0  0  0  0  0
    8.0089  -14.9068   22.1397 C   0  0  1  0  0  0  0  0  0  0  0  0
    6.5866  -14.6706   22.5999 C   0  0  0  0  0  0  0  0  0  0  0  0
    6.6016  -14.1503   23.9813 C   0  0  0  0  0  0  0  0  0  0  0  0
    6.6786  -12.8034   24.3095 C   0  0  0  0  0  0  0  0  0  0  0  0
    6.6711  -12.6520   25.6390 N   0  0  0  0  0  0  0  0  0  0  0  0
    6.5908  -13.8746   26.1731 C   0  0  0  0  0  0  0  0  0  0  0  0
    6.5496  -14.7685   25.1727 N   0  0  0  0  0  0  0  0  0  0  0  0
    8.6550  -15.9217   23.0019 C   0  0  0  0  0  0  0  0  0  0  0  0
    8.3624  -17.1427   22.9627 O   0  0  0  0  0  0  0  0  0  0  0  0
   14.3073  -14.0785   20.7412 N   0  0  0  0  0  0  0  0  0  0  0  0
   13.7739  -15.3116   20.2874 C   0  0  0  0  0  0  0  0  0  0  0  0
   13.2845  -15.4283   19.1037 N   0  0  0  0  0  0  0  0  0  0  0  0
   13.7598  -16.4770   21.1262 N   0  0  0  0  0  0  0  0  0  0  0  0
   13.5638  -16.4121   22.5438 C   0  0  0  0  0  0  0  0  0  0  0  0
   12.1278  -16.5254   22.9558 C   0  0  0  0  0  0  0  0  0  0  0  0
   11.8874  -16.4824   24.4347 C   0  0  0  0  0  0  0  0  0  0  0  0
   10.4082  -16.5941   24.7105 C   0  0  2  0  0  0  0  0  0  0  0  0
    9.6727  -15.5807   23.9541 N   0  0  0  0  0  0  0  0  0  0  0  0
   10.0383  -16.4015   26.1203 C   0  0  0  0  0  0  0  0  0  0  0  0
    9.1720  -15.3508   26.5107 O   0  0  0  0  0  0  0  0  0  0  0  0
   10.4298  -17.1092   27.0736 O   0  0  0  0  0  0  0  0  0  0  0  0
  2  4  1  0
  2  1  1  0
  3  2  2  0
  5  4  1  0
  6  5  1  0
  6  7  1  6
  8  6  1  0
  9  8  2  0
 10  8  1  0
 11 12  1  1
 11 10  1  0
 12 13  1  0
 13 17  1  0
 13 14  2  0
 14 15  1  0
 16 15  1  0
 17 16  2  0
 18 11  1  0
 19 18  2  0
 20 21  1  0
 21 22  2  0
 23 21  1  0
 24 23  1  0
 25 24  1  0
 27 26  1  1
 26 25  1  0
 27 28  1  0
 28 18  1  0
 29 27  1  0
 29 30  1  0
 31 29  2  0
M  END
$$$$
