QHR.pdb
     RDKit          3D

 31 31  0  0  1  0  0  0  0  0999 V2000
    6.9776  -12.1659   17.8571 N   0  0  0  0  0  0  0  0  0  0  0  0
    7.1227  -13.4344   17.2324 C   0  0  0  0  0  0  0  0  0  0  0  0
    6.4721  -13.7149   16.1751 O   0  0  0  0  0  0  0  0  0  0  0  0
    8.0388  -14.4367   17.8181 C   0  0  0  0  0  0  0  0  0  0  0  0
    8.6707  -13.9251   19.0955 C   0  0  0  0  0  0  0  0  0  0  0  0
    9.4996  -15.0333   19.6814 C   0  0  2  0  0  0  0  0  0  0  0  0
    9.9782  -15.9520   18.6685 N   0  0  0  0  0  0  0  0  0  0  0  0
    8.7724  -15.7567   20.7672 C   0  0  0  0  0  0  0  0  0  0  0  0
    8.3496  -15.1081   21.7743 O   0  0  0  0  0  0  0  0  0  0  0  0
    8.5144  -17.1518   20.7517 N   0  0  0  0  0  0  0  0  0  0  0  0
    7.9078  -17.7823   21.9382 C   0  0  1  0  0  0  0  0  0  0  0  0
    7.2507  -19.0868   21.5421 C   0  0  0  0  0  0  0  0  0  0  0  0
    6.7716  -19.7790   22.7549 C   0  0  0  0  0  0  0  0  0  0  0  0
    6.8758  -19.2666   24.0411 C   0  0  0  0  0  0  0  0  0  0  0  0
    6.3516  -20.1256   24.9231 N   0  0  0  0  0  0  0  0  0  0  0  0
    5.9121  -21.1806   24.2301 C   0  0  0  0  0  0  0  0  0  0  0  0
    6.1674  -20.9658   22.9301 N   0  0  0  0  0  0  0  0  0  0  0  0
    8.9433  -18.0320   22.9660 C   0  0  0  0  0  0  0  0  0  0  0  0
   10.0288  -18.6144   22.7197 O   0  0  0  0  0  0  0  0  0  0  0  0
    9.4991  -14.6249   31.2508 N   0  0  0  0  0  0  0  0  0  0  0  0
   10.2441  -14.4753   30.0536 C   0  0  0  0  0  0  0  0  0  0  0  0
   10.3214  -13.3385   29.4569 N   0  0  0  0  0  0  0  0  0  0  0  0
   10.9421  -15.5814   29.4610 N   0  0  0  0  0  0  0  0  0  0  0  0
   10.2711  -16.7359   28.9422 C   0  0  0  0  0  0  0  0  0  0  0  0
   10.6600  -17.0729   27.5351 C   0  0  0  0  0  0  0  0  0  0  0  0
    9.5768  -16.8858   26.5160 C   0  0  0  0  0  0  0  0  0  0  0  0
    9.8422  -17.7750   25.3263 C   0  0  2  0  0  0  0  0  0  0  0  0
    8.7806  -17.6225   24.3314 N   0  0  0  0  0  0  0  0  0  0  0  0
    9.9034  -19.2093   25.6433 C   0  0  0  0  0  0  0  0  0  0  0  0
   11.1435  -19.8530   25.8774 O   0  0  0  0  0  0  0  0  0  0  0  0
    8.9172  -19.9722   25.7348 O   0  0  0  0  0  0  0  0  0  0  0  0
  2  4  1  0
  2  1  1  0
  3  2  2  0
  5  4  1  0
  6  5  1  0
  6  7  1  6
  8  6  1  0
  9  8  2  0
 10  8  1  0
 11 12  1  6
 11 10  1  0
 12 13  1  0
 13 17  1  0
 13 14  2  0
 14 15  1  0
 16 15  1  0
 17 16  2  0
 18 11  1  0
 19 18  2  0
 20 21  1  0
 21 22  2  0
 23 21  1  0
 24 23  1  0
 25 24  1  0
 27 26  1  1
 26 25  1  0
 27 28  1  0
 28 18  1  0
 29 27  1  0
 29 30  1  0
 31 29  2  0
M  END
$$$$
