QHR.pdb
     RDKit          3D

 31 31  0  0  1  0  0  0  0  0999 V2000
   14.6487  -16.8822   14.7185 N   0  0  0  0  0  0  0  0  0  0  0  0
   13.6475  -17.8666   14.4970 C   0  0  0  0  0  0  0  0  0  0  0  0
   13.9400  -18.9772   13.9487 O   0  0  0  0  0  0  0  0  0  0  0  0
   12.2531  -17.5958   14.9083 C   0  0  0  0  0  0  0  0  0  0  0  0
   12.1802  -17.1671   16.3588 C   0  0  0  0  0  0  0  0  0  0  0  0
   10.7569  -17.3164   16.8177 C   0  0  2  0  0  0  0  0  0  0  0  0
    9.8104  -17.0971   15.7430 N   0  0  0  0  0  0  0  0  0  0  0  0
   10.4564  -16.4410   17.9900 C   0  0  0  0  0  0  0  0  0  0  0  0
   11.2117  -15.4503   18.2386 O   0  0  0  0  0  0  0  0  0  0  0  0
    9.3592  -16.6436   18.8666 N   0  0  0  0  0  0  0  0  0  0  0  0
    9.2236  -15.7840   20.0565 C   0  0  1  0  0  0  0  0  0  0  0  0
    7.8057  -15.2632   20.1498 C   0  0  0  0  0  0  0  0  0  0  0  0
    7.5485  -14.3457   19.0223 C   0  0  0  0  0  0  0  0  0  0  0  0
    7.6550  -12.9635   19.0981 C   0  0  0  0  0  0  0  0  0  0  0  0
    7.3605  -12.4130   17.9146 N   0  0  0  0  0  0  0  0  0  0  0  0
    7.0664  -13.4135   17.0785 C   0  0  0  0  0  0  0  0  0  0  0  0
    7.1812  -14.5699   17.7498 N   0  0  0  0  0  0  0  0  0  0  0  0
    9.5599  -16.5501   21.2775 C   0  0  0  0  0  0  0  0  0  0  0  0
    9.2243  -17.7483   21.4506 O   0  0  0  0  0  0  0  0  0  0  0  0
   17.8448  -16.0279   24.2926 N   0  0  0  0  0  0  0  0  0  0  0  0
   17.3041  -17.3254   24.1058 C   0  0  0  0  0  0  0  0  0  0  0  0
   18.0649  -18.3612   24.0547 N   0  0  0  0  0  0  0  0  0  0  0  0
   15.8904  -17.5364   23.9686 N   0  0  0  0  0  0  0  0  0  0  0  0
   14.9339  -16.4734   24.0536 C   0  0  0  0  0  0  0  0  0  0  0  0
   13.5117  -16.9446   24.0399 C   0  0  0  0  0  0  0  0  0  0  0  0
   12.6254  -16.2560   23.0464 C   0  0  0  0  0  0  0  0  0  0  0  0
   11.2114  -16.7614   23.1940 C   0  0  2  0  0  0  0  0  0  0  0  0
   10.3012  -15.9739   22.3624 N   0  0  0  0  0  0  0  0  0  0  0  0
   10.6816  -16.6884   24.5634 C   0  0  0  0  0  0  0  0  0  0  0  0
   11.2219  -17.4900   25.5990 O   0  0  0  0  0  0  0  0  0  0  0  0
    9.7461  -15.9486   24.9382 O   0  0  0  0  0  0  0  0  0  0  0  0
  2  4  1  0
  2  1  1  0
  3  2  2  0
  5  4  1  0
  6  5  1  0
  6  7  1  6
  8  6  1  0
  9  8  2  0
 10  8  1  0
 11 12  1  1
 11 10  1  0
 12 13  1  0
 13 17  1  0
 13 14  2  0
 14 15  1  0
 16 15  1  0
 17 16  2  0
 18 11  1  0
 19 18  2  0
 20 21  1  0
 21 22  2  0
 23 21  1  0
 24 23  1  0
 25 24  1  0
 27 26  1  1
 26 25  1  0
 27 28  1  0
 28 18  1  0
 29 27  1  0
 29 30  1  0
 31 29  2  0
M  END
$$$$
