QHR.pdb
     RDKit          3D

 31 31  0  0  1  0  0  0  0  0999 V2000
   15.7634  -13.9141   18.1746 N   0  0  0  0  0  0  0  0  0  0  0  0
   14.4064  -14.0457   17.7724 C   0  0  0  0  0  0  0  0  0  0  0  0
   14.0999  -14.1223   16.5396 O   0  0  0  0  0  0  0  0  0  0  0  0
   13.3419  -14.0938   18.7978 C   0  0  0  0  0  0  0  0  0  0  0  0
   13.7793  -14.8911   20.0086 C   0  0  0  0  0  0  0  0  0  0  0  0
   12.8006  -16.0146   20.2048 C   0  0  2  0  0  0  0  0  0  0  0  0
   12.4725  -16.6774   18.9590 N   0  0  0  0  0  0  0  0  0  0  0  0
   11.5684  -15.5602   20.9163 C   0  0  0  0  0  0  0  0  0  0  0  0
   11.6786  -14.9203   22.0081 O   0  0  0  0  0  0  0  0  0  0  0  0
   10.2511  -15.7991   20.4462 N   0  0  0  0  0  0  0  0  0  0  0  0
    9.1093  -15.5035   21.3305 C   0  0  1  0  0  0  0  0  0  0  0  0
    7.8374  -15.4319   20.5135 C   0  0  0  0  0  0  0  0  0  0  0  0
    7.9728  -14.3738   19.4929 C   0  0  0  0  0  0  0  0  0  0  0  0
    8.2570  -13.0447   19.7765 C   0  0  0  0  0  0  0  0  0  0  0  0
    8.3163  -12.3344   18.6440 N   0  0  0  0  0  0  0  0  0  0  0  0
    8.0759  -13.1799   17.6371 C   0  0  0  0  0  0  0  0  0  0  0  0
    7.8707  -14.4015   18.1538 N   0  0  0  0  0  0  0  0  0  0  0  0
    8.9838  -16.5534   22.3663 C   0  0  0  0  0  0  0  0  0  0  0  0
    9.0674  -17.7810   22.1133 O   0  0  0  0  0  0  0  0  0  0  0  0
    9.4375  -13.4723   28.5391 N   0  0  0  0  0  0  0  0  0  0  0  0
   10.1568  -14.5007   29.1991 C   0  0  0  0  0  0  0  0  0  0  0  0
   11.0045  -14.2281   30.1273 N   0  0  0  0  0  0  0  0  0  0  0  0
    9.9683  -15.8836   28.8617 N   0  0  0  0  0  0  0  0  0  0  0  0
   10.4969  -16.4713   27.6671 C   0  0  0  0  0  0  0  0  0  0  0  0
    9.8117  -16.0083   26.4177 C   0  0  0  0  0  0  0  0  0  0  0  0
    8.4952  -16.6671   26.1356 C   0  0  0  0  0  0  0  0  0  0  0  0
    8.5195  -17.2759   24.7553 C   0  0  2  0  0  0  0  0  0  0  0  0
    8.7557  -16.2416   23.7480 N   0  0  0  0  0  0  0  0  0  0  0  0
    7.2707  -17.9478   24.3672 C   0  0  0  0  0  0  0  0  0  0  0  0
    6.9658  -19.2494   24.8362 O   0  0  0  0  0  0  0  0  0  0  0  0
    6.3918  -17.4651   23.6205 O   0  0  0  0  0  0  0  0  0  0  0  0
  2  4  1  0
  2  1  1  0
  3  2  2  0
  5  4  1  0
  6  5  1  0
  6  7  1  6
  8  6  1  0
  9  8  2  0
 10  8  1  0
 11 12  1  6
 11 10  1  0
 12 13  1  0
 13 17  1  0
 13 14  2  0
 14 15  1  0
 16 15  1  0
 17 16  2  0
 18 11  1  0
 19 18  2  0
 20 21  1  0
 21 22  2  0
 23 21  1  0
 24 23  1  0
 25 24  1  0
 27 26  1  1
 26 25  1  0
 27 28  1  0
 28 18  1  0
 29 27  1  0
 29 30  1  0
 31 29  2  0
M  END
$$$$
