QHR.pdb
     RDKit          3D

 31 31  0  0  1  0  0  0  0  0999 V2000
   13.4796  -18.7116   13.7293 N   0  0  0  0  0  0  0  0  0  0  0  0
   13.1404  -19.9864   14.2585 C   0  0  0  0  0  0  0  0  0  0  0  0
   13.5316  -21.0523   13.6835 O   0  0  0  0  0  0  0  0  0  0  0  0
   12.3251  -20.0732   15.4892 C   0  0  0  0  0  0  0  0  0  0  0  0
   11.8460  -18.7061   15.9299 C   0  0  0  0  0  0  0  0  0  0  0  0
   11.8236  -18.6824   17.4324 C   0  0  2  0  0  0  0  0  0  0  0  0
   10.9633  -19.7103   17.9824 N   0  0  0  0  0  0  0  0  0  0  0  0
   11.4606  -17.3335   17.9615 C   0  0  0  0  0  0  0  0  0  0  0  0
   12.1929  -16.3347   17.6785 O   0  0  0  0  0  0  0  0  0  0  0  0
   10.3274  -17.0838   18.7778 N   0  0  0  0  0  0  0  0  0  0  0  0
   10.0441  -15.7028   19.2089 C   0  0  1  0  0  0  0  0  0  0  0  0
    8.5632  -15.4210   19.0755 C   0  0  0  0  0  0  0  0  0  0  0  0
    8.2961  -14.0228   19.4667 C   0  0  0  0  0  0  0  0  0  0  0  0
    9.2770  -13.1130   19.8379 C   0  0  0  0  0  0  0  0  0  0  0  0
    8.7218  -11.9321   20.1340 N   0  0  0  0  0  0  0  0  0  0  0  0
    7.4031  -12.0637   19.9607 C   0  0  0  0  0  0  0  0  0  0  0  0
    7.1550  -13.3205   19.5604 N   0  0  0  0  0  0  0  0  0  0  0  0
   10.4682  -15.5123   20.6142 C   0  0  0  0  0  0  0  0  0  0  0  0
   10.3259  -14.4286   21.2335 O   0  0  0  0  0  0  0  0  0  0  0  0
   10.7056  -22.8700   24.6820 N   0  0  0  0  0  0  0  0  0  0  0  0
   11.4567  -22.6302   23.5034 C   0  0  0  0  0  0  0  0  0  0  0  0
   11.9695  -23.6010   22.8335 N   0  0  0  0  0  0  0  0  0  0  0  0
   11.6734  -21.2994   23.0096 N   0  0  0  0  0  0  0  0  0  0  0  0
   11.1324  -20.1361   23.6469 C   0  0  0  0  0  0  0  0  0  0  0  0
   11.6030  -18.8485   23.0423 C   0  0  0  0  0  0  0  0  0  0  0  0
   10.9327  -17.6171   23.5728 C   0  0  0  0  0  0  0  0  0  0  0  0
   11.4024  -16.4113   22.7969 C   0  0  2  0  0  0  0  0  0  0  0  0
   11.0782  -16.5622   21.3783 N   0  0  0  0  0  0  0  0  0  0  0  0
   12.8520  -16.1752   22.8627 C   0  0  0  0  0  0  0  0  0  0  0  0
   13.4865  -15.8678   24.0915 O   0  0  0  0  0  0  0  0  0  0  0  0
   13.6366  -16.2188   21.8903 O   0  0  0  0  0  0  0  0  0  0  0  0
  2  4  1  0
  2  1  1  0
  3  2  2  0
  5  4  1  0
  6  5  1  0
  6  7  1  6
  8  6  1  0
  9  8  2  0
 10  8  1  0
 11 12  1  1
 11 10  1  0
 12 13  1  0
 13 17  1  0
 13 14  2  0
 14 15  1  0
 16 15  1  0
 17 16  2  0
 18 11  1  0
 19 18  2  0
 20 21  1  0
 21 22  2  0
 23 21  1  0
 24 23  1  0
 25 24  1  0
 27 26  1  1
 26 25  1  0
 27 28  1  0
 28 18  1  0
 29 27  1  0
 29 30  1  0
 31 29  2  0
M  END
$$$$
