HCY.pdb
     RDKit          3D

 29 30  0  0  1  0  0  0  0  0999 V2000
   20.9601  -13.7398  -18.0214 N   0  0  0  0  0  0  0  0  0  0  0  0
   21.5068  -12.4326  -18.3233 C   0  0  1  0  0  0  0  0  0  0  0  0
   21.0058  -12.0223  -19.7046 C   0  0  0  0  0  0  0  0  0  0  0  0
   21.6066  -12.9300  -20.7174 C   0  0  0  0  0  0  0  0  0  0  0  0
   20.9397  -13.8986  -21.4281 C   0  0  0  0  0  0  0  0  0  0  0  0
   21.8230  -14.5297  -22.2554 N   0  0  0  0  0  0  0  0  0  0  0  0
   23.0169  -13.9603  -22.0589 C   0  0  0  0  0  0  0  0  0  0  0  0
   22.8782  -12.9831  -21.1176 N   0  0  0  0  0  0  0  0  0  0  0  0
   21.1036  -11.4848  -17.2887 C   0  0  0  0  0  0  0  0  0  0  0  0
   19.9589  -11.5878  -16.7630 O   0  0  0  0  0  0  0  0  0  0  0  0
   21.9396  -10.4225  -16.8176 N   0  0  0  0  0  0  0  0  0  0  0  0
   21.4392   -9.4810  -15.8696 C   0  0  1  0  0  0  0  0  0  0  0  0
   22.4336   -9.4844  -14.6816 C   0  0  0  0  0  0  0  0  0  0  0  0
   21.7228   -8.3994  -13.4204 S   0  0  0  0  0  0  0  0  0  0  0  0
   21.2533   -8.1132  -16.3600 C   0  0  0  0  0  0  0  0  0  0  0  0
   22.2185   -7.4936  -16.9285 O   0  0  0  0  0  0  0  0  0  0  0  0
   18.3699   -0.2828  -19.0996 O   0  0  0  0  0  0  0  0  0  0  0  0
   18.5084   -1.6316  -18.7452 C   0  0  0  0  0  0  0  0  0  0  0  0
   19.5526   -2.4003  -19.2089 C   0  0  0  0  0  0  0  0  0  0  0  0
   19.6645   -3.7235  -18.8446 C   0  0  0  0  0  0  0  0  0  0  0  0
   18.7302   -4.3329  -17.9967 C   0  0  0  0  0  0  0  0  0  0  0  0
   18.8344   -5.7562  -17.6225 C   0  0  0  0  0  0  0  0  0  0  0  0
   19.9557   -5.9837  -16.6719 C   0  0  2  0  0  0  0  0  0  0  0  0
   20.0597   -7.3777  -16.2651 N   0  0  0  0  0  0  0  0  0  0  0  0
   19.8567   -5.1573  -15.4636 C   0  0  0  0  0  0  0  0  0  0  0  0
   20.1639   -3.9427  -15.5151 O   0  0  0  0  0  0  0  0  0  0  0  0
   17.6777   -3.5640  -17.5275 C   0  0  0  0  0  0  0  0  0  0  0  0
   17.5991   -2.2456  -17.9131 C   0  0  0  0  0  0  0  0  0  0  0  0
   19.4369   -5.6125  -14.2237 O   0  0  0  0  0  0  0  0  0  0  0  0
  2  3  1  0
  2  1  1  1
  4  3  1  0
  4  8  1  0
  5  4  2  0
  6  5  1  0
  6  7  1  0
  7  8  2  0
  9  2  1  0
 10  9  2  0
 11  9  1  0
 12 11  1  0
 12 13  1  1
 14 13  1  0
 15 24  1  0
 15 12  1  0
 16 15  2  0
 18 17  1  0
 19 18  2  0
 20 19  1  0
 21 20  2  0
 21 27  1  0
 22 21  1  0
 23 22  1  6
 23 24  1  0
 25 23  1  0
 25 29  1  0
 26 25  2  0
 27 28  2  0
 28 18  1  0
M  END
$$$$
