HCY.pdb
     RDKit          3D

 29 30  0  0  1  0  0  0  0  0999 V2000
   25.2450  -11.1536  -18.3183 N   0  0  0  0  0  0  0  0  0  0  0  0
   25.0202  -10.7695  -16.9396 C   0  0  1  0  0  0  0  0  0  0  0  0
   26.3370  -10.2407  -16.3794 C   0  0  0  0  0  0  0  0  0  0  0  0
   27.3180  -11.3573  -16.3363 C   0  0  0  0  0  0  0  0  0  0  0  0
   27.1904  -12.5146  -15.6066 C   0  0  0  0  0  0  0  0  0  0  0  0
   28.2902  -13.2952  -15.8162 N   0  0  0  0  0  0  0  0  0  0  0  0
   29.0849  -12.6309  -16.6620 C   0  0  0  0  0  0  0  0  0  0  0  0
   28.4852  -11.4469  -16.9763 N   0  0  0  0  0  0  0  0  0  0  0  0
   23.9569   -9.7710  -16.8788 C   0  0  0  0  0  0  0  0  0  0  0  0
   23.9444   -8.8242  -17.7160 O   0  0  0  0  0  0  0  0  0  0  0  0
   22.9013   -9.7949  -15.9122 N   0  0  0  0  0  0  0  0  0  0  0  0
   21.8639   -8.8165  -15.9569 C   0  0  1  0  0  0  0  0  0  0  0  0
   20.5504   -9.5535  -15.5940 C   0  0  0  0  0  0  0  0  0  0  0  0
   19.2551   -8.2913  -15.5482 S   0  0  0  0  0  0  0  0  0  0  0  0
   22.0403   -7.6534  -15.0840 C   0  0  0  0  0  0  0  0  0  0  0  0
   22.5971   -7.7833  -13.9387 O   0  0  0  0  0  0  0  0  0  0  0  0
   24.7375   -2.5647  -19.6304 O   0  0  0  0  0  0  0  0  0  0  0  0
   24.3777   -3.0947  -18.3840 C   0  0  0  0  0  0  0  0  0  0  0  0
   23.6087   -2.3855  -17.4884 C   0  0  0  0  0  0  0  0  0  0  0  0
   23.2697   -2.9306  -16.2702 C   0  0  0  0  0  0  0  0  0  0  0  0
   23.6894   -4.2146  -15.8983 C   0  0  0  0  0  0  0  0  0  0  0  0
   23.3471   -4.7929  -14.5849 C   0  0  0  0  0  0  0  0  0  0  0  0
   21.9187   -5.2047  -14.5321 C   0  0  2  0  0  0  0  0  0  0  0  0
   21.6404   -6.3429  -15.3961 N   0  0  0  0  0  0  0  0  0  0  0  0
   20.9980   -4.1195  -14.8887 C   0  0  0  0  0  0  0  0  0  0  0  0
   20.2531   -4.2409  -15.8900 O   0  0  0  0  0  0  0  0  0  0  0  0
   24.4634   -4.9323  -16.7956 C   0  0  0  0  0  0  0  0  0  0  0  0
   24.7819   -4.3547  -18.0030 C   0  0  0  0  0  0  0  0  0  0  0  0
   20.8695   -2.9277  -14.1929 O   0  0  0  0  0  0  0  0  0  0  0  0
  2  3  1  0
  2  1  1  6
  4  3  1  0
  4  8  1  0
  5  4  2  0
  6  5  1  0
  6  7  1  0
  7  8  2  0
  9  2  1  0
 10  9  2  0
 11  9  1  0
 12 11  1  0
 12 13  1  1
 14 13  1  0
 15 24  1  0
 15 12  1  0
 16 15  2  0
 18 17  1  0
 19 18  2  0
 20 19  1  0
 21 20  2  0
 21 27  1  0
 22 21  1  0
 23 22  1  6
 23 24  1  0
 25 23  1  0
 25 29  1  0
 26 25  2  0
 27 28  2  0
 28 18  1  0
M  END
$$$$
