HCY.pdb
     RDKit          3D

 29 30  0  0  1  0  0  0  0  0999 V2000
   27.8445  -21.7867  -15.9321 N   0  0  0  0  0  0  0  0  0  0  0  0
   27.1151  -20.6213  -15.4754 C   0  0  1  0  0  0  0  0  0  0  0  0
   26.3916  -20.0203  -16.6766 C   0  0  0  0  0  0  0  0  0  0  0  0
   27.4013  -19.4211  -17.5889 C   0  0  0  0  0  0  0  0  0  0  0  0
   28.0974  -18.2572  -17.3675 C   0  0  0  0  0  0  0  0  0  0  0  0
   28.9264  -18.0274  -18.4271 N   0  0  0  0  0  0  0  0  0  0  0  0
   28.7455  -19.0331  -19.2897 C   0  0  0  0  0  0  0  0  0  0  0  0
   27.8119  -19.8819  -18.7717 N   0  0  0  0  0  0  0  0  0  0  0  0
   26.1901  -21.0098  -14.4149 C   0  0  0  0  0  0  0  0  0  0  0  0
   25.0325  -21.4168  -14.7177 O   0  0  0  0  0  0  0  0  0  0  0  0
   26.5157  -20.9612  -13.0218 N   0  0  0  0  0  0  0  0  0  0  0  0
   25.5031  -21.1739  -12.0394 C   0  0  1  0  0  0  0  0  0  0  0  0
   26.1508  -20.8605  -10.6674 C   0  0  0  0  0  0  0  0  0  0  0  0
   24.8336  -21.0132   -9.4366 S   0  0  0  0  0  0  0  0  0  0  0  0
   24.2762  -20.3903  -12.2020 C   0  0  0  0  0  0  0  0  0  0  0  0
   24.3379  -19.1303  -12.4195 O   0  0  0  0  0  0  0  0  0  0  0  0
   17.2024  -16.0160  -14.1348 O   0  0  0  0  0  0  0  0  0  0  0  0
   18.3521  -16.7985  -13.9617 C   0  0  0  0  0  0  0  0  0  0  0  0
   19.2757  -16.5237  -12.9779 C   0  0  0  0  0  0  0  0  0  0  0  0
   20.3968  -17.3093  -12.8300 C   0  0  0  0  0  0  0  0  0  0  0  0
   20.6391  -18.4074  -13.6659 C   0  0  0  0  0  0  0  0  0  0  0  0
   21.8505  -19.2377  -13.5248 C   0  0  0  0  0  0  0  0  0  0  0  0
   21.7835  -20.0876  -12.3058 C   0  0  2  0  0  0  0  0  0  0  0  0
   22.9725  -20.9115  -12.1419 N   0  0  0  0  0  0  0  0  0  0  0  0
   20.6082  -20.9655  -12.2856 C   0  0  0  0  0  0  0  0  0  0  0  0
   20.6899  -22.1237  -12.7590 O   0  0  0  0  0  0  0  0  0  0  0  0
   19.7131  -18.6881  -14.6573 C   0  0  0  0  0  0  0  0  0  0  0  0
   18.6052  -17.8808  -14.7744 C   0  0  0  0  0  0  0  0  0  0  0  0
   19.3690  -20.6198  -11.7699 O   0  0  0  0  0  0  0  0  0  0  0  0
  2  3  1  0
  2  1  1  6
  4  3  1  0
  4  8  1  0
  5  4  2  0
  6  5  1  0
  6  7  1  0
  7  8  2  0
  9  2  1  0
 10  9  2  0
 11  9  1  0
 12 11  1  0
 12 13  1  1
 14 13  1  0
 15 24  1  0
 15 12  1  0
 16 15  2  0
 18 17  1  0
 19 18  2  0
 20 19  1  0
 21 20  2  0
 21 27  1  0
 22 21  1  0
 23 22  1  6
 23 24  1  0
 25 23  1  0
 25 29  1  0
 26 25  2  0
 27 28  2  0
 28 18  1  0
M  END
$$$$
