HCY.pdb
     RDKit          3D

 29 30  0  0  1  0  0  0  0  0999 V2000
   26.6606  -24.1532  -15.9260 N   0  0  0  0  0  0  0  0  0  0  0  0
   26.6752  -22.7842  -15.4524 C   0  0  1  0  0  0  0  0  0  0  0  0
   26.2274  -21.8857  -16.6011 C   0  0  0  0  0  0  0  0  0  0  0  0
   27.2891  -20.8766  -16.8571 C   0  0  0  0  0  0  0  0  0  0  0  0
   27.3377  -19.6072  -16.3336 C   0  0  0  0  0  0  0  0  0  0  0  0
   28.4550  -18.9770  -16.7998 N   0  0  0  0  0  0  0  0  0  0  0  0
   29.0869  -19.8432  -17.5989 C   0  0  0  0  0  0  0  0  0  0  0  0
   28.3694  -21.0027  -17.6300 N   0  0  0  0  0  0  0  0  0  0  0  0
   25.8036  -22.6621  -14.2876 C   0  0  0  0  0  0  0  0  0  0  0  0
   24.6492  -23.1758  -14.3181 O   0  0  0  0  0  0  0  0  0  0  0  0
   26.1794  -21.9847  -13.0838 N   0  0  0  0  0  0  0  0  0  0  0  0
   25.2009  -21.6954  -12.0867 C   0  0  1  0  0  0  0  0  0  0  0  0
   25.9737  -21.1530  -10.8584 C   0  0  0  0  0  0  0  0  0  0  0  0
   24.7247  -20.7110   -9.6264 S   0  0  0  0  0  0  0  0  0  0  0  0
   24.1513  -20.7492  -12.4728 C   0  0  0  0  0  0  0  0  0  0  0  0
   24.4494  -19.5424  -12.7784 O   0  0  0  0  0  0  0  0  0  0  0  0
   20.8235  -24.0949  -17.7159 O   0  0  0  0  0  0  0  0  0  0  0  0
   21.0982  -23.0002  -16.8850 C   0  0  0  0  0  0  0  0  0  0  0  0
   22.3881  -22.6140  -16.5962 C   0  0  0  0  0  0  0  0  0  0  0  0
   22.6295  -21.5341  -15.7766 C   0  0  0  0  0  0  0  0  0  0  0  0
   21.5832  -20.7941  -15.2104 C   0  0  0  0  0  0  0  0  0  0  0  0
   21.8380  -19.6506  -14.3137 C   0  0  0  0  0  0  0  0  0  0  0  0
   21.7702  -20.0593  -12.8850 C   0  0  2  0  0  0  0  0  0  0  0  0
   22.7808  -21.0509  -12.5464 N   0  0  0  0  0  0  0  0  0  0  0  0
   20.4568  -20.5916  -12.5051 C   0  0  0  0  0  0  0  0  0  0  0  0
   19.4333  -19.8819  -12.6504 O   0  0  0  0  0  0  0  0  0  0  0  0
   20.2836  -21.1785  -15.4977 C   0  0  0  0  0  0  0  0  0  0  0  0
   20.0818  -22.2625  -16.3206 C   0  0  0  0  0  0  0  0  0  0  0  0
   20.2345  -21.8558  -11.9823 O   0  0  0  0  0  0  0  0  0  0  0  0
  2  3  1  0
  2  1  1  6
  4  3  1  0
  4  8  1  0
  5  4  2  0
  6  5  1  0
  6  7  1  0
  7  8  2  0
  9  2  1  0
 10  9  2  0
 11  9  1  0
 12 11  1  0
 12 13  1  1
 14 13  1  0
 15 24  1  0
 15 12  1  0
 16 15  2  0
 18 17  1  0
 19 18  2  0
 20 19  1  0
 21 20  2  0
 21 27  1  0
 22 21  1  0
 23 22  1  6
 23 24  1  0
 25 23  1  0
 25 29  1  0
 26 25  2  0
 27 28  2  0
 28 18  1  0
M  END
$$$$
