HCY.pdb
     RDKit          3D

 29 30  0  0  1  0  0  0  0  0999 V2000
   20.7265  -11.1026  -19.5077 N   0  0  0  0  0  0  0  0  0  0  0  0
   21.4151  -11.2785  -18.2453 C   0  0  1  0  0  0  0  0  0  0  0  0
   22.5501  -12.2740  -18.4650 C   0  0  0  0  0  0  0  0  0  0  0  0
   21.9638  -13.5907  -18.8301 C   0  0  0  0  0  0  0  0  0  0  0  0
   20.6278  -13.9114  -18.8102 C   0  0  0  0  0  0  0  0  0  0  0  0
   20.4770  -15.2099  -19.2028 N   0  0  0  0  0  0  0  0  0  0  0  0
   21.7003  -15.6842  -19.4611 C   0  0  0  0  0  0  0  0  0  0  0  0
   22.6050  -14.6897  -19.2314 N   0  0  0  0  0  0  0  0  0  0  0  0
   21.9018   -9.9863  -17.7713 C   0  0  0  0  0  0  0  0  0  0  0  0
   22.5928   -9.9318  -16.7145 O   0  0  0  0  0  0  0  0  0  0  0  0
   21.6439   -8.7478  -18.4413 N   0  0  0  0  0  0  0  0  0  0  0  0
   22.0835   -7.5168  -17.8697 C   0  0  1  0  0  0  0  0  0  0  0  0
   21.9696   -6.4494  -18.9869 C   0  0  0  0  0  0  0  0  0  0  0  0
   22.6688   -4.9255  -18.3074 S   0  0  0  0  0  0  0  0  0  0  0  0
   21.3610   -7.0685  -16.6768 C   0  0  0  0  0  0  0  0  0  0  0  0
   20.0893   -7.1963  -16.6053 O   0  0  0  0  0  0  0  0  0  0  0  0
   18.1263   -5.6243   -8.7856 O   0  0  0  0  0  0  0  0  0  0  0  0
   18.9358   -5.9673   -9.8769 C   0  0  0  0  0  0  0  0  0  0  0  0
   18.7971   -7.1696  -10.5340 C   0  0  0  0  0  0  0  0  0  0  0  0
   19.6061   -7.4811  -11.6037 C   0  0  0  0  0  0  0  0  0  0  0  0
   20.5918   -6.5963  -12.0606 C   0  0  0  0  0  0  0  0  0  0  0  0
   21.4755   -6.9362  -13.1921 C   0  0  0  0  0  0  0  0  0  0  0  0
   21.1945   -6.0771  -14.3735 C   0  0  2  0  0  0  0  0  0  0  0  0
   21.9559   -6.4847  -15.5455 N   0  0  0  0  0  0  0  0  0  0  0  0
   21.4603   -4.6562  -14.1226 C   0  0  0  0  0  0  0  0  0  0  0  0
   22.6022   -4.1891  -14.3459 O   0  0  0  0  0  0  0  0  0  0  0  0
   20.7356   -5.3855  -11.4030 C   0  0  0  0  0  0  0  0  0  0  0  0
   19.9090   -5.1094  -10.3384 C   0  0  0  0  0  0  0  0  0  0  0  0
   20.5290   -3.7476  -13.6450 O   0  0  0  0  0  0  0  0  0  0  0  0
  2  3  1  0
  2  1  1  6
  4  3  1  0
  4  8  1  0
  5  4  2  0
  6  5  1  0
  6  7  1  0
  7  8  2  0
  9  2  1  0
 10  9  2  0
 11  9  1  0
 12 11  1  0
 12 13  1  6
 14 13  1  0
 15 24  1  0
 15 12  1  0
 16 15  2  0
 18 17  1  0
 19 18  2  0
 20 19  1  0
 21 20  2  0
 21 27  1  0
 22 21  1  0
 23 22  1  1
 23 24  1  0
 25 23  1  0
 25 29  1  0
 26 25  2  0
 27 28  2  0
 28 18  1  0
M  END
$$$$
