HCY.pdb
     RDKit          3D

 29 30  0  0  1  0  0  0  0  0999 V2000
   24.8051  -15.1615  -19.3138 N   0  0  0  0  0  0  0  0  0  0  0  0
   24.8951  -13.8452  -19.9123 C   0  0  1  0  0  0  0  0  0  0  0  0
   23.5925  -13.5802  -20.6607 C   0  0  0  0  0  0  0  0  0  0  0  0
   23.5195  -14.4982  -21.8281 C   0  0  0  0  0  0  0  0  0  0  0  0
   22.5881  -15.4909  -22.0158 C   0  0  0  0  0  0  0  0  0  0  0  0
   22.8462  -16.1243  -23.1969 N   0  0  0  0  0  0  0  0  0  0  0  0
   23.9201  -15.5326  -23.7306 C   0  0  0  0  0  0  0  0  0  0  0  0
   24.3272  -14.5394  -22.8893 N   0  0  0  0  0  0  0  0  0  0  0  0
   25.1423  -12.8522  -18.8711 C   0  0  0  0  0  0  0  0  0  0  0  0
   24.4060  -12.8315  -17.8441 O   0  0  0  0  0  0  0  0  0  0  0  0
   26.1896  -11.8785  -18.9369 N   0  0  0  0  0  0  0  0  0  0  0  0
   26.3350  -10.9086  -17.9007 C   0  0  1  0  0  0  0  0  0  0  0  0
   27.8560  -10.7699  -17.6405 C   0  0  0  0  0  0  0  0  0  0  0  0
   28.0431   -9.4622  -16.4043 S   0  0  0  0  0  0  0  0  0  0  0  0
   25.7529   -9.5912  -18.1681 C   0  0  0  0  0  0  0  0  0  0  0  0
   25.8912   -9.0446  -19.3174 O   0  0  0  0  0  0  0  0  0  0  0  0
   20.0412   -8.7520  -13.1573 O   0  0  0  0  0  0  0  0  0  0  0  0
   20.7690   -8.4822  -14.3242 C   0  0  0  0  0  0  0  0  0  0  0  0
   21.0628   -9.4674  -15.2404 C   0  0  0  0  0  0  0  0  0  0  0  0
   21.7797   -9.1744  -16.3789 C   0  0  0  0  0  0  0  0  0  0  0  0
   22.2335   -7.8762  -16.6468 C   0  0  0  0  0  0  0  0  0  0  0  0
   23.0213   -7.5632  -17.8544 C   0  0  0  0  0  0  0  0  0  0  0  0
   24.4770   -7.5157  -17.5519 C   0  0  2  0  0  0  0  0  0  0  0  0
   25.0191   -8.8307  -17.2419 N   0  0  0  0  0  0  0  0  0  0  0  0
   24.8006   -6.6107  -16.4434 C   0  0  0  0  0  0  0  0  0  0  0  0
   25.3532   -7.0636  -15.4129 O   0  0  0  0  0  0  0  0  0  0  0  0
   21.9407   -6.8814  -15.7283 C   0  0  0  0  0  0  0  0  0  0  0  0
   21.2222   -7.2121  -14.6025 C   0  0  0  0  0  0  0  0  0  0  0  0
   24.5438   -5.2488  -16.4307 O   0  0  0  0  0  0  0  0  0  0  0  0
  2  3  1  0
  2  1  1  1
  4  3  1  0
  4  8  1  0
  5  4  2  0
  6  5  1  0
  6  7  1  0
  7  8  2  0
  9  2  1  0
 10  9  2  0
 11  9  1  0
 12 11  1  0
 12 13  1  6
 14 13  1  0
 15 24  1  0
 15 12  1  0
 16 15  2  0
 18 17  1  0
 19 18  2  0
 20 19  1  0
 21 20  2  0
 21 27  1  0
 22 21  1  0
 23 22  1  1
 23 24  1  0
 25 23  1  0
 25 29  1  0
 26 25  2  0
 27 28  2  0
 28 18  1  0
M  END
$$$$
