HCY.pdb
     RDKit          3D

 29 30  0  0  1  0  0  0  0  0999 V2000
   20.9918  -13.2494  -16.9375 N   0  0  0  0  0  0  0  0  0  0  0  0
   21.0295  -11.9500  -17.5768 C   0  0  1  0  0  0  0  0  0  0  0  0
   19.9569  -11.9296  -18.6615 C   0  0  0  0  0  0  0  0  0  0  0  0
   20.3532  -12.8735  -19.7399 C   0  0  0  0  0  0  0  0  0  0  0  0
   21.5265  -12.8347  -20.4540 C   0  0  0  0  0  0  0  0  0  0  0  0
   21.5295  -13.8564  -21.3589 N   0  0  0  0  0  0  0  0  0  0  0  0
   20.3763  -14.5161  -21.2067 C   0  0  0  0  0  0  0  0  0  0  0  0
   19.6614  -13.9104  -20.2156 N   0  0  0  0  0  0  0  0  0  0  0  0
   20.8186  -10.9081  -16.5762 C   0  0  0  0  0  0  0  0  0  0  0  0
   19.9122  -11.0544  -15.7076 O   0  0  0  0  0  0  0  0  0  0  0  0
   21.5902   -9.7040  -16.5108 N   0  0  0  0  0  0  0  0  0  0  0  0
   21.2985   -8.7167  -15.5231 C   0  0  1  0  0  0  0  0  0  0  0  0
   22.4698   -8.7512  -14.5096 C   0  0  0  0  0  0  0  0  0  0  0  0
   22.1572  -10.1606  -13.4192 S   0  0  0  0  0  0  0  0  0  0  0  0
   21.1073   -7.3510  -16.0175 C   0  0  0  0  0  0  0  0  0  0  0  0
   21.7453   -6.9417  -17.0491 O   0  0  0  0  0  0  0  0  0  0  0  0
   18.6279    0.0558  -19.5092 O   0  0  0  0  0  0  0  0  0  0  0  0
   18.8556   -1.2339  -19.0103 C   0  0  0  0  0  0  0  0  0  0  0  0
   17.8272   -2.1290  -18.8161 C   0  0  0  0  0  0  0  0  0  0  0  0
   18.0793   -3.3903  -18.3245 C   0  0  0  0  0  0  0  0  0  0  0  0
   19.3783   -3.8077  -18.0060 C   0  0  0  0  0  0  0  0  0  0  0  0
   19.6494   -5.1504  -17.4577 C   0  0  0  0  0  0  0  0  0  0  0  0
   20.0308   -5.0802  -16.0216 C   0  0  2  0  0  0  0  0  0  0  0  0
   20.2482   -6.3985  -15.4436 N   0  0  0  0  0  0  0  0  0  0  0  0
   19.0395   -4.3751  -15.2013 C   0  0  0  0  0  0  0  0  0  0  0  0
   18.1508   -5.0273  -14.6038 O   0  0  0  0  0  0  0  0  0  0  0  0
   20.4165   -2.9111  -18.1993 C   0  0  0  0  0  0  0  0  0  0  0  0
   20.1258   -1.6599  -18.6923 C   0  0  0  0  0  0  0  0  0  0  0  0
   18.9945   -3.0021  -15.0176 O   0  0  0  0  0  0  0  0  0  0  0  0
  2  3  1  0
  2  1  1  1
  4  3  1  0
  4  8  1  0
  5  4  2  0
  6  5  1  0
  6  7  1  0
  7  8  2  0
  9  2  1  0
 10  9  2  0
 11  9  1  0
 12 11  1  0
 12 13  1  1
 14 13  1  0
 15 24  1  0
 15 12  1  0
 16 15  2  0
 18 17  1  0
 19 18  2  0
 20 19  1  0
 21 20  2  0
 21 27  1  0
 22 21  1  0
 23 22  1  6
 23 24  1  0
 25 23  1  0
 25 29  1  0
 26 25  2  0
 27 28  2  0
 28 18  1  0
M  END
$$$$
