HCY.pdb
     RDKit          3D

 29 30  0  0  1  0  0  0  0  0999 V2000
   22.8235  -13.0054  -18.8239 N   0  0  0  0  0  0  0  0  0  0  0  0
   22.7434  -11.6106  -19.2072 C   0  0  1  0  0  0  0  0  0  0  0  0
   22.0045  -11.5321  -20.5396 C   0  0  0  0  0  0  0  0  0  0  0  0
   22.8541  -12.1504  -21.5917 C   0  0  0  0  0  0  0  0  0  0  0  0
   22.5695  -13.3032  -22.2832 C   0  0  0  0  0  0  0  0  0  0  0  0
   23.5846  -13.5575  -23.1594 N   0  0  0  0  0  0  0  0  0  0  0  0
   24.4824  -12.5775  -23.0117 C   0  0  0  0  0  0  0  0  0  0  0  0
   24.0303  -11.7204  -22.0519 N   0  0  0  0  0  0  0  0  0  0  0  0
   22.0659  -10.8547  -18.1580 C   0  0  0  0  0  0  0  0  0  0  0  0
   21.0222  -11.3285  -17.6255 O   0  0  0  0  0  0  0  0  0  0  0  0
   22.5172   -9.5833  -17.6795 N   0  0  0  0  0  0  0  0  0  0  0  0
   21.7692   -8.8823  -16.6872 C   0  0  1  0  0  0  0  0  0  0  0  0
   22.4712   -9.1572  -15.3337 C   0  0  0  0  0  0  0  0  0  0  0  0
   21.5634   -8.2095  -14.0884 S   0  0  0  0  0  0  0  0  0  0  0  0
   21.6273   -7.4386  -16.8909 C   0  0  0  0  0  0  0  0  0  0  0  0
   22.6418   -6.7290  -17.2163 O   0  0  0  0  0  0  0  0  0  0  0  0
   14.5632   -6.7940  -19.4127 O   0  0  0  0  0  0  0  0  0  0  0  0
   15.8674   -6.3461  -19.1631 C   0  0  0  0  0  0  0  0  0  0  0  0
   16.1149   -5.1455  -18.5356 C   0  0  0  0  0  0  0  0  0  0  0  0
   17.4067   -4.7296  -18.3027 C   0  0  0  0  0  0  0  0  0  0  0  0
   18.5082   -5.5035  -18.6909 C   0  0  0  0  0  0  0  0  0  0  0  0
   19.8938   -5.0506  -18.4634 C   0  0  0  0  0  0  0  0  0  0  0  0
   20.3194   -5.2994  -17.0599 C   0  0  2  0  0  0  0  0  0  0  0  0
   20.4270   -6.7198  -16.7597 N   0  0  0  0  0  0  0  0  0  0  0  0
   19.4222   -4.6866  -16.0739 C   0  0  0  0  0  0  0  0  0  0  0  0
   18.8155   -5.4123  -15.2508 O   0  0  0  0  0  0  0  0  0  0  0  0
   18.2648   -6.7122  -19.3226 C   0  0  0  0  0  0  0  0  0  0  0  0
   16.9608   -7.0944  -19.5381 C   0  0  0  0  0  0  0  0  0  0  0  0
   19.1756   -3.3273  -15.9631 O   0  0  0  0  0  0  0  0  0  0  0  0
  2  3  1  0
  2  1  1  1
  4  3  1  0
  4  8  1  0
  5  4  2  0
  6  5  1  0
  6  7  1  0
  7  8  2  0
  9  2  1  0
 10  9  2  0
 11  9  1  0
 12 11  1  0
 12 13  1  1
 14 13  1  0
 15 24  1  0
 15 12  1  0
 16 15  2  0
 18 17  1  0
 19 18  2  0
 20 19  1  0
 21 20  2  0
 21 27  1  0
 22 21  1  0
 23 22  1  6
 23 24  1  0
 25 23  1  0
 25 29  1  0
 26 25  2  0
 27 28  2  0
 28 18  1  0
M  END
$$$$
