HCY.pdb
     RDKit          3D

 29 30  0  0  1  0  0  0  0  0999 V2000
   24.5211  -12.0210  -18.1951 N   0  0  0  0  0  0  0  0  0  0  0  0
   23.4005  -11.1317  -17.9670 C   0  0  1  0  0  0  0  0  0  0  0  0
   22.3609  -11.8881  -17.1457 C   0  0  0  0  0  0  0  0  0  0  0  0
   21.7589  -12.9463  -17.9993 C   0  0  0  0  0  0  0  0  0  0  0  0
   21.6800  -14.2830  -17.6905 C   0  0  0  0  0  0  0  0  0  0  0  0
   21.0684  -14.9407  -18.7182 N   0  0  0  0  0  0  0  0  0  0  0  0
   20.7740  -14.0252  -19.6474 C   0  0  0  0  0  0  0  0  0  0  0  0
   21.1986  -12.8079  -19.2022 N   0  0  0  0  0  0  0  0  0  0  0  0
   23.8655   -9.9257  -17.2881 C   0  0  0  0  0  0  0  0  0  0  0  0
   24.6231  -10.0315  -16.2821 O   0  0  0  0  0  0  0  0  0  0  0  0
   23.5135   -8.5999  -17.6974 N   0  0  0  0  0  0  0  0  0  0  0  0
   23.9330   -7.4750  -16.9267 C   0  0  1  0  0  0  0  0  0  0  0  0
   24.9849   -6.7253  -17.7821 C   0  0  0  0  0  0  0  0  0  0  0  0
   25.5970   -5.3651  -16.7583 S   0  0  0  0  0  0  0  0  0  0  0  0
   22.8753   -6.5494  -16.5136 C   0  0  0  0  0  0  0  0  0  0  0  0
   21.9759   -6.1820  -17.3471 O   0  0  0  0  0  0  0  0  0  0  0  0
   17.8847  -10.2615  -15.1203 O   0  0  0  0  0  0  0  0  0  0  0  0
   18.6033   -9.1094  -14.7730 C   0  0  0  0  0  0  0  0  0  0  0  0
   18.1789   -7.8515  -15.1388 C   0  0  0  0  0  0  0  0  0  0  0  0
   18.9044   -6.7363  -14.7841 C   0  0  0  0  0  0  0  0  0  0  0  0
   20.0903   -6.8369  -14.0447 C   0  0  0  0  0  0  0  0  0  0  0  0
   20.8822   -5.6459  -13.6823 C   0  0  0  0  0  0  0  0  0  0  0  0
   21.6402   -5.1253  -14.8516 C   0  0  2  0  0  0  0  0  0  0  0  0
   22.7426   -5.9987  -15.2276 N   0  0  0  0  0  0  0  0  0  0  0  0
   22.1750   -3.7770  -14.6311 C   0  0  0  0  0  0  0  0  0  0  0  0
   23.3969   -3.5571  -14.8070 O   0  0  0  0  0  0  0  0  0  0  0  0
   20.5218   -8.1000  -13.6742 C   0  0  0  0  0  0  0  0  0  0  0  0
   19.7704   -9.1907  -14.0469 C   0  0  0  0  0  0  0  0  0  0  0  0
   21.4249   -2.6817  -14.2330 O   0  0  0  0  0  0  0  0  0  0  0  0
  2  3  1  0
  2  1  1  1
  4  3  1  0
  4  8  1  0
  5  4  2  0
  6  5  1  0
  6  7  1  0
  7  8  2  0
  9  2  1  0
 10  9  2  0
 11  9  1  0
 12 11  1  0
 12 13  1  6
 14 13  1  0
 15 24  1  0
 15 12  1  0
 16 15  2  0
 18 17  1  0
 19 18  2  0
 20 19  1  0
 21 20  2  0
 21 27  1  0
 22 21  1  0
 23 22  1  1
 23 24  1  0
 25 23  1  0
 25 29  1  0
 26 25  2  0
 27 28  2  0
 28 18  1  0
M  END
$$$$
