HCY.pdb
     RDKit          3D

 29 30  0  0  1  0  0  0  0  0999 V2000
   22.2074   -6.0095  -18.7097 N   0  0  0  0  0  0  0  0  0  0  0  0
   22.1550   -6.5873  -17.3823 C   0  0  1  0  0  0  0  0  0  0  0  0
   20.9666   -5.9722  -16.6496 C   0  0  0  0  0  0  0  0  0  0  0  0
   21.2858   -4.5553  -16.3311 C   0  0  0  0  0  0  0  0  0  0  0  0
   22.1129   -4.1225  -15.3228 C   0  0  0  0  0  0  0  0  0  0  0  0
   22.1549   -2.7583  -15.3377 N   0  0  0  0  0  0  0  0  0  0  0  0
   21.3661   -2.3545  -16.3392 C   0  0  0  0  0  0  0  0  0  0  0  0
   20.8377   -3.4575  -16.9428 N   0  0  0  0  0  0  0  0  0  0  0  0
   22.0444   -8.0392  -17.4865 C   0  0  0  0  0  0  0  0  0  0  0  0
   21.2434   -8.5433  -18.3242 O   0  0  0  0  0  0  0  0  0  0  0  0
   22.8026   -8.9516  -16.6852 N   0  0  0  0  0  0  0  0  0  0  0  0
   22.6351  -10.3592  -16.8461 C   0  0  1  0  0  0  0  0  0  0  0  0
   23.7319  -11.0325  -15.9834 C   0  0  0  0  0  0  0  0  0  0  0  0
   23.5456  -12.8158  -16.2253 S   0  0  0  0  0  0  0  0  0  0  0  0
   21.3197  -10.8946  -16.4866 C   0  0  0  0  0  0  0  0  0  0  0  0
   20.7167  -10.4771  -15.4374 O   0  0  0  0  0  0  0  0  0  0  0  0
   13.1108  -13.8769  -16.3324 O   0  0  0  0  0  0  0  0  0  0  0  0
   14.3670  -13.3290  -16.6252 C   0  0  0  0  0  0  0  0  0  0  0  0
   14.8773  -12.2641  -15.9168 C   0  0  0  0  0  0  0  0  0  0  0  0
   16.1149  -11.7453  -16.2257 C   0  0  0  0  0  0  0  0  0  0  0  0
   16.8949  -12.2752  -17.2619 C   0  0  0  0  0  0  0  0  0  0  0  0
   18.2114  -11.7076  -17.6104 C   0  0  0  0  0  0  0  0  0  0  0  0
   19.3010  -12.3516  -16.8290 C   0  0  2  0  0  0  0  0  0  0  0  0
   20.6182  -11.8684  -17.2174 N   0  0  0  0  0  0  0  0  0  0  0  0
   19.2956  -13.8146  -16.9402 C   0  0  0  0  0  0  0  0  0  0  0  0
   20.0543  -14.3777  -17.7644 O   0  0  0  0  0  0  0  0  0  0  0  0
   16.3862  -13.3465  -17.9778 C   0  0  0  0  0  0  0  0  0  0  0  0
   15.1461  -13.8378  -17.6402 C   0  0  0  0  0  0  0  0  0  0  0  0
   18.4999  -14.6641  -16.1877 O   0  0  0  0  0  0  0  0  0  0  0  0
  2  3  1  0
  2  1  1  6
  4  3  1  0
  4  8  1  0
  5  4  2  0
  6  5  1  0
  6  7  1  0
  7  8  2  0
  9  2  1  0
 10  9  2  0
 11  9  1  0
 12 11  1  0
 12 13  1  1
 14 13  1  0
 15 24  1  0
 15 12  1  0
 16 15  2  0
 18 17  1  0
 19 18  2  0
 20 19  1  0
 21 20  2  0
 21 27  1  0
 22 21  1  0
 23 22  1  6
 23 24  1  0
 25 23  1  0
 25 29  1  0
 26 25  2  0
 27 28  2  0
 28 18  1  0
M  END
$$$$
