RPV.pdb
     RDKit          3D

 26 26  0  0  1  0  0  0  0  0999 V2000
   16.6123  -24.0193   -5.9837 N   0  0  0  0  0  0  0  0  0  0  0  0
   17.6312  -24.9201   -6.4408 C   0  0  0  0  0  0  0  0  0  0  0  0
   18.0146  -24.8313   -7.6509 N   0  0  0  0  0  0  0  0  0  0  0  0
   18.2060  -25.8891   -5.5699 N   0  0  0  0  0  0  0  0  0  0  0  0
   17.9857  -25.8603   -4.1488 C   0  0  0  0  0  0  0  0  0  0  0  0
   18.8165  -26.8315   -3.3641 C   0  0  0  0  0  0  0  0  0  0  0  0
   18.4560  -26.7817   -1.8994 C   0  0  0  0  0  0  0  0  0  0  0  0
   19.2134  -27.7444   -1.0330 C   0  0  2  0  0  0  0  0  0  0  0  0
   18.9233  -29.0752   -1.5280 N   0  0  0  0  0  0  0  0  0  0  0  0
   18.8152  -27.6388    0.3970 C   0  0  0  0  0  0  0  0  0  0  0  0
   17.8787  -28.4210    0.7926 O   0  0  0  0  0  0  0  0  0  0  0  0
   18.7184  -25.4879   -8.0244 N   0  0  0  0  0  0  0  0  0  0  0  0
   19.4127  -26.7354    1.3108 C   0  0  0  0  0  0  0  0  0  0  0  0
   20.4202  -25.7500    1.0031 C   0  0  0  0  0  0  0  0  0  0  0  0
   20.8832  -25.1717    2.3289 C   0  0  0  0  0  0  0  0  0  0  0  0
   20.4618  -26.2729    3.3086 C   0  0  1  0  0  0  0  0  0  0  0  0
   19.1209  -26.6459    2.7090 C   0  0  0  0  0  0  0  0  0  0  0  0
   18.2252  -25.4610    2.9513 O   0  0  0  0  0  0  0  0  0  0  0  0
   18.2743  -24.4515    2.2038 C   0  0  0  0  0  0  0  0  0  0  0  0
   14.0605  -23.7444    4.8938 C   0  0  2  0  0  0  0  0  0  0  0  0
   15.0286  -24.9033    4.7918 C   0  0  0  0  0  0  0  0  0  0  0  0
   14.4060  -26.0109    4.0048 C   0  0  1  0  0  0  0  0  0  0  0  0
   16.3172  -24.3865    4.2151 N   0  0  0  0  0  0  0  0  0  0  0  0
   17.2994  -25.4312    4.0206 C   0  0  0  0  0  0  0  0  0  0  0  0
   16.8712  -23.4080    5.1706 O   0  0  0  0  0  0  0  0  0  0  0  0
   17.5421  -23.7938    6.1507 O   0  0  0  0  0  0  0  0  0  0  0  0
  2  3  2  0
  2  1  1  0
  4  2  1  0
  5  4  1  0
  6  7  1  0
  6  5  1  0
  7  8  1  0
  8  9  1  6
 10 12  1  0
 10  8  1  0
 11 10  2  0
 12 16  1  0
 13 14  1  0
 13 12  1  0
 14 15  1  0
 16 15  1  0
 16 17  1  1
 17 18  2  0
 20 19  1  1
 20 21  1  0
 20 22  1  0
 22 23  1  1
 23 17  1  0
 24 22  1  0
 25 24  2  0
 26 24  1  0
M  END
$$$$
