RPV.pdb
     RDKit          3D

 26 26  0  0  1  0  0  0  0  0999 V2000
   16.7273  -23.2889  -15.5702 N   0  0  0  0  0  0  0  0  0  0  0  0
   16.1557  -22.0362  -15.1669 C   0  0  0  0  0  0  0  0  0  0  0  0
   15.0362  -21.6964  -15.6674 N   0  0  0  0  0  0  0  0  0  0  0  0
   16.8149  -21.1905  -14.2299 N   0  0  0  0  0  0  0  0  0  0  0  0
   17.7037  -20.1397  -14.6478 C   0  0  0  0  0  0  0  0  0  0  0  0
   19.1627  -20.4687  -14.5358 C   0  0  0  0  0  0  0  0  0  0  0  0
   19.6217  -20.3813  -13.1006 C   0  0  0  0  0  0  0  0  0  0  0  0
   20.9832  -20.9550  -12.8405 C   0  0  2  0  0  0  0  0  0  0  0  0
   21.3541  -21.7121  -14.0193 N   0  0  0  0  0  0  0  0  0  0  0  0
   20.9950  -21.8420  -11.6455 C   0  0  0  0  0  0  0  0  0  0  0  0
   20.8039  -23.0929  -11.8557 O   0  0  0  0  0  0  0  0  0  0  0  0
   14.5908  -20.8064  -15.3926 N   0  0  0  0  0  0  0  0  0  0  0  0
   21.2031  -21.3725  -10.3248 C   0  0  0  0  0  0  0  0  0  0  0  0
   21.3172  -19.9938   -9.9159 C   0  0  0  0  0  0  0  0  0  0  0  0
   21.7306  -20.0056   -8.4546 C   0  0  0  0  0  0  0  0  0  0  0  0
   22.3292  -21.4100   -8.3158 C   0  0  1  0  0  0  0  0  0  0  0  0
   21.3414  -22.1909   -9.1590 C   0  0  0  0  0  0  0  0  0  0  0  0
   20.0489  -22.1743   -8.3883 O   0  0  0  0  0  0  0  0  0  0  0  0
   19.2141  -21.2482   -8.5484 C   0  0  0  0  0  0  0  0  0  0  0  0
   17.1505  -25.8849   -7.8768 C   0  0  2  0  0  0  0  0  0  0  0  0
   18.4409  -25.1555   -8.1825 C   0  0  0  0  0  0  0  0  0  0  0  0
   18.5850  -24.9865   -9.6606 C   0  0  1  0  0  0  0  0  0  0  0  0
   18.4422  -23.8648   -7.4119 N   0  0  0  0  0  0  0  0  0  0  0  0
   19.7209  -23.1890   -7.4585 C   0  0  0  0  0  0  0  0  0  0  0  0
   18.1452  -24.1877   -6.0030 O   0  0  0  0  0  0  0  0  0  0  0  0
   19.0324  -24.6642   -5.2646 O   0  0  0  0  0  0  0  0  0  0  0  0
  2  3  2  0
  2  1  1  0
  4  2  1  0
  5  4  1  0
  6  7  1  0
  6  5  1  0
  7  8  1  0
  8  9  1  6
 10 12  1  0
 10  8  1  0
 11 10  2  0
 12 16  1  0
 13 14  1  0
 13 12  1  0
 14 15  1  0
 16 15  1  0
 16 17  1  1
 17 18  2  0
 20 19  1  6
 20 21  1  0
 20 22  1  0
 22 23  1  1
 23 17  1  0
 24 22  1  0
 25 24  2  0
 26 24  1  0
M  END
$$$$
