RPV.pdb
     RDKit          3D

 26 26  0  0  1  0  0  0  0  0999 V2000
   22.0311  -28.5867  -18.7898 N   0  0  0  0  0  0  0  0  0  0  0  0
   22.6954  -27.7852  -19.7772 C   0  0  0  0  0  0  0  0  0  0  0  0
   22.8532  -28.2729  -20.9418 N   0  0  0  0  0  0  0  0  0  0  0  0
   23.1664  -26.4765  -19.4719 N   0  0  0  0  0  0  0  0  0  0  0  0
   23.0190  -25.9014  -18.1618 C   0  0  0  0  0  0  0  0  0  0  0  0
   23.8373  -26.5593  -17.0908 C   0  0  0  0  0  0  0  0  0  0  0  0
   24.5121  -25.5253  -16.2228 C   0  0  0  0  0  0  0  0  0  0  0  0
   25.5643  -24.7120  -16.9174 C   0  0  2  0  0  0  0  0  0  0  0  0
   26.6909  -25.5928  -17.1529 N   0  0  0  0  0  0  0  0  0  0  0  0
   25.9965  -23.5457  -16.1003 C   0  0  0  0  0  0  0  0  0  0  0  0
   27.0745  -23.6880  -15.4197 O   0  0  0  0  0  0  0  0  0  0  0  0
   23.3277  -27.7248  -21.6768 N   0  0  0  0  0  0  0  0  0  0  0  0
   25.2852  -22.3213  -16.0469 C   0  0  0  0  0  0  0  0  0  0  0  0
   24.0675  -22.0089  -16.7542 C   0  0  0  0  0  0  0  0  0  0  0  0
   23.8048  -20.5289  -16.5368 C   0  0  0  0  0  0  0  0  0  0  0  0
   25.2001  -20.0220  -16.1545 C   0  0  1  0  0  0  0  0  0  0  0  0
   25.6564  -21.1719  -15.2793 C   0  0  0  0  0  0  0  0  0  0  0  0
   24.7994  -21.1057  -14.0440 O   0  0  0  0  0  0  0  0  0  0  0  0
   23.5852  -21.4288  -14.0830 C   0  0  0  0  0  0  0  0  0  0  0  0
   26.9652  -21.6193  -10.6132 C   0  0  2  0  0  0  0  0  0  0  0  0
   25.7121  -20.8039  -10.3776 C   0  0  0  0  0  0  0  0  0  0  0  0
   26.0747  -19.3651  -10.1976 C   0  0  2  0  0  0  0  0  0  0  0  0
   24.7652  -21.0627  -11.5162 N   0  0  0  0  0  0  0  0  0  0  0  0
   25.3170  -20.6800  -12.7980 C   0  0  0  0  0  0  0  0  0  0  0  0
   23.5532  -20.2550  -11.2790 O   0  0  0  0  0  0  0  0  0  0  0  0
   22.7133  -20.6132  -10.4272 O   0  0  0  0  0  0  0  0  0  0  0  0
  2  3  2  0
  2  1  1  0
  4  2  1  0
  5  4  1  0
  6  7  1  0
  6  5  1  0
  7  8  1  0
  8  9  1  1
 10 12  1  0
 10  8  1  0
 11 10  2  0
 12 16  1  0
 13 14  1  0
 13 12  1  0
 14 15  1  0
 16 15  1  0
 16 17  1  1
 17 18  2  0
 20 19  1  1
 20 21  1  0
 20 22  1  0
 22 23  1  1
 23 17  1  0
 24 22  1  0
 25 24  2  0
 26 24  1  0
M  END
$$$$
