RPV.pdb
     RDKit          3D

 26 26  0  0  1  0  0  0  0  0999 V2000
   24.2580  -25.8908  -14.7797 N   0  0  0  0  0  0  0  0  0  0  0  0
   23.4349  -24.7355  -14.9951 C   0  0  0  0  0  0  0  0  0  0  0  0
   22.1837  -24.9080  -15.1491 N   0  0  0  0  0  0  0  0  0  0  0  0
   23.9941  -23.4264  -15.0342 N   0  0  0  0  0  0  0  0  0  0  0  0
   25.4003  -23.1940  -14.8406 C   0  0  0  0  0  0  0  0  0  0  0  0
   25.8689  -23.3215  -13.4216 C   0  0  0  0  0  0  0  0  0  0  0  0
   26.8400  -22.2182  -13.0782 C   0  0  0  0  0  0  0  0  0  0  0  0
   26.2439  -20.8417  -13.0543 C   0  0  2  0  0  0  0  0  0  0  0  0
   26.9172  -20.0726  -14.0816 N   0  0  0  0  0  0  0  0  0  0  0  0
   26.4192  -20.1817  -11.7320 C   0  0  0  0  0  0  0  0  0  0  0  0
   27.4142  -19.3803  -11.6165 O   0  0  0  0  0  0  0  0  0  0  0  0
   21.5571  -24.0972  -15.2756 N   0  0  0  0  0  0  0  0  0  0  0  0
   25.5557  -20.3974  -10.6293 C   0  0  0  0  0  0  0  0  0  0  0  0
   24.5350  -21.4117  -10.5288 C   0  0  0  0  0  0  0  0  0  0  0  0
   23.7519  -21.1176   -9.2612 C   0  0  0  0  0  0  0  0  0  0  0  0
   24.0766  -19.6365   -9.0359 C   0  0  1  0  0  0  0  0  0  0  0  0
   25.5435  -19.6380   -9.4164 C   0  0  0  0  0  0  0  0  0  0  0  0
   26.2411  -20.4210   -8.3370 O   0  0  0  0  0  0  0  0  0  0  0  0
   26.1727  -21.6758   -8.3034 C   0  0  0  0  0  0  0  0  0  0  0  0
   29.9614  -19.7411   -7.3497 C   0  0  2  0  0  0  0  0  0  0  0  0
   29.1199  -19.7441   -6.0918 C   0  0  0  0  0  0  0  0  0  0  0  0
   28.9171  -18.3407   -5.6191 C   0  0  2  0  0  0  0  0  0  0  0  0
   27.8454  -20.4859   -6.3838 N   0  0  0  0  0  0  0  0  0  0  0  0
   26.9955  -19.7856   -7.3226 C   0  0  0  0  0  0  0  0  0  0  0  0
   27.1091  -20.6228   -5.1123 O   0  0  0  0  0  0  0  0  0  0  0  0
   27.5846  -21.3014   -4.1781 O   0  0  0  0  0  0  0  0  0  0  0  0
  2  3  2  0
  2  1  1  0
  4  2  1  0
  5  4  1  0
  6  7  1  0
  6  5  1  0
  7  8  1  0
  8  9  1  6
 10 12  1  0
 10  8  1  0
 11 10  2  0
 12 16  1  0
 13 14  1  0
 13 12  1  0
 14 15  1  0
 16 15  1  0
 16 17  1  6
 17 18  2  0
 20 19  1  1
 20 21  1  0
 20 22  1  0
 22 23  1  1
 23 17  1  0
 24 22  1  0
 25 24  2  0
 26 24  1  0
M  END
$$$$
