RPV.pdb
     RDKit          3D

 26 26  0  0  1  0  0  0  0  0999 V2000
   31.9254  -35.3960  -22.4921 N   0  0  0  0  0  0  0  0  0  0  0  0
   30.8796  -34.7294  -21.7705 C   0  0  0  0  0  0  0  0  0  0  0  0
   30.1193  -33.9343  -22.4100 N   0  0  0  0  0  0  0  0  0  0  0  0
   30.6884  -34.9477  -20.3765 N   0  0  0  0  0  0  0  0  0  0  0  0
   31.7311  -34.6988  -19.4175 C   0  0  0  0  0  0  0  0  0  0  0  0
   31.3713  -35.0255  -17.9986 C   0  0  0  0  0  0  0  0  0  0  0  0
   32.5002  -34.6646  -17.0642 C   0  0  0  0  0  0  0  0  0  0  0  0
   32.6449  -33.1964  -16.7916 C   0  0  2  0  0  0  0  0  0  0  0  0
   33.8512  -33.0303  -16.0059 N   0  0  0  0  0  0  0  0  0  0  0  0
   31.4775  -32.6504  -16.0473 C   0  0  0  0  0  0  0  0  0  0  0  0
   31.4783  -32.8150  -14.7751 O   0  0  0  0  0  0  0  0  0  0  0  0
   29.4058  -33.3801  -21.9102 N   0  0  0  0  0  0  0  0  0  0  0  0
   30.3983  -31.9760  -16.6705 C   0  0  0  0  0  0  0  0  0  0  0  0
   30.2234  -31.7696  -18.0874 C   0  0  0  0  0  0  0  0  0  0  0  0
   29.0386  -30.8332  -18.2483 C   0  0  0  0  0  0  0  0  0  0  0  0
   28.9794  -30.1721  -16.8665 C   0  0  1  0  0  0  0  0  0  0  0  0
   29.2881  -31.3743  -15.9971 C   0  0  0  0  0  0  0  0  0  0  0  0
   28.0905  -32.2780  -16.1153 O   0  0  0  0  0  0  0  0  0  0  0  0
   27.9172  -32.9890  -17.1374 C   0  0  0  0  0  0  0  0  0  0  0  0
   24.7170  -34.8301  -13.5880 C   0  0  2  0  0  0  0  0  0  0  0  0
   25.7117  -33.6895  -13.5758 C   0  0  0  0  0  0  0  0  0  0  0  0
   26.8389  -34.0152  -12.6498 C   0  0  1  0  0  0  0  0  0  0  0  0
   26.1361  -33.4242  -14.9934 N   0  0  0  0  0  0  0  0  0  0  0  0
   27.1168  -32.3648  -15.0926 C   0  0  0  0  0  0  0  0  0  0  0  0
   24.9364  -33.0107  -15.7467 O   0  0  0  0  0  0  0  0  0  0  0  0
   24.6506  -31.8007  -15.8628 O   0  0  0  0  0  0  0  0  0  0  0  0
  2  3  2  0
  2  1  1  0
  4  2  1  0
  5  4  1  0
  6  7  1  0
  6  5  1  0
  7  8  1  0
  8  9  1  1
 10 12  1  0
 10  8  1  0
 11 10  2  0
 12 16  1  0
 13 14  1  0
 13 12  1  0
 14 15  1  0
 16 15  1  0
 16 17  1  1
 17 18  2  0
 20 19  1  1
 20 21  1  0
 20 22  1  0
 22 23  1  1
 23 17  1  0
 24 22  1  0
 25 24  2  0
 26 24  1  0
M  END
$$$$
