RPV.pdb
     RDKit          3D

 26 26  0  0  1  0  0  0  0  0999 V2000
   24.8754  -23.8137  -15.3947 N   0  0  0  0  0  0  0  0  0  0  0  0
   24.4354  -23.0041  -14.2948 C   0  0  0  0  0  0  0  0  0  0  0  0
   24.1615  -23.5811  -13.1944 N   0  0  0  0  0  0  0  0  0  0  0  0
   24.3083  -21.5915  -14.4214 N   0  0  0  0  0  0  0  0  0  0  0  0
   23.3350  -20.9904  -15.2933 C   0  0  0  0  0  0  0  0  0  0  0  0
   22.2484  -20.2299  -14.5932 C   0  0  0  0  0  0  0  0  0  0  0  0
   22.7020  -18.8278  -14.2671 C   0  0  0  0  0  0  0  0  0  0  0  0
   22.3259  -17.7930  -15.2861 C   0  0  2  0  0  0  0  0  0  0  0  0
   21.0750  -18.2210  -15.8799 N   0  0  0  0  0  0  0  0  0  0  0  0
   23.3639  -17.6486  -16.3428 C   0  0  0  0  0  0  0  0  0  0  0  0
   23.0382  -18.0265  -17.5245 O   0  0  0  0  0  0  0  0  0  0  0  0
   23.8475  -23.0293  -12.3802 N   0  0  0  0  0  0  0  0  0  0  0  0
   24.6585  -17.1255  -16.1013 C   0  0  0  0  0  0  0  0  0  0  0  0
   25.2438  -16.8546  -14.8110 C   0  0  0  0  0  0  0  0  0  0  0  0
   26.5497  -16.1237  -15.0698 C   0  0  0  0  0  0  0  0  0  0  0  0
   26.3220  -15.5790  -16.4845 C   0  0  1  0  0  0  0  0  0  0  0  0
   25.6159  -16.7686  -17.1033 C   0  0  0  0  0  0  0  0  0  0  0  0
   26.6561  -17.8518  -17.2000 O   0  0  0  0  0  0  0  0  0  0  0  0
   26.9707  -18.5360  -16.1934 C   0  0  0  0  0  0  0  0  0  0  0  0
   28.5959  -21.1249  -20.2761 C   0  0  2  0  0  0  0  0  0  0  0  0
   27.5656  -20.0804  -19.9044 C   0  0  0  0  0  0  0  0  0  0  0  0
   26.2254  -20.7257  -19.7580 C   0  0  1  0  0  0  0  0  0  0  0  0
   28.0452  -19.3694  -18.6697 N   0  0  0  0  0  0  0  0  0  0  0  0
   27.3195  -18.1436  -18.4151 C   0  0  0  0  0  0  0  0  0  0  0  0
   29.4655  -19.0270  -18.8771 O   0  0  0  0  0  0  0  0  0  0  0  0
   29.7883  -17.8871  -19.2719 O   0  0  0  0  0  0  0  0  0  0  0  0
  2  3  2  0
  2  1  1  0
  4  2  1  0
  5  4  1  0
  6  7  1  0
  6  5  1  0
  7  8  1  0
  8  9  1  6
 10 12  1  0
 10  8  1  0
 11 10  2  0
 12 16  1  0
 13 14  1  0
 13 12  1  0
 14 15  1  0
 16 15  1  0
 16 17  1  6
 17 18  2  0
 20 19  1  6
 20 21  1  0
 20 22  1  0
 22 23  1  6
 23 17  1  0
 24 22  1  0
 25 24  2  0
 26 24  1  0
M  END
$$$$
