RPV.pdb
     RDKit          3D

 26 26  0  0  1  0  0  0  0  0999 V2000
   20.5834  -24.2022  -15.5303 N   0  0  0  0  0  0  0  0  0  0  0  0
   20.2279  -22.8416  -15.2456 C   0  0  0  0  0  0  0  0  0  0  0  0
   19.1271  -22.6196  -14.6473 N   0  0  0  0  0  0  0  0  0  0  0  0
   21.0794  -21.7622  -15.6164 N   0  0  0  0  0  0  0  0  0  0  0  0
   22.4516  -21.9708  -15.9936 C   0  0  0  0  0  0  0  0  0  0  0  0
   22.9510  -23.3715  -15.7990 C   0  0  0  0  0  0  0  0  0  0  0  0
   24.3502  -23.3663  -15.2331 C   0  0  0  0  0  0  0  0  0  0  0  0
   25.3370  -22.5414  -16.0053 C   0  0  2  0  0  0  0  0  0  0  0  0
   26.0146  -23.4398  -16.9185 N   0  0  0  0  0  0  0  0  0  0  0  0
   26.3304  -21.8825  -15.1142 C   0  0  0  0  0  0  0  0  0  0  0  0
   27.3778  -22.5616  -14.8190 O   0  0  0  0  0  0  0  0  0  0  0  0
   18.7875  -21.6527  -14.5219 N   0  0  0  0  0  0  0  0  0  0  0  0
   26.1689  -20.5737  -14.5954 C   0  0  0  0  0  0  0  0  0  0  0  0
   25.0801  -19.6707  -14.8781 C   0  0  0  0  0  0  0  0  0  0  0  0
   25.4503  -18.3345  -14.2582 C   0  0  0  0  0  0  0  0  0  0  0  0
   26.9724  -18.4654  -14.1319 C   0  0  1  0  0  0  0  0  0  0  0  0
   27.0669  -19.9141  -13.6974 C   0  0  0  0  0  0  0  0  0  0  0  0
   26.4944  -19.9580  -12.3063 O   0  0  0  0  0  0  0  0  0  0  0  0
   25.2523  -20.0163  -12.1213 C   0  0  0  0  0  0  0  0  0  0  0  0
   29.5546  -21.2923   -9.9226 C   0  0  2  0  0  0  0  0  0  0  0  0
   28.3605  -20.8241   -9.1192 C   0  0  0  0  0  0  0  0  0  0  0  0
   28.6619  -19.4995   -8.4959 C   0  0  2  0  0  0  0  0  0  0  0  0
   27.1604  -20.8200  -10.0247 N   0  0  0  0  0  0  0  0  0  0  0  0
   27.3202  -19.9344  -11.1578 C   0  0  0  0  0  0  0  0  0  0  0  0
   26.0077  -20.3487   -9.2331 O   0  0  0  0  0  0  0  0  0  0  0  0
   25.5572  -19.1960   -9.3997 O   0  0  0  0  0  0  0  0  0  0  0  0
  2  3  2  0
  2  1  1  0
  4  2  1  0
  5  4  1  0
  6  7  1  0
  6  5  1  0
  7  8  1  0
  8  9  1  6
 10 12  1  0
 10  8  1  0
 11 10  2  0
 12 16  1  0
 13 14  1  0
 13 12  1  0
 14 15  1  0
 16 15  1  0
 16 17  1  1
 17 18  2  0
 20 19  1  1
 20 21  1  0
 20 22  1  0
 22 23  1  1
 23 17  1  0
 24 22  1  0
 25 24  2  0
 26 24  1  0
M  END
$$$$
