RPV.pdb
     RDKit          3D

 26 26  0  0  1  0  0  0  0  0999 V2000
   25.1762  -19.8396   -8.5433 N   0  0  0  0  0  0  0  0  0  0  0  0
   24.9476  -21.1765   -9.0116 C   0  0  0  0  0  0  0  0  0  0  0  0
   23.7705  -21.6517   -8.9248 N   0  0  0  0  0  0  0  0  0  0  0  0
   26.0033  -21.9570   -9.5631 N   0  0  0  0  0  0  0  0  0  0  0  0
   26.7733  -21.5061  -10.6912 C   0  0  0  0  0  0  0  0  0  0  0  0
   26.4247  -22.1634  -11.9934 C   0  0  0  0  0  0  0  0  0  0  0  0
   26.1775  -21.1295  -13.0647 C   0  0  0  0  0  0  0  0  0  0  0  0
   25.8365  -21.6914  -14.4133 C   0  0  2  0  0  0  0  0  0  0  0  0
   27.0004  -22.4233  -14.8718 N   0  0  0  0  0  0  0  0  0  0  0  0
   25.4933  -20.6235  -15.3913 C   0  0  0  0  0  0  0  0  0  0  0  0
   26.4575  -20.1605  -16.0995 O   0  0  0  0  0  0  0  0  0  0  0  0
   23.5832  -22.6322   -9.1886 N   0  0  0  0  0  0  0  0  0  0  0  0
   24.1825  -20.1140  -15.5653 C   0  0  0  0  0  0  0  0  0  0  0  0
   23.0247  -20.4446  -14.7711 C   0  0  0  0  0  0  0  0  0  0  0  0
   21.8285  -19.8113  -15.4600 C   0  0  0  0  0  0  0  0  0  0  0  0
   22.3604  -19.6191  -16.8847 C   0  0  1  0  0  0  0  0  0  0  0  0
   23.7758  -19.1789  -16.5695 C   0  0  0  0  0  0  0  0  0  0  0  0
   23.6469  -17.8138  -15.9493 O   0  0  0  0  0  0  0  0  0  0  0  0
   23.1309  -17.6678  -14.8123 C   0  0  0  0  0  0  0  0  0  0  0  0
   26.3645  -15.6733  -15.0206 C   0  0  2  0  0  0  0  0  0  0  0  0
   25.5507  -14.7879  -15.9395 C   0  0  0  0  0  0  0  0  0  0  0  0
   26.2271  -14.6858  -17.2685 C   0  0  2  0  0  0  0  0  0  0  0  0
   24.1526  -15.3371  -16.0004 N   0  0  0  0  0  0  0  0  0  0  0  0
   24.0946  -16.6471  -16.6125 C   0  0  0  0  0  0  0  0  0  0  0  0
   23.3467  -14.4117  -16.8200 O   0  0  0  0  0  0  0  0  0  0  0  0
   23.1041  -14.6765  -18.0160 O   0  0  0  0  0  0  0  0  0  0  0  0
  2  3  2  0
  2  1  1  0
  4  2  1  0
  5  4  1  0
  6  7  1  0
  6  5  1  0
  7  8  1  0
  8  9  1  6
 10 12  1  0
 10  8  1  0
 11 10  2  0
 12 16  1  0
 13 14  1  0
 13 12  1  0
 14 15  1  0
 16 15  1  0
 16 17  1  1
 17 18  2  0
 20 19  1  1
 20 21  1  0
 20 22  1  0
 22 23  1  1
 23 17  1  0
 24 22  1  0
 25 24  2  0
 26 24  1  0
M  END
$$$$
