RPV.pdb
     RDKit          3D

 26 26  0  0  1  0  0  0  0  0999 V2000
   16.1870  -15.2197  -16.1691 N   0  0  0  0  0  0  0  0  0  0  0  0
   16.9399  -14.4852  -15.1932 C   0  0  0  0  0  0  0  0  0  0  0  0
   17.1981  -15.0498  -14.0825 N   0  0  0  0  0  0  0  0  0  0  0  0
   17.3927  -13.1604  -15.4531 N   0  0  0  0  0  0  0  0  0  0  0  0
   18.5922  -12.8999  -16.2029 C   0  0  0  0  0  0  0  0  0  0  0  0
   18.3904  -12.0941  -17.4517 C   0  0  0  0  0  0  0  0  0  0  0  0
   17.3766  -10.9995  -17.2235 C   0  0  0  0  0  0  0  0  0  0  0  0
   17.1632  -10.0869  -18.3949 C   0  0  2  0  0  0  0  0  0  0  0  0
   17.5826  -10.8129  -19.5770 N   0  0  0  0  0  0  0  0  0  0  0  0
   17.9468   -8.8278  -18.2702 C   0  0  0  0  0  0  0  0  0  0  0  0
   18.9105   -8.6654  -19.1011 O   0  0  0  0  0  0  0  0  0  0  0  0
   17.7606  -14.5613  -13.3677 N   0  0  0  0  0  0  0  0  0  0  0  0
   17.6776   -7.8317  -17.2990 C   0  0  0  0  0  0  0  0  0  0  0  0
   16.6954   -7.9088  -16.2453 C   0  0  0  0  0  0  0  0  0  0  0  0
   16.6422   -6.5360  -15.5980 C   0  0  0  0  0  0  0  0  0  0  0  0
   17.2311   -5.6520  -16.7032 C   0  0  1  0  0  0  0  0  0  0  0  0
   18.3354   -6.5650  -17.1965 C   0  0  0  0  0  0  0  0  0  0  0  0
   19.3433   -6.6213  -16.0802 O   0  0  0  0  0  0  0  0  0  0  0  0
   19.2542   -7.4874  -15.1735 C   0  0  0  0  0  0  0  0  0  0  0  0
   24.0471   -5.8090  -15.0267 C   0  0  2  0  0  0  0  0  0  0  0  0
   22.8770   -5.6276  -15.9694 C   0  0  0  0  0  0  0  0  0  0  0  0
   23.0768   -6.4711  -17.1870 C   0  0  1  0  0  0  0  0  0  0  0  0
   21.6146   -5.9295  -15.2111 N   0  0  0  0  0  0  0  0  0  0  0  0
   20.4231   -5.7104  -16.0026 C   0  0  0  0  0  0  0  0  0  0  0  0
   21.5663   -5.0221  -14.0485 O   0  0  0  0  0  0  0  0  0  0  0  0
   20.9359   -3.9462  -14.1140 O   0  0  0  0  0  0  0  0  0  0  0  0
  2  3  2  0
  2  1  1  0
  4  2  1  0
  5  4  1  0
  6  7  1  0
  6  5  1  0
  7  8  1  0
  8  9  1  6
 10 12  1  0
 10  8  1  0
 11 10  2  0
 12 16  1  0
 13 14  1  0
 13 12  1  0
 14 15  1  0
 16 15  1  0
 16 17  1  1
 17 18  2  0
 20 19  1  6
 20 21  1  0
 20 22  1  0
 22 23  1  6
 23 17  1  0
 24 22  1  0
 25 24  2  0
 26 24  1  0
M  END
$$$$
