RPV.pdb
     RDKit          3D

 26 26  0  0  1  0  0  0  0  0999 V2000
   24.0129  -26.6018  -15.3837 N   0  0  0  0  0  0  0  0  0  0  0  0
   22.8665  -26.3017  -14.5748 C   0  0  0  0  0  0  0  0  0  0  0  0
   21.7496  -26.8181  -14.8983 N   0  0  0  0  0  0  0  0  0  0  0  0
   22.9672  -25.4518  -13.4367 N   0  0  0  0  0  0  0  0  0  0  0  0
   23.5311  -24.1313  -13.5209 C   0  0  0  0  0  0  0  0  0  0  0  0
   23.3698  -23.4627  -14.8538 C   0  0  0  0  0  0  0  0  0  0  0  0
   23.9699  -22.0781  -14.8333 C   0  0  0  0  0  0  0  0  0  0  0  0
   24.1343  -21.4848  -13.4652 C   0  0  2  0  0  0  0  0  0  0  0  0
   22.8974  -21.7264  -12.7495 N   0  0  0  0  0  0  0  0  0  0  0  0
   24.4089  -20.0232  -13.5211 C   0  0  0  0  0  0  0  0  0  0  0  0
   23.4677  -19.2456  -13.1277 O   0  0  0  0  0  0  0  0  0  0  0  0
   20.9046  -26.6273  -14.3366 N   0  0  0  0  0  0  0  0  0  0  0  0
   25.6328  -19.4741  -13.9779 C   0  0  0  0  0  0  0  0  0  0  0  0
   26.8205  -20.2116  -14.3334 C   0  0  0  0  0  0  0  0  0  0  0  0
   27.9168  -19.1865  -14.5651 C   0  0  0  0  0  0  0  0  0  0  0  0
   27.3733  -17.9763  -13.7971 C   0  0  1  0  0  0  0  0  0  0  0  0
   25.9066  -18.0818  -14.1632 C   0  0  0  0  0  0  0  0  0  0  0  0
   25.8307  -17.7549  -15.6302 O   0  0  0  0  0  0  0  0  0  0  0  0
   26.1461  -18.6077  -16.4984 C   0  0  0  0  0  0  0  0  0  0  0  0
   22.6257  -15.9803  -15.5388 C   0  0  1  0  0  0  0  0  0  0  0  0
   23.0605  -16.7552  -16.7640 C   0  0  0  0  0  0  0  0  0  0  0  0
   22.0390  -16.6024  -17.8444 C   0  0  1  0  0  0  0  0  0  0  0  0
   24.4373  -16.2892  -17.1476 N   0  0  0  0  0  0  0  0  0  0  0  0
   25.4069  -16.4865  -16.0917 C   0  0  0  0  0  0  0  0  0  0  0  0
   24.3546  -14.8432  -17.4302 O   0  0  0  0  0  0  0  0  0  0  0  0
   24.3812  -14.0154  -16.4956 O   0  0  0  0  0  0  0  0  0  0  0  0
  2  3  2  0
  2  1  1  0
  4  2  1  0
  5  4  1  0
  6  7  1  0
  6  5  1  0
  7  8  1  0
  8  9  1  1
 10 12  1  0
 10  8  1  0
 11 10  2  0
 12 16  1  0
 13 14  1  0
 13 12  1  0
 14 15  1  0
 16 15  1  0
 16 17  1  6
 17 18  2  0
 20 19  1  1
 20 21  1  0
 20 22  1  0
 22 23  1  1
 23 17  1  0
 24 22  1  0
 25 24  2  0
 26 24  1  0
M  END
$$$$
