IFQ.pdb
     RDKit          3D

 29 29  0  0  1  0  0  0  0  0999 V2000
   29.0894  -17.4122  -16.6210 C   0  0  0  0  0  0  0  0  0  0  0  0
   29.2563  -18.6881  -15.8326 C   0  0  0  0  0  0  0  0  0  0  0  0
   27.9695  -19.1198  -15.1798 C   0  0  2  0  0  0  0  0  0  0  0  0
   27.5227  -18.1526  -14.1138 C   0  0  0  0  0  0  0  0  0  0  0  0
   28.2317  -20.4812  -14.5461 C   0  0  2  0  0  0  0  0  0  0  0  0
   28.7592  -21.4271  -15.4803 N   0  0  0  0  0  0  0  0  0  0  0  0
   27.0597  -21.0243  -13.8390 C   0  0  0  0  0  0  0  0  0  0  0  0
   26.1133  -21.5138  -14.5054 O   0  0  0  0  0  0  0  0  0  0  0  0
   26.9265  -21.0284  -12.4130 N   0  0  0  0  0  0  0  0  0  0  0  0
   25.7082  -21.6113  -11.8205 C   0  0  1  0  0  0  0  0  0  0  0  0
   26.1045  -22.1596  -10.4933 C   0  0  0  0  0  0  0  0  0  0  0  0
   26.7190  -21.1870   -9.5717 C   0  0  0  0  0  0  0  0  0  0  0  0
   25.9183  -20.3299   -8.8531 C   0  0  0  0  0  0  0  0  0  0  0  0
   26.4044  -19.3819   -7.9714 C   0  0  0  0  0  0  0  0  0  0  0  0
   27.7835  -19.2719   -7.7853 C   0  0  0  0  0  0  0  0  0  0  0  0
   28.5942  -20.1266   -8.4987 C   0  0  0  0  0  0  0  0  0  0  0  0
   28.0789  -21.0588   -9.3697 C   0  0  0  0  0  0  0  0  0  0  0  0
   24.7249  -20.5123  -11.5936 C   0  0  0  0  0  0  0  0  0  0  0  0
   25.1702  -19.3757  -11.3556 O   0  0  0  0  0  0  0  0  0  0  0  0
   21.6129  -17.9052  -15.4822 N   0  0  0  0  0  0  0  0  0  0  0  0
   21.8021  -19.2764  -15.8303 C   0  0  0  0  0  0  0  0  0  0  0  0
   21.5739  -19.7536  -16.9333 O   0  0  0  0  0  0  0  0  0  0  0  0
   22.3218  -20.1582  -14.7154 C   0  0  0  0  0  0  0  0  0  0  0  0
   22.5345  -19.2762  -13.5032 C   0  0  0  0  0  0  0  0  0  0  0  0
   22.3323  -19.9200  -12.1874 C   0  0  2  0  0  0  0  0  0  0  0  0
   23.3544  -20.7325  -11.6393 N   0  0  0  0  0  0  0  0  0  0  0  0
   20.9685  -20.5585  -12.1681 C   0  0  0  0  0  0  0  0  0  0  0  0
   20.8883  -21.7750  -12.0424 O   0  0  0  0  0  0  0  0  0  0  0  0
   19.8827  -19.7057  -12.3003 O   0  0  0  0  0  0  0  0  0  0  0  0
  2  1  1  0
  3  2  1  0
  3  4  1  1
  5  3  1  0
  5  6  1  6
  7  5  1  0
  7  8  2  0
  9  7  1  0
 10  9  1  0
 11 12  1  0
 10 11  1  1
 12 13  2  0
 13 14  1  0
 15 14  2  0
 16 15  1  0
 17 12  1  0
 17 16  2  0
 18 10  1  0
 19 18  2  0
 20 21  1  0
 21 22  2  0
 21 23  1  0
 23 24  1  0
 25 24  1  6
 25 26  1  0
 25 27  1  0
 26 18  1  0
 27 29  1  0
 28 27  2  0
M  END
$$$$
