IFQ.pdb
     RDKit          3D

 29 29  0  0  1  0  0  0  0  0999 V2000
   28.9352  -19.2442  -16.1151 C   0  0  0  0  0  0  0  0  0  0  0  0
   29.1492  -19.9935  -14.8228 C   0  0  0  0  0  0  0  0  0  0  0  0
   27.8984  -20.0421  -13.9854 C   0  0  2  0  0  0  0  0  0  0  0  0
   27.4422  -18.6676  -13.5681 C   0  0  0  0  0  0  0  0  0  0  0  0
   28.2309  -20.8606  -12.7432 C   0  0  2  0  0  0  0  0  0  0  0  0
   28.6987  -22.1740  -13.0624 N   0  0  0  0  0  0  0  0  0  0  0  0
   27.1265  -20.9080  -11.7702 C   0  0  0  0  0  0  0  0  0  0  0  0
   26.2107  -21.7552  -11.9219 O   0  0  0  0  0  0  0  0  0  0  0  0
   27.0268  -20.0318  -10.6416 N   0  0  0  0  0  0  0  0  0  0  0  0
   25.8057  -20.0817   -9.8162 C   0  0  1  0  0  0  0  0  0  0  0  0
   25.9853  -19.0732   -8.7347 C   0  0  0  0  0  0  0  0  0  0  0  0
   26.7212  -19.5496   -7.5496 C   0  0  0  0  0  0  0  0  0  0  0  0
   27.6670  -18.7402   -6.9645 C   0  0  0  0  0  0  0  0  0  0  0  0
   28.4101  -19.1038   -5.8562 C   0  0  0  0  0  0  0  0  0  0  0  0
   28.2040  -20.3599   -5.2831 C   0  0  0  0  0  0  0  0  0  0  0  0
   27.2579  -21.1776   -5.8602 C   0  0  0  0  0  0  0  0  0  0  0  0
   26.5356  -20.7863   -6.9640 C   0  0  0  0  0  0  0  0  0  0  0  0
   24.6513  -19.6561  -10.6603 C   0  0  0  0  0  0  0  0  0  0  0  0
   24.8954  -19.0017  -11.6894 O   0  0  0  0  0  0  0  0  0  0  0  0
   22.1530  -23.9329  -13.2413 N   0  0  0  0  0  0  0  0  0  0  0  0
   21.5281  -22.8278  -13.8936 C   0  0  0  0  0  0  0  0  0  0  0  0
   20.6614  -22.9240  -14.7515 O   0  0  0  0  0  0  0  0  0  0  0  0
   22.0127  -21.4628  -13.4550 C   0  0  0  0  0  0  0  0  0  0  0  0
   22.5316  -21.6006  -12.0392 C   0  0  0  0  0  0  0  0  0  0  0  0
   22.2919  -20.4483  -11.1440 C   0  0  2  0  0  0  0  0  0  0  0  0
   23.3407  -19.9680  -10.3226 N   0  0  0  0  0  0  0  0  0  0  0  0
   20.9950  -20.6693  -10.4113 C   0  0  0  0  0  0  0  0  0  0  0  0
   21.0064  -21.3257   -9.3763 O   0  0  0  0  0  0  0  0  0  0  0  0
   19.8603  -20.1054  -10.9753 O   0  0  0  0  0  0  0  0  0  0  0  0
  2  1  1  0
  3  2  1  0
  3  4  1  1
  5  3  1  0
  5  6  1  6
  7  5  1  0
  7  8  2  0
  9  7  1  0
 10  9  1  0
 11 12  1  0
 10 11  1  1
 12 13  2  0
 13 14  1  0
 15 14  2  0
 16 15  1  0
 17 12  1  0
 17 16  2  0
 18 10  1  0
 19 18  2  0
 20 21  1  0
 21 22  2  0
 21 23  1  0
 23 24  1  0
 25 24  1  1
 25 26  1  0
 25 27  1  0
 26 18  1  0
 27 29  1  0
 28 27  2  0
M  END
$$$$
