IFQ.pdb
     RDKit          3D

 29 29  0  0  1  0  0  0  0  0999 V2000
   27.8144  -19.3149  -17.0686 C   0  0  0  0  0  0  0  0  0  0  0  0
   26.7933  -20.4128  -16.8973 C   0  0  0  0  0  0  0  0  0  0  0  0
   26.3095  -20.5158  -15.4748 C   0  0  2  0  0  0  0  0  0  0  0  0
   26.0964  -19.1611  -14.8493 C   0  0  0  0  0  0  0  0  0  0  0  0
   27.3844  -21.2658  -14.6966 C   0  0  2  0  0  0  0  0  0  0  0  0
   27.6627  -22.5544  -15.2513 N   0  0  0  0  0  0  0  0  0  0  0  0
   27.0977  -21.3546  -13.2549 C   0  0  0  0  0  0  0  0  0  0  0  0
   26.2203  -22.1593  -12.8520 O   0  0  0  0  0  0  0  0  0  0  0  0
   27.7663  -20.5658  -12.2640 N   0  0  0  0  0  0  0  0  0  0  0  0
   27.3420  -20.6932  -10.8573 C   0  0  1  0  0  0  0  0  0  0  0  0
   28.3828  -20.0109  -10.0386 C   0  0  0  0  0  0  0  0  0  0  0  0
   28.0500  -19.8469   -8.6120 C   0  0  0  0  0  0  0  0  0  0  0  0
   28.5815  -20.7130   -7.6849 C   0  0  0  0  0  0  0  0  0  0  0  0
   28.3213  -20.6410   -6.3285 C   0  0  0  0  0  0  0  0  0  0  0  0
   27.4735  -19.6396   -5.8521 C   0  0  0  0  0  0  0  0  0  0  0  0
   26.9374  -18.7659   -6.7720 C   0  0  0  0  0  0  0  0  0  0  0  0
   27.2153  -18.8652   -8.1159 C   0  0  0  0  0  0  0  0  0  0  0  0
   26.0579  -19.9531  -10.6859 C   0  0  0  0  0  0  0  0  0  0  0  0
   25.9536  -18.8391  -11.2289 O   0  0  0  0  0  0  0  0  0  0  0  0
   22.4493  -18.7740  -14.2913 N   0  0  0  0  0  0  0  0  0  0  0  0
   22.2982  -19.9912  -13.5612 C   0  0  0  0  0  0  0  0  0  0  0  0
   22.3504  -21.1101  -14.0529 O   0  0  0  0  0  0  0  0  0  0  0  0
   22.0559  -19.8259  -12.0764 C   0  0  0  0  0  0  0  0  0  0  0  0
   22.9642  -20.8019  -11.3587 C   0  0  0  0  0  0  0  0  0  0  0  0
   23.6100  -20.3027  -10.1257 C   0  0  2  0  0  0  0  0  0  0  0  0
   25.0042  -20.4731   -9.9455 N   0  0  0  0  0  0  0  0  0  0  0  0
   22.7843  -20.7322   -8.9418 C   0  0  0  0  0  0  0  0  0  0  0  0
   21.5734  -20.5443   -8.9677 O   0  0  0  0  0  0  0  0  0  0  0  0
   23.4696  -21.3170   -7.8873 O   0  0  0  0  0  0  0  0  0  0  0  0
  2  1  1  0
  3  2  1  0
  3  4  1  1
  5  3  1  0
  5  6  1  6
  7  5  1  0
  7  8  2  0
  9  7  1  0
 10  9  1  0
 11 12  1  0
 10 11  1  1
 12 13  2  0
 13 14  1  0
 15 14  2  0
 16 15  1  0
 17 12  1  0
 17 16  2  0
 18 10  1  0
 19 18  2  0
 20 21  1  0
 21 22  2  0
 21 23  1  0
 23 24  1  0
 25 24  1  6
 25 26  1  0
 25 27  1  0
 26 18  1  0
 27 29  1  0
 28 27  2  0
M  END
$$$$
