IFQ.pdb
     RDKit          3D

 29 29  0  0  1  0  0  0  0  0999 V2000
   26.0601  -17.8410  -21.2329 C   0  0  0  0  0  0  0  0  0  0  0  0
   27.1276  -17.9350  -20.1703 C   0  0  0  0  0  0  0  0  0  0  0  0
   26.7280  -18.8585  -19.0498 C   0  0  2  0  0  0  0  0  0  0  0  0
   25.4256  -18.4463  -18.4130 C   0  0  0  0  0  0  0  0  0  0  0  0
   27.8395  -18.7953  -18.0086 C   0  0  2  0  0  0  0  0  0  0  0  0
   29.1134  -19.1625  -18.5452 N   0  0  0  0  0  0  0  0  0  0  0  0
   27.5322  -19.5607  -16.7886 C   0  0  0  0  0  0  0  0  0  0  0  0
   27.5669  -20.8164  -16.8268 O   0  0  0  0  0  0  0  0  0  0  0  0
   27.1877  -18.9535  -15.5381 N   0  0  0  0  0  0  0  0  0  0  0  0
   26.8344  -19.8273  -14.4038 C   0  0  1  0  0  0  0  0  0  0  0  0
   27.1042  -19.0431  -13.1663 C   0  0  0  0  0  0  0  0  0  0  0  0
   26.7488  -19.7196  -11.9058 C   0  0  0  0  0  0  0  0  0  0  0  0
   27.5861  -20.6810  -11.3893 C   0  0  0  0  0  0  0  0  0  0  0  0
   27.3327  -21.3720  -10.2185 C   0  0  0  0  0  0  0  0  0  0  0  0
   26.1661  -21.0931   -9.5045 C   0  0  0  0  0  0  0  0  0  0  0  0
   25.3216  -20.1308  -10.0121 C   0  0  0  0  0  0  0  0  0  0  0  0
   25.6021  -19.4616  -11.1811 C   0  0  0  0  0  0  0  0  0  0  0  0
   25.3702  -20.1072  -14.4656 C   0  0  0  0  0  0  0  0  0  0  0  0
   24.6107  -19.1634  -14.7471 O   0  0  0  0  0  0  0  0  0  0  0  0
   22.8856  -25.7614  -14.8055 N   0  0  0  0  0  0  0  0  0  0  0  0
   21.6328  -25.0839  -14.7123 C   0  0  0  0  0  0  0  0  0  0  0  0
   20.5395  -25.6223  -14.8182 O   0  0  0  0  0  0  0  0  0  0  0  0
   21.7233  -23.5932  -14.4664 C   0  0  0  0  0  0  0  0  0  0  0  0
   23.1924  -23.2383  -14.3757 C   0  0  0  0  0  0  0  0  0  0  0  0
   23.5049  -21.8038  -14.1996 C   0  0  2  0  0  0  0  0  0  0  0  0
   24.8536  -21.3722  -14.2171 N   0  0  0  0  0  0  0  0  0  0  0  0
   22.7105  -21.2774  -13.0336 C   0  0  0  0  0  0  0  0  0  0  0  0
   21.5060  -21.0986  -13.1730 O   0  0  0  0  0  0  0  0  0  0  0  0
   23.4155  -21.0254  -11.8661 O   0  0  0  0  0  0  0  0  0  0  0  0
  2  1  1  0
  3  2  1  0
  3  4  1  1
  5  3  1  0
  5  6  1  6
  7  5  1  0
  7  8  2  0
  9  7  1  0
 10  9  1  0
 11 12  1  0
 10 11  1  1
 12 13  2  0
 13 14  1  0
 15 14  2  0
 16 15  1  0
 17 12  1  0
 17 16  2  0
 18 10  1  0
 19 18  2  0
 20 21  1  0
 21 22  2  0
 21 23  1  0
 23 24  1  0
 25 24  1  1
 25 26  1  0
 25 27  1  0
 26 18  1  0
 27 29  1  0
 28 27  2  0
M  END
$$$$
