IFQ.pdb
     RDKit          3D

 29 29  0  0  1  0  0  0  0  0999 V2000
   26.0144  -27.1091  -22.8058 C   0  0  0  0  0  0  0  0  0  0  0  0
   26.6746  -26.1849  -21.8121 C   0  0  0  0  0  0  0  0  0  0  0  0
   27.8494  -26.8360  -21.1309 C   0  0  2  0  0  0  0  0  0  0  0  0
   28.5725  -27.7948  -22.0417 C   0  0  0  0  0  0  0  0  0  0  0  0
   27.2968  -27.5997  -19.9329 C   0  0  2  0  0  0  0  0  0  0  0  0
   26.4036  -26.8085  -19.1443 N   0  0  0  0  0  0  0  0  0  0  0  0
   28.3485  -28.2086  -19.1011 C   0  0  0  0  0  0  0  0  0  0  0  0
   29.3926  -28.6409  -19.6511 O   0  0  0  0  0  0  0  0  0  0  0  0
   28.2544  -28.3437  -17.6784 N   0  0  0  0  0  0  0  0  0  0  0  0
   29.4190  -28.8690  -16.9416 C   0  0  1  0  0  0  0  0  0  0  0  0
   29.7037  -27.8947  -15.8514 C   0  0  0  0  0  0  0  0  0  0  0  0
   30.2905  -26.6160  -16.2911 C   0  0  0  0  0  0  0  0  0  0  0  0
   31.6533  -26.4375  -16.2362 C   0  0  0  0  0  0  0  0  0  0  0  0
   32.2917  -25.2724  -16.6205 C   0  0  0  0  0  0  0  0  0  0  0  0
   31.5279  -24.2043  -17.0940 C   0  0  0  0  0  0  0  0  0  0  0  0
   30.1624  -24.3732  -17.1547 C   0  0  0  0  0  0  0  0  0  0  0  0
   29.5574  -25.5454  -16.7635 C   0  0  0  0  0  0  0  0  0  0  0  0
   29.0313  -30.1663  -16.3150 C   0  0  0  0  0  0  0  0  0  0  0  0
   27.8189  -30.4303  -16.2304 O   0  0  0  0  0  0  0  0  0  0  0  0
   31.5468  -34.2132  -18.8489 N   0  0  0  0  0  0  0  0  0  0  0  0
   30.7038  -35.1741  -18.2139 C   0  0  0  0  0  0  0  0  0  0  0  0
   30.7853  -36.3846  -18.3703 O   0  0  0  0  0  0  0  0  0  0  0  0
   29.6495  -34.5978  -17.2935 C   0  0  0  0  0  0  0  0  0  0  0  0
   29.8291  -33.0944  -17.2857 C   0  0  0  0  0  0  0  0  0  0  0  0
   30.0282  -32.4703  -15.9599 C   0  0  2  0  0  0  0  0  0  0  0  0
   29.9783  -31.0608  -15.8333 N   0  0  0  0  0  0  0  0  0  0  0  0
   31.2304  -33.0998  -15.3070 C   0  0  0  0  0  0  0  0  0  0  0  0
   31.1061  -34.1969  -14.7749 O   0  0  0  0  0  0  0  0  0  0  0  0
   32.4121  -32.3753  -15.3541 O   0  0  0  0  0  0  0  0  0  0  0  0
  2  1  1  0
  3  2  1  0
  3  4  1  6
  5  3  1  0
  5  6  1  1
  7  5  1  0
  7  8  2  0
  9  7  1  0
 10  9  1  0
 11 12  1  0
 10 11  1  1
 12 13  2  0
 13 14  1  0
 15 14  2  0
 16 15  1  0
 17 12  1  0
 17 16  2  0
 18 10  1  0
 19 18  2  0
 20 21  1  0
 21 22  2  0
 21 23  1  0
 23 24  1  0
 25 24  1  6
 25 26  1  0
 25 27  1  0
 26 18  1  0
 27 29  1  0
 28 27  2  0
M  END
$$$$
