IFQ.pdb
     RDKit          3D

 29 29  0  0  1  0  0  0  0  0999 V2000
   27.7146  -17.2083  -18.1232 C   0  0  0  0  0  0  0  0  0  0  0  0
   28.0545  -17.4351  -16.6704 C   0  0  0  0  0  0  0  0  0  0  0  0
   27.2312  -18.5413  -16.0649 C   0  0  2  0  0  0  0  0  0  0  0  0
   25.7525  -18.3076  -16.2390 C   0  0  0  0  0  0  0  0  0  0  0  0
   27.5637  -18.5749  -14.5776 C   0  0  2  0  0  0  0  0  0  0  0  0
   28.9680  -18.6933  -14.3333 N   0  0  0  0  0  0  0  0  0  0  0  0
   26.8041  -19.5976  -13.8390 C   0  0  0  0  0  0  0  0  0  0  0  0
   26.0569  -20.3844  -14.4732 O   0  0  0  0  0  0  0  0  0  0  0  0
   26.8622  -19.7545  -12.4166 N   0  0  0  0  0  0  0  0  0  0  0  0
   26.0040  -20.7735  -11.7840 C   0  0  1  0  0  0  0  0  0  0  0  0
   26.4534  -20.8844  -10.3681 C   0  0  0  0  0  0  0  0  0  0  0  0
   27.9038  -21.0718  -10.1839 C   0  0  0  0  0  0  0  0  0  0  0  0
   28.6948  -21.3725  -11.2683 C   0  0  0  0  0  0  0  0  0  0  0  0
   30.0612  -21.5718  -11.1910 C   0  0  0  0  0  0  0  0  0  0  0  0
   30.6935  -21.4663   -9.9510 C   0  0  0  0  0  0  0  0  0  0  0  0
   29.9109  -21.1637   -8.8589 C   0  0  0  0  0  0  0  0  0  0  0  0
   28.5528  -20.9724   -8.9691 C   0  0  0  0  0  0  0  0  0  0  0  0
   24.5992  -20.2709  -11.7869 C   0  0  0  0  0  0  0  0  0  0  0  0
   24.4132  -19.0673  -11.5346 O   0  0  0  0  0  0  0  0  0  0  0  0
   20.8574  -18.0616  -15.0388 N   0  0  0  0  0  0  0  0  0  0  0  0
   21.6333  -19.0569  -15.7055 C   0  0  0  0  0  0  0  0  0  0  0  0
   21.8212  -19.1011  -16.9134 O   0  0  0  0  0  0  0  0  0  0  0  0
   22.2418  -20.1098  -14.8045 C   0  0  0  0  0  0  0  0  0  0  0  0
   21.8888  -19.7434  -13.3784 C   0  0  0  0  0  0  0  0  0  0  0  0
   22.1785  -20.7687  -12.3531 C   0  0  2  0  0  0  0  0  0  0  0  0
   23.5219  -21.1048  -12.0568 N   0  0  0  0  0  0  0  0  0  0  0  0
   21.2911  -21.9603  -12.5993 C   0  0  0  0  0  0  0  0  0  0  0  0
   20.0760  -21.8153  -12.5304 O   0  0  0  0  0  0  0  0  0  0  0  0
   21.9276  -23.1583  -12.8882 O   0  0  0  0  0  0  0  0  0  0  0  0
  2  1  1  0
  3  2  1  0
  3  4  1  1
  5  3  1  0
  5  6  1  6
  7  5  1  0
  7  8  2  0
  9  7  1  0
 10  9  1  0
 11 12  1  0
 10 11  1  1
 12 13  2  0
 13 14  1  0
 15 14  2  0
 16 15  1  0
 17 12  1  0
 17 16  2  0
 18 10  1  0
 19 18  2  0
 20 21  1  0
 21 22  2  0
 21 23  1  0
 23 24  1  0
 25 24  1  6
 25 26  1  0
 25 27  1  0
 26 18  1  0
 27 29  1  0
 28 27  2  0
M  END
$$$$
