IFQ.pdb
     RDKit          3D

 29 29  0  0  1  0  0  0  0  0999 V2000
   29.5087  -22.0852  -14.3823 C   0  0  0  0  0  0  0  0  0  0  0  0
   28.6080  -21.2184  -13.5368 C   0  0  0  0  0  0  0  0  0  0  0  0
   27.1520  -21.4490  -13.8450 C   0  0  2  0  0  0  0  0  0  0  0  0
   26.8055  -21.0684  -15.2615 C   0  0  0  0  0  0  0  0  0  0  0  0
   26.3540  -20.5790  -12.8807 C   0  0  2  0  0  0  0  0  0  0  0  0
   26.5840  -19.1823  -13.0856 N   0  0  0  0  0  0  0  0  0  0  0  0
   26.5494  -20.9520  -11.4696 C   0  0  0  0  0  0  0  0  0  0  0  0
   26.2203  -22.1033  -11.0878 O   0  0  0  0  0  0  0  0  0  0  0  0
   27.0991  -20.0687  -10.4854 N   0  0  0  0  0  0  0  0  0  0  0  0
   27.0166  -20.4569   -9.0650 C   0  0  1  0  0  0  0  0  0  0  0  0
   28.0202  -19.6275   -8.3413 C   0  0  0  0  0  0  0  0  0  0  0  0
   28.0655  -19.8302   -6.8819 C   0  0  0  0  0  0  0  0  0  0  0  0
   28.7115  -20.9300   -6.3669 C   0  0  0  0  0  0  0  0  0  0  0  0
   28.7999  -21.2059   -5.0147 C   0  0  0  0  0  0  0  0  0  0  0  0
   28.2063  -20.3311   -4.1031 C   0  0  0  0  0  0  0  0  0  0  0  0
   27.5584  -19.2257   -4.6082 C   0  0  0  0  0  0  0  0  0  0  0  0
   27.4873  -18.9801   -5.9602 C   0  0  0  0  0  0  0  0  0  0  0  0
   25.6615  -20.0933   -8.5574 C   0  0  0  0  0  0  0  0  0  0  0  0
   25.2920  -18.9125   -8.6846 O   0  0  0  0  0  0  0  0  0  0  0  0
   20.4008  -21.3095   -9.8075 N   0  0  0  0  0  0  0  0  0  0  0  0
   21.5380  -21.0383  -10.6264 C   0  0  0  0  0  0  0  0  0  0  0  0
   21.5672  -21.1647  -11.8428 O   0  0  0  0  0  0  0  0  0  0  0  0
   22.7690  -20.5658   -9.8834 C   0  0  0  0  0  0  0  0  0  0  0  0
   22.4185  -20.5198   -8.4111 C   0  0  0  0  0  0  0  0  0  0  0  0
   23.5059  -20.8714   -7.4727 C   0  0  2  0  0  0  0  0  0  0  0  0
   24.8275  -21.0275   -7.9571 N   0  0  0  0  0  0  0  0  0  0  0  0
   23.0389  -22.0038   -6.5968 C   0  0  0  0  0  0  0  0  0  0  0  0
   21.9350  -21.9256   -6.0699 O   0  0  0  0  0  0  0  0  0  0  0  0
   23.9114  -23.0712   -6.4454 O   0  0  0  0  0  0  0  0  0  0  0  0
  2  1  1  0
  3  2  1  0
  3  4  1  6
  5  3  1  0
  5  6  1  1
  7  5  1  0
  7  8  2  0
  9  7  1  0
 10  9  1  0
 11 12  1  0
 10 11  1  1
 12 13  2  0
 13 14  1  0
 15 14  2  0
 16 15  1  0
 17 12  1  0
 17 16  2  0
 18 10  1  0
 19 18  2  0
 20 21  1  0
 21 22  2  0
 21 23  1  0
 23 24  1  0
 25 24  1  6
 25 26  1  0
 25 27  1  0
 26 18  1  0
 27 29  1  0
 28 27  2  0
M  END
$$$$
