IFQ.pdb
     RDKit          3D

 29 29  0  0  1  0  0  0  0  0999 V2000
   22.8637  -12.7468  -20.7317 C   0  0  0  0  0  0  0  0  0  0  0  0
   22.7664  -11.2416  -20.7775 C   0  0  0  0  0  0  0  0  0  0  0  0
   22.6567  -10.6416  -19.4004 C   0  0  2  0  0  0  0  0  0  0  0  0
   21.4421  -11.1402  -18.6602 C   0  0  0  0  0  0  0  0  0  0  0  0
   22.5493   -9.1322  -19.5843 C   0  0  2  0  0  0  0  0  0  0  0  0
   23.5920   -8.6061  -20.4100 N   0  0  0  0  0  0  0  0  0  0  0  0
   22.4555   -8.4004  -18.3099 C   0  0  0  0  0  0  0  0  0  0  0  0
   21.5920   -8.7473  -17.4651 O   0  0  0  0  0  0  0  0  0  0  0  0
   23.3003   -7.2962  -17.9662 N   0  0  0  0  0  0  0  0  0  0  0  0
   23.0771   -6.6116  -16.6792 C   0  0  1  0  0  0  0  0  0  0  0  0
   24.4022   -6.5420  -16.0022 C   0  0  0  0  0  0  0  0  0  0  0  0
   25.0080   -7.8453  -15.6751 C   0  0  0  0  0  0  0  0  0  0  0  0
   24.4522   -8.6263  -14.6886 C   0  0  0  0  0  0  0  0  0  0  0  0
   24.9542   -9.8578  -14.3093 C   0  0  0  0  0  0  0  0  0  0  0  0
   26.0893  -10.3553  -14.9518 C   0  0  0  0  0  0  0  0  0  0  0  0
   26.6527   -9.5820  -15.9424 C   0  0  0  0  0  0  0  0  0  0  0  0
   26.1293   -8.3595  -16.2957 C   0  0  0  0  0  0  0  0  0  0  0  0
   22.6265   -5.2175  -16.9614 C   0  0  0  0  0  0  0  0  0  0  0  0
   23.2466   -4.5710  -17.8241 O   0  0  0  0  0  0  0  0  0  0  0  0
   20.8921   -2.5948  -20.3135 N   0  0  0  0  0  0  0  0  0  0  0  0
   19.7747   -1.8917  -19.7708 C   0  0  0  0  0  0  0  0  0  0  0  0
   19.2263   -0.9368  -20.3036 O   0  0  0  0  0  0  0  0  0  0  0  0
   19.2756   -2.4060  -18.4378 C   0  0  0  0  0  0  0  0  0  0  0  0
   20.1293   -3.5998  -18.0654 C   0  0  0  0  0  0  0  0  0  0  0  0
   20.6988   -3.5914  -16.7008 C   0  0  2  0  0  0  0  0  0  0  0  0
   21.5545   -4.6428  -16.2911 N   0  0  0  0  0  0  0  0  0  0  0  0
   19.5971   -3.2840  -15.7211 C   0  0  0  0  0  0  0  0  0  0  0  0
   19.0332   -4.2141  -15.1564 O   0  0  0  0  0  0  0  0  0  0  0  0
   19.2939   -1.9442  -15.5294 O   0  0  0  0  0  0  0  0  0  0  0  0
  2  1  1  0
  3  2  1  0
  3  4  1  6
  5  3  1  0
  5  6  1  1
  7  5  1  0
  7  8  2  0
  9  7  1  0
 10  9  1  0
 11 12  1  0
 10 11  1  1
 12 13  2  0
 13 14  1  0
 15 14  2  0
 16 15  1  0
 17 12  1  0
 17 16  2  0
 18 10  1  0
 19 18  2  0
 20 21  1  0
 21 22  2  0
 21 23  1  0
 23 24  1  0
 25 24  1  6
 25 26  1  0
 25 27  1  0
 26 18  1  0
 27 29  1  0
 28 27  2  0
M  END
$$$$
