IFQ.pdb
     RDKit          3D

 29 29  0  0  1  0  0  0  0  0999 V2000
   20.2720  -31.0882  -16.9620 C   0  0  0  0  0  0  0  0  0  0  0  0
   21.2537  -31.0743  -15.8158 C   0  0  0  0  0  0  0  0  0  0  0  0
   21.1344  -29.8228  -14.9866 C   0  0  2  0  0  0  0  0  0  0  0  0
   19.7153  -29.3192  -14.9218 C   0  0  0  0  0  0  0  0  0  0  0  0
   22.0126  -28.7685  -15.6505 C   0  0  2  0  0  0  0  0  0  0  0  0
   23.3723  -29.1926  -15.7817 N   0  0  0  0  0  0  0  0  0  0  0  0
   21.9239  -27.4502  -15.0003 C   0  0  0  0  0  0  0  0  0  0  0  0
   22.2328  -27.3423  -13.7869 O   0  0  0  0  0  0  0  0  0  0  0  0
   21.4979  -26.2610  -15.6752 N   0  0  0  0  0  0  0  0  0  0  0  0
   21.3865  -25.0116  -14.8995 C   0  0  1  0  0  0  0  0  0  0  0  0
   21.7065  -23.9009  -15.8391 C   0  0  0  0  0  0  0  0  0  0  0  0
   21.5641  -22.5451  -15.2784 C   0  0  0  0  0  0  0  0  0  0  0  0
   20.4367  -21.8079  -15.5570 C   0  0  0  0  0  0  0  0  0  0  0  0
   20.2190  -20.5276  -15.0818 C   0  0  0  0  0  0  0  0  0  0  0  0
   21.1862  -19.9307  -14.2714 C   0  0  0  0  0  0  0  0  0  0  0  0
   22.3183  -20.6609  -13.9849 C   0  0  0  0  0  0  0  0  0  0  0  0
   22.5053  -21.9330  -14.4746 C   0  0  0  0  0  0  0  0  0  0  0  0
   19.9685  -24.8557  -14.4625 C   0  0  0  0  0  0  0  0  0  0  0  0
   19.0758  -25.2132  -15.2513 O   0  0  0  0  0  0  0  0  0  0  0  0
   18.9981  -26.3624   -8.6362 N   0  0  0  0  0  0  0  0  0  0  0  0
   18.3129  -25.1516   -8.9553 C   0  0  0  0  0  0  0  0  0  0  0  0
   17.3535  -24.7101   -8.3381 O   0  0  0  0  0  0  0  0  0  0  0  0
   18.8532  -24.4024  -10.1542 C   0  0  0  0  0  0  0  0  0  0  0  0
   18.0418  -24.8312  -11.3586 C   0  0  0  0  0  0  0  0  0  0  0  0
   18.3608  -24.1518  -12.6327 C   0  0  2  0  0  0  0  0  0  0  0  0
   19.6367  -24.3279  -13.2215 N   0  0  0  0  0  0  0  0  0  0  0  0
   17.9279  -22.7129  -12.5327 C   0  0  0  0  0  0  0  0  0  0  0  0
   18.7852  -21.8371  -12.5375 O   0  0  0  0  0  0  0  0  0  0  0  0
   16.5638  -22.4811  -12.4370 O   0  0  0  0  0  0  0  0  0  0  0  0
  2  1  1  0
  3  2  1  0
  3  4  1  6
  5  3  1  0
  5  6  1  1
  7  5  1  0
  7  8  2  0
  9  7  1  0
 10  9  1  0
 11 12  1  0
 10 11  1  6
 12 13  2  0
 13 14  1  0
 15 14  2  0
 16 15  1  0
 17 12  1  0
 17 16  2  0
 18 10  1  0
 19 18  2  0
 20 21  1  0
 21 22  2  0
 21 23  1  0
 23 24  1  0
 25 24  1  1
 25 26  1  0
 25 27  1  0
 26 18  1  0
 27 29  1  0
 28 27  2  0
M  END
$$$$
