IFQ.pdb
     RDKit          3D

 29 29  0  0  1  0  0  0  0  0999 V2000
   24.4241  -19.8348  -15.7703 C   0  0  0  0  0  0  0  0  0  0  0  0
   25.6846  -20.3089  -15.0893 C   0  0  0  0  0  0  0  0  0  0  0  0
   25.4576  -20.6139  -13.6320 C   0  0  2  0  0  0  0  0  0  0  0  0
   24.9790  -19.4059  -12.8682 C   0  0  0  0  0  0  0  0  0  0  0  0
   26.7960  -21.0709  -13.0634 C   0  0  2  0  0  0  0  0  0  0  0  0
   27.3217  -22.2103  -13.7498 N   0  0  0  0  0  0  0  0  0  0  0  0
   26.7597  -21.2929  -11.6081 C   0  0  0  0  0  0  0  0  0  0  0  0
   26.3122  -22.3802  -11.1640 O   0  0  0  0  0  0  0  0  0  0  0  0
   27.2084  -20.3294  -10.6481 N   0  0  0  0  0  0  0  0  0  0  0  0
   27.0623  -20.6420   -9.2143 C   0  0  1  0  0  0  0  0  0  0  0  0
   27.9780  -19.7204   -8.4855 C   0  0  0  0  0  0  0  0  0  0  0  0
   27.9490  -19.8402   -7.0166 C   0  0  0  0  0  0  0  0  0  0  0  0
   27.3502  -18.8562   -6.2648 C   0  0  0  0  0  0  0  0  0  0  0  0
   27.2805  -18.8796   -4.8838 C   0  0  0  0  0  0  0  0  0  0  0  0
   27.8439  -19.9543   -4.1938 C   0  0  0  0  0  0  0  0  0  0  0  0
   28.4446  -20.9460   -4.9372 C   0  0  0  0  0  0  0  0  0  0  0  0
   28.4982  -20.8924   -6.3110 C   0  0  0  0  0  0  0  0  0  0  0  0
   25.6629  -20.3248   -8.8053 C   0  0  0  0  0  0  0  0  0  0  0  0
   25.2400  -19.1764   -9.0270 O   0  0  0  0  0  0  0  0  0  0  0  0
   21.9259  -21.2595  -11.3183 N   0  0  0  0  0  0  0  0  0  0  0  0
   21.2815  -20.2103  -10.5965 C   0  0  0  0  0  0  0  0  0  0  0  0
   20.5743  -19.3490  -11.1011 O   0  0  0  0  0  0  0  0  0  0  0  0
   21.5272  -20.2104   -9.1031 C   0  0  0  0  0  0  0  0  0  0  0  0
   22.4184  -21.3943   -8.7917 C   0  0  0  0  0  0  0  0  0  0  0  0
   23.4897  -21.1583   -7.8001 C   0  0  2  0  0  0  0  0  0  0  0  0
   24.8458  -21.2664   -8.1933 N   0  0  0  0  0  0  0  0  0  0  0  0
   23.1566  -21.9157   -6.5418 C   0  0  0  0  0  0  0  0  0  0  0  0
   22.0153  -21.8521   -6.0996 O   0  0  0  0  0  0  0  0  0  0  0  0
   24.1876  -22.6407   -5.9631 O   0  0  0  0  0  0  0  0  0  0  0  0
  2  1  1  0
  3  2  1  0
  3  4  1  1
  5  3  1  0
  5  6  1  6
  7  5  1  0
  7  8  2  0
  9  7  1  0
 10  9  1  0
 11 12  1  0
 10 11  1  1
 12 13  2  0
 13 14  1  0
 15 14  2  0
 16 15  1  0
 17 12  1  0
 17 16  2  0
 18 10  1  0
 19 18  2  0
 20 21  1  0
 21 22  2  0
 21 23  1  0
 23 24  1  0
 25 24  1  6
 25 26  1  0
 25 27  1  0
 26 18  1  0
 27 29  1  0
 28 27  2  0
M  END
$$$$
