IFQ.pdb
     RDKit          3D

 29 29  0  0  1  0  0  0  0  0999 V2000
   25.9215  -18.6360  -19.0481 C   0  0  0  0  0  0  0  0  0  0  0  0
   25.5052  -20.0850  -18.9797 C   0  0  0  0  0  0  0  0  0  0  0  0
   25.3711  -20.5666  -17.5590 C   0  0  2  0  0  0  0  0  0  0  0  0
   24.4864  -19.6654  -16.7364 C   0  0  0  0  0  0  0  0  0  0  0  0
   26.7738  -20.5757  -16.9623 C   0  0  2  0  0  0  0  0  0  0  0  0
   27.6885  -21.3661  -17.7268 N   0  0  0  0  0  0  0  0  0  0  0  0
   26.7941  -20.9592  -15.5407 C   0  0  0  0  0  0  0  0  0  0  0  0
   26.2380  -22.0289  -15.1855 O   0  0  0  0  0  0  0  0  0  0  0  0
   27.4173  -20.1748  -14.5173 N   0  0  0  0  0  0  0  0  0  0  0  0
   27.2626  -20.5972  -13.1127 C   0  0  1  0  0  0  0  0  0  0  0  0
   28.3048  -19.8700  -12.3356 C   0  0  0  0  0  0  0  0  0  0  0  0
   28.2340  -20.0470  -10.8739 C   0  0  0  0  0  0  0  0  0  0  0  0
   27.5660  -19.1207  -10.1073 C   0  0  0  0  0  0  0  0  0  0  0  0
   27.4530  -19.2000   -8.7312 C   0  0  0  0  0  0  0  0  0  0  0  0
   28.0434  -20.2736   -8.0624 C   0  0  0  0  0  0  0  0  0  0  0  0
   28.7133  -21.2078   -8.8208 C   0  0  0  0  0  0  0  0  0  0  0  0
   28.8087  -21.0995  -10.1891 C   0  0  0  0  0  0  0  0  0  0  0  0
   25.9248  -20.1445  -12.6315 C   0  0  0  0  0  0  0  0  0  0  0  0
   25.4717  -19.0819  -13.0923 O   0  0  0  0  0  0  0  0  0  0  0  0
   21.7933  -19.7151  -14.1538 N   0  0  0  0  0  0  0  0  0  0  0  0
   21.9931  -21.1282  -14.1328 C   0  0  0  0  0  0  0  0  0  0  0  0
   21.7785  -21.8767  -15.0762 O   0  0  0  0  0  0  0  0  0  0  0  0
   22.5063  -21.6869  -12.8231 C   0  0  0  0  0  0  0  0  0  0  0  0
   22.7253  -20.5168  -11.8874 C   0  0  0  0  0  0  0  0  0  0  0  0
   23.9628  -20.5539  -11.0787 C   0  0  2  0  0  0  0  0  0  0  0  0
   25.1964  -20.8704  -11.6980 N   0  0  0  0  0  0  0  0  0  0  0  0
   23.6927  -21.3364   -9.8207 C   0  0  0  0  0  0  0  0  0  0  0  0
   22.6823  -21.0840   -9.1744 O   0  0  0  0  0  0  0  0  0  0  0  0
   24.6280  -22.3015   -9.4779 O   0  0  0  0  0  0  0  0  0  0  0  0
  2  1  1  0
  3  2  1  0
  3  4  1  1
  5  3  1  0
  5  6  1  6
  7  5  1  0
  7  8  2  0
  9  7  1  0
 10  9  1  0
 11 12  1  0
 10 11  1  1
 12 13  2  0
 13 14  1  0
 15 14  2  0
 16 15  1  0
 17 12  1  0
 17 16  2  0
 18 10  1  0
 19 18  2  0
 20 21  1  0
 21 22  2  0
 21 23  1  0
 23 24  1  0
 25 24  1  6
 25 26  1  0
 25 27  1  0
 26 18  1  0
 27 29  1  0
 28 27  2  0
M  END
$$$$
