HPR.pdb
     RDKit          3D

 29 30  0  0  1  0  0  0  0  0999 V2000
   18.3028  -28.2661  -10.6047 N   0  0  0  0  0  0  0  0  0  0  0  0
   17.6238  -27.1091   -9.9829 C   0  0  1  0  0  0  0  0  0  0  0  0
   16.1743  -27.2077  -10.4112 C   0  0  0  0  0  0  0  0  0  0  0  0
   16.0334  -26.9176  -11.8625 C   0  0  0  0  0  0  0  0  0  0  0  0
   16.1051  -25.6821  -12.5018 C   0  0  0  0  0  0  0  0  0  0  0  0
   15.9276  -25.8501  -13.8232 N   0  0  0  0  0  0  0  0  0  0  0  0
   15.7487  -27.1464  -14.0221 C   0  0  0  0  0  0  0  0  0  0  0  0
   15.8099  -27.8097  -12.8419 N   0  0  0  0  0  0  0  0  0  0  0  0
   17.8071  -27.1378   -8.5180 C   0  0  0  0  0  0  0  0  0  0  0  0
   17.8375  -28.2661   -7.9388 O   0  0  0  0  0  0  0  0  0  0  0  0
   17.9445  -25.9285   -7.8097 N   0  0  0  0  0  0  0  0  0  0  0  0
   17.8897  -24.5977   -8.3695 C   0  0  0  0  0  0  0  0  0  0  0  0
   18.8644  -23.7850   -7.5145 C   0  0  0  0  0  0  0  0  0  0  0  0
   19.0441  -24.5933   -6.2636 C   0  0  0  0  0  0  0  0  0  0  0  0
   18.1819  -25.8217   -6.3881 C   0  0  1  0  0  0  0  0  0  0  0  0
   16.9195  -25.7088   -5.6130 C   0  0  0  0  0  0  0  0  0  0  0  0
   15.8994  -25.1664   -6.1076 O   0  0  0  0  0  0  0  0  0  0  0  0
   18.1141  -29.7162   -4.4220 N   0  0  0  0  0  0  0  0  0  0  0  0
   17.7849  -30.6920   -3.4409 C   0  0  0  0  0  0  0  0  0  0  0  0
   18.6301  -31.6652   -3.2343 N   0  0  0  0  0  0  0  0  0  0  0  0
   16.5886  -30.6438   -2.6923 N   0  0  0  0  0  0  0  0  0  0  0  0
   15.6413  -29.5010   -2.7854 C   0  0  0  0  0  0  0  0  0  0  0  0
   16.3001  -28.2544   -2.3514 C   0  0  0  0  0  0  0  0  0  0  0  0
   15.6094  -26.9844   -2.3738 C   0  0  0  0  0  0  0  0  0  0  0  0
   15.4960  -26.0810   -3.5389 C   0  0  2  0  0  0  0  0  0  0  0  0
   16.8081  -26.2033   -4.2927 N   0  0  0  0  0  0  0  0  0  0  0  0
   15.3679  -24.6435   -3.2799 C   0  0  0  0  0  0  0  0  0  0  0  0
   16.3116  -23.8474   -3.3079 O   0  0  0  0  0  0  0  0  0  0  0  0
   14.0790  -24.1181   -2.9756 O   0  0  0  0  0  0  0  0  0  0  0  0
  2  1  1  6
  2  3  1  0
  3  4  1  0
  4  8  1  0
  5  4  2  0
  5  6  1  0
  6  7  1  0
  8  7  2  0
  9  2  1  0
  9 10  2  0
 11  9  1  0
 12 11  1  0
 13 12  1  0
 14 15  1  0
 14 13  1  0
 15 11  1  0
 15 16  1  1
 16 17  2  0
 19 18  1  0
 20 19  2  0
 21 19  1  0
 22 21  1  0
 23 22  1  0
 25 24  1  1
 24 23  1  0
 25 26  1  0
 26 16  1  0
 27 25  1  0
 28 27  2  0
 29 27  1  0
M  END
$$$$
