HPR.pdb
     RDKit          3D

 29 30  0  0  1  0  0  0  0  0999 V2000
   24.3782  -14.2173  -18.7263 N   0  0  0  0  0  0  0  0  0  0  0  0
   24.9385  -12.8584  -18.5660 C   0  0  1  0  0  0  0  0  0  0  0  0
   24.9027  -12.2364  -19.9466 C   0  0  0  0  0  0  0  0  0  0  0  0
   25.7567  -13.0032  -20.8917 C   0  0  0  0  0  0  0  0  0  0  0  0
   27.1410  -12.9473  -21.0365 C   0  0  0  0  0  0  0  0  0  0  0  0
   27.5256  -13.8008  -22.0005 N   0  0  0  0  0  0  0  0  0  0  0  0
   26.4270  -14.3817  -22.4560 C   0  0  0  0  0  0  0  0  0  0  0  0
   25.3434  -13.9090  -21.7936 N   0  0  0  0  0  0  0  0  0  0  0  0
   24.1640  -12.1034  -17.5609 C   0  0  0  0  0  0  0  0  0  0  0  0
   22.9234  -12.3461  -17.4525 O   0  0  0  0  0  0  0  0  0  0  0  0
   24.8129  -11.1471  -16.7562 N   0  0  0  0  0  0  0  0  0  0  0  0
   26.2232  -10.8337  -16.7682 C   0  0  0  0  0  0  0  0  0  0  0  0
   26.5449  -10.4724  -15.3165 C   0  0  0  0  0  0  0  0  0  0  0  0
   25.2155  -10.1638  -14.6939 C   0  0  0  0  0  0  0  0  0  0  0  0
   24.1655  -10.3224  -15.7616 C   0  0  1  0  0  0  0  0  0  0  0  0
   23.7189   -9.0180  -16.3152 C   0  0  0  0  0  0  0  0  0  0  0  0
   24.4792   -8.3228  -17.0349 O   0  0  0  0  0  0  0  0  0  0  0  0
   16.2151   -9.3491  -19.9393 N   0  0  0  0  0  0  0  0  0  0  0  0
   16.2260   -9.3665  -18.5171 C   0  0  0  0  0  0  0  0  0  0  0  0
   15.1700   -9.8227  -17.9000 N   0  0  0  0  0  0  0  0  0  0  0  0
   17.3277   -8.9119  -17.7597 N   0  0  0  0  0  0  0  0  0  0  0  0
   18.5885   -8.4461  -18.3963 C   0  0  0  0  0  0  0  0  0  0  0  0
   19.5578   -8.0289  -17.3655 C   0  0  0  0  0  0  0  0  0  0  0  0
   20.9114   -7.6517  -17.7060 C   0  0  0  0  0  0  0  0  0  0  0  0
   21.9601   -7.2337  -16.7509 C   0  0  2  0  0  0  0  0  0  0  0  0
   22.4268   -8.5025  -16.0602 N   0  0  0  0  0  0  0  0  0  0  0  0
   21.5679   -6.3521  -15.6470 C   0  0  0  0  0  0  0  0  0  0  0  0
   21.4714   -6.7153  -14.4706 O   0  0  0  0  0  0  0  0  0  0  0  0
   21.2770   -4.9874  -15.9352 O   0  0  0  0  0  0  0  0  0  0  0  0
  2  1  1  6
  2  3  1  0
  3  4  1  0
  4  8  1  0
  5  4  2  0
  5  6  1  0
  6  7  1  0
  8  7  2  0
  9  2  1  0
  9 10  2  0
 11  9  1  0
 12 11  1  0
 13 12  1  0
 14 15  1  0
 14 13  1  0
 15 11  1  0
 15 16  1  6
 16 17  2  0
 19 18  1  0
 20 19  2  0
 21 19  1  0
 22 21  1  0
 23 22  1  0
 25 24  1  6
 24 23  1  0
 25 26  1  0
 26 16  1  0
 27 25  1  0
 28 27  2  0
 29 27  1  0
M  END
$$$$
