HPR.pdb
     RDKit          3D

 29 30  0  0  1  0  0  0  0  0999 V2000
   28.6063  -18.6758  -12.6980 N   0  0  0  0  0  0  0  0  0  0  0  0
   28.1154  -19.7955  -13.5296 C   0  0  1  0  0  0  0  0  0  0  0  0
   27.7795  -20.9086  -12.5589 C   0  0  0  0  0  0  0  0  0  0  0  0
   28.9494  -21.2276  -11.6986 C   0  0  0  0  0  0  0  0  0  0  0  0
   30.1810  -21.7515  -12.0845 C   0  0  0  0  0  0  0  0  0  0  0  0
   30.9677  -21.8897  -11.0038 N   0  0  0  0  0  0  0  0  0  0  0  0
   30.2647  -21.4695   -9.9641 C   0  0  0  0  0  0  0  0  0  0  0  0
   29.0364  -21.0637  -10.3680 N   0  0  0  0  0  0  0  0  0  0  0  0
   26.9638  -19.3583  -14.3439 C   0  0  0  0  0  0  0  0  0  0  0  0
   26.1667  -18.5053  -13.8474 O   0  0  0  0  0  0  0  0  0  0  0  0
   26.7823  -19.8900  -15.6353 N   0  0  0  0  0  0  0  0  0  0  0  0
   27.6507  -20.8321  -16.3028 C   0  0  0  0  0  0  0  0  0  0  0  0
   27.5619  -20.4494  -17.7816 C   0  0  0  0  0  0  0  0  0  0  0  0
   26.3107  -19.6294  -17.8918 C   0  0  0  0  0  0  0  0  0  0  0  0
   25.6891  -19.5620  -16.5218 C   0  0  1  0  0  0  0  0  0  0  0  0
   24.5433  -20.4959  -16.3728 C   0  0  0  0  0  0  0  0  0  0  0  0
   24.7266  -21.7207  -16.1596 O   0  0  0  0  0  0  0  0  0  0  0  0
   20.6995  -20.2609   -9.3864 N   0  0  0  0  0  0  0  0  0  0  0  0
   21.9812  -20.8656   -9.5077 C   0  0  0  0  0  0  0  0  0  0  0  0
   22.3698  -21.6774   -8.5620 N   0  0  0  0  0  0  0  0  0  0  0  0
   22.8371  -20.6197  -10.6036 N   0  0  0  0  0  0  0  0  0  0  0  0
   22.5387  -19.5798  -11.6241 C   0  0  0  0  0  0  0  0  0  0  0  0
   22.0187  -20.2055  -12.8546 C   0  0  0  0  0  0  0  0  0  0  0  0
   22.6949  -20.0582  -14.1241 C   0  0  0  0  0  0  0  0  0  0  0  0
   22.1789  -20.5024  -15.4367 C   0  0  2  0  0  0  0  0  0  0  0  0
   23.2032  -20.0528  -16.4629 N   0  0  0  0  0  0  0  0  0  0  0  0
   20.9208  -19.9174  -15.9106 C   0  0  0  0  0  0  0  0  0  0  0  0
   20.8416  -18.8503  -16.5274 O   0  0  0  0  0  0  0  0  0  0  0  0
   19.7051  -20.6132  -15.6504 O   0  0  0  0  0  0  0  0  0  0  0  0
  2  1  1  1
  2  3  1  0
  3  4  1  0
  4  8  1  0
  5  4  2  0
  5  6  1  0
  6  7  1  0
  8  7  2  0
  9  2  1  0
  9 10  2  0
 11  9  1  0
 12 11  1  0
 13 12  1  0
 14 15  1  0
 14 13  1  0
 15 11  1  0
 15 16  1  6
 16 17  2  0
 19 18  1  0
 20 19  2  0
 21 19  1  0
 22 21  1  0
 23 22  1  0
 25 24  1  1
 24 23  1  0
 25 26  1  0
 26 16  1  0
 27 25  1  0
 28 27  2  0
 29 27  1  0
M  END
$$$$
