HPR.pdb
     RDKit          3D

 29 30  0  0  1  0  0  0  0  0999 V2000
   24.3675  -22.0011  -18.1851 N   0  0  0  0  0  0  0  0  0  0  0  0
   24.4438  -20.9314  -17.1672 C   0  0  1  0  0  0  0  0  0  0  0  0
   23.0314  -20.7607  -16.6474 C   0  0  0  0  0  0  0  0  0  0  0  0
   22.1569  -20.1578  -17.6878 C   0  0  0  0  0  0  0  0  0  0  0  0
   22.2610  -18.8973  -18.2714 C   0  0  0  0  0  0  0  0  0  0  0  0
   21.2761  -18.7374  -19.1716 N   0  0  0  0  0  0  0  0  0  0  0  0
   20.5676  -19.8554  -19.1642 C   0  0  0  0  0  0  0  0  0  0  0  0
   21.0886  -20.7290  -18.2687 N   0  0  0  0  0  0  0  0  0  0  0  0
   25.4163  -21.2956  -16.1175 C   0  0  0  0  0  0  0  0  0  0  0  0
   25.6753  -22.5247  -15.9394 O   0  0  0  0  0  0  0  0  0  0  0  0
   26.0262  -20.2832  -15.3519 N   0  0  0  0  0  0  0  0  0  0  0  0
   25.8429  -18.8594  -15.5143 C   0  0  0  0  0  0  0  0  0  0  0  0
   27.1992  -18.2564  -15.1424 C   0  0  0  0  0  0  0  0  0  0  0  0
   27.8971  -19.3318  -14.3635 C   0  0  0  0  0  0  0  0  0  0  0  0
   26.9610  -20.5079  -14.2729 C   0  0  1  0  0  0  0  0  0  0  0  0
   26.2865  -20.5948  -12.9520 C   0  0  0  0  0  0  0  0  0  0  0  0
   25.0571  -20.3631  -12.8335 O   0  0  0  0  0  0  0  0  0  0  0  0
   28.6669  -18.2093   -5.2182 N   0  0  0  0  0  0  0  0  0  0  0  0
   27.8096  -19.2949   -4.8872 C   0  0  0  0  0  0  0  0  0  0  0  0
   27.3448  -19.3616   -3.6691 N   0  0  0  0  0  0  0  0  0  0  0  0
   27.4492  -20.2910   -5.8209 N   0  0  0  0  0  0  0  0  0  0  0  0
   27.6505  -20.1153   -7.2840 C   0  0  0  0  0  0  0  0  0  0  0  0
   27.1261  -21.2838   -8.0160 C   0  0  0  0  0  0  0  0  0  0  0  0
   27.2818  -21.4140   -9.4475 C   0  0  0  0  0  0  0  0  0  0  0  0
   26.2498  -21.1097  -10.4619 C   0  0  2  0  0  0  0  0  0  0  0  0
   26.9916  -20.9401  -11.7756 N   0  0  0  0  0  0  0  0  0  0  0  0
   25.4949  -19.8612  -10.3166 C   0  0  0  0  0  0  0  0  0  0  0  0
   25.9392  -18.7452  -10.6034 O   0  0  0  0  0  0  0  0  0  0  0  0
   24.1633  -19.9247   -9.8140 O   0  0  0  0  0  0  0  0  0  0  0  0
  2  1  1  6
  2  3  1  0
  3  4  1  0
  4  8  1  0
  5  4  2  0
  5  6  1  0
  6  7  1  0
  8  7  2  0
  9  2  1  0
  9 10  2  0
 11  9  1  0
 12 11  1  0
 13 12  1  0
 14 15  1  0
 14 13  1  0
 15 11  1  0
 15 16  1  1
 16 17  2  0
 19 18  1  0
 20 19  2  0
 21 19  1  0
 22 21  1  0
 23 22  1  0
 25 24  1  1
 24 23  1  0
 25 26  1  0
 26 16  1  0
 27 25  1  0
 28 27  2  0
 29 27  1  0
M  END
$$$$
