HPR.pdb
     RDKit          3D

 29 30  0  0  1  0  0  0  0  0999 V2000
   13.5123  -20.1329   -2.7402 N   0  0  0  0  0  0  0  0  0  0  0  0
   13.2669  -20.1458   -1.2822 C   0  0  1  0  0  0  0  0  0  0  0  0
   11.8341  -20.6070   -1.1132 C   0  0  0  0  0  0  0  0  0  0  0  0
   10.8906  -19.6203   -1.7023 C   0  0  0  0  0  0  0  0  0  0  0  0
   10.7813  -18.2613   -1.4171 C   0  0  0  0  0  0  0  0  0  0  0  0
    9.8052  -17.7229   -2.1677 N   0  0  0  0  0  0  0  0  0  0  0  0
    9.3080  -18.7023   -2.9063 C   0  0  0  0  0  0  0  0  0  0  0  0
    9.9557  -19.8617   -2.6364 N   0  0  0  0  0  0  0  0  0  0  0  0
   14.2486  -21.0187   -0.6081 C   0  0  0  0  0  0  0  0  0  0  0  0
   14.9267  -21.8211   -1.3195 O   0  0  0  0  0  0  0  0  0  0  0  0
   14.4080  -20.9386    0.7888 N   0  0  0  0  0  0  0  0  0  0  0  0
   13.6034  -20.1561    1.6986 C   0  0  0  0  0  0  0  0  0  0  0  0
   14.5794  -19.7255    2.7955 C   0  0  0  0  0  0  0  0  0  0  0  0
   15.7392  -20.6686    2.6696 C   0  0  0  0  0  0  0  0  0  0  0  0
   15.4281  -21.6247    1.5485 C   0  0  1  0  0  0  0  0  0  0  0  0
   14.9678  -22.9477    2.0435 C   0  0  0  0  0  0  0  0  0  0  0  0
   13.8231  -23.0931    2.5413 O   0  0  0  0  0  0  0  0  0  0  0  0
   15.4939  -29.4494   -3.2111 N   0  0  0  0  0  0  0  0  0  0  0  0
   16.0223  -28.1317   -3.2982 C   0  0  0  0  0  0  0  0  0  0  0  0
   16.7133  -27.8156   -4.3597 N   0  0  0  0  0  0  0  0  0  0  0  0
   15.8268  -27.1659   -2.2868 N   0  0  0  0  0  0  0  0  0  0  0  0
   16.2195  -27.4088   -0.8730 C   0  0  0  0  0  0  0  0  0  0  0  0
   15.5952  -26.4058    0.0104 C   0  0  0  0  0  0  0  0  0  0  0  0
   15.7925  -26.4294    1.4425 C   0  0  0  0  0  0  0  0  0  0  0  0
   15.2507  -25.4486    2.4075 C   0  0  2  0  0  0  0  0  0  0  0  0
   15.7903  -24.0964    1.9773 N   0  0  0  0  0  0  0  0  0  0  0  0
   15.6654  -25.5671    3.8089 C   0  0  0  0  0  0  0  0  0  0  0  0
   16.4826  -24.8197    4.3554 O   0  0  0  0  0  0  0  0  0  0  0  0
   15.0974  -26.6054    4.6021 O   0  0  0  0  0  0  0  0  0  0  0  0
  2  1  1  6
  2  3  1  0
  3  4  1  0
  4  8  1  0
  5  4  2  0
  5  6  1  0
  6  7  1  0
  8  7  2  0
  9  2  1  0
  9 10  2  0
 11  9  1  0
 12 11  1  0
 13 12  1  0
 14 15  1  0
 14 13  1  0
 15 11  1  0
 15 16  1  1
 16 17  2  0
 19 18  1  0
 20 19  2  0
 21 19  1  0
 22 21  1  0
 23 22  1  0
 25 24  1  6
 24 23  1  0
 25 26  1  0
 26 16  1  0
 27 25  1  0
 28 27  2  0
 29 27  1  0
M  END
$$$$
