HPR.pdb
     RDKit          3D

 29 30  0  0  1  0  0  0  0  0999 V2000
   24.3423  -20.7489  -15.4104 N   0  0  0  0  0  0  0  0  0  0  0  0
   23.2441  -20.2094  -14.5803 C   0  0  1  0  0  0  0  0  0  0  0  0
   22.1357  -19.8545  -15.5497 C   0  0  0  0  0  0  0  0  0  0  0  0
   22.5938  -18.8240  -16.5186 C   0  0  0  0  0  0  0  0  0  0  0  0
   22.8810  -18.9858  -17.8720 C   0  0  0  0  0  0  0  0  0  0  0  0
   23.2618  -17.8073  -18.3934 N   0  0  0  0  0  0  0  0  0  0  0  0
   23.2197  -16.9234  -17.4090 C   0  0  0  0  0  0  0  0  0  0  0  0
   22.8159  -17.5239  -16.2632 N   0  0  0  0  0  0  0  0  0  0  0  0
   22.8403  -21.2006  -13.5631 C   0  0  0  0  0  0  0  0  0  0  0  0
   23.1688  -22.4128  -13.7424 O   0  0  0  0  0  0  0  0  0  0  0  0
   22.1123  -20.7814  -12.4328 N   0  0  0  0  0  0  0  0  0  0  0  0
   21.6456  -19.4408  -12.1642 C   0  0  0  0  0  0  0  0  0  0  0  0
   21.7190  -19.3104  -10.6414 C   0  0  0  0  0  0  0  0  0  0  0  0
   21.7801  -20.7220  -10.1375 C   0  0  0  0  0  0  0  0  0  0  0  0
   21.7217  -21.6348  -11.3339 C   0  0  1  0  0  0  0  0  0  0  0  0
   20.3726  -22.2250  -11.5308 C   0  0  0  0  0  0  0  0  0  0  0  0
   19.5368  -21.6928  -12.3038 O   0  0  0  0  0  0  0  0  0  0  0  0
   17.5249  -29.5403   -9.8031 N   0  0  0  0  0  0  0  0  0  0  0  0
   16.6251  -29.4056  -10.8964 C   0  0  0  0  0  0  0  0  0  0  0  0
   15.5287  -30.1140  -10.8808 N   0  0  0  0  0  0  0  0  0  0  0  0
   16.8754  -28.5419  -11.9851 N   0  0  0  0  0  0  0  0  0  0  0  0
   18.0356  -27.6116  -12.0077 C   0  0  0  0  0  0  0  0  0  0  0  0
   17.8870  -26.5835  -10.9602 C   0  0  0  0  0  0  0  0  0  0  0  0
   18.8545  -25.5215  -10.7975 C   0  0  0  0  0  0  0  0  0  0  0  0
   18.7120  -24.1366  -11.2956 C   0  0  2  0  0  0  0  0  0  0  0  0
   19.9697  -23.4047  -10.8628 N   0  0  0  0  0  0  0  0  0  0  0  0
   17.6216  -23.3222  -10.7501 C   0  0  0  0  0  0  0  0  0  0  0  0
   17.7127  -22.6385   -9.7257 O   0  0  0  0  0  0  0  0  0  0  0  0
   16.3724  -23.3092  -11.4350 O   0  0  0  0  0  0  0  0  0  0  0  0
  2  1  1  6
  2  3  1  0
  3  4  1  0
  4  8  1  0
  5  4  2  0
  5  6  1  0
  6  7  1  0
  8  7  2  0
  9  2  1  0
  9 10  2  0
 11  9  1  0
 12 11  1  0
 13 12  1  0
 14 15  1  0
 14 13  1  0
 15 11  1  0
 15 16  1  6
 16 17  2  0
 19 18  1  0
 20 19  2  0
 21 19  1  0
 22 21  1  0
 23 22  1  0
 25 24  1  1
 24 23  1  0
 25 26  1  0
 26 16  1  0
 27 25  1  0
 28 27  2  0
 29 27  1  0
M  END
$$$$
