HPR.pdb
     RDKit          3D

 29 30  0  0  1  0  0  0  0  0999 V2000
   22.5162  -19.1617  -11.7534 N   0  0  0  0  0  0  0  0  0  0  0  0
   23.6663  -20.0876  -11.6748 C   0  0  1  0  0  0  0  0  0  0  0  0
   23.0726  -21.4805  -11.7125 C   0  0  0  0  0  0  0  0  0  0  0  0
   22.0559  -21.6486  -10.6409 C   0  0  0  0  0  0  0  0  0  0  0  0
   22.2222  -21.4881   -9.2672 C   0  0  0  0  0  0  0  0  0  0  0  0
   21.0567  -21.7296   -8.6434 N   0  0  0  0  0  0  0  0  0  0  0  0
   20.1766  -22.0337   -9.5841 C   0  0  0  0  0  0  0  0  0  0  0  0
   20.7665  -21.9893  -10.8033 N   0  0  0  0  0  0  0  0  0  0  0  0
   24.6110  -19.8212  -12.7779 C   0  0  0  0  0  0  0  0  0  0  0  0
   24.2292  -19.0715  -13.7275 O   0  0  0  0  0  0  0  0  0  0  0  0
   25.8962  -20.3961  -12.7482 N   0  0  0  0  0  0  0  0  0  0  0  0
   26.4153  -21.2795  -11.7297 C   0  0  0  0  0  0  0  0  0  0  0  0
   27.9055  -20.9402  -11.6552 C   0  0  0  0  0  0  0  0  0  0  0  0
   28.2020  -20.2280  -12.9417 C   0  0  0  0  0  0  0  0  0  0  0  0
   26.9255  -20.1794  -13.7392 C   0  0  1  0  0  0  0  0  0  0  0  0
   26.8924  -21.2000  -14.8183 C   0  0  0  0  0  0  0  0  0  0  0  0
   26.4217  -22.3471  -14.6138 O   0  0  0  0  0  0  0  0  0  0  0  0
   19.9685  -19.4402  -18.0010 N   0  0  0  0  0  0  0  0  0  0  0  0
   20.6662  -20.5066  -17.3692 C   0  0  0  0  0  0  0  0  0  0  0  0
   19.9987  -21.5896  -17.0764 N   0  0  0  0  0  0  0  0  0  0  0  0
   22.0402  -20.4335  -17.0516 N   0  0  0  0  0  0  0  0  0  0  0  0
   22.9890  -19.5914  -17.8279 C   0  0  0  0  0  0  0  0  0  0  0  0
   24.2199  -20.3485  -18.1240 C   0  0  0  0  0  0  0  0  0  0  0  0
   25.2526  -20.5355  -17.1295 C   0  0  0  0  0  0  0  0  0  0  0  0
   26.5360  -21.2403  -17.3359 C   0  0  2  0  0  0  0  0  0  0  0  0
   27.3849  -20.9296  -16.1162 N   0  0  0  0  0  0  0  0  0  0  0  0
   27.3717  -20.8226  -18.4660 C   0  0  0  0  0  0  0  0  0  0  0  0
   28.0795  -19.8105  -18.4678 O   0  0  0  0  0  0  0  0  0  0  0  0
   27.3774  -21.6258  -19.6427 O   0  0  0  0  0  0  0  0  0  0  0  0
  2  1  1  6
  2  3  1  0
  3  4  1  0
  4  8  1  0
  5  4  2  0
  5  6  1  0
  6  7  1  0
  8  7  2  0
  9  2  1  0
  9 10  2  0
 11  9  1  0
 12 11  1  0
 13 12  1  0
 14 15  1  0
 14 13  1  0
 15 11  1  0
 15 16  1  6
 16 17  2  0
 19 18  1  0
 20 19  2  0
 21 19  1  0
 22 21  1  0
 23 22  1  0
 25 24  1  1
 24 23  1  0
 25 26  1  0
 26 16  1  0
 27 25  1  0
 28 27  2  0
 29 27  1  0
M  END
$$$$
