HPR.pdb
     RDKit          3D

 29 30  0  0  1  0  0  0  0  0999 V2000
   18.7762  -12.6370  -16.7533 N   0  0  0  0  0  0  0  0  0  0  0  0
   19.8261  -11.6507  -17.0864 C   0  0  1  0  0  0  0  0  0  0  0  0
   19.2616  -10.8205  -18.2206 C   0  0  0  0  0  0  0  0  0  0  0  0
   19.1072  -11.6435  -19.4491 C   0  0  0  0  0  0  0  0  0  0  0  0
   19.8873  -11.6183  -20.6028 C   0  0  0  0  0  0  0  0  0  0  0  0
   19.4180  -12.5206  -21.4811 N   0  0  0  0  0  0  0  0  0  0  0  0
   18.3752  -13.1021  -20.9098 C   0  0  0  0  0  0  0  0  0  0  0  0
   18.1722  -12.5815  -19.6752 N   0  0  0  0  0  0  0  0  0  0  0  0
   20.1746  -10.8549  -15.8925 C   0  0  0  0  0  0  0  0  0  0  0  0
   19.2773  -10.6619  -15.0167 O   0  0  0  0  0  0  0  0  0  0  0  0
   21.4778  -10.3389  -15.7557 N   0  0  0  0  0  0  0  0  0  0  0  0
   22.5626  -10.4930  -16.6973 C   0  0  0  0  0  0  0  0  0  0  0  0
   23.8178  -10.5564  -15.8245 C   0  0  0  0  0  0  0  0  0  0  0  0
   23.3986   -9.9764  -14.5061 C   0  0  0  0  0  0  0  0  0  0  0  0
   21.9527   -9.5727  -14.6261 C   0  0  1  0  0  0  0  0  0  0  0  0
   21.7876   -8.1101  -14.8279 C   0  0  0  0  0  0  0  0  0  0  0  0
   21.8631   -7.5995  -15.9736 O   0  0  0  0  0  0  0  0  0  0  0  0
   14.9651   -5.7278  -10.8151 N   0  0  0  0  0  0  0  0  0  0  0  0
   16.1037   -6.0943  -10.0455 C   0  0  0  0  0  0  0  0  0  0  0  0
   15.9258   -6.3867   -8.7857 N   0  0  0  0  0  0  0  0  0  0  0  0
   17.4045   -6.1513  -10.5921 N   0  0  0  0  0  0  0  0  0  0  0  0
   17.6678   -5.9144  -12.0365 C   0  0  0  0  0  0  0  0  0  0  0  0
   19.1196   -5.9151  -12.2982 C   0  0  0  0  0  0  0  0  0  0  0  0
   19.6490   -5.7675  -13.6356 C   0  0  0  0  0  0  0  0  0  0  0  0
   21.0788   -5.8088  -14.0103 C   0  0  2  0  0  0  0  0  0  0  0  0
   21.5392   -7.2314  -13.7478 N   0  0  0  0  0  0  0  0  0  0  0  0
   22.0128   -4.9847  -13.2368 C   0  0  0  0  0  0  0  0  0  0  0  0
   22.7813   -5.4286  -12.3780 O   0  0  0  0  0  0  0  0  0  0  0  0
   22.0467   -3.5815  -13.4811 O   0  0  0  0  0  0  0  0  0  0  0  0
  2  1  1  1
  2  3  1  0
  3  4  1  0
  4  8  1  0
  5  4  2  0
  5  6  1  0
  6  7  1  0
  8  7  2  0
  9  2  1  0
  9 10  2  0
 11  9  1  0
 12 11  1  0
 13 12  1  0
 14 15  1  0
 14 13  1  0
 15 11  1  0
 15 16  1  6
 16 17  2  0
 19 18  1  0
 20 19  2  0
 21 19  1  0
 22 21  1  0
 23 22  1  0
 25 24  1  1
 24 23  1  0
 25 26  1  0
 26 16  1  0
 27 25  1  0
 28 27  2  0
 29 27  1  0
M  END
$$$$
