HPR.pdb
     RDKit          3D

 29 30  0  0  1  0  0  0  0  0999 V2000
   28.0692  -19.5609  -14.6123 N   0  0  0  0  0  0  0  0  0  0  0  0
   26.8435  -20.1364  -14.0183 C   0  0  1  0  0  0  0  0  0  0  0  0
   26.8587  -19.7161  -12.5632 C   0  0  0  0  0  0  0  0  0  0  0  0
   28.1017  -20.1821  -11.8936 C   0  0  0  0  0  0  0  0  0  0  0  0
   28.3330  -21.4051  -11.2683 C   0  0  0  0  0  0  0  0  0  0  0  0
   29.5886  -21.4338  -10.7902 N   0  0  0  0  0  0  0  0  0  0  0  0
   30.1406  -20.2710  -11.0986 C   0  0  0  0  0  0  0  0  0  0  0  0
   29.2516  -19.4985  -11.7690 N   0  0  0  0  0  0  0  0  0  0  0  0
   25.6522  -19.6666  -14.7533 C   0  0  0  0  0  0  0  0  0  0  0  0
   25.5889  -18.4405  -15.0731 O   0  0  0  0  0  0  0  0  0  0  0  0
   24.6304  -20.5792  -15.0793 N   0  0  0  0  0  0  0  0  0  0  0  0
   24.5808  -21.9756  -14.7120 C   0  0  0  0  0  0  0  0  0  0  0  0
   23.8762  -22.6536  -15.8890 C   0  0  0  0  0  0  0  0  0  0  0  0
   23.1775  -21.5401  -16.6116 C   0  0  0  0  0  0  0  0  0  0  0  0
   23.4552  -20.2653  -15.8596 C   0  0  1  0  0  0  0  0  0  0  0  0
   22.3100  -19.8476  -15.0102 C   0  0  0  0  0  0  0  0  0  0  0  0
   22.0944  -20.3900  -13.8973 O   0  0  0  0  0  0  0  0  0  0  0  0
   22.9514  -14.5115  -17.4733 N   0  0  0  0  0  0  0  0  0  0  0  0
   21.6652  -14.2421  -18.0176 C   0  0  0  0  0  0  0  0  0  0  0  0
   21.5682  -14.0671  -19.3077 N   0  0  0  0  0  0  0  0  0  0  0  0
   20.5039  -14.1584  -17.2186 N   0  0  0  0  0  0  0  0  0  0  0  0
   20.4632  -14.6731  -15.8239 C   0  0  0  0  0  0  0  0  0  0  0  0
   20.3265  -16.1419  -15.8248 C   0  0  0  0  0  0  0  0  0  0  0  0
   20.2599  -16.8979  -14.5942 C   0  0  0  0  0  0  0  0  0  0  0  0
   20.3086  -18.3713  -14.4794 C   0  0  2  0  0  0  0  0  0  0  0  0
   21.4166  -18.8274  -15.4117 N   0  0  0  0  0  0  0  0  0  0  0  0
   19.1357  -19.1311  -14.9233 C   0  0  0  0  0  0  0  0  0  0  0  0
   18.0627  -19.1687  -14.3131 O   0  0  0  0  0  0  0  0  0  0  0  0
   19.2254  -19.8775  -16.1335 O   0  0  0  0  0  0  0  0  0  0  0  0
  2  1  1  6
  2  3  1  0
  3  4  1  0
  4  8  1  0
  5  4  2  0
  5  6  1  0
  6  7  1  0
  8  7  2  0
  9  2  1  0
  9 10  2  0
 11  9  1  0
 12 11  1  0
 13 12  1  0
 14 15  1  0
 14 13  1  0
 15 11  1  0
 15 16  1  1
 16 17  2  0
 19 18  1  0
 20 19  2  0
 21 19  1  0
 22 21  1  0
 23 22  1  0
 25 24  1  6
 24 23  1  0
 25 26  1  0
 26 16  1  0
 27 25  1  0
 28 27  2  0
 29 27  1  0
M  END
$$$$
