HPR.pdb
     RDKit          3D

 29 30  0  0  1  0  0  0  0  0999 V2000
   21.1619  -22.0757  -13.7673 N   0  0  0  0  0  0  0  0  0  0  0  0
   21.6946  -21.2896  -14.9006 C   0  0  1  0  0  0  0  0  0  0  0  0
   21.5276  -19.8372  -14.5045 C   0  0  0  0  0  0  0  0  0  0  0  0
   20.0881  -19.4905  -14.3697 C   0  0  0  0  0  0  0  0  0  0  0  0
   18.9834  -20.3072  -14.5997 C   0  0  0  0  0  0  0  0  0  0  0  0
   17.8567  -19.6147  -14.3614 N   0  0  0  0  0  0  0  0  0  0  0  0
   18.2273  -18.3989  -13.9922 C   0  0  0  0  0  0  0  0  0  0  0  0
   19.5793  -18.3059  -13.9917 N   0  0  0  0  0  0  0  0  0  0  0  0
   23.0964  -21.6682  -15.1688 C   0  0  0  0  0  0  0  0  0  0  0  0
   23.7777  -22.1605  -14.2186 O   0  0  0  0  0  0  0  0  0  0  0  0
   23.6347  -21.4785  -16.4563 N   0  0  0  0  0  0  0  0  0  0  0  0
   22.9370  -20.9519  -17.6066 C   0  0  0  0  0  0  0  0  0  0  0  0
   23.5524  -21.6919  -18.7962 C   0  0  0  0  0  0  0  0  0  0  0  0
   24.8526  -22.2339  -18.2806 C   0  0  0  0  0  0  0  0  0  0  0  0
   24.9890  -21.7996  -16.8451 C   0  0  1  0  0  0  0  0  0  0  0  0
   25.9094  -20.6440  -16.6878 C   0  0  0  0  0  0  0  0  0  0  0  0
   25.5276  -19.4714  -16.9296 O   0  0  0  0  0  0  0  0  0  0  0  0
   30.7267  -21.1731   -9.9250 N   0  0  0  0  0  0  0  0  0  0  0  0
   30.8496  -21.6732  -11.2509 C   0  0  0  0  0  0  0  0  0  0  0  0
   31.7915  -22.5437  -11.4945 N   0  0  0  0  0  0  0  0  0  0  0  0
   29.9972  -21.2642  -12.2997 N   0  0  0  0  0  0  0  0  0  0  0  0
   28.8468  -20.3489  -12.0744 C   0  0  0  0  0  0  0  0  0  0  0  0
   28.0819  -20.1723  -13.3233 C   0  0  0  0  0  0  0  0  0  0  0  0
   28.7411  -19.9631  -14.5930 C   0  0  0  0  0  0  0  0  0  0  0  0
   28.0776  -19.6014  -15.8639 C   0  0  2  0  0  0  0  0  0  0  0  0
   27.2477  -20.8089  -16.2613 N   0  0  0  0  0  0  0  0  0  0  0  0
   28.9273  -19.3541  -17.0330 C   0  0  0  0  0  0  0  0  0  0  0  0
   29.0757  -20.1527  -17.9633 O   0  0  0  0  0  0  0  0  0  0  0  0
   29.6319  -18.1185  -17.1141 O   0  0  0  0  0  0  0  0  0  0  0  0
  2  1  1  1
  2  3  1  0
  3  4  1  0
  4  8  1  0
  5  4  2  0
  5  6  1  0
  6  7  1  0
  8  7  2  0
  9  2  1  0
  9 10  2  0
 11  9  1  0
 12 11  1  0
 13 12  1  0
 14 15  1  0
 14 13  1  0
 15 11  1  0
 15 16  1  6
 16 17  2  0
 19 18  1  0
 20 19  2  0
 21 19  1  0
 22 21  1  0
 23 22  1  0
 25 24  1  1
 24 23  1  0
 25 26  1  0
 26 16  1  0
 27 25  1  0
 28 27  2  0
 29 27  1  0
M  END
$$$$
