HPR.pdb
     RDKit          3D

 29 30  0  0  1  0  0  0  0  0999 V2000
   26.9310  -21.0885  -15.4131 N   0  0  0  0  0  0  0  0  0  0  0  0
   26.4310  -20.3106  -14.2594 C   0  0  1  0  0  0  0  0  0  0  0  0
   25.7587  -19.0890  -14.8510 C   0  0  0  0  0  0  0  0  0  0  0  0
   26.7345  -18.2711  -15.6186 C   0  0  0  0  0  0  0  0  0  0  0  0
   27.1386  -18.4345  -16.9416 C   0  0  0  0  0  0  0  0  0  0  0  0
   28.0347  -17.4841  -17.2572 N   0  0  0  0  0  0  0  0  0  0  0  0
   28.1979  -16.7396  -16.1752 C   0  0  0  0  0  0  0  0  0  0  0  0
   27.4158  -17.2034  -15.1704 N   0  0  0  0  0  0  0  0  0  0  0  0
   25.5258  -21.1405  -13.4395 C   0  0  0  0  0  0  0  0  0  0  0  0
   25.0706  -22.2115  -13.9448 O   0  0  0  0  0  0  0  0  0  0  0  0
   25.1964  -20.7296  -12.1334 N   0  0  0  0  0  0  0  0  0  0  0  0
   25.8896  -19.7340  -11.3489 C   0  0  0  0  0  0  0  0  0  0  0  0
   25.7614  -20.2291   -9.9068 C   0  0  0  0  0  0  0  0  0  0  0  0
   24.6254  -21.2083   -9.9364 C   0  0  0  0  0  0  0  0  0  0  0  0
   24.1038  -21.2571  -11.3482 C   0  0  1  0  0  0  0  0  0  0  0  0
   22.8558  -20.4693  -11.5187 C   0  0  0  0  0  0  0  0  0  0  0  0
   22.8903  -19.2233  -11.6782 O   0  0  0  0  0  0  0  0  0  0  0  0
   20.9161  -21.1198  -18.7283 N   0  0  0  0  0  0  0  0  0  0  0  0
   21.3344  -22.1968  -17.8986 C   0  0  0  0  0  0  0  0  0  0  0  0
   21.7855  -23.2775  -18.4754 N   0  0  0  0  0  0  0  0  0  0  0  0
   21.2782  -22.1366  -16.4890 N   0  0  0  0  0  0  0  0  0  0  0  0
   20.8321  -20.9163  -15.7653 C   0  0  0  0  0  0  0  0  0  0  0  0
   20.8194  -21.1607  -14.3105 C   0  0  0  0  0  0  0  0  0  0  0  0
   20.4115  -20.1379  -13.3735 C   0  0  0  0  0  0  0  0  0  0  0  0
   20.3488  -20.2856  -11.9036 C   0  0  2  0  0  0  0  0  0  0  0  0
   21.5805  -21.0809  -11.5099 N   0  0  0  0  0  0  0  0  0  0  0  0
   19.2346  -21.0544  -11.3403 C   0  0  0  0  0  0  0  0  0  0  0  0
   18.0762  -20.6348  -11.2547 O   0  0  0  0  0  0  0  0  0  0  0  0
   19.4899  -22.3703  -10.8575 O   0  0  0  0  0  0  0  0  0  0  0  0
  2  1  1  6
  2  3  1  0
  3  4  1  0
  4  8  1  0
  5  4  2  0
  5  6  1  0
  6  7  1  0
  8  7  2  0
  9  2  1  0
  9 10  2  0
 11  9  1  0
 12 11  1  0
 13 12  1  0
 14 15  1  0
 14 13  1  0
 15 11  1  0
 15 16  1  1
 16 17  2  0
 19 18  1  0
 20 19  2  0
 21 19  1  0
 22 21  1  0
 23 22  1  0
 25 24  1  6
 24 23  1  0
 25 26  1  0
 26 16  1  0
 27 25  1  0
 28 27  2  0
 29 27  1  0
M  END
$$$$
