HPR.pdb
     RDKit          3D

 29 30  0  0  1  0  0  0  0  0999 V2000
   18.3166  -14.6637  -18.9183 N   0  0  0  0  0  0  0  0  0  0  0  0
   18.4037  -14.1137  -17.5486 C   0  0  1  0  0  0  0  0  0  0  0  0
   19.4946  -14.9064  -16.8587 C   0  0  0  0  0  0  0  0  0  0  0  0
   19.0871  -16.3263  -16.6905 C   0  0  0  0  0  0  0  0  0  0  0  0
   18.5317  -16.9325  -15.5660 C   0  0  0  0  0  0  0  0  0  0  0  0
   18.3048  -18.2318  -15.8233 N   0  0  0  0  0  0  0  0  0  0  0  0
   18.7007  -18.4489  -17.0674 C   0  0  0  0  0  0  0  0  0  0  0  0
   19.1786  -17.3024  -17.6092 N   0  0  0  0  0  0  0  0  0  0  0  0
   18.6735  -12.6628  -17.5985 C   0  0  0  0  0  0  0  0  0  0  0  0
   19.4643  -12.2296  -18.4910 O   0  0  0  0  0  0  0  0  0  0  0  0
   18.0529  -11.8068  -16.6684 N   0  0  0  0  0  0  0  0  0  0  0  0
   17.1920  -12.2064  -15.5792 C   0  0  0  0  0  0  0  0  0  0  0  0
   16.1827  -11.0633  -15.4530 C   0  0  0  0  0  0  0  0  0  0  0  0
   16.8216   -9.9066  -16.1629 C   0  0  0  0  0  0  0  0  0  0  0  0
   18.1659  -10.3660  -16.6624 C   0  0  1  0  0  0  0  0  0  0  0  0
   19.2817   -9.8920  -15.8036 C   0  0  0  0  0  0  0  0  0  0  0  0
   19.5848  -10.4920  -14.7418 O   0  0  0  0  0  0  0  0  0  0  0  0
   23.7659   -3.9387  -19.8915 N   0  0  0  0  0  0  0  0  0  0  0  0
   22.5873   -3.5425  -19.2009 C   0  0  0  0  0  0  0  0  0  0  0  0
   21.9934   -2.4432  -19.5792 N   0  0  0  0  0  0  0  0  0  0  0  0
   22.0449   -4.2895  -18.1323 N   0  0  0  0  0  0  0  0  0  0  0  0
   22.6601   -5.5586  -17.6604 C   0  0  0  0  0  0  0  0  0  0  0  0
   21.7790   -6.2201  -16.6795 C   0  0  0  0  0  0  0  0  0  0  0  0
   22.0991   -7.5169  -16.1262 C   0  0  0  0  0  0  0  0  0  0  0  0
   21.2167   -8.3325  -15.2644 C   0  0  2  0  0  0  0  0  0  0  0  0
   20.0491   -8.7523  -16.1391 N   0  0  0  0  0  0  0  0  0  0  0  0
   20.5828   -7.6748  -14.1174 C   0  0  0  0  0  0  0  0  0  0  0  0
   19.4421   -7.2018  -14.1331 O   0  0  0  0  0  0  0  0  0  0  0  0
   21.3177   -7.5679  -12.9015 O   0  0  0  0  0  0  0  0  0  0  0  0
  2  1  1  6
  2  3  1  0
  3  4  1  0
  4  8  1  0
  5  4  2  0
  5  6  1  0
  6  7  1  0
  8  7  2  0
  9  2  1  0
  9 10  2  0
 11  9  1  0
 12 11  1  0
 13 12  1  0
 14 15  1  0
 14 13  1  0
 15 11  1  0
 15 16  1  1
 16 17  2  0
 19 18  1  0
 20 19  2  0
 21 19  1  0
 22 21  1  0
 23 22  1  0
 25 24  1  6
 24 23  1  0
 25 26  1  0
 26 16  1  0
 27 25  1  0
 28 27  2  0
 29 27  1  0
M  END
$$$$
