NCA.pdb
     RDKit          3D

 20 19  0  0  1  0  0  0  0  0999 V2000
    6.1364  -18.1690   20.7385 N   0  0  0  0  0  0  0  0  0  0  0  0
    7.1657  -17.2684   20.2884 C   0  0  0  0  0  0  0  0  0  0  0  0
    7.3335  -17.1816   19.0670 O   0  0  0  0  0  0  0  0  0  0  0  0
    7.9109  -16.5463   21.3050 C   0  0  0  0  0  0  0  0  0  0  0  0
    7.5663  -15.1017   21.5203 C   0  0  2  0  0  0  0  0  0  0  0  0
    8.2355  -14.3575   20.4100 N   0  0  0  0  0  0  0  0  0  0  0  0
    8.0760  -14.5137   22.7617 C   0  0  0  0  0  0  0  0  0  0  0  0
    9.3433  -14.3292   22.8455 O   0  0  0  0  0  0  0  0  0  0  0  0
    7.3243  -14.1212   23.8800 N   0  0  0  0  0  0  0  0  0  0  0  0
    7.9771  -13.5580   25.0683 C   0  0  1  0  0  0  0  0  0  0  0  0
    6.9623  -12.7054   25.8110 C   0  0  0  0  0  0  0  0  0  0  0  0
    7.5300  -12.3266   27.4739 S   0  0  0  0  0  0  0  0  0  0  0  0
    8.4755  -14.7013   25.8636 C   0  0  0  0  0  0  0  0  0  0  0  0
    7.6794  -15.6548   26.1417 O   0  0  0  0  0  0  0  0  0  0  0  0
   11.6324  -16.4136   26.7969 C   0  0  0  0  0  0  0  0  0  0  0  0
   10.1883  -16.0573   27.0564 C   0  0  2  0  0  0  0  0  0  0  0  0
    9.7997  -14.8408   26.3602 N   0  0  0  0  0  0  0  0  0  0  0  0
   10.0526  -15.8293   28.5110 C   0  0  0  0  0  0  0  0  0  0  0  0
    9.6986  -14.7067   28.9325 O   0  0  0  0  0  0  0  0  0  0  0  0
   10.3135  -16.8454   29.4110 O   0  0  0  0  0  0  0  0  0  0  0  0
  1  2  1  0
  2  3  2  0
  4  2  1  0
  5  7  1  0
  5  4  1  0
  5  6  1  6
  7  8  2  0
  9 10  1  0
  9  7  1  0
 10 13  1  0
 11 12  1  0
 10 11  1  1
 13 17  1  0
 13 14  2  0
 16 15  1  1
 16 18  1  0
 17 16  1  0
 18 19  2  0
 18 20  1  0
M  END
$$$$
