NCA.pdb
     RDKit          3D

 20 19  0  0  1  0  0  0  0  0999 V2000
    8.6915  -12.8020   15.4187 N   0  0  0  0  0  0  0  0  0  0  0  0
    8.0392  -13.9359   16.0204 C   0  0  0  0  0  0  0  0  0  0  0  0
    7.6543  -14.8267   15.2550 O   0  0  0  0  0  0  0  0  0  0  0  0
    7.8928  -13.9312   17.4656 C   0  0  0  0  0  0  0  0  0  0  0  0
    8.5966  -15.0097   18.2361 C   0  0  2  0  0  0  0  0  0  0  0  0
    7.6691  -16.1819   18.2285 N   0  0  0  0  0  0  0  0  0  0  0  0
    8.8508  -14.7084   19.6471 C   0  0  0  0  0  0  0  0  0  0  0  0
    9.7936  -13.8778   19.9083 O   0  0  0  0  0  0  0  0  0  0  0  0
    8.1676  -15.2289   20.7572 N   0  0  0  0  0  0  0  0  0  0  0  0
    8.5942  -14.9073   22.1247 C   0  0  1  0  0  0  0  0  0  0  0  0
    7.3588  -14.5727   22.9433 C   0  0  0  0  0  0  0  0  0  0  0  0
    7.7343  -14.5529   24.7012 S   0  0  0  0  0  0  0  0  0  0  0  0
    9.3303  -16.0864   22.6305 C   0  0  0  0  0  0  0  0  0  0  0  0
    8.8269  -17.2446   22.4715 O   0  0  0  0  0  0  0  0  0  0  0  0
   12.7134  -17.2697   23.3243 C   0  0  0  0  0  0  0  0  0  0  0  0
   11.2446  -17.2876   23.6735 C   0  0  2  0  0  0  0  0  0  0  0  0
   10.5855  -16.0472   23.2958 N   0  0  0  0  0  0  0  0  0  0  0  0
   11.1497  -17.4416   25.1410 C   0  0  0  0  0  0  0  0  0  0  0  0
   11.6949  -18.4188   25.6986 O   0  0  0  0  0  0  0  0  0  0  0  0
   10.4635  -16.5155   25.9040 O   0  0  0  0  0  0  0  0  0  0  0  0
  1  2  1  0
  2  3  2  0
  4  2  1  0
  5  7  1  0
  5  4  1  0
  5  6  1  1
  7  8  2  0
  9 10  1  0
  9  7  1  0
 10 13  1  0
 11 12  1  0
 10 11  1  1
 13 17  1  0
 13 14  2  0
 16 15  1  1
 16 18  1  0
 17 16  1  0
 18 19  2  0
 18 20  1  0
M  END
$$$$
