NCA.pdb
     RDKit          3D

 20 19  0  0  1  0  0  0  0  0999 V2000
    5.1226  -21.1285   18.2048 N   0  0  0  0  0  0  0  0  0  0  0  0
    4.3012  -20.1065   18.7999 C   0  0  0  0  0  0  0  0  0  0  0  0
    3.2450  -20.4772   19.3239 O   0  0  0  0  0  0  0  0  0  0  0  0
    4.7850  -18.7386   18.7312 C   0  0  0  0  0  0  0  0  0  0  0  0
    6.1033  -18.5039   18.0535 C   0  0  2  0  0  0  0  0  0  0  0  0
    6.7700  -19.8405   17.9943 N   0  0  0  0  0  0  0  0  0  0  0  0
    7.0297  -17.6249   18.7714 C   0  0  0  0  0  0  0  0  0  0  0  0
    8.2776  -17.7363   18.4931 O   0  0  0  0  0  0  0  0  0  0  0  0
    6.7008  -16.6607   19.7368 N   0  0  0  0  0  0  0  0  0  0  0  0
    7.6987  -15.6913   20.2058 C   0  0  1  0  0  0  0  0  0  0  0  0
    6.9758  -14.4125   20.5937 C   0  0  0  0  0  0  0  0  0  0  0  0
    8.1012  -13.2429   21.3661 S   0  0  0  0  0  0  0  0  0  0  0  0
    8.4126  -16.3262   21.3350 C   0  0  0  0  0  0  0  0  0  0  0  0
    7.7386  -16.9187   22.2378 O   0  0  0  0  0  0  0  0  0  0  0  0
   11.7524  -17.6216   22.3205 C   0  0  0  0  0  0  0  0  0  0  0  0
   10.4037  -17.0296   22.6525 C   0  0  2  0  0  0  0  0  0  0  0  0
    9.8226  -16.3391   21.5118 N   0  0  0  0  0  0  0  0  0  0  0  0
   10.6165  -16.0475   23.7371 C   0  0  0  0  0  0  0  0  0  0  0  0
   10.4087  -14.8331   23.5239 O   0  0  0  0  0  0  0  0  0  0  0  0
   11.0434  -16.4581   24.9860 O   0  0  0  0  0  0  0  0  0  0  0  0
  1  2  1  0
  2  3  2  0
  4  2  1  0
  5  7  1  0
  5  4  1  0
  5  6  1  1
  7  8  2  0
  9 10  1  0
  9  7  1  0
 10 13  1  0
 11 12  1  0
 10 11  1  1
 13 17  1  0
 13 14  2  0
 16 15  1  6
 16 18  1  0
 17 16  1  0
 18 19  2  0
 18 20  1  0
M  END
$$$$
