NCA.pdb
     RDKit          3D

 20 19  0  0  1  0  0  0  0  0999 V2000
   10.2576  -18.4393   13.1470 N   0  0  0  0  0  0  0  0  0  0  0  0
   10.8331  -17.1492   12.8677 C   0  0  0  0  0  0  0  0  0  0  0  0
   11.0897  -16.8992   11.6848 O   0  0  0  0  0  0  0  0  0  0  0  0
   11.0593  -16.2620   13.9954 C   0  0  0  0  0  0  0  0  0  0  0  0
    9.9892  -16.1905   15.0452 C   0  0  2  0  0  0  0  0  0  0  0  0
    8.8071  -15.5680   14.3746 N   0  0  0  0  0  0  0  0  0  0  0  0
   10.2948  -15.3352   16.1948 C   0  0  0  0  0  0  0  0  0  0  0  0
   11.4715  -14.8261   16.2499 O   0  0  0  0  0  0  0  0  0  0  0  0
    9.4332  -15.0033   17.2518 N   0  0  0  0  0  0  0  0  0  0  0  0
    9.8924  -14.1623   18.3641 C   0  0  1  0  0  0  0  0  0  0  0  0
    8.6765  -13.7160   19.1582 C   0  0  0  0  0  0  0  0  0  0  0  0
    7.5238  -12.8085   18.1194 S   0  0  0  0  0  0  0  0  0  0  0  0
   10.8401  -14.9788   19.1535 C   0  0  0  0  0  0  0  0  0  0  0  0
   10.6503  -16.2344   19.2411 O   0  0  0  0  0  0  0  0  0  0  0  0
   14.1862  -14.8231   20.8570 C   0  0  0  0  0  0  0  0  0  0  0  0
   12.8017  -15.3817   20.6317 C   0  0  2  0  0  0  0  0  0  0  0  0
   11.9780  -14.4791   19.8428 N   0  0  0  0  0  0  0  0  0  0  0  0
   12.1779  -15.5441   21.9624 C   0  0  0  0  0  0  0  0  0  0  0  0
   11.1447  -14.8996   22.2459 O   0  0  0  0  0  0  0  0  0  0  0  0
   12.7256  -16.4019   22.8977 O   0  0  0  0  0  0  0  0  0  0  0  0
  1  2  1  0
  2  3  2  0
  4  2  1  0
  5  7  1  0
  5  4  1  0
  5  6  1  6
  7  8  2  0
  9 10  1  0
  9  7  1  0
 10 13  1  0
 11 12  1  0
 10 11  1  1
 13 17  1  0
 13 14  2  0
 16 15  1  1
 16 18  1  0
 17 16  1  0
 18 19  2  0
 18 20  1  0
M  END
$$$$
