NCA.pdb
     RDKit          3D

 20 19  0  0  1  0  0  0  0  0999 V2000
    8.8821  -21.0992   17.4408 N   0  0  0  0  0  0  0  0  0  0  0  0
    9.5438  -20.2492   16.4853 C   0  0  0  0  0  0  0  0  0  0  0  0
    9.7972  -20.7450   15.3819 O   0  0  0  0  0  0  0  0  0  0  0  0
    9.8526  -18.8923   16.9019 C   0  0  0  0  0  0  0  0  0  0  0  0
    8.7122  -18.0344   17.3661 C   0  0  2  0  0  0  0  0  0  0  0  0
    8.2837  -17.2499   16.1681 N   0  0  0  0  0  0  0  0  0  0  0  0
    9.0490  -17.0457   18.3936 C   0  0  0  0  0  0  0  0  0  0  0  0
   10.1597  -16.4168   18.2598 O   0  0  0  0  0  0  0  0  0  0  0  0
    8.2819  -16.7026   19.5176 N   0  0  0  0  0  0  0  0  0  0  0  0
    8.7083  -15.6284   20.4230 C   0  0  1  0  0  0  0  0  0  0  0  0
    7.4938  -14.7814   20.7636 C   0  0  0  0  0  0  0  0  0  0  0  0
    6.1910  -15.7833   21.4917 S   0  0  0  0  0  0  0  0  0  0  0  0
    9.3168  -16.2810   21.6028 C   0  0  0  0  0  0  0  0  0  0  0  0
    8.9105  -17.4368   21.9481 O   0  0  0  0  0  0  0  0  0  0  0  0
   12.1426  -15.8432   24.0766 C   0  0  0  0  0  0  0  0  0  0  0  0
   10.9114  -16.5012   23.5011 C   0  0  2  0  0  0  0  0  0  0  0  0
   10.3445  -15.7234   22.4106 N   0  0  0  0  0  0  0  0  0  0  0  0
    9.9135  -16.5806   24.5893 C   0  0  0  0  0  0  0  0  0  0  0  0
    8.9616  -15.7706   24.6182 O   0  0  0  0  0  0  0  0  0  0  0  0
   10.0221  -17.5421   25.5764 O   0  0  0  0  0  0  0  0  0  0  0  0
  1  2  1  0
  2  3  2  0
  4  2  1  0
  5  7  1  0
  5  4  1  0
  5  6  1  6
  7  8  2  0
  9 10  1  0
  9  7  1  0
 10 13  1  0
 11 12  1  0
 10 11  1  1
 13 17  1  0
 13 14  2  0
 16 15  1  1
 16 18  1  0
 17 16  1  0
 18 19  2  0
 18 20  1  0
M  END
$$$$
