NCA.pdb
     RDKit          3D

 20 19  0  0  1  0  0  0  0  0999 V2000
    9.4661  -18.0733   13.4625 N   0  0  0  0  0  0  0  0  0  0  0  0
    9.4016  -16.6361   13.4033 C   0  0  0  0  0  0  0  0  0  0  0  0
    9.3730  -16.1267   12.2776 O   0  0  0  0  0  0  0  0  0  0  0  0
    9.3762  -15.9175   14.6655 C   0  0  0  0  0  0  0  0  0  0  0  0
    9.4824  -16.7267   15.9249 C   0  0  2  0  0  0  0  0  0  0  0  0
    8.1632  -17.4132   16.0758 N   0  0  0  0  0  0  0  0  0  0  0  0
    9.6745  -15.9523   17.1536 C   0  0  0  0  0  0  0  0  0  0  0  0
   10.8677  -15.5613   17.4192 O   0  0  0  0  0  0  0  0  0  0  0  0
    8.6877  -15.5822   18.0804 N   0  0  0  0  0  0  0  0  0  0  0  0
    9.0433  -14.8900   19.3254 C   0  0  1  0  0  0  0  0  0  0  0  0
    7.7925  -14.2258   19.8757 C   0  0  0  0  0  0  0  0  0  0  0  0
    7.6179  -12.5523   19.2430 S   0  0  0  0  0  0  0  0  0  0  0  0
    9.6126  -15.9098   20.2331 C   0  0  0  0  0  0  0  0  0  0  0  0
    8.8651  -16.8512   20.6518 O   0  0  0  0  0  0  0  0  0  0  0  0
   12.3750  -17.9308   20.9094 C   0  0  0  0  0  0  0  0  0  0  0  0
   11.3934  -17.0036   21.5849 C   0  0  2  0  0  0  0  0  0  0  0  0
   10.9564  -15.9398   20.6945 N   0  0  0  0  0  0  0  0  0  0  0  0
   12.0940  -16.3943   22.7357 C   0  0  0  0  0  0  0  0  0  0  0  0
   12.3686  -15.1747   22.7197 O   0  0  0  0  0  0  0  0  0  0  0  0
   12.4492  -17.1599   23.8304 O   0  0  0  0  0  0  0  0  0  0  0  0
  1  2  1  0
  2  3  2  0
  4  2  1  0
  5  7  1  0
  5  4  1  0
  5  6  1  1
  7  8  2  0
  9 10  1  0
  9  7  1  0
 10 13  1  0
 11 12  1  0
 10 11  1  1
 13 17  1  0
 13 14  2  0
 16 15  1  6
 16 18  1  0
 17 16  1  0
 18 19  2  0
 18 20  1  0
M  END
$$$$
