NCA.pdb
     RDKit          3D

 20 19  0  0  1  0  0  0  0  0999 V2000
   10.6404  -17.7970   33.9568 N   0  0  0  0  0  0  0  0  0  0  0  0
   11.2228  -19.0994   34.1517 C   0  0  0  0  0  0  0  0  0  0  0  0
   11.6063  -19.6942   33.1385 O   0  0  0  0  0  0  0  0  0  0  0  0
   11.3068  -19.5948   35.5146 C   0  0  0  0  0  0  0  0  0  0  0  0
   10.7755  -18.7121   36.6058 C   0  0  2  0  0  0  0  0  0  0  0  0
    9.7937  -17.7994   35.9444 N   0  0  0  0  0  0  0  0  0  0  0  0
   11.7649  -17.8412   37.2455 C   0  0  0  0  0  0  0  0  0  0  0  0
   12.7677  -18.4094   37.8101 O   0  0  0  0  0  0  0  0  0  0  0  0
   11.7407  -16.4393   37.3063 N   0  0  0  0  0  0  0  0  0  0  0  0
   12.8097  -15.6946   37.9832 C   0  0  1  0  0  0  0  0  0  0  0  0
   13.4395  -14.7450   36.9782 C   0  0  0  0  0  0  0  0  0  0  0  0
   12.1894  -13.7375   36.1699 S   0  0  0  0  0  0  0  0  0  0  0  0
   12.1862  -15.0024   39.1321 C   0  0  0  0  0  0  0  0  0  0  0  0
   11.0495  -14.4505   38.9787 O   0  0  0  0  0  0  0  0  0  0  0  0
   12.3124  -14.7124   42.8384 C   0  0  0  0  0  0  0  0  0  0  0  0
   12.0576  -14.1417   41.4640 C   0  0  2  0  0  0  0  0  0  0  0  0
   12.7528  -14.8934   40.4308 N   0  0  0  0  0  0  0  0  0  0  0  0
   12.5765  -12.7571   41.4665 C   0  0  0  0  0  0  0  0  0  0  0  0
   13.5711  -12.4662   40.7669 O   0  0  0  0  0  0  0  0  0  0  0  0
   11.9729  -11.7796   42.2350 O   0  0  0  0  0  0  0  0  0  0  0  0
  1  2  1  0
  2  3  2  0
  4  2  1  0
  5  7  1  0
  5  4  1  0
  5  6  1  6
  7  8  2  0
  9 10  1  0
  9  7  1  0
 10 13  1  0
 11 12  1  0
 10 11  1  6
 13 17  1  0
 13 14  2  0
 16 15  1  1
 16 18  1  0
 17 16  1  0
 18 19  2  0
 18 20  1  0
M  END
$$$$
