NCA.pdb
     RDKit          3D

 20 19  0  0  1  0  0  0  0  0999 V2000
    7.1972  -18.2798   19.8046 N   0  0  0  0  0  0  0  0  0  0  0  0
    7.8742  -17.0708   19.4132 C   0  0  0  0  0  0  0  0  0  0  0  0
    7.9899  -16.8662   18.1998 O   0  0  0  0  0  0  0  0  0  0  0  0
    8.3580  -16.2045   20.4741 C   0  0  0  0  0  0  0  0  0  0  0  0
    8.2974  -16.7300   21.8785 C   0  0  2  0  0  0  0  0  0  0  0  0
    6.8481  -16.9657   22.1588 N   0  0  0  0  0  0  0  0  0  0  0  0
    8.7612  -15.8044   22.9150 C   0  0  0  0  0  0  0  0  0  0  0  0
    9.9891  -15.4348   22.8637 O   0  0  0  0  0  0  0  0  0  0  0  0
    8.0029  -15.2671   23.9668 N   0  0  0  0  0  0  0  0  0  0  0  0
    8.6241  -14.4093   24.9835 C   0  0  1  0  0  0  0  0  0  0  0  0
    7.5681  -13.4520   25.5097 C   0  0  0  0  0  0  0  0  0  0  0  0
    8.1587  -12.5733   26.9624 S   0  0  0  0  0  0  0  0  0  0  0  0
    9.1708  -15.3076   26.0237 C   0  0  0  0  0  0  0  0  0  0  0  0
    8.3923  -16.1356   26.5970 O   0  0  0  0  0  0  0  0  0  0  0  0
   12.4514  -16.5756   27.3344 C   0  0  0  0  0  0  0  0  0  0  0  0
   10.9609  -16.3458   27.4067 C   0  0  2  0  0  0  0  0  0  0  0  0
   10.5245  -15.3357   26.4555 N   0  0  0  0  0  0  0  0  0  0  0  0
   10.6623  -15.8644   28.7725 C   0  0  0  0  0  0  0  0  0  0  0  0
   10.4256  -14.6519   28.9649 O   0  0  0  0  0  0  0  0  0  0  0  0
   10.6423  -16.7418   29.8404 O   0  0  0  0  0  0  0  0  0  0  0  0
  1  2  1  0
  2  3  2  0
  4  2  1  0
  5  7  1  0
  5  4  1  0
  5  6  1  1
  7  8  2  0
  9 10  1  0
  9  7  1  0
 10 13  1  0
 11 12  1  0
 10 11  1  1
 13 17  1  0
 13 14  2  0
 16 15  1  1
 16 18  1  0
 17 16  1  0
 18 19  2  0
 18 20  1  0
M  END
$$$$
