NCA.pdb
     RDKit          3D

 20 19  0  0  1  0  0  0  0  0999 V2000
   13.0742  -17.7173   20.1408 N   0  0  0  0  0  0  0  0  0  0  0  0
   11.8954  -17.1246   19.5642 C   0  0  0  0  0  0  0  0  0  0  0  0
   11.9407  -16.8567   18.3585 O   0  0  0  0  0  0  0  0  0  0  0  0
   10.7646  -16.8957   20.4468 C   0  0  0  0  0  0  0  0  0  0  0  0
   10.9091  -17.3165   21.8800 C   0  0  2  0  0  0  0  0  0  0  0  0
   10.2590  -18.6593   21.9737 N   0  0  0  0  0  0  0  0  0  0  0  0
   10.2195  -16.4681   22.8553 C   0  0  0  0  0  0  0  0  0  0  0  0
   10.5131  -15.2188   22.8562 O   0  0  0  0  0  0  0  0  0  0  0  0
    9.2597  -16.8728   23.7959 N   0  0  0  0  0  0  0  0  0  0  0  0
    8.6340  -15.9013   24.7015 C   0  0  1  0  0  0  0  0  0  0  0  0
    7.2646  -16.4290   25.0947 C   0  0  0  0  0  0  0  0  0  0  0  0
    7.4041  -17.9722   26.0061 S   0  0  0  0  0  0  0  0  0  0  0  0
    9.5506  -15.7373   25.8507 C   0  0  0  0  0  0  0  0  0  0  0  0
   10.5324  -16.5375   25.9776 O   0  0  0  0  0  0  0  0  0  0  0  0
   10.2211  -13.4404   28.7848 C   0  0  0  0  0  0  0  0  0  0  0  0
   10.4467  -14.6413   27.8979 C   0  0  2  0  0  0  0  0  0  0  0  0
    9.4363  -14.7395   26.8563 N   0  0  0  0  0  0  0  0  0  0  0  0
   10.3517  -15.8398   28.7585 C   0  0  0  0  0  0  0  0  0  0  0  0
    9.3566  -16.5913   28.6676 O   0  0  0  0  0  0  0  0  0  0  0  0
   11.3526  -16.1387   29.6638 O   0  0  0  0  0  0  0  0  0  0  0  0
  1  2  1  0
  2  3  2  0
  4  2  1  0
  5  7  1  0
  5  4  1  0
  5  6  1  6
  7  8  2  0
  9 10  1  0
  9  7  1  0
 10 13  1  0
 11 12  1  0
 10 11  1  1
 13 17  1  0
 13 14  2  0
 16 15  1  1
 16 18  1  0
 17 16  1  0
 18 19  2  0
 18 20  1  0
M  END
$$$$
