NCA.pdb
     RDKit          3D

 20 19  0  0  1  0  0  0  0  0999 V2000
    8.6023  -15.4735   18.6074 N   0  0  0  0  0  0  0  0  0  0  0  0
    8.2174  -14.1205   18.9152 C   0  0  0  0  0  0  0  0  0  0  0  0
    8.0420  -13.3606   17.9564 O   0  0  0  0  0  0  0  0  0  0  0  0
    8.0707  -13.7719   20.3177 C   0  0  0  0  0  0  0  0  0  0  0  0
    8.2328  -14.8725   21.3250 C   0  0  2  0  0  0  0  0  0  0  0  0
    6.9122  -15.5712   21.3752 N   0  0  0  0  0  0  0  0  0  0  0  0
    8.5064  -14.4330   22.6955 C   0  0  0  0  0  0  0  0  0  0  0  0
    9.7369  -14.2839   23.0284 O   0  0  0  0  0  0  0  0  0  0  0  0
    7.5625  -14.1491   23.6947 N   0  0  0  0  0  0  0  0  0  0  0  0
    7.9863  -13.8072   25.0581 C   0  0  1  0  0  0  0  0  0  0  0  0
    7.0018  -12.7982   25.6246 C   0  0  0  0  0  0  0  0  0  0  0  0
    5.3748  -13.5322   25.8374 S   0  0  0  0  0  0  0  0  0  0  0  0
    8.0316  -15.0735   25.8212 C   0  0  0  0  0  0  0  0  0  0  0  0
    8.3228  -15.0389   27.0598 O   0  0  0  0  0  0  0  0  0  0  0  0
    7.2524  -18.7493   25.5408 C   0  0  0  0  0  0  0  0  0  0  0  0
    7.9550  -17.5436   26.1172 C   0  0  2  0  0  0  0  0  0  0  0  0
    7.7710  -16.3641   25.2863 N   0  0  0  0  0  0  0  0  0  0  0  0
    9.3977  -17.8641   26.1644 C   0  0  0  0  0  0  0  0  0  0  0  0
   10.2043  -17.1949   25.4827 O   0  0  0  0  0  0  0  0  0  0  0  0
    9.8648  -18.8971   26.9552 O   0  0  0  0  0  0  0  0  0  0  0  0
  1  2  1  0
  2  3  2  0
  4  2  1  0
  5  7  1  0
  5  4  1  0
  5  6  1  1
  7  8  2  0
  9 10  1  0
  9  7  1  0
 10 13  1  0
 11 12  1  0
 10 11  1  1
 13 17  1  0
 13 14  2  0
 16 15  1  6
 16 18  1  0
 17 16  1  0
 18 19  2  0
 18 20  1  0
M  END
$$$$
