NCA.pdb
     RDKit          3D

 20 19  0  0  1  0  0  0  0  0999 V2000
    7.2137  -13.4747   17.8816 N   0  0  0  0  0  0  0  0  0  0  0  0
    7.2420  -14.7455   18.5580 C   0  0  0  0  0  0  0  0  0  0  0  0
    7.0714  -15.7510   17.8598 O   0  0  0  0  0  0  0  0  0  0  0  0
    7.4672  -14.7319   19.9930 C   0  0  0  0  0  0  0  0  0  0  0  0
    7.4653  -13.3982   20.6812 C   0  0  2  0  0  0  0  0  0  0  0  0
    8.4718  -12.5670   19.9529 N   0  0  0  0  0  0  0  0  0  0  0  0
    7.8961  -13.4145   22.0814 C   0  0  0  0  0  0  0  0  0  0  0  0
    9.1570  -13.3365   22.3074 O   0  0  0  0  0  0  0  0  0  0  0  0
    7.0744  -13.5020   23.2158 N   0  0  0  0  0  0  0  0  0  0  0  0
    7.6459  -13.4528   24.5672 C   0  0  1  0  0  0  0  0  0  0  0  0
    6.6554  -12.7478   25.4785 C   0  0  0  0  0  0  0  0  0  0  0  0
    7.1577  -12.8746   27.1998 S   0  0  0  0  0  0  0  0  0  0  0  0
    7.9171  -14.8508   24.9671 C   0  0  0  0  0  0  0  0  0  0  0  0
    6.9653  -15.6957   24.9461 O   0  0  0  0  0  0  0  0  0  0  0  0
   10.4954  -17.4067   25.0966 C   0  0  0  0  0  0  0  0  0  0  0  0
    9.3100  -16.7530   25.7652 C   0  0  2  0  0  0  0  0  0  0  0  0
    9.1787  -15.3556   25.3834 N   0  0  0  0  0  0  0  0  0  0  0  0
    9.5428  -16.8212   27.2237 C   0  0  0  0  0  0  0  0  0  0  0  0
    9.5647  -15.7686   27.8982 O   0  0  0  0  0  0  0  0  0  0  0  0
    9.7370  -18.0378   27.8504 O   0  0  0  0  0  0  0  0  0  0  0  0
  1  2  1  0
  2  3  2  0
  4  2  1  0
  5  7  1  0
  5  4  1  0
  5  6  1  6
  7  8  2  0
  9 10  1  0
  9  7  1  0
 10 13  1  0
 11 12  1  0
 10 11  1  1
 13 17  1  0
 13 14  2  0
 16 15  1  6
 16 18  1  0
 17 16  1  0
 18 19  2  0
 18 20  1  0
M  END
$$$$
