NCA.pdb
     RDKit          3D

 20 19  0  0  1  0  0  0  0  0999 V2000
    8.8524  -16.9419   17.9860 N   0  0  0  0  0  0  0  0  0  0  0  0
    9.6621  -17.0528   19.1715 C   0  0  0  0  0  0  0  0  0  0  0  0
   10.4792  -17.9796   19.2020 O   0  0  0  0  0  0  0  0  0  0  0  0
    9.4470  -16.0706   20.2199 C   0  0  0  0  0  0  0  0  0  0  0  0
    9.4064  -16.5671   21.6355 C   0  0  2  0  0  0  0  0  0  0  0  0
    8.1583  -17.3829   21.7413 N   0  0  0  0  0  0  0  0  0  0  0  0
    9.2943  -15.5275   22.6617 C   0  0  0  0  0  0  0  0  0  0  0  0
   10.1860  -14.6045   22.6605 O   0  0  0  0  0  0  0  0  0  0  0  0
    8.3070  -15.4246   23.6539 N   0  0  0  0  0  0  0  0  0  0  0  0
    8.3357  -14.3345   24.6369 C   0  0  1  0  0  0  0  0  0  0  0  0
    6.9076  -14.0380   25.0622 C   0  0  0  0  0  0  0  0  0  0  0  0
    6.3588  -15.1886   26.3295 S   0  0  0  0  0  0  0  0  0  0  0  0
    9.1967  -14.7872   25.7512 C   0  0  0  0  0  0  0  0  0  0  0  0
    9.6523  -15.9757   25.7370 O   0  0  0  0  0  0  0  0  0  0  0  0
   10.8425  -13.5098   28.9144 C   0  0  0  0  0  0  0  0  0  0  0  0
   10.5162  -14.5248   27.8453 C   0  0  2  0  0  0  0  0  0  0  0  0
    9.5762  -13.9963   26.8692 N   0  0  0  0  0  0  0  0  0  0  0  0
    9.8900  -15.6809   28.5217 C   0  0  0  0  0  0  0  0  0  0  0  0
    8.6700  -15.9053   28.3647 O   0  0  0  0  0  0  0  0  0  0  0  0
   10.6399  -16.5173   29.3271 O   0  0  0  0  0  0  0  0  0  0  0  0
  1  2  1  0
  2  3  2  0
  4  2  1  0
  5  7  1  0
  5  4  1  0
  5  6  1  6
  7  8  2  0
  9 10  1  0
  9  7  1  0
 10 13  1  0
 11 12  1  0
 10 11  1  1
 13 17  1  0
 13 14  2  0
 16 15  1  1
 16 18  1  0
 17 16  1  0
 18 19  2  0
 18 20  1  0
M  END
$$$$
