NCA.pdb
     RDKit          3D

 20 19  0  0  1  0  0  0  0  0999 V2000
    6.6719  -16.0450   18.5183 N   0  0  0  0  0  0  0  0  0  0  0  0
    6.4943  -16.9768   19.6016 C   0  0  0  0  0  0  0  0  0  0  0  0
    6.0368  -18.0874   19.3103 O   0  0  0  0  0  0  0  0  0  0  0  0
    6.8667  -16.5302   20.9328 C   0  0  0  0  0  0  0  0  0  0  0  0
    7.2890  -15.0987   21.0896 C   0  0  2  0  0  0  0  0  0  0  0  0
    8.2148  -14.8239   19.9487 N   0  0  0  0  0  0  0  0  0  0  0  0
    8.0501  -14.7990   22.3050 C   0  0  0  0  0  0  0  0  0  0  0  0
    9.3279  -14.8960   22.2350 O   0  0  0  0  0  0  0  0  0  0  0  0
    7.5324  -14.4090   23.5498 N   0  0  0  0  0  0  0  0  0  0  0  0
    8.4154  -14.2112   24.7060 C   0  0  1  0  0  0  0  0  0  0  0  0
    7.6891  -13.3405   25.7173 C   0  0  0  0  0  0  0  0  0  0  0  0
    6.0560  -13.9977   26.0811 S   0  0  0  0  0  0  0  0  0  0  0  0
    8.7487  -15.5562   25.2234 C   0  0  0  0  0  0  0  0  0  0  0  0
    7.8522  -16.4598   25.2197 O   0  0  0  0  0  0  0  0  0  0  0  0
   11.5538  -17.8570   25.6618 C   0  0  0  0  0  0  0  0  0  0  0  0
   10.2319  -17.3227   26.1586 C   0  0  2  0  0  0  0  0  0  0  0  0
   10.0142  -15.9474   25.7384 N   0  0  0  0  0  0  0  0  0  0  0  0
   10.2767  -17.3606   27.6361 C   0  0  0  0  0  0  0  0  0  0  0  0
   10.0916  -16.3107   28.2893 O   0  0  0  0  0  0  0  0  0  0  0  0
   10.5215  -18.5459   28.3037 O   0  0  0  0  0  0  0  0  0  0  0  0
  1  2  1  0
  2  3  2  0
  4  2  1  0
  5  7  1  0
  5  4  1  0
  5  6  1  6
  7  8  2  0
  9 10  1  0
  9  7  1  0
 10 13  1  0
 11 12  1  0
 10 11  1  1
 13 17  1  0
 13 14  2  0
 16 15  1  6
 16 18  1  0
 17 16  1  0
 18 19  2  0
 18 20  1  0
M  END
$$$$
