WYF.pdb
     RDKit          3D

 38 41  0  0  1  0  0  0  0  0999 V2000
    6.1905  -18.5678   23.3169 N   0  0  0  0  0  0  0  0  0  0  0  0
    6.7946  -17.2301   23.5221 C   0  0  1  0  0  0  0  0  0  0  0  0
    6.9251  -17.1158   25.0277 C   0  0  0  0  0  0  0  0  0  0  0  0
    6.2951  -15.8974   25.5444 C   0  0  0  0  0  0  0  0  0  0  0  0
    5.1619  -15.8234   26.3644 C   0  0  0  0  0  0  0  0  0  0  0  0
    4.9110  -14.5283   26.6032 N   0  0  0  0  0  0  0  0  0  0  0  0
    5.8147  -13.7384   25.9874 C   0  0  0  0  0  0  0  0  0  0  0  0
    5.9930  -12.3644   25.9182 C   0  0  0  0  0  0  0  0  0  0  0  0
    7.0298  -11.8163   25.1926 C   0  0  0  0  0  0  0  0  0  0  0  0
    7.8895  -12.6687   24.5346 C   0  0  0  0  0  0  0  0  0  0  0  0
    7.7154  -14.0338   24.6016 C   0  0  0  0  0  0  0  0  0  0  0  0
    6.6703  -14.5868   25.3327 C   0  0  0  0  0  0  0  0  0  0  0  0
    8.1496  -17.2167   22.9067 C   0  0  0  0  0  0  0  0  0  0  0  0
    8.7681  -18.3182   22.6776 O   0  0  0  0  0  0  0  0  0  0  0  0
    6.6338  -13.5472   17.0342 O   0  0  0  0  0  0  0  0  0  0  0  0
    7.5408  -13.8760   18.0238 C   0  0  0  0  0  0  0  0  0  0  0  0
    8.0489  -15.1500   18.1871 C   0  0  0  0  0  0  0  0  0  0  0  0
    8.9578  -15.4627   19.1854 C   0  0  0  0  0  0  0  0  0  0  0  0
    9.3903  -14.4903   20.0630 C   0  0  0  0  0  0  0  0  0  0  0  0
   10.3401  -14.6971   21.1545 C   0  0  0  0  0  0  0  0  0  0  0  0
   10.1287  -16.0426   21.8801 C   0  0  2  0  0  0  0  0  0  0  0  0
    8.8537  -16.0482   22.5298 N   0  0  0  0  0  0  0  0  0  0  0  0
   11.2899  -16.2481   22.7570 C   0  0  0  0  0  0  0  0  0  0  0  0
   12.4859  -16.1673   22.4391 O   0  0  0  0  0  0  0  0  0  0  0  0
    8.8708  -13.2101   19.8875 C   0  0  0  0  0  0  0  0  0  0  0  0
    7.9723  -12.9036   18.8999 C   0  0  0  0  0  0  0  0  0  0  0  0
   11.0207  -16.5777   24.1339 N   0  0  0  0  0  0  0  0  0  0  0  0
   12.1157  -16.8532   25.0570 C   0  0  1  0  0  0  0  0  0  0  0  0
   11.4822  -17.1118   26.4107 C   0  0  0  0  0  0  0  0  0  0  0  0
   10.8630  -15.9210   27.0136 C   0  0  0  0  0  0  0  0  0  0  0  0
   10.2099  -15.9625   28.2249 C   0  0  0  0  0  0  0  0  0  0  0  0
    9.6383  -14.8409   28.7897 C   0  0  0  0  0  0  0  0  0  0  0  0
    9.7000  -13.6166   28.1526 C   0  0  0  0  0  0  0  0  0  0  0  0
   10.3505  -13.5690   26.9431 C   0  0  0  0  0  0  0  0  0  0  0  0
   10.9306  -14.6834   26.3603 C   0  0  0  0  0  0  0  0  0  0  0  0
   12.8307  -18.0596   24.6220 C   0  0  0  0  0  0  0  0  0  0  0  0
   12.3343  -18.8360   23.5985 O   0  0  0  0  0  0  0  0  0  0  0  0
   13.8963  -18.3857   25.1828 O   0  0  0  0  0  0  0  0  0  0  0  0
  2  1  1  1
  3  4  1  0
  3  2  1  0
  4  5  2  0
  6  5  1  0
  7  6  1  0
  8  7  2  0
  9  8  1  0
 10  9  2  0
 10 11  1  0
 11 12  2  0
 12  7  1  0
 12  4  1  0
 13  2  1  0
 14 13  2  0
 15 16  1  0
 16 17  2  0
 17 18  1  0
 19 20  1  0
 19 18  2  0
 21 20  1  1
 21 22  1  0
 21 23  1  0
 22 13  1  0
 23 27  1  0
 23 24  2  0
 25 19  1  0
 26 25  2  0
 26 16  1  0
 27 28  1  0
 28 29  1  1
 29 30  1  0
 30 35  1  0
 30 31  2  0
 31 32  1  0
 32 33  2  0
 34 33  1  0
 35 34  2  0
 36 28  1  0
 36 37  1  0
 38 36  2  0
M  END
$$$$
