WYF.pdb
     RDKit          3D

 38 41  0  0  1  0  0  0  0  0999 V2000
    8.4033  -16.7551   21.0210 N   0  0  0  0  0  0  0  0  0  0  0  0
    7.6169  -15.8412   21.8828 C   0  0  1  0  0  0  0  0  0  0  0  0
    6.3545  -15.5833   21.0849 C   0  0  0  0  0  0  0  0  0  0  0  0
    6.6222  -14.8239   19.8601 C   0  0  0  0  0  0  0  0  0  0  0  0
    6.0463  -15.0349   18.6009 C   0  0  0  0  0  0  0  0  0  0  0  0
    6.5648  -14.1331   17.7552 N   0  0  0  0  0  0  0  0  0  0  0  0
    7.4529  -13.3351   18.3831 C   0  0  0  0  0  0  0  0  0  0  0  0
    8.2454  -12.2749   17.9677 C   0  0  0  0  0  0  0  0  0  0  0  0
    9.0859  -11.6263   18.8478 C   0  0  0  0  0  0  0  0  0  0  0  0
    9.1208  -12.0570   20.1563 C   0  0  0  0  0  0  0  0  0  0  0  0
    8.3347  -13.1094   20.5721 C   0  0  0  0  0  0  0  0  0  0  0  0
    7.4874  -13.7637   19.6853 C   0  0  0  0  0  0  0  0  0  0  0  0
    7.2681  -16.5524   23.1427 C   0  0  0  0  0  0  0  0  0  0  0  0
    6.4312  -16.0358   23.9680 O   0  0  0  0  0  0  0  0  0  0  0  0
    8.3774  -22.0477   30.0569 O   0  0  0  0  0  0  0  0  0  0  0  0
    8.1563  -21.4946   28.8099 C   0  0  0  0  0  0  0  0  0  0  0  0
    6.9188  -21.0428   28.3946 C   0  0  0  0  0  0  0  0  0  0  0  0
    6.7145  -20.4909   27.1399 C   0  0  0  0  0  0  0  0  0  0  0  0
    7.7630  -20.3744   26.2512 C   0  0  0  0  0  0  0  0  0  0  0  0
    7.6724  -19.8150   24.9039 C   0  0  0  0  0  0  0  0  0  0  0  0
    7.8413  -18.2812   24.8839 C   0  0  2  0  0  0  0  0  0  0  0  0
    7.7954  -17.8059   23.5349 N   0  0  0  0  0  0  0  0  0  0  0  0
    9.0718  -17.9720   25.6253 C   0  0  0  0  0  0  0  0  0  0  0  0
   10.2058  -18.4241   25.4067 O   0  0  0  0  0  0  0  0  0  0  0  0
    9.0054  -20.8334   26.6821 C   0  0  0  0  0  0  0  0  0  0  0  0
    9.2047  -21.3786   27.9228 C   0  0  0  0  0  0  0  0  0  0  0  0
    8.9595  -17.0458   26.7237 N   0  0  0  0  0  0  0  0  0  0  0  0
   10.1542  -16.5246   27.3779 C   0  0  1  0  0  0  0  0  0  0  0  0
   10.4081  -15.1537   26.7806 C   0  0  0  0  0  0  0  0  0  0  0  0
    9.2283  -14.2746   26.7891 C   0  0  0  0  0  0  0  0  0  0  0  0
    8.2011  -14.4100   25.8825 C   0  0  0  0  0  0  0  0  0  0  0  0
    7.0930  -13.5882   25.9003 C   0  0  0  0  0  0  0  0  0  0  0  0
    6.9701  -12.5841   26.8412 C   0  0  0  0  0  0  0  0  0  0  0  0
    7.9924  -12.4441   27.7487 C   0  0  0  0  0  0  0  0  0  0  0  0
    9.1121  -13.2590   27.7472 C   0  0  0  0  0  0  0  0  0  0  0  0
    9.9017  -16.3832   28.8173 C   0  0  0  0  0  0  0  0  0  0  0  0
    8.6678  -16.6933   29.3448 O   0  0  0  0  0  0  0  0  0  0  0  0
   10.8105  -15.9787   29.5702 O   0  0  0  0  0  0  0  0  0  0  0  0
  2  1  1  6
  3  4  1  0
  3  2  1  0
  4  5  2  0
  6  5  1  0
  7  6  1  0
  8  7  2  0
  9  8  1  0
 10  9  2  0
 10 11  1  0
 11 12  2  0
 12  7  1  0
 12  4  1  0
 13  2  1  0
 14 13  2  0
 15 16  1  0
 16 17  2  0
 17 18  1  0
 19 20  1  0
 19 18  2  0
 21 20  1  6
 21 22  1  0
 21 23  1  0
 22 13  1  0
 23 27  1  0
 23 24  2  0
 25 19  1  0
 26 25  2  0
 26 16  1  0
 27 28  1  0
 28 29  1  6
 29 30  1  0
 30 35  1  0
 30 31  2  0
 31 32  1  0
 32 33  2  0
 34 33  1  0
 35 34  2  0
 36 28  1  0
 36 37  1  0
 38 36  2  0
M  END
$$$$
