WYF.pdb
     RDKit          3D

 38 41  0  0  1  0  0  0  0  0999 V2000
    6.3075  -18.6624   22.8238 N   0  0  0  0  0  0  0  0  0  0  0  0
    6.8813  -17.3349   23.1478 C   0  0  1  0  0  0  0  0  0  0  0  0
    6.9932  -17.3447   24.6592 C   0  0  0  0  0  0  0  0  0  0  0  0
    6.1475  -16.3218   25.2809 C   0  0  0  0  0  0  0  0  0  0  0  0
    5.0000  -16.5401   26.0539 C   0  0  0  0  0  0  0  0  0  0  0  0
    4.5204  -15.3444   26.4248 N   0  0  0  0  0  0  0  0  0  0  0  0
    5.2858  -14.3444   25.9412 C   0  0  0  0  0  0  0  0  0  0  0  0
    5.2222  -12.9617   26.0340 C   0  0  0  0  0  0  0  0  0  0  0  0
    6.1636  -12.1625   25.4202 C   0  0  0  0  0  0  0  0  0  0  0  0
    7.1746  -12.7715   24.7090 C   0  0  0  0  0  0  0  0  0  0  0  0
    7.2409  -14.1445   24.6152 C   0  0  0  0  0  0  0  0  0  0  0  0
    6.2921  -14.9506   25.2337 C   0  0  0  0  0  0  0  0  0  0  0  0
    8.2422  -17.2429   22.5524 C   0  0  0  0  0  0  0  0  0  0  0  0
    8.8714  -18.3072   22.2065 O   0  0  0  0  0  0  0  0  0  0  0  0
    6.7753  -13.4305   17.1570 O   0  0  0  0  0  0  0  0  0  0  0  0
    7.6734  -13.6757   18.1783 C   0  0  0  0  0  0  0  0  0  0  0  0
    7.6375  -13.0116   19.3890 C   0  0  0  0  0  0  0  0  0  0  0  0
    8.5465  -13.2697   20.4027 C   0  0  0  0  0  0  0  0  0  0  0  0
    9.5339  -14.2171   20.2282 C   0  0  0  0  0  0  0  0  0  0  0  0
   10.5484  -14.5745   21.2179 C   0  0  0  0  0  0  0  0  0  0  0  0
   10.2940  -15.9551   21.8588 C   0  0  2  0  0  0  0  0  0  0  0  0
    8.9410  -16.0346   22.3182 N   0  0  0  0  0  0  0  0  0  0  0  0
   11.3266  -16.1521   22.8855 C   0  0  0  0  0  0  0  0  0  0  0  0
   12.5548  -16.0828   22.7285 O   0  0  0  0  0  0  0  0  0  0  0  0
    9.5591  -14.8796   19.0034 C   0  0  0  0  0  0  0  0  0  0  0  0
    8.6595  -14.6226   18.0029 C   0  0  0  0  0  0  0  0  0  0  0  0
   10.8742  -16.4576   24.2194 N   0  0  0  0  0  0  0  0  0  0  0  0
   11.8173  -16.9102   25.2355 C   0  0  1  0  0  0  0  0  0  0  0  0
   11.1939  -16.5800   26.5783 C   0  0  0  0  0  0  0  0  0  0  0  0
   11.2708  -15.1543   26.9341 C   0  0  0  0  0  0  0  0  0  0  0  0
   12.2049  -14.6643   27.8189 C   0  0  0  0  0  0  0  0  0  0  0  0
   12.2780  -13.3250   28.1424 C   0  0  0  0  0  0  0  0  0  0  0  0
   11.4047  -12.4121   27.5836 C   0  0  0  0  0  0  0  0  0  0  0  0
   10.4700  -12.8954   26.6998 C   0  0  0  0  0  0  0  0  0  0  0  0
   10.3810  -14.2356   26.3622 C   0  0  0  0  0  0  0  0  0  0  0  0
   11.9901  -18.3644   25.1299 C   0  0  0  0  0  0  0  0  0  0  0  0
   12.9470  -19.0114   25.8801 O   0  0  0  0  0  0  0  0  0  0  0  0
   11.2657  -19.0210   24.3549 O   0  0  0  0  0  0  0  0  0  0  0  0
  2  1  1  6
  3  4  1  0
  3  2  1  0
  4  5  2  0
  6  5  1  0
  7  6  1  0
  8  7  2  0
  9  8  1  0
 10  9  2  0
 10 11  1  0
 11 12  2  0
 12  7  1  0
 12  4  1  0
 13  2  1  0
 14 13  2  0
 15 16  1  0
 16 17  2  0
 17 18  1  0
 19 20  1  0
 19 18  2  0
 21 20  1  1
 21 22  1  0
 21 23  1  0
 22 13  1  0
 23 27  1  0
 23 24  2  0
 25 19  1  0
 26 25  2  0
 26 16  1  0
 27 28  1  0
 28 29  1  1
 29 30  1  0
 30 35  1  0
 30 31  2  0
 31 32  1  0
 32 33  2  0
 34 33  1  0
 35 34  2  0
 36 28  1  0
 36 37  1  0
 38 36  2  0
M  END
$$$$
