WYF.pdb
     RDKit          3D

 38 41  0  0  1  0  0  0  0  0999 V2000
    6.0720  -18.2835   21.3410 N   0  0  0  0  0  0  0  0  0  0  0  0
    6.9340  -17.2316   21.9298 C   0  0  1  0  0  0  0  0  0  0  0  0
    6.1893  -15.9441   21.6385 C   0  0  0  0  0  0  0  0  0  0  0  0
    6.6401  -15.3165   20.3931 C   0  0  0  0  0  0  0  0  0  0  0  0
    6.2764  -15.6829   19.0910 C   0  0  0  0  0  0  0  0  0  0  0  0
    6.9121  -14.8641   18.2407 N   0  0  0  0  0  0  0  0  0  0  0  0
    7.6775  -13.9746   18.9060 C   0  0  0  0  0  0  0  0  0  0  0  0
    8.5124  -12.9426   18.5031 C   0  0  0  0  0  0  0  0  0  0  0  0
    9.1923  -12.1751   19.4253 C   0  0  0  0  0  0  0  0  0  0  0  0
    9.0225  -12.4576   20.7632 C   0  0  0  0  0  0  0  0  0  0  0  0
    8.1937  -13.4816   21.1667 C   0  0  0  0  0  0  0  0  0  0  0  0
    7.5083  -14.2557   20.2375 C   0  0  0  0  0  0  0  0  0  0  0  0
    7.0050  -17.4387   23.4019 C   0  0  0  0  0  0  0  0  0  0  0  0
    5.9858  -17.1883   24.1413 O   0  0  0  0  0  0  0  0  0  0  0  0
    4.5287  -23.1182   24.9349 O   0  0  0  0  0  0  0  0  0  0  0  0
    5.5096  -22.1925   25.2366 C   0  0  0  0  0  0  0  0  0  0  0  0
    5.5266  -21.4690   26.4131 C   0  0  0  0  0  0  0  0  0  0  0  0
    6.5180  -20.5440   26.6996 C   0  0  0  0  0  0  0  0  0  0  0  0
    7.5376  -20.3146   25.7993 C   0  0  0  0  0  0  0  0  0  0  0  0
    8.6338  -19.3659   25.9857 C   0  0  0  0  0  0  0  0  0  0  0  0
    8.2715  -17.9394   25.5219 C   0  0  2  0  0  0  0  0  0  0  0  0
    8.1442  -17.9104   24.0969 N   0  0  0  0  0  0  0  0  0  0  0  0
    9.2785  -17.0315   26.0887 C   0  0  0  0  0  0  0  0  0  0  0  0
   10.2787  -16.5772   25.5131 O   0  0  0  0  0  0  0  0  0  0  0  0
    7.5091  -21.0505   24.6173 C   0  0  0  0  0  0  0  0  0  0  0  0
    6.5279  -21.9642   24.3363 C   0  0  0  0  0  0  0  0  0  0  0  0
    9.0925  -16.6192   27.4570 N   0  0  0  0  0  0  0  0  0  0  0  0
   10.0477  -15.7213   28.0961 C   0  0  1  0  0  0  0  0  0  0  0  0
    9.2424  -14.8152   29.0079 C   0  0  0  0  0  0  0  0  0  0  0  0
    8.2277  -14.0151   28.3044 C   0  0  0  0  0  0  0  0  0  0  0  0
    6.9300  -14.4459   28.1436 C   0  0  0  0  0  0  0  0  0  0  0  0
    5.9803  -13.6877   27.4903 C   0  0  0  0  0  0  0  0  0  0  0  0
    6.2995  -12.4504   26.9651 C   0  0  0  0  0  0  0  0  0  0  0  0
    7.5934  -12.0152   27.1223 C   0  0  0  0  0  0  0  0  0  0  0  0
    8.5605  -12.7613   27.7750 C   0  0  0  0  0  0  0  0  0  0  0  0
   10.9896  -16.5044   28.9056 C   0  0  0  0  0  0  0  0  0  0  0  0
   12.0852  -15.9014   29.4825 O   0  0  0  0  0  0  0  0  0  0  0  0
   10.7979  -17.7257   29.0731 O   0  0  0  0  0  0  0  0  0  0  0  0
  2  1  1  6
  3  4  1  0
  3  2  1  0
  4  5  2  0
  6  5  1  0
  7  6  1  0
  8  7  2  0
  9  8  1  0
 10  9  2  0
 10 11  1  0
 11 12  2  0
 12  7  1  0
 12  4  1  0
 13  2  1  0
 14 13  2  0
 15 16  1  0
 16 17  2  0
 17 18  1  0
 19 20  1  0
 19 18  2  0
 21 20  1  6
 21 22  1  0
 21 23  1  0
 22 13  1  0
 23 27  1  0
 23 24  2  0
 25 19  1  0
 26 25  2  0
 26 16  1  0
 27 28  1  0
 28 29  1  1
 29 30  1  0
 30 35  1  0
 30 31  2  0
 31 32  1  0
 32 33  2  0
 34 33  1  0
 35 34  2  0
 36 28  1  0
 36 37  1  0
 38 36  2  0
M  END
$$$$
