WYF.pdb
     RDKit          3D

 38 41  0  0  1  0  0  0  0  0999 V2000
    8.8204  -17.5307   20.2801 N   0  0  0  0  0  0  0  0  0  0  0  0
    9.1753  -16.5409   21.3244 C   0  0  1  0  0  0  0  0  0  0  0  0
    7.8573  -15.8687   21.6532 C   0  0  0  0  0  0  0  0  0  0  0  0
    7.4289  -14.9490   20.5954 C   0  0  0  0  0  0  0  0  0  0  0  0
    6.2869  -15.0685   19.7933 C   0  0  0  0  0  0  0  0  0  0  0  0
    6.2663  -14.0271   18.9493 N   0  0  0  0  0  0  0  0  0  0  0  0
    7.3312  -13.2228   19.1466 C   0  0  0  0  0  0  0  0  0  0  0  0
    7.7646  -12.0476   18.5502 C   0  0  0  0  0  0  0  0  0  0  0  0
    8.9240  -11.4251   18.9626 C   0  0  0  0  0  0  0  0  0  0  0  0
    9.6460  -11.9995   19.9860 C   0  0  0  0  0  0  0  0  0  0  0  0
    9.2182  -13.1665   20.5807 C   0  0  0  0  0  0  0  0  0  0  0  0
    8.0496  -13.7945   20.1652 C   0  0  0  0  0  0  0  0  0  0  0  0
    9.6718  -17.2676   22.5245 C   0  0  0  0  0  0  0  0  0  0  0  0
    9.1436  -18.3857   22.8695 O   0  0  0  0  0  0  0  0  0  0  0  0
   13.5249  -18.7195   30.4061 O   0  0  0  0  0  0  0  0  0  0  0  0
   13.2429  -18.3318   29.1098 C   0  0  0  0  0  0  0  0  0  0  0  0
   13.2000  -19.2176   28.0508 C   0  0  0  0  0  0  0  0  0  0  0  0
   12.9159  -18.8117   26.7566 C   0  0  0  0  0  0  0  0  0  0  0  0
   12.6623  -17.4837   26.4831 C   0  0  0  0  0  0  0  0  0  0  0  0
   12.3549  -16.9349   25.1637 C   0  0  0  0  0  0  0  0  0  0  0  0
   10.9054  -17.2257   24.7213 C   0  0  2  0  0  0  0  0  0  0  0  0
   10.7235  -16.8221   23.3604 N   0  0  0  0  0  0  0  0  0  0  0  0
   10.0174  -16.5819   25.6993 C   0  0  0  0  0  0  0  0  0  0  0  0
   10.0859  -15.4139   26.1107 O   0  0  0  0  0  0  0  0  0  0  0  0
   12.7082  -16.6010   27.5594 C   0  0  0  0  0  0  0  0  0  0  0  0
   12.9895  -17.0047   28.8378 C   0  0  0  0  0  0  0  0  0  0  0  0
    8.9506  -17.3840   26.2430 N   0  0  0  0  0  0  0  0  0  0  0  0
    8.3191  -17.0185   27.5057 C   0  0  1  0  0  0  0  0  0  0  0  0
    6.8912  -16.6280   27.1752 C   0  0  0  0  0  0  0  0  0  0  0  0
    6.7765  -15.3488   26.4572 C   0  0  0  0  0  0  0  0  0  0  0  0
    6.4768  -15.2806   25.1153 C   0  0  0  0  0  0  0  0  0  0  0  0
    6.3621  -14.0780   24.4488 C   0  0  0  0  0  0  0  0  0  0  0  0
    6.5465  -12.8799   25.1115 C   0  0  0  0  0  0  0  0  0  0  0  0
    6.8462  -12.9417   26.4511 C   0  0  0  0  0  0  0  0  0  0  0  0
    6.9651  -14.1387   27.1375 C   0  0  0  0  0  0  0  0  0  0  0  0
    8.3048  -18.1824   28.4007 C   0  0  0  0  0  0  0  0  0  0  0  0
    7.8398  -18.0661   29.6919 O   0  0  0  0  0  0  0  0  0  0  0  0
    8.7168  -19.2861   27.9904 O   0  0  0  0  0  0  0  0  0  0  0  0
  2  1  1  6
  3  4  1  0
  3  2  1  0
  4  5  2  0
  6  5  1  0
  7  6  1  0
  8  7  2  0
  9  8  1  0
 10  9  2  0
 10 11  1  0
 11 12  2  0
 12  7  1  0
 12  4  1  0
 13  2  1  0
 14 13  2  0
 15 16  1  0
 16 17  2  0
 17 18  1  0
 19 20  1  0
 19 18  2  0
 21 20  1  1
 21 22  1  0
 21 23  1  0
 22 13  1  0
 23 27  1  0
 23 24  2  0
 25 19  1  0
 26 25  2  0
 26 16  1  0
 27 28  1  0
 28 29  1  6
 29 30  1  0
 30 35  1  0
 30 31  2  0
 31 32  1  0
 32 33  2  0
 34 33  1  0
 35 34  2  0
 36 28  1  0
 36 37  1  0
 38 36  2  0
M  END
$$$$
