WYF.pdb
     RDKit          3D

 38 41  0  0  1  0  0  0  0  0999 V2000
    6.5519  -19.0615   22.6501 N   0  0  0  0  0  0  0  0  0  0  0  0
    6.8865  -17.6628   23.0083 C   0  0  1  0  0  0  0  0  0  0  0  0
    6.8808  -17.6630   24.5239 C   0  0  0  0  0  0  0  0  0  0  0  0
    6.0508  -16.5864   25.0718 C   0  0  0  0  0  0  0  0  0  0  0  0
    4.8790  -16.7327   25.8251 C   0  0  0  0  0  0  0  0  0  0  0  0
    4.4261  -15.5067   26.1234 N   0  0  0  0  0  0  0  0  0  0  0  0
    5.2321  -14.5545   25.6101 C   0  0  0  0  0  0  0  0  0  0  0  0
    5.2070  -13.1676   25.6319 C   0  0  0  0  0  0  0  0  0  0  0  0
    6.1860  -12.4275   25.0031 C   0  0  0  0  0  0  0  0  0  0  0  0
    7.1955  -13.1001   24.3494 C   0  0  0  0  0  0  0  0  0  0  0  0
    7.2236  -14.4774   24.3262 C   0  0  0  0  0  0  0  0  0  0  0  0
    6.2368  -15.2240   24.9597 C   0  0  0  0  0  0  0  0  0  0  0  0
    8.2589  -17.3583   22.5198 C   0  0  0  0  0  0  0  0  0  0  0  0
    9.1166  -18.3014   22.3673 O   0  0  0  0  0  0  0  0  0  0  0  0
    7.3288  -13.1756   16.5557 O   0  0  0  0  0  0  0  0  0  0  0  0
    8.0378  -13.4950   17.6982 C   0  0  0  0  0  0  0  0  0  0  0  0
    8.7497  -14.6703   17.8395 C   0  0  0  0  0  0  0  0  0  0  0  0
    9.4552  -14.9750   18.9927 C   0  0  0  0  0  0  0  0  0  0  0  0
    9.4672  -14.0948   20.0548 C   0  0  0  0  0  0  0  0  0  0  0  0
   10.1686  -14.3045   21.3199 C   0  0  0  0  0  0  0  0  0  0  0  0
   10.0779  -15.7629   21.8159 C   0  0  2  0  0  0  0  0  0  0  0  0
    8.7299  -16.0652   22.1894 N   0  0  0  0  0  0  0  0  0  0  0  0
   11.0824  -15.9222   22.8767 C   0  0  0  0  0  0  0  0  0  0  0  0
   12.2945  -15.6723   22.7972 O   0  0  0  0  0  0  0  0  0  0  0  0
    8.7459  -12.9136   19.8997 C   0  0  0  0  0  0  0  0  0  0  0  0
    8.0492  -12.6148   18.7587 C   0  0  0  0  0  0  0  0  0  0  0  0
   10.6196  -16.4198   24.1476 N   0  0  0  0  0  0  0  0  0  0  0  0
   11.5667  -16.7140   25.2168 C   0  0  1  0  0  0  0  0  0  0  0  0
   10.7454  -16.9107   26.4768 C   0  0  0  0  0  0  0  0  0  0  0  0
   10.2712  -15.6545   27.0785 C   0  0  0  0  0  0  0  0  0  0  0  0
    9.1368  -15.0090   26.6404 C   0  0  0  0  0  0  0  0  0  0  0  0
    8.6919  -13.8356   27.2139 C   0  0  0  0  0  0  0  0  0  0  0  0
    9.3771  -13.2554   28.2638 C   0  0  0  0  0  0  0  0  0  0  0  0
   10.5104  -13.8951   28.7053 C   0  0  0  0  0  0  0  0  0  0  0  0
   10.9725  -15.0733   28.1430 C   0  0  0  0  0  0  0  0  0  0  0  0
   12.2812  -17.9592   24.9089 C   0  0  0  0  0  0  0  0  0  0  0  0
   11.9214  -18.7209   23.8194 O   0  0  0  0  0  0  0  0  0  0  0  0
   13.2217  -18.3320   25.6389 O   0  0  0  0  0  0  0  0  0  0  0  0
  2  1  1  1
  3  4  1  0
  3  2  1  0
  4  5  2  0
  6  5  1  0
  7  6  1  0
  8  7  2  0
  9  8  1  0
 10  9  2  0
 10 11  1  0
 11 12  2  0
 12  7  1  0
 12  4  1  0
 13  2  1  0
 14 13  2  0
 15 16  1  0
 16 17  2  0
 17 18  1  0
 19 20  1  0
 19 18  2  0
 21 20  1  1
 21 22  1  0
 21 23  1  0
 22 13  1  0
 23 27  1  0
 23 24  2  0
 25 19  1  0
 26 25  2  0
 26 16  1  0
 27 28  1  0
 28 29  1  1
 29 30  1  0
 30 35  1  0
 30 31  2  0
 31 32  1  0
 32 33  2  0
 34 33  1  0
 35 34  2  0
 36 28  1  0
 36 37  1  0
 38 36  2  0
M  END
$$$$
