WYF.pdb
     RDKit          3D

 38 41  0  0  1  0  0  0  0  0999 V2000
    8.5633  -17.9330   20.4552 N   0  0  0  0  0  0  0  0  0  0  0  0
    8.7704  -16.8327   21.4261 C   0  0  1  0  0  0  0  0  0  0  0  0
    7.4091  -16.1742   21.5273 C   0  0  0  0  0  0  0  0  0  0  0  0
    7.1557  -15.2585   20.4113 C   0  0  0  0  0  0  0  0  0  0  0  0
    6.3783  -15.5174   19.2752 C   0  0  0  0  0  0  0  0  0  0  0  0
    6.4090  -14.4252   18.4984 N   0  0  0  0  0  0  0  0  0  0  0  0
    7.1634  -13.4556   19.0556 C   0  0  0  0  0  0  0  0  0  0  0  0
    7.5076  -12.1695   18.6653 C   0  0  0  0  0  0  0  0  0  0  0  0
    8.3193  -11.3796   19.4521 C   0  0  0  0  0  0  0  0  0  0  0  0
    8.7830  -11.8991   20.6411 C   0  0  0  0  0  0  0  0  0  0  0  0
    8.4428  -13.1758   21.0318 C   0  0  0  0  0  0  0  0  0  0  0  0
    7.6247  -13.9725   20.2390 C   0  0  0  0  0  0  0  0  0  0  0  0
    9.1344  -17.4192   22.7446 C   0  0  0  0  0  0  0  0  0  0  0  0
    8.3051  -18.1747   23.3688 O   0  0  0  0  0  0  0  0  0  0  0  0
   10.9855  -23.3963   21.9455 O   0  0  0  0  0  0  0  0  0  0  0  0
   11.2177  -22.1953   22.5886 C   0  0  0  0  0  0  0  0  0  0  0  0
   11.6991  -21.0743   21.9408 C   0  0  0  0  0  0  0  0  0  0  0  0
   11.9267  -19.8776   22.6013 C   0  0  0  0  0  0  0  0  0  0  0  0
   11.6737  -19.7690   23.9530 C   0  0  0  0  0  0  0  0  0  0  0  0
   11.8761  -18.5660   24.7581 C   0  0  0  0  0  0  0  0  0  0  0  0
   10.6499  -17.6292   24.7467 C   0  0  2  0  0  0  0  0  0  0  0  0
   10.3688  -17.2147   23.4061 N   0  0  0  0  0  0  0  0  0  0  0  0
   10.9236  -16.5470   25.7024 C   0  0  0  0  0  0  0  0  0  0  0  0
   11.6928  -15.5878   25.5401 O   0  0  0  0  0  0  0  0  0  0  0  0
   11.1885  -20.9061   24.5943 C   0  0  0  0  0  0  0  0  0  0  0  0
   10.9645  -22.0881   23.9392 C   0  0  0  0  0  0  0  0  0  0  0  0
   10.2290  -16.5962   26.9642 N   0  0  0  0  0  0  0  0  0  0  0  0
   10.5271  -15.6264   28.0118 C   0  0  1  0  0  0  0  0  0  0  0  0
    9.1924  -15.0939   28.4974 C   0  0  0  0  0  0  0  0  0  0  0  0
    8.4407  -14.3524   27.4727 C   0  0  0  0  0  0  0  0  0  0  0  0
    7.5888  -14.9748   26.5881 C   0  0  0  0  0  0  0  0  0  0  0  0
    6.8799  -14.2735   25.6346 C   0  0  0  0  0  0  0  0  0  0  0  0
    6.9995  -12.9012   25.5293 C   0  0  0  0  0  0  0  0  0  0  0  0
    7.8485  -12.2744   26.4094 C   0  0  0  0  0  0  0  0  0  0  0  0
    8.5682  -12.9607   27.3733 C   0  0  0  0  0  0  0  0  0  0  0  0
   11.2092  -16.3008   29.1233 C   0  0  0  0  0  0  0  0  0  0  0  0
   11.7248  -15.5727   30.1726 O   0  0  0  0  0  0  0  0  0  0  0  0
   11.3240  -17.5431   29.1192 O   0  0  0  0  0  0  0  0  0  0  0  0
  2  1  1  6
  3  4  1  0
  3  2  1  0
  4  5  2  0
  6  5  1  0
  7  6  1  0
  8  7  2  0
  9  8  1  0
 10  9  2  0
 10 11  1  0
 11 12  2  0
 12  7  1  0
 12  4  1  0
 13  2  1  0
 14 13  2  0
 15 16  1  0
 16 17  2  0
 17 18  1  0
 19 20  1  0
 19 18  2  0
 21 20  1  6
 21 22  1  0
 21 23  1  0
 22 13  1  0
 23 27  1  0
 23 24  2  0
 25 19  1  0
 26 25  2  0
 26 16  1  0
 27 28  1  0
 28 29  1  1
 29 30  1  0
 30 35  1  0
 30 31  2  0
 31 32  1  0
 32 33  2  0
 34 33  1  0
 35 34  2  0
 36 28  1  0
 36 37  1  0
 38 36  2  0
M  END
$$$$
