WYF.pdb
     RDKit          3D

 38 41  0  0  1  0  0  0  0  0999 V2000
    5.8739  -18.0085   24.1358 N   0  0  0  0  0  0  0  0  0  0  0  0
    6.8728  -16.9297   23.9492 C   0  0  1  0  0  0  0  0  0  0  0  0
    7.2885  -16.5690   25.3613 C   0  0  0  0  0  0  0  0  0  0  0  0
    6.4669  -15.4909   25.9190 C   0  0  0  0  0  0  0  0  0  0  0  0
    5.3162  -15.6353   26.7044 C   0  0  0  0  0  0  0  0  0  0  0  0
    4.8642  -14.4085   27.0011 N   0  0  0  0  0  0  0  0  0  0  0  0
    5.6510  -13.4577   26.4564 C   0  0  0  0  0  0  0  0  0  0  0  0
    5.6186  -12.0708   26.4637 C   0  0  0  0  0  0  0  0  0  0  0  0
    6.5766  -11.3324   25.8014 C   0  0  0  0  0  0  0  0  0  0  0  0
    7.5724  -12.0067   25.1288 C   0  0  0  0  0  0  0  0  0  0  0  0
    7.6078  -13.3840   25.1199 C   0  0  0  0  0  0  0  0  0  0  0  0
    6.6422  -14.1288   25.7872 C   0  0  0  0  0  0  0  0  0  0  0  0
    8.0438  -17.4826   23.2158 C   0  0  0  0  0  0  0  0  0  0  0  0
    7.9214  -18.5463   22.5074 O   0  0  0  0  0  0  0  0  0  0  0  0
    7.5419  -12.1127   20.0462 O   0  0  0  0  0  0  0  0  0  0  0  0
    8.1027  -13.3585   20.2546 C   0  0  0  0  0  0  0  0  0  0  0  0
    7.3513  -14.5083   20.4001 C   0  0  0  0  0  0  0  0  0  0  0  0
    7.9301  -15.7501   20.6089 C   0  0  0  0  0  0  0  0  0  0  0  0
    9.3020  -15.8761   20.6787 C   0  0  0  0  0  0  0  0  0  0  0  0
   10.0271  -17.1262   20.8975 C   0  0  0  0  0  0  0  0  0  0  0  0
   10.4152  -17.3380   22.3760 C   0  0  2  0  0  0  0  0  0  0  0  0
    9.3417  -16.9181   23.2240 N   0  0  0  0  0  0  0  0  0  0  0  0
   11.6982  -16.6538   22.5886 C   0  0  0  0  0  0  0  0  0  0  0  0
   12.6708  -16.6405   21.8193 O   0  0  0  0  0  0  0  0  0  0  0  0
   10.0481  -14.7095   20.5302 C   0  0  0  0  0  0  0  0  0  0  0  0
    9.4735  -13.4832   20.3241 C   0  0  0  0  0  0  0  0  0  0  0  0
   11.8517  -15.9168   23.8175 N   0  0  0  0  0  0  0  0  0  0  0  0
   12.9778  -16.1835   24.7050 C   0  0  1  0  0  0  0  0  0  0  0  0
   12.4031  -16.8488   25.9410 C   0  0  0  0  0  0  0  0  0  0  0  0
   11.5072  -15.9802   26.7205 C   0  0  0  0  0  0  0  0  0  0  0  0
   11.0640  -16.3178   27.9795 C   0  0  0  0  0  0  0  0  0  0  0  0
   10.2306  -15.4954   28.7096 C   0  0  0  0  0  0  0  0  0  0  0  0
    9.8029  -14.2854   28.1982 C   0  0  0  0  0  0  0  0  0  0  0  0
   10.2419  -13.9431   26.9418 C   0  0  0  0  0  0  0  0  0  0  0  0
   11.0785  -14.7547   26.1939 C   0  0  0  0  0  0  0  0  0  0  0  0
   13.9092  -17.1098   24.0490 C   0  0  0  0  0  0  0  0  0  0  0  0
   15.1487  -17.3591   24.5954 O   0  0  0  0  0  0  0  0  0  0  0  0
   13.5773  -17.6764   22.9883 O   0  0  0  0  0  0  0  0  0  0  0  0
  2  1  1  1
  3  4  1  0
  3  2  1  0
  4  5  2  0
  6  5  1  0
  7  6  1  0
  8  7  2  0
  9  8  1  0
 10  9  2  0
 10 11  1  0
 11 12  2  0
 12  7  1  0
 12  4  1  0
 13  2  1  0
 14 13  2  0
 15 16  1  0
 16 17  2  0
 17 18  1  0
 19 20  1  0
 19 18  2  0
 21 20  1  6
 21 22  1  0
 21 23  1  0
 22 13  1  0
 23 27  1  0
 23 24  2  0
 25 19  1  0
 26 25  2  0
 26 16  1  0
 27 28  1  0
 28 29  1  1
 29 30  1  0
 30 35  1  0
 30 31  2  0
 31 32  1  0
 32 33  2  0
 34 33  1  0
 35 34  2  0
 36 28  1  0
 36 37  1  0
 38 36  2  0
M  END
$$$$
