QTR.pdb
     RDKit          3D

 28 27  0  0  1  0  0  0  0  0999 V2000
    8.6390  -15.1004   13.0985 N   0  0  0  0  0  0  0  0  0  0  0  0
    7.4407  -14.6354   13.7665 C   0  0  0  0  0  0  0  0  0  0  0  0
    6.3899  -14.8509   13.1087 O   0  0  0  0  0  0  0  0  0  0  0  0
    7.5136  -13.9862   15.0831 C   0  0  0  0  0  0  0  0  0  0  0  0
    8.8419  -13.9214   15.7262 C   0  0  0  0  0  0  0  0  0  0  0  0
    9.1839  -14.9768   16.7138 C   0  0  2  0  0  0  0  0  0  0  0  0
    8.2185  -16.0368   16.8292 N   0  0  0  0  0  0  0  0  0  0  0  0
    9.4228  -14.4258   18.0808 C   0  0  0  0  0  0  0  0  0  0  0  0
   10.2853  -13.5264   18.2629 O   0  0  0  0  0  0  0  0  0  0  0  0
    7.0843  -12.8970   20.6235 C   0  0  0  0  0  0  0  0  0  0  0  0
    7.7590  -14.0771   21.2505 C   0  0  1  0  0  0  0  0  0  0  0  0
    6.8453  -15.1386   21.2282 O   0  0  0  0  0  0  0  0  0  0  0  0
    9.0655  -14.4485   20.5783 C   0  0  2  0  0  0  0  0  0  0  0  0
    8.7218  -14.8589   19.2317 N   0  0  0  0  0  0  0  0  0  0  0  0
    9.8013  -15.4905   21.3147 C   0  0  0  0  0  0  0  0  0  0  0  0
    9.7919  -16.7031   20.9575 O   0  0  0  0  0  0  0  0  0  0  0  0
   14.9680  -13.4753   19.5606 N   0  0  0  0  0  0  0  0  0  0  0  0
   15.4076  -14.7944   19.2973 C   0  0  0  0  0  0  0  0  0  0  0  0
   15.8355  -15.0931   18.1259 N   0  0  0  0  0  0  0  0  0  0  0  0
   15.4082  -15.8312   20.2666 N   0  0  0  0  0  0  0  0  0  0  0  0
   14.8566  -15.5942   21.5544 C   0  0  0  0  0  0  0  0  0  0  0  0
   13.4745  -16.1913   21.7513 C   0  0  0  0  0  0  0  0  0  0  0  0
   12.8560  -15.7892   23.0382 C   0  0  0  0  0  0  0  0  0  0  0  0
   11.4119  -16.2096   23.1383 C   0  0  2  0  0  0  0  0  0  0  0  0
   10.5661  -15.1953   22.4715 N   0  0  0  0  0  0  0  0  0  0  0  0
   11.0050  -16.2228   24.5539 C   0  0  0  0  0  0  0  0  0  0  0  0
   11.3047  -17.2141   25.4641 O   0  0  0  0  0  0  0  0  0  0  0  0
   10.3222  -15.2609   25.0004 O   0  0  0  0  0  0  0  0  0  0  0  0
  2  3  2  0
  2  1  1  0
  4  2  1  0
  5  4  1  0
  6  5  1  0
  6  7  1  1
  8 14  1  0
  8  6  1  0
  9  8  2  0
 11 10  1  6
 12 11  1  0
 13 11  1  0
 13 14  1  6
 15 13  1  0
 16 15  2  0
 18 17  1  0
 18 19  2  0
 20 18  1  0
 21 20  1  0
 22 21  1  0
 23 22  1  0
 24 23  1  1
 24 25  1  0
 25 15  1  0
 26 24  1  0
 26 27  1  0
 28 26  2  0
M  END
$$$$
