QTR.pdb
     RDKit          3D

 28 27  0  0  1  0  0  0  0  0999 V2000
   15.1937  -15.4552   14.1881 N   0  0  0  0  0  0  0  0  0  0  0  0
   14.2534  -15.8187   15.2283 C   0  0  0  0  0  0  0  0  0  0  0  0
   14.8097  -16.2303   16.2791 O   0  0  0  0  0  0  0  0  0  0  0  0
   12.8046  -15.6930   15.0144 C   0  0  0  0  0  0  0  0  0  0  0  0
   11.9307  -15.9439   16.1787 C   0  0  0  0  0  0  0  0  0  0  0  0
   11.2387  -17.2561   16.2533 C   0  0  2  0  0  0  0  0  0  0  0  0
   10.4325  -17.5839   15.1081 N   0  0  0  0  0  0  0  0  0  0  0  0
   10.3793  -17.3818   17.4678 C   0  0  0  0  0  0  0  0  0  0  0  0
    9.2704  -16.7877   17.5273 O   0  0  0  0  0  0  0  0  0  0  0  0
    9.3953  -20.5930   19.1991 C   0  0  0  0  0  0  0  0  0  0  0  0
    9.9383  -19.6647   20.2405 C   0  0  1  0  0  0  0  0  0  0  0  0
   11.2278  -20.1081   20.5609 O   0  0  0  0  0  0  0  0  0  0  0  0
    9.9368  -18.2120   19.8089 C   0  0  2  0  0  0  0  0  0  0  0  0
   10.7356  -18.1509   18.6014 N   0  0  0  0  0  0  0  0  0  0  0  0
   10.4368  -17.3113   20.8617 C   0  0  0  0  0  0  0  0  0  0  0  0
   11.3737  -16.4880   20.6561 O   0  0  0  0  0  0  0  0  0  0  0  0
    8.8422  -12.3613   18.7700 N   0  0  0  0  0  0  0  0  0  0  0  0
    8.2048  -13.0675   19.8177 C   0  0  0  0  0  0  0  0  0  0  0  0
    7.2363  -13.8619   19.5431 N   0  0  0  0  0  0  0  0  0  0  0  0
    8.5765  -12.9534   21.1827 N   0  0  0  0  0  0  0  0  0  0  0  0
    7.8620  -13.6805   22.1724 C   0  0  0  0  0  0  0  0  0  0  0  0
    8.4273  -15.0625   22.4486 C   0  0  0  0  0  0  0  0  0  0  0  0
    9.8140  -15.0185   22.9735 C   0  0  0  0  0  0  0  0  0  0  0  0
   10.3769  -16.3937   23.2262 C   0  0  2  0  0  0  0  0  0  0  0  0
    9.8959  -17.3139   22.1723 N   0  0  0  0  0  0  0  0  0  0  0  0
    9.8481  -16.9102   24.5004 C   0  0  0  0  0  0  0  0  0  0  0  0
   10.2307  -16.4884   25.7560 O   0  0  0  0  0  0  0  0  0  0  0  0
    8.9717  -17.8169   24.4732 O   0  0  0  0  0  0  0  0  0  0  0  0
  2  3  2  0
  2  1  1  0
  4  2  1  0
  5  4  1  0
  6  5  1  0
  6  7  1  6
  8 14  1  0
  8  6  1  0
  9  8  2  0
 11 10  1  6
 12 11  1  0
 13 11  1  0
 13 14  1  6
 15 13  1  0
 16 15  2  0
 18 17  1  0
 18 19  2  0
 20 18  1  0
 21 20  1  0
 22 21  1  0
 23 22  1  0
 24 23  1  6
 24 25  1  0
 25 15  1  0
 26 24  1  0
 26 27  1  0
 28 26  2  0
M  END
$$$$
