QTR.pdb
     RDKit          3D

 28 27  0  0  1  0  0  0  0  0999 V2000
   10.9333  -14.7182   11.9820 N   0  0  0  0  0  0  0  0  0  0  0  0
    9.7124  -15.4977   11.9906 C   0  0  0  0  0  0  0  0  0  0  0  0
    9.1224  -15.5090   10.8793 O   0  0  0  0  0  0  0  0  0  0  0  0
    9.2639  -16.1852   13.2098 C   0  0  0  0  0  0  0  0  0  0  0  0
   10.0554  -15.9597   14.4365 C   0  0  0  0  0  0  0  0  0  0  0  0
    9.6258  -16.6589   15.6746 C   0  0  2  0  0  0  0  0  0  0  0  0
    8.2941  -17.2009   15.6353 N   0  0  0  0  0  0  0  0  0  0  0  0
    9.7312  -15.7936   16.8867 C   0  0  0  0  0  0  0  0  0  0  0  0
   10.8398  -15.2983   17.2209 O   0  0  0  0  0  0  0  0  0  0  0  0
    7.4826  -12.9202   20.1887 C   0  0  0  0  0  0  0  0  0  0  0  0
    7.5199  -13.8128   18.9875 C   0  0  1  0  0  0  0  0  0  0  0  0
    7.4271  -12.9917   17.8565 O   0  0  0  0  0  0  0  0  0  0  0  0
    8.7479  -14.6994   18.9366 C   0  0  2  0  0  0  0  0  0  0  0  0
    8.6312  -15.4776   17.7196 N   0  0  0  0  0  0  0  0  0  0  0  0
    8.8824  -15.5446   20.1354 C   0  0  0  0  0  0  0  0  0  0  0  0
    8.1764  -16.5777   20.3149 O   0  0  0  0  0  0  0  0  0  0  0  0
   16.0621  -17.7556   24.8254 N   0  0  0  0  0  0  0  0  0  0  0  0
   15.0036  -18.6283   25.1729 C   0  0  0  0  0  0  0  0  0  0  0  0
   15.2626  -19.7062   25.8174 N   0  0  0  0  0  0  0  0  0  0  0  0
   13.6437  -18.3825   24.8496 N   0  0  0  0  0  0  0  0  0  0  0  0
   13.3127  -17.3622   23.9178 C   0  0  0  0  0  0  0  0  0  0  0  0
   11.8209  -17.2028   23.6839 C   0  0  0  0  0  0  0  0  0  0  0  0
   11.5128  -16.2659   22.5759 C   0  0  0  0  0  0  0  0  0  0  0  0
   10.0328  -16.1531   22.3131 C   0  0  2  0  0  0  0  0  0  0  0  0
    9.8139  -15.2492   21.1625 N   0  0  0  0  0  0  0  0  0  0  0  0
    9.3794  -15.5172   23.4700 C   0  0  0  0  0  0  0  0  0  0  0  0
    8.9411  -16.1714   24.6017 O   0  0  0  0  0  0  0  0  0  0  0  0
    9.1889  -14.2704   23.4526 O   0  0  0  0  0  0  0  0  0  0  0  0
  2  3  2  0
  2  1  1  0
  4  2  1  0
  5  4  1  0
  6  5  1  0
  6  7  1  6
  8 14  1  0
  8  6  1  0
  9  8  2  0
 11 10  1  1
 12 11  1  0
 13 11  1  0
 13 14  1  6
 15 13  1  0
 16 15  2  0
 18 17  1  0
 18 19  2  0
 20 18  1  0
 21 20  1  0
 22 21  1  0
 23 22  1  0
 24 23  1  1
 24 25  1  0
 25 15  1  0
 26 24  1  0
 26 27  1  0
 28 26  2  0
M  END
$$$$
