QTR.pdb
     RDKit          3D

 28 27  0  0  1  0  0  0  0  0999 V2000
   12.6604  -16.2212   17.8901 N   0  0  0  0  0  0  0  0  0  0  0  0
   12.6982  -15.1814   16.8823 C   0  0  0  0  0  0  0  0  0  0  0  0
   13.3654  -15.5003   15.8643 O   0  0  0  0  0  0  0  0  0  0  0  0
   12.0024  -13.9033   17.0893 C   0  0  0  0  0  0  0  0  0  0  0  0
   11.2547  -13.7439   18.3533 C   0  0  0  0  0  0  0  0  0  0  0  0
    9.7714  -13.7877   18.2891 C   0  0  2  0  0  0  0  0  0  0  0  0
    9.1614  -12.6959   17.5788 N   0  0  0  0  0  0  0  0  0  0  0  0
    9.1418  -13.8616   19.6410 C   0  0  0  0  0  0  0  0  0  0  0  0
    8.1993  -13.0846   19.9476 O   0  0  0  0  0  0  0  0  0  0  0  0
    6.7347  -14.3235   20.6555 C   0  0  0  0  0  0  0  0  0  0  0  0
    7.4152  -15.3428   21.5151 C   0  0  1  0  0  0  0  0  0  0  0  0
    7.3729  -16.5620   20.8268 O   0  0  0  0  0  0  0  0  0  0  0  0
    8.8327  -14.9607   21.8909 C   0  0  2  0  0  0  0  0  0  0  0  0
    9.5441  -14.7783   20.6416 N   0  0  0  0  0  0  0  0  0  0  0  0
    9.4728  -15.9601   22.7633 C   0  0  0  0  0  0  0  0  0  0  0  0
   10.0087  -17.0099   22.3064 O   0  0  0  0  0  0  0  0  0  0  0  0
   10.5603  -17.4733   31.8397 N   0  0  0  0  0  0  0  0  0  0  0  0
   11.4517  -17.9856   30.8673 C   0  0  0  0  0  0  0  0  0  0  0  0
   12.6966  -18.0999   31.1529 N   0  0  0  0  0  0  0  0  0  0  0  0
   11.0491  -18.3924   29.5685 N   0  0  0  0  0  0  0  0  0  0  0  0
   10.3388  -17.4882   28.7338 C   0  0  0  0  0  0  0  0  0  0  0  0
   10.8100  -17.4834   27.2903 C   0  0  0  0  0  0  0  0  0  0  0  0
    9.9427  -16.6646   26.4085 C   0  0  0  0  0  0  0  0  0  0  0  0
   10.4946  -16.5435   25.0111 C   0  0  2  0  0  0  0  0  0  0  0  0
    9.5263  -15.8043   24.1715 N   0  0  0  0  0  0  0  0  0  0  0  0
   10.6175  -17.8861   24.4175 C   0  0  0  0  0  0  0  0  0  0  0  0
   11.7931  -18.5902   24.2663 O   0  0  0  0  0  0  0  0  0  0  0  0
    9.5773  -18.4655   24.0012 O   0  0  0  0  0  0  0  0  0  0  0  0
  2  3  2  0
  2  1  1  0
  4  2  1  0
  5  4  1  0
  6  5  1  0
  6  7  1  1
  8 14  1  0
  8  6  1  0
  9  8  2  0
 11 10  1  6
 12 11  1  0
 13 11  1  0
 13 14  1  6
 15 13  1  0
 16 15  2  0
 18 17  1  0
 18 19  2  0
 20 18  1  0
 21 20  1  0
 22 21  1  0
 23 22  1  0
 24 23  1  1
 24 25  1  0
 25 15  1  0
 26 24  1  0
 26 27  1  0
 28 26  2  0
M  END
$$$$
