QTR.pdb
     RDKit          3D

 28 27  0  0  1  0  0  0  0  0999 V2000
    8.9554  -19.6651   15.1404 N   0  0  0  0  0  0  0  0  0  0  0  0
   10.0260  -18.8285   14.6385 C   0  0  0  0  0  0  0  0  0  0  0  0
   11.0741  -19.4708   14.3699 O   0  0  0  0  0  0  0  0  0  0  0  0
    9.8409  -17.3790   14.4797 C   0  0  0  0  0  0  0  0  0  0  0  0
    8.5211  -16.8273   14.8485 C   0  0  0  0  0  0  0  0  0  0  0  0
    8.3577  -15.3512   14.8242 C   0  0  2  0  0  0  0  0  0  0  0  0
    8.6982  -14.7226   13.5761 N   0  0  0  0  0  0  0  0  0  0  0  0
    9.1330  -14.6716   15.9042 C   0  0  0  0  0  0  0  0  0  0  0  0
   10.2200  -14.0931   15.6399 O   0  0  0  0  0  0  0  0  0  0  0  0
    7.4218  -12.5380   18.7340 C   0  0  0  0  0  0  0  0  0  0  0  0
    8.4312  -13.4818   19.3097 C   0  0  1  0  0  0  0  0  0  0  0  0
    7.7256  -14.5563   19.8661 O   0  0  0  0  0  0  0  0  0  0  0  0
    9.4595  -13.9500   18.2997 C   0  0  2  0  0  0  0  0  0  0  0  0
    8.7175  -14.6292   17.2566 N   0  0  0  0  0  0  0  0  0  0  0  0
   10.4938  -14.8065   18.9048 C   0  0  0  0  0  0  0  0  0  0  0  0
   10.3682  -16.0618   18.9845 O   0  0  0  0  0  0  0  0  0  0  0  0
   19.1089  -13.1810   18.8399 N   0  0  0  0  0  0  0  0  0  0  0  0
   18.0804  -13.1511   19.8116 C   0  0  0  0  0  0  0  0  0  0  0  0
   18.3536  -12.7710   21.0055 N   0  0  0  0  0  0  0  0  0  0  0  0
   16.7361  -13.5203   19.5452 N   0  0  0  0  0  0  0  0  0  0  0  0
   16.3350  -14.8760   19.6865 C   0  0  0  0  0  0  0  0  0  0  0  0
   15.1715  -15.0772   20.6413 C   0  0  0  0  0  0  0  0  0  0  0  0
   13.9808  -14.2748   20.2687 C   0  0  0  0  0  0  0  0  0  0  0  0
   12.7898  -15.1354   19.9328 C   0  0  2  0  0  0  0  0  0  0  0  0
   11.6952  -14.2730   19.4358 N   0  0  0  0  0  0  0  0  0  0  0  0
   12.2884  -15.7748   21.1615 C   0  0  0  0  0  0  0  0  0  0  0  0
   11.2078  -15.3469   21.9032 O   0  0  0  0  0  0  0  0  0  0  0  0
   12.8776  -16.8009   21.5982 O   0  0  0  0  0  0  0  0  0  0  0  0
  2  3  2  0
  2  1  1  0
  4  2  1  0
  5  4  1  0
  6  5  1  0
  6  7  1  6
  8 14  1  0
  8  6  1  0
  9  8  2  0
 11 10  1  6
 12 11  1  0
 13 11  1  0
 13 14  1  6
 15 13  1  0
 16 15  2  0
 18 17  1  0
 18 19  2  0
 20 18  1  0
 21 20  1  0
 22 21  1  0
 23 22  1  0
 24 23  1  1
 24 25  1  0
 25 15  1  0
 26 24  1  0
 26 27  1  0
 28 26  2  0
M  END
$$$$
