QTR.pdb
     RDKit          3D

 28 27  0  0  1  0  0  0  0  0999 V2000
    9.7024  -19.3410   13.2744 N   0  0  0  0  0  0  0  0  0  0  0  0
    8.9921  -18.6546   14.3339 C   0  0  0  0  0  0  0  0  0  0  0  0
    7.7960  -19.0267   14.4523 O   0  0  0  0  0  0  0  0  0  0  0  0
    9.6615  -17.6358   15.1551 C   0  0  0  0  0  0  0  0  0  0  0  0
    8.9238  -17.1323   16.3318 C   0  0  0  0  0  0  0  0  0  0  0  0
    8.4756  -15.7163   16.3125 C   0  0  2  0  0  0  0  0  0  0  0  0
    8.8238  -14.9848   15.1240 N   0  0  0  0  0  0  0  0  0  0  0  0
    8.9741  -14.9420   17.4878 C   0  0  0  0  0  0  0  0  0  0  0  0
    9.4425  -13.7831   17.3344 O   0  0  0  0  0  0  0  0  0  0  0  0
    7.6827  -12.9083   18.7490 C   0  0  0  0  0  0  0  0  0  0  0  0
    7.8584  -13.7068   20.0031 C   0  0  1  0  0  0  0  0  0  0  0  0
    6.6873  -14.4527   20.1884 O   0  0  0  0  0  0  0  0  0  0  0  0
    9.0886  -14.5915   19.9838 C   0  0  2  0  0  0  0  0  0  0  0  0
    8.9573  -15.4366   18.8139 N   0  0  0  0  0  0  0  0  0  0  0  0
    9.2432  -15.3681   21.2258 C   0  0  0  0  0  0  0  0  0  0  0  0
    8.4470  -16.2970   21.5440 O   0  0  0  0  0  0  0  0  0  0  0  0
   16.1859  -14.5994   21.1995 N   0  0  0  0  0  0  0  0  0  0  0  0
   16.3130  -14.8818   22.5804 C   0  0  0  0  0  0  0  0  0  0  0  0
   17.1268  -14.1915   23.2915 N   0  0  0  0  0  0  0  0  0  0  0  0
   15.5812  -15.9000   23.2452 N   0  0  0  0  0  0  0  0  0  0  0  0
   14.8889  -16.8819   22.4867 C   0  0  0  0  0  0  0  0  0  0  0  0
   13.4373  -17.0634   22.8938 C   0  0  0  0  0  0  0  0  0  0  0  0
   12.5528  -16.0076   22.3429 C   0  0  0  0  0  0  0  0  0  0  0  0
   11.1088  -16.2104   22.7247 C   0  0  2  0  0  0  0  0  0  0  0  0
   10.2970  -15.1198   22.1412 N   0  0  0  0  0  0  0  0  0  0  0  0
   10.9702  -16.0937   24.1865 C   0  0  0  0  0  0  0  0  0  0  0  0
   10.2426  -15.1269   24.8473 O   0  0  0  0  0  0  0  0  0  0  0  0
   11.5567  -16.9333   24.9229 O   0  0  0  0  0  0  0  0  0  0  0  0
  2  3  2  0
  2  1  1  0
  4  2  1  0
  5  4  1  0
  6  5  1  0
  6  7  1  6
  8 14  1  0
  8  6  1  0
  9  8  2  0
 11 10  1  6
 12 11  1  0
 13 11  1  0
 13 14  1  6
 15 13  1  0
 16 15  2  0
 18 17  1  0
 18 19  2  0
 20 18  1  0
 21 20  1  0
 22 21  1  0
 23 22  1  0
 24 23  1  1
 24 25  1  0
 25 15  1  0
 26 24  1  0
 26 27  1  0
 28 26  2  0
M  END
$$$$
