QTR.pdb
     RDKit          3D

 28 27  0  0  1  0  0  0  0  0999 V2000
   11.0822  -12.9064   13.0248 N   0  0  0  0  0  0  0  0  0  0  0  0
    9.6363  -12.8250   12.9935 C   0  0  0  0  0  0  0  0  0  0  0  0
    9.1984  -12.1308   12.0398 O   0  0  0  0  0  0  0  0  0  0  0  0
    8.8191  -13.5113   14.0042 C   0  0  0  0  0  0  0  0  0  0  0  0
    9.5329  -14.3605   14.9797 C   0  0  0  0  0  0  0  0  0  0  0  0
    9.0420  -15.7484   15.1774 C   0  0  2  0  0  0  0  0  0  0  0  0
    8.0665  -16.1904   14.2172 N   0  0  0  0  0  0  0  0  0  0  0  0
    8.4722  -15.9655   16.5402 C   0  0  0  0  0  0  0  0  0  0  0  0
    7.4225  -15.3663   16.8943 O   0  0  0  0  0  0  0  0  0  0  0  0
    7.1749  -18.9812   17.8403 C   0  0  0  0  0  0  0  0  0  0  0  0
    8.1613  -18.5417   18.8771 C   0  0  1  0  0  0  0  0  0  0  0  0
    9.3104  -19.3264   18.7166 O   0  0  0  0  0  0  0  0  0  0  0  0
    8.4803  -17.0617   18.8128 C   0  0  2  0  0  0  0  0  0  0  0  0
    9.0498  -16.8303   17.5004 N   0  0  0  0  0  0  0  0  0  0  0  0
    9.3760  -16.6309   19.8998 C   0  0  0  0  0  0  0  0  0  0  0  0
   10.5925  -16.3508   19.7005 O   0  0  0  0  0  0  0  0  0  0  0  0
    8.3303  -13.4133   28.2026 N   0  0  0  0  0  0  0  0  0  0  0  0
    9.6699  -13.8183   27.9923 C   0  0  0  0  0  0  0  0  0  0  0  0
   10.6020  -13.3059   28.7086 N   0  0  0  0  0  0  0  0  0  0  0  0
   10.0580  -14.7772   27.0205 N   0  0  0  0  0  0  0  0  0  0  0  0
    9.3087  -14.9097   25.8207 C   0  0  0  0  0  0  0  0  0  0  0  0
    9.9183  -15.8730   24.8176 C   0  0  0  0  0  0  0  0  0  0  0  0
    9.0535  -16.0865   23.6315 C   0  0  0  0  0  0  0  0  0  0  0  0
    9.8453  -16.1834   22.3526 C   0  0  2  0  0  0  0  0  0  0  0  0
    8.9263  -16.5043   21.2384 N   0  0  0  0  0  0  0  0  0  0  0  0
   10.7899  -17.3096   22.4482 C   0  0  0  0  0  0  0  0  0  0  0  0
   12.1431  -17.2016   22.6889 O   0  0  0  0  0  0  0  0  0  0  0  0
   10.3544  -18.4840   22.2998 O   0  0  0  0  0  0  0  0  0  0  0  0
  2  3  2  0
  2  1  1  0
  4  2  1  0
  5  4  1  0
  6  5  1  0
  6  7  1  6
  8 14  1  0
  8  6  1  0
  9  8  2  0
 11 10  1  6
 12 11  1  0
 13 11  1  0
 13 14  1  6
 15 13  1  0
 16 15  2  0
 18 17  1  0
 18 19  2  0
 20 18  1  0
 21 20  1  0
 22 21  1  0
 23 22  1  0
 24 23  1  1
 24 25  1  0
 25 15  1  0
 26 24  1  0
 26 27  1  0
 28 26  2  0
M  END
$$$$
