QTR.pdb
     RDKit          3D

 28 27  0  0  1  0  0  0  0  0999 V2000
    9.4291  -14.7563   12.6966 N   0  0  0  0  0  0  0  0  0  0  0  0
    8.9643  -16.1178   12.8657 C   0  0  0  0  0  0  0  0  0  0  0  0
    9.2153  -16.8548   11.8773 O   0  0  0  0  0  0  0  0  0  0  0  0
    8.2765  -16.5336   14.0963 C   0  0  0  0  0  0  0  0  0  0  0  0
    8.2204  -15.5510   15.1979 C   0  0  0  0  0  0  0  0  0  0  0  0
    9.2811  -15.6151   16.2358 C   0  0  2  0  0  0  0  0  0  0  0  0
    9.5354  -16.9284   16.7645 N   0  0  0  0  0  0  0  0  0  0  0  0
    9.0112  -14.7037   17.3872 C   0  0  0  0  0  0  0  0  0  0  0  0
    8.3102  -13.6694   17.2297 O   0  0  0  0  0  0  0  0  0  0  0  0
    7.1440  -13.3224   18.6685 C   0  0  0  0  0  0  0  0  0  0  0  0
    7.7784  -13.8592   19.9137 C   0  0  1  0  0  0  0  0  0  0  0  0
    7.1492  -15.0752   20.2097 O   0  0  0  0  0  0  0  0  0  0  0  0
    9.2811  -14.0192   19.8006 C   0  0  2  0  0  0  0  0  0  0  0  0
    9.5061  -14.9278   18.6943 N   0  0  0  0  0  0  0  0  0  0  0  0
    9.8927  -14.4944   21.0535 C   0  0  0  0  0  0  0  0  0  0  0  0
   11.1435  -14.4932   21.2365 O   0  0  0  0  0  0  0  0  0  0  0  0
   10.2438  -13.3708   28.8577 N   0  0  0  0  0  0  0  0  0  0  0  0
   10.6796  -14.7154   28.7867 C   0  0  0  0  0  0  0  0  0  0  0  0
   11.5343  -15.1458   29.6403 N   0  0  0  0  0  0  0  0  0  0  0  0
   10.2210  -15.6400   27.8124 N   0  0  0  0  0  0  0  0  0  0  0  0
    9.7246  -15.1666   26.5682 C   0  0  0  0  0  0  0  0  0  0  0  0
    9.1529  -16.2566   25.6789 C   0  0  0  0  0  0  0  0  0  0  0  0
    8.6269  -15.7302   24.3957 C   0  0  0  0  0  0  0  0  0  0  0  0
    9.7213  -15.4482   23.3982 C   0  0  2  0  0  0  0  0  0  0  0  0
    9.1131  -14.9831   22.1322 N   0  0  0  0  0  0  0  0  0  0  0  0
   10.4280  -16.7015   23.0826 C   0  0  0  0  0  0  0  0  0  0  0  0
   10.0441  -17.6187   22.1275 O   0  0  0  0  0  0  0  0  0  0  0  0
   11.4749  -16.9888   23.7249 O   0  0  0  0  0  0  0  0  0  0  0  0
  2  3  2  0
  2  1  1  0
  4  2  1  0
  5  4  1  0
  6  5  1  0
  6  7  1  1
  8 14  1  0
  8  6  1  0
  9  8  2  0
 11 10  1  6
 12 11  1  0
 13 11  1  0
 13 14  1  6
 15 13  1  0
 16 15  2  0
 18 17  1  0
 18 19  2  0
 20 18  1  0
 21 20  1  0
 22 21  1  0
 23 22  1  0
 24 23  1  1
 24 25  1  0
 25 15  1  0
 26 24  1  0
 26 27  1  0
 28 26  2  0
M  END
$$$$
