QTR.pdb
     RDKit          3D

 28 27  0  0  1  0  0  0  0  0999 V2000
    9.5481  -22.1647   14.3161 N   0  0  0  0  0  0  0  0  0  0  0  0
    9.2035  -20.8073   13.9457 C   0  0  0  0  0  0  0  0  0  0  0  0
    8.2980  -20.7448   13.0744 O   0  0  0  0  0  0  0  0  0  0  0  0
    9.8810  -19.6600   14.5662 C   0  0  0  0  0  0  0  0  0  0  0  0
   10.9211  -19.9590   15.5718 C   0  0  0  0  0  0  0  0  0  0  0  0
   10.8692  -19.2216   16.8601 C   0  0  2  0  0  0  0  0  0  0  0  0
   10.6724  -17.8018   16.7401 N   0  0  0  0  0  0  0  0  0  0  0  0
   12.0852  -19.4450   17.6970 C   0  0  0  0  0  0  0  0  0  0  0  0
   12.5365  -20.6085   17.8665 O   0  0  0  0  0  0  0  0  0  0  0  0
   15.4976  -18.6560   17.1842 C   0  0  0  0  0  0  0  0  0  0  0  0
   15.1210  -17.9668   18.4587 C   0  0  1  0  0  0  0  0  0  0  0  0
   14.8467  -16.6300   18.1428 O   0  0  0  0  0  0  0  0  0  0  0  0
   13.9579  -18.6231   19.1748 C   0  0  2  0  0  0  0  0  0  0  0  0
   12.7951  -18.4019   18.3387 N   0  0  0  0  0  0  0  0  0  0  0  0
   13.7751  -18.1073   20.5423 C   0  0  0  0  0  0  0  0  0  0  0  0
   13.1128  -17.0582   20.7847 O   0  0  0  0  0  0  0  0  0  0  0  0
   11.8811  -22.7277   23.1238 N   0  0  0  0  0  0  0  0  0  0  0  0
   12.0179  -22.8761   24.5245 C   0  0  0  0  0  0  0  0  0  0  0  0
   11.1575  -23.5739   25.1704 N   0  0  0  0  0  0  0  0  0  0  0  0
   13.0693  -22.2920   25.2780 N   0  0  0  0  0  0  0  0  0  0  0  0
   14.0431  -21.4884   24.6263 C   0  0  0  0  0  0  0  0  0  0  0  0
   13.7315  -20.0025   24.6515 C   0  0  0  0  0  0  0  0  0  0  0  0
   14.7965  -19.1843   24.0215 C   0  0  0  0  0  0  0  0  0  0  0  0
   14.2468  -18.1870   23.0339 C   0  0  2  0  0  0  0  0  0  0  0  0
   14.3328  -18.7581   21.6718 N   0  0  0  0  0  0  0  0  0  0  0  0
   15.0958  -16.9832   23.0330 C   0  0  0  0  0  0  0  0  0  0  0  0
   15.0740  -15.9872   23.9860 O   0  0  0  0  0  0  0  0  0  0  0  0
   15.9209  -16.8206   22.0929 O   0  0  0  0  0  0  0  0  0  0  0  0
  2  3  2  0
  2  1  1  0
  4  2  1  0
  5  4  1  0
  6  5  1  0
  6  7  1  6
  8 14  1  0
  8  6  1  0
  9  8  2  0
 11 10  1  6
 12 11  1  0
 13 11  1  0
 13 14  1  6
 15 13  1  0
 16 15  2  0
 18 17  1  0
 18 19  2  0
 20 18  1  0
 21 20  1  0
 22 21  1  0
 23 22  1  0
 24 23  1  1
 24 25  1  0
 25 15  1  0
 26 24  1  0
 26 27  1  0
 28 26  2  0
M  END
$$$$
