QTR.pdb
     RDKit          3D

 28 27  0  0  1  0  0  0  0  0999 V2000
    7.9179  -12.5601   20.1559 N   0  0  0  0  0  0  0  0  0  0  0  0
    8.3689  -13.0925   18.8865 C   0  0  0  0  0  0  0  0  0  0  0  0
    8.1281  -12.3306   17.9145 O   0  0  0  0  0  0  0  0  0  0  0  0
    9.0376  -14.3992   18.8103 C   0  0  0  0  0  0  0  0  0  0  0  0
    9.2120  -15.1381   20.0775 C   0  0  0  0  0  0  0  0  0  0  0  0
    9.6622  -16.5513   19.9972 C   0  0  2  0  0  0  0  0  0  0  0  0
    9.0899  -17.3110   18.9183 N   0  0  0  0  0  0  0  0  0  0  0  0
    9.4187  -17.3026   21.2642 C   0  0  0  0  0  0  0  0  0  0  0  0
    8.5928  -18.2529   21.2922 O   0  0  0  0  0  0  0  0  0  0  0  0
    9.7490  -19.7837   22.1290 C   0  0  0  0  0  0  0  0  0  0  0  0
   10.4254  -19.1976   23.3290 C   0  0  1  0  0  0  0  0  0  0  0  0
   11.8025  -19.2008   23.0728 O   0  0  0  0  0  0  0  0  0  0  0  0
    9.9249  -17.8117   23.6830 C   0  0  2  0  0  0  0  0  0  0  0  0
   10.0755  -17.0119   22.4840 N   0  0  0  0  0  0  0  0  0  0  0  0
   10.6339  -17.2349   24.8381 C   0  0  0  0  0  0  0  0  0  0  0  0
   11.7664  -16.6841   24.7280 O   0  0  0  0  0  0  0  0  0  0  0  0
    6.1719  -13.1816   24.2200 N   0  0  0  0  0  0  0  0  0  0  0  0
    6.4788  -12.4684   25.4032 C   0  0  0  0  0  0  0  0  0  0  0  0
    5.5610  -11.7852   25.9821 N   0  0  0  0  0  0  0  0  0  0  0  0
    7.7638  -12.4611   26.0058 N   0  0  0  0  0  0  0  0  0  0  0  0
    8.0832  -13.4251   26.9995 C   0  0  0  0  0  0  0  0  0  0  0  0
    9.1986  -14.3747   26.5998 C   0  0  0  0  0  0  0  0  0  0  0  0
    9.4384  -15.4329   27.6112 C   0  0  0  0  0  0  0  0  0  0  0  0
   10.5601  -16.3601   27.2184 C   0  0  2  0  0  0  0  0  0  0  0  0
   10.0874  -17.2631   26.1460 N   0  0  0  0  0  0  0  0  0  0  0  0
   10.9047  -17.2207   28.3631 C   0  0  0  0  0  0  0  0  0  0  0  0
   11.7164  -16.8627   29.4184 O   0  0  0  0  0  0  0  0  0  0  0  0
   10.4345  -18.3902   28.4090 O   0  0  0  0  0  0  0  0  0  0  0  0
  2  3  2  0
  2  1  1  0
  4  2  1  0
  5  4  1  0
  6  5  1  0
  6  7  1  6
  8 14  1  0
  8  6  1  0
  9  8  2  0
 11 10  1  6
 12 11  1  0
 13 11  1  0
 13 14  1  6
 15 13  1  0
 16 15  2  0
 18 17  1  0
 18 19  2  0
 20 18  1  0
 21 20  1  0
 22 21  1  0
 23 22  1  0
 24 23  1  1
 24 25  1  0
 25 15  1  0
 26 24  1  0
 26 27  1  0
 28 26  2  0
M  END
$$$$
