QTR.pdb
     RDKit          3D

 28 27  0  0  1  0  0  0  0  0999 V2000
    8.1235  -12.2193   14.8522 N   0  0  0  0  0  0  0  0  0  0  0  0
    7.5727  -13.4736   14.3813 C   0  0  0  0  0  0  0  0  0  0  0  0
    7.6497  -13.6125   13.1330 O   0  0  0  0  0  0  0  0  0  0  0  0
    6.9978  -14.4464   15.3212 C   0  0  0  0  0  0  0  0  0  0  0  0
    7.0691  -14.1128   16.7586 C   0  0  0  0  0  0  0  0  0  0  0  0
    8.3558  -14.3528   17.4607 C   0  0  2  0  0  0  0  0  0  0  0  0
    9.3083  -15.1451   16.7300 N   0  0  0  0  0  0  0  0  0  0  0  0
    8.1678  -14.9852   18.8001 C   0  0  0  0  0  0  0  0  0  0  0  0
    7.3358  -14.5099   19.6174 O   0  0  0  0  0  0  0  0  0  0  0  0
    7.8718  -18.8202   19.2684 C   0  0  0  0  0  0  0  0  0  0  0  0
    8.8416  -18.2598   20.2617 C   0  0  1  0  0  0  0  0  0  0  0  0
   10.1297  -18.5510   19.7946 O   0  0  0  0  0  0  0  0  0  0  0  0
    8.6576  -16.7760   20.5087 C   0  0  2  0  0  0  0  0  0  0  0  0
    8.8856  -16.1254   19.2340 N   0  0  0  0  0  0  0  0  0  0  0  0
    9.5454  -16.2672   21.5681 C   0  0  0  0  0  0  0  0  0  0  0  0
   10.7295  -15.8918   21.3334 O   0  0  0  0  0  0  0  0  0  0  0  0
   10.2784  -16.3446   29.5806 N   0  0  0  0  0  0  0  0  0  0  0  0
   10.4864  -14.9458   29.6334 C   0  0  0  0  0  0  0  0  0  0  0  0
   11.1477  -14.4444   30.6110 N   0  0  0  0  0  0  0  0  0  0  0  0
   10.0022  -14.0413   28.6526 N   0  0  0  0  0  0  0  0  0  0  0  0
    9.2259  -14.5270   27.5662 C   0  0  0  0  0  0  0  0  0  0  0  0
   10.0484  -14.9414   26.3589 C   0  0  0  0  0  0  0  0  0  0  0  0
    9.2075  -15.3260   25.1991 C   0  0  0  0  0  0  0  0  0  0  0  0
   10.0295  -15.7114   23.9958 C   0  0  2  0  0  0  0  0  0  0  0  0
    9.1241  -16.1677   22.9182 N   0  0  0  0  0  0  0  0  0  0  0  0
   10.8820  -16.8634   24.3364 C   0  0  0  0  0  0  0  0  0  0  0  0
   12.2004  -16.7943   24.7336 O   0  0  0  0  0  0  0  0  0  0  0  0
   10.3936  -18.0243   24.2665 O   0  0  0  0  0  0  0  0  0  0  0  0
  2  3  2  0
  2  1  1  0
  4  2  1  0
  5  4  1  0
  6  5  1  0
  6  7  1  6
  8 14  1  0
  8  6  1  0
  9  8  2  0
 11 10  1  6
 12 11  1  0
 13 11  1  0
 13 14  1  6
 15 13  1  0
 16 15  2  0
 18 17  1  0
 18 19  2  0
 20 18  1  0
 21 20  1  0
 22 21  1  0
 23 22  1  0
 24 23  1  1
 24 25  1  0
 25 15  1  0
 26 24  1  0
 26 27  1  0
 28 26  2  0
M  END
$$$$
