QTR.pdb
     RDKit          3D

 28 27  0  0  1  0  0  0  0  0999 V2000
    4.4737  -20.5572   18.2748 N   0  0  0  0  0  0  0  0  0  0  0  0
    5.1396  -20.4400   16.9937 C   0  0  0  0  0  0  0  0  0  0  0  0
    4.4792  -20.9341   16.0435 O   0  0  0  0  0  0  0  0  0  0  0  0
    6.4552  -19.7939   16.8826 C   0  0  0  0  0  0  0  0  0  0  0  0
    6.6561  -18.5461   17.6473 C   0  0  0  0  0  0  0  0  0  0  0  0
    7.4052  -17.4452   16.9892 C   0  0  2  0  0  0  0  0  0  0  0  0
    8.3093  -17.8614   15.9507 N   0  0  0  0  0  0  0  0  0  0  0  0
    8.1775  -16.6167   17.9620 C   0  0  0  0  0  0  0  0  0  0  0  0
    9.3618  -16.9240   18.2606 O   0  0  0  0  0  0  0  0  0  0  0  0
    8.1832  -12.5546   20.8781 C   0  0  0  0  0  0  0  0  0  0  0  0
    7.5840  -13.4471   19.8362 C   0  0  1  0  0  0  0  0  0  0  0  0
    7.4985  -12.7040   18.6518 O   0  0  0  0  0  0  0  0  0  0  0  0
    8.3553  -14.7358   19.6343 C   0  0  2  0  0  0  0  0  0  0  0  0
    7.6535  -15.4656   18.5975 N   0  0  0  0  0  0  0  0  0  0  0  0
    8.4891  -15.5128   20.8785 C   0  0  0  0  0  0  0  0  0  0  0  0
    7.5245  -16.1605   21.3763 O   0  0  0  0  0  0  0  0  0  0  0  0
   11.6206  -21.3171   24.0811 N   0  0  0  0  0  0  0  0  0  0  0  0
   12.5974  -20.7896   24.9587 C   0  0  0  0  0  0  0  0  0  0  0  0
   13.4651  -21.5765   25.4806 N   0  0  0  0  0  0  0  0  0  0  0  0
   12.6832  -19.4159   25.3053 N   0  0  0  0  0  0  0  0  0  0  0  0
   12.5911  -18.4248   24.2914 C   0  0  0  0  0  0  0  0  0  0  0  0
   11.2306  -18.3552   23.6207 C   0  0  0  0  0  0  0  0  0  0  0  0
   11.1389  -17.2582   22.6264 C   0  0  0  0  0  0  0  0  0  0  0  0
    9.8813  -16.4424   22.7849 C   0  0  2  0  0  0  0  0  0  0  0  0
    9.7111  -15.5808   21.5943 N   0  0  0  0  0  0  0  0  0  0  0  0
   10.0308  -15.5348   23.9354 C   0  0  0  0  0  0  0  0  0  0  0  0
    9.5763  -15.7805   25.2136 O   0  0  0  0  0  0  0  0  0  0  0  0
   10.6180  -14.4310   23.7681 O   0  0  0  0  0  0  0  0  0  0  0  0
  2  3  2  0
  2  1  1  0
  4  2  1  0
  5  4  1  0
  6  5  1  0
  6  7  1  6
  8 14  1  0
  8  6  1  0
  9  8  2  0
 11 10  1  1
 12 11  1  0
 13 11  1  0
 13 14  1  6
 15 13  1  0
 16 15  2  0
 18 17  1  0
 18 19  2  0
 20 18  1  0
 21 20  1  0
 22 21  1  0
 23 22  1  0
 24 23  1  6
 24 25  1  0
 25 15  1  0
 26 24  1  0
 26 27  1  0
 28 26  2  0
M  END
$$$$
