QTR.pdb
     RDKit          3D

 28 27  0  0  1  0  0  0  0  0999 V2000
    8.2020  -12.9267   16.4369 N   0  0  0  0  0  0  0  0  0  0  0  0
    8.1550  -13.7594   15.2525 C   0  0  0  0  0  0  0  0  0  0  0  0
    8.4475  -13.1393   14.1975 O   0  0  0  0  0  0  0  0  0  0  0  0
    7.7962  -15.1819   15.3431 C   0  0  0  0  0  0  0  0  0  0  0  0
    7.6506  -15.7517   16.6982 C   0  0  0  0  0  0  0  0  0  0  0  0
    8.8842  -15.9460   17.5025 C   0  0  2  0  0  0  0  0  0  0  0  0
    9.9640  -16.5979   16.8111 N   0  0  0  0  0  0  0  0  0  0  0  0
    8.6308  -16.6989   18.7666 C   0  0  0  0  0  0  0  0  0  0  0  0
    7.7714  -17.6190   18.7982 O   0  0  0  0  0  0  0  0  0  0  0  0
    8.8291  -19.2299   19.6545 C   0  0  0  0  0  0  0  0  0  0  0  0
    9.6005  -18.6477   20.7977 C   0  0  1  0  0  0  0  0  0  0  0  0
   10.9556  -18.6808   20.4446 O   0  0  0  0  0  0  0  0  0  0  0  0
    9.1535  -17.2491   21.1729 C   0  0  2  0  0  0  0  0  0  0  0  0
    9.3139  -16.4426   19.9795 N   0  0  0  0  0  0  0  0  0  0  0  0
    9.8992  -16.7090   22.3226 C   0  0  0  0  0  0  0  0  0  0  0  0
   11.0266  -16.1519   22.1938 O   0  0  0  0  0  0  0  0  0  0  0  0
    5.0235  -12.0162   26.9151 N   0  0  0  0  0  0  0  0  0  0  0  0
    5.9926  -11.4393   26.0603 C   0  0  0  0  0  0  0  0  0  0  0  0
    6.0172  -10.1665   25.9055 N   0  0  0  0  0  0  0  0  0  0  0  0
    6.9622  -12.1932   25.3490 N   0  0  0  0  0  0  0  0  0  0  0  0
    7.3784  -13.4571   25.8470 C   0  0  0  0  0  0  0  0  0  0  0  0
    8.4244  -14.1436   24.9866 C   0  0  0  0  0  0  0  0  0  0  0  0
    8.9284  -15.4001   25.5927 C   0  0  0  0  0  0  0  0  0  0  0  0
   10.0146  -16.0412   24.7674 C   0  0  2  0  0  0  0  0  0  0  0  0
    9.3960  -16.7819   23.6460 N   0  0  0  0  0  0  0  0  0  0  0  0
   10.7217  -17.0418   25.5851 C   0  0  0  0  0  0  0  0  0  0  0  0
   11.8146  -16.7925   26.3877 O   0  0  0  0  0  0  0  0  0  0  0  0
   10.3182  -18.2367   25.5690 O   0  0  0  0  0  0  0  0  0  0  0  0
  2  3  2  0
  2  1  1  0
  4  2  1  0
  5  4  1  0
  6  5  1  0
  6  7  1  6
  8 14  1  0
  8  6  1  0
  9  8  2  0
 11 10  1  6
 12 11  1  0
 13 11  1  0
 13 14  1  6
 15 13  1  0
 16 15  2  0
 18 17  1  0
 18 19  2  0
 20 18  1  0
 21 20  1  0
 22 21  1  0
 23 22  1  0
 24 23  1  1
 24 25  1  0
 25 15  1  0
 26 24  1  0
 26 27  1  0
 28 26  2  0
M  END
$$$$
