SIR.pdb
     RDKit          3D

 26 25  0  0  1  0  0  0  0  0999 V2000
   27.0710  -24.2945  -18.9857 O   0  0  0  0  0  0  0  0  0  0  0  0
   26.2994  -23.6109  -18.0479 C   0  0  0  0  0  0  0  0  0  0  0  0
   27.1317  -23.4295  -16.8004 C   0  0  2  0  0  0  0  0  0  0  0  0
   27.2310  -24.6997  -16.1268 N   0  0  0  0  0  0  0  0  0  0  0  0
   26.5042  -22.4395  -15.8688 C   0  0  0  0  0  0  0  0  0  0  0  0
   26.1609  -22.8798  -14.7527 O   0  0  0  0  0  0  0  0  0  0  0  0
   28.4909  -17.5777  -16.4306 C   0  0  0  0  0  0  0  0  0  0  0  0
   27.8849  -18.6851  -15.6104 C   0  0  0  0  0  0  0  0  0  0  0  0
   26.3682  -18.7067  -15.7617 C   0  0  2  0  0  0  0  0  0  0  0  0
   25.7798  -17.6186  -14.8611 C   0  0  0  0  0  0  0  0  0  0  0  0
   25.8056  -20.0426  -15.3559 C   0  0  2  0  0  0  0  0  0  0  0  0
   26.3094  -21.1076  -16.2119 N   0  0  0  0  0  0  0  0  0  0  0  0
   24.3314  -20.0507  -15.4474 C   0  0  0  0  0  0  0  0  0  0  0  0
   23.7929  -19.9586  -16.6255 O   0  0  0  0  0  0  0  0  0  0  0  0
   18.6538  -24.9710  -13.6737 N   0  0  0  0  0  0  0  0  0  0  0  0
   19.8091  -25.0795  -12.8545 C   0  0  0  0  0  0  0  0  0  0  0  0
   20.3728  -26.2222  -12.6046 N   0  0  0  0  0  0  0  0  0  0  0  0
   20.3522  -23.8993  -12.3001 N   0  0  0  0  0  0  0  0  0  0  0  0
   19.8173  -22.5781  -12.6134 C   0  0  0  0  0  0  0  0  0  0  0  0
   20.6040  -22.0155  -13.8120 C   0  0  0  0  0  0  0  0  0  0  0  0
   21.2296  -20.7126  -13.4836 C   0  0  0  0  0  0  0  0  0  0  0  0
   21.9626  -20.1470  -14.6672 C   0  0  2  0  0  0  0  0  0  0  0  0
   23.4177  -20.1561  -14.3826 N   0  0  0  0  0  0  0  0  0  0  0  0
   21.5469  -18.7795  -15.0487 C   0  0  0  0  0  0  0  0  0  0  0  0
   20.5227  -18.5651  -15.9947 O   0  0  0  0  0  0  0  0  0  0  0  0
   22.0667  -17.7422  -14.5672 O   0  0  0  0  0  0  0  0  0  0  0  0
  2  1  1  0
  3  2  1  0
  3  4  1  1
  5  3  1  0
  6  5  2  0
  7  8  1  0
  8  9  1  0
  9 10  1  1
  9 11  1  0
 11 12  1  6
 12  5  1  0
 13 11  1  0
 13 14  2  0
 16 15  1  0
 17 16  2  0
 18 16  1  0
 19 18  1  0
 20 21  1  0
 20 19  1  0
 22 21  1  1
 22 23  1  0
 23 13  1  0
 24 22  1  0
 25 24  1  0
 26 24  2  0
M  END
$$$$
