SIR.pdb
     RDKit          3D

 26 25  0  0  1  0  0  0  0  0999 V2000
   25.0883  -15.8730  -16.1177 O   0  0  0  0  0  0  0  0  0  0  0  0
   26.3447  -15.7712  -15.5235 C   0  0  0  0  0  0  0  0  0  0  0  0
   27.1842  -16.9319  -16.0028 C   0  0  2  0  0  0  0  0  0  0  0  0
   27.2474  -16.8887  -17.4420 N   0  0  0  0  0  0  0  0  0  0  0  0
   26.5879  -18.2408  -15.5873 C   0  0  0  0  0  0  0  0  0  0  0  0
   26.0402  -18.9042  -16.4914 O   0  0  0  0  0  0  0  0  0  0  0  0
   26.6882  -21.9330  -10.5442 C   0  0  0  0  0  0  0  0  0  0  0  0
   26.1127  -21.6053  -11.8960 C   0  0  0  0  0  0  0  0  0  0  0  0
   26.6320  -20.2625  -12.3973 C   0  0  2  0  0  0  0  0  0  0  0  0
   26.1827  -19.1771  -11.4168 C   0  0  0  0  0  0  0  0  0  0  0  0
   26.0860  -19.9506  -13.7648 C   0  0  2  0  0  0  0  0  0  0  0  0
   26.6337  -18.7026  -14.2780 N   0  0  0  0  0  0  0  0  0  0  0  0
   24.6151  -19.8181  -13.7347 C   0  0  0  0  0  0  0  0  0  0  0  0
   24.1118  -18.6231  -13.6627 O   0  0  0  0  0  0  0  0  0  0  0  0
   17.8910  -16.7175  -16.4871 N   0  0  0  0  0  0  0  0  0  0  0  0
   17.6486  -17.5955  -15.3972 C   0  0  0  0  0  0  0  0  0  0  0  0
   16.4554  -18.0120  -15.0990 N   0  0  0  0  0  0  0  0  0  0  0  0
   18.7490  -18.0216  -14.6208 N   0  0  0  0  0  0  0  0  0  0  0  0
   20.1086  -18.0455  -15.1505 C   0  0  0  0  0  0  0  0  0  0  0  0
   20.5275  -19.5171  -15.3266 C   0  0  0  0  0  0  0  0  0  0  0  0
   21.9785  -19.6980  -15.0848 C   0  0  0  0  0  0  0  0  0  0  0  0
   22.2264  -20.5305  -13.8586 C   0  0  2  0  0  0  0  0  0  0  0  0
   23.6701  -20.8594  -13.7829 N   0  0  0  0  0  0  0  0  0  0  0  0
   21.4358  -21.7793  -13.7960 C   0  0  0  0  0  0  0  0  0  0  0  0
   21.9620  -23.0007  -14.2663 O   0  0  0  0  0  0  0  0  0  0  0  0
   20.2701  -21.8337  -13.3310 O   0  0  0  0  0  0  0  0  0  0  0  0
  2  1  1  0
  3  2  1  0
  3  4  1  6
  5  3  1  0
  6  5  2  0
  7  8  1  0
  8  9  1  0
  9 10  1  1
  9 11  1  0
 11 12  1  1
 12  5  1  0
 13 11  1  0
 13 14  2  0
 16 15  1  0
 17 16  2  0
 18 16  1  0
 19 18  1  0
 20 21  1  0
 20 19  1  0
 22 21  1  6
 22 23  1  0
 23 13  1  0
 24 22  1  0
 25 24  1  0
 26 24  2  0
M  END
$$$$
