SIR.pdb
     RDKit          3D

 26 25  0  0  1  0  0  0  0  0999 V2000
   29.1854  -20.9903  -17.1222 O   0  0  0  0  0  0  0  0  0  0  0  0
   28.2439  -21.6112  -16.3036 C   0  0  0  0  0  0  0  0  0  0  0  0
   27.3402  -20.5421  -15.7360 C   0  0  2  0  0  0  0  0  0  0  0  0
   28.1601  -19.5167  -15.1417 N   0  0  0  0  0  0  0  0  0  0  0  0
   26.4327  -21.1010  -14.6846 C   0  0  0  0  0  0  0  0  0  0  0  0
   25.6889  -22.0363  -15.0444 O   0  0  0  0  0  0  0  0  0  0  0  0
   25.8035  -20.7687   -8.4831 C   0  0  0  0  0  0  0  0  0  0  0  0
   25.2238  -21.1475   -9.8198 C   0  0  0  0  0  0  0  0  0  0  0  0
   26.1243  -20.6769  -10.9562 C   0  0  2  0  0  0  0  0  0  0  0  0
   26.2362  -19.1527  -10.8810 C   0  0  0  0  0  0  0  0  0  0  0  0
   25.5520  -21.0656  -12.2929 C   0  0  2  0  0  0  0  0  0  0  0  0
   26.4085  -20.6180  -13.3824 N   0  0  0  0  0  0  0  0  0  0  0  0
   24.2164  -20.4682  -12.4957 C   0  0  0  0  0  0  0  0  0  0  0  0
   24.0894  -19.1869  -12.3268 O   0  0  0  0  0  0  0  0  0  0  0  0
   20.7384  -18.5662  -19.2065 N   0  0  0  0  0  0  0  0  0  0  0  0
   21.0007  -19.8068  -18.5665 C   0  0  0  0  0  0  0  0  0  0  0  0
   21.2855  -20.8821  -19.2363 N   0  0  0  0  0  0  0  0  0  0  0  0
   20.9470  -19.8590  -17.1560 N   0  0  0  0  0  0  0  0  0  0  0  0
   20.5442  -18.7094  -16.3524 C   0  0  0  0  0  0  0  0  0  0  0  0
   20.5786  -19.1261  -14.8701 C   0  0  0  0  0  0  0  0  0  0  0  0
   21.7859  -19.9290  -14.5628 C   0  0  0  0  0  0  0  0  0  0  0  0
   21.8031  -20.3567  -13.1224 C   0  0  2  0  0  0  0  0  0  0  0  0
   23.0363  -21.1389  -12.8663 N   0  0  0  0  0  0  0  0  0  0  0  0
   20.6255  -21.1485  -12.7044 C   0  0  0  0  0  0  0  0  0  0  0  0
   19.4657  -20.5222  -12.2021 O   0  0  0  0  0  0  0  0  0  0  0  0
   20.5813  -22.4024  -12.7672 O   0  0  0  0  0  0  0  0  0  0  0  0
  2  1  1  0
  3  2  1  0
  3  4  1  1
  5  3  1  0
  6  5  2  0
  7  8  1  0
  8  9  1  0
  9 10  1  6
  9 11  1  0
 11 12  1  6
 12  5  1  0
 13 11  1  0
 13 14  2  0
 16 15  1  0
 17 16  2  0
 18 16  1  0
 19 18  1  0
 20 21  1  0
 20 19  1  0
 22 21  1  6
 22 23  1  0
 23 13  1  0
 24 22  1  0
 25 24  1  0
 26 24  2  0
M  END
$$$$
