SIR.pdb
     RDKit          3D

 26 25  0  0  1  0  0  0  0  0999 V2000
   26.9286  -18.9101  -15.6078 O   0  0  0  0  0  0  0  0  0  0  0  0
   28.0068  -19.0275  -14.7327 C   0  0  0  0  0  0  0  0  0  0  0  0
   28.1064  -20.4727  -14.3044 C   0  0  2  0  0  0  0  0  0  0  0  0
   28.2889  -21.2875  -15.4791 N   0  0  0  0  0  0  0  0  0  0  0  0
   26.8620  -20.9169  -13.6004 C   0  0  0  0  0  0  0  0  0  0  0  0
   26.1432  -21.7282  -14.2189 O   0  0  0  0  0  0  0  0  0  0  0  0
   27.2040  -20.1037   -8.3741 C   0  0  0  0  0  0  0  0  0  0  0  0
   26.6646  -20.9968   -9.4592 C   0  0  0  0  0  0  0  0  0  0  0  0
   25.4549  -20.3617  -10.1352 C   0  0  2  0  0  0  0  0  0  0  0  0
   24.2002  -20.7772   -9.3642 C   0  0  0  0  0  0  0  0  0  0  0  0
   25.3330  -20.8216  -11.5633 C   0  0  2  0  0  0  0  0  0  0  0  0
   26.5149  -20.4621  -12.3346 N   0  0  0  0  0  0  0  0  0  0  0  0
   24.1616  -20.2095  -12.2228 C   0  0  0  0  0  0  0  0  0  0  0  0
   24.3288  -19.0757  -12.8334 O   0  0  0  0  0  0  0  0  0  0  0  0
   23.5031  -22.8275  -19.4547 N   0  0  0  0  0  0  0  0  0  0  0  0
   23.0217  -23.5157  -18.3092 C   0  0  0  0  0  0  0  0  0  0  0  0
   22.9286  -24.8103  -18.2707 N   0  0  0  0  0  0  0  0  0  0  0  0
   22.6351  -22.7561  -17.1828 N   0  0  0  0  0  0  0  0  0  0  0  0
   22.7155  -21.2991  -17.1657 C   0  0  0  0  0  0  0  0  0  0  0  0
   21.9600  -20.7929  -15.9227 C   0  0  0  0  0  0  0  0  0  0  0  0
   22.7457  -21.0146  -14.6858 C   0  0  0  0  0  0  0  0  0  0  0  0
   22.0229  -20.4852  -13.4794 C   0  0  2  0  0  0  0  0  0  0  0  0
   22.8538  -20.7259  -12.2753 N   0  0  0  0  0  0  0  0  0  0  0  0
   20.6773  -21.0629  -13.2692 C   0  0  0  0  0  0  0  0  0  0  0  0
   20.4943  -22.2201  -12.4836 O   0  0  0  0  0  0  0  0  0  0  0  0
   19.6324  -20.5730  -13.7654 O   0  0  0  0  0  0  0  0  0  0  0  0
  2  1  1  0
  3  2  1  0
  3  4  1  6
  5  3  1  0
  6  5  2  0
  7  8  1  0
  8  9  1  0
  9 10  1  1
  9 11  1  0
 11 12  1  6
 12  5  1  0
 13 11  1  0
 13 14  2  0
 16 15  1  0
 17 16  2  0
 18 16  1  0
 19 18  1  0
 20 21  1  0
 20 19  1  0
 22 21  1  6
 22 23  1  0
 23 13  1  0
 24 22  1  0
 25 24  1  0
 26 24  2  0
M  END
$$$$
