SIR.pdb
     RDKit          3D

 26 25  0  0  1  0  0  0  0  0999 V2000
   18.3472  -25.9498   -9.1535 O   0  0  0  0  0  0  0  0  0  0  0  0
   18.4777  -24.6172   -9.5398 C   0  0  0  0  0  0  0  0  0  0  0  0
   19.4666  -23.9551   -8.6095 C   0  0  2  0  0  0  0  0  0  0  0  0
   18.8151  -23.7089   -7.3477 N   0  0  0  0  0  0  0  0  0  0  0  0
   19.9450  -22.6501   -9.1658 C   0  0  0  0  0  0  0  0  0  0  0  0
   19.1687  -21.6817   -9.0345 O   0  0  0  0  0  0  0  0  0  0  0  0
   25.1920  -19.6374   -9.7677 C   0  0  0  0  0  0  0  0  0  0  0  0
   23.8020  -19.8259  -10.3142 C   0  0  0  0  0  0  0  0  0  0  0  0
   23.1470  -21.0669   -9.7186 C   0  0  2  0  0  0  0  0  0  0  0  0
   24.0240  -22.2773  -10.0461 C   0  0  0  0  0  0  0  0  0  0  0  0
   21.7734  -21.2804  -10.2960 C   0  0  2  0  0  0  0  0  0  0  0  0
   21.1765  -22.5098   -9.7930 N   0  0  0  0  0  0  0  0  0  0  0  0
   21.8226  -21.3737  -11.7694 C   0  0  0  0  0  0  0  0  0  0  0  0
   22.2820  -22.4682  -12.2962 O   0  0  0  0  0  0  0  0  0  0  0  0
   16.1489  -18.3395  -16.8039 N   0  0  0  0  0  0  0  0  0  0  0  0
   16.9889  -17.8226  -15.7818 C   0  0  0  0  0  0  0  0  0  0  0  0
   16.8824  -16.6015  -15.3532 N   0  0  0  0  0  0  0  0  0  0  0  0
   17.9672  -18.6740  -15.2223 N   0  0  0  0  0  0  0  0  0  0  0  0
   17.9852  -20.1100  -15.4817 C   0  0  0  0  0  0  0  0  0  0  0  0
   19.1303  -20.7304  -14.6596 C   0  0  0  0  0  0  0  0  0  0  0  0
   20.4023  -19.9987  -14.8676 C   0  0  0  0  0  0  0  0  0  0  0  0
   21.5387  -20.6664  -14.1459 C   0  0  2  0  0  0  0  0  0  0  0  0
   21.4137  -20.3949  -12.6937 N   0  0  0  0  0  0  0  0  0  0  0  0
   22.8829  -20.2553  -14.6070 C   0  0  0  0  0  0  0  0  0  0  0  0
   23.5942  -21.0187  -15.5561 O   0  0  0  0  0  0  0  0  0  0  0  0
   23.4670  -19.2231  -14.1929 O   0  0  0  0  0  0  0  0  0  0  0  0
  2  1  1  0
  3  2  1  0
  3  4  1  1
  5  3  1  0
  6  5  2  0
  7  8  1  0
  8  9  1  0
  9 10  1  6
  9 11  1  0
 11 12  1  1
 12  5  1  0
 13 11  1  0
 13 14  2  0
 16 15  1  0
 17 16  2  0
 18 16  1  0
 19 18  1  0
 20 21  1  0
 20 19  1  0
 22 21  1  6
 22 23  1  0
 23 13  1  0
 24 22  1  0
 25 24  1  0
 26 24  2  0
M  END
$$$$
