SIR.pdb
     RDKit          3D

 26 25  0  0  1  0  0  0  0  0999 V2000
   19.0048  -20.2177  -18.1076 O   0  0  0  0  0  0  0  0  0  0  0  0
   19.2885  -21.1782  -17.1386 C   0  0  0  0  0  0  0  0  0  0  0  0
   20.6617  -20.8879  -16.5803 C   0  0  2  0  0  0  0  0  0  0  0  0
   21.6457  -21.4736  -17.4554 N   0  0  0  0  0  0  0  0  0  0  0  0
   20.8261  -21.4738  -15.2123 C   0  0  0  0  0  0  0  0  0  0  0  0
   21.4470  -22.5547  -15.1509 O   0  0  0  0  0  0  0  0  0  0  0  0
   21.3349  -19.1615   -9.5522 C   0  0  0  0  0  0  0  0  0  0  0  0
   21.0630  -20.3850  -10.3861 C   0  0  0  0  0  0  0  0  0  0  0  0
   20.9439  -20.0220  -11.8618 C   0  0  2  0  0  0  0  0  0  0  0  0
   19.8434  -18.9693  -12.0106 C   0  0  0  0  0  0  0  0  0  0  0  0
   20.5878  -21.2299  -12.6863 C   0  0  2  0  0  0  0  0  0  0  0  0
   20.3233  -20.8627  -14.0706 N   0  0  0  0  0  0  0  0  0  0  0  0
   19.3807  -21.8987  -12.1594 C   0  0  0  0  0  0  0  0  0  0  0  0
   18.2217  -21.4238  -12.5022 O   0  0  0  0  0  0  0  0  0  0  0  0
   17.2628  -29.2103   -7.5581 N   0  0  0  0  0  0  0  0  0  0  0  0
   16.5660  -28.9893   -8.7760 C   0  0  0  0  0  0  0  0  0  0  0  0
   15.9269  -29.9399   -9.3875 N   0  0  0  0  0  0  0  0  0  0  0  0
   16.5765  -27.6896   -9.3291 N   0  0  0  0  0  0  0  0  0  0  0  0
   17.1894  -26.5587   -8.6398 C   0  0  0  0  0  0  0  0  0  0  0  0
   16.9652  -25.2981   -9.4958 C   0  0  0  0  0  0  0  0  0  0  0  0
   18.2481  -24.7493   -9.9953 C   0  0  0  0  0  0  0  0  0  0  0  0
   18.0253  -23.5261  -10.8391 C   0  0  2  0  0  0  0  0  0  0  0  0
   19.3364  -23.0223  -11.3138 N   0  0  0  0  0  0  0  0  0  0  0  0
   17.2997  -22.4336  -10.1546 C   0  0  0  0  0  0  0  0  0  0  0  0
   15.8921  -22.3533  -10.1973 O   0  0  0  0  0  0  0  0  0  0  0  0
   17.8757  -21.5255   -9.5052 O   0  0  0  0  0  0  0  0  0  0  0  0
  2  1  1  0
  3  2  1  0
  3  4  1  6
  5  3  1  0
  6  5  2  0
  7  8  1  0
  8  9  1  0
  9 10  1  1
  9 11  1  0
 11 12  1  6
 12  5  1  0
 13 11  1  0
 13 14  2  0
 16 15  1  0
 17 16  2  0
 18 16  1  0
 19 18  1  0
 20 21  1  0
 20 19  1  0
 22 21  1  1
 22 23  1  0
 23 13  1  0
 24 22  1  0
 25 24  1  0
 26 24  2  0
M  END
$$$$
