SIR.pdb
     RDKit          3D

 26 25  0  0  1  0  0  0  0  0999 V2000
   21.1073  -16.4309  -18.1124 O   0  0  0  0  0  0  0  0  0  0  0  0
   21.4708  -15.3192  -17.3546 C   0  0  0  0  0  0  0  0  0  0  0  0
   22.6372  -15.7114  -16.4786 C   0  0  2  0  0  0  0  0  0  0  0  0
   22.2038  -16.7467  -15.5744 N   0  0  0  0  0  0  0  0  0  0  0  0
   23.1282  -14.5471  -15.6756 C   0  0  0  0  0  0  0  0  0  0  0  0
   22.5618  -14.3606  -14.5793 O   0  0  0  0  0  0  0  0  0  0  0  0
   28.3595  -13.2552  -15.9659 C   0  0  0  0  0  0  0  0  0  0  0  0
   26.9602  -13.4347  -15.4405 C   0  0  0  0  0  0  0  0  0  0  0  0
   26.0819  -12.2464  -15.8153 C   0  0  2  0  0  0  0  0  0  0  0  0
   26.5752  -11.0214  -15.0423 C   0  0  0  0  0  0  0  0  0  0  0  0
   24.6425  -12.5080  -15.4613 C   0  0  2  0  0  0  0  0  0  0  0  0
   24.1519  -13.7153  -16.1115 N   0  0  0  0  0  0  0  0  0  0  0  0
   23.7774  -11.3869  -15.8817 C   0  0  0  0  0  0  0  0  0  0  0  0
   23.7437  -11.0826  -17.1438 O   0  0  0  0  0  0  0  0  0  0  0  0
   15.9293  -10.9233  -16.7641 N   0  0  0  0  0  0  0  0  0  0  0  0
   17.0395  -11.7513  -17.0797 C   0  0  0  0  0  0  0  0  0  0  0  0
   16.9029  -13.0127  -17.3557 N   0  0  0  0  0  0  0  0  0  0  0  0
   18.3277  -11.1718  -17.0900 N   0  0  0  0  0  0  0  0  0  0  0  0
   18.5404   -9.7505  -16.8365 C   0  0  0  0  0  0  0  0  0  0  0  0
   20.0545   -9.4751  -16.8978 C   0  0  0  0  0  0  0  0  0  0  0  0
   20.7210   -9.8359  -15.6241 C   0  0  0  0  0  0  0  0  0  0  0  0
   22.1811   -9.4820  -15.6544 C   0  0  2  0  0  0  0  0  0  0  0  0
   22.9591  -10.5935  -15.0567 N   0  0  0  0  0  0  0  0  0  0  0  0
   22.5198   -8.2194  -14.9618 C   0  0  0  0  0  0  0  0  0  0  0  0
   22.1534   -6.9692  -15.5025 O   0  0  0  0  0  0  0  0  0  0  0  0
   23.1423   -8.1777  -13.8714 O   0  0  0  0  0  0  0  0  0  0  0  0
  2  1  1  0
  3  2  1  0
  3  4  1  1
  5  3  1  0
  6  5  2  0
  7  8  1  0
  8  9  1  0
  9 10  1  1
  9 11  1  0
 11 12  1  6
 12  5  1  0
 13 11  1  0
 13 14  2  0
 16 15  1  0
 17 16  2  0
 18 16  1  0
 19 18  1  0
 20 21  1  0
 20 19  1  0
 22 21  1  1
 22 23  1  0
 23 13  1  0
 24 22  1  0
 25 24  1  0
 26 24  2  0
M  END
$$$$
