SIR.pdb
     RDKit          3D

 26 25  0  0  1  0  0  0  0  0999 V2000
   22.0140  -20.8752  -18.4229 O   0  0  0  0  0  0  0  0  0  0  0  0
   21.9431  -19.7118  -17.6589 C   0  0  0  0  0  0  0  0  0  0  0  0
   22.8366  -19.8885  -16.4538 C   0  0  2  0  0  0  0  0  0  0  0  0
   22.1789  -20.7675  -15.5202 N   0  0  0  0  0  0  0  0  0  0  0  0
   23.0999  -18.5792  -15.7771 C   0  0  0  0  0  0  0  0  0  0  0  0
   22.3913  -18.3254  -14.7816 O   0  0  0  0  0  0  0  0  0  0  0  0
   27.9274  -17.0678  -16.0464 C   0  0  0  0  0  0  0  0  0  0  0  0
   26.6966  -16.7883  -15.2260 C   0  0  0  0  0  0  0  0  0  0  0  0
   25.7216  -15.9021  -15.9928 C   0  0  2  0  0  0  0  0  0  0  0  0
   25.9021  -14.4607  -15.5121 C   0  0  0  0  0  0  0  0  0  0  0  0
   24.2992  -16.3303  -15.7492 C   0  0  2  0  0  0  0  0  0  0  0  0
   24.0712  -17.6898  -16.2189 N   0  0  0  0  0  0  0  0  0  0  0  0
   23.3479  -15.4456  -16.4522 C   0  0  0  0  0  0  0  0  0  0  0  0
   23.3222  -15.4861  -17.7500 O   0  0  0  0  0  0  0  0  0  0  0  0
   15.9980  -10.4492  -15.0736 N   0  0  0  0  0  0  0  0  0  0  0  0
   16.4204  -10.2437  -16.4141 C   0  0  0  0  0  0  0  0  0  0  0  0
   15.7362   -9.5235  -17.2503 N   0  0  0  0  0  0  0  0  0  0  0  0
   17.6246  -10.8477  -16.8386 N   0  0  0  0  0  0  0  0  0  0  0  0
   18.3964  -11.7316  -15.9709 C   0  0  0  0  0  0  0  0  0  0  0  0
   19.5965  -12.2639  -16.7762 C   0  0  0  0  0  0  0  0  0  0  0  0
   20.4408  -13.1641  -15.9556 C   0  0  0  0  0  0  0  0  0  0  0  0
   21.6219  -13.6656  -16.7377 C   0  0  2  0  0  0  0  0  0  0  0  0
   22.4378  -14.5459  -15.8674 N   0  0  0  0  0  0  0  0  0  0  0  0
   22.4810  -12.6007  -17.3000 C   0  0  0  0  0  0  0  0  0  0  0  0
   23.5205  -12.0242  -16.5406 O   0  0  0  0  0  0  0  0  0  0  0  0
   22.3446  -12.1490  -18.4643 O   0  0  0  0  0  0  0  0  0  0  0  0
  2  1  1  0
  3  2  1  0
  3  4  1  1
  5  3  1  0
  6  5  2  0
  7  8  1  0
  8  9  1  0
  9 10  1  1
  9 11  1  0
 11 12  1  6
 12  5  1  0
 13 11  1  0
 13 14  2  0
 16 15  1  0
 17 16  2  0
 18 16  1  0
 19 18  1  0
 20 21  1  0
 20 19  1  0
 22 21  1  1
 22 23  1  0
 23 13  1  0
 24 22  1  0
 25 24  1  0
 26 24  2  0
M  END
$$$$
