SIR.pdb
     RDKit          3D

 26 25  0  0  1  0  0  0  0  0999 V2000
   22.5536  -15.7085  -19.8071 O   0  0  0  0  0  0  0  0  0  0  0  0
   22.6632  -14.6691  -18.8853 C   0  0  0  0  0  0  0  0  0  0  0  0
   23.7009  -15.0608  -17.8599 C   0  0  2  0  0  0  0  0  0  0  0  0
   23.2770  -16.2814  -17.2216 N   0  0  0  0  0  0  0  0  0  0  0  0
   23.8572  -14.0010  -16.8139 C   0  0  0  0  0  0  0  0  0  0  0  0
   22.9917  -13.9876  -15.9148 O   0  0  0  0  0  0  0  0  0  0  0  0
   28.6857  -12.8790  -16.3439 C   0  0  0  0  0  0  0  0  0  0  0  0
   27.4789  -12.7775  -15.4497 C   0  0  0  0  0  0  0  0  0  0  0  0
   26.5919  -11.6089  -15.8636 C   0  0  2  0  0  0  0  0  0  0  0  0
   26.7930  -10.4732  -14.8581 C   0  0  0  0  0  0  0  0  0  0  0  0
   25.1414  -12.0107  -15.8725 C   0  0  2  0  0  0  0  0  0  0  0  0
   24.8977  -13.0808  -16.8298 N   0  0  0  0  0  0  0  0  0  0  0  0
   24.2746  -10.8723  -16.2395 C   0  0  0  0  0  0  0  0  0  0  0  0
   24.3487  -10.4156  -17.4529 O   0  0  0  0  0  0  0  0  0  0  0  0
   16.1766  -10.1722  -16.3987 N   0  0  0  0  0  0  0  0  0  0  0  0
   17.2071  -10.6344  -17.2602 C   0  0  0  0  0  0  0  0  0  0  0  0
   17.0269  -11.6224  -18.0832 N   0  0  0  0  0  0  0  0  0  0  0  0
   18.4631   -9.9901  -17.2103 N   0  0  0  0  0  0  0  0  0  0  0  0
   18.7117   -8.8422  -16.3441 C   0  0  0  0  0  0  0  0  0  0  0  0
   20.1989   -8.4616  -16.4694 C   0  0  0  0  0  0  0  0  0  0  0  0
   21.0765   -9.5308  -15.9372 C   0  0  0  0  0  0  0  0  0  0  0  0
   22.5207   -9.1170  -15.9715 C   0  0  2  0  0  0  0  0  0  0  0  0
   23.3492  -10.2113  -15.4109 N   0  0  0  0  0  0  0  0  0  0  0  0
   22.8151   -7.8604  -15.2486 C   0  0  0  0  0  0  0  0  0  0  0  0
   22.3581   -6.6163  -15.7313 O   0  0  0  0  0  0  0  0  0  0  0  0
   23.4769   -7.8186  -14.1817 O   0  0  0  0  0  0  0  0  0  0  0  0
  2  1  1  0
  3  2  1  0
  3  4  1  1
  5  3  1  0
  6  5  2  0
  7  8  1  0
  8  9  1  0
  9 10  1  1
  9 11  1  0
 11 12  1  6
 12  5  1  0
 13 11  1  0
 13 14  2  0
 16 15  1  0
 17 16  2  0
 18 16  1  0
 19 18  1  0
 20 21  1  0
 20 19  1  0
 22 21  1  1
 22 23  1  0
 23 13  1  0
 24 22  1  0
 25 24  1  0
 26 24  2  0
M  END
$$$$
