SIR.pdb
     RDKit          3D

 26 25  0  0  1  0  0  0  0  0999 V2000
   14.8407   -9.9262  -12.8406 O   0  0  0  0  0  0  0  0  0  0  0  0
   15.8704   -8.9873  -12.8514 C   0  0  0  0  0  0  0  0  0  0  0  0
   17.0614   -9.5913  -12.1453 C   0  0  2  0  0  0  0  0  0  0  0  0
   16.7683   -9.6690  -10.7363 N   0  0  0  0  0  0  0  0  0  0  0  0
   18.2873   -8.7530  -12.3354 C   0  0  0  0  0  0  0  0  0  0  0  0
   18.5492   -7.9502  -11.4164 O   0  0  0  0  0  0  0  0  0  0  0  0
   23.0914  -10.5501  -13.9463 C   0  0  0  0  0  0  0  0  0  0  0  0
   22.0279   -9.6765  -13.3364 C   0  0  0  0  0  0  0  0  0  0  0  0
   21.3502   -8.8212  -14.4008 C   0  0  2  0  0  0  0  0  0  0  0  0
   22.3964   -7.8765  -14.9962 C   0  0  0  0  0  0  0  0  0  0  0  0
   20.2311   -8.0087  -13.8065 C   0  0  2  0  0  0  0  0  0  0  0  0
   19.0946   -8.8515  -13.4615 N   0  0  0  0  0  0  0  0  0  0  0  0
   19.7571   -6.9797  -14.7544 C   0  0  0  0  0  0  0  0  0  0  0  0
   18.8794   -7.3292  -15.6454 O   0  0  0  0  0  0  0  0  0  0  0  0
   12.8692   -3.8318  -15.1867 N   0  0  0  0  0  0  0  0  0  0  0  0
   13.5908   -4.9034  -15.7771 C   0  0  0  0  0  0  0  0  0  0  0  0
   13.0180   -6.0202  -16.1099 N   0  0  0  0  0  0  0  0  0  0  0  0
   14.9749   -4.7362  -16.0040 N   0  0  0  0  0  0  0  0  0  0  0  0
   15.7154   -3.5963  -15.4729 C   0  0  0  0  0  0  0  0  0  0  0  0
   17.1636   -3.6840  -15.9895 C   0  0  0  0  0  0  0  0  0  0  0  0
   17.9545   -4.6694  -15.2149 C   0  0  0  0  0  0  0  0  0  0  0  0
   19.3913   -4.6810  -15.6550 C   0  0  2  0  0  0  0  0  0  0  0  0
   20.1488   -5.6292  -14.8034 N   0  0  0  0  0  0  0  0  0  0  0  0
   20.0525   -3.3581  -15.6227 C   0  0  0  0  0  0  0  0  0  0  0  0
   19.7860   -2.3845  -16.6080 O   0  0  0  0  0  0  0  0  0  0  0  0
   20.8767   -3.0217  -14.7363 O   0  0  0  0  0  0  0  0  0  0  0  0
  2  1  1  0
  3  2  1  0
  3  4  1  1
  5  3  1  0
  6  5  2  0
  7  8  1  0
  8  9  1  0
  9 10  1  1
  9 11  1  0
 11 12  1  6
 12  5  1  0
 13 11  1  0
 13 14  2  0
 16 15  1  0
 17 16  2  0
 18 16  1  0
 19 18  1  0
 20 21  1  0
 20 19  1  0
 22 21  1  1
 22 23  1  0
 23 13  1  0
 24 22  1  0
 25 24  1  0
 26 24  2  0
M  END
$$$$
