SIR.pdb
     RDKit          3D

 26 25  0  0  1  0  0  0  0  0999 V2000
   27.1954  -24.3106  -17.4723 O   0  0  0  0  0  0  0  0  0  0  0  0
   27.6137  -23.4953  -18.5222 C   0  0  0  0  0  0  0  0  0  0  0  0
   28.7458  -22.6303  -18.0203 C   0  0  2  0  0  0  0  0  0  0  0  0
   29.9178  -23.4542  -17.8638 N   0  0  0  0  0  0  0  0  0  0  0  0
   28.4120  -22.0137  -16.6974 C   0  0  0  0  0  0  0  0  0  0  0  0
   29.0532  -22.4426  -15.7163 O   0  0  0  0  0  0  0  0  0  0  0  0
   27.2954  -16.2698  -15.2222 C   0  0  0  0  0  0  0  0  0  0  0  0
   27.1823  -17.6963  -14.7548 C   0  0  0  0  0  0  0  0  0  0  0  0
   27.3518  -18.6653  -15.9194 C   0  0  2  0  0  0  0  0  0  0  0  0
   26.2138  -18.4254  -16.9138 C   0  0  0  0  0  0  0  0  0  0  0  0
   27.3007  -20.0926  -15.4440 C   0  0  2  0  0  0  0  0  0  0  0  0
   27.4491  -21.0227  -16.5547 N   0  0  0  0  0  0  0  0  0  0  0  0
   26.0156  -20.3876  -14.7782 C   0  0  0  0  0  0  0  0  0  0  0  0
   24.9833  -20.6335  -15.5268 O   0  0  0  0  0  0  0  0  0  0  0  0
   21.5809  -21.0878   -7.4644 N   0  0  0  0  0  0  0  0  0  0  0  0
   22.9864  -21.2019   -7.6354 C   0  0  0  0  0  0  0  0  0  0  0  0
   23.7109  -21.9810   -6.8910 N   0  0  0  0  0  0  0  0  0  0  0  0
   23.6033  -20.4381   -8.6509 N   0  0  0  0  0  0  0  0  0  0  0  0
   22.8390  -19.5694   -9.5401 C   0  0  0  0  0  0  0  0  0  0  0  0
   22.9247  -20.1486  -10.9646 C   0  0  0  0  0  0  0  0  0  0  0  0
   24.3165  -20.1275  -11.4733 C   0  0  0  0  0  0  0  0  0  0  0  0
   24.3806  -20.5859  -12.9030 C   0  0  2  0  0  0  0  0  0  0  0  0
   25.7724  -20.4421  -13.3935 N   0  0  0  0  0  0  0  0  0  0  0  0
   23.4630  -19.8711  -13.8171 C   0  0  0  0  0  0  0  0  0  0  0  0
   22.2848  -20.4827  -14.2938 O   0  0  0  0  0  0  0  0  0  0  0  0
   23.6677  -18.6992  -14.2205 O   0  0  0  0  0  0  0  0  0  0  0  0
  2  1  1  0
  3  2  1  0
  3  4  1  1
  5  3  1  0
  6  5  2  0
  7  8  1  0
  8  9  1  0
  9 10  1  6
  9 11  1  0
 11 12  1  6
 12  5  1  0
 13 11  1  0
 13 14  2  0
 16 15  1  0
 17 16  2  0
 18 16  1  0
 19 18  1  0
 20 21  1  0
 20 19  1  0
 22 21  1  1
 22 23  1  0
 23 13  1  0
 24 22  1  0
 25 24  1  0
 26 24  2  0
M  END
$$$$
