FFP.pdb
     RDKit          3D

 30 32  0  0  1  0  0  0  0  0999 V2000
   25.5697  -19.0780  -12.9319 N   0  0  0  0  0  0  0  0  0  0  0  0
   25.1862  -19.9913  -11.8858 C   0  0  1  0  0  0  0  0  0  0  0  0
   24.8823  -21.3747  -12.4204 C   0  0  0  0  0  0  0  0  0  0  0  0
   23.4576  -21.3972  -12.8426 C   0  0  0  0  0  0  0  0  0  0  0  0
   23.0527  -21.3585  -14.1464 C   0  0  0  0  0  0  0  0  0  0  0  0
   21.7064  -21.3811  -14.5085 C   0  0  0  0  0  0  0  0  0  0  0  0
   20.7628  -21.4443  -13.5155 C   0  0  0  0  0  0  0  0  0  0  0  0
   21.1287  -21.4854  -12.1762 C   0  0  0  0  0  0  0  0  0  0  0  0
   22.4639  -21.4611  -11.8671 C   0  0  0  0  0  0  0  0  0  0  0  0
   26.2779  -20.0213  -10.8796 C   0  0  0  0  0  0  0  0  0  0  0  0
   27.4496  -20.2458  -11.2909 O   0  0  0  0  0  0  0  0  0  0  0  0
   26.0925  -19.8154   -9.4943 N   0  0  0  0  0  0  0  0  0  0  0  0
   27.2211  -19.7251   -8.5520 C   0  0  1  0  0  0  0  0  0  0  0  0
   26.5818  -19.5128   -7.1697 C   0  0  0  0  0  0  0  0  0  0  0  0
   27.6351  -19.3116   -6.1400 C   0  0  0  0  0  0  0  0  0  0  0  0
   27.9866  -20.3275   -5.2845 C   0  0  0  0  0  0  0  0  0  0  0  0
   28.9810  -20.1181   -4.3216 C   0  0  0  0  0  0  0  0  0  0  0  0
   29.6237  -18.9012   -4.2105 C   0  0  0  0  0  0  0  0  0  0  0  0
   29.2718  -17.8920   -5.0633 C   0  0  0  0  0  0  0  0  0  0  0  0
   28.2812  -18.1004   -6.0225 C   0  0  0  0  0  0  0  0  0  0  0  0
   27.8999  -21.0438   -8.4985 C   0  0  0  0  0  0  0  0  0  0  0  0
   27.1420  -22.0695   -8.3559 O   0  0  0  0  0  0  0  0  0  0  0  0
   29.3011  -21.2264   -8.5956 N   0  0  0  0  0  0  0  0  0  0  0  0
   30.2665  -20.1864   -8.8961 C   0  0  0  0  0  0  0  0  0  0  0  0
   31.4479  -20.9889   -9.4957 C   0  0  0  0  0  0  0  0  0  0  0  0
   31.4288  -22.1609   -8.5331 C   0  0  0  0  0  0  0  0  0  0  0  0
   29.9823  -22.4880   -8.4214 C   0  0  1  0  0  0  0  0  0  0  0  0
   29.6282  -23.1433   -7.1396 C   0  0  0  0  0  0  0  0  0  0  0  0
   29.9391  -24.4374   -6.8318 O   0  0  0  0  0  0  0  0  0  0  0  0
   29.0035  -22.4480   -6.2979 O   0  0  0  0  0  0  0  0  0  0  0  0
  2  1  1  6
  2  3  1  0
  2 10  1  0
  3  4  1  0
  4  9  1  0
  4  5  2  0
  5  6  1  0
  6  7  2  0
  8  7  1  0
  9  8  2  0
 10 11  2  0
 12 13  1  0
 12 10  1  0
 13 14  1  1
 14 15  1  0
 15 16  2  0
 16 17  1  0
 18 17  2  0
 19 18  1  0
 20 19  2  0
 20 15  1  0
 21 13  1  0
 21 22  2  0
 23 21  1  0
 24 23  1  0
 25 24  1  0
 26 25  1  0
 26 27  1  0
 27 28  1  1
 27 23  1  0
 28 29  1  0
 30 28  2  0
M  END
$$$$
