FFP.pdb
     RDKit          3D

 30 32  0  0  1  0  0  0  0  0999 V2000
   24.9810  -18.7591  -19.6223 N   0  0  0  0  0  0  0  0  0  0  0  0
   23.9045  -18.6631  -18.6696 C   0  0  1  0  0  0  0  0  0  0  0  0
   22.5804  -19.0984  -19.2604 C   0  0  0  0  0  0  0  0  0  0  0  0
   21.9592  -17.9140  -19.9082 C   0  0  0  0  0  0  0  0  0  0  0  0
   21.9312  -17.7167  -21.2594 C   0  0  0  0  0  0  0  0  0  0  0  0
   21.3395  -16.5930  -21.8352 C   0  0  0  0  0  0  0  0  0  0  0  0
   20.7685  -15.6588  -21.0097 C   0  0  0  0  0  0  0  0  0  0  0  0
   20.7736  -15.8180  -19.6299 C   0  0  0  0  0  0  0  0  0  0  0  0
   21.3666  -16.9383  -19.1081 C   0  0  0  0  0  0  0  0  0  0  0  0
   24.2683  -19.4779  -17.4825 C   0  0  0  0  0  0  0  0  0  0  0  0
   24.6924  -20.6495  -17.6820 O   0  0  0  0  0  0  0  0  0  0  0  0
   24.1713  -19.0293  -16.1465 N   0  0  0  0  0  0  0  0  0  0  0  0
   24.5031  -19.8910  -14.9987 C   0  0  1  0  0  0  0  0  0  0  0  0
   24.7287  -18.9301  -13.8196 C   0  0  0  0  0  0  0  0  0  0  0  0
   25.0984  -19.6917  -12.5974 C   0  0  0  0  0  0  0  0  0  0  0  0
   24.2231  -19.8007  -11.5442 C   0  0  0  0  0  0  0  0  0  0  0  0
   24.5900  -20.5224  -10.4020 C   0  0  0  0  0  0  0  0  0  0  0  0
   25.8244  -21.1337  -10.3085 C   0  0  0  0  0  0  0  0  0  0  0  0
   26.6935  -21.0235  -11.3584 C   0  0  0  0  0  0  0  0  0  0  0  0
   26.3281  -20.3047  -12.4962 C   0  0  0  0  0  0  0  0  0  0  0  0
   23.3080  -20.7004  -14.6533 C   0  0  0  0  0  0  0  0  0  0  0  0
   22.1810  -20.0868  -14.6664 O   0  0  0  0  0  0  0  0  0  0  0  0
   23.3433  -22.0767  -14.3207 N   0  0  0  0  0  0  0  0  0  0  0  0
   24.5336  -22.9049  -14.2906 C   0  0  0  0  0  0  0  0  0  0  0  0
   23.9591  -24.3257  -14.5158 C   0  0  0  0  0  0  0  0  0  0  0  0
   22.7341  -24.2108  -13.6289 C   0  0  0  0  0  0  0  0  0  0  0  0
   22.1883  -22.8705  -13.9715 C   0  0  1  0  0  0  0  0  0  0  0  0
   21.4012  -22.2612  -12.8728 C   0  0  0  0  0  0  0  0  0  0  0  0
   20.0846  -22.5350  -12.6334 O   0  0  0  0  0  0  0  0  0  0  0  0
   22.0012  -21.4448  -12.1273 O   0  0  0  0  0  0  0  0  0  0  0  0
  2  1  1  6
  2  3  1  0
  2 10  1  0
  3  4  1  0
  4  9  1  0
  4  5  2  0
  5  6  1  0
  6  7  2  0
  8  7  1  0
  9  8  2  0
 10 11  2  0
 12 13  1  0
 12 10  1  0
 13 14  1  1
 14 15  1  0
 15 16  2  0
 16 17  1  0
 18 17  2  0
 19 18  1  0
 20 19  2  0
 20 15  1  0
 21 13  1  0
 21 22  2  0
 23 21  1  0
 24 23  1  0
 25 24  1  0
 26 25  1  0
 26 27  1  0
 27 28  1  1
 27 23  1  0
 28 29  1  0
 30 28  2  0
M  END
$$$$
