FFP.pdb
     RDKit          3D

 30 32  0  0  1  0  0  0  0  0999 V2000
   25.6143  -19.6006  -12.8195 N   0  0  0  0  0  0  0  0  0  0  0  0
   25.1764  -20.2656  -11.6188 C   0  0  1  0  0  0  0  0  0  0  0  0
   24.7502  -21.6942  -11.8820 C   0  0  0  0  0  0  0  0  0  0  0  0
   23.3829  -21.6620  -12.4631 C   0  0  0  0  0  0  0  0  0  0  0  0
   23.1102  -21.9283  -13.7746 C   0  0  0  0  0  0  0  0  0  0  0  0
   21.8144  -21.8892  -14.2882 C   0  0  0  0  0  0  0  0  0  0  0  0
   20.7842  -21.5718  -13.4408 C   0  0  0  0  0  0  0  0  0  0  0  0
   21.0147  -21.2937  -12.0996 C   0  0  0  0  0  0  0  0  0  0  0  0
   22.3047  -21.3441  -11.6387 C   0  0  0  0  0  0  0  0  0  0  0  0
   26.2804  -20.1977  -10.6280 C   0  0  0  0  0  0  0  0  0  0  0  0
   27.4544  -20.4049  -11.0417 O   0  0  0  0  0  0  0  0  0  0  0  0
   26.1042  -19.9168   -9.2547 N   0  0  0  0  0  0  0  0  0  0  0  0
   27.2397  -19.7025   -8.3412 C   0  0  1  0  0  0  0  0  0  0  0  0
   26.6133  -19.2492   -7.0120 C   0  0  0  0  0  0  0  0  0  0  0  0
   27.6662  -19.0861   -5.9750 C   0  0  0  0  0  0  0  0  0  0  0  0
   28.4315  -17.9465   -5.9220 C   0  0  0  0  0  0  0  0  0  0  0  0
   29.4181  -17.8119   -4.9379 C   0  0  0  0  0  0  0  0  0  0  0  0
   29.6421  -18.8088   -4.0093 C   0  0  0  0  0  0  0  0  0  0  0  0
   28.8788  -19.9419   -4.0645 C   0  0  0  0  0  0  0  0  0  0  0  0
   27.8961  -20.0760   -5.0447 C   0  0  0  0  0  0  0  0  0  0  0  0
   27.8847  -21.0118   -8.0722 C   0  0  0  0  0  0  0  0  0  0  0  0
   27.1048  -21.9714   -7.7293 O   0  0  0  0  0  0  0  0  0  0  0  0
   29.2768  -21.2530   -8.1726 N   0  0  0  0  0  0  0  0  0  0  0  0
   30.2628  -20.3039   -8.6529 C   0  0  0  0  0  0  0  0  0  0  0  0
   31.4033  -21.2275   -9.1485 C   0  0  0  0  0  0  0  0  0  0  0  0
   31.3775  -22.2361   -8.0161 C   0  0  0  0  0  0  0  0  0  0  0  0
   29.9260  -22.4944   -7.8213 C   0  0  1  0  0  0  0  0  0  0  0  0
   29.5894  -22.9327   -6.4456 C   0  0  0  0  0  0  0  0  0  0  0  0
   29.2828  -22.0780   -5.4251 O   0  0  0  0  0  0  0  0  0  0  0  0
   29.5922  -24.1712   -6.2257 O   0  0  0  0  0  0  0  0  0  0  0  0
  2  1  1  6
  2  3  1  0
  2 10  1  0
  3  4  1  0
  4  9  1  0
  4  5  2  0
  5  6  1  0
  6  7  2  0
  8  7  1  0
  9  8  2  0
 10 11  2  0
 12 13  1  0
 12 10  1  0
 13 14  1  1
 14 15  1  0
 15 16  2  0
 16 17  1  0
 18 17  2  0
 19 18  1  0
 20 19  2  0
 20 15  1  0
 21 13  1  0
 21 22  2  0
 23 21  1  0
 24 23  1  0
 25 24  1  0
 26 25  1  0
 26 27  1  0
 27 28  1  1
 27 23  1  0
 28 29  1  0
 30 28  2  0
M  END
$$$$
