FFP.pdb
     RDKit          3D

 30 32  0  0  1  0  0  0  0  0999 V2000
   24.1240  -11.6683  -20.8591 N   0  0  0  0  0  0  0  0  0  0  0  0
   23.8344  -11.2414  -19.5139 C   0  0  1  0  0  0  0  0  0  0  0  0
   24.8378  -11.7807  -18.5167 C   0  0  0  0  0  0  0  0  0  0  0  0
   24.6222  -13.2464  -18.4008 C   0  0  0  0  0  0  0  0  0  0  0  0
   23.7270  -13.8153  -17.5405 C   0  0  0  0  0  0  0  0  0  0  0  0
   23.5493  -15.1957  -17.4567 C   0  0  0  0  0  0  0  0  0  0  0  0
   24.3032  -16.0028  -18.2695 C   0  0  0  0  0  0  0  0  0  0  0  0
   25.2257  -15.4682  -19.1596 C   0  0  0  0  0  0  0  0  0  0  0  0
   25.3667  -14.1055  -19.2077 C   0  0  0  0  0  0  0  0  0  0  0  0
   23.7948   -9.7570  -19.5021 C   0  0  0  0  0  0  0  0  0  0  0  0
   24.8050   -9.1391  -19.9379 O   0  0  0  0  0  0  0  0  0  0  0  0
   22.7029   -8.9914  -19.0360 N   0  0  0  0  0  0  0  0  0  0  0  0
   22.6839   -7.5201  -19.1055 C   0  0  1  0  0  0  0  0  0  0  0  0
   21.2862   -7.1551  -19.6328 C   0  0  0  0  0  0  0  0  0  0  0  0
   21.1581   -5.6809  -19.7758 C   0  0  0  0  0  0  0  0  0  0  0  0
   20.4756   -4.9396  -18.8420 C   0  0  0  0  0  0  0  0  0  0  0  0
   20.3661   -3.5523  -18.9946 C   0  0  0  0  0  0  0  0  0  0  0  0
   20.9342   -2.9048  -20.0736 C   0  0  0  0  0  0  0  0  0  0  0  0
   21.6129   -3.6451  -21.0014 C   0  0  0  0  0  0  0  0  0  0  0  0
   21.7221   -5.0270  -20.8495 C   0  0  0  0  0  0  0  0  0  0  0  0
   22.7623   -6.9799  -17.7254 C   0  0  0  0  0  0  0  0  0  0  0  0
   22.0509   -7.5755  -16.8390 O   0  0  0  0  0  0  0  0  0  0  0  0
   23.5599   -5.8732  -17.3441 N   0  0  0  0  0  0  0  0  0  0  0  0
   24.3769   -5.0765  -18.2394 C   0  0  0  0  0  0  0  0  0  0  0  0
   25.4534   -4.4998  -17.2866 C   0  0  0  0  0  0  0  0  0  0  0  0
   24.5534   -4.1716  -16.1107 C   0  0  0  0  0  0  0  0  0  0  0  0
   23.6901   -5.3769  -15.9941 C   0  0  1  0  0  0  0  0  0  0  0  0
   22.3744   -5.0958  -15.3714 C   0  0  0  0  0  0  0  0  0  0  0  0
   21.3274   -4.5136  -16.0277 O   0  0  0  0  0  0  0  0  0  0  0  0
   22.2344   -5.4209  -14.1643 O   0  0  0  0  0  0  0  0  0  0  0  0
  2  1  1  6
  2  3  1  0
  2 10  1  0
  3  4  1  0
  4  9  1  0
  4  5  2  0
  5  6  1  0
  6  7  2  0
  8  7  1  0
  9  8  2  0
 10 11  2  0
 12 13  1  0
 12 10  1  0
 13 14  1  1
 14 15  1  0
 15 16  2  0
 16 17  1  0
 18 17  2  0
 19 18  1  0
 20 19  2  0
 20 15  1  0
 21 13  1  0
 21 22  2  0
 23 21  1  0
 24 23  1  0
 25 24  1  0
 26 25  1  0
 26 27  1  0
 27 28  1  6
 27 23  1  0
 28 29  1  0
 30 28  2  0
M  END
$$$$
