FFP.pdb
     RDKit          3D

 30 32  0  0  1  0  0  0  0  0999 V2000
   24.0368  -15.3120  -18.6575 N   0  0  0  0  0  0  0  0  0  0  0  0
   23.4661  -16.5873  -18.3057 C   0  0  1  0  0  0  0  0  0  0  0  0
   23.3339  -17.5024  -19.5044 C   0  0  0  0  0  0  0  0  0  0  0  0
   22.2273  -16.9865  -20.3516 C   0  0  0  0  0  0  0  0  0  0  0  0
   22.4210  -16.2665  -21.4959 C   0  0  0  0  0  0  0  0  0  0  0  0
   21.3594  -15.7968  -22.2683 C   0  0  0  0  0  0  0  0  0  0  0  0
   20.0802  -16.0715  -21.8581 C   0  0  0  0  0  0  0  0  0  0  0  0
   19.8359  -16.8001  -20.7011 C   0  0  0  0  0  0  0  0  0  0  0  0
   20.9102  -17.2417  -19.9732 C   0  0  0  0  0  0  0  0  0  0  0  0
   24.3127  -17.1923  -17.2462 C   0  0  0  0  0  0  0  0  0  0  0  0
   25.5546  -16.9734  -17.2904 O   0  0  0  0  0  0  0  0  0  0  0  0
   23.8209  -17.9956  -16.1933 N   0  0  0  0  0  0  0  0  0  0  0  0
   24.6885  -18.5027  -15.1163 C   0  0  1  0  0  0  0  0  0  0  0  0
   23.7366  -18.8739  -13.9670 C   0  0  0  0  0  0  0  0  0  0  0  0
   24.4936  -19.5061  -12.8545 C   0  0  0  0  0  0  0  0  0  0  0  0
   25.3495  -18.7661  -12.0754 C   0  0  0  0  0  0  0  0  0  0  0  0
   26.0533  -19.3800  -11.0325 C   0  0  0  0  0  0  0  0  0  0  0  0
   25.9057  -20.7266  -10.7660 C   0  0  0  0  0  0  0  0  0  0  0  0
   25.0532  -21.4607  -11.5432 C   0  0  0  0  0  0  0  0  0  0  0  0
   24.3520  -20.8493  -12.5820 C   0  0  0  0  0  0  0  0  0  0  0  0
   25.3108  -19.7722  -15.5678 C   0  0  0  0  0  0  0  0  0  0  0  0
   24.5475  -20.5879  -16.1993 O   0  0  0  0  0  0  0  0  0  0  0  0
   26.6655  -20.1215  -15.3467 N   0  0  0  0  0  0  0  0  0  0  0  0
   27.6404  -19.3087  -14.6449 C   0  0  0  0  0  0  0  0  0  0  0  0
   28.9816  -19.8076  -15.2378 C   0  0  0  0  0  0  0  0  0  0  0  0
   28.6722  -21.2922  -15.2635 C   0  0  0  0  0  0  0  0  0  0  0  0
   27.2868  -21.3433  -15.8019 C   0  0  1  0  0  0  0  0  0  0  0  0
   26.5363  -22.5473  -15.3717 C   0  0  0  0  0  0  0  0  0  0  0  0
   26.0426  -22.7298  -14.1112 O   0  0  0  0  0  0  0  0  0  0  0  0
   26.3540  -23.4436  -16.2353 O   0  0  0  0  0  0  0  0  0  0  0  0
  2  1  1  6
  2  3  1  0
  2 10  1  0
  3  4  1  0
  4  9  1  0
  4  5  2  0
  5  6  1  0
  6  7  2  0
  8  7  1  0
  9  8  2  0
 10 11  2  0
 12 13  1  0
 12 10  1  0
 13 14  1  1
 14 15  1  0
 15 16  2  0
 16 17  1  0
 18 17  2  0
 19 18  1  0
 20 19  2  0
 20 15  1  0
 21 13  1  0
 21 22  2  0
 23 21  1  0
 24 23  1  0
 25 24  1  0
 26 25  1  0
 26 27  1  0
 27 28  1  1
 27 23  1  0
 28 29  1  0
 30 28  2  0
M  END
$$$$
