FFP.pdb
     RDKit          3D

 30 32  0  0  1  0  0  0  0  0999 V2000
   24.2150  -16.4992  -15.2304 N   0  0  0  0  0  0  0  0  0  0  0  0
   23.5213  -17.7610  -15.1826 C   0  0  1  0  0  0  0  0  0  0  0  0
   22.7853  -18.0556  -16.4724 C   0  0  0  0  0  0  0  0  0  0  0  0
   21.3739  -17.6236  -16.3004 C   0  0  0  0  0  0  0  0  0  0  0  0
   20.4381  -18.3456  -15.6161 C   0  0  0  0  0  0  0  0  0  0  0  0
   19.1210  -17.9110  -15.4734 C   0  0  0  0  0  0  0  0  0  0  0  0
   18.7609  -16.7166  -16.0427 C   0  0  0  0  0  0  0  0  0  0  0  0
   19.6792  -15.9491  -16.7476 C   0  0  0  0  0  0  0  0  0  0  0  0
   20.9629  -16.4158  -16.8623 C   0  0  0  0  0  0  0  0  0  0  0  0
   24.5141  -18.8187  -14.8653 C   0  0  0  0  0  0  0  0  0  0  0  0
   25.6635  -18.7177  -15.3761 O   0  0  0  0  0  0  0  0  0  0  0  0
   24.2578  -19.9293  -14.0306 N   0  0  0  0  0  0  0  0  0  0  0  0
   25.3045  -20.8986  -13.6634 C   0  0  1  0  0  0  0  0  0  0  0  0
   24.7406  -21.6705  -12.4589 C   0  0  0  0  0  0  0  0  0  0  0  0
   25.2000  -21.0503  -11.1882 C   0  0  0  0  0  0  0  0  0  0  0  0
   24.3658  -20.2376  -10.4596 C   0  0  0  0  0  0  0  0  0  0  0  0
   24.8172  -19.6630   -9.2654 C   0  0  0  0  0  0  0  0  0  0  0  0
   26.0952  -19.8966   -8.7981 C   0  0  0  0  0  0  0  0  0  0  0  0
   26.9232  -20.7059   -9.5254 C   0  0  0  0  0  0  0  0  0  0  0  0
   26.4736  -21.2783  -10.7149 C   0  0  0  0  0  0  0  0  0  0  0  0
   25.4423  -21.8858  -14.7630 C   0  0  0  0  0  0  0  0  0  0  0  0
   24.3512  -22.3691  -15.2349 O   0  0  0  0  0  0  0  0  0  0  0  0
   26.6797  -22.3104  -15.3059 N   0  0  0  0  0  0  0  0  0  0  0  0
   27.9836  -21.7991  -14.9292 C   0  0  0  0  0  0  0  0  0  0  0  0
   28.8342  -22.0880  -16.1912 C   0  0  0  0  0  0  0  0  0  0  0  0
   28.2969  -23.4707  -16.5069 C   0  0  0  0  0  0  0  0  0  0  0  0
   26.8282  -23.3147  -16.3332 C   0  0  1  0  0  0  0  0  0  0  0  0
   26.1430  -24.5815  -15.9813 C   0  0  0  0  0  0  0  0  0  0  0  0
   25.5763  -24.8307  -14.7636 O   0  0  0  0  0  0  0  0  0  0  0  0
   26.0916  -25.4678  -16.8723 O   0  0  0  0  0  0  0  0  0  0  0  0
  2  1  1  6
  2  3  1  0
  2 10  1  0
  3  4  1  0
  4  9  1  0
  4  5  2  0
  5  6  1  0
  6  7  2  0
  8  7  1  0
  9  8  2  0
 10 11  2  0
 12 13  1  0
 12 10  1  0
 13 14  1  1
 14 15  1  0
 15 16  2  0
 16 17  1  0
 18 17  2  0
 19 18  1  0
 20 19  2  0
 20 15  1  0
 21 13  1  0
 21 22  2  0
 23 21  1  0
 24 23  1  0
 25 24  1  0
 26 25  1  0
 26 27  1  0
 27 28  1  1
 27 23  1  0
 28 29  1  0
 30 28  2  0
M  END
$$$$
