FFP.pdb
     RDKit          3D

 30 32  0  0  1  0  0  0  0  0999 V2000
   24.4180  -20.3344  -11.5433 N   0  0  0  0  0  0  0  0  0  0  0  0
   25.5133  -21.0554  -10.9465 C   0  0  1  0  0  0  0  0  0  0  0  0
   26.6639  -21.2449  -11.9120 C   0  0  0  0  0  0  0  0  0  0  0  0
   26.2432  -22.2400  -12.9324 C   0  0  0  0  0  0  0  0  0  0  0  0
   25.7532  -23.4777  -12.6272 C   0  0  0  0  0  0  0  0  0  0  0  0
   25.3672  -24.3884  -13.6101 C   0  0  0  0  0  0  0  0  0  0  0  0
   25.4868  -24.0208  -14.9257 C   0  0  0  0  0  0  0  0  0  0  0  0
   25.9800  -22.7724  -15.2825 C   0  0  0  0  0  0  0  0  0  0  0  0
   26.3472  -21.9096  -14.2827 C   0  0  0  0  0  0  0  0  0  0  0  0
   25.9370  -20.3200   -9.7279 C   0  0  0  0  0  0  0  0  0  0  0  0
   26.2079  -19.0933   -9.8467 O   0  0  0  0  0  0  0  0  0  0  0  0
   26.0570  -20.9015   -8.4460 N   0  0  0  0  0  0  0  0  0  0  0  0
   26.6128  -20.1682   -7.2958 C   0  0  1  0  0  0  0  0  0  0  0  0
   25.9434  -20.7858   -6.0568 C   0  0  0  0  0  0  0  0  0  0  0  0
   26.5116  -20.1959   -4.8160 C   0  0  0  0  0  0  0  0  0  0  0  0
   26.2018  -18.9111   -4.4413 C   0  0  0  0  0  0  0  0  0  0  0  0
   26.7471  -18.3738   -3.2692 C   0  0  0  0  0  0  0  0  0  0  0  0
   27.5984  -19.1132   -2.4725 C   0  0  0  0  0  0  0  0  0  0  0  0
   27.9050  -20.3917   -2.8480 C   0  0  0  0  0  0  0  0  0  0  0  0
   27.3618  -20.9271   -4.0154 C   0  0  0  0  0  0  0  0  0  0  0  0
   28.0592  -20.4830   -7.1877 C   0  0  0  0  0  0  0  0  0  0  0  0
   28.3959  -21.7003   -7.4145 O   0  0  0  0  0  0  0  0  0  0  0  0
   29.0608  -19.5372   -6.8584 N   0  0  0  0  0  0  0  0  0  0  0  0
   28.8643  -18.1037   -6.7582 C   0  0  0  0  0  0  0  0  0  0  0  0
   30.2869  -17.5511   -7.0234 C   0  0  0  0  0  0  0  0  0  0  0  0
   31.0714  -18.5651   -6.2130 C   0  0  0  0  0  0  0  0  0  0  0  0
   30.4415  -19.8602   -6.5838 C   0  0  1  0  0  0  0  0  0  0  0  0
   30.5757  -20.8978   -5.5334 C   0  0  0  0  0  0  0  0  0  0  0  0
   31.7706  -21.4092   -5.1131 O   0  0  0  0  0  0  0  0  0  0  0  0
   29.5124  -21.3195   -5.0102 O   0  0  0  0  0  0  0  0  0  0  0  0
  2  1  1  6
  2  3  1  0
  2 10  1  0
  3  4  1  0
  4  9  1  0
  4  5  2  0
  5  6  1  0
  6  7  2  0
  8  7  1  0
  9  8  2  0
 10 11  2  0
 12 13  1  0
 12 10  1  0
 13 14  1  1
 14 15  1  0
 15 16  2  0
 16 17  1  0
 18 17  2  0
 19 18  1  0
 20 19  2  0
 20 15  1  0
 21 13  1  0
 21 22  2  0
 23 21  1  0
 24 23  1  0
 25 24  1  0
 26 25  1  0
 26 27  1  0
 27 28  1  1
 27 23  1  0
 28 29  1  0
 30 28  2  0
M  END
$$$$
