FFP.pdb
     RDKit          3D

 30 32  0  0  1  0  0  0  0  0999 V2000
   24.2872  -17.3313  -19.2687 N   0  0  0  0  0  0  0  0  0  0  0  0
   23.6106  -17.3206  -17.9968 C   0  0  1  0  0  0  0  0  0  0  0  0
   22.1319  -17.6143  -18.1357 C   0  0  0  0  0  0  0  0  0  0  0  0
   21.4670  -16.3811  -18.6310 C   0  0  0  0  0  0  0  0  0  0  0  0
   21.2439  -16.1189  -19.9527 C   0  0  0  0  0  0  0  0  0  0  0  0
   20.6166  -14.9506  -20.3840 C   0  0  0  0  0  0  0  0  0  0  0  0
   20.2130  -14.0390  -19.4426 C   0  0  0  0  0  0  0  0  0  0  0  0
   20.4192  -14.2639  -18.0876 C   0  0  0  0  0  0  0  0  0  0  0  0
   21.0399  -15.4262  -17.7097 C   0  0  0  0  0  0  0  0  0  0  0  0
   24.2830  -18.3046  -17.1109 C   0  0  0  0  0  0  0  0  0  0  0  0
   24.5234  -19.4504  -17.5817 O   0  0  0  0  0  0  0  0  0  0  0  0
   24.6711  -18.0438  -15.7779 N   0  0  0  0  0  0  0  0  0  0  0  0
   25.2052  -19.0925  -14.8919 C   0  0  1  0  0  0  0  0  0  0  0  0
   25.6830  -18.3553  -13.6299 C   0  0  0  0  0  0  0  0  0  0  0  0
   26.2521  -19.3210  -12.6532 C   0  0  0  0  0  0  0  0  0  0  0  0
   25.5230  -19.7332  -11.5642 C   0  0  0  0  0  0  0  0  0  0  0  0
   26.0767  -20.6433  -10.6558 C   0  0  0  0  0  0  0  0  0  0  0  0
   27.3523  -21.1416  -10.8310 C   0  0  0  0  0  0  0  0  0  0  0  0
   28.0756  -20.7296  -11.9157 C   0  0  0  0  0  0  0  0  0  0  0  0
   27.5242  -19.8231  -12.8206 C   0  0  0  0  0  0  0  0  0  0  0  0
   24.0847  -19.9667  -14.4641 C   0  0  0  0  0  0  0  0  0  0  0  0
   22.9670  -19.3838  -14.2237 O   0  0  0  0  0  0  0  0  0  0  0  0
   24.1796  -21.3718  -14.3128 N   0  0  0  0  0  0  0  0  0  0  0  0
   25.3822  -22.1595  -14.5050 C   0  0  0  0  0  0  0  0  0  0  0  0
   24.8145  -23.5589  -14.8498 C   0  0  0  0  0  0  0  0  0  0  0  0
   23.6844  -23.5931  -13.8388 C   0  0  0  0  0  0  0  0  0  0  0  0
   23.0814  -22.2385  -13.9543 C   0  0  1  0  0  0  0  0  0  0  0  0
   22.3990  -21.7946  -12.7152 C   0  0  0  0  0  0  0  0  0  0  0  0
   22.9939  -21.0409  -11.7436 O   0  0  0  0  0  0  0  0  0  0  0  0
   21.1995  -22.1441  -12.5691 O   0  0  0  0  0  0  0  0  0  0  0  0
  2  1  1  6
  2  3  1  0
  2 10  1  0
  3  4  1  0
  4  9  1  0
  4  5  2  0
  5  6  1  0
  6  7  2  0
  8  7  1  0
  9  8  2  0
 10 11  2  0
 12 13  1  0
 12 10  1  0
 13 14  1  1
 14 15  1  0
 15 16  2  0
 16 17  1  0
 18 17  2  0
 19 18  1  0
 20 19  2  0
 20 15  1  0
 21 13  1  0
 21 22  2  0
 23 21  1  0
 24 23  1  0
 25 24  1  0
 26 25  1  0
 26 27  1  0
 27 28  1  1
 27 23  1  0
 28 29  1  0
 30 28  2  0
M  END
$$$$
