FFP.pdb
     RDKit          3D

 30 32  0  0  1  0  0  0  0  0999 V2000
   20.3935  -26.3640  -15.3029 N   0  0  0  0  0  0  0  0  0  0  0  0
   20.6372  -27.7626  -15.0574 C   0  0  1  0  0  0  0  0  0  0  0  0
   21.7640  -28.3030  -15.9120 C   0  0  0  0  0  0  0  0  0  0  0  0
   21.2582  -28.4342  -17.3031 C   0  0  0  0  0  0  0  0  0  0  0  0
   21.5113  -27.5252  -18.2906 C   0  0  0  0  0  0  0  0  0  0  0  0
   21.0209  -27.6787  -19.5868 C   0  0  0  0  0  0  0  0  0  0  0  0
   20.2592  -28.7827  -19.8717 C   0  0  0  0  0  0  0  0  0  0  0  0
   19.9765  -29.7329  -18.8989 C   0  0  0  0  0  0  0  0  0  0  0  0
   20.4796  -29.5408  -17.6383 C   0  0  0  0  0  0  0  0  0  0  0  0
   20.9190  -27.9320  -13.6093 C   0  0  0  0  0  0  0  0  0  0  0  0
   21.6467  -27.0676  -13.0476 O   0  0  0  0  0  0  0  0  0  0  0  0
   20.4274  -28.9952  -12.8196 N   0  0  0  0  0  0  0  0  0  0  0  0
   20.5884  -29.0309  -11.3558 C   0  0  1  0  0  0  0  0  0  0  0  0
   19.1867  -28.7587  -10.7850 C   0  0  0  0  0  0  0  0  0  0  0  0
   18.8991  -27.3001  -10.7984 C   0  0  0  0  0  0  0  0  0  0  0  0
   18.1462  -26.7402  -11.8018 C   0  0  0  0  0  0  0  0  0  0  0  0
   17.8864  -25.3645  -11.7965 C   0  0  0  0  0  0  0  0  0  0  0  0
   18.3746  -24.5487  -10.7953 C   0  0  0  0  0  0  0  0  0  0  0  0
   19.1236  -25.1088   -9.7980 C   0  0  0  0  0  0  0  0  0  0  0  0
   19.3824  -26.4791   -9.8031 C   0  0  0  0  0  0  0  0  0  0  0  0
   20.9408  -30.4149  -10.9519 C   0  0  0  0  0  0  0  0  0  0  0  0
   20.3138  -31.3605  -11.5513 O   0  0  0  0  0  0  0  0  0  0  0  0
   21.9069  -30.7392   -9.9682 N   0  0  0  0  0  0  0  0  0  0  0  0
   22.7591  -29.7885   -9.2801 C   0  0  0  0  0  0  0  0  0  0  0  0
   23.9693  -30.6621   -8.8656 C   0  0  0  0  0  0  0  0  0  0  0  0
   23.2084  -31.9002   -8.4313 C   0  0  0  0  0  0  0  0  0  0  0  0
   22.1993  -32.0770   -9.5092 C   0  0  1  0  0  0  0  0  0  0  0  0
   20.9819  -32.7933   -9.0589 C   0  0  0  0  0  0  0  0  0  0  0  0
   19.8031  -32.1762   -8.7495 O   0  0  0  0  0  0  0  0  0  0  0  0
   21.0603  -34.0450   -8.9624 O   0  0  0  0  0  0  0  0  0  0  0  0
  2  1  1  1
  2  3  1  0
  2 10  1  0
  3  4  1  0
  4  9  1  0
  4  5  2  0
  5  6  1  0
  6  7  2  0
  8  7  1  0
  9  8  2  0
 10 11  2  0
 12 13  1  0
 12 10  1  0
 13 14  1  1
 14 15  1  0
 15 16  2  0
 16 17  1  0
 18 17  2  0
 19 18  1  0
 20 19  2  0
 20 15  1  0
 21 13  1  0
 21 22  2  0
 23 21  1  0
 24 23  1  0
 25 24  1  0
 26 25  1  0
 26 27  1  0
 27 28  1  1
 27 23  1  0
 28 29  1  0
 30 28  2  0
M  END
$$$$
