FFP.pdb
     RDKit          3D

 30 32  0  0  1  0  0  0  0  0999 V2000
   24.2687  -19.1582  -12.7357 N   0  0  0  0  0  0  0  0  0  0  0  0
   24.3631  -20.2673  -11.8210 C   0  0  1  0  0  0  0  0  0  0  0  0
   24.4421  -21.5957  -12.5428 C   0  0  0  0  0  0  0  0  0  0  0  0
   23.0929  -21.8998  -13.0865 C   0  0  0  0  0  0  0  0  0  0  0  0
   22.0311  -22.2746  -12.3137 C   0  0  0  0  0  0  0  0  0  0  0  0
   20.7772  -22.5530  -12.8564 C   0  0  0  0  0  0  0  0  0  0  0  0
   20.6129  -22.4444  -14.2134 C   0  0  0  0  0  0  0  0  0  0  0  0
   21.6647  -22.0664  -15.0380 C   0  0  0  0  0  0  0  0  0  0  0  0
   22.8796  -21.8024  -14.4606 C   0  0  0  0  0  0  0  0  0  0  0  0
   25.5464  -20.0457  -10.9516 C   0  0  0  0  0  0  0  0  0  0  0  0
   26.5997  -19.6102  -11.4931 O   0  0  0  0  0  0  0  0  0  0  0  0
   25.5715  -20.2897   -9.5603 N   0  0  0  0  0  0  0  0  0  0  0  0
   26.7637  -20.0301   -8.7351 C   0  0  1  0  0  0  0  0  0  0  0  0
   26.2769  -20.1120   -7.2787 C   0  0  0  0  0  0  0  0  0  0  0  0
   27.3802  -19.7613   -6.3459 C   0  0  0  0  0  0  0  0  0  0  0  0
   27.9865  -20.7259   -5.5783 C   0  0  0  0  0  0  0  0  0  0  0  0
   29.0238  -20.3754   -4.7058 C   0  0  0  0  0  0  0  0  0  0  0  0
   29.4562  -19.0687   -4.5978 C   0  0  0  0  0  0  0  0  0  0  0  0
   28.8509  -18.1108   -5.3631 C   0  0  0  0  0  0  0  0  0  0  0  0
   27.8176  -18.4598   -6.2322 C   0  0  0  0  0  0  0  0  0  0  0  0
   27.7194  -21.1508   -8.9181 C   0  0  0  0  0  0  0  0  0  0  0  0
   27.2525  -22.3327   -8.7397 O   0  0  0  0  0  0  0  0  0  0  0  0
   29.0816  -20.9903   -9.2712 N   0  0  0  0  0  0  0  0  0  0  0  0
   29.7159  -19.7363   -9.6299 C   0  0  0  0  0  0  0  0  0  0  0  0
   30.9111  -20.2016  -10.4983 C   0  0  0  0  0  0  0  0  0  0  0  0
   31.3365  -21.3958   -9.6655 C   0  0  0  0  0  0  0  0  0  0  0  0
   30.0474  -22.0621   -9.3399 C   0  0  1  0  0  0  0  0  0  0  0  0
   30.0976  -22.8520   -8.0864 C   0  0  0  0  0  0  0  0  0  0  0  0
   29.3992  -22.5359   -6.9558 O   0  0  0  0  0  0  0  0  0  0  0  0
   30.8342  -23.8717   -8.0848 O   0  0  0  0  0  0  0  0  0  0  0  0
  2  1  1  6
  2  3  1  0
  2 10  1  0
  3  4  1  0
  4  9  1  0
  4  5  2  0
  5  6  1  0
  6  7  2  0
  8  7  1  0
  9  8  2  0
 10 11  2  0
 12 13  1  0
 12 10  1  0
 13 14  1  1
 14 15  1  0
 15 16  2  0
 16 17  1  0
 18 17  2  0
 19 18  1  0
 20 19  2  0
 20 15  1  0
 21 13  1  0
 21 22  2  0
 23 21  1  0
 24 23  1  0
 25 24  1  0
 26 25  1  0
 26 27  1  0
 27 28  1  1
 27 23  1  0
 28 29  1  0
 30 28  2  0
M  END
$$$$
