FFP.pdb
     RDKit          3D

 30 32  0  0  1  0  0  0  0  0999 V2000
   26.1812  -21.2765  -12.4697 N   0  0  0  0  0  0  0  0  0  0  0  0
   25.4557  -20.6323  -11.4047 C   0  0  1  0  0  0  0  0  0  0  0  0
   24.0124  -21.0850  -11.3435 C   0  0  0  0  0  0  0  0  0  0  0  0
   23.2992  -20.4916  -12.5044 C   0  0  0  0  0  0  0  0  0  0  0  0
   23.0965  -19.1505  -12.6647 C   0  0  0  0  0  0  0  0  0  0  0  0
   22.4225  -18.6263  -13.7670 C   0  0  0  0  0  0  0  0  0  0  0  0
   21.9501  -19.4936  -14.7182 C   0  0  0  0  0  0  0  0  0  0  0  0
   22.1332  -20.8651  -14.5965 C   0  0  0  0  0  0  0  0  0  0  0  0
   22.8017  -21.3355  -13.4961 C   0  0  0  0  0  0  0  0  0  0  0  0
   26.1696  -20.9067  -10.1318 C   0  0  0  0  0  0  0  0  0  0  0  0
   26.3979  -22.1116   -9.8344 O   0  0  0  0  0  0  0  0  0  0  0  0
   26.6096  -19.9099   -9.2326 N   0  0  0  0  0  0  0  0  0  0  0  0
   27.3524  -20.2300   -8.0015 C   0  0  1  0  0  0  0  0  0  0  0  0
   27.9993  -18.9066   -7.5601 C   0  0  0  0  0  0  0  0  0  0  0  0
   28.6946  -19.0818   -6.2577 C   0  0  0  0  0  0  0  0  0  0  0  0
   29.7668  -19.9327   -6.1409 C   0  0  0  0  0  0  0  0  0  0  0  0
   30.4081  -20.0839   -4.9057 C   0  0  0  0  0  0  0  0  0  0  0  0
   29.9833  -19.3902   -3.7900 C   0  0  0  0  0  0  0  0  0  0  0  0
   28.9159  -18.5441   -3.9093 C   0  0  0  0  0  0  0  0  0  0  0  0
   28.2770  -18.3933   -5.1397 C   0  0  0  0  0  0  0  0  0  0  0  0
   26.3786  -20.5912   -6.9413 C   0  0  0  0  0  0  0  0  0  0  0  0
   25.2585  -19.9654   -6.9593 O   0  0  0  0  0  0  0  0  0  0  0  0
   26.6122  -21.5644   -5.9390 N   0  0  0  0  0  0  0  0  0  0  0  0
   27.7948  -22.3975   -5.8343 C   0  0  0  0  0  0  0  0  0  0  0  0
   27.2712  -23.6254   -5.0485 C   0  0  0  0  0  0  0  0  0  0  0  0
   26.4091  -22.8901   -4.0403 C   0  0  0  0  0  0  0  0  0  0  0  0
   25.6947  -21.8841   -4.8705 C   0  0  1  0  0  0  0  0  0  0  0  0
   25.2831  -20.6817   -4.1070 C   0  0  0  0  0  0  0  0  0  0  0  0
   24.2051  -20.6409   -3.2691 O   0  0  0  0  0  0  0  0  0  0  0  0
   25.9827  -19.6467   -4.2540 O   0  0  0  0  0  0  0  0  0  0  0  0
  2  1  1  6
  2  3  1  0
  2 10  1  0
  3  4  1  0
  4  9  1  0
  4  5  2  0
  5  6  1  0
  6  7  2  0
  8  7  1  0
  9  8  2  0
 10 11  2  0
 12 13  1  0
 12 10  1  0
 13 14  1  1
 14 15  1  0
 15 16  2  0
 16 17  1  0
 18 17  2  0
 19 18  1  0
 20 19  2  0
 20 15  1  0
 21 13  1  0
 21 22  2  0
 23 21  1  0
 24 23  1  0
 25 24  1  0
 26 25  1  0
 26 27  1  0
 27 28  1  1
 27 23  1  0
 28 29  1  0
 30 28  2  0
M  END
$$$$
