FFP.pdb
     RDKit          3D

 30 32  0  0  1  0  0  0  0  0999 V2000
   26.6824  -19.1863  -18.6710 N   0  0  0  0  0  0  0  0  0  0  0  0
   25.9518  -18.7159  -17.5219 C   0  0  1  0  0  0  0  0  0  0  0  0
   24.4543  -18.7707  -17.7373 C   0  0  0  0  0  0  0  0  0  0  0  0
   24.0791  -17.6348  -18.6190 C   0  0  0  0  0  0  0  0  0  0  0  0
   23.7723  -17.7719  -19.9427 C   0  0  0  0  0  0  0  0  0  0  0  0
   23.4239  -16.6841  -20.7425 C   0  0  0  0  0  0  0  0  0  0  0  0
   23.3905  -15.4373  -20.1727 C   0  0  0  0  0  0  0  0  0  0  0  0
   23.6950  -15.2507  -18.8304 C   0  0  0  0  0  0  0  0  0  0  0  0
   24.0321  -16.3490  -18.0826 C   0  0  0  0  0  0  0  0  0  0  0  0
   26.3662  -19.5290  -16.3503 C   0  0  0  0  0  0  0  0  0  0  0  0
   26.3412  -20.7850  -16.4688 O   0  0  0  0  0  0  0  0  0  0  0  0
   26.7859  -18.9906  -15.1135 N   0  0  0  0  0  0  0  0  0  0  0  0
   26.9935  -19.8269  -13.9187 C   0  0  1  0  0  0  0  0  0  0  0  0
   27.7406  -18.9295  -12.9181 C   0  0  0  0  0  0  0  0  0  0  0  0
   27.9921  -19.6672  -11.6521 C   0  0  0  0  0  0  0  0  0  0  0  0
   28.9619  -20.6379  -11.5836 C   0  0  0  0  0  0  0  0  0  0  0  0
   29.1835  -21.3213  -10.3821 C   0  0  0  0  0  0  0  0  0  0  0  0
   28.4419  -21.0395   -9.2521 C   0  0  0  0  0  0  0  0  0  0  0  0
   27.4774  -20.0730   -9.3233 C   0  0  0  0  0  0  0  0  0  0  0  0
   27.2566  -19.3921  -10.5200 C   0  0  0  0  0  0  0  0  0  0  0  0
   25.6720  -20.1190  -13.3098 C   0  0  0  0  0  0  0  0  0  0  0  0
   24.9212  -19.1074  -13.0651 O   0  0  0  0  0  0  0  0  0  0  0  0
   25.2068  -21.4191  -12.9943 N   0  0  0  0  0  0  0  0  0  0  0  0
   25.9131  -22.6555  -13.2699 C   0  0  0  0  0  0  0  0  0  0  0  0
   24.7629  -23.6908  -13.3364 C   0  0  0  0  0  0  0  0  0  0  0  0
   23.9439  -23.1854  -12.1642 C   0  0  0  0  0  0  0  0  0  0  0  0
   23.9436  -21.7109  -12.3578 C   0  0  1  0  0  0  0  0  0  0  0  0
   23.7651  -20.9553  -11.0948 C   0  0  0  0  0  0  0  0  0  0  0  0
   22.5666  -20.8065  -10.4565 O   0  0  0  0  0  0  0  0  0  0  0  0
   24.7923  -20.4265  -10.5973 O   0  0  0  0  0  0  0  0  0  0  0  0
  2  1  1  6
  2  3  1  0
  2 10  1  0
  3  4  1  0
  4  9  1  0
  4  5  2  0
  5  6  1  0
  6  7  2  0
  8  7  1  0
  9  8  2  0
 10 11  2  0
 12 13  1  0
 12 10  1  0
 13 14  1  1
 14 15  1  0
 15 16  2  0
 16 17  1  0
 18 17  2  0
 19 18  1  0
 20 19  2  0
 20 15  1  0
 21 13  1  0
 21 22  2  0
 23 21  1  0
 24 23  1  0
 25 24  1  0
 26 25  1  0
 26 27  1  0
 27 28  1  1
 27 23  1  0
 28 29  1  0
 30 28  2  0
M  END
$$$$
