FFP.pdb
     RDKit          3D

 30 32  0  0  1  0  0  0  0  0999 V2000
   27.2207  -20.9864  -12.7586 N   0  0  0  0  0  0  0  0  0  0  0  0
   26.4635  -20.0658  -11.9494 C   0  0  1  0  0  0  0  0  0  0  0  0
   25.0132  -19.9913  -12.3773 C   0  0  0  0  0  0  0  0  0  0  0  0
   24.9514  -19.2181  -13.6449 C   0  0  0  0  0  0  0  0  0  0  0  0
   24.4845  -19.7289  -14.8223 C   0  0  0  0  0  0  0  0  0  0  0  0
   24.4401  -18.9755  -15.9948 C   0  0  0  0  0  0  0  0  0  0  0  0
   24.8822  -17.6781  -15.9558 C   0  0  0  0  0  0  0  0  0  0  0  0
   25.3653  -17.1170  -14.7806 C   0  0  0  0  0  0  0  0  0  0  0  0
   25.3903  -17.8950  -13.6524 C   0  0  0  0  0  0  0  0  0  0  0  0
   26.5946  -20.4864  -10.5313 C   0  0  0  0  0  0  0  0  0  0  0  0
   26.5354  -21.7209  -10.2769 O   0  0  0  0  0  0  0  0  0  0  0  0
   26.7810  -19.5975   -9.4492 N   0  0  0  0  0  0  0  0  0  0  0  0
   27.1768  -20.0595   -8.1076 C   0  0  1  0  0  0  0  0  0  0  0  0
   27.7198  -18.8121   -7.3908 C   0  0  0  0  0  0  0  0  0  0  0  0
   28.2029  -19.1685   -6.0307 C   0  0  0  0  0  0  0  0  0  0  0  0
   27.5737  -18.6827   -4.9103 C   0  0  0  0  0  0  0  0  0  0  0  0
   28.0440  -19.0300   -3.6382 C   0  0  0  0  0  0  0  0  0  0  0  0
   29.1374  -19.8585   -3.4820 C   0  0  0  0  0  0  0  0  0  0  0  0
   29.7616  -20.3405   -4.5989 C   0  0  0  0  0  0  0  0  0  0  0  0
   29.2932  -19.9946   -5.8661 C   0  0  0  0  0  0  0  0  0  0  0  0
   25.9562  -20.4664   -7.3678 C   0  0  0  0  0  0  0  0  0  0  0  0
   24.9184  -19.7297   -7.5317 O   0  0  0  0  0  0  0  0  0  0  0  0
   25.8770  -21.5945   -6.5150 N   0  0  0  0  0  0  0  0  0  0  0  0
   26.9280  -22.5739   -6.3153 C   0  0  0  0  0  0  0  0  0  0  0  0
   26.1369  -23.8275   -5.8658 C   0  0  0  0  0  0  0  0  0  0  0  0
   25.1465  -23.1434   -4.9429 C   0  0  0  0  0  0  0  0  0  0  0  0
   24.7239  -21.9482   -5.7205 C   0  0  1  0  0  0  0  0  0  0  0  0
   24.2670  -20.8261   -4.8660 C   0  0  0  0  0  0  0  0  0  0  0  0
   23.0704  -20.8056   -4.2075 O   0  0  0  0  0  0  0  0  0  0  0  0
   25.0434  -19.8428   -4.7539 O   0  0  0  0  0  0  0  0  0  0  0  0
  2  1  1  6
  2  3  1  0
  2 10  1  0
  3  4  1  0
  4  9  1  0
  4  5  2  0
  5  6  1  0
  6  7  2  0
  8  7  1  0
  9  8  2  0
 10 11  2  0
 12 13  1  0
 12 10  1  0
 13 14  1  1
 14 15  1  0
 15 16  2  0
 16 17  1  0
 18 17  2  0
 19 18  1  0
 20 19  2  0
 20 15  1  0
 21 13  1  0
 21 22  2  0
 23 21  1  0
 24 23  1  0
 25 24  1  0
 26 25  1  0
 26 27  1  0
 27 28  1  1
 27 23  1  0
 28 29  1  0
 30 28  2  0
M  END
$$$$
