FFP.pdb
     RDKit          3D

 30 32  0  0  1  0  0  0  0  0999 V2000
   24.5526  -36.3193  -15.9495 N   0  0  0  0  0  0  0  0  0  0  0  0
   23.6040  -36.0009  -14.9129 C   0  0  1  0  0  0  0  0  0  0  0  0
   22.5522  -37.0780  -14.7530 C   0  0  0  0  0  0  0  0  0  0  0  0
   21.5088  -36.8530  -15.7869 C   0  0  0  0  0  0  0  0  0  0  0  0
   20.4982  -35.9434  -15.6585 C   0  0  0  0  0  0  0  0  0  0  0  0
   19.5344  -35.7571  -16.6488 C   0  0  0  0  0  0  0  0  0  0  0  0
   19.6109  -36.5172  -17.7875 C   0  0  0  0  0  0  0  0  0  0  0  0
   20.6214  -37.4543  -17.9610 C   0  0  0  0  0  0  0  0  0  0  0  0
   21.5471  -37.6034  -16.9611 C   0  0  0  0  0  0  0  0  0  0  0  0
   24.3580  -35.7810  -13.6527 C   0  0  0  0  0  0  0  0  0  0  0  0
   25.4758  -36.3534  -13.5295 O   0  0  0  0  0  0  0  0  0  0  0  0
   23.9079  -34.9746  -12.5836 N   0  0  0  0  0  0  0  0  0  0  0  0
   24.6688  -34.8284  -11.3308 C   0  0  1  0  0  0  0  0  0  0  0  0
   24.6290  -33.3265  -11.0029 C   0  0  0  0  0  0  0  0  0  0  0  0
   25.3097  -33.0635   -9.7076 C   0  0  0  0  0  0  0  0  0  0  0  0
   24.5833  -32.8195   -8.5673 C   0  0  0  0  0  0  0  0  0  0  0  0
   25.2430  -32.5740   -7.3572 C   0  0  0  0  0  0  0  0  0  0  0  0
   26.6216  -32.5715   -7.2823 C   0  0  0  0  0  0  0  0  0  0  0  0
   27.3419  -32.8147   -8.4188 C   0  0  0  0  0  0  0  0  0  0  0  0
   26.6849  -33.0592   -9.6242 C   0  0  0  0  0  0  0  0  0  0  0  0
   23.9256  -35.5117  -10.2430 C   0  0  0  0  0  0  0  0  0  0  0  0
   22.6788  -35.2268  -10.1383 O   0  0  0  0  0  0  0  0  0  0  0  0
   24.5025  -36.4377   -9.3397 N   0  0  0  0  0  0  0  0  0  0  0  0
   25.8931  -36.8499   -9.3308 C   0  0  0  0  0  0  0  0  0  0  0  0
   25.8255  -38.2424   -8.6558 C   0  0  0  0  0  0  0  0  0  0  0  0
   24.8186  -37.9124   -7.5706 C   0  0  0  0  0  0  0  0  0  0  0  0
   23.7837  -37.1253   -8.2925 C   0  0  1  0  0  0  0  0  0  0  0  0
   23.0428  -36.1888   -7.4138 C   0  0  0  0  0  0  0  0  0  0  0  0
   22.2365  -36.5835   -6.3842 O   0  0  0  0  0  0  0  0  0  0  0  0
   23.1784  -34.9603   -7.6477 O   0  0  0  0  0  0  0  0  0  0  0  0
  2  1  1  6
  2  3  1  0
  2 10  1  0
  3  4  1  0
  4  9  1  0
  4  5  2  0
  5  6  1  0
  6  7  2  0
  8  7  1  0
  9  8  2  0
 10 11  2  0
 12 13  1  0
 12 10  1  0
 13 14  1  1
 14 15  1  0
 15 16  2  0
 16 17  1  0
 18 17  2  0
 19 18  1  0
 20 19  2  0
 20 15  1  0
 21 13  1  0
 21 22  2  0
 23 21  1  0
 24 23  1  0
 25 24  1  0
 26 25  1  0
 26 27  1  0
 27 28  1  1
 27 23  1  0
 28 29  1  0
 30 28  2  0
M  END
$$$$
