FFP.pdb
     RDKit          3D

 30 32  0  0  1  0  0  0  0  0999 V2000
   27.8181  -19.9446  -18.9797 N   0  0  0  0  0  0  0  0  0  0  0  0
   26.9520  -19.2000  -18.1015 C   0  0  1  0  0  0  0  0  0  0  0  0
   25.6027  -18.9254  -18.7306 C   0  0  0  0  0  0  0  0  0  0  0  0
   25.6700  -17.5961  -19.3913 C   0  0  0  0  0  0  0  0  0  0  0  0
   26.1264  -17.4045  -20.6642 C   0  0  0  0  0  0  0  0  0  0  0  0
   26.1765  -16.1424  -21.2548 C   0  0  0  0  0  0  0  0  0  0  0  0
   25.7511  -15.0617  -20.5259 C   0  0  0  0  0  0  0  0  0  0  0  0
   25.2792  -15.2093  -19.2279 C   0  0  0  0  0  0  0  0  0  0  0  0
   25.2480  -16.4689  -18.6880 C   0  0  0  0  0  0  0  0  0  0  0  0
   26.8198  -19.9615  -16.8335 C   0  0  0  0  0  0  0  0  0  0  0  0
   26.5735  -21.1965  -16.9131 O   0  0  0  0  0  0  0  0  0  0  0  0
   26.9513  -19.3960  -15.5456 N   0  0  0  0  0  0  0  0  0  0  0  0
   26.6658  -20.1568  -14.3169 C   0  0  1  0  0  0  0  0  0  0  0  0
   27.2300  -19.3034  -13.1689 C   0  0  0  0  0  0  0  0  0  0  0  0
   26.9552  -19.9533  -11.8603 C   0  0  0  0  0  0  0  0  0  0  0  0
   27.6521  -21.0707  -11.4690 C   0  0  0  0  0  0  0  0  0  0  0  0
   27.3785  -21.6681  -10.2328 C   0  0  0  0  0  0  0  0  0  0  0  0
   26.4141  -21.1548   -9.3886 C   0  0  0  0  0  0  0  0  0  0  0  0
   25.7220  -20.0426   -9.7807 C   0  0  0  0  0  0  0  0  0  0  0  0
   25.9944  -19.4475  -11.0121 C   0  0  0  0  0  0  0  0  0  0  0  0
   25.1956  -20.2016  -14.1186 C   0  0  0  0  0  0  0  0  0  0  0  0
   24.5798  -19.0768  -14.1653 O   0  0  0  0  0  0  0  0  0  0  0  0
   24.4556  -21.3872  -13.8887 N   0  0  0  0  0  0  0  0  0  0  0  0
   24.9858  -22.7358  -13.9520 C   0  0  0  0  0  0  0  0  0  0  0  0
   23.7238  -23.5777  -14.2648 C   0  0  0  0  0  0  0  0  0  0  0  0
   22.7526  -22.8710  -13.3386 C   0  0  0  0  0  0  0  0  0  0  0  0
   23.0482  -21.4315  -13.5672 C   0  0  1  0  0  0  0  0  0  0  0  0
   22.7118  -20.5737  -12.4057 C   0  0  0  0  0  0  0  0  0  0  0  0
   23.6393  -20.0365  -11.5588 O   0  0  0  0  0  0  0  0  0  0  0  0
   21.4925  -20.3386  -12.2055 O   0  0  0  0  0  0  0  0  0  0  0  0
  2  1  1  6
  2  3  1  0
  2 10  1  0
  3  4  1  0
  4  9  1  0
  4  5  2  0
  5  6  1  0
  6  7  2  0
  8  7  1  0
  9  8  2  0
 10 11  2  0
 12 13  1  0
 12 10  1  0
 13 14  1  1
 14 15  1  0
 15 16  2  0
 16 17  1  0
 18 17  2  0
 19 18  1  0
 20 19  2  0
 20 15  1  0
 21 13  1  0
 21 22  2  0
 23 21  1  0
 24 23  1  0
 25 24  1  0
 26 25  1  0
 26 27  1  0
 27 28  1  1
 27 23  1  0
 28 29  1  0
 30 28  2  0
M  END
$$$$
