NQE.pdb
     RDKit          3D

 27 26  0  0  1  0  0  0  0  0999 V2000
   11.5260  -19.7925   15.1907 N   0  0  0  0  0  0  0  0  0  0  0  0
   10.5170  -19.2070   16.0241 C   0  0  0  0  0  0  0  0  0  0  0  0
    9.3183  -19.3903   15.7178 O   0  0  0  0  0  0  0  0  0  0  0  0
   10.8524  -18.4126   17.2061 C   0  0  0  0  0  0  0  0  0  0  0  0
    9.6987  -17.5692   17.6269 C   0  0  2  0  0  0  0  0  0  0  0  0
    9.2072  -16.7427   16.5695 N   0  0  0  0  0  0  0  0  0  0  0  0
   10.0025  -16.7454   18.8374 C   0  0  0  0  0  0  0  0  0  0  0  0
   11.1516  -16.6660   19.3135 O   0  0  0  0  0  0  0  0  0  0  0  0
    9.7420  -12.8309   19.4630 N   0  0  0  0  0  0  0  0  0  0  0  0
    8.4949  -12.8324   18.8076 C   0  0  0  0  0  0  0  0  0  0  0  0
    8.2483  -12.2602   17.7386 O   0  0  0  0  0  0  0  0  0  0  0  0
    7.3893  -13.5991   19.4827 C   0  0  0  0  0  0  0  0  0  0  0  0
    7.8864  -14.1933   20.7774 C   0  0  0  0  0  0  0  0  0  0  0  0
    9.0258  -15.1685   20.5987 C   0  0  2  0  0  0  0  0  0  0  0  0
    8.9579  -16.0298   19.4691 N   0  0  0  0  0  0  0  0  0  0  0  0
    9.5371  -15.7692   21.8358 C   0  0  0  0  0  0  0  0  0  0  0  0
    8.8834  -16.7078   22.4303 O   0  0  0  0  0  0  0  0  0  0  0  0
   10.7443  -15.3884   22.4612 N   0  0  0  0  0  0  0  0  0  0  0  0
   11.4435  -16.2510   23.4523 C   0  0  1  0  0  0  0  0  0  0  0  0
   12.8956  -16.1456   23.2748 C   0  0  0  0  0  0  0  0  0  0  0  0
   13.7699  -16.9464   24.1616 C   0  0  0  0  0  0  0  0  0  0  0  0
   15.2124  -16.8796   23.9429 C   0  0  0  0  0  0  0  0  0  0  0  0
   15.9377  -15.9259   24.3771 O   0  0  0  0  0  0  0  0  0  0  0  0
   10.9221  -16.0336   24.7860 C   0  0  0  0  0  0  0  0  0  0  0  0
   10.2412  -14.9627   24.9946 O   0  0  0  0  0  0  0  0  0  0  0  0
   15.8910  -17.8881   23.2317 O   0  0  0  0  0  0  0  0  0  0  0  0
   11.0465  -16.8397   25.8995 O   0  0  0  0  0  0  0  0  0  0  0  0
  2  3  2  0
  2  1  1  0
  4  5  1  0
  4  2  1  0
  5  7  1  0
  5  6  1  6
  7  8  2  0
 10  9  1  0
 10 12  1  0
 11 10  2  0
 13 12  1  0
 14 13  1  1
 15  7  1  0
 15 14  1  0
 16 14  1  0
 16 17  2  0
 18 16  1  0
 19 18  1  0
 19 24  1  0
 19 20  1  1
 21 22  1  0
 21 20  1  0
 22 23  2  0
 24 27  1  0
 25 24  2  0
 26 22  1  0
M  END
$$$$
