NQE.pdb
     RDKit          3D

 27 26  0  0  1  0  0  0  0  0999 V2000
   15.6031  -16.1808   17.1476 N   0  0  0  0  0  0  0  0  0  0  0  0
   15.4357  -14.7569   17.1367 C   0  0  0  0  0  0  0  0  0  0  0  0
   16.3055  -14.0642   16.5641 O   0  0  0  0  0  0  0  0  0  0  0  0
   14.2885  -14.1061   17.7700 C   0  0  0  0  0  0  0  0  0  0  0  0
   13.4339  -15.1011   18.4767 C   0  0  2  0  0  0  0  0  0  0  0  0
   12.5160  -15.7583   17.6002 N   0  0  0  0  0  0  0  0  0  0  0  0
   12.7107  -14.5088   19.6439 C   0  0  0  0  0  0  0  0  0  0  0  0
   13.3141  -14.0092   20.6132 O   0  0  0  0  0  0  0  0  0  0  0  0
    6.5721  -13.4104   19.3927 N   0  0  0  0  0  0  0  0  0  0  0  0
    7.4818  -13.4569   18.3180 C   0  0  0  0  0  0  0  0  0  0  0  0
    7.1724  -13.4968   17.1206 O   0  0  0  0  0  0  0  0  0  0  0  0
    8.9425  -13.4570   18.6820 C   0  0  0  0  0  0  0  0  0  0  0  0
    9.1026  -13.4405   20.1821 C   0  0  0  0  0  0  0  0  0  0  0  0
   10.4141  -14.0192   20.6581 C   0  0  2  0  0  0  0  0  0  0  0  0
   11.2957  -14.5115   19.6567 N   0  0  0  0  0  0  0  0  0  0  0  0
   10.3406  -14.8064   21.8939 C   0  0  0  0  0  0  0  0  0  0  0  0
    9.4110  -14.5867   22.7595 O   0  0  0  0  0  0  0  0  0  0  0  0
   11.2458  -15.8358   22.2325 N   0  0  0  0  0  0  0  0  0  0  0  0
   11.1368  -16.6203   23.4925 C   0  0  1  0  0  0  0  0  0  0  0  0
   10.1173  -17.6649   23.3479 C   0  0  0  0  0  0  0  0  0  0  0  0
   10.3311  -18.7162   22.3277 C   0  0  0  0  0  0  0  0  0  0  0  0
   10.3177  -20.1092   22.7668 C   0  0  0  0  0  0  0  0  0  0  0  0
    9.8924  -20.4729   23.9118 O   0  0  0  0  0  0  0  0  0  0  0  0
   12.4444  -17.0318   23.9604 C   0  0  0  0  0  0  0  0  0  0  0  0
   13.4420  -16.8706   23.1649 O   0  0  0  0  0  0  0  0  0  0  0  0
   10.7778  -21.1436   21.9292 O   0  0  0  0  0  0  0  0  0  0  0  0
   12.7875  -17.5815   25.1791 O   0  0  0  0  0  0  0  0  0  0  0  0
  2  3  2  0
  2  1  1  0
  4  5  1  0
  4  2  1  0
  5  7  1  0
  5  6  1  6
  7  8  2  0
 10  9  1  0
 10 12  1  0
 11 10  2  0
 13 12  1  0
 14 13  1  6
 15  7  1  0
 15 14  1  0
 16 14  1  0
 16 17  2  0
 18 16  1  0
 19 18  1  0
 19 24  1  0
 19 20  1  6
 21 22  1  0
 21 20  1  0
 22 23  2  0
 24 27  1  0
 25 24  2  0
 26 22  1  0
M  END
$$$$
