NQE.pdb
     RDKit          3D

 27 26  0  0  1  0  0  0  0  0999 V2000
   10.0570  -17.5376   13.1254 N   0  0  0  0  0  0  0  0  0  0  0  0
   10.9703  -17.7534   14.2092 C   0  0  0  0  0  0  0  0  0  0  0  0
   11.8405  -18.6426   14.0804 O   0  0  0  0  0  0  0  0  0  0  0  0
   10.9087  -16.9696   15.4431 C   0  0  0  0  0  0  0  0  0  0  0  0
   10.4450  -17.8072   16.5846 C   0  0  2  0  0  0  0  0  0  0  0  0
    9.1093  -18.2845   16.4094 N   0  0  0  0  0  0  0  0  0  0  0  0
   10.5836  -17.1101   17.9003 C   0  0  0  0  0  0  0  0  0  0  0  0
   11.6665  -16.6257   18.2827 O   0  0  0  0  0  0  0  0  0  0  0  0
    5.5556  -15.6466   21.5157 N   0  0  0  0  0  0  0  0  0  0  0  0
    6.5782  -15.2604   22.4044 C   0  0  0  0  0  0  0  0  0  0  0  0
    6.4068  -14.6732   23.4799 O   0  0  0  0  0  0  0  0  0  0  0  0
    7.9845  -15.6012   21.9893 C   0  0  0  0  0  0  0  0  0  0  0  0
    7.9909  -16.1525   20.5849 C   0  0  0  0  0  0  0  0  0  0  0  0
    9.3751  -16.4387   20.0523 C   0  0  2  0  0  0  0  0  0  0  0  0
    9.4543  -16.9919   18.7447 N   0  0  0  0  0  0  0  0  0  0  0  0
   10.3275  -16.9693   21.0340 C   0  0  0  0  0  0  0  0  0  0  0  0
   10.3630  -18.2298   21.3014 O   0  0  0  0  0  0  0  0  0  0  0  0
   11.2551  -16.1777   21.7458 N   0  0  0  0  0  0  0  0  0  0  0  0
   12.2727  -16.7601   22.6626 C   0  0  1  0  0  0  0  0  0  0  0  0
   13.5752  -16.1244   22.4372 C   0  0  0  0  0  0  0  0  0  0  0  0
   14.7025  -16.5051   23.3182 C   0  0  0  0  0  0  0  0  0  0  0  0
   15.9922  -15.8554   23.0993 C   0  0  0  0  0  0  0  0  0  0  0  0
   16.4708  -15.6342   21.9391 O   0  0  0  0  0  0  0  0  0  0  0  0
   11.7809  -16.7970   24.0245 C   0  0  0  0  0  0  0  0  0  0  0  0
   10.8655  -15.9554   24.3527 O   0  0  0  0  0  0  0  0  0  0  0  0
   16.7868  -15.4263   24.1799 O   0  0  0  0  0  0  0  0  0  0  0  0
   12.1583  -17.6377   25.0522 O   0  0  0  0  0  0  0  0  0  0  0  0
  2  3  2  0
  2  1  1  0
  4  5  1  0
  4  2  1  0
  5  7  1  0
  5  6  1  6
  7  8  2  0
 10  9  1  0
 10 12  1  0
 11 10  2  0
 13 12  1  0
 14 13  1  1
 15  7  1  0
 15 14  1  0
 16 14  1  0
 16 17  2  0
 18 16  1  0
 19 18  1  0
 19 24  1  0
 19 20  1  1
 21 22  1  0
 21 20  1  0
 22 23  2  0
 24 27  1  0
 25 24  2  0
 26 22  1  0
M  END
$$$$
