NQE.pdb
     RDKit          3D

 27 26  0  0  1  0  0  0  0  0999 V2000
    8.1003  -19.7016   13.9574 N   0  0  0  0  0  0  0  0  0  0  0  0
    8.3641  -20.3919   15.1860 C   0  0  0  0  0  0  0  0  0  0  0  0
    8.2254  -21.6347   15.2069 O   0  0  0  0  0  0  0  0  0  0  0  0
    8.7854  -19.6866   16.3967 C   0  0  0  0  0  0  0  0  0  0  0  0
    8.7266  -18.2107   16.2020 C   0  0  2  0  0  0  0  0  0  0  0  0
    9.3259  -17.7939   14.9733 N   0  0  0  0  0  0  0  0  0  0  0  0
    9.3130  -17.4572   17.3529 C   0  0  0  0  0  0  0  0  0  0  0  0
   10.5147  -17.5583   17.6678 O   0  0  0  0  0  0  0  0  0  0  0  0
    6.3200  -12.6803   20.2550 N   0  0  0  0  0  0  0  0  0  0  0  0
    7.3074  -12.9165   21.2317 C   0  0  0  0  0  0  0  0  0  0  0  0
    7.4637  -12.2541   22.2651 O   0  0  0  0  0  0  0  0  0  0  0  0
    8.2348  -14.0739   20.9743 C   0  0  0  0  0  0  0  0  0  0  0  0
    7.8767  -14.7448   19.6712 C   0  0  0  0  0  0  0  0  0  0  0  0
    8.7978  -15.8837   19.3026 C   0  0  2  0  0  0  0  0  0  0  0  0
    8.4844  -16.5994   18.1144 N   0  0  0  0  0  0  0  0  0  0  0  0
    9.2821  -16.6887   20.4296 C   0  0  0  0  0  0  0  0  0  0  0  0
    8.8073  -17.8669   20.6483 O   0  0  0  0  0  0  0  0  0  0  0  0
   10.2735  -16.2617   21.3398 N   0  0  0  0  0  0  0  0  0  0  0  0
   10.9239  -17.1830   22.3110 C   0  0  1  0  0  0  0  0  0  0  0  0
   12.3146  -17.4303   21.9158 C   0  0  0  0  0  0  0  0  0  0  0  0
   13.1176  -18.3710   22.7295 C   0  0  0  0  0  0  0  0  0  0  0  0
   14.5054  -18.6029   22.3377 C   0  0  0  0  0  0  0  0  0  0  0  0
   15.4772  -18.5545   23.1607 O   0  0  0  0  0  0  0  0  0  0  0  0
   10.6900  -16.7483   23.6726 C   0  0  0  0  0  0  0  0  0  0  0  0
   10.3975  -15.5105   23.8632 O   0  0  0  0  0  0  0  0  0  0  0  0
   14.8479  -18.9034   21.0052 O   0  0  0  0  0  0  0  0  0  0  0  0
   10.7280  -17.4960   24.8322 O   0  0  0  0  0  0  0  0  0  0  0  0
  2  3  2  0
  2  1  1  0
  4  5  1  0
  4  2  1  0
  5  7  1  0
  5  6  1  6
  7  8  2  0
 10  9  1  0
 10 12  1  0
 11 10  2  0
 13 12  1  0
 14 13  1  1
 15  7  1  0
 15 14  1  0
 16 14  1  0
 16 17  2  0
 18 16  1  0
 19 18  1  0
 19 24  1  0
 19 20  1  6
 21 22  1  0
 21 20  1  0
 22 23  2  0
 24 27  1  0
 25 24  2  0
 26 22  1  0
M  END
$$$$
