NQE.pdb
     RDKit          3D

 27 26  0  0  1  0  0  0  0  0999 V2000
    8.8608  -17.3062   15.4996 N   0  0  0  0  0  0  0  0  0  0  0  0
    9.6846  -16.8507   16.5809 C   0  0  0  0  0  0  0  0  0  0  0  0
   10.9082  -16.7015   16.3692 O   0  0  0  0  0  0  0  0  0  0  0  0
    9.1350  -16.5608   17.9056 C   0  0  0  0  0  0  0  0  0  0  0  0
   10.0119  -17.1085   18.9784 C   0  0  2  0  0  0  0  0  0  0  0  0
   10.3661  -18.4750   18.7548 N   0  0  0  0  0  0  0  0  0  0  0  0
    9.4240  -16.9364   20.3425 C   0  0  0  0  0  0  0  0  0  0  0  0
    9.0544  -15.8253   20.7694 O   0  0  0  0  0  0  0  0  0  0  0  0
    6.4978  -21.4434   23.5314 N   0  0  0  0  0  0  0  0  0  0  0  0
    6.5853  -20.4981   24.5723 C   0  0  0  0  0  0  0  0  0  0  0  0
    6.0126  -20.5836   25.6658 O   0  0  0  0  0  0  0  0  0  0  0  0
    7.4517  -19.2957   24.3083 C   0  0  0  0  0  0  0  0  0  0  0  0
    7.8913  -19.2807   22.8651 C   0  0  0  0  0  0  0  0  0  0  0  0
    8.7995  -18.1242   22.5201 C   0  0  2  0  0  0  0  0  0  0  0  0
    9.2789  -18.0659   21.1825 N   0  0  0  0  0  0  0  0  0  0  0  0
    9.7586  -17.7467   23.5642 C   0  0  0  0  0  0  0  0  0  0  0  0
   10.9294  -18.2842   23.6073 O   0  0  0  0  0  0  0  0  0  0  0  0
    9.4957  -16.7972   24.5756 N   0  0  0  0  0  0  0  0  0  0  0  0
   10.4724  -16.4774   25.6520 C   0  0  1  0  0  0  0  0  0  0  0  0
    9.9196  -15.4533   26.5447 C   0  0  0  0  0  0  0  0  0  0  0  0
   10.7066  -15.0642   27.7369 C   0  0  0  0  0  0  0  0  0  0  0  0
   10.1648  -14.0216   28.6046 C   0  0  0  0  0  0  0  0  0  0  0  0
    9.0253  -13.4832   28.4159 O   0  0  0  0  0  0  0  0  0  0  0  0
   10.9795  -17.6872   26.2662 C   0  0  0  0  0  0  0  0  0  0  0  0
   12.2533  -17.7993   26.4038 O   0  0  0  0  0  0  0  0  0  0  0  0
   10.8852  -13.5520   29.7198 O   0  0  0  0  0  0  0  0  0  0  0  0
   10.2704  -18.7684   26.7491 O   0  0  0  0  0  0  0  0  0  0  0  0
  2  3  2  0
  2  1  1  0
  4  5  1  0
  4  2  1  0
  5  7  1  0
  5  6  1  6
  7  8  2  0
 10  9  1  0
 10 12  1  0
 11 10  2  0
 13 12  1  0
 14 13  1  1
 15  7  1  0
 15 14  1  0
 16 14  1  0
 16 17  2  0
 18 16  1  0
 19 18  1  0
 19 24  1  0
 19 20  1  1
 21 22  1  0
 21 20  1  0
 22 23  2  0
 24 27  1  0
 25 24  2  0
 26 22  1  0
M  END
$$$$
