NQE.pdb
     RDKit          3D

 27 26  0  0  1  0  0  0  0  0999 V2000
    7.2203  -12.8680   17.0089 N   0  0  0  0  0  0  0  0  0  0  0  0
    8.1732  -13.7284   17.6469 C   0  0  0  0  0  0  0  0  0  0  0  0
    8.5407  -14.7573   17.0380 O   0  0  0  0  0  0  0  0  0  0  0  0
    8.7169  -13.4349   18.9731 C   0  0  0  0  0  0  0  0  0  0  0  0
    8.3954  -14.5263   19.9350 C   0  0  2  0  0  0  0  0  0  0  0  0
    6.9892  -14.7425   20.0711 N   0  0  0  0  0  0  0  0  0  0  0  0
    9.0246  -14.3132   21.2747 C   0  0  0  0  0  0  0  0  0  0  0  0
   10.2570  -14.3839   21.4468 O   0  0  0  0  0  0  0  0  0  0  0  0
    6.2472  -11.7103   26.3165 N   0  0  0  0  0  0  0  0  0  0  0  0
    5.8827  -13.0701   26.3704 C   0  0  0  0  0  0  0  0  0  0  0  0
    4.9891  -13.5430   27.0837 O   0  0  0  0  0  0  0  0  0  0  0  0
    6.6579  -14.0028   25.4787 C   0  0  0  0  0  0  0  0  0  0  0  0
    7.6979  -13.2329   24.7029 C   0  0  0  0  0  0  0  0  0  0  0  0
    8.5201  -14.0931   23.7726 C   0  0  2  0  0  0  0  0  0  0  0  0
    8.2020  -14.0213   22.3884 N   0  0  0  0  0  0  0  0  0  0  0  0
    8.8604  -15.4247   24.2862 C   0  0  0  0  0  0  0  0  0  0  0  0
    8.7633  -16.4652   23.5316 O   0  0  0  0  0  0  0  0  0  0  0  0
    9.3079  -15.6758   25.6016 N   0  0  0  0  0  0  0  0  0  0  0  0
   10.1692  -16.8385   25.9497 C   0  0  1  0  0  0  0  0  0  0  0  0
   11.2216  -17.0045   24.9415 C   0  0  0  0  0  0  0  0  0  0  0  0
   12.2267  -18.0720   25.1470 C   0  0  0  0  0  0  0  0  0  0  0  0
   13.2783  -18.2243   24.1450 C   0  0  0  0  0  0  0  0  0  0  0  0
   14.5177  -18.0978   24.4135 O   0  0  0  0  0  0  0  0  0  0  0  0
   10.5843  -16.7779   27.3361 C   0  0  0  0  0  0  0  0  0  0  0  0
   11.3371  -17.7230   27.7767 O   0  0  0  0  0  0  0  0  0  0  0  0
   12.9717  -18.5305   22.8050 O   0  0  0  0  0  0  0  0  0  0  0  0
   10.2867  -15.8171   28.2812 O   0  0  0  0  0  0  0  0  0  0  0  0
  2  3  2  0
  2  1  1  0
  4  5  1  0
  4  2  1  0
  5  7  1  0
  5  6  1  1
  7  8  2  0
 10  9  1  0
 10 12  1  0
 11 10  2  0
 13 12  1  0
 14 13  1  1
 15  7  1  0
 15 14  1  0
 16 14  1  0
 16 17  2  0
 18 16  1  0
 19 18  1  0
 19 24  1  0
 19 20  1  6
 21 22  1  0
 21 20  1  0
 22 23  2  0
 24 27  1  0
 25 24  2  0
 26 22  1  0
M  END
$$$$
