NQE.pdb
     RDKit          3D

 27 26  0  0  1  0  0  0  0  0999 V2000
   10.0139  -19.1227   14.0618 N   0  0  0  0  0  0  0  0  0  0  0  0
   10.9181  -19.3338   15.1541 C   0  0  0  0  0  0  0  0  0  0  0  0
   11.4911  -20.4421   15.2410 O   0  0  0  0  0  0  0  0  0  0  0  0
   11.1817  -18.2984   16.1538 C   0  0  0  0  0  0  0  0  0  0  0  0
   10.6682  -18.7057   17.4917 C   0  0  2  0  0  0  0  0  0  0  0  0
    9.2610  -18.9559   17.4877 N   0  0  0  0  0  0  0  0  0  0  0  0
   11.0228  -17.7258   18.5641 C   0  0  0  0  0  0  0  0  0  0  0  0
   12.1999  -17.5406   18.9296 O   0  0  0  0  0  0  0  0  0  0  0  0
    7.3352  -12.8846   20.2776 N   0  0  0  0  0  0  0  0  0  0  0  0
    6.8502  -14.0674   20.8697 C   0  0  0  0  0  0  0  0  0  0  0  0
    5.7482  -14.1925   21.4182 O   0  0  0  0  0  0  0  0  0  0  0  0
    7.7655  -15.2613   20.8178 C   0  0  0  0  0  0  0  0  0  0  0  0
    9.0786  -14.8802   20.1800 C   0  0  0  0  0  0  0  0  0  0  0  0
   10.1064  -15.9868   20.2008 C   0  0  2  0  0  0  0  0  0  0  0  0
    9.9954  -16.9805   19.1896 N   0  0  0  0  0  0  0  0  0  0  0  0
   10.4852  -16.4661   21.5348 C   0  0  0  0  0  0  0  0  0  0  0  0
    9.9667  -17.5425   22.0187 O   0  0  0  0  0  0  0  0  0  0  0  0
   11.4159  -15.8169   22.3750 N   0  0  0  0  0  0  0  0  0  0  0  0
   12.2783  -16.5526   23.3394 C   0  0  1  0  0  0  0  0  0  0  0  0
   13.6885  -16.2248   23.1044 C   0  0  0  0  0  0  0  0  0  0  0  0
   14.7123  -16.8977   23.9357 C   0  0  0  0  0  0  0  0  0  0  0  0
   16.1085  -16.5123   23.7478 C   0  0  0  0  0  0  0  0  0  0  0  0
   16.4748  -15.3107   23.5333 O   0  0  0  0  0  0  0  0  0  0  0  0
   11.7816  -16.4079   24.6923 C   0  0  0  0  0  0  0  0  0  0  0  0
   10.9298  -15.4716   24.9195 O   0  0  0  0  0  0  0  0  0  0  0  0
   17.1432  -17.4662   23.8004 O   0  0  0  0  0  0  0  0  0  0  0  0
   12.0935  -17.1591   25.8074 O   0  0  0  0  0  0  0  0  0  0  0  0
  2  3  2  0
  2  1  1  0
  4  5  1  0
  4  2  1  0
  5  7  1  0
  5  6  1  6
  7  8  2  0
 10  9  1  0
 10 12  1  0
 11 10  2  0
 13 12  1  0
 14 13  1  1
 15  7  1  0
 15 14  1  0
 16 14  1  0
 16 17  2  0
 18 16  1  0
 19 18  1  0
 19 24  1  0
 19 20  1  1
 21 22  1  0
 21 20  1  0
 22 23  2  0
 24 27  1  0
 25 24  2  0
 26 22  1  0
M  END
$$$$
