NQE.pdb
     RDKit          3D

 27 26  0  0  1  0  0  0  0  0999 V2000
   12.3487  -19.8889   14.9579 N   0  0  0  0  0  0  0  0  0  0  0  0
   11.2124  -19.0564   15.2249 C   0  0  0  0  0  0  0  0  0  0  0  0
   10.1873  -19.2139   14.5259 O   0  0  0  0  0  0  0  0  0  0  0  0
   11.2246  -18.0427   16.2799 C   0  0  0  0  0  0  0  0  0  0  0  0
   10.6994  -18.5977   17.5590 C   0  0  2  0  0  0  0  0  0  0  0  0
    9.3305  -18.9972   17.4640 N   0  0  0  0  0  0  0  0  0  0  0  0
   10.8939  -17.6645   18.7111 C   0  0  0  0  0  0  0  0  0  0  0  0
   12.0229  -17.4069   19.1720 O   0  0  0  0  0  0  0  0  0  0  0  0
    6.3401  -13.7727   20.7618 N   0  0  0  0  0  0  0  0  0  0  0  0
    7.2278  -13.6212   21.8452 C   0  0  0  0  0  0  0  0  0  0  0  0
    7.0727  -12.8409   22.7929 O   0  0  0  0  0  0  0  0  0  0  0  0
    8.4567  -14.4903   21.8252 C   0  0  0  0  0  0  0  0  0  0  0  0
    8.4505  -15.3683   20.5983 C   0  0  0  0  0  0  0  0  0  0  0  0
    9.7137  -16.1782   20.4260 C   0  0  2  0  0  0  0  0  0  0  0  0
    9.7654  -17.0495   19.3033 N   0  0  0  0  0  0  0  0  0  0  0  0
   10.3031  -16.6927   21.6672 C   0  0  0  0  0  0  0  0  0  0  0  0
    9.8548  -17.7725   22.2100 O   0  0  0  0  0  0  0  0  0  0  0  0
   11.3731  -16.0756   22.3513 N   0  0  0  0  0  0  0  0  0  0  0  0
   11.8552  -16.5438   23.6792 C   0  0  1  0  0  0  0  0  0  0  0  0
   13.2720  -16.2037   23.8484 C   0  0  0  0  0  0  0  0  0  0  0  0
   14.2716  -16.9494   23.0505 C   0  0  0  0  0  0  0  0  0  0  0  0
   15.6535  -16.4767   23.0696 C   0  0  0  0  0  0  0  0  0  0  0  0
   16.2876  -16.2267   24.1463 O   0  0  0  0  0  0  0  0  0  0  0  0
   10.9468  -16.1379   24.7318 C   0  0  0  0  0  0  0  0  0  0  0  0
   11.2009  -16.5369   25.9277 O   0  0  0  0  0  0  0  0  0  0  0  0
   16.3728  -16.2741   21.8759 O   0  0  0  0  0  0  0  0  0  0  0  0
    9.8161  -15.3521   24.6358 O   0  0  0  0  0  0  0  0  0  0  0  0
  2  3  2  0
  2  1  1  0
  4  5  1  0
  4  2  1  0
  5  7  1  0
  5  6  1  6
  7  8  2  0
 10  9  1  0
 10 12  1  0
 11 10  2  0
 13 12  1  0
 14 13  1  1
 15  7  1  0
 15 14  1  0
 16 14  1  0
 16 17  2  0
 18 16  1  0
 19 18  1  0
 19 24  1  0
 19 20  1  1
 21 22  1  0
 21 20  1  0
 22 23  2  0
 24 27  1  0
 25 24  2  0
 26 22  1  0
M  END
$$$$
