NQE.pdb
     RDKit          3D

 27 26  0  0  1  0  0  0  0  0999 V2000
   15.2360  -14.3629   13.7241 N   0  0  0  0  0  0  0  0  0  0  0  0
   15.8497  -14.1722   15.0056 C   0  0  0  0  0  0  0  0  0  0  0  0
   17.0680  -14.4303   15.1215 O   0  0  0  0  0  0  0  0  0  0  0  0
   15.0951  -13.6901   16.1627 C   0  0  0  0  0  0  0  0  0  0  0  0
   14.7248  -14.8164   17.0650 C   0  0  2  0  0  0  0  0  0  0  0  0
   14.1212  -15.9063   16.3647 N   0  0  0  0  0  0  0  0  0  0  0  0
   13.8566  -14.3787   18.2011 C   0  0  0  0  0  0  0  0  0  0  0  0
   14.2757  -13.6303   19.1053 O   0  0  0  0  0  0  0  0  0  0  0  0
    7.8152  -13.2325   18.2152 N   0  0  0  0  0  0  0  0  0  0  0  0
    7.9236  -13.4826   19.5974 C   0  0  0  0  0  0  0  0  0  0  0  0
    7.0227  -13.3103   20.4279 O   0  0  0  0  0  0  0  0  0  0  0  0
    9.2527  -14.0009   20.0778 C   0  0  0  0  0  0  0  0  0  0  0  0
   10.1978  -14.1618   18.9128 C   0  0  0  0  0  0  0  0  0  0  0  0
   11.5678  -14.6602   19.3079 C   0  0  2  0  0  0  0  0  0  0  0  0
   12.5146  -14.8237   18.2595 N   0  0  0  0  0  0  0  0  0  0  0  0
   11.5835  -15.6878   20.3549 C   0  0  0  0  0  0  0  0  0  0  0  0
   11.9517  -16.8938   20.0874 O   0  0  0  0  0  0  0  0  0  0  0  0
   11.2119  -15.4566   21.6974 N   0  0  0  0  0  0  0  0  0  0  0  0
   11.4487  -16.4503   22.7798 C   0  0  1  0  0  0  0  0  0  0  0  0
   12.8371  -16.9211   22.7354 C   0  0  0  0  0  0  0  0  0  0  0  0
   13.9200  -15.9116   22.7462 C   0  0  0  0  0  0  0  0  0  0  0  0
   15.2992  -16.3876   22.8142 C   0  0  0  0  0  0  0  0  0  0  0  0
   15.6043  -17.6197   22.9278 O   0  0  0  0  0  0  0  0  0  0  0  0
   10.9569  -15.9582   24.0502 C   0  0  0  0  0  0  0  0  0  0  0  0
   11.0633  -16.7311   25.0726 O   0  0  0  0  0  0  0  0  0  0  0  0
   16.3848  -15.4928   22.7510 O   0  0  0  0  0  0  0  0  0  0  0  0
   10.3799  -14.7368   24.3338 O   0  0  0  0  0  0  0  0  0  0  0  0
  2  3  2  0
  2  1  1  0
  4  5  1  0
  4  2  1  0
  5  7  1  0
  5  6  1  6
  7  8  2  0
 10  9  1  0
 10 12  1  0
 11 10  2  0
 13 12  1  0
 14 13  1  6
 15  7  1  0
 15 14  1  0
 16 14  1  0
 16 17  2  0
 18 16  1  0
 19 18  1  0
 19 24  1  0
 19 20  1  1
 21 22  1  0
 21 20  1  0
 22 23  2  0
 24 27  1  0
 25 24  2  0
 26 22  1  0
M  END
$$$$
