NQE.pdb
     RDKit          3D

 27 26  0  0  1  0  0  0  0  0999 V2000
   15.2498  -16.6178   19.5958 N   0  0  0  0  0  0  0  0  0  0  0  0
   14.6636  -16.8454   18.3074 C   0  0  0  0  0  0  0  0  0  0  0  0
   14.7361  -17.9950   17.8201 O   0  0  0  0  0  0  0  0  0  0  0  0
   13.9932  -15.7802   17.5614 C   0  0  0  0  0  0  0  0  0  0  0  0
   14.0380  -14.4938   18.3116 C   0  0  2  0  0  0  0  0  0  0  0  0
   15.3667  -14.1195   18.6821 N   0  0  0  0  0  0  0  0  0  0  0  0
   13.1418  -14.4971   19.5087 C   0  0  0  0  0  0  0  0  0  0  0  0
   13.5694  -14.7304   20.6559 O   0  0  0  0  0  0  0  0  0  0  0  0
    6.8854  -13.1320   19.7359 N   0  0  0  0  0  0  0  0  0  0  0  0
    7.5455  -13.3383   18.5085 C   0  0  0  0  0  0  0  0  0  0  0  0
    6.9988  -13.3688   17.3990 O   0  0  0  0  0  0  0  0  0  0  0  0
    9.0362  -13.5349   18.5794 C   0  0  0  0  0  0  0  0  0  0  0  0
    9.5144  -13.3639   20.0001 C   0  0  0  0  0  0  0  0  0  0  0  0
   10.7399  -14.1829   20.3300 C   0  0  2  0  0  0  0  0  0  0  0  0
   11.7626  -14.2277   19.3429 N   0  0  0  0  0  0  0  0  0  0  0  0
   10.4820  -15.4370   21.0465 C   0  0  0  0  0  0  0  0  0  0  0  0
   10.3504  -16.5466   20.4038 O   0  0  0  0  0  0  0  0  0  0  0  0
   10.3602  -15.5370   22.4496 N   0  0  0  0  0  0  0  0  0  0  0  0
   10.8132  -16.7317   23.2130 C   0  0  1  0  0  0  0  0  0  0  0  0
   12.1771  -17.0956   22.8146 C   0  0  0  0  0  0  0  0  0  0  0  0
   12.8096  -18.2643   23.4674 C   0  0  0  0  0  0  0  0  0  0  0  0
   14.1669  -18.6224   23.0643 C   0  0  0  0  0  0  0  0  0  0  0  0
   15.1891  -17.9245   23.3682 O   0  0  0  0  0  0  0  0  0  0  0  0
   10.5589  -16.5674   24.6294 C   0  0  0  0  0  0  0  0  0  0  0  0
   10.8924  -17.5315   25.4125 O   0  0  0  0  0  0  0  0  0  0  0  0
   14.4224  -19.7830   22.3086 O   0  0  0  0  0  0  0  0  0  0  0  0
   10.0005  -15.4875   25.2829 O   0  0  0  0  0  0  0  0  0  0  0  0
  2  3  2  0
  2  1  1  0
  4  5  1  0
  4  2  1  0
  5  7  1  0
  5  6  1  1
  7  8  2  0
 10  9  1  0
 10 12  1  0
 11 10  2  0
 13 12  1  0
 14 13  1  6
 15  7  1  0
 15 14  1  0
 16 14  1  0
 16 17  2  0
 18 16  1  0
 19 18  1  0
 19 24  1  0
 19 20  1  1
 21 22  1  0
 21 20  1  0
 22 23  2  0
 24 27  1  0
 25 24  2  0
 26 22  1  0
M  END
$$$$
