NQE.pdb
     RDKit          3D

 27 26  0  0  1  0  0  0  0  0999 V2000
    9.8029  -17.5603   15.9050 N   0  0  0  0  0  0  0  0  0  0  0  0
    8.5686  -17.1624   16.5163 C   0  0  0  0  0  0  0  0  0  0  0  0
    7.6434  -16.7644   15.7747 O   0  0  0  0  0  0  0  0  0  0  0  0
    8.3699  -17.2106   17.9650 C   0  0  0  0  0  0  0  0  0  0  0  0
    9.5814  -17.7392   18.6524 C   0  0  2  0  0  0  0  0  0  0  0  0
    9.7980  -19.1281   18.3941 N   0  0  0  0  0  0  0  0  0  0  0  0
    9.5654  -17.4766   20.1244 C   0  0  0  0  0  0  0  0  0  0  0  0
    9.6931  -16.3293   20.5943 O   0  0  0  0  0  0  0  0  0  0  0  0
    6.3924  -20.8331   24.1678 N   0  0  0  0  0  0  0  0  0  0  0  0
    5.8930  -19.8030   23.3467 C   0  0  0  0  0  0  0  0  0  0  0  0
    4.6956  -19.5767   23.1321 O   0  0  0  0  0  0  0  0  0  0  0  0
    6.9192  -18.9199   22.6885 C   0  0  0  0  0  0  0  0  0  0  0  0
    8.3055  -19.3172   23.1318 C   0  0  0  0  0  0  0  0  0  0  0  0
    9.4066  -18.5469   22.4421 C   0  0  2  0  0  0  0  0  0  0  0  0
    9.4005  -18.5596   21.0201 N   0  0  0  0  0  0  0  0  0  0  0  0
   10.7249  -18.6298   23.0806 C   0  0  0  0  0  0  0  0  0  0  0  0
   11.2981  -19.7703   23.2604 O   0  0  0  0  0  0  0  0  0  0  0  0
   11.4558  -17.5112   23.5369 N   0  0  0  0  0  0  0  0  0  0  0  0
   12.6954  -17.6382   24.3507 C   0  0  1  0  0  0  0  0  0  0  0  0
   13.6604  -16.6043   23.9617 C   0  0  0  0  0  0  0  0  0  0  0  0
   14.2816  -16.6945   22.6209 C   0  0  0  0  0  0  0  0  0  0  0  0
   15.2518  -15.6693   22.2453 C   0  0  0  0  0  0  0  0  0  0  0  0
   14.9909  -14.7353   21.4185 O   0  0  0  0  0  0  0  0  0  0  0  0
   12.3797  -17.7525   25.7597 C   0  0  0  0  0  0  0  0  0  0  0  0
   13.3295  -18.0858   26.5601 O   0  0  0  0  0  0  0  0  0  0  0  0
   16.5495  -15.6562   22.7921 O   0  0  0  0  0  0  0  0  0  0  0  0
   11.1700  -17.5402   26.3895 O   0  0  0  0  0  0  0  0  0  0  0  0
  2  3  2  0
  2  1  1  0
  4  5  1  0
  4  2  1  0
  5  7  1  0
  5  6  1  1
  7  8  2  0
 10  9  1  0
 10 12  1  0
 11 10  2  0
 13 12  1  0
 14 13  1  1
 15  7  1  0
 15 14  1  0
 16 14  1  0
 16 17  2  0
 18 16  1  0
 19 18  1  0
 19 24  1  0
 19 20  1  1
 21 22  1  0
 21 20  1  0
 22 23  2  0
 24 27  1  0
 25 24  2  0
 26 22  1  0
M  END
$$$$
