NQE.pdb
     RDKit          3D

 27 26  0  0  1  0  0  0  0  0999 V2000
    7.2685  -21.6131   20.8092 N   0  0  0  0  0  0  0  0  0  0  0  0
    6.9961  -20.2756   20.3706 C   0  0  0  0  0  0  0  0  0  0  0  0
    5.9452  -20.0681   19.7250 O   0  0  0  0  0  0  0  0  0  0  0  0
    7.9051  -19.1654   20.6568 C   0  0  0  0  0  0  0  0  0  0  0  0
    7.9092  -18.1781   19.5410 C   0  0  2  0  0  0  0  0  0  0  0  0
    8.3301  -18.7514   18.3012 N   0  0  0  0  0  0  0  0  0  0  0  0
    8.7179  -16.9605   19.8563 C   0  0  0  0  0  0  0  0  0  0  0  0
    9.8548  -16.7782   19.3790 O   0  0  0  0  0  0  0  0  0  0  0  0
    9.5431  -12.3200   18.9450 N   0  0  0  0  0  0  0  0  0  0  0  0
    8.3577  -12.8527   18.4011 C   0  0  0  0  0  0  0  0  0  0  0  0
    8.0373  -12.8112   17.2067 O   0  0  0  0  0  0  0  0  0  0  0  0
    7.4218  -13.5215   19.3722 C   0  0  0  0  0  0  0  0  0  0  0  0
    8.0072  -13.4885   20.7623 C   0  0  0  0  0  0  0  0  0  0  0  0
    8.7594  -14.7446   21.1333 C   0  0  2  0  0  0  0  0  0  0  0  0
    8.1832  -15.9784   20.7234 N   0  0  0  0  0  0  0  0  0  0  0  0
    9.3798  -14.7347   22.4628 C   0  0  0  0  0  0  0  0  0  0  0  0
   10.0425  -13.7075   22.8717 O   0  0  0  0  0  0  0  0  0  0  0  0
    9.3087  -15.8073   23.3782 N   0  0  0  0  0  0  0  0  0  0  0  0
   10.5078  -16.3573   24.0673 C   0  0  1  0  0  0  0  0  0  0  0  0
   10.2250  -17.7063   24.5689 C   0  0  0  0  0  0  0  0  0  0  0  0
   11.3098  -18.4381   25.2614 C   0  0  0  0  0  0  0  0  0  0  0  0
   10.9336  -19.4544   26.2406 C   0  0  0  0  0  0  0  0  0  0  0  0
   10.3187  -20.5261   25.9285 O   0  0  0  0  0  0  0  0  0  0  0  0
   11.6944  -16.1887   23.2540 C   0  0  0  0  0  0  0  0  0  0  0  0
   11.5983  -16.4407   21.9966 O   0  0  0  0  0  0  0  0  0  0  0  0
   11.2419  -19.3027   27.6063 O   0  0  0  0  0  0  0  0  0  0  0  0
   12.9521  -15.7747   23.6441 O   0  0  0  0  0  0  0  0  0  0  0  0
  2  3  2  0
  2  1  1  0
  4  5  1  0
  4  2  1  0
  5  7  1  0
  5  6  1  6
  7  8  2  0
 10  9  1  0
 10 12  1  0
 11 10  2  0
 13 12  1  0
 14 13  1  1
 15  7  1  0
 15 14  1  0
 16 14  1  0
 16 17  2  0
 18 16  1  0
 19 18  1  0
 19 24  1  0
 19 20  1  6
 21 22  1  0
 21 20  1  0
 22 23  2  0
 24 27  1  0
 25 24  2  0
 26 22  1  0
M  END
$$$$
