NQE.pdb
     RDKit          3D

 27 26  0  0  1  0  0  0  0  0999 V2000
   11.9081  -18.4999   19.2130 N   0  0  0  0  0  0  0  0  0  0  0  0
   11.0353  -17.3711   19.3517 C   0  0  0  0  0  0  0  0  0  0  0  0
   10.2265  -17.1327   18.4280 O   0  0  0  0  0  0  0  0  0  0  0  0
   11.0688  -16.5052   20.5306 C   0  0  0  0  0  0  0  0  0  0  0  0
    9.9963  -16.8764   21.4958 C   0  0  2  0  0  0  0  0  0  0  0  0
    8.6856  -16.6212   20.9861 N   0  0  0  0  0  0  0  0  0  0  0  0
   10.1754  -16.2251   22.8299 C   0  0  0  0  0  0  0  0  0  0  0  0
   11.2333  -16.3279   23.4807 O   0  0  0  0  0  0  0  0  0  0  0  0
    5.6087  -12.6328   25.4996 N   0  0  0  0  0  0  0  0  0  0  0  0
    6.6070  -12.5189   26.4871 C   0  0  0  0  0  0  0  0  0  0  0  0
    6.5629  -11.7609   27.4641 O   0  0  0  0  0  0  0  0  0  0  0  0
    7.8148  -13.4011   26.3174 C   0  0  0  0  0  0  0  0  0  0  0  0
    7.7950  -14.0503   24.9556 C   0  0  0  0  0  0  0  0  0  0  0  0
    8.9748  -14.9580   24.6995 C   0  0  2  0  0  0  0  0  0  0  0  0
    9.1150  -15.4656   23.3786 N   0  0  0  0  0  0  0  0  0  0  0  0
    9.2949  -15.8919   25.7849 C   0  0  0  0  0  0  0  0  0  0  0  0
    9.0843  -17.1562   25.6482 O   0  0  0  0  0  0  0  0  0  0  0  0
    9.8416  -15.5046   27.0277 N   0  0  0  0  0  0  0  0  0  0  0  0
   10.6311  -16.4321   27.8830 C   0  0  1  0  0  0  0  0  0  0  0  0
   11.6306  -17.1358   27.0724 C   0  0  0  0  0  0  0  0  0  0  0  0
   11.6021  -18.6159   27.0542 C   0  0  0  0  0  0  0  0  0  0  0  0
   12.7961  -19.3182   26.5912 C   0  0  0  0  0  0  0  0  0  0  0  0
   13.1026  -19.4300   25.3593 O   0  0  0  0  0  0  0  0  0  0  0  0
   11.1010  -15.7607   29.0773 C   0  0  0  0  0  0  0  0  0  0  0  0
   11.7487  -16.4600   29.9408 O   0  0  0  0  0  0  0  0  0  0  0  0
   13.6911  -19.9150   27.5000 O   0  0  0  0  0  0  0  0  0  0  0  0
   10.9574  -14.4341   29.4306 O   0  0  0  0  0  0  0  0  0  0  0  0
  2  3  2  0
  2  1  1  0
  4  5  1  0
  4  2  1  0
  5  7  1  0
  5  6  1  6
  7  8  2  0
 10  9  1  0
 10 12  1  0
 11 10  2  0
 13 12  1  0
 14 13  1  1
 15  7  1  0
 15 14  1  0
 16 14  1  0
 16 17  2  0
 18 16  1  0
 19 18  1  0
 19 24  1  0
 19 20  1  6
 21 22  1  0
 21 20  1  0
 22 23  2  0
 24 27  1  0
 25 24  2  0
 26 22  1  0
M  END
$$$$
