DGS.pdb
     RDKit          3D

 19 18  0  0  1  0  0  0  0  0999 V2000
   18.7074  -11.8202  -15.2408 N   0  0  0  0  0  0  0  0  0  0  0  0
   17.4969  -11.2660  -15.7490 C   0  0  1  0  0  0  0  0  0  0  0  0
   16.3284  -11.8911  -15.0464 C   0  0  0  0  0  0  0  0  0  0  0  0
   16.2545  -13.3579  -15.2712 C   0  0  0  0  0  0  0  0  0  0  0  0
   15.9964  -14.1857  -14.3429 O   0  0  0  0  0  0  0  0  0  0  0  0
   17.4769   -9.7806  -15.7488 C   0  0  0  0  0  0  0  0  0  0  0  0
   16.6745   -9.1787  -16.5061 O   0  0  0  0  0  0  0  0  0  0  0  0
   16.4652  -13.9205  -16.5237 O   0  0  0  0  0  0  0  0  0  0  0  0
   18.3241   -8.9999  -14.9285 N   0  0  0  0  0  0  0  0  0  0  0  0
   18.3504   -7.5843  -14.8349 C   0  0  0  0  0  0  0  0  0  0  0  0
   19.6667   -6.9426  -14.8428 C   0  0  0  0  0  0  0  0  0  0  0  0
   20.7303   -7.6590  -14.7616 O   0  0  0  0  0  0  0  0  0  0  0  0
   22.6687   -3.1653  -15.2320 O   0  0  0  0  0  0  0  0  0  0  0  0
   21.3311   -3.5595  -15.2901 C   0  0  0  0  0  0  0  0  0  0  0  0
   21.2700   -5.0037  -14.9009 C   0  0  2  0  0  0  0  0  0  0  0  0
   19.9310   -5.5509  -14.9359 N   0  0  0  0  0  0  0  0  0  0  0  0
   21.8864   -5.1464  -13.5525 C   0  0  0  0  0  0  0  0  0  0  0  0
   23.2311   -5.3190  -13.3611 O   0  0  0  0  0  0  0  0  0  0  0  0
   21.1122   -5.1026  -12.5620 O   0  0  0  0  0  0  0  0  0  0  0  0
  2  1  1  1
  2  3  1  0
  3  4  1  0
  4  5  2  0
  6  2  1  0
  6  7  2  0
  8  4  1  0
  9  6  1  0
 10 11  1  0
 10  9  1  0
 11 16  1  0
 12 11  2  0
 14 13  1  0
 15 14  1  1
 15 17  1  0
 16 15  1  0
 17 19  2  0
 17 18  1  0
M  END
$$$$
