DGS.pdb
     RDKit          3D

 19 18  0  0  1  0  0  0  0  0999 V2000
   17.1271  -11.8047  -14.2949 N   0  0  0  0  0  0  0  0  0  0  0  0
   16.4807  -11.3132  -15.4660 C   0  0  1  0  0  0  0  0  0  0  0  0
   14.9981  -11.4959  -15.3314 C   0  0  0  0  0  0  0  0  0  0  0  0
   14.6275  -12.9060  -15.0451 C   0  0  0  0  0  0  0  0  0  0  0  0
   15.0506  -13.8841  -15.7363 O   0  0  0  0  0  0  0  0  0  0  0  0
   16.8876   -9.9329  -15.8347 C   0  0  0  0  0  0  0  0  0  0  0  0
   16.4218   -9.4161  -16.8814 O   0  0  0  0  0  0  0  0  0  0  0  0
   13.7868  -13.2452  -13.9926 O   0  0  0  0  0  0  0  0  0  0  0  0
   17.7821   -9.1610  -15.0576 N   0  0  0  0  0  0  0  0  0  0  0  0
   18.1614   -7.8126  -15.2841 C   0  0  0  0  0  0  0  0  0  0  0  0
   19.0708   -7.2059  -14.3096 C   0  0  0  0  0  0  0  0  0  0  0  0
   19.0377   -7.5809  -13.0811 O   0  0  0  0  0  0  0  0  0  0  0  0
   22.5571   -7.2955  -14.3977 O   0  0  0  0  0  0  0  0  0  0  0  0
   21.9970   -6.8215  -13.2105 C   0  0  0  0  0  0  0  0  0  0  0  0
   20.9991   -5.7663  -13.5732 C   0  0  2  0  0  0  0  0  0  0  0  0
   20.0401   -6.2008  -14.5657 N   0  0  0  0  0  0  0  0  0  0  0  0
   21.7453   -4.5582  -14.0228 C   0  0  0  0  0  0  0  0  0  0  0  0
   21.5837   -3.9995  -15.2623 O   0  0  0  0  0  0  0  0  0  0  0  0
   22.5548   -4.0487  -13.2056 O   0  0  0  0  0  0  0  0  0  0  0  0
  2  1  1  1
  2  3  1  0
  3  4  1  0
  4  5  2  0
  6  2  1  0
  6  7  2  0
  8  4  1  0
  9  6  1  0
 10 11  1  0
 10  9  1  0
 11 16  1  0
 12 11  2  0
 14 13  1  0
 15 14  1  6
 15 17  1  0
 16 15  1  0
 17 19  2  0
 17 18  1  0
M  END
$$$$
