DGS.pdb
     RDKit          3D

 19 18  0  0  1  0  0  0  0  0999 V2000
   14.5774   -8.8064   -8.6496 N   0  0  0  0  0  0  0  0  0  0  0  0
   14.0445   -7.5168   -8.9392 C   0  0  1  0  0  0  0  0  0  0  0  0
   13.8622   -6.7537   -7.6609 C   0  0  0  0  0  0  0  0  0  0  0  0
   12.8474   -7.3767   -6.7723 C   0  0  0  0  0  0  0  0  0  0  0  0
   12.1613   -8.3899   -7.1132 O   0  0  0  0  0  0  0  0  0  0  0  0
   14.8062   -6.7786   -9.9792 C   0  0  0  0  0  0  0  0  0  0  0  0
   14.6687   -5.5327  -10.0705 O   0  0  0  0  0  0  0  0  0  0  0  0
   12.5835   -6.8843   -5.5005 O   0  0  0  0  0  0  0  0  0  0  0  0
   15.6902   -7.4142  -10.8818 N   0  0  0  0  0  0  0  0  0  0  0  0
   16.5061   -6.7869  -11.8586 C   0  0  0  0  0  0  0  0  0  0  0  0
   17.2963   -7.6632  -12.7260 C   0  0  0  0  0  0  0  0  0  0  0  0
   17.8187   -8.7360  -12.2494 O   0  0  0  0  0  0  0  0  0  0  0  0
   18.5786   -9.4559  -16.9820 O   0  0  0  0  0  0  0  0  0  0  0  0
   17.9401   -8.3833  -16.3578 C   0  0  0  0  0  0  0  0  0  0  0  0
   18.2947   -8.4323  -14.9042 C   0  0  2  0  0  0  0  0  0  0  0  0
   17.5718   -7.4670  -14.1047 N   0  0  0  0  0  0  0  0  0  0  0  0
   19.7683   -8.2538  -14.7808 C   0  0  0  0  0  0  0  0  0  0  0  0
   20.6440   -9.3041  -14.7106 O   0  0  0  0  0  0  0  0  0  0  0  0
   20.2004   -7.0730  -14.7417 O   0  0  0  0  0  0  0  0  0  0  0  0
  2  1  1  1
  2  3  1  0
  3  4  1  0
  4  5  2  0
  6  2  1  0
  6  7  2  0
  8  4  1  0
  9  6  1  0
 10 11  1  0
 10  9  1  0
 11 16  1  0
 12 11  2  0
 14 13  1  0
 15 14  1  6
 15 17  1  0
 16 15  1  0
 17 19  2  0
 17 18  1  0
M  END
$$$$
