DGS.pdb
     RDKit          3D

 19 18  0  0  1  0  0  0  0  0999 V2000
   25.0759  -19.9080  -18.4148 N   0  0  0  0  0  0  0  0  0  0  0  0
   25.4634  -18.5560  -18.1854 C   0  0  1  0  0  0  0  0  0  0  0  0
   24.4473  -17.6356  -18.7935 C   0  0  0  0  0  0  0  0  0  0  0  0
   24.4199  -17.7270  -20.2762 C   0  0  0  0  0  0  0  0  0  0  0  0
   23.3439  -17.6842  -20.9501 O   0  0  0  0  0  0  0  0  0  0  0  0
   25.7716  -18.2591  -16.7628 C   0  0  0  0  0  0  0  0  0  0  0  0
   26.3820  -17.1983  -16.4768 O   0  0  0  0  0  0  0  0  0  0  0  0
   25.5816  -17.8663  -21.0250 O   0  0  0  0  0  0  0  0  0  0  0  0
   25.4072  -19.1191  -15.7009 N   0  0  0  0  0  0  0  0  0  0  0  0
   25.5976  -18.8877  -14.3140 C   0  0  0  0  0  0  0  0  0  0  0  0
   25.1369  -19.9324  -13.3970 C   0  0  0  0  0  0  0  0  0  0  0  0
   24.2741  -20.7985  -13.7926 O   0  0  0  0  0  0  0  0  0  0  0  0
   26.9575  -21.0684   -9.9620 O   0  0  0  0  0  0  0  0  0  0  0  0
   25.5719  -21.1547   -9.8192 C   0  0  0  0  0  0  0  0  0  0  0  0
   24.9757  -21.1349  -11.1922 C   0  0  2  0  0  0  0  0  0  0  0  0
   25.5476  -20.1207  -12.0512 N   0  0  0  0  0  0  0  0  0  0  0  0
   23.5018  -20.9704  -11.0547 C   0  0  0  0  0  0  0  0  0  0  0  0
   22.8472  -19.8108  -11.3736 O   0  0  0  0  0  0  0  0  0  0  0  0
   22.8536  -21.9585  -10.6233 O   0  0  0  0  0  0  0  0  0  0  0  0
  2  1  1  1
  2  3  1  0
  3  4  1  0
  4  5  2  0
  6  2  1  0
  6  7  2  0
  8  4  1  0
  9  6  1  0
 10 11  1  0
 10  9  1  0
 11 16  1  0
 12 11  2  0
 14 13  1  0
 15 14  1  1
 15 17  1  0
 16 15  1  0
 17 19  2  0
 17 18  1  0
M  END
$$$$
