DGS.pdb
     RDKit          3D

 19 18  0  0  1  0  0  0  0  0999 V2000
   16.6063  -11.9939  -14.2481 N   0  0  0  0  0  0  0  0  0  0  0  0
   17.5678  -11.8621  -15.2916 C   0  0  1  0  0  0  0  0  0  0  0  0
   17.2863  -12.8761  -16.3604 C   0  0  0  0  0  0  0  0  0  0  0  0
   17.3008  -14.2663  -15.8363 C   0  0  0  0  0  0  0  0  0  0  0  0
   16.2415  -14.9081  -15.5543 O   0  0  0  0  0  0  0  0  0  0  0  0
   17.7075  -10.4731  -15.7994 C   0  0  0  0  0  0  0  0  0  0  0  0
   16.7932   -9.9864  -16.5114 O   0  0  0  0  0  0  0  0  0  0  0  0
   18.4863  -14.9573  -15.6201 O   0  0  0  0  0  0  0  0  0  0  0  0
   18.8299   -9.6601  -15.5178 N   0  0  0  0  0  0  0  0  0  0  0  0
   19.0538   -8.3326  -15.9660 C   0  0  0  0  0  0  0  0  0  0  0  0
   20.2569   -7.6591  -15.4727 C   0  0  0  0  0  0  0  0  0  0  0  0
   21.0434   -8.2660  -14.6576 O   0  0  0  0  0  0  0  0  0  0  0  0
   23.5380   -4.1059  -15.4342 O   0  0  0  0  0  0  0  0  0  0  0  0
   22.3636   -4.5605  -16.0359 C   0  0  0  0  0  0  0  0  0  0  0  0
   21.9120   -5.7729  -15.2829 C   0  0  2  0  0  0  0  0  0  0  0  0
   20.6894   -6.3475  -15.8012 N   0  0  0  0  0  0  0  0  0  0  0  0
   21.7788   -5.4028  -13.8464 C   0  0  0  0  0  0  0  0  0  0  0  0
   22.7734   -5.6070  -12.9277 O   0  0  0  0  0  0  0  0  0  0  0  0
   20.6919   -4.8802  -13.4885 O   0  0  0  0  0  0  0  0  0  0  0  0
  2  1  1  1
  2  3  1  0
  3  4  1  0
  4  5  2  0
  6  2  1  0
  6  7  2  0
  8  4  1  0
  9  6  1  0
 10 11  1  0
 10  9  1  0
 11 16  1  0
 12 11  2  0
 14 13  1  0
 15 14  1  6
 15 17  1  0
 16 15  1  0
 17 19  2  0
 17 18  1  0
M  END
$$$$
