DGS.pdb
     RDKit          3D

 19 18  0  0  1  0  0  0  0  0999 V2000
   27.4164   -9.5454  -16.0610 N   0  0  0  0  0  0  0  0  0  0  0  0
   27.2695   -9.5096  -17.4780 C   0  0  1  0  0  0  0  0  0  0  0  0
   27.7506  -10.8045  -18.0623 C   0  0  0  0  0  0  0  0  0  0  0  0
   29.2133  -10.9944  -17.8842 C   0  0  0  0  0  0  0  0  0  0  0  0
   29.9591  -10.1271  -17.3318 O   0  0  0  0  0  0  0  0  0  0  0  0
   25.9090   -9.1145  -17.9249 C   0  0  0  0  0  0  0  0  0  0  0  0
   25.6604   -9.0596  -19.1557 O   0  0  0  0  0  0  0  0  0  0  0  0
   29.8625  -12.1444  -18.3153 O   0  0  0  0  0  0  0  0  0  0  0  0
   24.8662   -8.7944  -17.0247 N   0  0  0  0  0  0  0  0  0  0  0  0
   23.5496   -8.3837  -17.3582 C   0  0  0  0  0  0  0  0  0  0  0  0
   22.6276   -8.1421  -16.2464 C   0  0  0  0  0  0  0  0  0  0  0  0
   23.0465   -8.2305  -15.0348 O   0  0  0  0  0  0  0  0  0  0  0  0
   19.5686   -5.6554  -16.2609 O   0  0  0  0  0  0  0  0  0  0  0  0
   19.1871   -6.7636  -15.5031 C   0  0  0  0  0  0  0  0  0  0  0  0
   20.4269   -7.5398  -15.1848 C   0  0  2  0  0  0  0  0  0  0  0  0
   21.2529   -7.8015  -16.3435 N   0  0  0  0  0  0  0  0  0  0  0  0
   20.0216   -8.8006  -14.5033 C   0  0  0  0  0  0  0  0  0  0  0  0
   19.6185   -8.8459  -13.1956 O   0  0  0  0  0  0  0  0  0  0  0  0
   20.0611   -9.8574  -15.1846 O   0  0  0  0  0  0  0  0  0  0  0  0
  2  1  1  1
  2  3  1  0
  3  4  1  0
  4  5  2  0
  6  2  1  0
  6  7  2  0
  8  4  1  0
  9  6  1  0
 10 11  1  0
 10  9  1  0
 11 16  1  0
 12 11  2  0
 14 13  1  0
 15 14  1  6
 15 17  1  0
 16 15  1  0
 17 19  2  0
 17 18  1  0
M  END
$$$$
