DGS.pdb
     RDKit          3D

 19 18  0  0  1  0  0  0  0  0999 V2000
   19.6274  -11.3618  -17.9521 N   0  0  0  0  0  0  0  0  0  0  0  0
   18.4601  -11.5149  -17.1491 C   0  0  1  0  0  0  0  0  0  0  0  0
   18.3060  -12.9558  -16.7622 C   0  0  0  0  0  0  0  0  0  0  0  0
   17.5204  -13.7264  -17.7604 C   0  0  0  0  0  0  0  0  0  0  0  0
   16.6127  -14.5531  -17.4342 O   0  0  0  0  0  0  0  0  0  0  0  0
   18.3996  -10.5724  -16.0023 C   0  0  0  0  0  0  0  0  0  0  0  0
   17.4100  -10.6119  -15.2287 O   0  0  0  0  0  0  0  0  0  0  0  0
   17.7322  -13.5890  -19.1264 O   0  0  0  0  0  0  0  0  0  0  0  0
   19.4121   -9.6225  -15.7329 N   0  0  0  0  0  0  0  0  0  0  0  0
   19.4651   -8.7219  -14.6377 C   0  0  0  0  0  0  0  0  0  0  0  0
   20.6891   -7.9324  -14.4857 C   0  0  0  0  0  0  0  0  0  0  0  0
   21.8313   -8.4648  -14.7368 O   0  0  0  0  0  0  0  0  0  0  0  0
   23.5571   -4.9658  -15.7918 O   0  0  0  0  0  0  0  0  0  0  0  0
   22.3677   -5.6936  -15.7315 C   0  0  0  0  0  0  0  0  0  0  0  0
   21.9572   -5.7672  -14.2939 C   0  0  2  0  0  0  0  0  0  0  0  0
   20.7779   -6.5764  -14.0749 N   0  0  0  0  0  0  0  0  0  0  0  0
   21.7693   -4.3767  -13.7942 C   0  0  0  0  0  0  0  0  0  0  0  0
   20.5398   -3.7859  -13.6757 O   0  0  0  0  0  0  0  0  0  0  0  0
   22.8053   -3.7390  -13.4736 O   0  0  0  0  0  0  0  0  0  0  0  0
  2  1  1  1
  2  3  1  0
  3  4  1  0
  4  5  2  0
  6  2  1  0
  6  7  2  0
  8  4  1  0
  9  6  1  0
 10 11  1  0
 10  9  1  0
 11 16  1  0
 12 11  2  0
 14 13  1  0
 15 14  1  6
 15 17  1  0
 16 15  1  0
 17 19  2  0
 17 18  1  0
M  END
$$$$
