DGS.pdb
     RDKit          3D

 19 18  0  0  1  0  0  0  0  0999 V2000
   18.7077  -12.4462  -14.8323 N   0  0  0  0  0  0  0  0  0  0  0  0
   17.9262  -12.0686  -15.9625 C   0  0  1  0  0  0  0  0  0  0  0  0
   16.4746  -12.3018  -15.6658 C   0  0  0  0  0  0  0  0  0  0  0  0
   16.2173  -13.6721  -15.1525 C   0  0  0  0  0  0  0  0  0  0  0  0
   16.7683  -14.7067  -15.6419 O   0  0  0  0  0  0  0  0  0  0  0  0
   18.2278  -10.7033  -16.4645 C   0  0  0  0  0  0  0  0  0  0  0  0
   17.5945  -10.2616  -17.4562 O   0  0  0  0  0  0  0  0  0  0  0  0
   15.3490  -13.9089  -14.0943 O   0  0  0  0  0  0  0  0  0  0  0  0
   19.2020   -9.8646  -15.8751 N   0  0  0  0  0  0  0  0  0  0  0  0
   19.5588   -8.5543  -16.2863 C   0  0  0  0  0  0  0  0  0  0  0  0
   20.5790   -7.8643  -15.4940 C   0  0  0  0  0  0  0  0  0  0  0  0
   20.9304   -8.3346  -14.3510 O   0  0  0  0  0  0  0  0  0  0  0  0
   22.1359   -4.1228  -16.2548 O   0  0  0  0  0  0  0  0  0  0  0  0
   23.0720   -5.0077  -15.7174 C   0  0  0  0  0  0  0  0  0  0  0  0
   22.3151   -6.1021  -15.0317 C   0  0  2  0  0  0  0  0  0  0  0  0
   21.2691   -6.6760  -15.8503 N   0  0  0  0  0  0  0  0  0  0  0  0
   21.7769   -5.5617  -13.7524 C   0  0  0  0  0  0  0  0  0  0  0  0
   22.5753   -5.1986  -12.7010 O   0  0  0  0  0  0  0  0  0  0  0  0
   20.5277   -5.4441  -13.6614 O   0  0  0  0  0  0  0  0  0  0  0  0
  2  1  1  1
  2  3  1  0
  3  4  1  0
  4  5  2  0
  6  2  1  0
  6  7  2  0
  8  4  1  0
  9  6  1  0
 10 11  1  0
 10  9  1  0
 11 16  1  0
 12 11  2  0
 14 13  1  0
 15 14  1  6
 15 17  1  0
 16 15  1  0
 17 19  2  0
 17 18  1  0
M  END
$$$$
