DGS.pdb
     RDKit          3D

 19 18  0  0  1  0  0  0  0  0999 V2000
   18.0497  -14.2394  -18.3557 N   0  0  0  0  0  0  0  0  0  0  0  0
   19.1332  -14.2445  -17.4301 C   0  0  1  0  0  0  0  0  0  0  0  0
   20.0804  -15.3545  -17.7768 C   0  0  0  0  0  0  0  0  0  0  0  0
   19.4777  -16.6961  -17.5665 C   0  0  0  0  0  0  0  0  0  0  0  0
   18.7764  -16.9851  -16.5475 O   0  0  0  0  0  0  0  0  0  0  0  0
   19.7873  -12.9199  -17.2733 C   0  0  0  0  0  0  0  0  0  0  0  0
   20.7297  -12.7957  -16.4511 O   0  0  0  0  0  0  0  0  0  0  0  0
   19.6456  -17.7282  -18.4809 O   0  0  0  0  0  0  0  0  0  0  0  0
   19.3998  -11.7781  -18.0123 N   0  0  0  0  0  0  0  0  0  0  0  0
   19.9258  -10.4660  -17.8903 C   0  0  0  0  0  0  0  0  0  0  0  0
   19.5697   -9.7173  -16.6832 C   0  0  0  0  0  0  0  0  0  0  0  0
   18.4245   -9.8995  -16.1296 O   0  0  0  0  0  0  0  0  0  0  0  0
   22.0107   -8.2385  -13.8341 O   0  0  0  0  0  0  0  0  0  0  0  0
   20.6458   -8.3987  -13.5905 C   0  0  0  0  0  0  0  0  0  0  0  0
   19.9182   -8.0325  -14.8465 C   0  0  2  0  0  0  0  0  0  0  0  0
   20.3761   -8.7635  -16.0083 N   0  0  0  0  0  0  0  0  0  0  0  0
   20.0409   -6.5609  -15.0404 C   0  0  0  0  0  0  0  0  0  0  0  0
   19.4980   -5.6466  -14.1777 O   0  0  0  0  0  0  0  0  0  0  0  0
   20.6777   -6.1680  -16.0517 O   0  0  0  0  0  0  0  0  0  0  0  0
  2  1  1  6
  2  3  1  0
  3  4  1  0
  4  5  2  0
  6  2  1  0
  6  7  2  0
  8  4  1  0
  9  6  1  0
 10 11  1  0
 10  9  1  0
 11 16  1  0
 12 11  2  0
 14 13  1  0
 15 14  1  1
 15 17  1  0
 16 15  1  0
 17 19  2  0
 17 18  1  0
M  END
$$$$
