DGS.pdb
     RDKit          3D

 19 18  0  0  1  0  0  0  0  0999 V2000
   15.6158  -11.0038  -14.5097 N   0  0  0  0  0  0  0  0  0  0  0  0
   16.8677  -11.4958  -14.9804 C   0  0  1  0  0  0  0  0  0  0  0  0
   16.6511  -12.7796  -15.7252 C   0  0  0  0  0  0  0  0  0  0  0  0
   16.2062  -13.8809  -14.8326 C   0  0  0  0  0  0  0  0  0  0  0  0
   16.4087  -13.8768  -13.5786 O   0  0  0  0  0  0  0  0  0  0  0  0
   17.6578  -10.4876  -15.7328 C   0  0  0  0  0  0  0  0  0  0  0  0
   17.4563  -10.3470  -16.9653 O   0  0  0  0  0  0  0  0  0  0  0  0
   15.5342  -14.9949  -15.3196 O   0  0  0  0  0  0  0  0  0  0  0  0
   18.6361   -9.6669  -15.1248 N   0  0  0  0  0  0  0  0  0  0  0  0
   19.4288   -8.6752  -15.7584 C   0  0  0  0  0  0  0  0  0  0  0  0
   20.2696   -7.8447  -14.8936 C   0  0  0  0  0  0  0  0  0  0  0  0
   20.2222   -7.9934  -13.6182 O   0  0  0  0  0  0  0  0  0  0  0  0
   23.0190   -5.0732  -16.2278 O   0  0  0  0  0  0  0  0  0  0  0  0
   23.3536   -5.7162  -15.0351 C   0  0  0  0  0  0  0  0  0  0  0  0
   22.0784   -6.1679  -14.3940 C   0  0  2  0  0  0  0  0  0  0  0  0
   21.1832   -6.8410  -15.3100 N   0  0  0  0  0  0  0  0  0  0  0  0
   21.4314   -4.9830  -13.7650 C   0  0  0  0  0  0  0  0  0  0  0  0
   21.8965   -4.4007  -12.6163 O   0  0  0  0  0  0  0  0  0  0  0  0
   20.4124   -4.5167  -14.3367 O   0  0  0  0  0  0  0  0  0  0  0  0
  2  1  1  6
  2  3  1  0
  3  4  1  0
  4  5  2  0
  6  2  1  0
  6  7  2  0
  8  4  1  0
  9  6  1  0
 10 11  1  0
 10  9  1  0
 11 16  1  0
 12 11  2  0
 14 13  1  0
 15 14  1  6
 15 17  1  0
 16 15  1  0
 17 19  2  0
 17 18  1  0
M  END
$$$$
