DRK.pdb
     RDKit          3D

 29 28  0  0  1  0  0  0  0  0999 V2000
   17.7207  -13.5523  -15.5643 N   0  0  0  0  0  0  0  0  0  0  0  0
   18.6996  -12.5299  -15.9907 C   0  0  1  0  0  0  0  0  0  0  0  0
   18.8107  -12.5582  -17.4913 C   0  0  0  0  0  0  0  0  0  0  0  0
   19.9452  -13.3422  -17.9733 C   0  0  0  0  0  0  0  0  0  0  0  0
   20.3168  -14.3217  -17.2513 O   0  0  0  0  0  0  0  0  0  0  0  0
   18.2846  -11.2096  -15.4480 C   0  0  0  0  0  0  0  0  0  0  0  0
   19.0319  -10.3807  -14.8942 O   0  0  0  0  0  0  0  0  0  0  0  0
   20.6528  -13.1319  -19.1208 O   0  0  0  0  0  0  0  0  0  0  0  0
   19.0319   -3.6024  -17.3898 N   0  0  0  0  0  0  0  0  0  0  0  0
   17.8112   -3.5722  -16.6843 C   0  0  0  0  0  0  0  0  0  0  0  0
   17.2049   -2.4497  -16.5127 N   0  0  0  0  0  0  0  0  0  0  0  0
   17.1977   -4.7267  -16.1423 N   0  0  0  0  0  0  0  0  0  0  0  0
   17.5908   -6.0772  -16.3863 C   0  0  0  0  0  0  0  0  0  0  0  0
   16.7769   -7.0922  -15.6351 C   0  0  0  0  0  0  0  0  0  0  0  0
   17.1901   -8.5110  -15.9061 C   0  0  0  0  0  0  0  0  0  0  0  0
   16.4198   -9.5369  -15.1192 C   0  0  2  0  0  0  0  0  0  0  0  0
   16.9119  -10.8357  -15.5605 N   0  0  0  0  0  0  0  0  0  0  0  0
   14.9406   -9.4461  -15.3275 C   0  0  0  0  0  0  0  0  0  0  0  0
   14.4197   -9.5877  -16.4604 O   0  0  0  0  0  0  0  0  0  0  0  0
   16.2877   -2.3990  -16.0300 N   0  0  0  0  0  0  0  0  0  0  0  0
   14.0611   -9.1941  -14.2475 C   0  0  2  0  0  0  0  0  0  0  0  0
   12.6005   -9.1765  -14.3754 C   0  0  0  0  0  0  0  0  0  0  0  0
   11.9329  -10.3098  -13.7066 C   0  0  0  0  0  0  0  0  0  0  0  0
   10.4994  -10.4799  -13.6534 C   0  0  0  0  0  0  0  0  0  0  0  0
    9.7231  -11.5612  -13.1216 C   0  0  0  0  0  0  0  0  0  0  0  0
    8.2696  -11.6502  -13.0704 N   0  0  0  0  0  0  0  0  0  0  0  0
    7.9405  -12.9891  -12.4857 C   0  0  0  0  0  0  0  0  0  0  0  0
   12.1444   -7.8184  -14.1155 O   0  0  0  0  0  0  0  0  0  0  0  0
   10.8378   -7.4302  -14.3387 O   0  0  0  0  0  0  0  0  0  0  0  0
  2  1  1  6
  2  3  1  0
  4  3  1  0
  4  8  1  0
  5  4  2  0
  6  2  1  0
  6  7  2  0
  9 10  1  0
 10 12  1  0
 11 10  2  0
 12 13  1  0
 13 14  1  0
 15 14  1  0
 16 15  1  6
 16 17  1  0
 17  6  1  0
 18 16  1  0
 19 18  2  0
 20 18  1  0
 21 22  1  1
 21 20  1  0
 22 23  1  0
 23 24  1  0
 25 24  1  0
 26 25  1  0
 27 28  1  0
 27 21  1  0
 29 27  2  0
M  END
$$$$
