DRK.pdb
     RDKit          3D

 29 28  0  0  1  0  0  0  0  0999 V2000
   27.8678  -22.4126  -18.3831 N   0  0  0  0  0  0  0  0  0  0  0  0
   27.8652  -21.2930  -17.4178 C   0  0  1  0  0  0  0  0  0  0  0  0
   27.6698  -20.0034  -18.1685 C   0  0  0  0  0  0  0  0  0  0  0  0
   28.8385  -19.6048  -18.9491 C   0  0  0  0  0  0  0  0  0  0  0  0
   29.8421  -20.3864  -18.9236 O   0  0  0  0  0  0  0  0  0  0  0  0
   26.8241  -21.5473  -16.3876 C   0  0  0  0  0  0  0  0  0  0  0  0
   25.7416  -22.1353  -16.5738 O   0  0  0  0  0  0  0  0  0  0  0  0
   28.9681  -18.4760  -19.7046 O   0  0  0  0  0  0  0  0  0  0  0  0
   25.4380  -21.0070   -8.3553 N   0  0  0  0  0  0  0  0  0  0  0  0
   24.1423  -21.0733   -8.9085 C   0  0  0  0  0  0  0  0  0  0  0  0
   23.1186  -20.8849   -8.1512 N   0  0  0  0  0  0  0  0  0  0  0  0
   23.8936  -21.3390  -10.2761 N   0  0  0  0  0  0  0  0  0  0  0  0
   24.8797  -21.6342  -11.2652 C   0  0  0  0  0  0  0  0  0  0  0  0
   25.7701  -20.4718  -11.6015 C   0  0  0  0  0  0  0  0  0  0  0  0
   26.7066  -20.7452  -12.7440 C   0  0  0  0  0  0  0  0  0  0  0  0
   26.0160  -21.0471  -14.0467 C   0  0  2  0  0  0  0  0  0  0  0  0
   27.0642  -21.0866  -15.0584 N   0  0  0  0  0  0  0  0  0  0  0  0
   24.9825  -20.0282  -14.4122 C   0  0  0  0  0  0  0  0  0  0  0  0
   25.2724  -18.8188  -14.5793 O   0  0  0  0  0  0  0  0  0  0  0  0
   22.1545  -20.8875   -8.5352 N   0  0  0  0  0  0  0  0  0  0  0  0
   23.6248  -20.3891  -14.5851 C   0  0  2  0  0  0  0  0  0  0  0  0
   22.5700  -19.4366  -14.9459 C   0  0  0  0  0  0  0  0  0  0  0  0
   22.5205  -19.1245  -16.3873 C   0  0  0  0  0  0  0  0  0  0  0  0
   21.6428  -18.1332  -16.9649 C   0  0  0  0  0  0  0  0  0  0  0  0
   21.4710  -17.7466  -18.3345 C   0  0  0  0  0  0  0  0  0  0  0  0
   20.5401  -16.7517  -18.8509 N   0  0  0  0  0  0  0  0  0  0  0  0
   20.7755  -16.6672  -20.3275 C   0  0  0  0  0  0  0  0  0  0  0  0
   21.3520  -19.8338  -14.2541 O   0  0  0  0  0  0  0  0  0  0  0  0
   20.3825  -18.9176  -13.8954 O   0  0  0  0  0  0  0  0  0  0  0  0
  2  1  1  6
  2  3  1  0
  4  3  1  0
  4  8  1  0
  5  4  2  0
  6  2  1  0
  6  7  2  0
  9 10  1  0
 10 12  1  0
 11 10  2  0
 12 13  1  0
 13 14  1  0
 15 14  1  0
 16 15  1  1
 16 17  1  0
 17  6  1  0
 18 16  1  0
 19 18  2  0
 20 18  1  0
 21 22  1  6
 21 20  1  0
 22 23  1  0
 23 24  1  0
 25 24  1  0
 26 25  1  0
 27 28  1  0
 27 21  1  0
 29 27  2  0
M  END
$$$$
