DRK.pdb
     RDKit          3D

 29 28  0  0  1  0  0  0  0  0999 V2000
   28.3624  -20.7809  -16.0975 N   0  0  0  0  0  0  0  0  0  0  0  0
   27.3195  -21.7086  -16.5844 C   0  0  1  0  0  0  0  0  0  0  0  0
   27.9840  -22.9372  -17.1446 C   0  0  0  0  0  0  0  0  0  0  0  0
   29.0158  -22.6373  -18.1343 C   0  0  0  0  0  0  0  0  0  0  0  0
   29.5667  -23.6288  -18.7108 O   0  0  0  0  0  0  0  0  0  0  0  0
   26.3735  -21.9957  -15.4742 C   0  0  0  0  0  0  0  0  0  0  0  0
   25.4681  -22.8513  -15.4898 O   0  0  0  0  0  0  0  0  0  0  0  0
   29.4543  -21.3997  -18.5058 O   0  0  0  0  0  0  0  0  0  0  0  0
   27.2318  -19.4014   -6.7777 N   0  0  0  0  0  0  0  0  0  0  0  0
   25.9974  -20.0530   -6.9795 C   0  0  0  0  0  0  0  0  0  0  0  0
   25.2175  -20.2598   -5.9764 N   0  0  0  0  0  0  0  0  0  0  0  0
   25.5534  -20.5025   -8.2459 N   0  0  0  0  0  0  0  0  0  0  0  0
   26.2866  -20.4212   -9.4681 C   0  0  0  0  0  0  0  0  0  0  0  0
   25.5327  -20.9297  -10.6640 C   0  0  0  0  0  0  0  0  0  0  0  0
   26.3286  -20.8852  -11.9374 C   0  0  0  0  0  0  0  0  0  0  0  0
   25.5991  -21.4254  -13.1378 C   0  0  2  0  0  0  0  0  0  0  0  0
   26.4945  -21.2361  -14.2720 N   0  0  0  0  0  0  0  0  0  0  0  0
   24.2938  -20.7379  -13.3890 C   0  0  0  0  0  0  0  0  0  0  0  0
   24.2350  -19.5470  -13.7804 O   0  0  0  0  0  0  0  0  0  0  0  0
   24.3083  -20.7469   -6.0902 N   0  0  0  0  0  0  0  0  0  0  0  0
   23.0619  -21.4070  -13.1932 C   0  0  2  0  0  0  0  0  0  0  0  0
   21.7639  -20.8540  -13.5923 C   0  0  0  0  0  0  0  0  0  0  0  0
   21.2515  -21.4016  -14.8632 C   0  0  0  0  0  0  0  0  0  0  0  0
   20.8553  -22.7791  -15.0428 C   0  0  0  0  0  0  0  0  0  0  0  0
   21.4139  -23.7912  -15.8902 C   0  0  0  0  0  0  0  0  0  0  0  0
   20.9303  -25.1556  -16.0566 N   0  0  0  0  0  0  0  0  0  0  0  0
   21.8659  -25.8308  -17.0114 C   0  0  0  0  0  0  0  0  0  0  0  0
   20.9036  -20.8379  -12.4178 O   0  0  0  0  0  0  0  0  0  0  0  0
   19.6542  -20.2492  -12.4342 O   0  0  0  0  0  0  0  0  0  0  0  0
  2  1  1  1
  2  3  1  0
  4  3  1  0
  4  8  1  0
  5  4  2  0
  6  2  1  0
  6  7  2  0
  9 10  1  0
 10 12  1  0
 11 10  2  0
 12 13  1  0
 13 14  1  0
 15 14  1  0
 16 15  1  1
 16 17  1  0
 17  6  1  0
 18 16  1  0
 19 18  2  0
 20 18  1  0
 21 22  1  6
 21 20  1  0
 22 23  1  0
 23 24  1  0
 25 24  1  0
 26 25  1  0
 27 28  1  0
 27 21  1  0
 29 27  2  0
M  END
$$$$
