DRK.pdb
     RDKit          3D

 29 28  0  0  1  0  0  0  0  0999 V2000
   27.0882  -21.2999  -17.3053 N   0  0  0  0  0  0  0  0  0  0  0  0
   27.5053  -21.9641  -16.0522 C   0  0  1  0  0  0  0  0  0  0  0  0
   28.9898  -21.7878  -15.8785 C   0  0  0  0  0  0  0  0  0  0  0  0
   29.7777  -22.4730  -16.9002 C   0  0  0  0  0  0  0  0  0  0  0  0
   29.1336  -23.1123  -17.7920 O   0  0  0  0  0  0  0  0  0  0  0  0
   26.7037  -21.4162  -14.9265 C   0  0  0  0  0  0  0  0  0  0  0  0
   26.8024  -21.7497  -13.7302 O   0  0  0  0  0  0  0  0  0  0  0  0
   31.1385  -22.5012  -16.9977 O   0  0  0  0  0  0  0  0  0  0  0  0
   25.9377  -16.4116  -18.6699 N   0  0  0  0  0  0  0  0  0  0  0  0
   24.8624  -15.9685  -17.8723 C   0  0  0  0  0  0  0  0  0  0  0  0
   23.7886  -15.5382  -18.4369 N   0  0  0  0  0  0  0  0  0  0  0  0
   24.8922  -15.9690  -16.4573 N   0  0  0  0  0  0  0  0  0  0  0  0
   25.9752  -16.4170  -15.6422 C   0  0  0  0  0  0  0  0  0  0  0  0
   25.9752  -17.8984  -15.3921 C   0  0  0  0  0  0  0  0  0  0  0  0
   24.9260  -18.3407  -14.4121 C   0  0  0  0  0  0  0  0  0  0  0  0
   24.8837  -19.8280  -14.1858 C   0  0  2  0  0  0  0  0  0  0  0  0
   25.7277  -20.4166  -15.2179 N   0  0  0  0  0  0  0  0  0  0  0  0
   23.5004  -20.3938  -14.2639 C   0  0  0  0  0  0  0  0  0  0  0  0
   23.0098  -20.8015  -15.3446 O   0  0  0  0  0  0  0  0  0  0  0  0
   22.9857  -15.1917  -17.8780 N   0  0  0  0  0  0  0  0  0  0  0  0
   22.6815  -20.4927  -13.1136 C   0  0  2  0  0  0  0  0  0  0  0  0
   21.3588  -21.1255  -13.1091 C   0  0  0  0  0  0  0  0  0  0  0  0
   21.0550  -21.8555  -11.8632 C   0  0  0  0  0  0  0  0  0  0  0  0
   19.8318  -22.5913  -11.6412 C   0  0  0  0  0  0  0  0  0  0  0  0
   19.4286  -23.3824  -10.5159 C   0  0  0  0  0  0  0  0  0  0  0  0
   18.1751  -24.1095  -10.3638 N   0  0  0  0  0  0  0  0  0  0  0  0
   18.2257  -24.7799   -9.0255 C   0  0  0  0  0  0  0  0  0  0  0  0
   20.3995  -20.1621  -13.6300 O   0  0  0  0  0  0  0  0  0  0  0  0
   20.5862  -18.7998  -13.4990 O   0  0  0  0  0  0  0  0  0  0  0  0
  2  1  1  6
  2  3  1  0
  4  3  1  0
  4  8  1  0
  5  4  2  0
  6  2  1  0
  6  7  2  0
  9 10  1  0
 10 12  1  0
 11 10  2  0
 12 13  1  0
 13 14  1  0
 15 14  1  0
 16 15  1  6
 16 17  1  0
 17  6  1  0
 18 16  1  0
 19 18  2  0
 20 18  1  0
 21 22  1  1
 21 20  1  0
 22 23  1  0
 23 24  1  0
 25 24  1  0
 26 25  1  0
 27 28  1  0
 27 21  1  0
 29 27  2  0
M  END
$$$$
