DRK.pdb
     RDKit          3D

 29 28  0  0  1  0  0  0  0  0999 V2000
   20.9013   -6.5621  -14.1504 N   0  0  0  0  0  0  0  0  0  0  0  0
   21.3099   -6.0388  -15.4713 C   0  0  1  0  0  0  0  0  0  0  0  0
   22.1750   -4.8244  -15.2674 C   0  0  0  0  0  0  0  0  0  0  0  0
   21.4771   -3.7190  -14.6154 C   0  0  0  0  0  0  0  0  0  0  0  0
   20.2522   -3.9028  -14.3242 O   0  0  0  0  0  0  0  0  0  0  0  0
   21.9776   -7.1257  -16.2346 C   0  0  0  0  0  0  0  0  0  0  0  0
   22.4710   -8.1616  -15.7492 O   0  0  0  0  0  0  0  0  0  0  0  0
   22.0027   -2.5036  -14.2864 O   0  0  0  0  0  0  0  0  0  0  0  0
   19.2707  -13.9837  -19.4479 N   0  0  0  0  0  0  0  0  0  0  0  0
   20.4519  -13.7494  -20.1819 C   0  0  0  0  0  0  0  0  0  0  0  0
   20.8279  -14.6033  -21.0688 N   0  0  0  0  0  0  0  0  0  0  0  0
   21.2667  -12.6067  -19.9997 N   0  0  0  0  0  0  0  0  0  0  0  0
   20.9774  -11.4986  -19.1474 C   0  0  0  0  0  0  0  0  0  0  0  0
   21.9925  -10.3936  -19.2215 C   0  0  0  0  0  0  0  0  0  0  0  0
   21.6666   -9.2206  -18.3412 C   0  0  0  0  0  0  0  0  0  0  0  0
   22.6038   -8.0537  -18.4996 C   0  0  2  0  0  0  0  0  0  0  0  0
   22.0733   -6.9932  -17.6524 N   0  0  0  0  0  0  0  0  0  0  0  0
   22.7148   -7.5787  -19.9144 C   0  0  0  0  0  0  0  0  0  0  0  0
   21.7125   -7.2021  -20.5689 O   0  0  0  0  0  0  0  0  0  0  0  0
   21.6847  -14.4531  -21.6346 N   0  0  0  0  0  0  0  0  0  0  0  0
   23.9641   -7.5349  -20.5784 C   0  0  2  0  0  0  0  0  0  0  0  0
   24.1505   -6.9847  -21.9247 C   0  0  0  0  0  0  0  0  0  0  0  0
   24.6420   -5.5934  -21.9339 C   0  0  0  0  0  0  0  0  0  0  0  0
   25.0601   -4.8970  -23.1285 C   0  0  0  0  0  0  0  0  0  0  0  0
   25.5058   -3.5446  -23.2933 C   0  0  0  0  0  0  0  0  0  0  0  0
   25.8296   -2.8787  -24.5482 N   0  0  0  0  0  0  0  0  0  0  0  0
   26.1883   -1.4656  -24.2058 C   0  0  0  0  0  0  0  0  0  0  0  0
   24.8269   -7.9914  -22.7303 O   0  0  0  0  0  0  0  0  0  0  0  0
   25.6327   -8.9604  -22.1652 O   0  0  0  0  0  0  0  0  0  0  0  0
  2  1  1  1
  2  3  1  0
  4  3  1  0
  4  8  1  0
  5  4  2  0
  6  2  1  0
  6  7  2  0
  9 10  1  0
 10 12  1  0
 11 10  2  0
 12 13  1  0
 13 14  1  0
 15 14  1  0
 16 15  1  6
 16 17  1  0
 17  6  1  0
 18 16  1  0
 19 18  2  0
 20 18  1  0
 21 22  1  1
 21 20  1  0
 22 23  1  0
 23 24  1  0
 25 24  1  0
 26 25  1  0
 27 28  1  0
 27 21  1  0
 29 27  2  0
M  END
$$$$
