DRK.pdb
     RDKit          3D

 29 28  0  0  1  0  0  0  0  0999 V2000
   20.6844  -28.7055  -15.5106 N   0  0  0  0  0  0  0  0  0  0  0  0
   21.0558  -27.5959  -14.6072 C   0  0  1  0  0  0  0  0  0  0  0  0
   21.5777  -26.4504  -15.4320 C   0  0  0  0  0  0  0  0  0  0  0  0
   22.9029  -26.6983  -15.9944 C   0  0  0  0  0  0  0  0  0  0  0  0
   23.4307  -27.8296  -15.7485 O   0  0  0  0  0  0  0  0  0  0  0  0
   19.8792  -27.2413  -13.7706 C   0  0  0  0  0  0  0  0  0  0  0  0
   18.7317  -26.9986  -14.1907 O   0  0  0  0  0  0  0  0  0  0  0  0
   23.6386  -25.8391  -16.7576 O   0  0  0  0  0  0  0  0  0  0  0  0
   18.4669  -25.0762   -6.2060 N   0  0  0  0  0  0  0  0  0  0  0  0
   17.5701  -26.1513   -6.0367 C   0  0  0  0  0  0  0  0  0  0  0  0
   16.5505  -26.0114   -5.2635 N   0  0  0  0  0  0  0  0  0  0  0  0
   17.7256  -27.4022   -6.6802 N   0  0  0  0  0  0  0  0  0  0  0  0
   18.6633  -27.7017   -7.7141 C   0  0  0  0  0  0  0  0  0  0  0  0
   18.3769  -27.0061   -9.0145 C   0  0  0  0  0  0  0  0  0  0  0  0
   19.2910  -27.4235  -10.1313 C   0  0  0  0  0  0  0  0  0  0  0  0
   18.9757  -26.7828  -11.4562 C   0  0  2  0  0  0  0  0  0  0  0  0
   20.0555  -27.1669  -12.3564 N   0  0  0  0  0  0  0  0  0  0  0  0
   18.8742  -25.2917  -11.3769 C   0  0  0  0  0  0  0  0  0  0  0  0
   19.8825  -24.5514  -11.4761 O   0  0  0  0  0  0  0  0  0  0  0  0
   15.9168  -26.8065   -5.0555 N   0  0  0  0  0  0  0  0  0  0  0  0
   17.6273  -24.6499  -11.1845 C   0  0  1  0  0  0  0  0  0  0  0  0
   17.3430  -23.2788  -11.6193 C   0  0  0  0  0  0  0  0  0  0  0  0
   17.8090  -22.9819  -12.9876 C   0  0  0  0  0  0  0  0  0  0  0  0
   17.4795  -21.7712  -13.7035 C   0  0  0  0  0  0  0  0  0  0  0  0
   17.8896  -21.3354  -15.0060 C   0  0  0  0  0  0  0  0  0  0  0  0
   17.5051  -20.0990  -15.6744 N   0  0  0  0  0  0  0  0  0  0  0  0
   18.3955  -19.9613  -16.8707 C   0  0  0  0  0  0  0  0  0  0  0  0
   15.9721  -22.9645  -11.2428 O   0  0  0  0  0  0  0  0  0  0  0  0
   15.1070  -23.9272  -10.7604 O   0  0  0  0  0  0  0  0  0  0  0  0
  2  1  1  6
  2  3  1  0
  4  3  1  0
  4  8  1  0
  5  4  2  0
  6  2  1  0
  6  7  2  0
  9 10  1  0
 10 12  1  0
 11 10  2  0
 12 13  1  0
 13 14  1  0
 15 14  1  0
 16 15  1  1
 16 17  1  0
 17  6  1  0
 18 16  1  0
 19 18  2  0
 20 18  1  0
 21 22  1  6
 21 20  1  0
 22 23  1  0
 23 24  1  0
 25 24  1  0
 26 25  1  0
 27 28  1  0
 27 21  1  0
 29 27  2  0
M  END
$$$$
