DRK.pdb
     RDKit          3D

 29 28  0  0  1  0  0  0  0  0999 V2000
   25.8673  -17.2005  -17.0167 N   0  0  0  0  0  0  0  0  0  0  0  0
   25.6629  -18.0606  -18.2016 C   0  0  1  0  0  0  0  0  0  0  0  0
   27.0014  -18.3659  -18.8182 C   0  0  0  0  0  0  0  0  0  0  0  0
   27.6778  -17.1846  -19.3484 C   0  0  0  0  0  0  0  0  0  0  0  0
   28.7696  -17.3775  -19.9726 O   0  0  0  0  0  0  0  0  0  0  0  0
   24.9041  -19.2717  -17.7927 C   0  0  0  0  0  0  0  0  0  0  0  0
   24.7182  -20.2866  -18.4911 O   0  0  0  0  0  0  0  0  0  0  0  0
   27.2607  -15.8898  -19.2423 O   0  0  0  0  0  0  0  0  0  0  0  0
   26.7020  -20.5462  -10.7972 N   0  0  0  0  0  0  0  0  0  0  0  0
   25.3501  -20.8165  -11.0943 C   0  0  0  0  0  0  0  0  0  0  0  0
   24.4336  -20.4543  -10.2661 N   0  0  0  0  0  0  0  0  0  0  0  0
   24.9302  -21.4753  -12.2744 N   0  0  0  0  0  0  0  0  0  0  0  0
   25.7764  -21.9033  -13.3414 C   0  0  0  0  0  0  0  0  0  0  0  0
   25.2471  -21.5709  -14.7075 C   0  0  0  0  0  0  0  0  0  0  0  0
   23.9688  -20.7822  -14.6793 C   0  0  0  0  0  0  0  0  0  0  0  0
   23.4632  -20.3814  -16.0390 C   0  0  2  0  0  0  0  0  0  0  0  0
   24.3284  -19.2977  -16.4871 N   0  0  0  0  0  0  0  0  0  0  0  0
   22.0359  -19.9315  -16.0246 C   0  0  0  0  0  0  0  0  0  0  0  0
   21.6729  -18.8939  -15.4193 O   0  0  0  0  0  0  0  0  0  0  0  0
   23.4318  -20.6557  -10.4467 N   0  0  0  0  0  0  0  0  0  0  0  0
   21.0284  -20.6634  -16.6975 C   0  0  2  0  0  0  0  0  0  0  0  0
   19.6881  -20.8944  -16.1498 C   0  0  0  0  0  0  0  0  0  0  0  0
   19.6126  -22.0490  -15.2340 C   0  0  0  0  0  0  0  0  0  0  0  0
   18.3922  -22.4954  -14.6030 C   0  0  0  0  0  0  0  0  0  0  0  0
   18.1674  -23.6033  -13.7217 C   0  0  0  0  0  0  0  0  0  0  0  0
   17.0415  -24.5277  -13.7507 N   0  0  0  0  0  0  0  0  0  0  0  0
   17.2391  -25.4829  -12.6142 C   0  0  0  0  0  0  0  0  0  0  0  0
   19.1471  -19.6088  -15.7321 O   0  0  0  0  0  0  0  0  0  0  0  0
   18.0042  -19.0776  -16.2971 O   0  0  0  0  0  0  0  0  0  0  0  0
  2  1  1  1
  2  3  1  0
  4  3  1  0
  4  8  1  0
  5  4  2  0
  6  2  1  0
  6  7  2  0
  9 10  1  0
 10 12  1  0
 11 10  2  0
 12 13  1  0
 13 14  1  0
 15 14  1  0
 16 15  1  1
 16 17  1  0
 17  6  1  0
 18 16  1  0
 19 18  2  0
 20 18  1  0
 21 22  1  6
 21 20  1  0
 22 23  1  0
 23 24  1  0
 25 24  1  0
 26 25  1  0
 27 28  1  0
 27 21  1  0
 29 27  2  0
M  END
$$$$
