DRK.pdb
     RDKit          3D

 29 28  0  0  1  0  0  0  0  0999 V2000
   11.8302  -25.5721    0.8999 N   0  0  0  0  0  0  0  0  0  0  0  0
   12.5083  -25.2468    2.1726 C   0  0  1  0  0  0  0  0  0  0  0  0
   12.9518  -26.5263    2.8289 C   0  0  0  0  0  0  0  0  0  0  0  0
   11.8418  -27.3479    3.3054 C   0  0  0  0  0  0  0  0  0  0  0  0
   10.6680  -26.8925    3.1223 O   0  0  0  0  0  0  0  0  0  0  0  0
   13.6211  -24.3004    1.8974 C   0  0  0  0  0  0  0  0  0  0  0  0
   14.4583  -23.8972    2.7275 O   0  0  0  0  0  0  0  0  0  0  0  0
   11.9322  -28.5571    3.9310 O   0  0  0  0  0  0  0  0  0  0  0  0
   16.4842  -24.5230   -6.2220 N   0  0  0  0  0  0  0  0  0  0  0  0
   17.1618  -25.1324   -5.1458 C   0  0  0  0  0  0  0  0  0  0  0  0
   18.1719  -25.8946   -5.3817 N   0  0  0  0  0  0  0  0  0  0  0  0
   16.7912  -24.9523   -3.7918 N   0  0  0  0  0  0  0  0  0  0  0  0
   15.8775  -23.9738   -3.2962 C   0  0  0  0  0  0  0  0  0  0  0  0
   15.7731  -23.9435   -1.7979 C   0  0  0  0  0  0  0  0  0  0  0  0
   14.8902  -22.8434   -1.2808 C   0  0  0  0  0  0  0  0  0  0  0  0
   14.7720  -22.8032    0.2190 C   0  0  2  0  0  0  0  0  0  0  0  0
   13.7641  -23.7955    0.5703 N   0  0  0  0  0  0  0  0  0  0  0  0
   14.3764  -21.4572    0.7400 C   0  0  0  0  0  0  0  0  0  0  0  0
   13.2035  -21.0234    0.6361 O   0  0  0  0  0  0  0  0  0  0  0  0
   18.6902  -26.3589   -4.6118 N   0  0  0  0  0  0  0  0  0  0  0  0
   15.3161  -20.6108    1.3758 C   0  0  1  0  0  0  0  0  0  0  0  0
   14.9782  -19.3009    1.9415 C   0  0  0  0  0  0  0  0  0  0  0  0
   13.7324  -19.3000    2.7324 C   0  0  0  0  0  0  0  0  0  0  0  0
   13.2299  -18.1442    3.4383 C   0  0  0  0  0  0  0  0  0  0  0  0
   12.0323  -17.9903    4.2109 C   0  0  0  0  0  0  0  0  0  0  0  0
   11.5865  -16.7865    4.9003 N   0  0  0  0  0  0  0  0  0  0  0  0
   10.2641  -17.1119    5.5235 C   0  0  0  0  0  0  0  0  0  0  0  0
   16.1916  -18.7323    2.5109 O   0  0  0  0  0  0  0  0  0  0  0  0
   16.2509  -17.4235    2.9482 O   0  0  0  0  0  0  0  0  0  0  0  0
  2  1  1  6
  2  3  1  0
  4  3  1  0
  4  8  1  0
  5  4  2  0
  6  2  1  0
  6  7  2  0
  9 10  1  0
 10 12  1  0
 11 10  2  0
 12 13  1  0
 13 14  1  0
 15 14  1  0
 16 15  1  6
 16 17  1  0
 17  6  1  0
 18 16  1  0
 19 18  2  0
 20 18  1  0
 21 22  1  6
 21 20  1  0
 22 23  1  0
 23 24  1  0
 25 24  1  0
 26 25  1  0
 27 28  1  0
 27 21  1  0
 29 27  2  0
M  END
$$$$
