DRK.pdb
     RDKit          3D

 29 28  0  0  1  0  0  0  0  0999 V2000
   27.0478  -18.5446  -17.6569 N   0  0  0  0  0  0  0  0  0  0  0  0
   25.7829  -19.0894  -18.1942 C   0  0  1  0  0  0  0  0  0  0  0  0
   26.0605  -19.7494  -19.5179 C   0  0  0  0  0  0  0  0  0  0  0  0
   26.8553  -18.9220  -20.4222 C   0  0  0  0  0  0  0  0  0  0  0  0
   26.2964  -18.5487  -21.5025 O   0  0  0  0  0  0  0  0  0  0  0  0
   25.1849  -20.0032  -17.1856 C   0  0  0  0  0  0  0  0  0  0  0  0
   24.5500  -21.0465  -17.4318 O   0  0  0  0  0  0  0  0  0  0  0  0
   28.1410  -18.5073  -20.2300 O   0  0  0  0  0  0  0  0  0  0  0  0
   24.0555  -19.5763   -9.1645 N   0  0  0  0  0  0  0  0  0  0  0  0
   24.5630  -20.8840   -9.0192 C   0  0  0  0  0  0  0  0  0  0  0  0
   24.1977  -21.5983   -8.0125 N   0  0  0  0  0  0  0  0  0  0  0  0
   25.4688  -21.4725   -9.9336 N   0  0  0  0  0  0  0  0  0  0  0  0
   25.9781  -20.8616  -11.1191 C   0  0  0  0  0  0  0  0  0  0  0  0
   25.0561  -20.9654  -12.3005 C   0  0  0  0  0  0  0  0  0  0  0  0
   25.6121  -20.3455  -13.5509 C   0  0  0  0  0  0  0  0  0  0  0  0
   24.7035  -20.4505  -14.7461 C   0  0  2  0  0  0  0  0  0  0  0  0
   25.3397  -19.6772  -15.8049 N   0  0  0  0  0  0  0  0  0  0  0  0
   23.3253  -19.9302  -14.4822 C   0  0  0  0  0  0  0  0  0  0  0  0
   23.1265  -18.7777  -14.0273 O   0  0  0  0  0  0  0  0  0  0  0  0
   24.5725  -22.5545   -7.8638 N   0  0  0  0  0  0  0  0  0  0  0  0
   22.1802  -20.7226  -14.7360 C   0  0  2  0  0  0  0  0  0  0  0  0
   20.8118  -20.2969  -14.4260 C   0  0  0  0  0  0  0  0  0  0  0  0
   19.7820  -20.9729  -15.2384 C   0  0  0  0  0  0  0  0  0  0  0  0
   18.3679  -20.6965  -15.1350 C   0  0  0  0  0  0  0  0  0  0  0  0
   17.2622  -21.3056  -15.8139 C   0  0  0  0  0  0  0  0  0  0  0  0
   15.8577  -20.9334  -15.7043 N   0  0  0  0  0  0  0  0  0  0  0  0
   15.1050  -21.8059  -16.6609 C   0  0  0  0  0  0  0  0  0  0  0  0
   20.6725  -20.2565  -12.9772 O   0  0  0  0  0  0  0  0  0  0  0  0
   21.2838  -21.1850  -12.1574 O   0  0  0  0  0  0  0  0  0  0  0  0
  2  1  1  1
  2  3  1  0
  4  3  1  0
  4  8  1  0
  5  4  2  0
  6  2  1  0
  6  7  2  0
  9 10  1  0
 10 12  1  0
 11 10  2  0
 12 13  1  0
 13 14  1  0
 15 14  1  0
 16 15  1  1
 16 17  1  0
 17  6  1  0
 18 16  1  0
 19 18  2  0
 20 18  1  0
 21 22  1  6
 21 20  1  0
 22 23  1  0
 23 24  1  0
 25 24  1  0
 26 25  1  0
 27 28  1  0
 27 21  1  0
 29 27  2  0
M  END
$$$$
