DRK.pdb
     RDKit          3D

 29 28  0  0  1  0  0  0  0  0999 V2000
   20.9982  -19.8279  -15.7156 N   0  0  0  0  0  0  0  0  0  0  0  0
   20.3830  -18.4969  -15.5271 C   0  0  1  0  0  0  0  0  0  0  0  0
   19.4418  -18.5574  -14.3544 C   0  0  0  0  0  0  0  0  0  0  0  0
   18.2312  -19.3299  -14.6225 C   0  0  0  0  0  0  0  0  0  0  0  0
   18.1147  -19.8330  -15.7854 O   0  0  0  0  0  0  0  0  0  0  0  0
   21.4612  -17.4848  -15.3752 C   0  0  0  0  0  0  0  0  0  0  0  0
   21.2959  -16.2710  -15.1485 O   0  0  0  0  0  0  0  0  0  0  0  0
   17.2066  -19.5680  -13.7535 O   0  0  0  0  0  0  0  0  0  0  0  0
   26.9869  -20.5354  -13.3621 N   0  0  0  0  0  0  0  0  0  0  0  0
   27.5059  -20.3001  -14.6522 C   0  0  0  0  0  0  0  0  0  0  0  0
   27.7501  -21.2967  -15.4295 N   0  0  0  0  0  0  0  0  0  0  0  0
   27.7798  -19.0062  -15.1559 N   0  0  0  0  0  0  0  0  0  0  0  0
   27.5738  -17.7759  -14.4617 C   0  0  0  0  0  0  0  0  0  0  0  0
   26.4018  -16.9826  -14.9656 C   0  0  0  0  0  0  0  0  0  0  0  0
   25.1028  -17.7358  -14.9165 C   0  0  0  0  0  0  0  0  0  0  0  0
   23.9349  -16.9864  -15.4991 C   0  0  2  0  0  0  0  0  0  0  0  0
   22.8153  -17.9193  -15.4950 N   0  0  0  0  0  0  0  0  0  0  0  0
   24.1903  -16.4908  -16.8880 C   0  0  0  0  0  0  0  0  0  0  0  0
   24.2942  -17.2734  -17.8635 O   0  0  0  0  0  0  0  0  0  0  0  0
   28.2348  -21.1674  -16.3379 N   0  0  0  0  0  0  0  0  0  0  0  0
   24.3269  -15.1087  -17.1609 C   0  0  2  0  0  0  0  0  0  0  0  0
   24.5369  -14.5623  -18.5053 C   0  0  0  0  0  0  0  0  0  0  0  0
   24.2282  -13.1235  -18.6155 C   0  0  0  0  0  0  0  0  0  0  0  0
   24.3042  -12.3778  -19.8504 C   0  0  0  0  0  0  0  0  0  0  0  0
   23.9921  -11.0037  -20.1128 C   0  0  0  0  0  0  0  0  0  0  0  0
   24.0769  -10.3185  -21.3960 N   0  0  0  0  0  0  0  0  0  0  0  0
   23.4255   -8.9822  -21.2146 C   0  0  0  0  0  0  0  0  0  0  0  0
   25.8115  -15.0639  -18.9988 O   0  0  0  0  0  0  0  0  0  0  0  0
   25.9773  -15.4810  -20.3050 O   0  0  0  0  0  0  0  0  0  0  0  0
  2  1  1  1
  2  3  1  0
  4  3  1  0
  4  8  1  0
  5  4  2  0
  6  2  1  0
  6  7  2  0
  9 10  1  0
 10 12  1  0
 11 10  2  0
 12 13  1  0
 13 14  1  0
 15 14  1  0
 16 15  1  6
 16 17  1  0
 17  6  1  0
 18 16  1  0
 19 18  2  0
 20 18  1  0
 21 22  1  1
 21 20  1  0
 22 23  1  0
 23 24  1  0
 25 24  1  0
 26 25  1  0
 27 28  1  0
 27 21  1  0
 29 27  2  0
M  END
$$$$
