DRK.pdb
     RDKit          3D

 29 28  0  0  1  0  0  0  0  0999 V2000
-1471426.12503412948.7500-528809.1875 N   0  0  0  0  0  0  0  0  0  0  0  0
-1471425.87503412948.0000-528809.9375 C   0  0  1  0  0  0  0  0  0  0  0  0
-1471425.12503412947.7500-528811.0000 C   0  0  0  0  0  0  0  0  0  0  0  0
-1471424.25003412949.7500-528811.5625 C   0  0  0  0  0  0  0  0  0  0  0  0
-1471424.00003412950.7500-528811.9375 O   0  0  0  0  0  0  0  0  0  0  0  0
-1471423.75003412947.2500-528809.9375 C   0  0  0  0  0  0  0  0  0  0  0  0
-1471423.87503412947.5000-528808.8125 O   0  0  0  0  0  0  0  0  0  0  0  0
-1471424.75003412950.7500-528811.3125 O   0  0  0  0  0  0  0  0  0  0  0  0
-1471418.87503412947.0000-528815.6875 N   0  0  0  0  0  0  0  0  0  0  0  0
-1471421.62503412946.5000-528814.9375 C   0  0  0  0  0  0  0  0  0  0  0  0
-1471421.25003412944.7500-528815.0625 N   0  0  0  0  0  0  0  0  0  0  0  0
-1471421.50003412946.5000-528814.5625 N   0  0  0  0  0  0  0  0  0  0  0  0
-1471422.25003412947.0000-528813.1875 C   0  0  0  0  0  0  0  0  0  0  0  0
-1471421.62503412945.5000-528812.5625 C   0  0  0  0  0  0  0  0  0  0  0  0
-1471422.00003412944.7500-528811.1875 C   0  0  0  0  0  0  0  0  0  0  0  0
-1471421.87503412946.2500-528809.8750 C   0  0  2  0  0  0  0  0  0  0  0  0
-1471423.00003412947.2500-528810.5625 N   0  0  0  0  0  0  0  0  0  0  0  0
-1471420.12503412946.7500-528810.3750 C   0  0  0  0  0  0  0  0  0  0  0  0
-1471419.25003412946.7500-528809.6875 O   0  0  0  0  0  0  0  0  0  0  0  0
-1471422.75003412944.7500-528814.5000 N   0  0  0  0  0  0  0  0  0  0  0  0
-1471421.00003412947.5000-528810.9375 C   0  0  1  0  0  0  0  0  0  0  0  0
-1471419.50003412948.0000-528812.0625 C   0  0  0  0  0  0  0  0  0  0  0  0
-1471420.50003412948.0000-528813.4375 C   0  0  0  0  0  0  0  0  0  0  0  0
-1471419.25003412948.0000-528814.6875 C   0  0  0  0  0  0  0  0  0  0  0  0
-1471419.00003412948.0000-528815.0625 C   0  0  0  0  0  0  0  0  0  0  0  0
-1471418.75003412949.5000-528815.3125 N   0  0  0  0  0  0  0  0  0  0  0  0
-1471417.37503412950.0000-528815.0625 C   0  0  0  0  0  0  0  0  0  0  0  0
-1471419.75003412949.0000-528812.5625 O   0  0  0  0  0  0  0  0  0  0  0  0
-1471420.00003412950.0000-528813.0625 O   0  0  0  0  0  0  0  0  0  0  0  0
  2  1  1  1
  2  3  1  0
  4  3  1  0
  4  8  1  0
  5  4  2  0
  6  2  1  0
  6  7  2  0
  9 10  1  0
 10 12  1  0
 11 10  2  0
 12 13  1  0
 13 14  1  0
 15 14  1  0
 16 15  1  6
 16 17  1  0
 17  6  1  0
 18 16  1  0
 19 18  2  0
 20 18  1  0
 21 22  1  1
 21 20  1  0
 22 23  1  0
 23 24  1  0
 25 24  1  0
 26 25  1  0
 27 28  1  0
 27 21  1  0
 29 27  2  0
M  END
$$$$
