DRK.pdb
     RDKit          3D

 29 28  0  0  1  0  0  0  0  0999 V2000
   25.5654  -22.5010  -11.7378 N   0  0  0  0  0  0  0  0  0  0  0  0
   25.7368  -21.2435  -10.9796 C   0  0  1  0  0  0  0  0  0  0  0  0
   26.6510  -20.3305  -11.7513 C   0  0  0  0  0  0  0  0  0  0  0  0
   26.3240  -20.2498  -13.1728 C   0  0  0  0  0  0  0  0  0  0  0  0
   25.3134  -20.9130  -13.5699 O   0  0  0  0  0  0  0  0  0  0  0  0
   24.3976  -20.6575  -10.7092 C   0  0  0  0  0  0  0  0  0  0  0  0
   24.1630  -19.4615  -10.4512 O   0  0  0  0  0  0  0  0  0  0  0  0
   26.9930  -19.5363  -14.1242 O   0  0  0  0  0  0  0  0  0  0  0  0
   19.9548  -22.0646  -16.0968 N   0  0  0  0  0  0  0  0  0  0  0  0
   18.9168  -21.1943  -15.7044 C   0  0  0  0  0  0  0  0  0  0  0  0
   17.7452  -21.3307  -16.2199 N   0  0  0  0  0  0  0  0  0  0  0  0
   19.0882  -20.1575  -14.7563 N   0  0  0  0  0  0  0  0  0  0  0  0
   20.2948  -19.8527  -14.0570 C   0  0  0  0  0  0  0  0  0  0  0  0
   20.4697  -20.6263  -12.7811 C   0  0  0  0  0  0  0  0  0  0  0  0
   21.7228  -20.2715  -12.0322 C   0  0  0  0  0  0  0  0  0  0  0  0
   21.8970  -21.0171  -10.7365 C   0  0  2  0  0  0  0  0  0  0  0  0
   23.2636  -21.5233  -10.7436 N   0  0  0  0  0  0  0  0  0  0  0  0
   20.9280  -22.1461  -10.5750 C   0  0  0  0  0  0  0  0  0  0  0  0
   20.9521  -23.1538  -11.3224 O   0  0  0  0  0  0  0  0  0  0  0  0
   16.9564  -20.7178  -15.9390 N   0  0  0  0  0  0  0  0  0  0  0  0
   19.9362  -22.1238   -9.5654 C   0  0  2  0  0  0  0  0  0  0  0  0
   19.0028  -23.2272   -9.3179 C   0  0  0  0  0  0  0  0  0  0  0  0
   18.3928  -23.1980   -7.9746 C   0  0  0  0  0  0  0  0  0  0  0  0
   17.6897  -24.3149   -7.3872 C   0  0  0  0  0  0  0  0  0  0  0  0
   18.0677  -25.1664   -6.2978 C   0  0  0  0  0  0  0  0  0  0  0  0
   17.2774  -26.2437   -5.7165 N   0  0  0  0  0  0  0  0  0  0  0  0
   18.1294  -26.8832   -4.6639 C   0  0  0  0  0  0  0  0  0  0  0  0
   18.1517  -23.3656  -10.4911 O   0  0  0  0  0  0  0  0  0  0  0  0
   17.8380  -24.6000  -11.0258 O   0  0  0  0  0  0  0  0  0  0  0  0
  2  1  1  6
  2  3  1  0
  4  3  1  0
  4  8  1  0
  5  4  2  0
  6  2  1  0
  6  7  2  0
  9 10  1  0
 10 12  1  0
 11 10  2  0
 12 13  1  0
 13 14  1  0
 15 14  1  0
 16 15  1  6
 16 17  1  0
 17  6  1  0
 18 16  1  0
 19 18  2  0
 20 18  1  0
 21 22  1  1
 21 20  1  0
 22 23  1  0
 23 24  1  0
 25 24  1  0
 26 25  1  0
 27 28  1  0
 27 21  1  0
 29 27  2  0
M  END
$$$$
