AWR.pdb
     RDKit          3D

 31 32  0  0  1  0  0  0  0  0999 V2000
    7.7519  -15.6667   20.0367 C   0  0  0  0  0  0  0  0  0  0  0  0
    7.7961  -14.3912   20.8153 C   0  0  2  0  0  0  0  0  0  0  0  0
    8.2187  -13.2468   20.0722 N   0  0  0  0  0  0  0  0  0  0  0  0
    8.6798  -14.5678   21.9817 C   0  0  0  0  0  0  0  0  0  0  0  0
    9.7496  -13.8843   22.0306 O   0  0  0  0  0  0  0  0  0  0  0  0
    8.3610  -15.4635   23.0174 N   0  0  0  0  0  0  0  0  0  0  0  0
    9.1929  -15.4883   24.2486 C   0  0  1  0  0  0  0  0  0  0  0  0
    8.2584  -15.8709   25.3444 C   0  0  0  0  0  0  0  0  0  0  0  0
    7.2687  -14.8187   25.6185 C   0  0  0  0  0  0  0  0  0  0  0  0
    5.8765  -14.9550   25.4964 C   0  0  0  0  0  0  0  0  0  0  0  0
    5.3161  -13.7848   25.7875 N   0  0  0  0  0  0  0  0  0  0  0  0
    6.2391  -12.8709   26.0983 C   0  0  0  0  0  0  0  0  0  0  0  0
    6.1041  -11.5362   26.4817 C   0  0  0  0  0  0  0  0  0  0  0  0
    7.2463  -10.8284   26.7710 C   0  0  0  0  0  0  0  0  0  0  0  0
    8.4780  -11.4540   26.6744 C   0  0  0  0  0  0  0  0  0  0  0  0
    8.6013  -12.7537   26.2996 C   0  0  0  0  0  0  0  0  0  0  0  0
    7.4591  -13.4981   25.9984 C   0  0  0  0  0  0  0  0  0  0  0  0
   10.2404  -16.4874   23.9984 C   0  0  0  0  0  0  0  0  0  0  0  0
   11.0121  -16.7427   24.9877 O   0  0  0  0  0  0  0  0  0  0  0  0
   11.9003  -14.1600   18.2475 N   0  0  0  0  0  0  0  0  0  0  0  0
   13.1611  -14.5865   18.7023 C   0  0  0  0  0  0  0  0  0  0  0  0
   14.1574  -13.7839   18.7835 N   0  0  0  0  0  0  0  0  0  0  0  0
   13.3831  -15.9439   19.0955 N   0  0  0  0  0  0  0  0  0  0  0  0
   12.3377  -16.9140   18.8950 C   0  0  0  0  0  0  0  0  0  0  0  0
   11.6101  -17.3153   20.1057 C   0  0  0  0  0  0  0  0  0  0  0  0
   12.2450  -17.6114   21.3679 C   0  0  0  0  0  0  0  0  0  0  0  0
   11.5865  -18.1010   22.6040 C   0  0  2  0  0  0  0  0  0  0  0  0
   10.4110  -17.1344   22.7748 N   0  0  0  0  0  0  0  0  0  0  0  0
   12.3322  -17.8003   23.8661 C   0  0  0  0  0  0  0  0  0  0  0  0
   12.9727  -18.8307   24.5919 O   0  0  0  0  0  0  0  0  0  0  0  0
   12.4391  -16.6874   24.3450 O   0  0  0  0  0  0  0  0  0  0  0  0
  2  3  1  0
  2  1  1  6
  4  2  1  0
  5  4  2  0
  6  4  1  0
  7  8  1  1
  7  6  1  0
  9  8  1  0
 10  9  2  0
 11 12  1  0
 11 10  1  0
 12 17  2  0
 13 14  2  0
 13 12  1  0
 14 15  1  0
 15 16  2  0
 17  9  1  0
 17 16  1  0
 18  7  1  0
 19 18  2  0
 21 20  1  0
 21 22  2  0
 23 21  1  0
 24 23  1  0
 25 24  1  0
 26 25  1  0
 27 26  1  6
 27 28  1  0
 28 18  1  0
 29 30  1  0
 29 27  1  0
 31 29  2  0
M  END
$$$$
