AWR.pdb
     RDKit          3D

 31 32  0  0  1  0  0  0  0  0999 V2000
    6.8795  -14.3438   20.6806 C   0  0  0  0  0  0  0  0  0  0  0  0
    7.4162  -15.6952   21.0280 C   0  0  2  0  0  0  0  0  0  0  0  0
    6.4396  -16.6303   21.4892 N   0  0  0  0  0  0  0  0  0  0  0  0
    8.4698  -15.5488   22.0483 C   0  0  0  0  0  0  0  0  0  0  0  0
    9.4599  -14.7984   21.7824 O   0  0  0  0  0  0  0  0  0  0  0  0
    8.3947  -16.2146   23.2843 N   0  0  0  0  0  0  0  0  0  0  0  0
    9.4245  -15.9522   24.3233 C   0  0  1  0  0  0  0  0  0  0  0  0
    8.6944  -16.0107   25.6210 C   0  0  0  0  0  0  0  0  0  0  0  0
    7.6287  -15.0010   25.7009 C   0  0  0  0  0  0  0  0  0  0  0  0
    6.2526  -15.2547   25.5843 C   0  0  0  0  0  0  0  0  0  0  0  0
    5.6065  -14.0955   25.6671 N   0  0  0  0  0  0  0  0  0  0  0  0
    6.4570  -13.0791   25.8327 C   0  0  0  0  0  0  0  0  0  0  0  0
    6.2216  -11.7122   25.9847 C   0  0  0  0  0  0  0  0  0  0  0  0
    7.3052  -10.8863   26.1666 C   0  0  0  0  0  0  0  0  0  0  0  0
    8.5786  -11.4297   26.1934 C   0  0  0  0  0  0  0  0  0  0  0  0
    8.7998  -12.7615   26.0439 C   0  0  0  0  0  0  0  0  0  0  0  0
    7.7190  -13.6253   25.8562 C   0  0  0  0  0  0  0  0  0  0  0  0
   10.4246  -17.0168   24.1669 C   0  0  0  0  0  0  0  0  0  0  0  0
    9.9852  -18.2134   24.2865 O   0  0  0  0  0  0  0  0  0  0  0  0
   15.8443  -14.5722   20.9128 N   0  0  0  0  0  0  0  0  0  0  0  0
   14.9216  -14.4205   19.8620 C   0  0  0  0  0  0  0  0  0  0  0  0
   14.9505  -13.4065   19.0782 N   0  0  0  0  0  0  0  0  0  0  0  0
   13.9063  -15.3999   19.6246 N   0  0  0  0  0  0  0  0  0  0  0  0
   14.0793  -16.7321   20.1437 C   0  0  0  0  0  0  0  0  0  0  0  0
   13.1539  -17.1148   21.2176 C   0  0  0  0  0  0  0  0  0  0  0  0
   13.5712  -17.4819   22.5499 C   0  0  0  0  0  0  0  0  0  0  0  0
   12.7054  -17.9630   23.6546 C   0  0  2  0  0  0  0  0  0  0  0  0
   11.7727  -16.7744   23.9048 N   0  0  0  0  0  0  0  0  0  0  0  0
   13.3792  -18.0269   24.9892 C   0  0  0  0  0  0  0  0  0  0  0  0
   13.3069  -16.9397   25.8900 O   0  0  0  0  0  0  0  0  0  0  0  0
   14.0169  -18.9842   25.3847 O   0  0  0  0  0  0  0  0  0  0  0  0
  2  3  1  0
  2  1  1  1
  4  2  1  0
  5  4  2  0
  6  4  1  0
  7  8  1  1
  7  6  1  0
  9  8  1  0
 10  9  2  0
 11 12  1  0
 11 10  1  0
 12 17  2  0
 13 14  2  0
 13 12  1  0
 14 15  1  0
 15 16  2  0
 17  9  1  0
 17 16  1  0
 18  7  1  0
 19 18  2  0
 21 20  1  0
 21 22  2  0
 23 21  1  0
 24 23  1  0
 25 24  1  0
 26 25  1  0
 27 26  1  6
 27 28  1  0
 28 18  1  0
 29 30  1  0
 29 27  1  0
 31 29  2  0
M  END
$$$$
