AWR.pdb
     RDKit          3D

 31 32  0  0  1  0  0  0  0  0999 V2000
    7.0615  -18.0782   20.5892 C   0  0  0  0  0  0  0  0  0  0  0  0
    6.7678  -16.7063   21.1057 C   0  0  2  0  0  0  0  0  0  0  0  0
    6.5649  -15.7144   20.0978 N   0  0  0  0  0  0  0  0  0  0  0  0
    7.8634  -16.2801   21.9947 C   0  0  0  0  0  0  0  0  0  0  0  0
    8.7353  -15.4818   21.5293 O   0  0  0  0  0  0  0  0  0  0  0  0
    7.9539  -16.7361   23.3216 N   0  0  0  0  0  0  0  0  0  0  0  0
    8.9797  -16.1577   24.2282 C   0  0  1  0  0  0  0  0  0  0  0  0
    8.3668  -16.1944   25.5860 C   0  0  0  0  0  0  0  0  0  0  0  0
    7.3783  -15.1224   25.7746 C   0  0  0  0  0  0  0  0  0  0  0  0
    5.9844  -15.2910   25.7954 C   0  0  0  0  0  0  0  0  0  0  0  0
    5.4223  -14.0954   25.9455 N   0  0  0  0  0  0  0  0  0  0  0  0
    6.3458  -13.1341   26.0280 C   0  0  0  0  0  0  0  0  0  0  0  0
    6.2111  -11.7568   26.2065 C   0  0  0  0  0  0  0  0  0  0  0  0
    7.3561  -11.0001   26.2816 C   0  0  0  0  0  0  0  0  0  0  0  0
    8.5901  -11.6201   26.1795 C   0  0  0  0  0  0  0  0  0  0  0  0
    8.7130  -12.9615   26.0051 C   0  0  0  0  0  0  0  0  0  0  0  0
    7.5679  -13.7563   25.9240 C   0  0  0  0  0  0  0  0  0  0  0  0
   10.1587  -17.0240   24.0956 C   0  0  0  0  0  0  0  0  0  0  0  0
    9.9161  -18.2678   23.9125 O   0  0  0  0  0  0  0  0  0  0  0  0
   17.0059  -16.7975   20.3462 N   0  0  0  0  0  0  0  0  0  0  0  0
   17.8526  -17.1260   21.4204 C   0  0  0  0  0  0  0  0  0  0  0  0
   18.9794  -17.7097   21.2388 N   0  0  0  0  0  0  0  0  0  0  0  0
   17.4867  -16.8190   22.7688 N   0  0  0  0  0  0  0  0  0  0  0  0
   16.2148  -16.1949   23.0275 C   0  0  0  0  0  0  0  0  0  0  0  0
   15.1269  -17.1103   23.3944 C   0  0  0  0  0  0  0  0  0  0  0  0
   13.7611  -16.6953   23.6099 C   0  0  0  0  0  0  0  0  0  0  0  0
   12.6233  -17.5532   24.0229 C   0  0  2  0  0  0  0  0  0  0  0  0
   11.4703  -16.5547   24.1603 N   0  0  0  0  0  0  0  0  0  0  0  0
   12.6925  -18.0388   25.4367 C   0  0  0  0  0  0  0  0  0  0  0  0
   13.2708  -19.2916   25.7448 O   0  0  0  0  0  0  0  0  0  0  0  0
   12.2713  -17.4150   26.3922 O   0  0  0  0  0  0  0  0  0  0  0  0
  2  3  1  0
  2  1  1  6
  4  2  1  0
  5  4  2  0
  6  4  1  0
  7  8  1  1
  7  6  1  0
  9  8  1  0
 10  9  2  0
 11 12  1  0
 11 10  1  0
 12 17  2  0
 13 14  2  0
 13 12  1  0
 14 15  1  0
 15 16  2  0
 17  9  1  0
 17 16  1  0
 18  7  1  0
 19 18  2  0
 21 20  1  0
 21 22  2  0
 23 21  1  0
 24 23  1  0
 25 24  1  0
 26 25  1  0
 27 26  1  1
 27 28  1  0
 28 18  1  0
 29 30  1  0
 29 27  1  0
 31 29  2  0
M  END
$$$$
