AWR.pdb
     RDKit          3D

 31 32  0  0  1  0  0  0  0  0999 V2000
    6.7074  -14.6900   20.6253 C   0  0  0  0  0  0  0  0  0  0  0  0
    7.4056  -15.9530   21.0158 C   0  0  2  0  0  0  0  0  0  0  0  0
    6.5413  -17.0306   21.3798 N   0  0  0  0  0  0  0  0  0  0  0  0
    8.3275  -15.6704   22.1306 C   0  0  0  0  0  0  0  0  0  0  0  0
    9.2209  -14.7838   21.9580 O   0  0  0  0  0  0  0  0  0  0  0  0
    8.2328  -16.3548   23.3550 N   0  0  0  0  0  0  0  0  0  0  0  0
    9.2502  -16.1138   24.4113 C   0  0  1  0  0  0  0  0  0  0  0  0
    8.5059  -16.2046   25.6990 C   0  0  0  0  0  0  0  0  0  0  0  0
    7.4965  -15.1435   25.8292 C   0  0  0  0  0  0  0  0  0  0  0  0
    6.1127  -15.3068   25.6556 C   0  0  0  0  0  0  0  0  0  0  0  0
    5.5304  -14.1217   25.8119 N   0  0  0  0  0  0  0  0  0  0  0  0
    6.4308  -13.1724   26.0801 C   0  0  0  0  0  0  0  0  0  0  0  0
    6.2677  -11.8100   26.3329 C   0  0  0  0  0  0  0  0  0  0  0  0
    7.3896  -11.0652   26.6089 C   0  0  0  0  0  0  0  0  0  0  0  0
    8.6291  -11.6825   26.6273 C   0  0  0  0  0  0  0  0  0  0  0  0
    8.7798  -13.0094   26.3794 C   0  0  0  0  0  0  0  0  0  0  0  0
    7.6588  -13.7916   26.0949 C   0  0  0  0  0  0  0  0  0  0  0  0
   10.2552  -17.1718   24.2413 C   0  0  0  0  0  0  0  0  0  0  0  0
    9.8085  -18.3030   23.8413 O   0  0  0  0  0  0  0  0  0  0  0  0
   12.4826  -19.6246   19.4544 N   0  0  0  0  0  0  0  0  0  0  0  0
   13.8354  -19.5381   19.0788 C   0  0  0  0  0  0  0  0  0  0  0  0
   14.4436  -20.5145   18.5131 N   0  0  0  0  0  0  0  0  0  0  0  0
   14.5919  -18.3473   19.3152 N   0  0  0  0  0  0  0  0  0  0  0  0
   14.2026  -17.4682   20.3875 C   0  0  0  0  0  0  0  0  0  0  0  0
   13.6927  -18.1329   21.5935 C   0  0  0  0  0  0  0  0  0  0  0  0
   13.0960  -17.4359   22.7079 C   0  0  0  0  0  0  0  0  0  0  0  0
   12.6105  -18.0332   23.9764 C   0  0  2  0  0  0  0  0  0  0  0  0
   11.6151  -16.9892   24.4907 N   0  0  0  0  0  0  0  0  0  0  0  0
   13.5999  -17.9976   25.0985 C   0  0  0  0  0  0  0  0  0  0  0  0
   14.3245  -19.1557   25.4623 O   0  0  0  0  0  0  0  0  0  0  0  0
   13.8456  -17.0057   25.7583 O   0  0  0  0  0  0  0  0  0  0  0  0
  2  3  1  0
  2  1  1  1
  4  2  1  0
  5  4  2  0
  6  4  1  0
  7  8  1  1
  7  6  1  0
  9  8  1  0
 10  9  2  0
 11 12  1  0
 11 10  1  0
 12 17  2  0
 13 14  2  0
 13 12  1  0
 14 15  1  0
 15 16  2  0
 17  9  1  0
 17 16  1  0
 18  7  1  0
 19 18  2  0
 21 20  1  0
 21 22  2  0
 23 21  1  0
 24 23  1  0
 25 24  1  0
 26 25  1  0
 27 26  1  6
 27 28  1  0
 28 18  1  0
 29 30  1  0
 29 27  1  0
 31 29  2  0
M  END
$$$$
