AWR.pdb
     RDKit          3D

 31 32  0  0  1  0  0  0  0  0999 V2000
    6.8366  -17.7716   19.9637 C   0  0  0  0  0  0  0  0  0  0  0  0
    7.9230  -16.7886   19.6662 C   0  0  2  0  0  0  0  0  0  0  0  0
    8.7999  -17.1642   18.6029 N   0  0  0  0  0  0  0  0  0  0  0  0
    8.7123  -16.5563   20.8892 C   0  0  0  0  0  0  0  0  0  0  0  0
    9.8321  -17.1461   20.9995 O   0  0  0  0  0  0  0  0  0  0  0  0
    8.2515  -15.7093   21.9124 N   0  0  0  0  0  0  0  0  0  0  0  0
    9.1738  -15.3131   23.0084 C   0  0  1  0  0  0  0  0  0  0  0  0
    8.7634  -13.9308   23.3842 C   0  0  0  0  0  0  0  0  0  0  0  0
    7.7222  -13.9270   24.4223 C   0  0  0  0  0  0  0  0  0  0  0  0
    6.8627  -14.9964   24.7210 C   0  0  0  0  0  0  0  0  0  0  0  0
    6.0334  -14.6078   25.6850 N   0  0  0  0  0  0  0  0  0  0  0  0
    6.2789  -13.3482   26.0551 C   0  0  0  0  0  0  0  0  0  0  0  0
    5.6754  -12.5528   27.0296 C   0  0  0  0  0  0  0  0  0  0  0  0
    6.1585  -11.2794   27.2145 C   0  0  0  0  0  0  0  0  0  0  0  0
    7.2148  -10.8325   26.4385 C   0  0  0  0  0  0  0  0  0  0  0  0
    7.7967  -11.6126   25.4911 C   0  0  0  0  0  0  0  0  0  0  0  0
    7.3270  -12.9103   25.2795 C   0  0  0  0  0  0  0  0  0  0  0  0
    8.9621  -16.2969   24.0787 C   0  0  0  0  0  0  0  0  0  0  0  0
    7.8994  -17.0043   23.9805 O   0  0  0  0  0  0  0  0  0  0  0  0
   14.0668  -21.0484   20.8989 N   0  0  0  0  0  0  0  0  0  0  0  0
   14.0411  -21.7343   22.1267 C   0  0  0  0  0  0  0  0  0  0  0  0
   14.5875  -22.8852   22.2695 N   0  0  0  0  0  0  0  0  0  0  0  0
   13.3990  -21.1701   23.2736 N   0  0  0  0  0  0  0  0  0  0  0  0
   12.6059  -19.9778   23.1201 C   0  0  0  0  0  0  0  0  0  0  0  0
   12.0433  -19.4312   24.3614 C   0  0  0  0  0  0  0  0  0  0  0  0
   11.1773  -18.2775   24.4155 C   0  0  0  0  0  0  0  0  0  0  0  0
   10.2709  -17.8944   25.5259 C   0  0  2  0  0  0  0  0  0  0  0  0
    9.8413  -16.4743   25.1465 N   0  0  0  0  0  0  0  0  0  0  0  0
   10.9632  -17.6002   26.8196 C   0  0  0  0  0  0  0  0  0  0  0  0
   10.8560  -18.4858   27.9163 O   0  0  0  0  0  0  0  0  0  0  0  0
   11.6450  -16.6125   27.0176 O   0  0  0  0  0  0  0  0  0  0  0  0
  2  3  1  0
  2  1  1  1
  4  2  1  0
  5  4  2  0
  6  4  1  0
  7  8  1  1
  7  6  1  0
  9  8  1  0
 10  9  2  0
 11 12  1  0
 11 10  1  0
 12 17  2  0
 13 14  2  0
 13 12  1  0
 14 15  1  0
 15 16  2  0
 17  9  1  0
 17 16  1  0
 18  7  1  0
 19 18  2  0
 21 20  1  0
 21 22  2  0
 23 21  1  0
 24 23  1  0
 25 24  1  0
 26 25  1  0
 27 26  1  6
 27 28  1  0
 28 18  1  0
 29 30  1  0
 29 27  1  0
 31 29  2  0
M  END
$$$$
