AWR.pdb
     RDKit          3D

 31 32  0  0  1  0  0  0  0  0999 V2000
    6.9233  -13.8095   20.7660 C   0  0  0  0  0  0  0  0  0  0  0  0
    7.3694  -15.2276   20.9247 C   0  0  2  0  0  0  0  0  0  0  0  0
    6.3196  -16.1649   21.1699 N   0  0  0  0  0  0  0  0  0  0  0  0
    8.3555  -15.3043   22.0174 C   0  0  0  0  0  0  0  0  0  0  0  0
    9.3833  -14.5606   21.9491 O   0  0  0  0  0  0  0  0  0  0  0  0
    8.1771  -16.1710   23.1100 N   0  0  0  0  0  0  0  0  0  0  0  0
    9.1530  -16.1501   24.2306 C   0  0  1  0  0  0  0  0  0  0  0  0
    8.3355  -16.3240   25.4643 C   0  0  0  0  0  0  0  0  0  0  0  0
    7.3722  -15.2284   25.6472 C   0  0  0  0  0  0  0  0  0  0  0  0
    5.9961  -15.2969   25.3762 C   0  0  0  0  0  0  0  0  0  0  0  0
    5.4628  -14.1042   25.6233 N   0  0  0  0  0  0  0  0  0  0  0  0
    6.3889  -13.2385   26.0436 C   0  0  0  0  0  0  0  0  0  0  0  0
    6.2759  -11.9026   26.4300 C   0  0  0  0  0  0  0  0  0  0  0  0
    7.4123  -11.2529   26.8492 C   0  0  0  0  0  0  0  0  0  0  0  0
    8.6169  -11.9356   26.8747 C   0  0  0  0  0  0  0  0  0  0  0  0
    8.7190  -13.2360   26.4961 C   0  0  0  0  0  0  0  0  0  0  0  0
    7.5821  -13.9221   26.0645 C   0  0  0  0  0  0  0  0  0  0  0  0
   10.0719  -17.2677   23.9761 C   0  0  0  0  0  0  0  0  0  0  0  0
    9.5204  -18.3790   23.6598 O   0  0  0  0  0  0  0  0  0  0  0  0
   17.2143  -16.8728   19.3708 N   0  0  0  0  0  0  0  0  0  0  0  0
   16.5486  -18.0924   19.1515 C   0  0  0  0  0  0  0  0  0  0  0  0
   16.9312  -18.9185   18.2491 N   0  0  0  0  0  0  0  0  0  0  0  0
   15.4090  -18.4618   19.9333 N   0  0  0  0  0  0  0  0  0  0  0  0
   14.9548  -17.5778   20.9756 C   0  0  0  0  0  0  0  0  0  0  0  0
   13.7047  -17.9732   21.6367 C   0  0  0  0  0  0  0  0  0  0  0  0
   13.4740  -17.8649   23.0576 C   0  0  0  0  0  0  0  0  0  0  0  0
   12.3182  -18.4026   23.8167 C   0  0  2  0  0  0  0  0  0  0  0  0
   11.4594  -17.1592   24.0647 N   0  0  0  0  0  0  0  0  0  0  0  0
   12.6237  -18.7722   25.2343 C   0  0  0  0  0  0  0  0  0  0  0  0
   13.0290  -20.0845   25.5695 O   0  0  0  0  0  0  0  0  0  0  0  0
   12.5485  -17.9995   26.1706 O   0  0  0  0  0  0  0  0  0  0  0  0
  2  3  1  0
  2  1  1  1
  4  2  1  0
  5  4  2  0
  6  4  1  0
  7  8  1  1
  7  6  1  0
  9  8  1  0
 10  9  2  0
 11 12  1  0
 11 10  1  0
 12 17  2  0
 13 14  2  0
 13 12  1  0
 14 15  1  0
 15 16  2  0
 17  9  1  0
 17 16  1  0
 18  7  1  0
 19 18  2  0
 21 20  1  0
 21 22  2  0
 23 21  1  0
 24 23  1  0
 25 24  1  0
 26 25  1  0
 27 26  1  6
 27 28  1  0
 28 18  1  0
 29 30  1  0
 29 27  1  0
 31 29  2  0
M  END
$$$$
