AWR.pdb
     RDKit          3D

 31 32  0  0  1  0  0  0  0  0999 V2000
    6.4021  -14.6596   20.8764 C   0  0  0  0  0  0  0  0  0  0  0  0
    7.0933  -15.9505   21.1780 C   0  0  2  0  0  0  0  0  0  0  0  0
    6.2549  -16.9678   21.7285 N   0  0  0  0  0  0  0  0  0  0  0  0
    8.2157  -15.6939   22.0982 C   0  0  0  0  0  0  0  0  0  0  0  0
    9.1061  -14.8621   21.7385 O   0  0  0  0  0  0  0  0  0  0  0  0
    8.3113  -16.3438   23.3413 N   0  0  0  0  0  0  0  0  0  0  0  0
    9.4029  -15.9755   24.2802 C   0  0  1  0  0  0  0  0  0  0  0  0
    8.7799  -16.0012   25.6336 C   0  0  0  0  0  0  0  0  0  0  0  0
    7.7316  -14.9804   25.7782 C   0  0  0  0  0  0  0  0  0  0  0  0
    6.3484  -15.2181   25.7348 C   0  0  0  0  0  0  0  0  0  0  0  0
    5.7211  -14.0524   25.8606 N   0  0  0  0  0  0  0  0  0  0  0  0
    6.5908  -13.0468   25.9868 C   0  0  0  0  0  0  0  0  0  0  0  0
    6.3797  -11.6786   26.1608 C   0  0  0  0  0  0  0  0  0  0  0  0
    7.4809  -10.8661   26.2894 C   0  0  0  0  0  0  0  0  0  0  0  0
    8.7476  -11.4237   26.2432 C   0  0  0  0  0  0  0  0  0  0  0  0
    8.9451  -12.7567   26.0727 C   0  0  0  0  0  0  0  0  0  0  0  0
    7.8459  -13.6071   25.9380 C   0  0  0  0  0  0  0  0  0  0  0  0
   10.4438  -16.9958   24.0965 C   0  0  0  0  0  0  0  0  0  0  0  0
   10.0260  -18.2002   23.9777 O   0  0  0  0  0  0  0  0  0  0  0  0
   17.8564  -18.8623   20.9963 N   0  0  0  0  0  0  0  0  0  0  0  0
   17.1690  -18.2516   19.9318 C   0  0  0  0  0  0  0  0  0  0  0  0
   17.7394  -18.0085   18.8098 N   0  0  0  0  0  0  0  0  0  0  0  0
   15.7951  -17.8746   20.0605 N   0  0  0  0  0  0  0  0  0  0  0  0
   14.9917  -18.4852   21.0880 C   0  0  0  0  0  0  0  0  0  0  0  0
   15.0148  -17.8086   22.3911 C   0  0  0  0  0  0  0  0  0  0  0  0
   13.8639  -17.1796   22.9942 C   0  0  0  0  0  0  0  0  0  0  0  0
   12.7992  -17.8419   23.7873 C   0  0  2  0  0  0  0  0  0  0  0  0
   11.8070  -16.7054   24.0502 N   0  0  0  0  0  0  0  0  0  0  0  0
   13.1824  -18.1598   25.1985 C   0  0  0  0  0  0  0  0  0  0  0  0
   13.7602  -19.4071   25.5288 O   0  0  0  0  0  0  0  0  0  0  0  0
   13.0306  -17.3967   26.1335 O   0  0  0  0  0  0  0  0  0  0  0  0
  2  3  1  0
  2  1  1  1
  4  2  1  0
  5  4  2  0
  6  4  1  0
  7  8  1  1
  7  6  1  0
  9  8  1  0
 10  9  2  0
 11 12  1  0
 11 10  1  0
 12 17  2  0
 13 14  2  0
 13 12  1  0
 14 15  1  0
 15 16  2  0
 17  9  1  0
 17 16  1  0
 18  7  1  0
 19 18  2  0
 21 20  1  0
 21 22  2  0
 23 21  1  0
 24 23  1  0
 25 24  1  0
 26 25  1  0
 27 26  1  6
 27 28  1  0
 28 18  1  0
 29 30  1  0
 29 27  1  0
 31 29  2  0
M  END
$$$$
