AWR.pdb
     RDKit          3D

 31 32  0  0  1  0  0  0  0  0999 V2000
    7.6566  -14.9296   18.7494 C   0  0  0  0  0  0  0  0  0  0  0  0
    7.5963  -13.7642   19.6839 C   0  0  2  0  0  0  0  0  0  0  0  0
    8.1158  -12.5424   19.1565 N   0  0  0  0  0  0  0  0  0  0  0  0
    8.3148  -14.1030   20.9255 C   0  0  0  0  0  0  0  0  0  0  0  0
    9.4898  -13.6456   21.0806 O   0  0  0  0  0  0  0  0  0  0  0  0
    7.7291  -14.9083   21.9180 N   0  0  0  0  0  0  0  0  0  0  0  0
    8.5522  -15.3772   23.0631 C   0  0  1  0  0  0  0  0  0  0  0  0
    7.5715  -15.8045   24.1005 C   0  0  0  0  0  0  0  0  0  0  0  0
    7.0615  -14.6668   24.8799 C   0  0  0  0  0  0  0  0  0  0  0  0
    5.7606  -14.1435   24.8059 C   0  0  0  0  0  0  0  0  0  0  0  0
    5.6850  -13.0976   25.6234 N   0  0  0  0  0  0  0  0  0  0  0  0
    6.8486  -12.8835   26.2431 C   0  0  0  0  0  0  0  0  0  0  0  0
    7.2127  -11.9226   27.1870 C   0  0  0  0  0  0  0  0  0  0  0  0
    8.4949  -11.9556   27.6811 C   0  0  0  0  0  0  0  0  0  0  0  0
    9.3725  -12.9285   27.2328 C   0  0  0  0  0  0  0  0  0  0  0  0
    9.0108  -13.8602   26.3131 C   0  0  0  0  0  0  0  0  0  0  0  0
    7.7154  -13.8513   25.7921 C   0  0  0  0  0  0  0  0  0  0  0  0
    9.3668  -16.4817   22.5389 C   0  0  0  0  0  0  0  0  0  0  0  0
    8.9528  -17.0076   21.4474 O   0  0  0  0  0  0  0  0  0  0  0  0
   15.9017  -13.8463   19.2189 N   0  0  0  0  0  0  0  0  0  0  0  0
   15.2610  -14.6774   18.2823 C   0  0  0  0  0  0  0  0  0  0  0  0
   15.4612  -14.5553   17.0219 N   0  0  0  0  0  0  0  0  0  0  0  0
   14.3534  -15.7001   18.7026 N   0  0  0  0  0  0  0  0  0  0  0  0
   14.0603  -15.8471   20.1050 C   0  0  0  0  0  0  0  0  0  0  0  0
   13.1295  -16.9311   20.4438 C   0  0  0  0  0  0  0  0  0  0  0  0
   12.0065  -16.7804   21.3382 C   0  0  0  0  0  0  0  0  0  0  0  0
   11.5319  -17.7602   22.3463 C   0  0  2  0  0  0  0  0  0  0  0  0
   10.5212  -16.9514   23.1645 N   0  0  0  0  0  0  0  0  0  0  0  0
   12.5221  -18.0714   23.4243 C   0  0  0  0  0  0  0  0  0  0  0  0
   12.3202  -17.6151   24.7470 O   0  0  0  0  0  0  0  0  0  0  0  0
   13.5384  -18.7165   23.2496 O   0  0  0  0  0  0  0  0  0  0  0  0
  2  3  1  0
  2  1  1  6
  4  2  1  0
  5  4  2  0
  6  4  1  0
  7  8  1  1
  7  6  1  0
  9  8  1  0
 10  9  2  0
 11 12  1  0
 11 10  1  0
 12 17  2  0
 13 14  2  0
 13 12  1  0
 14 15  1  0
 15 16  2  0
 17  9  1  0
 17 16  1  0
 18  7  1  0
 19 18  2  0
 21 20  1  0
 21 22  2  0
 23 21  1  0
 24 23  1  0
 25 24  1  0
 26 25  1  0
 27 26  1  6
 27 28  1  0
 28 18  1  0
 29 30  1  0
 29 27  1  0
 31 29  2  0
M  END
$$$$
