AWR.pdb
     RDKit          3D

 31 32  0  0  1  0  0  0  0  0999 V2000
    6.6820  -21.3701   23.1763 C   0  0  0  0  0  0  0  0  0  0  0  0
    5.7655  -20.3233   23.7232 C   0  0  2  0  0  0  0  0  0  0  0  0
    4.4727  -20.2789   23.1170 N   0  0  0  0  0  0  0  0  0  0  0  0
    6.4089  -19.0034   23.5951 C   0  0  0  0  0  0  0  0  0  0  0  0
    6.1751  -18.3230   22.5480 O   0  0  0  0  0  0  0  0  0  0  0  0
    7.2593  -18.4993   24.5948 N   0  0  0  0  0  0  0  0  0  0  0  0
    7.8120  -17.1259   24.4644 C   0  0  1  0  0  0  0  0  0  0  0  0
    7.9187  -16.6133   25.8596 C   0  0  0  0  0  0  0  0  0  0  0  0
    7.0743  -15.4298   26.0789 C   0  0  0  0  0  0  0  0  0  0  0  0
    5.6734  -15.4321   26.1741 C   0  0  0  0  0  0  0  0  0  0  0  0
    5.2642  -14.1767   26.3308 N   0  0  0  0  0  0  0  0  0  0  0  0
    6.2973  -13.3304   26.3484 C   0  0  0  0  0  0  0  0  0  0  0  0
    6.3349  -11.9448   26.5082 C   0  0  0  0  0  0  0  0  0  0  0  0
    7.5632  -11.3278   26.5108 C   0  0  0  0  0  0  0  0  0  0  0  0
    8.7087  -12.0906   26.3571 C   0  0  0  0  0  0  0  0  0  0  0  0
    8.6639  -13.4391   26.2011 C   0  0  0  0  0  0  0  0  0  0  0  0
    7.4307  -14.0939   26.1933 C   0  0  0  0  0  0  0  0  0  0  0  0
    9.1121  -17.2840   23.7990 C   0  0  0  0  0  0  0  0  0  0  0  0
    9.7248  -18.3840   24.0315 O   0  0  0  0  0  0  0  0  0  0  0  0
    8.7851  -13.4075   16.8565 N   0  0  0  0  0  0  0  0  0  0  0  0
    8.5059  -13.2988   18.2309 C   0  0  0  0  0  0  0  0  0  0  0  0
    7.8387  -12.3141   18.7092 N   0  0  0  0  0  0  0  0  0  0  0  0
    8.9591  -14.2908   19.1565 N   0  0  0  0  0  0  0  0  0  0  0  0
    9.7038  -15.4219   18.6663 C   0  0  0  0  0  0  0  0  0  0  0  0
   10.2359  -16.3209   19.6982 C   0  0  0  0  0  0  0  0  0  0  0  0
   10.8093  -15.8699   20.9438 C   0  0  0  0  0  0  0  0  0  0  0  0
   10.9533  -16.6545   22.1948 C   0  0  2  0  0  0  0  0  0  0  0  0
    9.6715  -16.3186   22.9624 N   0  0  0  0  0  0  0  0  0  0  0  0
   11.9614  -16.1098   23.1572 C   0  0  0  0  0  0  0  0  0  0  0  0
   13.3396  -16.3780   22.9916 O   0  0  0  0  0  0  0  0  0  0  0  0
   11.6810  -15.4210   24.1197 O   0  0  0  0  0  0  0  0  0  0  0  0
  2  3  1  0
  2  1  1  6
  4  2  1  0
  5  4  2  0
  6  4  1  0
  7  8  1  1
  7  6  1  0
  9  8  1  0
 10  9  2  0
 11 12  1  0
 11 10  1  0
 12 17  2  0
 13 14  2  0
 13 12  1  0
 14 15  1  0
 15 16  2  0
 17  9  1  0
 17 16  1  0
 18  7  1  0
 19 18  2  0
 21 20  1  0
 21 22  2  0
 23 21  1  0
 24 23  1  0
 25 24  1  0
 26 25  1  0
 27 26  1  6
 27 28  1  0
 28 18  1  0
 29 30  1  0
 29 27  1  0
 31 29  2  0
M  END
$$$$
