AWR.pdb
     RDKit          3D

 31 32  0  0  1  0  0  0  0  0999 V2000
    6.8108  -14.3909   20.7301 C   0  0  0  0  0  0  0  0  0  0  0  0
    7.9453  -15.3500   20.8979 C   0  0  2  0  0  0  0  0  0  0  0  0
    7.5748  -16.7295   20.8799 N   0  0  0  0  0  0  0  0  0  0  0  0
    8.6480  -15.0510   22.1586 C   0  0  0  0  0  0  0  0  0  0  0  0
    9.1978  -13.9123   22.2815 O   0  0  0  0  0  0  0  0  0  0  0  0
    8.7161  -15.9893   23.2033 N   0  0  0  0  0  0  0  0  0  0  0  0
    9.4968  -15.6702   24.4270 C   0  0  1  0  0  0  0  0  0  0  0  0
    8.6330  -16.0960   25.5641 C   0  0  0  0  0  0  0  0  0  0  0  0
    7.4567  -15.2276   25.7191 C   0  0  0  0  0  0  0  0  0  0  0  0
    6.1279  -15.5975   25.4558 C   0  0  0  0  0  0  0  0  0  0  0  0
    5.3507  -14.5402   25.6705 N   0  0  0  0  0  0  0  0  0  0  0  0
    6.0686  -13.4841   26.0616 C   0  0  0  0  0  0  0  0  0  0  0  0
    5.6709  -12.1928   26.4095 C   0  0  0  0  0  0  0  0  0  0  0  0
    6.6406  -11.3025   26.8049 C   0  0  0  0  0  0  0  0  0  0  0  0
    7.9635  -11.7100   26.8452 C   0  0  0  0  0  0  0  0  0  0  0  0
    8.3430  -12.9688   26.5041 C   0  0  0  0  0  0  0  0  0  0  0  0
    7.3807  -13.8951   26.0973 C   0  0  0  0  0  0  0  0  0  0  0  0
   10.7405  -16.4443   24.3160 C   0  0  0  0  0  0  0  0  0  0  0  0
   11.4078  -16.5813   25.4001 O   0  0  0  0  0  0  0  0  0  0  0  0
   11.9185  -20.9147   25.3654 N   0  0  0  0  0  0  0  0  0  0  0  0
   10.7368  -21.6174   25.0681 C   0  0  0  0  0  0  0  0  0  0  0  0
    9.8853  -21.9228   25.9764 N   0  0  0  0  0  0  0  0  0  0  0  0
   10.4362  -22.0221   23.7294 N   0  0  0  0  0  0  0  0  0  0  0  0
   11.1596  -21.4267   22.6356 C   0  0  0  0  0  0  0  0  0  0  0  0
   10.9552  -19.9837   22.4564 C   0  0  0  0  0  0  0  0  0  0  0  0
   12.0251  -19.0364   22.2516 C   0  0  0  0  0  0  0  0  0  0  0  0
   12.4178  -17.9262   23.1541 C   0  0  2  0  0  0  0  0  0  0  0  0
   11.1936  -17.0066   23.1231 N   0  0  0  0  0  0  0  0  0  0  0  0
   13.4370  -16.9916   22.5823 C   0  0  0  0  0  0  0  0  0  0  0  0
   14.8188  -17.2653   22.7023 O   0  0  0  0  0  0  0  0  0  0  0  0
   13.1631  -15.9633   21.9932 O   0  0  0  0  0  0  0  0  0  0  0  0
  2  3  1  0
  2  1  1  1
  4  2  1  0
  5  4  2  0
  6  4  1  0
  7  8  1  1
  7  6  1  0
  9  8  1  0
 10  9  2  0
 11 12  1  0
 11 10  1  0
 12 17  2  0
 13 14  2  0
 13 12  1  0
 14 15  1  0
 15 16  2  0
 17  9  1  0
 17 16  1  0
 18  7  1  0
 19 18  2  0
 21 20  1  0
 21 22  2  0
 23 21  1  0
 24 23  1  0
 25 24  1  0
 26 25  1  0
 27 26  1  6
 27 28  1  0
 28 18  1  0
 29 30  1  0
 29 27  1  0
 31 29  2  0
M  END
$$$$
