WFM.pdb
     RDKit          3D

 34 36  0  0  1  0  0  0  0  0999 V2000
   18.2657  -11.0535  -15.2024 N   0  0  0  0  0  0  0  0  0  0  0  0
   17.7110   -9.6949  -15.1343 C   0  0  1  0  0  0  0  0  0  0  0  0
   16.2468   -9.8292  -15.4303 C   0  0  0  0  0  0  0  0  0  0  0  0
   15.8903   -9.6232  -16.8434 C   0  0  0  0  0  0  0  0  0  0  0  0
   16.3729  -10.3988  -17.9031 C   0  0  0  0  0  0  0  0  0  0  0  0
   15.8410   -9.9841  -19.0360 N   0  0  0  0  0  0  0  0  0  0  0  0
   15.0187   -8.9581  -18.7771 C   0  0  0  0  0  0  0  0  0  0  0  0
   14.2364   -8.1801  -19.6287 C   0  0  0  0  0  0  0  0  0  0  0  0
   13.4795   -7.1650  -19.0954 C   0  0  0  0  0  0  0  0  0  0  0  0
   13.4994   -6.9265  -17.7408 C   0  0  0  0  0  0  0  0  0  0  0  0
   14.2777   -7.7031  -16.9049 C   0  0  0  0  0  0  0  0  0  0  0  0
   15.0409   -8.7243  -17.4209 C   0  0  0  0  0  0  0  0  0  0  0  0
   18.0054   -9.1373  -13.8107 C   0  0  0  0  0  0  0  0  0  0  0  0
   17.7027   -9.7991  -12.7865 O   0  0  0  0  0  0  0  0  0  0  0  0
   18.6392   -7.8510  -13.6386 N   0  0  0  0  0  0  0  0  0  0  0  0
   18.7671   -7.3395  -12.3062 C   0  0  1  0  0  0  0  0  0  0  0  0
   20.1643   -6.7928  -12.0533 C   0  0  0  0  0  0  0  0  0  0  0  0
   21.2331   -7.7714  -12.2131 C   0  0  0  0  0  0  0  0  0  0  0  0
   21.5956   -8.5661  -11.1518 C   0  0  0  0  0  0  0  0  0  0  0  0
   22.6276   -9.4864  -11.3496 C   0  0  0  0  0  0  0  0  0  0  0  0
   23.2699   -9.6038  -12.5659 C   0  0  0  0  0  0  0  0  0  0  0  0
   22.9067   -8.8133  -13.6156 C   0  0  0  0  0  0  0  0  0  0  0  0
   21.8851   -7.9064  -13.4089 C   0  0  0  0  0  0  0  0  0  0  0  0
   17.7745   -6.3245  -11.9176 C   0  0  0  0  0  0  0  0  0  0  0  0
   17.3077   -5.4777  -12.6986 O   0  0  0  0  0  0  0  0  0  0  0  0
   12.7316   -7.2742   -7.3021 C   0  0  0  0  0  0  0  0  0  0  0  0
   13.6789   -5.7822   -6.9215 S   0  0  0  0  0  0  0  0  0  0  0  0
   14.5333   -5.1212   -8.3401 C   0  0  0  0  0  0  0  0  0  0  0  0
   15.6214   -5.9504   -8.8868 C   0  0  0  0  0  0  0  0  0  0  0  0
   16.2826   -5.4066  -10.1299 C   0  0  2  0  0  0  0  0  0  0  0  0
   17.3232   -6.3216  -10.5612 N   0  0  0  0  0  0  0  0  0  0  0  0
   16.8464   -4.0799   -9.9650 C   0  0  0  0  0  0  0  0  0  0  0  0
   16.0564   -2.9126   -9.9893 O   0  0  0  0  0  0  0  0  0  0  0  0
   18.0692   -3.8995   -9.7917 O   0  0  0  0  0  0  0  0  0  0  0  0
  2  1  1  1
  2  3  1  0
  3  4  1  0
  4 12  1  0
  4  5  2  0
  5  6  1  0
  7  8  2  0
  7  6  1  0
  9  8  1  0
 10  9  2  0
 11 10  1  0
 11 12  2  0
 12  7  1  0
 13 14  2  0
 13  2  1  0
 15 13  1  0
 16 15  1  0
 16 17  1  6
 18 17  1  0
 18 23  1  0
 19 18  2  0
 20 19  1  0
 20 21  2  0
 21 22  1  0
 22 23  2  0
 24 16  1  0
 25 24  2  0
 27 26  1  0
 27 28  1  0
 29 28  1  0
 30 29  1  1
 30 31  1  0
 31 24  1  0
 32 30  1  0
 32 33  1  0
 34 32  2  0
M  END
$$$$
