WFM.pdb
     RDKit          3D

 34 36  0  0  1  0  0  0  0  0999 V2000
   25.7716  -22.5234  -18.1206 N   0  0  0  0  0  0  0  0  0  0  0  0
   25.4048  -21.3788  -17.2759 C   0  0  1  0  0  0  0  0  0  0  0  0
   24.0930  -20.8778  -17.8026 C   0  0  0  0  0  0  0  0  0  0  0  0
   24.1431  -20.3810  -19.1873 C   0  0  0  0  0  0  0  0  0  0  0  0
   23.5139  -20.9988  -20.2735 C   0  0  0  0  0  0  0  0  0  0  0  0
   23.7197  -20.2921  -21.3674 N   0  0  0  0  0  0  0  0  0  0  0  0
   24.4643  -19.2222  -21.0567 C   0  0  0  0  0  0  0  0  0  0  0  0
   24.9514  -18.1883  -21.8545 C   0  0  0  0  0  0  0  0  0  0  0  0
   25.7129  -17.2024  -21.2749 C   0  0  0  0  0  0  0  0  0  0  0  0
   25.9861  -17.2427  -19.9273 C   0  0  0  0  0  0  0  0  0  0  0  0
   25.4988  -18.2712  -19.1449 C   0  0  0  0  0  0  0  0  0  0  0  0
   24.7338  -19.2661  -19.7076 C   0  0  0  0  0  0  0  0  0  0  0  0
   25.3581  -21.8259  -15.8804 C   0  0  0  0  0  0  0  0  0  0  0  0
   24.6205  -22.7955  -15.5726 O   0  0  0  0  0  0  0  0  0  0  0  0
   26.1366  -21.1941  -14.8409 N   0  0  0  0  0  0  0  0  0  0  0  0
   25.5972  -21.1809  -13.5134 C   0  0  1  0  0  0  0  0  0  0  0  0
   26.5769  -20.5702  -12.5223 C   0  0  0  0  0  0  0  0  0  0  0  0
   26.0892  -20.5126  -11.1496 C   0  0  0  0  0  0  0  0  0  0  0  0
   25.4741  -19.3722  -10.6907 C   0  0  0  0  0  0  0  0  0  0  0  0
   25.0268  -19.3607   -9.3675 C   0  0  0  0  0  0  0  0  0  0  0  0
   25.1909  -20.4519   -8.5381 C   0  0  0  0  0  0  0  0  0  0  0  0
   25.8015  -21.5807   -8.9979 C   0  0  0  0  0  0  0  0  0  0  0  0
   26.2403  -21.5813  -10.3080 C   0  0  0  0  0  0  0  0  0  0  0  0
   24.2890  -20.5227  -13.3660 C   0  0  0  0  0  0  0  0  0  0  0  0
   23.9738  -19.4702  -13.9474 O   0  0  0  0  0  0  0  0  0  0  0  0
   17.1353  -20.1003  -14.8897 C   0  0  0  0  0  0  0  0  0  0  0  0
   18.7279  -20.9556  -14.8750 S   0  0  0  0  0  0  0  0  0  0  0  0
   19.7640  -20.4709  -13.5072 C   0  0  0  0  0  0  0  0  0  0  0  0
   21.1564  -20.9509  -13.5458 C   0  0  0  0  0  0  0  0  0  0  0  0
   22.0007  -20.5728  -12.3532 C   0  0  2  0  0  0  0  0  0  0  0  0
   23.3286  -21.1385  -12.5047 N   0  0  0  0  0  0  0  0  0  0  0  0
   21.4426  -20.9894  -11.0804 C   0  0  0  0  0  0  0  0  0  0  0  0
   21.9197  -22.1131  -10.3753 O   0  0  0  0  0  0  0  0  0  0  0  0
   20.5039  -20.3713  -10.5376 O   0  0  0  0  0  0  0  0  0  0  0  0
  2  1  1  6
  2  3  1  0
  3  4  1  0
  4 12  1  0
  4  5  2  0
  5  6  1  0
  7  8  2  0
  7  6  1  0
  9  8  1  0
 10  9  2  0
 11 10  1  0
 11 12  2  0
 12  7  1  0
 13 14  2  0
 13  2  1  0
 15 13  1  0
 16 15  1  0
 16 17  1  1
 18 17  1  0
 18 23  1  0
 19 18  2  0
 20 19  1  0
 20 21  2  0
 21 22  1  0
 22 23  2  0
 24 16  1  0
 25 24  2  0
 27 26  1  0
 27 28  1  0
 29 28  1  0
 30 29  1  6
 30 31  1  0
 31 24  1  0
 32 30  1  0
 32 33  1  0
 34 32  2  0
M  END
$$$$
