WFM.pdb
     RDKit          3D

 34 36  0  0  1  0  0  0  0  0999 V2000
   26.0398  -20.0838  -14.4342 N   0  0  0  0  0  0  0  0  0  0  0  0
   27.1911  -20.9716  -14.6453 C   0  0  1  0  0  0  0  0  0  0  0  0
   28.2435  -20.1353  -15.3106 C   0  0  0  0  0  0  0  0  0  0  0  0
   27.8382  -19.5642  -16.6053 C   0  0  0  0  0  0  0  0  0  0  0  0
   27.9321  -18.2082  -16.9369 C   0  0  0  0  0  0  0  0  0  0  0  0
   27.5225  -18.0242  -18.1765 N   0  0  0  0  0  0  0  0  0  0  0  0
   27.1564  -19.2064  -18.6905 C   0  0  0  0  0  0  0  0  0  0  0  0
   26.6522  -19.5367  -19.9472 C   0  0  0  0  0  0  0  0  0  0  0  0
   26.3428  -20.8479  -20.2166 C   0  0  0  0  0  0  0  0  0  0  0  0
   26.5303  -21.8138  -19.2553 C   0  0  0  0  0  0  0  0  0  0  0  0
   27.0307  -21.4767  -18.0129 C   0  0  0  0  0  0  0  0  0  0  0  0
   27.3471  -20.1694  -17.7258 C   0  0  0  0  0  0  0  0  0  0  0  0
   27.5967  -21.5245  -13.3495 C   0  0  0  0  0  0  0  0  0  0  0  0
   28.7594  -21.3046  -12.9270 O   0  0  0  0  0  0  0  0  0  0  0  0
   26.7033  -22.3123  -12.5327 N   0  0  0  0  0  0  0  0  0  0  0  0
   26.1960  -21.7198  -11.3307 C   0  0  1  0  0  0  0  0  0  0  0  0
   27.1043  -20.6040  -10.8356 C   0  0  0  0  0  0  0  0  0  0  0  0
   27.2607  -20.5514   -9.3871 C   0  0  0  0  0  0  0  0  0  0  0  0
   26.3449  -19.8651   -8.6258 C   0  0  0  0  0  0  0  0  0  0  0  0
   26.5372  -19.8379   -7.2426 C   0  0  0  0  0  0  0  0  0  0  0  0
   27.6075  -20.4752   -6.6476 C   0  0  0  0  0  0  0  0  0  0  0  0
   28.5132  -21.1547   -7.4069 C   0  0  0  0  0  0  0  0  0  0  0  0
   28.3135  -21.1750   -8.7739 C   0  0  0  0  0  0  0  0  0  0  0  0
   24.8136  -21.2196  -11.4037 C   0  0  0  0  0  0  0  0  0  0  0  0
   24.2603  -20.5780  -10.4941 O   0  0  0  0  0  0  0  0  0  0  0  0
   18.9118  -22.8936   -9.1416 C   0  0  0  0  0  0  0  0  0  0  0  0
   19.7152  -22.9030  -10.7611 S   0  0  0  0  0  0  0  0  0  0  0  0
   20.6223  -21.4045  -11.0951 C   0  0  0  0  0  0  0  0  0  0  0  0
   22.0831  -21.5455  -11.2247 C   0  0  0  0  0  0  0  0  0  0  0  0
   22.6281  -21.3417  -12.6174 C   0  0  2  0  0  0  0  0  0  0  0  0
   24.0718  -21.4885  -12.5956 N   0  0  0  0  0  0  0  0  0  0  0  0
   22.2836  -20.0598  -13.2032 C   0  0  0  0  0  0  0  0  0  0  0  0
   21.2204  -19.9052  -14.1159 O   0  0  0  0  0  0  0  0  0  0  0  0
   22.9140  -19.0182  -12.9289 O   0  0  0  0  0  0  0  0  0  0  0  0
  2  1  1  1
  2  3  1  0
  3  4  1  0
  4 12  1  0
  4  5  2  0
  5  6  1  0
  7  8  2  0
  7  6  1  0
  9  8  1  0
 10  9  2  0
 11 10  1  0
 11 12  2  0
 12  7  1  0
 13 14  2  0
 13  2  1  0
 15 13  1  0
 16 15  1  0
 16 17  1  6
 18 17  1  0
 18 23  1  0
 19 18  2  0
 20 19  1  0
 20 21  2  0
 21 22  1  0
 22 23  2  0
 24 16  1  0
 25 24  2  0
 27 26  1  0
 27 28  1  0
 29 28  1  0
 30 29  1  1
 30 31  1  0
 31 24  1  0
 32 30  1  0
 32 33  1  0
 34 32  2  0
M  END
$$$$
