WFM.pdb
     RDKit          3D

 34 36  0  0  1  0  0  0  0  0999 V2000
   26.4555  -19.3900  -18.0782 N   0  0  0  0  0  0  0  0  0  0  0  0
   26.6502  -19.1388  -16.6438 C   0  0  1  0  0  0  0  0  0  0  0  0
   26.3906  -17.6759  -16.4398 C   0  0  0  0  0  0  0  0  0  0  0  0
   27.3531  -16.7876  -17.1114 C   0  0  0  0  0  0  0  0  0  0  0  0
   27.0023  -15.6450  -17.8386 C   0  0  0  0  0  0  0  0  0  0  0  0
   28.0911  -15.0502  -18.2848 N   0  0  0  0  0  0  0  0  0  0  0  0
   29.1610  -15.7510  -17.8847 C   0  0  0  0  0  0  0  0  0  0  0  0
   30.5215  -15.5413  -18.1035 C   0  0  0  0  0  0  0  0  0  0  0  0
   31.4251  -16.4341  -17.5800 C   0  0  0  0  0  0  0  0  0  0  0  0
   30.9858  -17.5158  -16.8527 C   0  0  0  0  0  0  0  0  0  0  0  0
   29.6356  -17.7151  -16.6411 C   0  0  0  0  0  0  0  0  0  0  0  0
   28.7166  -16.8311  -17.1565 C   0  0  0  0  0  0  0  0  0  0  0  0
   25.7498  -20.0173  -15.8907 C   0  0  0  0  0  0  0  0  0  0  0  0
   24.6788  -20.3994  -16.4251 O   0  0  0  0  0  0  0  0  0  0  0  0
   26.0517  -20.4673  -14.5520 N   0  0  0  0  0  0  0  0  0  0  0  0
   25.1053  -21.3262  -13.9039 C   0  0  1  0  0  0  0  0  0  0  0  0
   25.7162  -22.0085  -12.6889 C   0  0  0  0  0  0  0  0  0  0  0  0
   25.7151  -21.1975  -11.4774 C   0  0  0  0  0  0  0  0  0  0  0  0
   24.8412  -21.4932  -10.4585 C   0  0  0  0  0  0  0  0  0  0  0  0
   24.8725  -20.6864   -9.3187 C   0  0  0  0  0  0  0  0  0  0  0  0
   25.7473  -19.6245   -9.2069 C   0  0  0  0  0  0  0  0  0  0  0  0
   26.6122  -19.3352  -10.2202 C   0  0  0  0  0  0  0  0  0  0  0  0
   26.5727  -20.1393  -11.3431 C   0  0  0  0  0  0  0  0  0  0  0  0
   23.8358  -20.6921  -13.5133 C   0  0  0  0  0  0  0  0  0  0  0  0
   23.7606  -19.6475  -12.8437 O   0  0  0  0  0  0  0  0  0  0  0  0
   18.3698  -25.1443  -14.0828 C   0  0  0  0  0  0  0  0  0  0  0  0
   18.5996  -23.3742  -13.7956 S   0  0  0  0  0  0  0  0  0  0  0  0
   20.0992  -22.7414  -14.5238 C   0  0  0  0  0  0  0  0  0  0  0  0
   20.2707  -21.2785  -14.4885 C   0  0  0  0  0  0  0  0  0  0  0  0
   21.3345  -20.7781  -13.5420 C   0  0  2  0  0  0  0  0  0  0  0  0
   22.6225  -21.3186  -13.9361 N   0  0  0  0  0  0  0  0  0  0  0  0
   21.0832  -21.1000  -12.1497 C   0  0  0  0  0  0  0  0  0  0  0  0
   20.0860  -20.4542  -11.3909 O   0  0  0  0  0  0  0  0  0  0  0  0
   21.7408  -21.9715  -11.5450 O   0  0  0  0  0  0  0  0  0  0  0  0
  2  1  1  6
  2  3  1  0
  3  4  1  0
  4 12  1  0
  4  5  2  0
  5  6  1  0
  7  8  2  0
  7  6  1  0
  9  8  1  0
 10  9  2  0
 11 10  1  0
 11 12  2  0
 12  7  1  0
 13 14  2  0
 13  2  1  0
 15 13  1  0
 16 15  1  0
 16 17  1  1
 18 17  1  0
 18 23  1  0
 19 18  2  0
 20 19  1  0
 20 21  2  0
 21 22  1  0
 22 23  2  0
 24 16  1  0
 25 24  2  0
 27 26  1  0
 27 28  1  0
 29 28  1  0
 30 29  1  6
 30 31  1  0
 31 24  1  0
 32 30  1  0
 32 33  1  0
 34 32  2  0
M  END
$$$$
