WFM.pdb
     RDKit          3D

 34 36  0  0  1  0  0  0  0  0999 V2000
   26.6055  -18.4952   -9.5632 N   0  0  0  0  0  0  0  0  0  0  0  0
   26.7612  -19.9555   -9.5259 C   0  0  1  0  0  0  0  0  0  0  0  0
   26.2855  -20.3891   -8.1713 C   0  0  0  0  0  0  0  0  0  0  0  0
   26.9736  -19.7348   -7.0466 C   0  0  0  0  0  0  0  0  0  0  0  0
   26.6922  -18.4427   -6.5897 C   0  0  0  0  0  0  0  0  0  0  0  0
   27.4541  -18.1626   -5.5507 N   0  0  0  0  0  0  0  0  0  0  0  0
   28.2376  -19.2186   -5.2925 C   0  0  0  0  0  0  0  0  0  0  0  0
   29.2097  -19.4141   -4.3130 C   0  0  0  0  0  0  0  0  0  0  0  0
   29.8862  -20.6093   -4.2757 C   0  0  0  0  0  0  0  0  0  0  0  0
   29.6028  -21.5927   -5.1948 C   0  0  0  0  0  0  0  0  0  0  0  0
   28.6376  -21.3898   -6.1617 C   0  0  0  0  0  0  0  0  0  0  0  0
   27.9495  -20.2000   -6.2135 C   0  0  0  0  0  0  0  0  0  0  0  0
   26.0029  -20.5334  -10.6398 C   0  0  0  0  0  0  0  0  0  0  0  0
   24.7612  -20.3494  -10.6957 O   0  0  0  0  0  0  0  0  0  0  0  0
   26.6336  -21.3058  -11.6845 N   0  0  0  0  0  0  0  0  0  0  0  0
   25.9974  -21.3432  -12.9679 C   0  0  1  0  0  0  0  0  0  0  0  0
   26.9496  -21.8414  -14.0451 C   0  0  0  0  0  0  0  0  0  0  0  0
   26.3852  -21.8560  -15.3892 C   0  0  0  0  0  0  0  0  0  0  0  0
   26.2773  -20.6829  -16.0974 C   0  0  0  0  0  0  0  0  0  0  0  0
   25.7265  -20.7441  -17.3795 C   0  0  0  0  0  0  0  0  0  0  0  0
   25.3009  -21.9369  -17.9286 C   0  0  0  0  0  0  0  0  0  0  0  0
   25.4101  -23.0979  -17.2223 C   0  0  0  0  0  0  0  0  0  0  0  0
   25.9561  -23.0260  -15.9552 C   0  0  0  0  0  0  0  0  0  0  0  0
   24.7469  -22.1166  -13.0344 C   0  0  0  0  0  0  0  0  0  0  0  0
   24.6410  -23.2959  -12.6561 O   0  0  0  0  0  0  0  0  0  0  0  0
   20.8050  -21.5440   -8.8279 C   0  0  0  0  0  0  0  0  0  0  0  0
   19.9539  -22.0410  -10.3435 S   0  0  0  0  0  0  0  0  0  0  0  0
   21.0683  -22.6303  -11.6045 C   0  0  0  0  0  0  0  0  0  0  0  0
   21.3395  -21.7021  -12.7162 C   0  0  0  0  0  0  0  0  0  0  0  0
   22.3441  -22.1901  -13.7313 C   0  0  2  0  0  0  0  0  0  0  0  0
   23.5898  -21.4647  -13.5631 N   0  0  0  0  0  0  0  0  0  0  0  0
   21.8985  -22.0686  -15.1068 C   0  0  0  0  0  0  0  0  0  0  0  0
   20.9081  -22.9061  -15.6591 O   0  0  0  0  0  0  0  0  0  0  0  0
   22.3712  -21.2105  -15.8801 O   0  0  0  0  0  0  0  0  0  0  0  0
  2  1  1  1
  2  3  1  0
  3  4  1  0
  4 12  1  0
  4  5  2  0
  5  6  1  0
  7  8  2  0
  7  6  1  0
  9  8  1  0
 10  9  2  0
 11 10  1  0
 11 12  2  0
 12  7  1  0
 13 14  2  0
 13  2  1  0
 15 13  1  0
 16 15  1  0
 16 17  1  6
 18 17  1  0
 18 23  1  0
 19 18  2  0
 20 19  1  0
 20 21  2  0
 21 22  1  0
 22 23  2  0
 24 16  1  0
 25 24  2  0
 27 26  1  0
 27 28  1  0
 29 28  1  0
 30 29  1  1
 30 31  1  0
 31 24  1  0
 32 30  1  0
 32 33  1  0
 34 32  2  0
M  END
$$$$
