WFM.pdb
     RDKit          3D

 34 36  0  0  1  0  0  0  0  0999 V2000
   24.6112  -36.1413    2.1132 N   0  0  0  0  0  0  0  0  0  0  0  0
   25.4067  -34.9257    1.8942 C   0  0  1  0  0  0  0  0  0  0  0  0
   26.0505  -34.6084    3.2111 C   0  0  0  0  0  0  0  0  0  0  0  0
   25.2175  -33.8005    4.1166 C   0  0  0  0  0  0  0  0  0  0  0  0
   24.2679  -34.3262    4.9994 C   0  0  0  0  0  0  0  0  0  0  0  0
   23.7169  -33.3496    5.6930 N   0  0  0  0  0  0  0  0  0  0  0  0
   24.2608  -32.1867    5.3088 C   0  0  0  0  0  0  0  0  0  0  0  0
   24.0137  -30.8816    5.7312 C   0  0  0  0  0  0  0  0  0  0  0  0
   24.7166  -29.8512    5.1551 C   0  0  0  0  0  0  0  0  0  0  0  0
   25.6478  -30.1120    4.1769 C   0  0  0  0  0  0  0  0  0  0  0  0
   25.8859  -31.4087    3.7651 C   0  0  0  0  0  0  0  0  0  0  0  0
   25.1925  -32.4528    4.3313 C   0  0  0  0  0  0  0  0  0  0  0  0
   26.3586  -35.1812    0.8088 C   0  0  0  0  0  0  0  0  0  0  0  0
   26.9007  -36.3114    0.7233 O   0  0  0  0  0  0  0  0  0  0  0  0
   26.6943  -34.1788   -0.1753 N   0  0  0  0  0  0  0  0  0  0  0  0
   27.5984  -34.5458   -1.2247 C   0  0  1  0  0  0  0  0  0  0  0  0
   27.4893  -33.5963   -2.4086 C   0  0  0  0  0  0  0  0  0  0  0  0
   28.3018  -33.9713   -3.5595 C   0  0  0  0  0  0  0  0  0  0  0  0
   27.6959  -34.2518   -4.7610 C   0  0  0  0  0  0  0  0  0  0  0  0
   28.5136  -34.6110   -5.8349 C   0  0  0  0  0  0  0  0  0  0  0  0
   29.8860  -34.6854   -5.7069 C   0  0  0  0  0  0  0  0  0  0  0  0
   30.4824  -34.4063   -4.5131 C   0  0  0  0  0  0  0  0  0  0  0  0
   29.6643  -34.0523   -3.4575 C   0  0  0  0  0  0  0  0  0  0  0  0
   29.0118  -34.6664   -0.8320 C   0  0  0  0  0  0  0  0  0  0  0  0
   29.6929  -33.7218   -0.3975 O   0  0  0  0  0  0  0  0  0  0  0  0
   29.5123  -38.6416    3.3935 C   0  0  0  0  0  0  0  0  0  0  0  0
   31.1338  -37.8642    3.2075 S   0  0  0  0  0  0  0  0  0  0  0  0
   31.1796  -36.6587    1.8944 C   0  0  0  0  0  0  0  0  0  0  0  0
   31.0818  -37.1887    0.5232 C   0  0  0  0  0  0  0  0  0  0  0  0
   31.0127  -36.1463   -0.5662 C   0  0  2  0  0  0  0  0  0  0  0  0
   29.6290  -35.9496   -0.9572 N   0  0  0  0  0  0  0  0  0  0  0  0
   31.8035  -36.4670   -1.7397 C   0  0  0  0  0  0  0  0  0  0  0  0
   33.0466  -35.8576   -2.0053 O   0  0  0  0  0  0  0  0  0  0  0  0
   31.4231  -37.3051   -2.5826 O   0  0  0  0  0  0  0  0  0  0  0  0
  2  1  1  1
  2  3  1  0
  3  4  1  0
  4 12  1  0
  4  5  2  0
  5  6  1  0
  7  8  2  0
  7  6  1  0
  9  8  1  0
 10  9  2  0
 11 10  1  0
 11 12  2  0
 12  7  1  0
 13 14  2  0
 13  2  1  0
 15 13  1  0
 16 15  1  0
 16 17  1  6
 18 17  1  0
 18 23  1  0
 19 18  2  0
 20 19  1  0
 20 21  2  0
 21 22  1  0
 22 23  2  0
 24 16  1  0
 25 24  2  0
 27 26  1  0
 27 28  1  0
 29 28  1  0
 30 29  1  1
 30 31  1  0
 31 24  1  0
 32 30  1  0
 32 33  1  0
 34 32  2  0
M  END
$$$$
