WFM.pdb
     RDKit          3D

 34 36  0  0  1  0  0  0  0  0999 V2000
   27.7466  -22.7412  -18.2242 N   0  0  0  0  0  0  0  0  0  0  0  0
   27.0521  -21.5135  -17.8133 C   0  0  1  0  0  0  0  0  0  0  0  0
   26.0061  -21.2591  -18.8575 C   0  0  0  0  0  0  0  0  0  0  0  0
   26.4083  -20.3023  -19.9013 C   0  0  0  0  0  0  0  0  0  0  0  0
   27.3614  -20.5646  -20.8913 C   0  0  0  0  0  0  0  0  0  0  0  0
   27.4703  -19.5221  -21.6911 N   0  0  0  0  0  0  0  0  0  0  0  0
   26.6257  -18.5685  -21.2751 C   0  0  0  0  0  0  0  0  0  0  0  0
   26.3754  -17.2917  -21.7750 C   0  0  0  0  0  0  0  0  0  0  0  0
   25.4493  -16.4987  -21.1417 C   0  0  0  0  0  0  0  0  0  0  0  0
   24.7840  -16.9649  -20.0316 C   0  0  0  0  0  0  0  0  0  0  0  0
   25.0388  -18.2316  -19.5438 C   0  0  0  0  0  0  0  0  0  0  0  0
   25.9616  -19.0399  -20.1655 C   0  0  0  0  0  0  0  0  0  0  0  0
   26.5148  -21.7118  -16.4637 C   0  0  0  0  0  0  0  0  0  0  0  0
   25.9113  -22.7808  -16.1960 O   0  0  0  0  0  0  0  0  0  0  0  0
   26.6587  -20.7214  -15.4224 N   0  0  0  0  0  0  0  0  0  0  0  0
   25.9426  -20.9267  -14.1983 C   0  0  1  0  0  0  0  0  0  0  0  0
   26.5656  -20.1429  -13.0526 C   0  0  0  0  0  0  0  0  0  0  0  0
   25.9672  -20.4021  -11.7487 C   0  0  0  0  0  0  0  0  0  0  0  0
   24.8580  -19.6932  -11.3533 C   0  0  0  0  0  0  0  0  0  0  0  0
   24.3213  -19.9720  -10.0943 C   0  0  0  0  0  0  0  0  0  0  0  0
   24.8771  -20.9255   -9.2651 C   0  0  0  0  0  0  0  0  0  0  0  0
   25.9773  -21.6260   -9.6617 C   0  0  0  0  0  0  0  0  0  0  0  0
   26.5001  -21.3422  -10.9088 C   0  0  0  0  0  0  0  0  0  0  0  0
   24.4999  -20.6393  -14.2507 C   0  0  0  0  0  0  0  0  0  0  0  0
   24.0226  -19.5589  -14.6380 O   0  0  0  0  0  0  0  0  0  0  0  0
   18.4363  -24.1874  -11.9758 C   0  0  0  0  0  0  0  0  0  0  0  0
   19.6770  -24.5990  -13.2246 S   0  0  0  0  0  0  0  0  0  0  0  0
   21.1632  -23.6252  -13.0745 C   0  0  0  0  0  0  0  0  0  0  0  0
   21.4319  -22.6781  -14.1707 C   0  0  0  0  0  0  0  0  0  0  0  0
   22.1724  -21.4250  -13.7714 C   0  0  2  0  0  0  0  0  0  0  0  0
   23.6015  -21.6699  -13.8335 N   0  0  0  0  0  0  0  0  0  0  0  0
   21.8258  -20.9309  -12.4519 C   0  0  0  0  0  0  0  0  0  0  0  0
   20.6586  -20.1792  -12.2070 O   0  0  0  0  0  0  0  0  0  0  0  0
   22.5470  -21.1461  -11.4564 O   0  0  0  0  0  0  0  0  0  0  0  0
  2  1  1  6
  2  3  1  0
  3  4  1  0
  4 12  1  0
  4  5  2  0
  5  6  1  0
  7  8  2  0
  7  6  1  0
  9  8  1  0
 10  9  2  0
 11 10  1  0
 11 12  2  0
 12  7  1  0
 13 14  2  0
 13  2  1  0
 15 13  1  0
 16 15  1  0
 16 17  1  1
 18 17  1  0
 18 23  1  0
 19 18  2  0
 20 19  1  0
 20 21  2  0
 21 22  1  0
 22 23  2  0
 24 16  1  0
 25 24  2  0
 27 26  1  0
 27 28  1  0
 29 28  1  0
 30 29  1  1
 30 31  1  0
 31 24  1  0
 32 30  1  0
 32 33  1  0
 34 32  2  0
M  END
$$$$
