WFM.pdb
     RDKit          3D

 34 36  0  0  1  0  0  0  0  0999 V2000
   24.2990  -19.1923  -18.4591 N   0  0  0  0  0  0  0  0  0  0  0  0
   23.8530  -19.1196  -17.0612 C   0  0  1  0  0  0  0  0  0  0  0  0
   22.4918  -19.7482  -17.0266 C   0  0  0  0  0  0  0  0  0  0  0  0
   21.4276  -18.9285  -17.6284 C   0  0  0  0  0  0  0  0  0  0  0  0
   20.6159  -19.3403  -18.6910 C   0  0  0  0  0  0  0  0  0  0  0  0
   19.7411  -18.3954  -18.9744 N   0  0  0  0  0  0  0  0  0  0  0  0
   19.9349  -17.3635  -18.1417 C   0  0  0  0  0  0  0  0  0  0  0  0
   19.2806  -16.1367  -18.0433 C   0  0  0  0  0  0  0  0  0  0  0  0
   19.6926  -15.2372  -17.0900 C   0  0  0  0  0  0  0  0  0  0  0  0
   20.7357  -15.5500  -16.2497 C   0  0  0  0  0  0  0  0  0  0  0  0
   21.3779  -16.7683  -16.3548 C   0  0  0  0  0  0  0  0  0  0  0  0
   20.9784  -17.6816  -17.3024 C   0  0  0  0  0  0  0  0  0  0  0  0
   24.8458  -19.7949  -16.2198 C   0  0  0  0  0  0  0  0  0  0  0  0
   25.2892  -20.9154  -16.5757 O   0  0  0  0  0  0  0  0  0  0  0  0
   25.3405  -19.2151  -14.9931 N   0  0  0  0  0  0  0  0  0  0  0  0
   26.3356  -19.9417  -14.2616 C   0  0  1  0  0  0  0  0  0  0  0  0
   27.5552  -19.0779  -13.9756 C   0  0  0  0  0  0  0  0  0  0  0  0
   27.9502  -18.2082  -15.0770 C   0  0  0  0  0  0  0  0  0  0  0  0
   28.8636  -18.6516  -16.0035 C   0  0  0  0  0  0  0  0  0  0  0  0
   29.2156  -17.7826  -17.0388 C   0  0  0  0  0  0  0  0  0  0  0  0
   28.6712  -16.5181  -17.1395 C   0  0  0  0  0  0  0  0  0  0  0  0
   27.7656  -16.0828  -16.2181 C   0  0  0  0  0  0  0  0  0  0  0  0
   27.4247  -16.9502  -15.1981 C   0  0  0  0  0  0  0  0  0  0  0  0
   25.8769  -20.5590  -13.0067 C   0  0  0  0  0  0  0  0  0  0  0  0
   26.6083  -21.2267  -12.2555 O   0  0  0  0  0  0  0  0  0  0  0  0
   26.4719  -21.4010   -8.4044 C   0  0  0  0  0  0  0  0  0  0  0  0
   24.7591  -21.3880   -7.8262 S   0  0  0  0  0  0  0  0  0  0  0  0
   23.6407  -20.6219   -8.9846 C   0  0  0  0  0  0  0  0  0  0  0  0
   24.2373  -20.1466  -10.2451 C   0  0  0  0  0  0  0  0  0  0  0  0
   23.9699  -21.0141  -11.4509 C   0  0  2  0  0  0  0  0  0  0  0  0
   24.5093  -20.3719  -12.6352 N   0  0  0  0  0  0  0  0  0  0  0  0
   22.5658  -21.3124  -11.6625 C   0  0  0  0  0  0  0  0  0  0  0  0
   21.8832  -22.3045  -10.9295 O   0  0  0  0  0  0  0  0  0  0  0  0
   21.8823  -20.7028  -12.5103 O   0  0  0  0  0  0  0  0  0  0  0  0
  2  1  1  6
  2  3  1  0
  3  4  1  0
  4 12  1  0
  4  5  2  0
  5  6  1  0
  7  8  2  0
  7  6  1  0
  9  8  1  0
 10  9  2  0
 11 10  1  0
 11 12  2  0
 12  7  1  0
 13 14  2  0
 13  2  1  0
 15 13  1  0
 16 15  1  0
 16 17  1  1
 18 17  1  0
 18 23  1  0
 19 18  2  0
 20 19  1  0
 20 21  2  0
 21 22  1  0
 22 23  2  0
 24 16  1  0
 25 24  2  0
 27 26  1  0
 27 28  1  0
 29 28  1  0
 30 29  1  1
 30 31  1  0
 31 24  1  0
 32 30  1  0
 32 33  1  0
 34 32  2  0
M  END
$$$$
