WFM.pdb
     RDKit          3D

 34 36  0  0  1  0  0  0  0  0999 V2000
   28.4261  -21.1938  -14.7827 N   0  0  0  0  0  0  0  0  0  0  0  0
   27.5332  -20.2251  -14.1327 C   0  0  1  0  0  0  0  0  0  0  0  0
   26.7018  -19.6270  -15.2283 C   0  0  0  0  0  0  0  0  0  0  0  0
   27.4094  -18.6389  -16.0588 C   0  0  0  0  0  0  0  0  0  0  0  0
   28.0023  -18.9219  -17.2940 C   0  0  0  0  0  0  0  0  0  0  0  0
   28.5235  -17.8215  -17.7996 N   0  0  0  0  0  0  0  0  0  0  0  0
   28.3031  -16.8091  -16.9497 C   0  0  0  0  0  0  0  0  0  0  0  0
   28.6596  -15.4636  -17.0233 C   0  0  0  0  0  0  0  0  0  0  0  0
   28.3127  -14.6258  -15.9911 C   0  0  0  0  0  0  0  0  0  0  0  0
   27.6247  -15.1152  -14.9052 C   0  0  0  0  0  0  0  0  0  0  0  0
   27.2757  -16.4500  -14.8415 C   0  0  0  0  0  0  0  0  0  0  0  0
   27.6135  -17.3033  -15.8659 C   0  0  0  0  0  0  0  0  0  0  0  0
   26.7557  -20.9248  -13.1053 C   0  0  0  0  0  0  0  0  0  0  0  0
   26.2486  -22.0420  -13.3763 O   0  0  0  0  0  0  0  0  0  0  0  0
   26.5541  -20.3780  -11.7839 N   0  0  0  0  0  0  0  0  0  0  0  0
   25.3898  -20.7908  -11.0578 C   0  0  1  0  0  0  0  0  0  0  0  0
   25.4437  -20.3242   -9.6106 C   0  0  0  0  0  0  0  0  0  0  0  0
   26.7769  -20.3401   -9.0209 C   0  0  0  0  0  0  0  0  0  0  0  0
   27.7607  -21.1220   -9.5778 C   0  0  0  0  0  0  0  0  0  0  0  0
   29.0214  -21.1092   -8.9767 C   0  0  0  0  0  0  0  0  0  0  0  0
   29.2835  -20.3410   -7.8601 C   0  0  0  0  0  0  0  0  0  0  0  0
   28.3045  -19.5670   -7.3114 C   0  0  0  0  0  0  0  0  0  0  0  0
   27.0612  -19.5873   -7.9137 C   0  0  0  0  0  0  0  0  0  0  0  0
   24.1005  -20.3921  -11.6454 C   0  0  0  0  0  0  0  0  0  0  0  0
   23.9877  -19.5916  -12.5896 O   0  0  0  0  0  0  0  0  0  0  0  0
   19.8024  -23.7650  -16.3556 C   0  0  0  0  0  0  0  0  0  0  0  0
   21.2215  -23.5415  -15.2581 S   0  0  0  0  0  0  0  0  0  0  0  0
   20.8846  -22.4305  -13.9046 C   0  0  0  0  0  0  0  0  0  0  0  0
   22.0218  -22.1210  -13.0206 C   0  0  0  0  0  0  0  0  0  0  0  0
   21.7269  -21.1399  -11.9123 C   0  0  2  0  0  0  0  0  0  0  0  0
   22.9132  -20.9666  -11.0944 N   0  0  0  0  0  0  0  0  0  0  0  0
   20.6116  -21.5234  -11.0672 C   0  0  0  0  0  0  0  0  0  0  0  0
   19.2825  -21.1479  -11.3501 O   0  0  0  0  0  0  0  0  0  0  0  0
   20.7698  -22.2107  -10.0375 O   0  0  0  0  0  0  0  0  0  0  0  0
  2  1  1  6
  2  3  1  0
  3  4  1  0
  4 12  1  0
  4  5  2  0
  5  6  1  0
  7  8  2  0
  7  6  1  0
  9  8  1  0
 10  9  2  0
 11 10  1  0
 11 12  2  0
 12  7  1  0
 13 14  2  0
 13  2  1  0
 15 13  1  0
 16 15  1  0
 16 17  1  1
 18 17  1  0
 18 23  1  0
 19 18  2  0
 20 19  1  0
 20 21  2  0
 21 22  1  0
 22 23  2  0
 24 16  1  0
 25 24  2  0
 27 26  1  0
 27 28  1  0
 29 28  1  0
 30 29  1  6
 30 31  1  0
 31 24  1  0
 32 30  1  0
 32 33  1  0
 34 32  2  0
M  END
$$$$
