HAP.pdb
     RDKit          3D

 23 24  0  0  1  0  0  0  0  0999 V2000
   20.2529  -21.9700  -16.4908 N   0  0  0  0  0  0  0  0  0  0  0  0
   20.5156  -21.2301  -15.2996 C   0  0  1  0  0  0  0  0  0  0  0  0
   19.5214  -21.5591  -14.2046 C   0  0  0  0  0  0  0  0  0  0  0  0
   18.1551  -21.1404  -14.5778 C   0  0  0  0  0  0  0  0  0  0  0  0
   17.6518  -19.8576  -14.4239 C   0  0  0  0  0  0  0  0  0  0  0  0
   16.3938  -19.8794  -14.8727 N   0  0  0  0  0  0  0  0  0  0  0  0
   16.0806  -21.1105  -15.3008 C   0  0  0  0  0  0  0  0  0  0  0  0
   17.1696  -21.8734  -15.1142 N   0  0  0  0  0  0  0  0  0  0  0  0
   21.8880  -21.4326  -14.7578 C   0  0  0  0  0  0  0  0  0  0  0  0
   22.1141  -22.4881  -14.1259 O   0  0  0  0  0  0  0  0  0  0  0  0
   25.1785  -19.5814  -14.7842 C   0  0  0  0  0  0  0  0  0  0  0  0
   24.2438  -20.6586  -14.2729 C   0  0  2  0  0  0  0  0  0  0  0  0
   22.9330  -20.5107  -14.9168 N   0  0  0  0  0  0  0  0  0  0  0  0
   24.1341  -20.5400  -12.8158 C   0  0  0  0  0  0  0  0  0  0  0  0
   23.2200  -19.8178  -12.2780 O   0  0  0  0  0  0  0  0  0  0  0  0
   25.0390  -21.2254  -11.9742 N   0  0  0  0  0  0  0  0  0  0  0  0
   26.1297  -22.0875  -12.4737 C   0  0  0  0  0  0  0  0  0  0  0  0
   27.0791  -22.0651  -11.2997 C   0  0  0  0  0  0  0  0  0  0  0  0
   26.0685  -22.3267  -10.1719 C   0  0  0  0  0  0  0  0  0  0  0  0
   25.0644  -21.2170  -10.5281 C   0  0  1  0  0  0  0  0  0  0  0  0
   25.6809  -19.9054  -10.1046 C   0  0  0  0  0  0  0  0  0  0  0  0
   25.5069  -19.3990   -8.9840 O   0  0  0  0  0  0  0  0  0  0  0  0
   26.4878  -19.2243  -11.0151 O   0  0  0  0  0  0  0  0  0  0  0  0
  2  1  1  6
  2  9  1  0
  2  3  1  0
  3  4  1  0
  4  8  1  0
  4  5  2  0
  5  6  1  0
  7  6  1  0
  8  7  2  0
  9 13  1  0
 10  9  2  0
 12 11  1  6
 12 14  1  0
 13 12  1  0
 14 16  1  0
 15 14  2  0
 16 20  1  0
 16 17  1  0
 17 18  1  0
 19 18  1  0
 20 19  1  0
 20 21  1  6
 21 23  1  0
 22 21  2  0
M  END
$$$$
