HAP.pdb
     RDKit          3D

 23 24  0  0  1  0  0  0  0  0999 V2000
   24.8178  -14.7860  -19.7129 N   0  0  0  0  0  0  0  0  0  0  0  0
   25.4288  -13.4970  -19.7372 C   0  0  1  0  0  0  0  0  0  0  0  0
   25.1106  -12.7497  -21.0162 C   0  0  0  0  0  0  0  0  0  0  0  0
   25.6095  -13.4778  -22.2005 C   0  0  0  0  0  0  0  0  0  0  0  0
   26.9319  -13.4980  -22.6167 C   0  0  0  0  0  0  0  0  0  0  0  0
   26.9802  -14.2578  -23.7143 N   0  0  0  0  0  0  0  0  0  0  0  0
   25.7555  -14.7164  -24.0093 C   0  0  0  0  0  0  0  0  0  0  0  0
   24.9249  -14.2304  -23.0729 N   0  0  0  0  0  0  0  0  0  0  0  0
   25.0493  -12.6315  -18.5862 C   0  0  0  0  0  0  0  0  0  0  0  0
   23.8308  -12.4383  -18.3803 O   0  0  0  0  0  0  0  0  0  0  0  0
   26.8284  -10.7724  -15.8217 C   0  0  0  0  0  0  0  0  0  0  0  0
   25.5938  -11.1443  -16.6173 C   0  0  2  0  0  0  0  0  0  0  0  0
   25.9776  -12.0257  -17.7267 N   0  0  0  0  0  0  0  0  0  0  0  0
   24.9592   -9.9183  -17.1104 C   0  0  0  0  0  0  0  0  0  0  0  0
   25.3552   -9.3589  -18.1952 O   0  0  0  0  0  0  0  0  0  0  0  0
   23.8924   -9.3297  -16.3947 N   0  0  0  0  0  0  0  0  0  0  0  0
   23.3182   -9.9044  -15.1607 C   0  0  0  0  0  0  0  0  0  0  0  0
   22.7006   -8.6796  -14.5294 C   0  0  0  0  0  0  0  0  0  0  0  0
   21.9848   -8.1110  -15.7648 C   0  0  0  0  0  0  0  0  0  0  0  0
   23.1884   -8.1096  -16.7228 C   0  0  1  0  0  0  0  0  0  0  0  0
   24.0806   -6.9615  -16.3158 C   0  0  0  0  0  0  0  0  0  0  0  0
   25.0382   -7.0842  -15.5345 O   0  0  0  0  0  0  0  0  0  0  0  0
   23.8197   -5.6968  -16.8418 O   0  0  0  0  0  0  0  0  0  0  0  0
  2  1  1  6
  2  9  1  0
  2  3  1  0
  3  4  1  0
  4  8  1  0
  4  5  2  0
  5  6  1  0
  7  6  1  0
  8  7  2  0
  9 13  1  0
 10  9  2  0
 12 11  1  6
 12 14  1  0
 13 12  1  0
 14 16  1  0
 15 14  2  0
 16 20  1  0
 16 17  1  0
 17 18  1  0
 19 18  1  0
 20 19  1  0
 20 21  1  1
 21 23  1  0
 22 21  2  0
M  END
$$$$
