HAP.pdb
     RDKit          3D

 23 24  0  0  1  0  0  0  0  0999 V2000
   24.9375  -22.1473  -12.4548 N   0  0  0  0  0  0  0  0  0  0  0  0
   25.1977  -21.0046  -11.6411 C   0  0  1  0  0  0  0  0  0  0  0  0
   23.9192  -20.4023  -11.0950 C   0  0  0  0  0  0  0  0  0  0  0  0
   23.0617  -19.8887  -12.1823 C   0  0  0  0  0  0  0  0  0  0  0  0
   21.9860  -20.5710  -12.7300 C   0  0  0  0  0  0  0  0  0  0  0  0
   21.4709  -19.7835  -13.6781 N   0  0  0  0  0  0  0  0  0  0  0  0
   22.1679  -18.6410  -13.7544 C   0  0  0  0  0  0  0  0  0  0  0  0
   23.1402  -18.7189  -12.8318 N   0  0  0  0  0  0  0  0  0  0  0  0
   26.1089  -21.2789  -10.4954 C   0  0  0  0  0  0  0  0  0  0  0  0
   25.7361  -22.1145   -9.6426 O   0  0  0  0  0  0  0  0  0  0  0  0
   29.5896  -20.3427   -9.4137 C   0  0  0  0  0  0  0  0  0  0  0  0
   28.1856  -20.8344   -9.1264 C   0  0  2  0  0  0  0  0  0  0  0  0
   27.3534  -20.6556  -10.3224 N   0  0  0  0  0  0  0  0  0  0  0  0
   27.6439  -20.0864   -7.9879 C   0  0  0  0  0  0  0  0  0  0  0  0
   26.8151  -19.1228   -8.1639 O   0  0  0  0  0  0  0  0  0  0  0  0
   28.0274  -20.4180   -6.6690 N   0  0  0  0  0  0  0  0  0  0  0  0
   28.9438  -21.5282   -6.3370 C   0  0  0  0  0  0  0  0  0  0  0  0
   29.4570  -21.0880   -4.9869 C   0  0  0  0  0  0  0  0  0  0  0  0
   28.1183  -20.7020   -4.3383 C   0  0  0  0  0  0  0  0  0  0  0  0
   27.6099  -19.7654   -5.4476 C   0  0  1  0  0  0  0  0  0  0  0  0
   28.3965  -18.4810   -5.3418 C   0  0  0  0  0  0  0  0  0  0  0  0
   29.3781  -18.2201   -6.0566 O   0  0  0  0  0  0  0  0  0  0  0  0
   28.0043  -17.5363   -4.3942 O   0  0  0  0  0  0  0  0  0  0  0  0
  2  1  1  1
  2  9  1  0
  2  3  1  0
  3  4  1  0
  4  8  1  0
  4  5  2  0
  5  6  1  0
  7  6  1  0
  8  7  2  0
  9 13  1  0
 10  9  2  0
 12 11  1  6
 12 14  1  0
 13 12  1  0
 14 16  1  0
 15 14  2  0
 16 20  1  0
 16 17  1  0
 17 18  1  0
 19 18  1  0
 20 19  1  0
 20 21  1  1
 21 23  1  0
 22 21  2  0
M  END
$$$$
