HAP.pdb
     RDKit          3D

 23 24  0  0  1  0  0  0  0  0999 V2000
   21.5282  -19.1743  -17.2250 N   0  0  0  0  0  0  0  0  0  0  0  0
   22.1486  -18.4914  -16.1369 C   0  0  1  0  0  0  0  0  0  0  0  0
   21.1448  -18.1133  -15.0667 C   0  0  0  0  0  0  0  0  0  0  0  0
   20.2525  -17.0303  -15.5276 C   0  0  0  0  0  0  0  0  0  0  0  0
   20.5721  -15.6812  -15.5088 C   0  0  0  0  0  0  0  0  0  0  0  0
   19.5165  -15.0270  -16.0012 N   0  0  0  0  0  0  0  0  0  0  0  0
   18.5498  -15.8961  -16.3285 C   0  0  0  0  0  0  0  0  0  0  0  0
   19.0145  -17.1206  -16.0329 N   0  0  0  0  0  0  0  0  0  0  0  0
   23.2471  -19.2632  -15.4922 C   0  0  0  0  0  0  0  0  0  0  0  0
   22.9566  -20.3608  -14.9673 O   0  0  0  0  0  0  0  0  0  0  0  0
   26.9173  -18.7285  -14.7712 C   0  0  0  0  0  0  0  0  0  0  0  0
   25.6081  -19.4755  -14.6176 C   0  0  2  0  0  0  0  0  0  0  0  0
   24.5799  -18.8293  -15.4422 N   0  0  0  0  0  0  0  0  0  0  0  0
   25.2264  -19.4791  -13.2022 C   0  0  0  0  0  0  0  0  0  0  0  0
   24.5603  -18.5070  -12.6944 O   0  0  0  0  0  0  0  0  0  0  0  0
   25.5871  -20.5618  -12.3689 N   0  0  0  0  0  0  0  0  0  0  0  0
   26.2825  -21.7719  -12.8531 C   0  0  0  0  0  0  0  0  0  0  0  0
   26.9213  -22.2700  -11.5788 C   0  0  0  0  0  0  0  0  0  0  0  0
   25.7080  -22.1517  -10.6430 C   0  0  0  0  0  0  0  0  0  0  0  0
   25.3499  -20.6869  -10.9476 C   0  0  1  0  0  0  0  0  0  0  0  0
   26.3741  -19.8236  -10.2509 C   0  0  0  0  0  0  0  0  0  0  0  0
   27.4133  -19.4200  -10.7983 O   0  0  0  0  0  0  0  0  0  0  0  0
   26.1456  -19.4582   -8.9249 O   0  0  0  0  0  0  0  0  0  0  0  0
  2  1  1  6
  2  9  1  0
  2  3  1  0
  3  4  1  0
  4  8  1  0
  4  5  2  0
  5  6  1  0
  7  6  1  0
  8  7  2  0
  9 13  1  0
 10  9  2  0
 12 11  1  1
 12 14  1  0
 13 12  1  0
 14 16  1  0
 15 14  2  0
 16 20  1  0
 16 17  1  0
 17 18  1  0
 19 18  1  0
 20 19  1  0
 20 21  1  1
 21 23  1  0
 22 21  2  0
M  END
$$$$
