HAP.pdb
     RDKit          3D

 23 24  0  0  1  0  0  0  0  0999 V2000
   21.8100  -21.3429  -15.0448 N   0  0  0  0  0  0  0  0  0  0  0  0
   22.3242  -20.6608  -13.9020 C   0  0  1  0  0  0  0  0  0  0  0  0
   22.6086  -19.2027  -14.2004 C   0  0  0  0  0  0  0  0  0  0  0  0
   23.4780  -19.0580  -15.3855 C   0  0  0  0  0  0  0  0  0  0  0  0
   24.8161  -19.4185  -15.4328 C   0  0  0  0  0  0  0  0  0  0  0  0
   25.2493  -19.1359  -16.6645 N   0  0  0  0  0  0  0  0  0  0  0  0
   24.2518  -18.6161  -17.3938 C   0  0  0  0  0  0  0  0  0  0  0  0
   23.1718  -18.5741  -16.5972 N   0  0  0  0  0  0  0  0  0  0  0  0
   21.4310  -20.7263  -12.7121 C   0  0  0  0  0  0  0  0  0  0  0  0
   21.7396  -20.0378  -11.7144 O   0  0  0  0  0  0  0  0  0  0  0  0
   18.1384  -21.0572  -11.5692 C   0  0  0  0  0  0  0  0  0  0  0  0
   19.4966  -21.7114  -11.4190 C   0  0  2  0  0  0  0  0  0  0  0  0
   20.2710  -21.5123  -12.6500 N   0  0  0  0  0  0  0  0  0  0  0  0
   19.3084  -23.1377  -11.1370 C   0  0  0  0  0  0  0  0  0  0  0  0
   19.1586  -23.9858  -12.0882 O   0  0  0  0  0  0  0  0  0  0  0  0
   19.2904  -23.6048   -9.8035 N   0  0  0  0  0  0  0  0  0  0  0  0
   19.4586  -22.7284   -8.6262 C   0  0  0  0  0  0  0  0  0  0  0  0
   18.7943  -23.5547   -7.5510 C   0  0  0  0  0  0  0  0  0  0  0  0
   19.4472  -24.9118   -7.8571 C   0  0  0  0  0  0  0  0  0  0  0  0
   19.1166  -24.9700   -9.3584 C   0  0  1  0  0  0  0  0  0  0  0  0
   17.6460  -25.2902   -9.4789 C   0  0  0  0  0  0  0  0  0  0  0  0
   17.2000  -26.4487   -9.5173 O   0  0  0  0  0  0  0  0  0  0  0  0
   16.7384  -24.2342   -9.5512 O   0  0  0  0  0  0  0  0  0  0  0  0
  2  1  1  6
  2  9  1  0
  2  3  1  0
  3  4  1  0
  4  8  1  0
  4  5  2  0
  5  6  1  0
  7  6  1  0
  8  7  2  0
  9 13  1  0
 10  9  2  0
 12 11  1  6
 12 14  1  0
 13 12  1  0
 14 16  1  0
 15 14  2  0
 16 20  1  0
 16 17  1  0
 17 18  1  0
 19 18  1  0
 20 19  1  0
 20 21  1  1
 21 23  1  0
 22 21  2  0
M  END
$$$$
