HAP.pdb
     RDKit          3D

 23 24  0  0  1  0  0  0  0  0999 V2000
   20.5993  -15.7219  -17.6949 N   0  0  0  0  0  0  0  0  0  0  0  0
   21.1132  -14.4731  -18.1551 C   0  0  1  0  0  0  0  0  0  0  0  0
   20.1508  -13.7856  -19.1021 C   0  0  0  0  0  0  0  0  0  0  0  0
   20.0087  -14.5408  -20.3634 C   0  0  0  0  0  0  0  0  0  0  0  0
   19.2700  -15.7052  -20.5084 C   0  0  0  0  0  0  0  0  0  0  0  0
   19.3871  -16.0807  -21.7850 N   0  0  0  0  0  0  0  0  0  0  0  0
   20.1616  -15.2118  -22.4499 C   0  0  0  0  0  0  0  0  0  0  0  0
   20.5358  -14.2728  -21.5661 N   0  0  0  0  0  0  0  0  0  0  0  0
   21.4471  -13.5213  -17.0595 C   0  0  0  0  0  0  0  0  0  0  0  0
   20.5481  -13.2446  -16.2350 O   0  0  0  0  0  0  0  0  0  0  0  0
   24.4893  -11.6316  -15.8657 C   0  0  0  0  0  0  0  0  0  0  0  0
   23.0043  -11.9321  -15.8618 C   0  0  2  0  0  0  0  0  0  0  0  0
   22.7060  -12.9228  -16.9031 N   0  0  0  0  0  0  0  0  0  0  0  0
   22.2667  -10.6859  -16.0901 C   0  0  0  0  0  0  0  0  0  0  0  0
   22.0439  -10.2576  -17.2790 O   0  0  0  0  0  0  0  0  0  0  0  0
   21.7847   -9.9318  -14.9967 N   0  0  0  0  0  0  0  0  0  0  0  0
   21.9158  -10.3561  -13.5877 C   0  0  0  0  0  0  0  0  0  0  0  0
   21.8110   -9.0298  -12.8734 C   0  0  0  0  0  0  0  0  0  0  0  0
   20.5887   -8.4594  -13.6100 C   0  0  0  0  0  0  0  0  0  0  0  0
   21.0974   -8.6602  -15.0478 C   0  0  1  0  0  0  0  0  0  0  0  0
   22.1441   -7.6021  -15.3020 C   0  0  0  0  0  0  0  0  0  0  0  0
   23.3642   -7.8088  -15.1965 O   0  0  0  0  0  0  0  0  0  0  0  0
   21.7239   -6.3259  -15.6747 O   0  0  0  0  0  0  0  0  0  0  0  0
  2  1  1  1
  2  9  1  0
  2  3  1  0
  3  4  1  0
  4  8  1  0
  4  5  2  0
  5  6  1  0
  7  6  1  0
  8  7  2  0
  9 13  1  0
 10  9  2  0
 12 11  1  6
 12 14  1  0
 13 12  1  0
 14 16  1  0
 15 14  2  0
 16 20  1  0
 16 17  1  0
 17 18  1  0
 19 18  1  0
 20 19  1  0
 20 21  1  1
 21 23  1  0
 22 21  2  0
M  END
$$$$
