HAP.pdb
     RDKit          3D

 23 24  0  0  1  0  0  0  0  0999 V2000
   21.5368  -20.8547  -14.1479 N   0  0  0  0  0  0  0  0  0  0  0  0
   21.6552  -19.8957  -15.1975 C   0  0  1  0  0  0  0  0  0  0  0  0
   20.5392  -18.8720  -15.1500 C   0  0  0  0  0  0  0  0  0  0  0  0
   19.2267  -19.5190  -14.9504 C   0  0  0  0  0  0  0  0  0  0  0  0
   18.4789  -19.4466  -13.7850 C   0  0  0  0  0  0  0  0  0  0  0  0
   17.3658  -20.1546  -13.9953 N   0  0  0  0  0  0  0  0  0  0  0  0
   17.3757  -20.6683  -15.2335 C   0  0  0  0  0  0  0  0  0  0  0  0
   18.5223  -20.2707  -15.8078 N   0  0  0  0  0  0  0  0  0  0  0  0
   22.9544  -19.1676  -15.2012 C   0  0  0  0  0  0  0  0  0  0  0  0
   23.3142  -18.6141  -14.1388 O   0  0  0  0  0  0  0  0  0  0  0  0
   25.9192  -18.7387  -17.4554 C   0  0  0  0  0  0  0  0  0  0  0  0
   25.0020  -18.2419  -16.3566 C   0  0  2  0  0  0  0  0  0  0  0  0
   23.7902  -19.0698  -16.3233 N   0  0  0  0  0  0  0  0  0  0  0  0
   24.6753  -16.8354  -16.6101 C   0  0  0  0  0  0  0  0  0  0  0  0
   23.6204  -16.5089  -17.2635 O   0  0  0  0  0  0  0  0  0  0  0  0
   25.5223  -15.8094  -16.1340 N   0  0  0  0  0  0  0  0  0  0  0  0
   26.7062  -16.0527  -15.2845 C   0  0  0  0  0  0  0  0  0  0  0  0
   27.5227  -14.8131  -15.5614 C   0  0  0  0  0  0  0  0  0  0  0  0
   26.4140  -13.7597  -15.4097 C   0  0  0  0  0  0  0  0  0  0  0  0
   25.3933  -14.3888  -16.3734 C   0  0  1  0  0  0  0  0  0  0  0  0
   25.8873  -14.1306  -17.7766 C   0  0  0  0  0  0  0  0  0  0  0  0
   26.5795  -14.9390  -18.4168 O   0  0  0  0  0  0  0  0  0  0  0  0
   25.5515  -12.9238  -18.3891 O   0  0  0  0  0  0  0  0  0  0  0  0
  2  1  1  1
  2  9  1  0
  2  3  1  0
  3  4  1  0
  4  8  1  0
  4  5  2  0
  5  6  1  0
  7  6  1  0
  8  7  2  0
  9 13  1  0
 10  9  2  0
 12 11  1  6
 12 14  1  0
 13 12  1  0
 14 16  1  0
 15 14  2  0
 16 20  1  0
 16 17  1  0
 17 18  1  0
 19 18  1  0
 20 19  1  0
 20 21  1  6
 21 23  1  0
 22 21  2  0
M  END
$$$$
