HAP.pdb
     RDKit          3D

 23 24  0  0  1  0  0  0  0  0999 V2000
   19.2818  -17.6599  -16.1616 N   0  0  0  0  0  0  0  0  0  0  0  0
   19.0782  -16.5933  -15.2363 C   0  0  1  0  0  0  0  0  0  0  0  0
   20.2942  -16.3715  -14.3600 C   0  0  0  0  0  0  0  0  0  0  0  0
   20.6740  -17.6083  -13.6476 C   0  0  0  0  0  0  0  0  0  0  0  0
   20.0865  -18.0567  -12.4744 C   0  0  0  0  0  0  0  0  0  0  0  0
   20.6988  -19.1980  -12.1471 N   0  0  0  0  0  0  0  0  0  0  0  0
   21.6411  -19.4898  -13.0547 C   0  0  0  0  0  0  0  0  0  0  0  0
   21.6150  -18.5068  -13.9689 N   0  0  0  0  0  0  0  0  0  0  0  0
   18.7277  -15.2977  -15.8818 C   0  0  0  0  0  0  0  0  0  0  0  0
   19.6036  -14.7390  -16.5783 O   0  0  0  0  0  0  0  0  0  0  0  0
   15.6009  -13.2764  -16.4197 C   0  0  0  0  0  0  0  0  0  0  0  0
   17.1039  -13.4569  -16.4812 C   0  0  2  0  0  0  0  0  0  0  0  0
   17.4776  -14.6749  -15.7521 N   0  0  0  0  0  0  0  0  0  0  0  0
   17.7486  -12.2745  -15.9021 C   0  0  0  0  0  0  0  0  0  0  0  0
   18.0967  -12.2491  -14.6673 O   0  0  0  0  0  0  0  0  0  0  0  0
   18.0002  -11.1362  -16.7006 N   0  0  0  0  0  0  0  0  0  0  0  0
   17.7488  -11.0843  -18.1555 C   0  0  0  0  0  0  0  0  0  0  0  0
   17.6072   -9.5969  -18.3735 C   0  0  0  0  0  0  0  0  0  0  0  0
   18.8341   -9.1226  -17.5788 C   0  0  0  0  0  0  0  0  0  0  0  0
   18.5328   -9.8640  -16.2650 C   0  0  1  0  0  0  0  0  0  0  0  0
   17.4070   -9.1237  -15.5836 C   0  0  0  0  0  0  0  0  0  0  0  0
   16.2064   -9.3599  -15.7966 O   0  0  0  0  0  0  0  0  0  0  0  0
   17.7270   -8.1225  -14.6673 O   0  0  0  0  0  0  0  0  0  0  0  0
  2  1  1  6
  2  9  1  0
  2  3  1  0
  3  4  1  0
  4  8  1  0
  4  5  2  0
  5  6  1  0
  7  6  1  0
  8  7  2  0
  9 13  1  0
 10  9  2  0
 12 11  1  1
 12 14  1  0
 13 12  1  0
 14 16  1  0
 15 14  2  0
 16 20  1  0
 16 17  1  0
 17 18  1  0
 19 18  1  0
 20 19  1  0
 20 21  1  1
 21 23  1  0
 22 21  2  0
M  END
$$$$
