HAP.pdb
     RDKit          3D

 23 24  0  0  1  0  0  0  0  0999 V2000
   26.4075  -25.9573  -17.3924 N   0  0  0  0  0  0  0  0  0  0  0  0
   25.3131  -25.2094  -16.8648 C   0  0  1  0  0  0  0  0  0  0  0  0
   24.3196  -26.1001  -16.1469 C   0  0  0  0  0  0  0  0  0  0  0  0
   23.5478  -26.9207  -17.1020 C   0  0  0  0  0  0  0  0  0  0  0  0
   22.2579  -26.6378  -17.5248 C   0  0  0  0  0  0  0  0  0  0  0  0
   21.9102  -27.6046  -18.3786 N   0  0  0  0  0  0  0  0  0  0  0  0
   22.9157  -28.4807  -18.5140 C   0  0  0  0  0  0  0  0  0  0  0  0
   23.9133  -28.0492  -17.7258 N   0  0  0  0  0  0  0  0  0  0  0  0
   25.7229  -24.1234  -15.9318 C   0  0  0  0  0  0  0  0  0  0  0  0
   26.3173  -24.4522  -14.8815 O   0  0  0  0  0  0  0  0  0  0  0  0
   25.5353  -20.3518  -15.8294 C   0  0  0  0  0  0  0  0  0  0  0  0
   25.8569  -21.7021  -15.2220 C   0  0  2  0  0  0  0  0  0  0  0  0
   25.4804  -22.7618  -16.1654 N   0  0  0  0  0  0  0  0  0  0  0  0
   25.1310  -21.8384  -13.9556 C   0  0  0  0  0  0  0  0  0  0  0  0
   23.9493  -22.3373  -13.9211 O   0  0  0  0  0  0  0  0  0  0  0  0
   25.7261  -21.4211  -12.7438 N   0  0  0  0  0  0  0  0  0  0  0  0
   27.1164  -20.9324  -12.6396 C   0  0  0  0  0  0  0  0  0  0  0  0
   27.0422  -20.1117  -11.3743 C   0  0  0  0  0  0  0  0  0  0  0  0
   26.2924  -21.1151  -10.4840 C   0  0  0  0  0  0  0  0  0  0  0  0
   25.1154  -21.3991  -11.4329 C   0  0  1  0  0  0  0  0  0  0  0  0
   24.2066  -20.1941  -11.3890 C   0  0  0  0  0  0  0  0  0  0  0  0
   24.2770  -19.2555  -12.1992 O   0  0  0  0  0  0  0  0  0  0  0  0
   23.2372  -20.1275  -10.3890 O   0  0  0  0  0  0  0  0  0  0  0  0
  2  1  1  1
  2  9  1  0
  2  3  1  0
  3  4  1  0
  4  8  1  0
  4  5  2  0
  5  6  1  0
  7  6  1  0
  8  7  2  0
  9 13  1  0
 10  9  2  0
 12 11  1  6
 12 14  1  0
 13 12  1  0
 14 16  1  0
 15 14  2  0
 16 20  1  0
 16 17  1  0
 17 18  1  0
 19 18  1  0
 20 19  1  0
 20 21  1  6
 21 23  1  0
 22 21  2  0
M  END
$$$$
