HAP.pdb
     RDKit          3D

 23 24  0  0  1  0  0  0  0  0999 V2000
   26.2593  -20.4554  -12.2849 N   0  0  0  0  0  0  0  0  0  0  0  0
   25.6785  -20.3567  -10.9854 C   0  0  1  0  0  0  0  0  0  0  0  0
   24.8086  -21.5559  -10.6677 C   0  0  0  0  0  0  0  0  0  0  0  0
   23.5932  -21.5735  -11.5066 C   0  0  0  0  0  0  0  0  0  0  0  0
   22.4728  -20.7855  -11.2914 C   0  0  0  0  0  0  0  0  0  0  0  0
   21.5965  -21.0885  -12.2530 N   0  0  0  0  0  0  0  0  0  0  0  0
   22.1088  -22.0268  -13.0618 C   0  0  0  0  0  0  0  0  0  0  0  0
   23.3334  -22.3149  -12.5925 N   0  0  0  0  0  0  0  0  0  0  0  0
   26.6777  -20.2043   -9.8917 C   0  0  0  0  0  0  0  0  0  0  0  0
   27.6473  -20.9944   -9.8750 O   0  0  0  0  0  0  0  0  0  0  0  0
   27.4473  -17.6604   -7.2350 C   0  0  0  0  0  0  0  0  0  0  0  0
   27.6320  -19.0223   -7.8726 C   0  0  2  0  0  0  0  0  0  0  0  0
   26.5912  -19.2297   -8.8867 N   0  0  0  0  0  0  0  0  0  0  0  0
   27.5653  -20.0489   -6.8281 C   0  0  0  0  0  0  0  0  0  0  0  0
   26.4802  -20.6966   -6.6058 O   0  0  0  0  0  0  0  0  0  0  0  0
   28.7037  -20.3446   -6.0450 N   0  0  0  0  0  0  0  0  0  0  0  0
   30.0395  -19.7626   -6.2888 C   0  0  0  0  0  0  0  0  0  0  0  0
   30.6733  -19.9075   -4.9259 C   0  0  0  0  0  0  0  0  0  0  0  0
   30.2833  -21.3656   -4.6366 C   0  0  0  0  0  0  0  0  0  0  0  0
   28.7748  -21.2377   -4.9095 C   0  0  1  0  0  0  0  0  0  0  0  0
   28.1697  -20.5077   -3.7345 C   0  0  0  0  0  0  0  0  0  0  0  0
   27.9642  -19.2829   -3.7235 O   0  0  0  0  0  0  0  0  0  0  0  0
   27.8221  -21.2423   -2.6016 O   0  0  0  0  0  0  0  0  0  0  0  0
  2  1  1  6
  2  9  1  0
  2  3  1  0
  3  4  1  0
  4  8  1  0
  4  5  2  0
  5  6  1  0
  7  6  1  0
  8  7  2  0
  9 13  1  0
 10  9  2  0
 12 11  1  1
 12 14  1  0
 13 12  1  0
 14 16  1  0
 15 14  2  0
 16 20  1  0
 16 17  1  0
 17 18  1  0
 19 18  1  0
 20 19  1  0
 20 21  1  1
 21 23  1  0
 22 21  2  0
M  END
$$$$
