HAP.pdb
     RDKit          3D

 23 24  0  0  1  0  0  0  0  0999 V2000
   23.2683  -35.0799  -15.1924 N   0  0  0  0  0  0  0  0  0  0  0  0
   22.6521  -35.1715  -13.9089 C   0  0  1  0  0  0  0  0  0  0  0  0
   22.3919  -36.6108  -13.5133 C   0  0  0  0  0  0  0  0  0  0  0  0
   21.5924  -36.6898  -12.2740 C   0  0  0  0  0  0  0  0  0  0  0  0
   22.0945  -37.0425  -11.0306 C   0  0  0  0  0  0  0  0  0  0  0  0
   21.0708  -36.9985  -10.1736 N   0  0  0  0  0  0  0  0  0  0  0  0
   19.9507  -36.6360  -10.8148 C   0  0  0  0  0  0  0  0  0  0  0  0
   20.2851  -36.4499  -12.1018 N   0  0  0  0  0  0  0  0  0  0  0  0
   23.4351  -34.5242  -12.8199 C   0  0  0  0  0  0  0  0  0  0  0  0
   24.6299  -34.8666  -12.6797 O   0  0  0  0  0  0  0  0  0  0  0  0
   22.9577  -31.6357  -10.4578 C   0  0  0  0  0  0  0  0  0  0  0  0
   23.7145  -32.8549  -10.9437 C   0  0  2  0  0  0  0  0  0  0  0  0
   22.9091  -33.5583  -11.9494 N   0  0  0  0  0  0  0  0  0  0  0  0
   24.0051  -33.7217   -9.7976 C   0  0  0  0  0  0  0  0  0  0  0  0
   23.2029  -34.6652   -9.4618 O   0  0  0  0  0  0  0  0  0  0  0  0
   25.1825  -33.5315   -9.0399 N   0  0  0  0  0  0  0  0  0  0  0  0
   26.1697  -32.4669   -9.3135 C   0  0  0  0  0  0  0  0  0  0  0  0
   26.8361  -32.3346   -7.9649 C   0  0  0  0  0  0  0  0  0  0  0  0
   27.0666  -33.8245   -7.6667 C   0  0  0  0  0  0  0  0  0  0  0  0
   25.6272  -34.3117   -7.9061 C   0  0  1  0  0  0  0  0  0  0  0  0
   24.8049  -33.8731   -6.7181 C   0  0  0  0  0  0  0  0  0  0  0  0
   24.0713  -32.8711   -6.7275 O   0  0  0  0  0  0  0  0  0  0  0  0
   24.8695  -34.6290   -5.5482 O   0  0  0  0  0  0  0  0  0  0  0  0
  2  1  1  6
  2  9  1  0
  2  3  1  0
  3  4  1  0
  4  8  1  0
  4  5  2  0
  5  6  1  0
  7  6  1  0
  8  7  2  0
  9 13  1  0
 10  9  2  0
 12 11  1  1
 12 14  1  0
 13 12  1  0
 14 16  1  0
 15 14  2  0
 16 20  1  0
 16 17  1  0
 17 18  1  0
 19 18  1  0
 20 19  1  0
 20 21  1  1
 21 23  1  0
 22 21  2  0
M  END
$$$$
