NAW.pdb
     RDKit          3D

 28 29  0  0  1  0  0  0  0  0999 V2000
   27.9538  -23.4740  -18.3233 N   0  0  0  0  0  0  0  0  0  0  0  0
   28.9029  -23.4935  -17.2789 C   0  0  0  0  0  0  0  0  0  0  0  0
   29.5812  -24.5269  -17.0935 O   0  0  0  0  0  0  0  0  0  0  0  0
   29.1064  -22.3209  -16.4078 C   0  0  0  0  0  0  0  0  0  0  0  0
   28.0112  -21.2789  -16.5726 C   0  0  2  0  0  0  0  0  0  0  0  0
   28.2835  -20.4045  -17.6921 N   0  0  0  0  0  0  0  0  0  0  0  0
   28.0247  -20.4820  -15.3033 C   0  0  0  0  0  0  0  0  0  0  0  0
   28.9900  -19.7204  -15.0787 O   0  0  0  0  0  0  0  0  0  0  0  0
   26.1487  -18.5467  -13.3871 C   0  0  0  0  0  0  0  0  0  0  0  0
   26.9398  -19.8098  -13.1220 C   0  0  2  0  0  0  0  0  0  0  0  0
   26.9875  -20.5596  -14.3507 N   0  0  0  0  0  0  0  0  0  0  0  0
   26.3339  -20.5997  -12.0129 C   0  0  0  0  0  0  0  0  0  0  0  0
   25.4248  -21.4120  -12.3151 O   0  0  0  0  0  0  0  0  0  0  0  0
   26.7276  -20.4777  -10.6767 N   0  0  0  0  0  0  0  0  0  0  0  0
   26.1805  -21.2218   -9.5750 C   0  0  1  0  0  0  0  0  0  0  0  0
   27.2428  -21.5782   -8.5538 C   0  0  0  0  0  0  0  0  0  0  0  0
   27.5473  -20.4190   -7.6764 C   0  0  0  0  0  0  0  0  0  0  0  0
   27.1356  -19.1175   -7.9312 C   0  0  0  0  0  0  0  0  0  0  0  0
   27.5855  -18.3246   -6.9364 N   0  0  0  0  0  0  0  0  0  0  0  0
   28.2761  -19.0466   -6.0364 C   0  0  0  0  0  0  0  0  0  0  0  0
   28.9357  -18.7502   -4.8565 C   0  0  0  0  0  0  0  0  0  0  0  0
   29.5744  -19.7102   -4.1170 C   0  0  0  0  0  0  0  0  0  0  0  0
   29.5394  -21.0016   -4.5920 C   0  0  0  0  0  0  0  0  0  0  0  0
   28.8890  -21.3377   -5.7700 C   0  0  0  0  0  0  0  0  0  0  0  0
   28.2546  -20.3635   -6.4977 C   0  0  0  0  0  0  0  0  0  0  0  0
   25.0714  -20.5139   -8.9013 C   0  0  0  0  0  0  0  0  0  0  0  0
   24.7922  -19.3221   -9.1172 O   0  0  0  0  0  0  0  0  0  0  0  0
   24.3061  -21.2173   -7.9833 O   0  0  0  0  0  0  0  0  0  0  0  0
  2  3  2  0
  2  1  1  0
  4  2  1  0
  5  6  1  6
  5  4  1  0
  5  7  1  0
  7  8  2  0
  7 11  1  0
 10  9  1  6
 11 10  1  0
 12 10  1  0
 12 14  1  0
 13 12  2  0
 15 14  1  0
 15 26  1  0
 15 16  1  1
 17 16  1  0
 17 18  2  0
 19 18  1  0
 20 25  2  0
 20 19  1  0
 21 20  1  0
 22 23  1  0
 22 21  2  0
 23 24  2  0
 24 25  1  0
 25 17  1  0
 26 28  1  0
 27 26  2  0
M  END
$$$$
