NAW.pdb
     RDKit          3D

 28 29  0  0  1  0  0  0  0  0999 V2000
   29.6446  -17.7599  -18.8809 N   0  0  0  0  0  0  0  0  0  0  0  0
   29.4519  -18.9234  -18.1056 C   0  0  0  0  0  0  0  0  0  0  0  0
   29.5594  -20.0425  -18.6520 O   0  0  0  0  0  0  0  0  0  0  0  0
   29.1276  -18.8408  -16.6692 C   0  0  0  0  0  0  0  0  0  0  0  0
   27.9997  -19.7811  -16.2742 C   0  0  2  0  0  0  0  0  0  0  0  0
   26.8040  -19.5184  -17.0445 N   0  0  0  0  0  0  0  0  0  0  0  0
   27.7322  -19.4973  -14.8271 C   0  0  0  0  0  0  0  0  0  0  0  0
   28.6789  -19.5642  -14.0136 O   0  0  0  0  0  0  0  0  0  0  0  0
   24.7999  -18.1562  -12.9482 C   0  0  0  0  0  0  0  0  0  0  0  0
   26.1346  -18.8700  -12.9720 C   0  0  2  0  0  0  0  0  0  0  0  0
   26.4502  -19.1574  -14.3475 N   0  0  0  0  0  0  0  0  0  0  0  0
   26.0968  -20.1067  -12.1412 C   0  0  0  0  0  0  0  0  0  0  0  0
   25.7989  -21.1804  -12.7210 O   0  0  0  0  0  0  0  0  0  0  0  0
   26.3741  -20.1220  -10.7707 N   0  0  0  0  0  0  0  0  0  0  0  0
   26.2804  -21.2725   -9.9139 C   0  0  1  0  0  0  0  0  0  0  0  0
   27.5303  -21.4528   -9.0750 C   0  0  0  0  0  0  0  0  0  0  0  0
   27.6400  -20.3855   -8.0478 C   0  0  0  0  0  0  0  0  0  0  0  0
   26.9222  -19.1972   -8.0769 C   0  0  0  0  0  0  0  0  0  0  0  0
   27.2665  -18.4636   -6.9980 N   0  0  0  0  0  0  0  0  0  0  0  0
   28.1803  -19.1166   -6.2585 C   0  0  0  0  0  0  0  0  0  0  0  0
   28.8573  -18.8358   -5.0846 C   0  0  0  0  0  0  0  0  0  0  0  0
   29.7606  -19.7080   -4.5372 C   0  0  0  0  0  0  0  0  0  0  0  0
   29.9781  -20.8932   -5.2023 C   0  0  0  0  0  0  0  0  0  0  0  0
   29.3192  -21.2102   -6.3809 C   0  0  0  0  0  0  0  0  0  0  0  0
   28.4179  -20.3249   -6.9147 C   0  0  0  0  0  0  0  0  0  0  0  0
   25.0978  -21.2312   -9.0280 C   0  0  0  0  0  0  0  0  0  0  0  0
   24.3363  -20.2518   -8.9528 O   0  0  0  0  0  0  0  0  0  0  0  0
   24.8272  -22.3421   -8.2432 O   0  0  0  0  0  0  0  0  0  0  0  0
  2  3  2  0
  2  1  1  0
  4  2  1  0
  5  6  1  6
  5  4  1  0
  5  7  1  0
  7  8  2  0
  7 11  1  0
 10  9  1  6
 11 10  1  0
 12 10  1  0
 12 14  1  0
 13 12  2  0
 15 14  1  0
 15 26  1  0
 15 16  1  1
 17 16  1  0
 17 18  2  0
 19 18  1  0
 20 25  2  0
 20 19  1  0
 21 20  1  0
 22 23  1  0
 22 21  2  0
 23 24  2  0
 24 25  1  0
 25 17  1  0
 26 28  1  0
 27 26  2  0
M  END
$$$$
