NAW.pdb
     RDKit          3D

 28 29  0  0  1  0  0  0  0  0999 V2000
   25.7279  -16.2593  -14.2443 N   0  0  0  0  0  0  0  0  0  0  0  0
   24.8042  -17.2918  -13.9749 C   0  0  0  0  0  0  0  0  0  0  0  0
   23.6171  -16.9940  -13.7206 O   0  0  0  0  0  0  0  0  0  0  0  0
   25.2144  -18.7084  -13.9885 C   0  0  0  0  0  0  0  0  0  0  0  0
   26.7121  -18.8765  -14.1910 C   0  0  2  0  0  0  0  0  0  0  0  0
   27.0322  -19.0878  -15.5856 N   0  0  0  0  0  0  0  0  0  0  0  0
   27.0865  -20.0957  -13.4038 C   0  0  0  0  0  0  0  0  0  0  0  0
   26.4685  -21.1621  -13.6116 O   0  0  0  0  0  0  0  0  0  0  0  0
   29.9957  -20.9750  -11.2767 C   0  0  0  0  0  0  0  0  0  0  0  0
   28.5687  -21.2403  -11.7066 C   0  0  2  0  0  0  0  0  0  0  0  0
   28.1115  -20.0850  -12.4351 N   0  0  0  0  0  0  0  0  0  0  0  0
   27.7003  -21.5351  -10.5319 C   0  0  0  0  0  0  0  0  0  0  0  0
   27.9857  -22.5472   -9.8450 O   0  0  0  0  0  0  0  0  0  0  0  0
   26.6032  -20.7476  -10.1689 N   0  0  0  0  0  0  0  0  0  0  0  0
   25.7085  -21.0171   -9.0763 C   0  0  1  0  0  0  0  0  0  0  0  0
   25.4818  -19.7879   -8.2183 C   0  0  0  0  0  0  0  0  0  0  0  0
   26.7338  -19.3815   -7.5299 C   0  0  0  0  0  0  0  0  0  0  0  0
   27.5225  -18.3055   -7.9150 C   0  0  0  0  0  0  0  0  0  0  0  0
   28.5761  -18.2262   -7.0757 N   0  0  0  0  0  0  0  0  0  0  0  0
   28.5164  -19.2032   -6.1536 C   0  0  0  0  0  0  0  0  0  0  0  0
   29.3123  -19.5775   -5.0852 C   0  0  0  0  0  0  0  0  0  0  0  0
   29.0047  -20.6467   -4.2860 C   0  0  0  0  0  0  0  0  0  0  0  0
   27.8593  -21.3497   -4.5836 C   0  0  0  0  0  0  0  0  0  0  0  0
   27.0366  -21.0052   -5.6457 C   0  0  0  0  0  0  0  0  0  0  0  0
   27.3600  -19.9316   -6.4355 C   0  0  0  0  0  0  0  0  0  0  0  0
   24.4041  -21.5498   -9.5232 C   0  0  0  0  0  0  0  0  0  0  0  0
   24.0948  -21.6802  -10.7199 O   0  0  0  0  0  0  0  0  0  0  0  0
   23.4818  -21.9219   -8.5567 O   0  0  0  0  0  0  0  0  0  0  0  0
  2  3  2  0
  2  1  1  0
  4  2  1  0
  5  6  1  6
  5  4  1  0
  5  7  1  0
  7  8  2  0
  7 11  1  0
 10  9  1  1
 11 10  1  0
 12 10  1  0
 12 14  1  0
 13 12  2  0
 15 14  1  0
 15 26  1  0
 15 16  1  6
 17 16  1  0
 17 18  2  0
 19 18  1  0
 20 25  2  0
 20 19  1  0
 21 20  1  0
 22 23  1  0
 22 21  2  0
 23 24  2  0
 24 25  1  0
 25 17  1  0
 26 28  1  0
 27 26  2  0
M  END
$$$$
