NAW.pdb
     RDKit          3D

 28 29  0  0  1  0  0  0  0  0999 V2000
   25.4617  -13.9616  -15.4385 N   0  0  0  0  0  0  0  0  0  0  0  0
   25.7407  -14.5998  -16.6661 C   0  0  0  0  0  0  0  0  0  0  0  0
   25.7153  -13.9278  -17.7198 O   0  0  0  0  0  0  0  0  0  0  0  0
   26.0600  -16.0384  -16.7254 C   0  0  0  0  0  0  0  0  0  0  0  0
   25.9830  -16.7064  -15.3616 C   0  0  2  0  0  0  0  0  0  0  0  0
   26.8974  -16.0919  -14.4243 N   0  0  0  0  0  0  0  0  0  0  0  0
   26.3882  -18.1308  -15.5917 C   0  0  0  0  0  0  0  0  0  0  0  0
   25.7777  -18.8008  -16.4523 O   0  0  0  0  0  0  0  0  0  0  0  0
   29.2811  -20.2217  -14.5673 C   0  0  0  0  0  0  0  0  0  0  0  0
   27.8405  -20.1189  -15.0209 C   0  0  2  0  0  0  0  0  0  0  0  0
   27.4343  -18.7451  -14.8723 N   0  0  0  0  0  0  0  0  0  0  0  0
   26.9663  -21.0432  -14.2449 C   0  0  0  0  0  0  0  0  0  0  0  0
   27.1370  -22.2758  -14.4159 O   0  0  0  0  0  0  0  0  0  0  0  0
   25.9838  -20.6049  -13.3515 N   0  0  0  0  0  0  0  0  0  0  0  0
   25.0311  -21.4471  -12.6809 C   0  0  1  0  0  0  0  0  0  0  0  0
   25.6938  -22.3300  -11.6418 C   0  0  0  0  0  0  0  0  0  0  0  0
   26.0341  -21.5529  -10.4225 C   0  0  0  0  0  0  0  0  0  0  0  0
   25.1484  -20.7143   -9.7587 C   0  0  0  0  0  0  0  0  0  0  0  0
   25.7859  -20.1710   -8.7008 N   0  0  0  0  0  0  0  0  0  0  0  0
   27.0537  -20.6149   -8.6380 C   0  0  0  0  0  0  0  0  0  0  0  0
   28.1183  -20.3896   -7.7831 C   0  0  0  0  0  0  0  0  0  0  0  0
   29.3353  -20.9932   -7.9590 C   0  0  0  0  0  0  0  0  0  0  0  0
   29.4691  -21.8458   -9.0312 C   0  0  0  0  0  0  0  0  0  0  0  0
   28.4256  -22.0968   -9.9097 C   0  0  0  0  0  0  0  0  0  0  0  0
   27.2138  -21.4836   -9.7183 C   0  0  0  0  0  0  0  0  0  0  0  0
   23.9371  -20.6813  -12.0471 C   0  0  0  0  0  0  0  0  0  0  0  0
   23.9965  -19.4586  -11.8319 O   0  0  0  0  0  0  0  0  0  0  0  0
   22.7886  -21.3639  -11.6753 O   0  0  0  0  0  0  0  0  0  0  0  0
  2  3  2  0
  2  1  1  0
  4  2  1  0
  5  6  1  1
  5  4  1  0
  5  7  1  0
  7  8  2  0
  7 11  1  0
 10  9  1  1
 11 10  1  0
 12 10  1  0
 12 14  1  0
 13 12  2  0
 15 14  1  0
 15 26  1  0
 15 16  1  1
 17 16  1  0
 17 18  2  0
 19 18  1  0
 20 25  2  0
 20 19  1  0
 21 20  1  0
 22 23  1  0
 22 21  2  0
 23 24  2  0
 24 25  1  0
 25 17  1  0
 26 28  1  0
 27 26  2  0
M  END
$$$$
