NAW.pdb
     RDKit          3D

 28 29  0  0  1  0  0  0  0  0999 V2000
   30.1203  -23.2555  -18.3271 N   0  0  0  0  0  0  0  0  0  0  0  0
   30.3346  -21.8856  -18.5905 C   0  0  0  0  0  0  0  0  0  0  0  0
   31.0261  -21.5577  -19.5788 O   0  0  0  0  0  0  0  0  0  0  0  0
   29.7589  -20.8405  -17.7236 C   0  0  0  0  0  0  0  0  0  0  0  0
   29.0938  -21.4170  -16.4835 C   0  0  2  0  0  0  0  0  0  0  0  0
   27.7770  -21.9329  -16.7865 N   0  0  0  0  0  0  0  0  0  0  0  0
   28.9714  -20.2697  -15.5269 C   0  0  0  0  0  0  0  0  0  0  0  0
   29.7884  -19.3272  -15.6066 O   0  0  0  0  0  0  0  0  0  0  0  0
   26.8461  -18.1369  -14.2005 C   0  0  0  0  0  0  0  0  0  0  0  0
   27.8020  -19.1405  -13.5918 C   0  0  2  0  0  0  0  0  0  0  0  0
   27.9673  -20.2136  -14.5380 N   0  0  0  0  0  0  0  0  0  0  0  0
   27.2993  -19.6318  -12.2777 C   0  0  0  0  0  0  0  0  0  0  0  0
   27.0690  -18.7716  -11.3918 O   0  0  0  0  0  0  0  0  0  0  0  0
   27.0769  -20.9831  -11.9951 N   0  0  0  0  0  0  0  0  0  0  0  0
   26.5453  -21.5010  -10.7639 C   0  0  1  0  0  0  0  0  0  0  0  0
   27.6007  -21.5636   -9.6773 C   0  0  0  0  0  0  0  0  0  0  0  0
   27.2406  -20.6853   -8.5348 C   0  0  0  0  0  0  0  0  0  0  0  0
   26.1109  -19.8787   -8.4959 C   0  0  0  0  0  0  0  0  0  0  0  0
   26.0968  -19.2198   -7.3185 N   0  0  0  0  0  0  0  0  0  0  0  0
   27.1683  -19.5568   -6.5791 C   0  0  0  0  0  0  0  0  0  0  0  0
   27.6360  -19.1933   -5.3283 C   0  0  0  0  0  0  0  0  0  0  0  0
   28.7918  -19.7085   -4.8039 C   0  0  0  0  0  0  0  0  0  0  0  0
   29.4861  -20.6148   -5.5727 C   0  0  0  0  0  0  0  0  0  0  0  0
   29.0494  -21.0037   -6.8304 C   0  0  0  0  0  0  0  0  0  0  0  0
   27.8898  -20.4776   -7.3399 C   0  0  0  0  0  0  0  0  0  0  0  0
   25.3829  -20.7304  -10.2738 C   0  0  0  0  0  0  0  0  0  0  0  0
   24.9958  -19.6725  -10.7989 O   0  0  0  0  0  0  0  0  0  0  0  0
   24.6919  -21.2147   -9.1732 O   0  0  0  0  0  0  0  0  0  0  0  0
  2  3  2  0
  2  1  1  0
  4  2  1  0
  5  6  1  6
  5  4  1  0
  5  7  1  0
  7  8  2  0
  7 11  1  0
 10  9  1  6
 11 10  1  0
 12 10  1  0
 12 14  1  0
 13 12  2  0
 15 14  1  0
 15 26  1  0
 15 16  1  1
 17 16  1  0
 17 18  2  0
 19 18  1  0
 20 25  2  0
 20 19  1  0
 21 20  1  0
 22 23  1  0
 22 21  2  0
 23 24  2  0
 24 25  1  0
 25 17  1  0
 26 28  1  0
 27 26  2  0
M  END
$$$$
