NAW.pdb
     RDKit          3D

 28 29  0  0  1  0  0  0  0  0999 V2000
   29.8082  -18.6807  -20.2662 N   0  0  0  0  0  0  0  0  0  0  0  0
   30.2559  -19.4535  -19.1733 C   0  0  0  0  0  0  0  0  0  0  0  0
   30.9480  -20.4712  -19.3918 O   0  0  0  0  0  0  0  0  0  0  0  0
   29.9225  -19.0818  -17.7856 C   0  0  0  0  0  0  0  0  0  0  0  0
   28.8988  -17.9595  -17.7157 C   0  0  2  0  0  0  0  0  0  0  0  0
   29.5417  -16.6641  -17.6912 N   0  0  0  0  0  0  0  0  0  0  0  0
   28.1599  -18.1733  -16.4294 C   0  0  0  0  0  0  0  0  0  0  0  0
   28.7915  -18.1116  -15.3527 O   0  0  0  0  0  0  0  0  0  0  0  0
   24.5540  -18.4019  -15.5249 C   0  0  0  0  0  0  0  0  0  0  0  0
   26.0101  -18.6365  -15.1839 C   0  0  2  0  0  0  0  0  0  0  0  0
   26.7760  -18.4424  -16.3881 N   0  0  0  0  0  0  0  0  0  0  0  0
   26.2144  -19.9964  -14.6094 C   0  0  0  0  0  0  0  0  0  0  0  0
   26.4465  -20.9321  -15.4145 O   0  0  0  0  0  0  0  0  0  0  0  0
   26.1603  -20.2689  -13.2389 N   0  0  0  0  0  0  0  0  0  0  0  0
   26.3919  -21.5525  -12.6343 C   0  0  1  0  0  0  0  0  0  0  0  0
   27.4634  -21.4853  -11.5638 C   0  0  0  0  0  0  0  0  0  0  0  0
   26.9187  -20.9249  -10.3005 C   0  0  0  0  0  0  0  0  0  0  0  0
   25.6091  -20.4927  -10.1390 C   0  0  0  0  0  0  0  0  0  0  0  0
   25.4597  -20.0455   -8.8747 N   0  0  0  0  0  0  0  0  0  0  0  0
   26.6142  -20.1641   -8.1953 C   0  0  0  0  0  0  0  0  0  0  0  0
   27.0135  -19.8685   -6.9037 C   0  0  0  0  0  0  0  0  0  0  0  0
   28.2900  -20.1000   -6.4640 C   0  0  0  0  0  0  0  0  0  0  0  0
   29.1790  -20.6453   -7.3622 C   0  0  0  0  0  0  0  0  0  0  0  0
   28.8164  -20.9549   -8.6646 C   0  0  0  0  0  0  0  0  0  0  0  0
   27.5338  -20.7164   -9.0878 C   0  0  0  0  0  0  0  0  0  0  0  0
   25.1645  -22.1451  -12.0622 C   0  0  0  0  0  0  0  0  0  0  0  0
   25.0773  -23.3378  -11.7233 O   0  0  0  0  0  0  0  0  0  0  0  0
   24.0570  -21.3271  -11.8966 O   0  0  0  0  0  0  0  0  0  0  0  0
  2  3  2  0
  2  1  1  0
  4  2  1  0
  5  6  1  1
  5  4  1  0
  5  7  1  0
  7  8  2  0
  7 11  1  0
 10  9  1  6
 11 10  1  0
 12 10  1  0
 12 14  1  0
 13 12  2  0
 15 14  1  0
 15 26  1  0
 15 16  1  1
 17 16  1  0
 17 18  2  0
 19 18  1  0
 20 25  2  0
 20 19  1  0
 21 20  1  0
 22 23  1  0
 22 21  2  0
 23 24  2  0
 24 25  1  0
 25 17  1  0
 26 28  1  0
 27 26  2  0
M  END
$$$$
