NAW.pdb
     RDKit          3D

 28 29  0  0  1  0  0  0  0  0999 V2000
   30.0968  -25.4245  -17.6216 N   0  0  0  0  0  0  0  0  0  0  0  0
   30.3997  -24.0642  -17.8444 C   0  0  0  0  0  0  0  0  0  0  0  0
   30.8955  -23.7235  -18.9401 O   0  0  0  0  0  0  0  0  0  0  0  0
   30.1419  -23.0437  -16.8113 C   0  0  0  0  0  0  0  0  0  0  0  0
   29.0498  -22.0676  -17.2199 C   0  0  2  0  0  0  0  0  0  0  0  0
   29.5661  -21.0400  -18.0970 N   0  0  0  0  0  0  0  0  0  0  0  0
   28.5767  -21.4413  -15.9431 C   0  0  0  0  0  0  0  0  0  0  0  0
   28.8436  -22.0038  -14.8594 O   0  0  0  0  0  0  0  0  0  0  0  0
   26.6785  -18.3069  -15.1422 C   0  0  0  0  0  0  0  0  0  0  0  0
   27.3398  -19.6036  -14.7265 C   0  0  2  0  0  0  0  0  0  0  0  0
   27.8399  -20.2389  -15.9184 N   0  0  0  0  0  0  0  0  0  0  0  0
   26.3864  -20.4799  -13.9888 C   0  0  0  0  0  0  0  0  0  0  0  0
   25.6093  -21.1898  -14.6743 O   0  0  0  0  0  0  0  0  0  0  0  0
   26.3223  -20.5443  -12.5934 N   0  0  0  0  0  0  0  0  0  0  0  0
   25.5664  -21.5051  -11.8370 C   0  0  1  0  0  0  0  0  0  0  0  0
   26.3599  -22.0490  -10.6653 C   0  0  0  0  0  0  0  0  0  0  0  0
   26.5158  -21.0202   -9.6051 C   0  0  0  0  0  0  0  0  0  0  0  0
   25.5969  -20.0090   -9.3574 C   0  0  0  0  0  0  0  0  0  0  0  0
   26.0531  -19.2589   -8.3328 N   0  0  0  0  0  0  0  0  0  0  0  0
   27.2331  -19.7314   -7.8939 C   0  0  0  0  0  0  0  0  0  0  0  0
   28.1167  -19.3572   -6.8968 C   0  0  0  0  0  0  0  0  0  0  0  0
   29.2809  -20.0393   -6.6603 C   0  0  0  0  0  0  0  0  0  0  0  0
   29.5496  -21.1275   -7.4591 C   0  0  0  0  0  0  0  0  0  0  0  0
   28.6889  -21.5332   -8.4682 C   0  0  0  0  0  0  0  0  0  0  0  0
   27.5275  -20.8384   -8.6909 C   0  0  0  0  0  0  0  0  0  0  0  0
   24.2801  -20.9646  -11.3487 C   0  0  0  0  0  0  0  0  0  0  0  0
   23.3554  -21.6808  -10.9280 O   0  0  0  0  0  0  0  0  0  0  0  0
   24.0991  -19.5897  -11.3621 O   0  0  0  0  0  0  0  0  0  0  0  0
  2  3  2  0
  2  1  1  0
  4  2  1  0
  5  6  1  6
  5  4  1  0
  5  7  1  0
  7  8  2  0
  7 11  1  0
 10  9  1  6
 11 10  1  0
 12 10  1  0
 12 14  1  0
 13 12  2  0
 15 14  1  0
 15 26  1  0
 15 16  1  1
 17 16  1  0
 17 18  2  0
 19 18  1  0
 20 25  2  0
 20 19  1  0
 21 20  1  0
 22 23  1  0
 22 21  2  0
 23 24  2  0
 24 25  1  0
 25 17  1  0
 26 28  1  0
 27 26  2  0
M  END
$$$$
