NAW.pdb
     RDKit          3D

 28 29  0  0  1  0  0  0  0  0999 V2000
   30.0454  -24.6123  -16.7117 N   0  0  0  0  0  0  0  0  0  0  0  0
   29.6595  -23.3737  -16.1559 C   0  0  0  0  0  0  0  0  0  0  0  0
   30.5363  -22.6245  -15.6737 O   0  0  0  0  0  0  0  0  0  0  0  0
   28.2467  -22.9512  -16.1351 C   0  0  0  0  0  0  0  0  0  0  0  0
   27.3037  -24.0581  -16.5798 C   0  0  2  0  0  0  0  0  0  0  0  0
   27.3234  -24.2180  -18.0171 N   0  0  0  0  0  0  0  0  0  0  0  0
   25.9384  -23.6169  -16.1464 C   0  0  0  0  0  0  0  0  0  0  0  0
   25.4559  -22.5745  -16.6390 O   0  0  0  0  0  0  0  0  0  0  0  0
   23.0978  -25.2421  -14.4661 C   0  0  0  0  0  0  0  0  0  0  0  0
   23.8581  -23.9652  -14.7542 C   0  0  2  0  0  0  0  0  0  0  0  0
   25.1763  -24.3348  -15.2014 N   0  0  0  0  0  0  0  0  0  0  0  0
   23.9061  -23.0862  -13.5517 C   0  0  0  0  0  0  0  0  0  0  0  0
   22.8162  -22.6207  -13.1355 O   0  0  0  0  0  0  0  0  0  0  0  0
   25.0897  -22.7647  -12.8801 N   0  0  0  0  0  0  0  0  0  0  0  0
   25.1963  -21.8693  -11.7605 C   0  0  1  0  0  0  0  0  0  0  0  0
   26.4679  -22.1058  -10.9697 C   0  0  0  0  0  0  0  0  0  0  0  0
   26.5677  -21.1610   -9.8278 C   0  0  0  0  0  0  0  0  0  0  0  0
   25.5624  -20.2790   -9.4542 C   0  0  0  0  0  0  0  0  0  0  0  0
   25.9875  -19.5750   -8.3845 N   0  0  0  0  0  0  0  0  0  0  0  0
   27.2297  -19.9544   -8.0363 C   0  0  0  0  0  0  0  0  0  0  0  0
   28.1170  -19.5747   -7.0445 C   0  0  0  0  0  0  0  0  0  0  0  0
   29.3554  -20.1460   -6.9160 C   0  0  0  0  0  0  0  0  0  0  0  0
   29.6962  -21.1266   -7.8197 C   0  0  0  0  0  0  0  0  0  0  0  0
   28.8344  -21.5340   -8.8272 C   0  0  0  0  0  0  0  0  0  0  0  0
   27.5981  -20.9511   -8.9409 C   0  0  0  0  0  0  0  0  0  0  0  0
   25.1232  -20.4470  -12.1566 C   0  0  0  0  0  0  0  0  0  0  0  0
   24.6383  -19.5615  -11.4316 O   0  0  0  0  0  0  0  0  0  0  0  0
   25.6212  -20.0860  -13.3995 O   0  0  0  0  0  0  0  0  0  0  0  0
  2  3  2  0
  2  1  1  0
  4  2  1  0
  5  6  1  6
  5  4  1  0
  5  7  1  0
  7  8  2  0
  7 11  1  0
 10  9  1  1
 11 10  1  0
 12 10  1  0
 12 14  1  0
 13 12  2  0
 15 14  1  0
 15 26  1  0
 15 16  1  6
 17 16  1  0
 17 18  2  0
 19 18  1  0
 20 25  2  0
 20 19  1  0
 21 20  1  0
 22 23  1  0
 22 21  2  0
 23 24  2  0
 24 25  1  0
 25 17  1  0
 26 28  1  0
 27 26  2  0
M  END
$$$$
