NAW.pdb
     RDKit          3D

 28 29  0  0  1  0  0  0  0  0999 V2000
   26.8593  -15.5557  -17.7734 N   0  0  0  0  0  0  0  0  0  0  0  0
   25.7769  -16.4613  -17.7778 C   0  0  0  0  0  0  0  0  0  0  0  0
   24.6547  -16.0651  -18.1601 O   0  0  0  0  0  0  0  0  0  0  0  0
   25.9473  -17.8597  -17.3413 C   0  0  0  0  0  0  0  0  0  0  0  0
   27.3207  -18.1167  -16.7412 C   0  0  2  0  0  0  0  0  0  0  0  0
   28.3613  -17.9829  -17.7368 N   0  0  0  0  0  0  0  0  0  0  0  0
   27.2820  -19.5315  -16.2481 C   0  0  0  0  0  0  0  0  0  0  0  0
   27.3543  -20.4627  -17.0787 O   0  0  0  0  0  0  0  0  0  0  0  0
   29.2777  -20.8899  -14.4916 C   0  0  0  0  0  0  0  0  0  0  0  0
   27.7874  -20.9859  -14.2440 C   0  0  2  0  0  0  0  0  0  0  0  0
   27.1665  -19.8524  -14.8796 N   0  0  0  0  0  0  0  0  0  0  0  0
   27.4880  -21.0369  -12.7850 C   0  0  0  0  0  0  0  0  0  0  0  0
   28.3543  -21.5555  -12.0377 O   0  0  0  0  0  0  0  0  0  0  0  0
   26.3070  -20.5411  -12.2238 N   0  0  0  0  0  0  0  0  0  0  0  0
   25.3241  -21.3226  -11.5239 C   0  0  1  0  0  0  0  0  0  0  0  0
   25.8804  -21.9086  -10.2411 C   0  0  0  0  0  0  0  0  0  0  0  0
   26.3024  -20.8352   -9.3052 C   0  0  0  0  0  0  0  0  0  0  0  0
   25.6312  -19.6301   -9.1457 C   0  0  0  0  0  0  0  0  0  0  0  0
   26.2859  -18.8954   -8.2224 N   0  0  0  0  0  0  0  0  0  0  0  0
   27.3598  -19.5638   -7.7660 C   0  0  0  0  0  0  0  0  0  0  0  0
   28.3510  -19.2890   -6.8401 C   0  0  0  0  0  0  0  0  0  0  0  0
   29.3551  -20.1780   -6.5612 C   0  0  0  0  0  0  0  0  0  0  0  0
   29.3480  -21.3741   -7.2424 C   0  0  0  0  0  0  0  0  0  0  0  0
   28.3720  -21.6855   -8.1773 C   0  0  0  0  0  0  0  0  0  0  0  0
   27.3739  -20.7834   -8.4440 C   0  0  0  0  0  0  0  0  0  0  0  0
   24.0956  -20.5585  -11.2210 C   0  0  0  0  0  0  0  0  0  0  0  0
   23.9806  -19.3396  -11.4353 O   0  0  0  0  0  0  0  0  0  0  0  0
   23.0195  -21.2383  -10.6704 O   0  0  0  0  0  0  0  0  0  0  0  0
  2  3  2  0
  2  1  1  0
  4  2  1  0
  5  6  1  6
  5  4  1  0
  5  7  1  0
  7  8  2  0
  7 11  1  0
 10  9  1  1
 11 10  1  0
 12 10  1  0
 12 14  1  0
 13 12  2  0
 15 14  1  0
 15 26  1  0
 15 16  1  1
 17 16  1  0
 17 18  2  0
 19 18  1  0
 20 25  2  0
 20 19  1  0
 21 20  1  0
 22 23  1  0
 22 21  2  0
 23 24  2  0
 24 25  1  0
 25 17  1  0
 26 28  1  0
 27 26  2  0
M  END
$$$$
