NAW.pdb
     RDKit          3D

 28 29  0  0  1  0  0  0  0  0999 V2000
   29.9251  -23.7030  -19.5132 N   0  0  0  0  0  0  0  0  0  0  0  0
   30.8459  -22.9838  -18.7214 C   0  0  0  0  0  0  0  0  0  0  0  0
   32.0701  -23.1630  -18.8991 O   0  0  0  0  0  0  0  0  0  0  0  0
   30.3896  -22.0294  -17.6937 C   0  0  0  0  0  0  0  0  0  0  0  0
   28.8769  -22.0227  -17.5392 C   0  0  2  0  0  0  0  0  0  0  0  0
   28.2520  -21.1771  -18.5324 N   0  0  0  0  0  0  0  0  0  0  0  0
   28.6180  -21.4619  -16.1736 C   0  0  0  0  0  0  0  0  0  0  0  0
   28.9902  -22.1123  -15.1732 O   0  0  0  0  0  0  0  0  0  0  0  0
   27.1024  -18.2706  -14.9205 C   0  0  0  0  0  0  0  0  0  0  0  0
   27.6337  -19.6691  -14.6890 C   0  0  2  0  0  0  0  0  0  0  0  0
   27.9687  -20.2258  -15.9743 N   0  0  0  0  0  0  0  0  0  0  0  0
   26.6386  -20.5080  -13.9631 C   0  0  0  0  0  0  0  0  0  0  0  0
   25.9445  -21.2995  -14.6483 O   0  0  0  0  0  0  0  0  0  0  0  0
   26.4492  -20.4527  -12.5787 N   0  0  0  0  0  0  0  0  0  0  0  0
   25.7103  -21.4084  -11.7994 C   0  0  1  0  0  0  0  0  0  0  0  0
   26.5308  -21.9474  -10.6442 C   0  0  0  0  0  0  0  0  0  0  0  0
   26.6563  -20.9361   -9.5635 C   0  0  0  0  0  0  0  0  0  0  0  0
   25.7195  -19.9425   -9.3114 C   0  0  0  0  0  0  0  0  0  0  0  0
   26.1497  -19.2049   -8.2667 N   0  0  0  0  0  0  0  0  0  0  0  0
   27.3297  -19.6688   -7.8187 C   0  0  0  0  0  0  0  0  0  0  0  0
   28.1931  -19.3004   -6.8018 C   0  0  0  0  0  0  0  0  0  0  0  0
   29.3632  -19.9703   -6.5602 C   0  0  0  0  0  0  0  0  0  0  0  0
   29.6593  -21.0399   -7.3743 C   0  0  0  0  0  0  0  0  0  0  0  0
   28.8195  -21.4391   -8.4034 C   0  0  0  0  0  0  0  0  0  0  0  0
   27.6517  -20.7568   -8.6310 C   0  0  0  0  0  0  0  0  0  0  0  0
   24.4368  -20.8635  -11.2834 C   0  0  0  0  0  0  0  0  0  0  0  0
   23.5414  -21.5718  -10.7921 O   0  0  0  0  0  0  0  0  0  0  0  0
   24.2340  -19.4933  -11.3524 O   0  0  0  0  0  0  0  0  0  0  0  0
  2  3  2  0
  2  1  1  0
  4  2  1  0
  5  6  1  6
  5  4  1  0
  5  7  1  0
  7  8  2  0
  7 11  1  0
 10  9  1  6
 11 10  1  0
 12 10  1  0
 12 14  1  0
 13 12  2  0
 15 14  1  0
 15 26  1  0
 15 16  1  1
 17 16  1  0
 17 18  2  0
 19 18  1  0
 20 25  2  0
 20 19  1  0
 21 20  1  0
 22 23  1  0
 22 21  2  0
 23 24  2  0
 24 25  1  0
 25 17  1  0
 26 28  1  0
 27 26  2  0
M  END
$$$$
