IMA.pdb
     RDKit          3D

 22 21  0  0  1  0  0  0  0  0999 V2000
   17.1454  -11.7940  -21.5914 C   0  0  0  0  0  0  0  0  0  0  0  0
   18.1604  -11.8286  -20.4958 C   0  0  0  0  0  0  0  0  0  0  0  0
   18.0562  -10.7003  -19.5031 C   0  0  2  0  0  0  0  0  0  0  0  0
   18.3313   -9.4287  -20.2751 C   0  0  0  0  0  0  0  0  0  0  0  0
   19.1739  -10.8431  -18.4638 C   0  0  2  0  0  0  0  0  0  0  0  0
   18.8275  -12.0974  -17.7673 N   0  0  0  0  0  0  0  0  0  0  0  0
   19.1554   -9.7729  -17.4532 C   0  0  0  0  0  0  0  0  0  0  0  0
   18.2063   -9.7606  -16.6044 O   0  0  0  0  0  0  0  0  0  0  0  0
   22.8206  -10.6736  -12.6565 C   0  0  0  0  0  0  0  0  0  0  0  0
   22.8123   -9.1585  -13.6740 S   0  0  0  0  0  0  0  0  0  0  0  0
   21.2423   -9.1178  -14.5882 C   0  0  0  0  0  0  0  0  0  0  0  0
   21.2468   -7.8857  -15.4251 C   0  0  0  0  0  0  0  0  0  0  0  0
   19.9905   -7.7157  -16.2812 C   0  0  2  0  0  0  0  0  0  0  0  0
   20.1167   -8.7329  -17.3296 N   0  0  0  0  0  0  0  0  0  0  0  0
   19.8149   -6.3586  -16.7769 C   0  0  0  0  0  0  0  0  0  0  0  0
   20.6526   -5.9123  -17.6338 O   0  0  0  0  0  0  0  0  0  0  0  0
   17.3673   -3.5210  -16.5167 C   0  0  0  0  0  0  0  0  0  0  0  0
   18.7292   -4.0885  -16.9254 C   0  0  2  0  0  0  0  0  0  0  0  0
   18.7950   -5.4429  -16.4145 N   0  0  0  0  0  0  0  0  0  0  0  0
   19.7691   -3.2199  -16.3512 C   0  0  0  0  0  0  0  0  0  0  0  0
   20.4777   -3.5876  -15.3822 O   0  0  0  0  0  0  0  0  0  0  0  0
   20.0045   -1.9552  -16.8644 O   0  0  0  0  0  0  0  0  0  0  0  0
  1  2  1  0
  3  5  1  0
  3  4  1  6
  3  2  1  0
  5  7  1  0
  5  6  1  1
  7 14  1  0
  7  8  2  0
  9 10  1  0
 10 11  1  0
 11 12  1  0
 13 15  1  0
 13 12  1  6
 14 13  1  0
 15 16  2  0
 18 17  1  1
 18 19  1  0
 19 15  1  0
 20 18  1  0
 21 20  2  0
 22 20  1  0
M  END
$$$$
