IMA.pdb
     RDKit          3D

 22 21  0  0  1  0  0  0  0  0999 V2000
   13.1711  -11.5567  -17.7907 C   0  0  0  0  0  0  0  0  0  0  0  0
   14.6196  -11.6298  -17.4327 C   0  0  0  0  0  0  0  0  0  0  0  0
   15.1036  -10.5238  -16.5317 C   0  0  2  0  0  0  0  0  0  0  0  0
   15.0130   -9.2478  -17.3394 C   0  0  0  0  0  0  0  0  0  0  0  0
   16.5866  -10.7485  -16.2154 C   0  0  2  0  0  0  0  0  0  0  0  0
   16.5726  -11.9692  -15.3859 N   0  0  0  0  0  0  0  0  0  0  0  0
   17.1642   -9.6758  -15.3892 C   0  0  0  0  0  0  0  0  0  0  0  0
   16.7603   -9.5556  -14.1876 O   0  0  0  0  0  0  0  0  0  0  0  0
   22.6871   -9.4386  -13.8502 C   0  0  0  0  0  0  0  0  0  0  0  0
   22.6463   -7.6143  -13.8843 S   0  0  0  0  0  0  0  0  0  0  0  0
   20.9027   -7.1024  -13.8807 C   0  0  0  0  0  0  0  0  0  0  0  0
   20.1639   -8.0337  -14.7781 C   0  0  0  0  0  0  0  0  0  0  0  0
   18.6689   -7.7293  -14.8889 C   0  0  2  0  0  0  0  0  0  0  0  0
   18.1518   -8.7448  -15.8117 N   0  0  0  0  0  0  0  0  0  0  0  0
   18.3920   -6.3570  -15.2870 C   0  0  0  0  0  0  0  0  0  0  0  0
   18.6865   -5.9997  -16.4790 O   0  0  0  0  0  0  0  0  0  0  0  0
   16.4609   -3.4017  -14.0863 C   0  0  0  0  0  0  0  0  0  0  0  0
   17.5456   -4.0020  -14.9845 C   0  0  2  0  0  0  0  0  0  0  0  0
   17.8162   -5.3365  -14.4890 N   0  0  0  0  0  0  0  0  0  0  0  0
   18.7255   -3.1255  -14.9123 C   0  0  0  0  0  0  0  0  0  0  0  0
   19.7151   -3.4058  -14.1923 O   0  0  0  0  0  0  0  0  0  0  0  0
   18.7859   -1.9502  -15.6426 O   0  0  0  0  0  0  0  0  0  0  0  0
  1  2  1  0
  3  5  1  0
  3  4  1  6
  3  2  1  0
  5  7  1  0
  5  6  1  1
  7 14  1  0
  7  8  2  0
  9 10  1  0
 10 11  1  0
 11 12  1  0
 13 15  1  0
 13 12  1  6
 14 13  1  0
 15 16  2  0
 18 17  1  1
 18 19  1  0
 19 15  1  0
 20 18  1  0
 21 20  2  0
 22 20  1  0
M  END
$$$$
