IMA.pdb
     RDKit          3D

 22 21  0  0  1  0  0  0  0  0999 V2000
   16.7162  -10.3393  -21.2382 C   0  0  0  0  0  0  0  0  0  0  0  0
   18.0279  -10.8682  -20.7571 C   0  0  0  0  0  0  0  0  0  0  0  0
   18.5668  -10.1920  -19.5235 C   0  0  2  0  0  0  0  0  0  0  0  0
   18.8871   -8.7690  -19.9249 C   0  0  0  0  0  0  0  0  0  0  0  0
   19.8916  -10.8540  -19.1281 C   0  0  2  0  0  0  0  0  0  0  0  0
   19.4831  -12.2176  -18.7379 N   0  0  0  0  0  0  0  0  0  0  0  0
   20.5084  -10.2361  -17.9429 C   0  0  0  0  0  0  0  0  0  0  0  0
   19.9441  -10.4012  -16.8134 O   0  0  0  0  0  0  0  0  0  0  0  0
   26.1022  -11.1425  -14.8329 C   0  0  0  0  0  0  0  0  0  0  0  0
   26.1391   -9.4849  -15.5956 S   0  0  0  0  0  0  0  0  0  0  0  0
   24.4590   -8.7985  -15.5027 C   0  0  0  0  0  0  0  0  0  0  0  0
   23.6909   -9.3449  -16.6560 C   0  0  0  0  0  0  0  0  0  0  0  0
   22.2267   -8.9033  -16.6881 C   0  0  2  0  0  0  0  0  0  0  0  0
   21.6996   -9.4602  -17.9379 N   0  0  0  0  0  0  0  0  0  0  0  0
   22.0597   -7.4639  -16.5524 C   0  0  0  0  0  0  0  0  0  0  0  0
   22.5638   -6.7071  -17.4516 O   0  0  0  0  0  0  0  0  0  0  0  0
   19.8957   -5.0298  -14.8238 C   0  0  0  0  0  0  0  0  0  0  0  0
   21.2477   -5.3353  -15.4738 C   0  0  2  0  0  0  0  0  0  0  0  0
   21.3838   -6.7773  -15.5124 N   0  0  0  0  0  0  0  0  0  0  0  0
   22.2930   -4.6935  -14.6606 C   0  0  0  0  0  0  0  0  0  0  0  0
   23.0541   -5.3590  -13.9162 O   0  0  0  0  0  0  0  0  0  0  0  0
   22.4752   -3.3208  -14.6885 O   0  0  0  0  0  0  0  0  0  0  0  0
  1  2  1  0
  3  5  1  0
  3  4  1  6
  3  2  1  0
  5  7  1  0
  5  6  1  1
  7 14  1  0
  7  8  2  0
  9 10  1  0
 10 11  1  0
 11 12  1  0
 13 15  1  0
 13 12  1  6
 14 13  1  0
 15 16  2  0
 18 17  1  1
 18 19  1  0
 19 15  1  0
 20 18  1  0
 21 20  2  0
 22 20  1  0
M  END
$$$$
