IMA.pdb
     RDKit          3D

 22 21  0  0  1  0  0  0  0  0999 V2000
   18.7335  -18.4420  -13.6811 C   0  0  0  0  0  0  0  0  0  0  0  0
   19.6738  -19.5750  -13.9336 C   0  0  0  0  0  0  0  0  0  0  0  0
   21.1117  -19.1703  -14.1286 C   0  0  2  0  0  0  0  0  0  0  0  0
   21.1457  -18.3095  -15.3722 C   0  0  0  0  0  0  0  0  0  0  0  0
   21.9476  -20.4201  -14.4268 C   0  0  2  0  0  0  0  0  0  0  0  0
   21.5559  -21.3515  -13.3510 N   0  0  0  0  0  0  0  0  0  0  0  0
   23.3943  -20.1876  -14.2864 C   0  0  0  0  0  0  0  0  0  0  0  0
   23.9447  -19.3297  -15.0497 O   0  0  0  0  0  0  0  0  0  0  0  0
   29.8605  -21.3169   -9.9641 C   0  0  0  0  0  0  0  0  0  0  0  0
   28.0659  -21.5480  -10.2030 S   0  0  0  0  0  0  0  0  0  0  0  0
   27.6965  -21.2203  -11.9518 C   0  0  0  0  0  0  0  0  0  0  0  0
   26.2185  -21.3018  -12.1171 C   0  0  0  0  0  0  0  0  0  0  0  0
   25.6936  -20.5693  -13.3532 C   0  0  2  0  0  0  0  0  0  0  0  0
   24.2525  -20.8396  -13.3594 N   0  0  0  0  0  0  0  0  0  0  0  0
   26.3825  -20.9473  -14.5782 C   0  0  0  0  0  0  0  0  0  0  0  0
   26.2430  -22.1434  -15.0086 O   0  0  0  0  0  0  0  0  0  0  0  0
   28.6457  -19.4073  -17.1617 C   0  0  0  0  0  0  0  0  0  0  0  0
   27.8375  -20.5819  -16.6039 C   0  0  2  0  0  0  0  0  0  0  0  0
   27.2148  -20.1243  -15.3782 N   0  0  0  0  0  0  0  0  0  0  0  0
   28.7667  -21.7007  -16.3788 C   0  0  0  0  0  0  0  0  0  0  0  0
   29.1459  -22.4448  -17.3162 O   0  0  0  0  0  0  0  0  0  0  0  0
   29.2596  -21.9741  -15.1137 O   0  0  0  0  0  0  0  0  0  0  0  0
  1  2  1  0
  3  5  1  0
  3  4  1  6
  3  2  1  0
  5  7  1  0
  5  6  1  1
  7 14  1  0
  7  8  2  0
  9 10  1  0
 10 11  1  0
 11 12  1  0
 13 15  1  0
 13 12  1  1
 14 13  1  0
 15 16  2  0
 18 17  1  1
 18 19  1  0
 19 15  1  0
 20 18  1  0
 21 20  2  0
 22 20  1  0
M  END
$$$$
