IMA.pdb
     RDKit          3D

 22 21  0  0  1  0  0  0  0  0999 V2000
   18.8802  -22.2720  -14.9541 C   0  0  0  0  0  0  0  0  0  0  0  0
   19.5206  -22.0723  -13.6193 C   0  0  0  0  0  0  0  0  0  0  0  0
   20.8760  -21.4163  -13.6614 C   0  0  2  0  0  0  0  0  0  0  0  0
   21.7749  -22.3487  -14.4432 C   0  0  0  0  0  0  0  0  0  0  0  0
   21.4400  -21.3405  -12.2381 C   0  0  2  0  0  0  0  0  0  0  0  0
   20.5446  -20.3744  -11.5723 N   0  0  0  0  0  0  0  0  0  0  0  0
   22.7965  -20.7708  -12.1898 C   0  0  0  0  0  0  0  0  0  0  0  0
   22.9610  -19.5701  -12.5802 O   0  0  0  0  0  0  0  0  0  0  0  0
   26.9280  -20.0744   -7.5374 C   0  0  0  0  0  0  0  0  0  0  0  0
   27.9331  -21.0555   -8.7028 S   0  0  0  0  0  0  0  0  0  0  0  0
   27.3626  -20.6673  -10.3839 C   0  0  0  0  0  0  0  0  0  0  0  0
   25.9951  -21.2386  -10.5326 C   0  0  0  0  0  0  0  0  0  0  0  0
   25.2782  -20.8011  -11.8111 C   0  0  2  0  0  0  0  0  0  0  0  0
   23.9631  -21.4452  -11.7369 N   0  0  0  0  0  0  0  0  0  0  0  0
   26.0293  -21.1031  -13.0206 C   0  0  0  0  0  0  0  0  0  0  0  0
   26.1720  -22.3288  -13.3562 O   0  0  0  0  0  0  0  0  0  0  0  0
   27.8452  -19.2855  -15.7713 C   0  0  0  0  0  0  0  0  0  0  0  0
   27.3051  -20.5650  -15.1269 C   0  0  2  0  0  0  0  0  0  0  0  0
   26.6403  -20.1742  -13.9002 N   0  0  0  0  0  0  0  0  0  0  0  0
   28.4455  -21.4636  -14.8867 C   0  0  0  0  0  0  0  0  0  0  0  0
   28.9704  -21.5778  -13.7520 O   0  0  0  0  0  0  0  0  0  0  0  0
   28.9841  -22.2215  -15.9132 O   0  0  0  0  0  0  0  0  0  0  0  0
  1  2  1  0
  3  5  1  0
  3  4  1  6
  3  2  1  0
  5  7  1  0
  5  6  1  1
  7 14  1  0
  7  8  2  0
  9 10  1  0
 10 11  1  0
 11 12  1  0
 13 15  1  0
 13 12  1  1
 14 13  1  0
 15 16  2  0
 18 17  1  1
 18 19  1  0
 19 15  1  0
 20 18  1  0
 21 20  2  0
 22 20  1  0
M  END
$$$$
