IMA.pdb
     RDKit          3D

 22 21  0  0  1  0  0  0  0  0999 V2000
   28.5901  -13.6023  -15.8383 C   0  0  0  0  0  0  0  0  0  0  0  0
   27.1227  -13.5949  -15.5584 C   0  0  0  0  0  0  0  0  0  0  0  0
   26.4070  -12.3368  -15.9757 C   0  0  2  0  0  0  0  0  0  0  0  0
   26.9342  -11.2331  -15.0853 C   0  0  0  0  0  0  0  0  0  0  0  0
   24.9128  -12.4849  -15.6670 C   0  0  2  0  0  0  0  0  0  0  0  0
   24.5139  -13.6470  -16.4848 N   0  0  0  0  0  0  0  0  0  0  0  0
   24.1159  -11.3387  -16.1340 C   0  0  0  0  0  0  0  0  0  0  0  0
   24.0461  -11.1225  -17.3869 O   0  0  0  0  0  0  0  0  0  0  0  0
   17.3071   -8.4240  -16.8141 C   0  0  0  0  0  0  0  0  0  0  0  0
   18.5475   -9.6735  -16.3334 S   0  0  0  0  0  0  0  0  0  0  0  0
   20.1843   -8.8899  -16.4297 C   0  0  0  0  0  0  0  0  0  0  0  0
   21.1789   -9.8731  -15.9171 C   0  0  0  0  0  0  0  0  0  0  0  0
   22.6133   -9.3425  -15.8872 C   0  0  2  0  0  0  0  0  0  0  0  0
   23.3996  -10.4340  -15.3037 N   0  0  0  0  0  0  0  0  0  0  0  0
   22.7390   -8.0707  -15.1907 C   0  0  0  0  0  0  0  0  0  0  0  0
   22.6661   -8.0682  -13.9140 O   0  0  0  0  0  0  0  0  0  0  0  0
   23.3435   -4.4411  -15.9791 C   0  0  0  0  0  0  0  0  0  0  0  0
   23.0415   -5.5758  -14.9966 C   0  0  2  0  0  0  0  0  0  0  0  0
   22.9398   -6.7943  -15.7741 N   0  0  0  0  0  0  0  0  0  0  0  0
   21.7873   -5.2465  -14.3008 C   0  0  0  0  0  0  0  0  0  0  0  0
   20.6738   -5.6498  -14.7176 O   0  0  0  0  0  0  0  0  0  0  0  0
   21.7917   -4.4733  -13.1517 O   0  0  0  0  0  0  0  0  0  0  0  0
  1  2  1  0
  3  5  1  0
  3  4  1  1
  3  2  1  0
  5  7  1  0
  5  6  1  6
  7 14  1  0
  7  8  2  0
  9 10  1  0
 10 11  1  0
 11 12  1  0
 13 15  1  0
 13 12  1  1
 14 13  1  0
 15 16  2  0
 18 17  1  6
 18 19  1  0
 19 15  1  0
 20 18  1  0
 21 20  2  0
 22 20  1  0
M  END
$$$$
