IMA.pdb
     RDKit          3D

 22 21  0  0  1  0  0  0  0  0999 V2000
   26.6845  -15.4293  -17.4138 C   0  0  0  0  0  0  0  0  0  0  0  0
   27.4793  -16.3122  -16.5080 C   0  0  0  0  0  0  0  0  0  0  0  0
   26.6947  -17.4245  -15.8628 C   0  0  2  0  0  0  0  0  0  0  0  0
   25.6361  -16.7590  -15.0112 C   0  0  0  0  0  0  0  0  0  0  0  0
   27.6134  -18.1984  -14.9106 C   0  0  2  0  0  0  0  0  0  0  0  0
   28.5731  -18.8492  -15.8237 N   0  0  0  0  0  0  0  0  0  0  0  0
   26.9135  -19.2730  -14.1879 C   0  0  0  0  0  0  0  0  0  0  0  0
   26.5901  -20.3225  -14.8324 O   0  0  0  0  0  0  0  0  0  0  0  0
   27.4687  -20.5580   -7.9426 C   0  0  0  0  0  0  0  0  0  0  0  0
   25.6712  -20.8153   -8.1262 S   0  0  0  0  0  0  0  0  0  0  0  0
   25.3478  -21.2179   -9.8686 C   0  0  0  0  0  0  0  0  0  0  0  0
   25.9764  -20.1505  -10.6958 C   0  0  0  0  0  0  0  0  0  0  0  0
   25.8478  -20.3803  -12.2026 C   0  0  2  0  0  0  0  0  0  0  0  0
   26.5602  -19.2524  -12.8111 N   0  0  0  0  0  0  0  0  0  0  0  0
   24.4688  -20.5299  -12.6433 C   0  0  0  0  0  0  0  0  0  0  0  0
   23.7123  -19.4989  -12.6306 O   0  0  0  0  0  0  0  0  0  0  0  0
   22.1965  -23.1899  -14.0291 C   0  0  0  0  0  0  0  0  0  0  0  0
   22.4563  -21.7704  -13.5179 C   0  0  2  0  0  0  0  0  0  0  0  0
   23.8428  -21.7170  -13.1005 N   0  0  0  0  0  0  0  0  0  0  0  0
   21.5246  -21.5145  -12.4078 C   0  0  0  0  0  0  0  0  0  0  0  0
   21.9213  -21.4137  -11.2209 O   0  0  0  0  0  0  0  0  0  0  0  0
   20.1657  -21.3747  -12.6358 O   0  0  0  0  0  0  0  0  0  0  0  0
  1  2  1  0
  3  5  1  0
  3  4  1  1
  3  2  1  0
  5  7  1  0
  5  6  1  6
  7 14  1  0
  7  8  2  0
  9 10  1  0
 10 11  1  0
 11 12  1  0
 13 15  1  0
 13 12  1  1
 14 13  1  0
 15 16  2  0
 18 17  1  1
 18 19  1  0
 19 15  1  0
 20 18  1  0
 21 20  2  0
 22 20  1  0
M  END
$$$$
