IMA.pdb
     RDKit          3D

 22 21  0  0  1  0  0  0  0  0999 V2000
   26.0492  -36.8592  -17.2281 C   0  0  0  0  0  0  0  0  0  0  0  0
   25.7411  -35.5902  -16.5025 C   0  0  0  0  0  0  0  0  0  0  0  0
   26.4096  -35.4529  -15.1595 C   0  0  2  0  0  0  0  0  0  0  0  0
   25.8828  -36.5848  -14.3051 C   0  0  0  0  0  0  0  0  0  0  0  0
   25.9505  -34.1460  -14.5030 C   0  0  2  0  0  0  0  0  0  0  0  0
   26.6303  -33.1098  -15.3046 N   0  0  0  0  0  0  0  0  0  0  0  0
   26.4316  -34.0012  -13.1193 C   0  0  0  0  0  0  0  0  0  0  0  0
   27.6564  -33.7067  -12.9338 O   0  0  0  0  0  0  0  0  0  0  0  0
   24.8062  -31.6640   -5.9043 C   0  0  0  0  0  0  0  0  0  0  0  0
   24.4692  -31.7646   -7.6952 S   0  0  0  0  0  0  0  0  0  0  0  0
   25.6518  -32.9433   -8.4126 C   0  0  0  0  0  0  0  0  0  0  0  0
   25.3113  -33.0929   -9.8549 C   0  0  0  0  0  0  0  0  0  0  0  0
   26.2455  -34.0354  -10.6158 C   0  0  2  0  0  0  0  0  0  0  0  0
   25.6430  -34.1583  -11.9470 N   0  0  0  0  0  0  0  0  0  0  0  0
   26.4609  -35.3024   -9.9329 C   0  0  0  0  0  0  0  0  0  0  0  0
   25.5580  -36.2032  -10.0258 O   0  0  0  0  0  0  0  0  0  0  0  0
   29.1257  -37.0272   -7.9147 C   0  0  0  0  0  0  0  0  0  0  0  0
   27.7236  -36.9707   -8.5271 C   0  0  2  0  0  0  0  0  0  0  0  0
   27.5863  -35.6714   -9.1536 N   0  0  0  0  0  0  0  0  0  0  0  0
   26.7505  -37.1778   -7.4428 C   0  0  0  0  0  0  0  0  0  0  0  0
   26.1966  -36.2148   -6.8579 O   0  0  0  0  0  0  0  0  0  0  0  0
   26.4086  -38.4536   -7.0261 O   0  0  0  0  0  0  0  0  0  0  0  0
  1  2  1  0
  3  5  1  0
  3  4  1  1
  3  2  1  0
  5  7  1  0
  5  6  1  6
  7 14  1  0
  7  8  2  0
  9 10  1  0
 10 11  1  0
 11 12  1  0
 13 15  1  0
 13 12  1  1
 14 13  1  0
 15 16  2  0
 18 17  1  1
 18 19  1  0
 19 15  1  0
 20 18  1  0
 21 20  2  0
 22 20  1  0
M  END
$$$$
