IMA.pdb
     RDKit          3D

 22 21  0  0  1  0  0  0  0  0999 V2000
   15.2326  -13.6760  -17.7384 C   0  0  0  0  0  0  0  0  0  0  0  0
   16.6989  -13.5571  -17.4787 C   0  0  0  0  0  0  0  0  0  0  0  0
   17.0995  -12.3580  -16.6596 C   0  0  2  0  0  0  0  0  0  0  0  0
   16.7111  -11.1411  -17.4701 C   0  0  0  0  0  0  0  0  0  0  0  0
   18.6259  -12.3340  -16.5205 C   0  0  2  0  0  0  0  0  0  0  0  0
   18.9097  -13.5401  -15.7185 N   0  0  0  0  0  0  0  0  0  0  0  0
   19.1116  -11.1804  -15.7457 C   0  0  0  0  0  0  0  0  0  0  0  0
   18.6965  -11.0382  -14.5504 O   0  0  0  0  0  0  0  0  0  0  0  0
   24.9734  -11.5274  -13.8393 C   0  0  0  0  0  0  0  0  0  0  0  0
   24.2666  -10.0360  -14.6185 S   0  0  0  0  0  0  0  0  0  0  0  0
   22.4570  -10.1953  -14.5715 C   0  0  0  0  0  0  0  0  0  0  0  0
   21.8891   -9.0383  -15.3181 C   0  0  0  0  0  0  0  0  0  0  0  0
   20.3607   -9.0333  -15.3807 C   0  0  2  0  0  0  0  0  0  0  0  0
   20.0206  -10.1921  -16.2124 N   0  0  0  0  0  0  0  0  0  0  0  0
   19.8111   -7.7711  -15.8529 C   0  0  0  0  0  0  0  0  0  0  0  0
   19.9518   -7.4722  -17.0883 O   0  0  0  0  0  0  0  0  0  0  0  0
   17.2926   -5.2522  -14.9639 C   0  0  0  0  0  0  0  0  0  0  0  0
   18.6343   -5.5524  -15.6375 C   0  0  2  0  0  0  0  0  0  0  0  0
   19.1157   -6.8027  -15.0857 N   0  0  0  0  0  0  0  0  0  0  0  0
   19.5406   -4.4277  -15.3560 C   0  0  0  0  0  0  0  0  0  0  0  0
   20.5604   -4.5636  -14.6364 O   0  0  0  0  0  0  0  0  0  0  0  0
   19.2979   -3.1687  -15.8798 O   0  0  0  0  0  0  0  0  0  0  0  0
  1  2  1  0
  3  5  1  0
  3  4  1  6
  3  2  1  0
  5  7  1  0
  5  6  1  1
  7 14  1  0
  7  8  2  0
  9 10  1  0
 10 11  1  0
 11 12  1  0
 13 15  1  0
 13 12  1  6
 14 13  1  0
 15 16  2  0
 18 17  1  1
 18 19  1  0
 19 15  1  0
 20 18  1  0
 21 20  2  0
 22 20  1  0
M  END
$$$$
