IMA.pdb
     RDKit          3D

 22 21  0  0  1  0  0  0  0  0999 V2000
   25.0643  -12.4907  -21.5577 C   0  0  0  0  0  0  0  0  0  0  0  0
   25.0775  -12.7157  -20.0809 C   0  0  0  0  0  0  0  0  0  0  0  0
   24.1300  -11.8421  -19.3009 C   0  0  2  0  0  0  0  0  0  0  0  0
   24.5619  -10.4146  -19.5549 C   0  0  0  0  0  0  0  0  0  0  0  0
   24.3219  -12.1077  -17.8035 C   0  0  2  0  0  0  0  0  0  0  0  0
   23.9569  -13.5310  -17.6646 N   0  0  0  0  0  0  0  0  0  0  0  0
   23.3874  -11.3419  -16.9624 C   0  0  0  0  0  0  0  0  0  0  0  0
   22.1382  -11.4885  -17.1604 O   0  0  0  0  0  0  0  0  0  0  0  0
   20.9494   -9.5654  -10.0226 C   0  0  0  0  0  0  0  0  0  0  0  0
   22.1087  -10.3551  -11.1902 S   0  0  0  0  0  0  0  0  0  0  0  0
   21.8249   -9.6218  -12.8285 C   0  0  0  0  0  0  0  0  0  0  0  0
   22.7570  -10.2870  -13.7811 C   0  0  0  0  0  0  0  0  0  0  0  0
   22.7315   -9.6900  -15.1892 C   0  0  2  0  0  0  0  0  0  0  0  0
   23.7534  -10.4389  -15.9273 N   0  0  0  0  0  0  0  0  0  0  0  0
   22.9159   -8.2463  -15.2024 C   0  0  0  0  0  0  0  0  0  0  0  0
   24.0681   -7.7789  -14.9039 O   0  0  0  0  0  0  0  0  0  0  0  0
   20.9984   -5.1353  -16.0803 C   0  0  0  0  0  0  0  0  0  0  0  0
   22.2080   -5.8410  -15.4617 C   0  0  2  0  0  0  0  0  0  0  0  0
   21.9428   -7.2644  -15.5170 N   0  0  0  0  0  0  0  0  0  0  0  0
   22.3583   -5.3503  -14.0824 C   0  0  0  0  0  0  0  0  0  0  0  0
   21.8593   -5.9601  -13.1050 O   0  0  0  0  0  0  0  0  0  0  0  0
   23.0618   -4.1883  -13.8122 O   0  0  0  0  0  0  0  0  0  0  0  0
  1  2  1  0
  3  5  1  0
  3  4  1  1
  3  2  1  0
  5  7  1  0
  5  6  1  6
  7 14  1  0
  7  8  2  0
  9 10  1  0
 10 11  1  0
 11 12  1  0
 13 15  1  0
 13 12  1  1
 14 13  1  0
 15 16  2  0
 18 17  1  1
 18 19  1  0
 19 15  1  0
 20 18  1  0
 21 20  2  0
 22 20  1  0
M  END
$$$$
