IMA.pdb
     RDKit          3D

 22 21  0  0  1  0  0  0  0  0999 V2000
   28.0273  -19.0448  -19.0664 C   0  0  0  0  0  0  0  0  0  0  0  0
   28.4879  -19.6322  -17.7724 C   0  0  0  0  0  0  0  0  0  0  0  0
   27.3825  -20.1105  -16.8675 C   0  0  2  0  0  0  0  0  0  0  0  0
   26.5818  -18.8836  -16.4902 C   0  0  0  0  0  0  0  0  0  0  0  0
   27.9961  -20.6592  -15.5744 C   0  0  2  0  0  0  0  0  0  0  0  0
   28.6955  -21.8784  -16.0247 N   0  0  0  0  0  0  0  0  0  0  0  0
   26.9822  -21.0839  -14.5954 C   0  0  0  0  0  0  0  0  0  0  0  0
   26.3131  -22.1396  -14.8388 O   0  0  0  0  0  0  0  0  0  0  0  0
   25.4572  -21.6260   -7.2665 C   0  0  0  0  0  0  0  0  0  0  0  0
   25.7687  -20.2693   -8.4469 S   0  0  0  0  0  0  0  0  0  0  0  0
   25.0257  -20.7412  -10.0367 C   0  0  0  0  0  0  0  0  0  0  0  0
   25.9969  -20.3794  -11.1064 C   0  0  0  0  0  0  0  0  0  0  0  0
   25.6293  -20.9282  -12.4862 C   0  0  2  0  0  0  0  0  0  0  0  0
   26.6746  -20.4168  -13.3783 N   0  0  0  0  0  0  0  0  0  0  0  0
   24.2729  -20.5923  -12.8931 C   0  0  0  0  0  0  0  0  0  0  0  0
   23.9743  -19.3588  -13.0501 O   0  0  0  0  0  0  0  0  0  0  0  0
   21.3058  -22.1781  -14.4312 C   0  0  0  0  0  0  0  0  0  0  0  0
   21.8870  -21.0659  -13.5541 C   0  0  2  0  0  0  0  0  0  0  0  0
   23.2093  -21.4950  -13.1456 N   0  0  0  0  0  0  0  0  0  0  0  0
   20.9801  -20.8740  -12.4111 C   0  0  0  0  0  0  0  0  0  0  0  0
   19.8144  -20.4316  -12.5583 O   0  0  0  0  0  0  0  0  0  0  0  0
   21.3845  -21.1776  -11.1217 O   0  0  0  0  0  0  0  0  0  0  0  0
  1  2  1  0
  3  5  1  0
  3  4  1  1
  3  2  1  0
  5  7  1  0
  5  6  1  6
  7 14  1  0
  7  8  2  0
  9 10  1  0
 10 11  1  0
 11 12  1  0
 13 15  1  0
 13 12  1  1
 14 13  1  0
 15 16  2  0
 18 17  1  6
 18 19  1  0
 19 15  1  0
 20 18  1  0
 21 20  2  0
 22 20  1  0
M  END
$$$$
