IMA.pdb
     RDKit          3D

 22 21  0  0  1  0  0  0  0  0999 V2000
   28.1881  -17.7828  -16.4426 C   0  0  0  0  0  0  0  0  0  0  0  0
   27.8082  -19.0289  -15.7114 C   0  0  0  0  0  0  0  0  0  0  0  0
   26.3605  -19.4231  -15.8459 C   0  0  2  0  0  0  0  0  0  0  0  0
   25.5607  -18.3487  -15.1426 C   0  0  0  0  0  0  0  0  0  0  0  0
   26.1242  -20.7298  -15.0803 C   0  0  2  0  0  0  0  0  0  0  0  0
   27.0724  -21.6671  -15.7134 N   0  0  0  0  0  0  0  0  0  0  0  0
   24.7747  -21.2793  -15.2894 C   0  0  0  0  0  0  0  0  0  0  0  0
   24.3798  -21.4715  -16.4846 O   0  0  0  0  0  0  0  0  0  0  0  0
   22.3923  -25.9866  -12.7090 C   0  0  0  0  0  0  0  0  0  0  0  0
   20.7237  -25.2484  -12.7536 S   0  0  0  0  0  0  0  0  0  0  0  0
   20.8125  -23.7483  -13.7753 C   0  0  0  0  0  0  0  0  0  0  0  0
   22.1993  -23.2163  -13.6649 C   0  0  0  0  0  0  0  0  0  0  0  0
   22.4837  -22.0345  -14.5935 C   0  0  2  0  0  0  0  0  0  0  0  0
   23.8529  -21.6262  -14.2643 N   0  0  0  0  0  0  0  0  0  0  0  0
   21.4958  -20.9711  -14.4858 C   0  0  0  0  0  0  0  0  0  0  0  0
   21.4614  -20.2815  -13.4095 O   0  0  0  0  0  0  0  0  0  0  0  0
   18.9815  -19.2167  -16.6533 C   0  0  0  0  0  0  0  0  0  0  0  0
   19.6402  -19.4688  -15.2945 C   0  0  2  0  0  0  0  0  0  0  0  0
   20.5375  -20.5944  -15.4604 N   0  0  0  0  0  0  0  0  0  0  0  0
   18.5715  -19.7406  -14.3200 C   0  0  0  0  0  0  0  0  0  0  0  0
   18.1959  -20.9097  -14.0587 O   0  0  0  0  0  0  0  0  0  0  0  0
   17.9373  -18.7068  -13.6512 O   0  0  0  0  0  0  0  0  0  0  0  0
  1  2  1  0
  3  5  1  0
  3  4  1  1
  3  2  1  0
  5  7  1  0
  5  6  1  6
  7 14  1  0
  7  8  2  0
  9 10  1  0
 10 11  1  0
 11 12  1  0
 13 15  1  0
 13 12  1  1
 14 13  1  0
 15 16  2  0
 18 17  1  6
 18 19  1  0
 19 15  1  0
 20 18  1  0
 21 20  2  0
 22 20  1  0
M  END
$$$$
