IMA.pdb
     RDKit          3D

 22 21  0  0  1  0  0  0  0  0999 V2000
   20.4281  -22.9361  -15.2832 C   0  0  0  0  0  0  0  0  0  0  0  0
   20.2125  -21.5182  -14.8649 C   0  0  0  0  0  0  0  0  0  0  0  0
   21.4417  -20.8199  -14.3446 C   0  0  2  0  0  0  0  0  0  0  0  0
   22.5833  -21.2447  -15.2418 C   0  0  0  0  0  0  0  0  0  0  0  0
   21.7583  -21.3442  -12.9394 C   0  0  2  0  0  0  0  0  0  0  0  0
   20.6188  -20.8612  -12.1353 N   0  0  0  0  0  0  0  0  0  0  0  0
   22.9732  -20.7433  -12.3650 C   0  0  0  0  0  0  0  0  0  0  0  0
   23.1183  -19.4808  -12.4458 O   0  0  0  0  0  0  0  0  0  0  0  0
   26.5938  -19.1890   -6.8720 C   0  0  0  0  0  0  0  0  0  0  0  0
   26.5618  -20.9011   -7.5037 S   0  0  0  0  0  0  0  0  0  0  0  0
   26.8113  -20.8291   -9.3022 C   0  0  0  0  0  0  0  0  0  0  0  0
   25.5970  -21.4064   -9.9432 C   0  0  0  0  0  0  0  0  0  0  0  0
   25.2382  -20.7594  -11.2821 C   0  0  2  0  0  0  0  0  0  0  0  0
   24.0191  -21.4512  -11.7125 N   0  0  0  0  0  0  0  0  0  0  0  0
   26.3265  -20.8002  -12.2475 C   0  0  0  0  0  0  0  0  0  0  0  0
   26.9527  -21.9033  -12.4100 O   0  0  0  0  0  0  0  0  0  0  0  0
   29.0943  -20.3061  -13.3827 C   0  0  0  0  0  0  0  0  0  0  0  0
   27.7969  -19.8979  -14.0855 C   0  0  2  0  0  0  0  0  0  0  0  0
   26.7907  -19.7321  -13.0561 N   0  0  0  0  0  0  0  0  0  0  0  0
   27.4511  -20.9599  -15.0438 C   0  0  0  0  0  0  0  0  0  0  0  0
   26.3790  -21.6074  -14.9556 O   0  0  0  0  0  0  0  0  0  0  0  0
   28.3038  -21.2851  -16.0856 O   0  0  0  0  0  0  0  0  0  0  0  0
  1  2  1  0
  3  5  1  0
  3  4  1  6
  3  2  1  0
  5  7  1  0
  5  6  1  1
  7 14  1  0
  7  8  2  0
  9 10  1  0
 10 11  1  0
 11 12  1  0
 13 15  1  0
 13 12  1  1
 14 13  1  0
 15 16  2  0
 18 17  1  1
 18 19  1  0
 19 15  1  0
 20 18  1  0
 21 20  2  0
 22 20  1  0
M  END
$$$$
