MWG.pdb
     RDKit          3D

 27 28  0  0  1  0  0  0  0  0999 V2000
   30.3395  -23.4308  -14.8308 C   0  0  0  0  0  0  0  0  0  0  0  0
   29.9397  -22.6127  -16.3980 S   0  0  0  0  0  0  0  0  0  0  0  0
   28.4665  -21.5664  -16.2054 C   0  0  0  0  0  0  0  0  0  0  0  0
   27.8761  -21.8551  -14.8533 C   0  0  0  0  0  0  0  0  0  0  0  0
   26.5967  -21.0556  -14.6160 C   0  0  2  0  0  0  0  0  0  0  0  0
   26.8818  -19.6304  -14.7211 N   0  0  0  0  0  0  0  0  0  0  0  0
   25.9747  -21.3994  -13.3265 C   0  0  0  0  0  0  0  0  0  0  0  0
   25.7715  -22.6313  -13.1072 O   0  0  0  0  0  0  0  0  0  0  0  0
   25.5943  -20.4913  -12.3350 N   0  0  0  0  0  0  0  0  0  0  0  0
   24.9038  -20.8929  -11.0870 C   0  0  1  0  0  0  0  0  0  0  0  0
   25.5656  -20.0956   -9.9838 C   0  0  0  0  0  0  0  0  0  0  0  0
   26.8964  -20.5240   -9.5992 C   0  0  0  0  0  0  0  0  0  0  0  0
   27.7908  -21.2582  -10.3481 C   0  0  0  0  0  0  0  0  0  0  0  0
   28.8993  -21.4511   -9.6164 N   0  0  0  0  0  0  0  0  0  0  0  0
   28.7822  -20.8717   -8.3993 C   0  0  0  0  0  0  0  0  0  0  0  0
   29.6455  -20.8000   -7.3147 C   0  0  0  0  0  0  0  0  0  0  0  0
   29.2010  -20.1135   -6.1970 C   0  0  0  0  0  0  0  0  0  0  0  0
   27.9556  -19.5286   -6.1664 C   0  0  0  0  0  0  0  0  0  0  0  0
   27.1251  -19.6201   -7.2624 C   0  0  0  0  0  0  0  0  0  0  0  0
   27.5341  -20.2926   -8.3856 C   0  0  0  0  0  0  0  0  0  0  0  0
   23.4682  -20.5815  -11.2115 C   0  0  0  0  0  0  0  0  0  0  0  0
   23.1224  -19.4603  -11.6535 O   0  0  0  0  0  0  0  0  0  0  0  0
   22.4765  -21.5217  -10.8446 N   0  0  0  0  0  0  0  0  0  0  0  0
   21.0605  -21.1310  -10.8274 C   0  0  0  0  0  0  0  0  0  0  0  0
   20.3793  -21.5804  -12.0683 C   0  0  0  0  0  0  0  0  0  0  0  0
   19.0376  -21.3853  -12.3281 O   0  0  0  0  0  0  0  0  0  0  0  0
   21.0602  -22.1761  -12.9404 O   0  0  0  0  0  0  0  0  0  0  0  0
  2  1  1  0
  3  2  1  0
  4  3  1  0
  4  5  1  0
  5  6  1  1
  7  8  2  0
  7  5  1  0
  9  7  1  0
 10  9  1  0
 11 12  1  0
 10 11  1  1
 12 13  2  0
 12 20  1  0
 13 14  1  0
 14 15  1  0
 15 16  2  0
 16 17  1  0
 18 17  2  0
 19 18  1  0
 20 19  2  0
 20 15  1  0
 21 22  2  0
 21 10  1  0
 23 21  1  0
 24 23  1  0
 24 25  1  0
 25 26  1  0
 27 25  2  0
M  END
$$$$
