MWG.pdb
     RDKit          3D

 27 28  0  0  1  0  0  0  0  0999 V2000
   26.1576  -17.0009  -15.8372 C   0  0  0  0  0  0  0  0  0  0  0  0
   27.7477  -17.8015  -16.1776 S   0  0  0  0  0  0  0  0  0  0  0  0
   27.4830  -19.4522  -16.8897 C   0  0  0  0  0  0  0  0  0  0  0  0
   26.7850  -20.2888  -15.8539 C   0  0  0  0  0  0  0  0  0  0  0  0
   27.7012  -20.6012  -14.6726 C   0  0  2  0  0  0  0  0  0  0  0  0
   28.7569  -21.5113  -15.0974 N   0  0  0  0  0  0  0  0  0  0  0  0
   26.9448  -21.1316  -13.5262 C   0  0  0  0  0  0  0  0  0  0  0  0
   26.6664  -22.3680  -13.5555 O   0  0  0  0  0  0  0  0  0  0  0  0
   26.5131  -20.3942  -12.4206 N   0  0  0  0  0  0  0  0  0  0  0  0
   25.5997  -20.9373  -11.3880 C   0  0  1  0  0  0  0  0  0  0  0  0
   25.9755  -20.2309  -10.1033 C   0  0  0  0  0  0  0  0  0  0  0  0
   27.1860  -20.6937   -9.4531 C   0  0  0  0  0  0  0  0  0  0  0  0
   28.1466  -21.5366   -9.9698 C   0  0  0  0  0  0  0  0  0  0  0  0
   29.0938  -21.7230   -9.0374 N   0  0  0  0  0  0  0  0  0  0  0  0
   28.8041  -21.0342   -7.9094 C   0  0  0  0  0  0  0  0  0  0  0  0
   29.4664  -20.9137   -6.6955 C   0  0  0  0  0  0  0  0  0  0  0  0
   28.8798  -20.1098   -5.7322 C   0  0  0  0  0  0  0  0  0  0  0  0
   27.6908  -19.4596   -5.9718 C   0  0  0  0  0  0  0  0  0  0  0  0
   27.0613  -19.6025   -7.1895 C   0  0  0  0  0  0  0  0  0  0  0  0
   27.6149  -20.3911   -8.1656 C   0  0  0  0  0  0  0  0  0  0  0  0
   24.2073  -20.6609  -11.7859 C   0  0  0  0  0  0  0  0  0  0  0  0
   23.9692  -19.6880  -12.5402 O   0  0  0  0  0  0  0  0  0  0  0  0
   23.1384  -21.4712  -11.3357 N   0  0  0  0  0  0  0  0  0  0  0  0
   22.1111  -21.9286  -12.2810 C   0  0  0  0  0  0  0  0  0  0  0  0
   21.0796  -20.8787  -12.4801 C   0  0  0  0  0  0  0  0  0  0  0  0
   19.7525  -21.0217  -12.1276 O   0  0  0  0  0  0  0  0  0  0  0  0
   21.4292  -19.7901  -13.0012 O   0  0  0  0  0  0  0  0  0  0  0  0
  2  1  1  0
  3  2  1  0
  4  3  1  0
  4  5  1  0
  5  6  1  6
  7  8  2  0
  7  5  1  0
  9  7  1  0
 10  9  1  0
 11 12  1  0
 10 11  1  1
 12 13  2  0
 12 20  1  0
 13 14  1  0
 14 15  1  0
 15 16  2  0
 16 17  1  0
 18 17  2  0
 19 18  1  0
 20 19  2  0
 20 15  1  0
 21 22  2  0
 21 10  1  0
 23 21  1  0
 24 23  1  0
 24 25  1  0
 25 26  1  0
 27 25  2  0
M  END
$$$$
