MWG.pdb
     RDKit          3D

 27 28  0  0  1  0  0  0  0  0999 V2000
   23.8518  -18.7192  -17.1987 C   0  0  0  0  0  0  0  0  0  0  0  0
   24.3433  -16.9796  -17.0671 S   0  0  0  0  0  0  0  0  0  0  0  0
   25.7099  -16.7983  -15.8831 C   0  0  0  0  0  0  0  0  0  0  0  0
   26.1182  -18.1768  -15.4438 C   0  0  0  0  0  0  0  0  0  0  0  0
   26.3978  -18.2290  -13.9433 C   0  0  2  0  0  0  0  0  0  0  0  0
   27.4884  -17.3200  -13.6152 N   0  0  0  0  0  0  0  0  0  0  0  0
   26.6712  -19.6033  -13.4910 C   0  0  0  0  0  0  0  0  0  0  0  0
   27.7146  -20.1543  -13.9545 O   0  0  0  0  0  0  0  0  0  0  0  0
   25.8854  -20.3427  -12.6033 N   0  0  0  0  0  0  0  0  0  0  0  0
   26.2664  -21.6853  -12.1053 C   0  0  1  0  0  0  0  0  0  0  0  0
   25.6336  -21.8036  -10.7356 C   0  0  0  0  0  0  0  0  0  0  0  0
   26.1093  -20.8715   -9.7320 C   0  0  0  0  0  0  0  0  0  0  0  0
   25.4271  -19.8050   -9.1868 C   0  0  0  0  0  0  0  0  0  0  0  0
   26.2326  -19.1917   -8.3056 N   0  0  0  0  0  0  0  0  0  0  0  0
   27.4348  -19.8088   -8.2385 C   0  0  0  0  0  0  0  0  0  0  0  0
   28.5740  -19.5504   -7.4887 C   0  0  0  0  0  0  0  0  0  0  0  0
   29.6545  -20.3982   -7.6676 C   0  0  0  0  0  0  0  0  0  0  0  0
   29.5976  -21.4511   -8.5520 C   0  0  0  0  0  0  0  0  0  0  0  0
   28.4494  -21.6773   -9.2798 C   0  0  0  0  0  0  0  0  0  0  0  0
   27.3610  -20.8569   -9.1269 C   0  0  0  0  0  0  0  0  0  0  0  0
   25.7588  -22.7056  -13.0406 C   0  0  0  0  0  0  0  0  0  0  0  0
   25.7823  -23.9121  -12.7001 O   0  0  0  0  0  0  0  0  0  0  0  0
   25.2457  -22.3501  -14.3104 N   0  0  0  0  0  0  0  0  0  0  0  0
   24.8280  -23.3943  -15.2555 C   0  0  0  0  0  0  0  0  0  0  0  0
   24.1943  -22.7900  -16.4552 C   0  0  0  0  0  0  0  0  0  0  0  0
   23.6955  -23.5188  -17.5162 O   0  0  0  0  0  0  0  0  0  0  0  0
   24.1032  -21.5382  -16.5152 O   0  0  0  0  0  0  0  0  0  0  0  0
  2  1  1  0
  3  2  1  0
  4  3  1  0
  4  5  1  0
  5  6  1  6
  7  8  2  0
  7  5  1  0
  9  7  1  0
 10  9  1  0
 11 12  1  0
 10 11  1  1
 12 13  2  0
 12 20  1  0
 13 14  1  0
 14 15  1  0
 15 16  2  0
 16 17  1  0
 18 17  2  0
 19 18  1  0
 20 19  2  0
 20 15  1  0
 21 22  2  0
 21 10  1  0
 23 21  1  0
 24 23  1  0
 24 25  1  0
 25 26  1  0
 27 25  2  0
M  END
$$$$
