MWG.pdb
     RDKit          3D

 27 28  0  0  1  0  0  0  0  0999 V2000
   22.9826  -14.1145  -15.6932 C   0  0  0  0  0  0  0  0  0  0  0  0
   23.6222  -15.5951  -14.8663 S   0  0  0  0  0  0  0  0  0  0  0  0
   24.9337  -16.3587  -15.8657 C   0  0  0  0  0  0  0  0  0  0  0  0
   25.4178  -17.5763  -15.1289 C   0  0  0  0  0  0  0  0  0  0  0  0
   24.6756  -18.8348  -15.5737 C   0  0  2  0  0  0  0  0  0  0  0  0
   23.3024  -18.7923  -15.0882 N   0  0  0  0  0  0  0  0  0  0  0  0
   25.3749  -20.0567  -15.1424 C   0  0  0  0  0  0  0  0  0  0  0  0
   26.5755  -20.1871  -15.5279 O   0  0  0  0  0  0  0  0  0  0  0  0
   24.8319  -21.0731  -14.3523 N   0  0  0  0  0  0  0  0  0  0  0  0
   25.5902  -22.2796  -13.9462 C   0  0  1  0  0  0  0  0  0  0  0  0
   25.7467  -22.1727  -12.4446 C   0  0  0  0  0  0  0  0  0  0  0  0
   26.2509  -20.9082  -11.9456 C   0  0  0  0  0  0  0  0  0  0  0  0
   26.9962  -19.9727  -12.6307 C   0  0  0  0  0  0  0  0  0  0  0  0
   27.2685  -18.9550  -11.7991 N   0  0  0  0  0  0  0  0  0  0  0  0
   26.7317  -19.1730  -10.5763 C   0  0  0  0  0  0  0  0  0  0  0  0
   26.7422  -18.4243   -9.4074 C   0  0  0  0  0  0  0  0  0  0  0  0
   26.0796  -18.9528   -8.3121 C   0  0  0  0  0  0  0  0  0  0  0  0
   25.4393  -20.1690   -8.3830 C   0  0  0  0  0  0  0  0  0  0  0  0
   25.4497  -20.8847   -9.5607 C   0  0  0  0  0  0  0  0  0  0  0  0
   26.0964  -20.3903  -10.6645 C   0  0  0  0  0  0  0  0  0  0  0  0
   24.8297  -23.4794  -14.3404 C   0  0  0  0  0  0  0  0  0  0  0  0
   24.2692  -24.1661  -13.4536 O   0  0  0  0  0  0  0  0  0  0  0  0
   24.7193  -23.8684  -15.6963 N   0  0  0  0  0  0  0  0  0  0  0  0
   25.3186  -25.1297  -16.1526 C   0  0  0  0  0  0  0  0  0  0  0  0
   24.8635  -25.4569  -17.5280 C   0  0  0  0  0  0  0  0  0  0  0  0
   23.7276  -26.1877  -17.8134 O   0  0  0  0  0  0  0  0  0  0  0  0
   25.5501  -25.0465  -18.4971 O   0  0  0  0  0  0  0  0  0  0  0  0
  2  1  1  0
  3  2  1  0
  4  3  1  0
  4  5  1  0
  5  6  1  1
  7  8  2  0
  7  5  1  0
  9  7  1  0
 10  9  1  0
 11 12  1  0
 10 11  1  1
 12 13  2  0
 12 20  1  0
 13 14  1  0
 14 15  1  0
 15 16  2  0
 16 17  1  0
 18 17  2  0
 19 18  1  0
 20 19  2  0
 20 15  1  0
 21 22  2  0
 21 10  1  0
 23 21  1  0
 24 23  1  0
 24 25  1  0
 25 26  1  0
 27 25  2  0
M  END
$$$$
