MWG.pdb
     RDKit          3D

 27 28  0  0  1  0  0  0  0  0999 V2000
   23.7698  -19.6329  -18.0377 C   0  0  0  0  0  0  0  0  0  0  0  0
   24.9706  -18.4713  -17.3349 S   0  0  0  0  0  0  0  0  0  0  0  0
   26.2467  -19.3697  -16.4039 C   0  0  0  0  0  0  0  0  0  0  0  0
   25.6067  -19.9043  -15.1531 C   0  0  0  0  0  0  0  0  0  0  0  0
   26.6195  -20.6284  -14.2685 C   0  0  2  0  0  0  0  0  0  0  0  0
   27.2610  -21.6939  -15.0277 N   0  0  0  0  0  0  0  0  0  0  0  0
   25.9972  -21.1304  -13.0322 C   0  0  0  0  0  0  0  0  0  0  0  0
   25.6968  -22.3619  -13.0099 O   0  0  0  0  0  0  0  0  0  0  0  0
   25.7135  -20.3716  -11.8938 N   0  0  0  0  0  0  0  0  0  0  0  0
   24.9694  -20.9027  -10.7277 C   0  0  1  0  0  0  0  0  0  0  0  0
   25.5567  -20.2039   -9.5204 C   0  0  0  0  0  0  0  0  0  0  0  0
   26.9135  -20.5743   -9.1680 C   0  0  0  0  0  0  0  0  0  0  0  0
   27.7257  -21.4889   -9.8034 C   0  0  0  0  0  0  0  0  0  0  0  0
   28.8964  -21.5434   -9.1494 N   0  0  0  0  0  0  0  0  0  0  0  0
   28.9008  -20.6962   -8.0944 C   0  0  0  0  0  0  0  0  0  0  0  0
   29.8636  -20.4045   -7.1379 C   0  0  0  0  0  0  0  0  0  0  0  0
   29.5337  -19.4657   -6.1746 C   0  0  0  0  0  0  0  0  0  0  0  0
   28.3027  -18.8502   -6.1689 C   0  0  0  0  0  0  0  0  0  0  0  0
   27.3714  -19.1650   -7.1347 C   0  0  0  0  0  0  0  0  0  0  0  0
   27.6655  -20.0903   -8.1034 C   0  0  0  0  0  0  0  0  0  0  0  0
   23.5355  -20.6053  -10.8976 C   0  0  0  0  0  0  0  0  0  0  0  0
   23.1887  -19.4556  -11.2583 O   0  0  0  0  0  0  0  0  0  0  0  0
   22.5467  -21.5899  -10.6638 N   0  0  0  0  0  0  0  0  0  0  0  0
   21.1227  -21.2379  -10.7421 C   0  0  0  0  0  0  0  0  0  0  0  0
   20.5110  -21.8052  -11.9709 C   0  0  0  0  0  0  0  0  0  0  0  0
   19.1734  -21.6906  -12.2927 O   0  0  0  0  0  0  0  0  0  0  0  0
   21.2507  -22.4296  -12.7720 O   0  0  0  0  0  0  0  0  0  0  0  0
  2  1  1  0
  3  2  1  0
  4  3  1  0
  4  5  1  0
  5  6  1  6
  7  8  2  0
  7  5  1  0
  9  7  1  0
 10  9  1  0
 11 12  1  0
 10 11  1  1
 12 13  2  0
 12 20  1  0
 13 14  1  0
 14 15  1  0
 15 16  2  0
 16 17  1  0
 18 17  2  0
 19 18  1  0
 20 19  2  0
 20 15  1  0
 21 22  2  0
 21 10  1  0
 23 21  1  0
 24 23  1  0
 24 25  1  0
 25 26  1  0
 27 25  2  0
M  END
$$$$
