MWG.pdb
     RDKit          3D

 27 28  0  0  1  0  0  0  0  0999 V2000
   28.9404  -21.4113  -16.5954 C   0  0  0  0  0  0  0  0  0  0  0  0
   28.7656  -19.6392  -16.9332 S   0  0  0  0  0  0  0  0  0  0  0  0
   28.8172  -18.6935  -15.3824 C   0  0  0  0  0  0  0  0  0  0  0  0
   28.3690  -19.6074  -14.2761 C   0  0  0  0  0  0  0  0  0  0  0  0
   26.8480  -19.6211  -14.1393 C   0  0  2  0  0  0  0  0  0  0  0  0
   26.3500  -18.2540  -14.0594 N   0  0  0  0  0  0  0  0  0  0  0  0
   26.4150  -20.4333  -12.9901 C   0  0  0  0  0  0  0  0  0  0  0  0
   26.7013  -21.6676  -13.0299 O   0  0  0  0  0  0  0  0  0  0  0  0
   25.7228  -19.9625  -11.8714 N   0  0  0  0  0  0  0  0  0  0  0  0
   25.2378  -20.8456  -10.7849 C   0  0  1  0  0  0  0  0  0  0  0  0
   25.7533  -20.2295   -9.5022 C   0  0  0  0  0  0  0  0  0  0  0  0
   27.1259  -20.5404   -9.1534 C   0  0  0  0  0  0  0  0  0  0  0  0
   28.0270  -21.2898   -9.8790 C   0  0  0  0  0  0  0  0  0  0  0  0
   29.1803  -21.3462   -9.1948 N   0  0  0  0  0  0  0  0  0  0  0  0
   29.0870  -20.6600   -8.0324 C   0  0  0  0  0  0  0  0  0  0  0  0
   29.9966  -20.4338   -7.0086 C   0  0  0  0  0  0  0  0  0  0  0  0
   29.5653  -19.6699   -5.9369 C   0  0  0  0  0  0  0  0  0  0  0  0
   28.2884  -19.1585   -5.8922 C   0  0  0  0  0  0  0  0  0  0  0  0
   27.4121  -19.4036   -6.9272 C   0  0  0  0  0  0  0  0  0  0  0  0
   27.8069  -20.1562   -8.0038 C   0  0  0  0  0  0  0  0  0  0  0  0
   23.7648  -20.8912  -10.8253 C   0  0  0  0  0  0  0  0  0  0  0  0
   23.1414  -21.3686   -9.8477 O   0  0  0  0  0  0  0  0  0  0  0  0
   23.0436  -20.4063  -11.9419 N   0  0  0  0  0  0  0  0  0  0  0  0
   21.5760  -20.3546  -11.9058 C   0  0  0  0  0  0  0  0  0  0  0  0
   20.9997  -21.0372  -13.0923 C   0  0  0  0  0  0  0  0  0  0  0  0
   19.6490  -21.0942  -13.3715 O   0  0  0  0  0  0  0  0  0  0  0  0
   21.7843  -21.6002  -13.8962 O   0  0  0  0  0  0  0  0  0  0  0  0
  2  1  1  0
  3  2  1  0
  4  3  1  0
  4  5  1  0
  5  6  1  1
  7  8  2  0
  7  5  1  0
  9  7  1  0
 10  9  1  0
 11 12  1  0
 10 11  1  1
 12 13  2  0
 12 20  1  0
 13 14  1  0
 14 15  1  0
 15 16  2  0
 16 17  1  0
 18 17  2  0
 19 18  1  0
 20 19  2  0
 20 15  1  0
 21 22  2  0
 21 10  1  0
 23 21  1  0
 24 23  1  0
 24 25  1  0
 25 26  1  0
 27 25  2  0
M  END
$$$$
