MWG.pdb
     RDKit          3D

 27 28  0  0  1  0  0  0  0  0999 V2000
   25.8836  -17.0461  -16.0416 C   0  0  0  0  0  0  0  0  0  0  0  0
   27.6682  -17.0198  -16.3571 S   0  0  0  0  0  0  0  0  0  0  0  0
   28.4415  -18.5411  -15.7327 C   0  0  0  0  0  0  0  0  0  0  0  0
   27.5236  -19.1266  -14.6961 C   0  0  0  0  0  0  0  0  0  0  0  0
   28.0542  -20.4550  -14.1609 C   0  0  2  0  0  0  0  0  0  0  0  0
   28.0070  -21.4621  -15.2130 N   0  0  0  0  0  0  0  0  0  0  0  0
   27.3253  -20.8829  -12.9553 C   0  0  0  0  0  0  0  0  0  0  0  0
   26.2528  -21.5322  -13.1435 O   0  0  0  0  0  0  0  0  0  0  0  0
   27.7127  -20.6363  -11.6358 N   0  0  0  0  0  0  0  0  0  0  0  0
   26.8708  -20.9757  -10.4646 C   0  0  1  0  0  0  0  0  0  0  0  0
   27.7209  -20.6654   -9.2515 C   0  0  0  0  0  0  0  0  0  0  0  0
   27.0296  -20.6489   -7.9771 C   0  0  0  0  0  0  0  0  0  0  0  0
   25.7265  -21.0206   -7.7244 C   0  0  0  0  0  0  0  0  0  0  0  0
   25.4790  -20.8389   -6.4178 N   0  0  0  0  0  0  0  0  0  0  0  0
   26.5715  -20.3572   -5.7812 C   0  0  0  0  0  0  0  0  0  0  0  0
   26.8024  -20.0162   -4.4556 C   0  0  0  0  0  0  0  0  0  0  0  0
   28.0639  -19.5428   -4.1351 C   0  0  0  0  0  0  0  0  0  0  0  0
   29.0443  -19.4169   -5.0927 C   0  0  0  0  0  0  0  0  0  0  0  0
   28.7789  -19.7653   -6.3994 C   0  0  0  0  0  0  0  0  0  0  0  0
   27.5402  -20.2377   -6.7510 C   0  0  0  0  0  0  0  0  0  0  0  0
   25.6428  -20.1609  -10.5044 C   0  0  0  0  0  0  0  0  0  0  0  0
   25.7398  -18.9115  -10.5472 O   0  0  0  0  0  0  0  0  0  0  0  0
   24.3611  -20.7602  -10.4969 N   0  0  0  0  0  0  0  0  0  0  0  0
   23.1567  -19.9265  -10.6086 C   0  0  0  0  0  0  0  0  0  0  0  0
   22.0534  -20.6856  -11.2507 C   0  0  0  0  0  0  0  0  0  0  0  0
   22.1938  -21.9507  -11.7851 O   0  0  0  0  0  0  0  0  0  0  0  0
   20.9189  -20.1493  -11.3152 O   0  0  0  0  0  0  0  0  0  0  0  0
  2  1  1  0
  3  2  1  0
  4  3  1  0
  4  5  1  0
  5  6  1  6
  7  8  2  0
  7  5  1  0
  9  7  1  0
 10  9  1  0
 11 12  1  0
 10 11  1  1
 12 13  2  0
 12 20  1  0
 13 14  1  0
 14 15  1  0
 15 16  2  0
 16 17  1  0
 18 17  2  0
 19 18  1  0
 20 19  2  0
 20 15  1  0
 21 22  2  0
 21 10  1  0
 23 21  1  0
 24 23  1  0
 24 25  1  0
 25 26  1  0
 27 25  2  0
M  END
$$$$
