MWG.pdb
     RDKit          3D

 27 28  0  0  1  0  0  0  0  0999 V2000
   27.6939  -23.8190  -16.2722 C   0  0  0  0  0  0  0  0  0  0  0  0
   29.1940  -22.8044  -16.1977 S   0  0  0  0  0  0  0  0  0  0  0  0
   28.8238  -21.1845  -15.4623 C   0  0  0  0  0  0  0  0  0  0  0  0
   28.3312  -21.4216  -14.0619 C   0  0  0  0  0  0  0  0  0  0  0  0
   26.8878  -20.9541  -13.8868 C   0  0  2  0  0  0  0  0  0  0  0  0
   26.8096  -19.5140  -14.0945 N   0  0  0  0  0  0  0  0  0  0  0  0
   26.3449  -21.3522  -12.5773 C   0  0  0  0  0  0  0  0  0  0  0  0
   26.2947  -22.5966  -12.3405 O   0  0  0  0  0  0  0  0  0  0  0  0
   25.8859  -20.4826  -11.5847 N   0  0  0  0  0  0  0  0  0  0  0  0
   25.2523  -20.9460  -10.3278 C   0  0  1  0  0  0  0  0  0  0  0  0
   25.8754  -20.1121   -9.2292 C   0  0  0  0  0  0  0  0  0  0  0  0
   27.2158  -20.4897   -8.8258 C   0  0  0  0  0  0  0  0  0  0  0  0
   28.1209  -21.2531   -9.5316 C   0  0  0  0  0  0  0  0  0  0  0  0
   29.2363  -21.3779   -8.7955 N   0  0  0  0  0  0  0  0  0  0  0  0
   29.1135  -20.7243   -7.6172 C   0  0  0  0  0  0  0  0  0  0  0  0
   29.9802  -20.5672   -6.5444 C   0  0  0  0  0  0  0  0  0  0  0  0
   29.5277  -19.8194   -5.4700 C   0  0  0  0  0  0  0  0  0  0  0  0
   28.2714  -19.2575   -5.4696 C   0  0  0  0  0  0  0  0  0  0  0  0
   27.4378  -19.4344   -6.5526 C   0  0  0  0  0  0  0  0  0  0  0  0
   27.8545  -20.1693   -7.6331 C   0  0  0  0  0  0  0  0  0  0  0  0
   23.7954  -20.7410  -10.4211 C   0  0  0  0  0  0  0  0  0  0  0  0
   23.0933  -20.8693   -9.3903 O   0  0  0  0  0  0  0  0  0  0  0  0
   23.1768  -20.4016  -11.6475 N   0  0  0  0  0  0  0  0  0  0  0  0
   21.7503  -20.0522  -11.6819 C   0  0  0  0  0  0  0  0  0  0  0  0
   20.9554  -21.1588  -12.2731 C   0  0  0  0  0  0  0  0  0  0  0  0
   19.6550  -21.4535  -11.9158 O   0  0  0  0  0  0  0  0  0  0  0  0
   21.4935  -21.8755  -13.1538 O   0  0  0  0  0  0  0  0  0  0  0  0
  2  1  1  0
  3  2  1  0
  4  3  1  0
  4  5  1  0
  5  6  1  1
  7  8  2  0
  7  5  1  0
  9  7  1  0
 10  9  1  0
 11 12  1  0
 10 11  1  1
 12 13  2  0
 12 20  1  0
 13 14  1  0
 14 15  1  0
 15 16  2  0
 16 17  1  0
 18 17  2  0
 19 18  1  0
 20 19  2  0
 20 15  1  0
 21 22  2  0
 21 10  1  0
 23 21  1  0
 24 23  1  0
 24 25  1  0
 25 26  1  0
 27 25  2  0
M  END
$$$$
