MWG.pdb
     RDKit          3D

 27 28  0  0  1  0  0  0  0  0999 V2000
   28.3424  -24.4995  -16.4793 C   0  0  0  0  0  0  0  0  0  0  0  0
   28.6021  -23.0521  -17.5388 S   0  0  0  0  0  0  0  0  0  0  0  0
   28.5022  -21.5260  -16.5572 C   0  0  0  0  0  0  0  0  0  0  0  0
   28.2139  -21.9172  -15.1347 C   0  0  0  0  0  0  0  0  0  0  0  0
   27.3477  -20.8756  -14.4295 C   0  0  2  0  0  0  0  0  0  0  0  0
   28.0596  -19.6057  -14.3677 N   0  0  0  0  0  0  0  0  0  0  0  0
   26.9251  -21.3358  -13.0962 C   0  0  0  0  0  0  0  0  0  0  0  0
   26.2887  -22.4313  -13.0515 O   0  0  0  0  0  0  0  0  0  0  0  0
   27.1646  -20.6735  -11.8895 N   0  0  0  0  0  0  0  0  0  0  0  0
   26.5632  -21.0897  -10.6008 C   0  0  1  0  0  0  0  0  0  0  0  0
   27.4139  -20.4424   -9.5294 C   0  0  0  0  0  0  0  0  0  0  0  0
   26.9066  -20.5306   -8.1740 C   0  0  0  0  0  0  0  0  0  0  0  0
   25.6483  -20.9253   -7.7729 C   0  0  0  0  0  0  0  0  0  0  0  0
   25.5863  -20.8501   -6.4343 N   0  0  0  0  0  0  0  0  0  0  0  0
   26.7605  -20.4178   -5.9195 C   0  0  0  0  0  0  0  0  0  0  0  0
   27.1762  -20.1839   -4.6159 C   0  0  0  0  0  0  0  0  0  0  0  0
   28.4738  -19.7339   -4.4371 C   0  0  0  0  0  0  0  0  0  0  0  0
   29.3126  -19.5284   -5.5087 C   0  0  0  0  0  0  0  0  0  0  0  0
   28.8653  -19.7714   -6.7894 C   0  0  0  0  0  0  0  0  0  0  0  0
   27.5860  -20.2177   -7.0020 C   0  0  0  0  0  0  0  0  0  0  0  0
   25.1642  -20.6274  -10.5526 C   0  0  0  0  0  0  0  0  0  0  0  0
   24.4809  -20.8539   -9.5260 O   0  0  0  0  0  0  0  0  0  0  0  0
   24.5805  -19.9334  -11.6388 N   0  0  0  0  0  0  0  0  0  0  0  0
   23.2163  -19.4003  -11.5255 C   0  0  0  0  0  0  0  0  0  0  0  0
   22.2262  -20.3878  -12.0259 C   0  0  0  0  0  0  0  0  0  0  0  0
   22.5578  -21.6345  -12.5172 O   0  0  0  0  0  0  0  0  0  0  0  0
   21.0091  -20.0761  -12.0037 O   0  0  0  0  0  0  0  0  0  0  0  0
  2  1  1  0
  3  2  1  0
  4  3  1  0
  4  5  1  0
  5  6  1  1
  7  8  2  0
  7  5  1  0
  9  7  1  0
 10  9  1  0
 11 12  1  0
 10 11  1  1
 12 13  2  0
 12 20  1  0
 13 14  1  0
 14 15  1  0
 15 16  2  0
 16 17  1  0
 18 17  2  0
 19 18  1  0
 20 19  2  0
 20 15  1  0
 21 22  2  0
 21 10  1  0
 23 21  1  0
 24 23  1  0
 24 25  1  0
 25 26  1  0
 27 25  2  0
M  END
$$$$
