MWG.pdb
     RDKit          3D

 27 28  0  0  1  0  0  0  0  0999 V2000
   27.4358  -26.2502  -17.2441 C   0  0  0  0  0  0  0  0  0  0  0  0
   27.9418  -24.7543  -18.1336 S   0  0  0  0  0  0  0  0  0  0  0  0
   26.6669  -23.4683  -17.9810 C   0  0  0  0  0  0  0  0  0  0  0  0
   26.1487  -23.5055  -16.5704 C   0  0  0  0  0  0  0  0  0  0  0  0
   26.3019  -22.1523  -15.8791 C   0  0  2  0  0  0  0  0  0  0  0  0
   27.6841  -21.7025  -15.9814 N   0  0  0  0  0  0  0  0  0  0  0  0
   25.8409  -22.2029  -14.4816 C   0  0  0  0  0  0  0  0  0  0  0  0
   24.8207  -22.9183  -14.2482 O   0  0  0  0  0  0  0  0  0  0  0  0
   26.4277  -21.5360  -13.4031 N   0  0  0  0  0  0  0  0  0  0  0  0
   25.8409  -21.5173  -12.0426 C   0  0  1  0  0  0  0  0  0  0  0  0
   26.9535  -21.0517  -11.1284 C   0  0  0  0  0  0  0  0  0  0  0  0
   26.5569  -20.6665   -9.7880 C   0  0  0  0  0  0  0  0  0  0  0  0
   25.2841  -20.3916   -9.3359 C   0  0  0  0  0  0  0  0  0  0  0  0
   25.3571  -20.0606   -8.0372 N   0  0  0  0  0  0  0  0  0  0  0  0
   26.6365  -20.1032   -7.5987 C   0  0  0  0  0  0  0  0  0  0  0  0
   27.2050  -19.8480   -6.3583 C   0  0  0  0  0  0  0  0  0  0  0  0
   28.5786  -19.9887   -6.2513 C   0  0  0  0  0  0  0  0  0  0  0  0
   29.3443  -20.3654   -7.3311 C   0  0  0  0  0  0  0  0  0  0  0  0
   28.7452  -20.6106   -8.5477 C   0  0  0  0  0  0  0  0  0  0  0  0
   27.3871  -20.4808   -8.6883 C   0  0  0  0  0  0  0  0  0  0  0  0
   24.6900  -20.5961  -12.0292 C   0  0  0  0  0  0  0  0  0  0  0  0
   24.8249  -19.4431  -12.5031 O   0  0  0  0  0  0  0  0  0  0  0  0
   23.4397  -20.9878  -11.4950 N   0  0  0  0  0  0  0  0  0  0  0  0
   22.3153  -20.0426  -11.4809 C   0  0  0  0  0  0  0  0  0  0  0  0
   21.2124  -20.5295  -12.3483 C   0  0  0  0  0  0  0  0  0  0  0  0
   21.2854  -21.6673  -13.1266 O   0  0  0  0  0  0  0  0  0  0  0  0
   20.1434  -19.8698  -12.3808 O   0  0  0  0  0  0  0  0  0  0  0  0
  2  1  1  0
  3  2  1  0
  4  3  1  0
  4  5  1  0
  5  6  1  1
  7  8  2  0
  7  5  1  0
  9  7  1  0
 10  9  1  0
 11 12  1  0
 10 11  1  1
 12 13  2  0
 12 20  1  0
 13 14  1  0
 14 15  1  0
 15 16  2  0
 16 17  1  0
 18 17  2  0
 19 18  1  0
 20 19  2  0
 20 15  1  0
 21 22  2  0
 21 10  1  0
 23 21  1  0
 24 23  1  0
 24 25  1  0
 25 26  1  0
 27 25  2  0
M  END
$$$$
