MWG.pdb
     RDKit          3D

 27 28  0  0  1  0  0  0  0  0999 V2000
   25.7546  -17.4323  -16.7190 C   0  0  0  0  0  0  0  0  0  0  0  0
   27.3758  -16.6934  -16.3863 S   0  0  0  0  0  0  0  0  0  0  0  0
   28.3646  -17.7920  -15.3292 C   0  0  0  0  0  0  0  0  0  0  0  0
   27.4341  -18.8134  -14.7368 C   0  0  0  0  0  0  0  0  0  0  0  0
   28.1688  -19.7632  -13.7932 C   0  0  2  0  0  0  0  0  0  0  0  0
   29.0773  -20.6086  -14.5569 N   0  0  0  0  0  0  0  0  0  0  0  0
   27.2290  -20.5556  -12.9828 C   0  0  0  0  0  0  0  0  0  0  0  0
   26.8930  -21.6854  -13.4495 O   0  0  0  0  0  0  0  0  0  0  0  0
   26.6828  -20.1708  -11.7556 N   0  0  0  0  0  0  0  0  0  0  0  0
   25.6508  -20.9595  -11.0424 C   0  0  1  0  0  0  0  0  0  0  0  0
   25.7681  -20.5578   -9.5879 C   0  0  0  0  0  0  0  0  0  0  0  0
   27.0280  -20.8686   -8.9412 C   0  0  0  0  0  0  0  0  0  0  0  0
   28.0506  -21.6537   -9.4292 C   0  0  0  0  0  0  0  0  0  0  0  0
   29.0289  -21.6953   -8.5113 N   0  0  0  0  0  0  0  0  0  0  0  0
   28.7002  -20.9648   -7.4208 C   0  0  0  0  0  0  0  0  0  0  0  0
   29.3726  -20.7089   -6.2337 C   0  0  0  0  0  0  0  0  0  0  0  0
   28.7347  -19.9009   -5.3072 C   0  0  0  0  0  0  0  0  0  0  0  0
   27.4871  -19.3758   -5.5563 C   0  0  0  0  0  0  0  0  0  0  0  0
   26.8495  -19.6513   -6.7465 C   0  0  0  0  0  0  0  0  0  0  0  0
   27.4529  -20.4478   -7.6860 C   0  0  0  0  0  0  0  0  0  0  0  0
   24.3265  -20.6344  -11.6024 C   0  0  0  0  0  0  0  0  0  0  0  0
   23.9960  -19.4317  -11.7308 O   0  0  0  0  0  0  0  0  0  0  0  0
   23.4250  -21.6505  -11.9983 N   0  0  0  0  0  0  0  0  0  0  0  0
   22.1563  -21.2979  -12.6495 C   0  0  0  0  0  0  0  0  0  0  0  0
   21.0816  -21.1225  -11.6394 C   0  0  0  0  0  0  0  0  0  0  0  0
   19.7581  -20.8846  -11.9517 O   0  0  0  0  0  0  0  0  0  0  0  0
   21.3887  -21.1936  -10.4231 O   0  0  0  0  0  0  0  0  0  0  0  0
  2  1  1  0
  3  2  1  0
  4  3  1  0
  4  5  1  0
  5  6  1  6
  7  8  2  0
  7  5  1  0
  9  7  1  0
 10  9  1  0
 11 12  1  0
 10 11  1  1
 12 13  2  0
 12 20  1  0
 13 14  1  0
 14 15  1  0
 15 16  2  0
 16 17  1  0
 18 17  2  0
 19 18  1  0
 20 19  2  0
 20 15  1  0
 21 22  2  0
 21 10  1  0
 23 21  1  0
 24 23  1  0
 24 25  1  0
 25 26  1  0
 27 25  2  0
M  END
$$$$
