MWG.pdb
     RDKit          3D

 27 28  0  0  1  0  0  0  0  0999 V2000
   27.6922  -16.8960  -17.0322 C   0  0  0  0  0  0  0  0  0  0  0  0
   27.3999  -15.5077  -15.9041 S   0  0  0  0  0  0  0  0  0  0  0  0
   26.0641  -15.9115  -14.7402 C   0  0  0  0  0  0  0  0  0  0  0  0
   26.5123  -17.0914  -13.9236 C   0  0  0  0  0  0  0  0  0  0  0  0
   25.8168  -18.3775  -14.3648 C   0  0  2  0  0  0  0  0  0  0  0  0
   24.3809  -18.2587  -14.1469 N   0  0  0  0  0  0  0  0  0  0  0  0
   26.3809  -19.5576  -13.6886 C   0  0  0  0  0  0  0  0  0  0  0  0
   27.6326  -19.7269  -13.7968 O   0  0  0  0  0  0  0  0  0  0  0  0
   25.6599  -20.4958  -12.9456 N   0  0  0  0  0  0  0  0  0  0  0  0
   26.2452  -21.7641  -12.4511 C   0  0  1  0  0  0  0  0  0  0  0  0
   25.6338  -21.9862  -11.0846 C   0  0  0  0  0  0  0  0  0  0  0  0
   25.9454  -20.9900  -10.0783 C   0  0  0  0  0  0  0  0  0  0  0  0
   25.1122  -20.0114   -9.5799 C   0  0  0  0  0  0  0  0  0  0  0  0
   25.7958  -19.2913   -8.6769 N   0  0  0  0  0  0  0  0  0  0  0  0
   27.0618  -19.7515   -8.5497 C   0  0  0  0  0  0  0  0  0  0  0  0
   28.1263  -19.3430   -7.7580 C   0  0  0  0  0  0  0  0  0  0  0  0
   29.3112  -20.0501   -7.8775 C   0  0  0  0  0  0  0  0  0  0  0  0
   29.4247  -21.1121   -8.7455 C   0  0  0  0  0  0  0  0  0  0  0  0
   28.3463  -21.4896   -9.5161 C   0  0  0  0  0  0  0  0  0  0  0  0
   27.1582  -20.8109   -9.4223 C   0  0  0  0  0  0  0  0  0  0  0  0
   25.9075  -22.8473  -13.3924 C   0  0  0  0  0  0  0  0  0  0  0  0
   26.0778  -24.0384  -13.0396 O   0  0  0  0  0  0  0  0  0  0  0  0
   25.3948  -22.5692  -14.6815 N   0  0  0  0  0  0  0  0  0  0  0  0
   25.0323  -23.6701  -15.5841 C   0  0  0  0  0  0  0  0  0  0  0  0
   26.2320  -24.1773  -16.2977 C   0  0  0  0  0  0  0  0  0  0  0  0
   26.6260  -25.5004  -16.3047 O   0  0  0  0  0  0  0  0  0  0  0  0
   26.9371  -23.3569  -16.9370 O   0  0  0  0  0  0  0  0  0  0  0  0
  2  1  1  0
  3  2  1  0
  4  3  1  0
  4  5  1  0
  5  6  1  1
  7  8  2  0
  7  5  1  0
  9  7  1  0
 10  9  1  0
 11 12  1  0
 10 11  1  1
 12 13  2  0
 12 20  1  0
 13 14  1  0
 14 15  1  0
 15 16  2  0
 16 17  1  0
 18 17  2  0
 19 18  1  0
 20 19  2  0
 20 15  1  0
 21 22  2  0
 21 10  1  0
 23 21  1  0
 24 23  1  0
 24 25  1  0
 25 26  1  0
 27 25  2  0
M  END
$$$$
