TLA.pdb
     RDKit          3D

 21 20  0  0  1  0  0  0  0  0999 V2000
    9.9855  -20.0153   21.1467 C   0  0  0  0  0  0  0  0  0  0  0  0
   10.7084  -20.0671   19.8256 C   0  0  1  0  0  0  0  0  0  0  0  0
   10.5843  -21.3401   19.2705 O   0  0  0  0  0  0  0  0  0  0  0  0
   10.0610  -19.0990   18.8594 C   0  0  2  0  0  0  0  0  0  0  0  0
   10.5164  -19.2569   17.5118 N   0  0  0  0  0  0  0  0  0  0  0  0
   10.2173  -17.6868   19.3374 C   0  0  0  0  0  0  0  0  0  0  0  0
   11.3028  -17.0721   19.1909 O   0  0  0  0  0  0  0  0  0  0  0  0
    8.4290  -12.4938   19.7321 C   0  0  0  0  0  0  0  0  0  0  0  0
    7.9177  -13.4948   20.7694 C   0  0  1  0  0  0  0  0  0  0  0  0
    6.4295  -13.1447   20.9493 C   0  0  0  0  0  0  0  0  0  0  0  0
    7.9751  -14.8852   20.2781 C   0  0  0  0  0  0  0  0  0  0  0  0
    9.2607  -15.6150   20.4417 C   0  0  2  0  0  0  0  0  0  0  0  0
    9.1592  -16.9836   19.9711 N   0  0  0  0  0  0  0  0  0  0  0  0
    9.8869  -15.5457   21.7588 C   0  0  0  0  0  0  0  0  0  0  0  0
   10.3397  -14.4994   22.2880 O   0  0  0  0  0  0  0  0  0  0  0  0
    9.8229  -17.5731   24.8322 C   0  0  0  0  0  0  0  0  0  0  0  0
   10.6113  -16.7307   23.8569 C   0  0  2  0  0  0  0  0  0  0  0  0
   10.0141  -16.7337   22.5362 N   0  0  0  0  0  0  0  0  0  0  0  0
   12.0309  -17.1068   23.8011 C   0  0  0  0  0  0  0  0  0  0  0  0
   12.8785  -17.0351   24.8736 O   0  0  0  0  0  0  0  0  0  0  0  0
   12.4974  -17.5182   22.7081 O   0  0  0  0  0  0  0  0  0  0  0  0
  2  1  1  1
  2  3  1  0
  4  6  1  0
  4  2  1  0
  4  5  1  6
  6  7  2  0
  9  8  1  6
  9 11  1  0
 10  9  1  0
 12 11  1  1
 13  6  1  0
 13 12  1  0
 14 18  1  0
 14 12  1  0
 15 14  2  0
 17 16  1  1
 17 18  1  0
 19 17  1  0
 19 20  1  0
 21 19  2  0
M  END
$$$$
