TLA.pdb
     RDKit          3D

 21 20  0  0  1  0  0  0  0  0999 V2000
    6.6738  -15.8706   20.9091 C   0  0  0  0  0  0  0  0  0  0  0  0
    7.7631  -15.0372   20.2850 C   0  0  1  0  0  0  0  0  0  0  0  0
    7.5349  -14.9133   18.9151 O   0  0  0  0  0  0  0  0  0  0  0  0
    7.7243  -13.6409   20.8672 C   0  0  2  0  0  0  0  0  0  0  0  0
    8.3604  -12.6648   20.0360 N   0  0  0  0  0  0  0  0  0  0  0  0
    8.2778  -13.6305   22.2603 C   0  0  0  0  0  0  0  0  0  0  0  0
    9.4678  -13.2939   22.4797 O   0  0  0  0  0  0  0  0  0  0  0  0
    5.4616  -11.8748   26.6760 C   0  0  0  0  0  0  0  0  0  0  0  0
    6.5923  -12.1868   25.6944 C   0  0  1  0  0  0  0  0  0  0  0  0
    7.7947  -11.3782   26.2143 C   0  0  0  0  0  0  0  0  0  0  0  0
    6.9844  -13.6091   25.7292 C   0  0  0  0  0  0  0  0  0  0  0  0
    8.0020  -14.0614   24.7433 C   0  0  2  0  0  0  0  0  0  0  0  0
    7.4937  -13.9960   23.3860 N   0  0  0  0  0  0  0  0  0  0  0  0
    8.6472  -15.3430   25.0134 C   0  0  0  0  0  0  0  0  0  0  0  0
    9.1049  -15.6993   26.1285 O   0  0  0  0  0  0  0  0  0  0  0  0
    9.0764  -18.5582   23.0696 C   0  0  0  0  0  0  0  0  0  0  0  0
    9.4399  -17.5711   24.1539 C   0  0  2  0  0  0  0  0  0  0  0  0
    8.7888  -16.2909   23.9582 N   0  0  0  0  0  0  0  0  0  0  0  0
   10.8923  -17.4119   24.3123 C   0  0  0  0  0  0  0  0  0  0  0  0
   11.5449  -16.2165   24.1750 O   0  0  0  0  0  0  0  0  0  0  0  0
   11.5780  -18.4290   24.5898 O   0  0  0  0  0  0  0  0  0  0  0  0
  2  1  1  1
  2  3  1  0
  4  6  1  0
  4  2  1  0
  4  5  1  6
  6  7  2  0
  9  8  1  1
  9 11  1  0
 10  9  1  0
 12 11  1  1
 13  6  1  0
 13 12  1  0
 14 18  1  0
 14 12  1  0
 15 14  2  0
 17 16  1  6
 17 18  1  0
 19 17  1  0
 19 20  1  0
 21 19  2  0
M  END
$$$$
