TLA.pdb
     RDKit          3D

 21 20  0  0  1  0  0  0  0  0999 V2000
    8.7896  -14.4323   20.6040 C   0  0  0  0  0  0  0  0  0  0  0  0
    7.3916  -14.7765   21.0489 C   0  0  1  0  0  0  0  0  0  0  0  0
    6.6777  -15.3187   19.9810 O   0  0  0  0  0  0  0  0  0  0  0  0
    7.4531  -15.8395   22.1241 C   0  0  2  0  0  0  0  0  0  0  0  0
    6.1900  -16.4646   22.3730 N   0  0  0  0  0  0  0  0  0  0  0  0
    8.0588  -15.2900   23.3806 C   0  0  0  0  0  0  0  0  0  0  0  0
    9.2713  -14.9654   23.4243 O   0  0  0  0  0  0  0  0  0  0  0  0
    5.6328  -11.5483   26.3496 C   0  0  0  0  0  0  0  0  0  0  0  0
    6.6691  -12.4379   25.6611 C   0  0  1  0  0  0  0  0  0  0  0  0
    7.9394  -11.5716   25.5868 C   0  0  0  0  0  0  0  0  0  0  0  0
    7.0071  -13.6269   26.4672 C   0  0  0  0  0  0  0  0  0  0  0  0
    7.8606  -14.6645   25.8293 C   0  0  2  0  0  0  0  0  0  0  0  0
    7.3009  -15.1120   24.5677 N   0  0  0  0  0  0  0  0  0  0  0  0
    8.2564  -15.7906   26.6701 C   0  0  0  0  0  0  0  0  0  0  0  0
    8.7644  -15.6920   27.8155 O   0  0  0  0  0  0  0  0  0  0  0  0
    7.5824  -19.4898   26.5943 C   0  0  0  0  0  0  0  0  0  0  0  0
    8.3966  -18.2819   26.9948 C   0  0  2  0  0  0  0  0  0  0  0  0
    8.0691  -17.1204   26.1919 N   0  0  0  0  0  0  0  0  0  0  0  0
    9.8425  -18.5446   26.9875 C   0  0  0  0  0  0  0  0  0  0  0  0
   10.7289  -17.8928   26.1733 O   0  0  0  0  0  0  0  0  0  0  0  0
   10.2951  -19.4170   27.7722 O   0  0  0  0  0  0  0  0  0  0  0  0
  2  1  1  6
  2  3  1  0
  4  6  1  0
  4  2  1  0
  4  5  1  1
  6  7  2  0
  9  8  1  1
  9 11  1  0
 10  9  1  0
 12 11  1  1
 13  6  1  0
 13 12  1  0
 14 18  1  0
 14 12  1  0
 15 14  2  0
 17 16  1  6
 17 18  1  0
 19 17  1  0
 19 20  1  0
 21 19  2  0
M  END
$$$$
