TLA.pdb
     RDKit          3D

 21 20  0  0  1  0  0  0  0  0999 V2000
    7.0563  -18.2919   22.6506 C   0  0  0  0  0  0  0  0  0  0  0  0
    8.3710  -18.1711   21.9242 C   0  0  1  0  0  0  0  0  0  0  0  0
    8.2938  -18.8302   20.6979 O   0  0  0  0  0  0  0  0  0  0  0  0
    8.6487  -16.7138   21.6255 C   0  0  2  0  0  0  0  0  0  0  0  0
    9.7189  -16.5223   20.6947 N   0  0  0  0  0  0  0  0  0  0  0  0
    8.8697  -15.9443   22.8929 C   0  0  0  0  0  0  0  0  0  0  0  0
   10.0287  -15.7487   23.3356 O   0  0  0  0  0  0  0  0  0  0  0  0
    7.7187  -11.5509   26.0813 C   0  0  0  0  0  0  0  0  0  0  0  0
    6.8580  -12.8056   26.2367 C   0  0  1  0  0  0  0  0  0  0  0  0
    5.4250  -12.2753   26.4237 C   0  0  0  0  0  0  0  0  0  0  0  0
    6.8532  -13.6334   25.0149 C   0  0  0  0  0  0  0  0  0  0  0  0
    7.9600  -14.6130   24.8492 C   0  0  2  0  0  0  0  0  0  0  0  0
    7.7931  -15.4057   23.6455 N   0  0  0  0  0  0  0  0  0  0  0  0
    8.2682  -15.4505   26.0047 C   0  0  0  0  0  0  0  0  0  0  0  0
    8.6350  -15.0227   27.1282 O   0  0  0  0  0  0  0  0  0  0  0  0
    7.3937  -18.9461   26.9439 C   0  0  0  0  0  0  0  0  0  0  0  0
    8.3072  -17.7462   27.0340 C   0  0  2  0  0  0  0  0  0  0  0  0
    8.1571  -16.8671   25.8913 N   0  0  0  0  0  0  0  0  0  0  0  0
    9.7140  -18.1186   27.2391 C   0  0  0  0  0  0  0  0  0  0  0  0
   10.7322  -17.7250   26.4133 O   0  0  0  0  0  0  0  0  0  0  0  0
   10.0030  -18.8396   28.2282 O   0  0  0  0  0  0  0  0  0  0  0  0
  2  1  1  6
  2  3  1  0
  4  6  1  0
  4  2  1  0
  4  5  1  6
  6  7  2  0
  9  8  1  6
  9 11  1  0
 10  9  1  0
 12 11  1  1
 13  6  1  0
 13 12  1  0
 14 18  1  0
 14 12  1  0
 15 14  2  0
 17 16  1  6
 17 18  1  0
 19 17  1  0
 19 20  1  0
 21 19  2  0
M  END
$$$$
