TLA.pdb
     RDKit          3D

 21 20  0  0  1  0  0  0  0  0999 V2000
    9.2556  -19.5772   20.3639 C   0  0  0  0  0  0  0  0  0  0  0  0
   10.3482  -19.3558   19.3502 C   0  0  1  0  0  0  0  0  0  0  0  0
   10.2236  -20.2804   18.3140 O   0  0  0  0  0  0  0  0  0  0  0  0
   10.1941  -17.9812   18.7364 C   0  0  2  0  0  0  0  0  0  0  0  0
   11.0460  -17.7690   17.6061 N   0  0  0  0  0  0  0  0  0  0  0  0
   10.3700  -16.9133   19.7736 C   0  0  0  0  0  0  0  0  0  0  0  0
   11.5152  -16.5188   20.1063 O   0  0  0  0  0  0  0  0  0  0  0  0
    6.3962  -13.0953   19.9696 C   0  0  0  0  0  0  0  0  0  0  0  0
    7.7720  -13.7627   19.9389 C   0  0  1  0  0  0  0  0  0  0  0  0
    8.7535  -12.6194   19.6241 C   0  0  0  0  0  0  0  0  0  0  0  0
    8.1567  -14.3082   21.2551 C   0  0  0  0  0  0  0  0  0  0  0  0
    9.3735  -15.1617   21.3117 C   0  0  2  0  0  0  0  0  0  0  0  0
    9.2646  -16.3030   20.4226 N   0  0  0  0  0  0  0  0  0  0  0  0
    9.8306  -15.5583   22.6403 C   0  0  0  0  0  0  0  0  0  0  0  0
   10.0678  -14.7669   23.5876 O   0  0  0  0  0  0  0  0  0  0  0  0
    9.8575  -18.7363   24.5850 C   0  0  0  0  0  0  0  0  0  0  0  0
   10.4694  -17.4015   24.2297 C   0  0  2  0  0  0  0  0  0  0  0  0
   10.0363  -16.9397   22.9258 N   0  0  0  0  0  0  0  0  0  0  0  0
   11.9352  -17.4035   24.3348 C   0  0  0  0  0  0  0  0  0  0  0  0
   12.7720  -17.1070   23.2929 O   0  0  0  0  0  0  0  0  0  0  0  0
   12.4543  -17.6935   25.4431 O   0  0  0  0  0  0  0  0  0  0  0  0
  2  1  1  1
  2  3  1  0
  4  6  1  0
  4  2  1  0
  4  5  1  6
  6  7  2  0
  9  8  1  1
  9 11  1  0
 10  9  1  0
 12 11  1  1
 13  6  1  0
 13 12  1  0
 14 18  1  0
 14 12  1  0
 15 14  2  0
 17 16  1  6
 17 18  1  0
 19 17  1  0
 19 20  1  0
 21 19  2  0
M  END
$$$$
