TLA.pdb
     RDKit          3D

 21 20  0  0  1  0  0  0  0  0999 V2000
    6.8682  -17.4290   21.6440 C   0  0  0  0  0  0  0  0  0  0  0  0
    8.0165  -16.8520   20.8573 C   0  0  1  0  0  0  0  0  0  0  0  0
    7.7360  -16.9235   19.4934 O   0  0  0  0  0  0  0  0  0  0  0  0
    8.1746  -15.3863   21.1993 C   0  0  2  0  0  0  0  0  0  0  0  0
    8.9800  -14.6705   20.2573 N   0  0  0  0  0  0  0  0  0  0  0  0
    8.6778  -15.2191   22.6015 C   0  0  0  0  0  0  0  0  0  0  0  0
    9.8985  -15.3457   22.8686 O   0  0  0  0  0  0  0  0  0  0  0  0
    5.8862  -12.1123   26.3964 C   0  0  0  0  0  0  0  0  0  0  0  0
    7.0341  -12.7202   25.5889 C   0  0  1  0  0  0  0  0  0  0  0  0
    8.2859  -11.9530   26.0515 C   0  0  0  0  0  0  0  0  0  0  0  0
    7.2559  -14.1416   25.9181 C   0  0  0  0  0  0  0  0  0  0  0  0
    8.2208  -14.8957   25.0740 C   0  0  2  0  0  0  0  0  0  0  0  0
    7.8100  -14.9134   23.6826 N   0  0  0  0  0  0  0  0  0  0  0  0
    8.5927  -16.2283   25.5405 C   0  0  0  0  0  0  0  0  0  0  0  0
    7.8193  -17.2180   25.5872 O   0  0  0  0  0  0  0  0  0  0  0  0
   11.6731  -18.1689   25.7381 C   0  0  0  0  0  0  0  0  0  0  0  0
   10.3751  -17.7792   26.4057 C   0  0  2  0  0  0  0  0  0  0  0  0
    9.9256  -16.4667   25.9860 N   0  0  0  0  0  0  0  0  0  0  0  0
   10.4390  -17.8778   27.8706 C   0  0  0  0  0  0  0  0  0  0  0  0
   10.7638  -19.0260   28.5413 O   0  0  0  0  0  0  0  0  0  0  0  0
   10.1812  -16.8514   28.5502 O   0  0  0  0  0  0  0  0  0  0  0  0
  2  1  1  1
  2  3  1  0
  4  6  1  0
  4  2  1  0
  4  5  1  6
  6  7  2  0
  9  8  1  1
  9 11  1  0
 10  9  1  0
 12 11  1  1
 13  6  1  0
 13 12  1  0
 14 18  1  0
 14 12  1  0
 15 14  2  0
 17 16  1  6
 17 18  1  0
 19 17  1  0
 19 20  1  0
 21 19  2  0
M  END
$$$$
