TLA.pdb
     RDKit          3D

 21 20  0  0  1  0  0  0  0  0999 V2000
    8.0207  -17.9994   20.2401 C   0  0  0  0  0  0  0  0  0  0  0  0
    8.2261  -17.3660   21.5919 C   0  0  1  0  0  0  0  0  0  0  0  0
    9.1122  -18.1367   22.3434 O   0  0  0  0  0  0  0  0  0  0  0  0
    8.8631  -16.0044   21.4180 C   0  0  2  0  0  0  0  0  0  0  0  0
   10.0814  -16.0427   20.6679 N   0  0  0  0  0  0  0  0  0  0  0  0
    9.0477  -15.3308   22.7444 C   0  0  0  0  0  0  0  0  0  0  0  0
   10.1946  -15.1583   23.2267 O   0  0  0  0  0  0  0  0  0  0  0  0
    7.8354  -11.4890   26.5223 C   0  0  0  0  0  0  0  0  0  0  0  0
    6.9006  -12.6967   26.4378 C   0  0  1  0  0  0  0  0  0  0  0  0
    5.4883  -12.1102   26.6143 C   0  0  0  0  0  0  0  0  0  0  0  0
    6.9362  -13.3375   25.1090 C   0  0  0  0  0  0  0  0  0  0  0  0
    8.0746  -14.2504   24.8211 C   0  0  2  0  0  0  0  0  0  0  0  0
    7.9491  -14.8607   23.5109 N   0  0  0  0  0  0  0  0  0  0  0  0
    8.3917  -15.2407   25.8460 C   0  0  0  0  0  0  0  0  0  0  0  0
    8.6800  -14.9756   27.0404 O   0  0  0  0  0  0  0  0  0  0  0  0
    7.9017  -18.9261   26.2031 C   0  0  0  0  0  0  0  0  0  0  0  0
    8.6764  -17.6590   26.4800 C   0  0  2  0  0  0  0  0  0  0  0  0
    8.3850  -16.6252   25.5067 N   0  0  0  0  0  0  0  0  0  0  0  0
   10.1230  -17.8921   26.5936 C   0  0  0  0  0  0  0  0  0  0  0  0
   10.6905  -18.6962   27.5449 O   0  0  0  0  0  0  0  0  0  0  0  0
   10.8861  -17.3223   25.7723 O   0  0  0  0  0  0  0  0  0  0  0  0
  2  1  1  6
  2  3  1  0
  4  6  1  0
  4  2  1  0
  4  5  1  1
  6  7  2  0
  9  8  1  6
  9 11  1  0
 10  9  1  0
 12 11  1  1
 13  6  1  0
 13 12  1  0
 14 18  1  0
 14 12  1  0
 15 14  2  0
 17 16  1  6
 17 18  1  0
 19 17  1  0
 19 20  1  0
 21 19  2  0
M  END
$$$$
