TLA.pdb
     RDKit          3D

 21 20  0  0  1  0  0  0  0  0999 V2000
    6.5729  -16.9022   21.2928 C   0  0  0  0  0  0  0  0  0  0  0  0
    7.4684  -16.0030   20.4805 C   0  0  1  0  0  0  0  0  0  0  0  0
    7.0078  -15.9428   19.1658 O   0  0  0  0  0  0  0  0  0  0  0  0
    7.4059  -14.5964   21.0351 C   0  0  2  0  0  0  0  0  0  0  0  0
    7.8886  -13.6070   20.1206 N   0  0  0  0  0  0  0  0  0  0  0  0
    8.1028  -14.5162   22.3600 C   0  0  0  0  0  0  0  0  0  0  0  0
    9.3551  -14.4484   22.4276 O   0  0  0  0  0  0  0  0  0  0  0  0
    5.6992  -12.0468   26.7098 C   0  0  0  0  0  0  0  0  0  0  0  0
    6.7466  -12.5120   25.6969 C   0  0  1  0  0  0  0  0  0  0  0  0
    7.9744  -11.6244   25.9696 C   0  0  0  0  0  0  0  0  0  0  0  0
    7.1659  -13.9077   25.9295 C   0  0  0  0  0  0  0  0  0  0  0  0
    8.0217  -14.5455   24.8937 C   0  0  2  0  0  0  0  0  0  0  0  0
    7.3901  -14.5129   23.5879 N   0  0  0  0  0  0  0  0  0  0  0  0
    8.5420  -15.8737   25.2049 C   0  0  0  0  0  0  0  0  0  0  0  0
    7.8383  -16.8979   25.3937 O   0  0  0  0  0  0  0  0  0  0  0  0
   11.9335  -17.4894   25.0814 C   0  0  0  0  0  0  0  0  0  0  0  0
   10.5309  -17.3561   25.6267 C   0  0  2  0  0  0  0  0  0  0  0  0
    9.9504  -16.0657   25.3121 N   0  0  0  0  0  0  0  0  0  0  0  0
   10.4530  -17.6391   27.0667 C   0  0  0  0  0  0  0  0  0  0  0  0
   10.8592  -18.8175   27.6323 O   0  0  0  0  0  0  0  0  0  0  0  0
    9.9872  -16.7510   27.8257 O   0  0  0  0  0  0  0  0  0  0  0  0
  2  1  1  1
  2  3  1  0
  4  6  1  0
  4  2  1  0
  4  5  1  6
  6  7  2  0
  9  8  1  1
  9 11  1  0
 10  9  1  0
 12 11  1  1
 13  6  1  0
 13 12  1  0
 14 18  1  0
 14 12  1  0
 15 14  2  0
 17 16  1  1
 17 18  1  0
 19 17  1  0
 19 20  1  0
 21 19  2  0
M  END
$$$$
