TLA.pdb
     RDKit          3D

 21 20  0  0  1  0  0  0  0  0999 V2000
    8.9805  -19.9637   17.2374 C   0  0  0  0  0  0  0  0  0  0  0  0
    9.3526  -19.0083   18.3417 C   0  0  1  0  0  0  0  0  0  0  0  0
   10.3013  -19.5989   19.1755 O   0  0  0  0  0  0  0  0  0  0  0  0
    9.9957  -17.7754   17.7449 C   0  0  2  0  0  0  0  0  0  0  0  0
   11.1364  -18.0707   16.9326 N   0  0  0  0  0  0  0  0  0  0  0  0
   10.3179  -16.7741   18.8131 C   0  0  0  0  0  0  0  0  0  0  0  0
   11.5059  -16.4413   19.0486 O   0  0  0  0  0  0  0  0  0  0  0  0
    6.7051  -12.7074   19.7576 C   0  0  0  0  0  0  0  0  0  0  0  0
    8.0223  -13.4574   19.5525 C   0  0  1  0  0  0  0  0  0  0  0  0
    9.0729  -12.3515   19.3452 C   0  0  0  0  0  0  0  0  0  0  0  0
    8.4265  -14.2134   20.7538 C   0  0  0  0  0  0  0  0  0  0  0  0
    9.5681  -15.1565   20.6153 C   0  0  2  0  0  0  0  0  0  0  0  0
    9.3086  -16.1608   19.6009 N   0  0  0  0  0  0  0  0  0  0  0  0
   10.0717  -15.7563   21.8475 C   0  0  0  0  0  0  0  0  0  0  0  0
   10.4275  -15.1155   22.8686 O   0  0  0  0  0  0  0  0  0  0  0  0
    9.8567  -19.0783   23.4503 C   0  0  0  0  0  0  0  0  0  0  0  0
   10.6554  -17.8336   23.1419 C   0  0  2  0  0  0  0  0  0  0  0  0
   10.1841  -17.1743   21.9401 N   0  0  0  0  0  0  0  0  0  0  0  0
   12.1013  -18.0888   23.0780 C   0  0  0  0  0  0  0  0  0  0  0  0
   12.8473  -18.5045   24.1478 O   0  0  0  0  0  0  0  0  0  0  0  0
   12.6903  -17.9169   21.9802 O   0  0  0  0  0  0  0  0  0  0  0  0
  2  1  1  6
  2  3  1  0
  4  6  1  0
  4  2  1  0
  4  5  1  1
  6  7  2  0
  9  8  1  1
  9 11  1  0
 10  9  1  0
 12 11  1  1
 13  6  1  0
 13 12  1  0
 14 18  1  0
 14 12  1  0
 15 14  2  0
 17 16  1  6
 17 18  1  0
 19 17  1  0
 19 20  1  0
 21 19  2  0
M  END
$$$$
