TLA.pdb
     RDKit          3D

 21 20  0  0  1  0  0  0  0  0999 V2000
    8.7281  -18.5916   23.6780 C   0  0  0  0  0  0  0  0  0  0  0  0
    9.4926  -18.1354   22.4624 C   0  0  1  0  0  0  0  0  0  0  0  0
    9.3124  -19.0472   21.4230 O   0  0  0  0  0  0  0  0  0  0  0  0
    8.9385  -16.8096   21.9877 C   0  0  2  0  0  0  0  0  0  0  0  0
    9.4542  -16.4051   20.7155 N   0  0  0  0  0  0  0  0  0  0  0  0
    9.1327  -15.7490   23.0292 C   0  0  0  0  0  0  0  0  0  0  0  0
   10.2227  -15.1328   23.1276 O   0  0  0  0  0  0  0  0  0  0  0  0
    5.5755  -12.0966   26.4666 C   0  0  0  0  0  0  0  0  0  0  0  0
    6.9665  -12.3435   25.8806 C   0  0  1  0  0  0  0  0  0  0  0  0
    7.8354  -12.7352   27.0895 C   0  0  0  0  0  0  0  0  0  0  0  0
    6.9845  -13.4889   24.9502 C   0  0  0  0  0  0  0  0  0  0  0  0
    8.2183  -14.3186   24.9119 C   0  0  2  0  0  0  0  0  0  0  0  0
    8.1068  -15.3935   23.9439 N   0  0  0  0  0  0  0  0  0  0  0  0
    8.7190  -14.8022   26.1953 C   0  0  0  0  0  0  0  0  0  0  0  0
    8.0353  -15.4206   27.0496 O   0  0  0  0  0  0  0  0  0  0  0  0
   10.1028  -14.0113   28.9306 C   0  0  0  0  0  0  0  0  0  0  0  0
   10.6143  -14.9296   27.8455 C   0  0  2  0  0  0  0  0  0  0  0  0
   10.0824  -14.5756   26.5444 N   0  0  0  0  0  0  0  0  0  0  0  0
   10.3828  -16.3490   28.1480 C   0  0  0  0  0  0  0  0  0  0  0  0
   10.8582  -16.9741   29.2691 O   0  0  0  0  0  0  0  0  0  0  0  0
    9.7104  -17.0315   27.3333 O   0  0  0  0  0  0  0  0  0  0  0  0
  2  1  1  1
  2  3  1  0
  4  6  1  0
  4  2  1  0
  4  5  1  6
  6  7  2  0
  9  8  1  1
  9 11  1  0
 10  9  1  0
 12 11  1  1
 13  6  1  0
 13 12  1  0
 14 18  1  0
 14 12  1  0
 15 14  2  0
 17 16  1  1
 17 18  1  0
 19 17  1  0
 19 20  1  0
 21 19  2  0
M  END
$$$$
