TLA.pdb
     RDKit          3D

 21 20  0  0  1  0  0  0  0  0999 V2000
    8.7571  -20.1845   19.1961 C   0  0  0  0  0  0  0  0  0  0  0  0
    9.4471  -19.7236   17.9383 C   0  0  1  0  0  0  0  0  0  0  0  0
    9.0046  -20.4803   16.8541 O   0  0  0  0  0  0  0  0  0  0  0  0
    9.0706  -18.2853   17.6560 C   0  0  2  0  0  0  0  0  0  0  0  0
    9.4833  -17.8375   16.3609 N   0  0  0  0  0  0  0  0  0  0  0  0
    9.5712  -17.3819   18.7425 C   0  0  0  0  0  0  0  0  0  0  0  0
   10.8011  -17.2644   18.9687 O   0  0  0  0  0  0  0  0  0  0  0  0
    6.5864  -12.9100   20.3413 C   0  0  0  0  0  0  0  0  0  0  0  0
    7.7459  -13.8209   19.9348 C   0  0  1  0  0  0  0  0  0  0  0  0
    8.9397  -12.8691   19.7381 C   0  0  0  0  0  0  0  0  0  0  0  0
    8.1194  -14.7614   21.0090 C   0  0  0  0  0  0  0  0  0  0  0  0
    9.1209  -15.8108   20.6804 C   0  0  2  0  0  0  0  0  0  0  0  0
    8.6908  -16.6242   19.5587 N   0  0  0  0  0  0  0  0  0  0  0  0
    9.5911  -16.6339   21.7908 C   0  0  0  0  0  0  0  0  0  0  0  0
    8.8665  -17.3908   22.4850 O   0  0  0  0  0  0  0  0  0  0  0  0
   12.7369  -18.1735   22.8070 C   0  0  0  0  0  0  0  0  0  0  0  0
   11.5047  -17.4084   23.2295 C   0  0  2  0  0  0  0  0  0  0  0  0
   10.9711  -16.6053   22.1473 N   0  0  0  0  0  0  0  0  0  0  0  0
   11.7257  -16.5985   24.4357 C   0  0  0  0  0  0  0  0  0  0  0  0
   12.0597  -17.1257   25.6540 O   0  0  0  0  0  0  0  0  0  0  0  0
   11.6021  -15.3501   24.3479 O   0  0  0  0  0  0  0  0  0  0  0  0
  2  1  1  1
  2  3  1  0
  4  6  1  0
  4  2  1  0
  4  5  1  6
  6  7  2  0
  9  8  1  1
  9 11  1  0
 10  9  1  0
 12 11  1  1
 13  6  1  0
 13 12  1  0
 14 18  1  0
 14 12  1  0
 15 14  2  0
 17 16  1  6
 17 18  1  0
 19 17  1  0
 19 20  1  0
 21 19  2  0
M  END
$$$$
