TLA.pdb
     RDKit          3D

 21 20  0  0  1  0  0  0  0  0999 V2000
    7.3891  -17.5897   19.8968 C   0  0  0  0  0  0  0  0  0  0  0  0
    7.8172  -17.0816   21.2493 C   0  0  1  0  0  0  0  0  0  0  0  0
    8.8165  -17.9046   21.7669 O   0  0  0  0  0  0  0  0  0  0  0  0
    8.4160  -15.6997   21.1011 C   0  0  2  0  0  0  0  0  0  0  0  0
    9.5039  -15.6524   20.1725 N   0  0  0  0  0  0  0  0  0  0  0  0
    8.8012  -15.1414   22.4379 C   0  0  0  0  0  0  0  0  0  0  0  0
   10.0063  -14.9442   22.7322 O   0  0  0  0  0  0  0  0  0  0  0  0
    8.2210  -11.6240   26.4971 C   0  0  0  0  0  0  0  0  0  0  0  0
    7.2511  -12.8036   26.5832 C   0  0  1  0  0  0  0  0  0  0  0  0
    5.9066  -12.1744   26.9908 C   0  0  0  0  0  0  0  0  0  0  0  0
    7.0425  -13.4507   25.2734 C   0  0  0  0  0  0  0  0  0  0  0  0
    8.1596  -14.2686   24.7300 C   0  0  2  0  0  0  0  0  0  0  0  0
    7.8350  -14.8122   23.4246 N   0  0  0  0  0  0  0  0  0  0  0  0
    8.7100  -15.2909   25.6151 C   0  0  0  0  0  0  0  0  0  0  0  0
    9.1651  -15.0784   26.7673 O   0  0  0  0  0  0  0  0  0  0  0  0
    9.9776  -18.7705   25.2155 C   0  0  0  0  0  0  0  0  0  0  0  0
    9.2556  -17.7140   26.0184 C   0  0  2  0  0  0  0  0  0  0  0  0
    8.7527  -16.6466   25.1765 N   0  0  0  0  0  0  0  0  0  0  0  0
   10.0700  -17.1845   27.1212 C   0  0  0  0  0  0  0  0  0  0  0  0
   10.0517  -17.6939   28.3916 O   0  0  0  0  0  0  0  0  0  0  0  0
   10.8280  -16.2083   26.8888 O   0  0  0  0  0  0  0  0  0  0  0  0
  2  1  1  6
  2  3  1  0
  4  6  1  0
  4  2  1  0
  4  5  1  6
  6  7  2  0
  9  8  1  6
  9 11  1  0
 10  9  1  0
 12 11  1  1
 13  6  1  0
 13 12  1  0
 14 18  1  0
 14 12  1  0
 15 14  2  0
 17 16  1  6
 17 18  1  0
 19 17  1  0
 19 20  1  0
 21 19  2  0
M  END
$$$$
