TLA.pdb
     RDKit          3D

 21 20  0  0  1  0  0  0  0  0999 V2000
    7.5319  -17.4083   19.8267 C   0  0  0  0  0  0  0  0  0  0  0  0
    7.7576  -17.0142   21.2635 C   0  0  1  0  0  0  0  0  0  0  0  0
    8.4708  -18.0163   21.9202 O   0  0  0  0  0  0  0  0  0  0  0  0
    8.6063  -15.7624   21.3145 C   0  0  2  0  0  0  0  0  0  0  0  0
    9.8444  -15.8905   20.6081 N   0  0  0  0  0  0  0  0  0  0  0  0
    8.8177  -15.3210   22.7315 C   0  0  0  0  0  0  0  0  0  0  0  0
    9.9497  -15.3991   23.2699 O   0  0  0  0  0  0  0  0  0  0  0  0
    7.8441  -11.4299   26.5230 C   0  0  0  0  0  0  0  0  0  0  0  0
    6.9111  -12.6419   26.5201 C   0  0  1  0  0  0  0  0  0  0  0  0
    5.5136  -12.0593   26.7981 C   0  0  0  0  0  0  0  0  0  0  0  0
    6.8487  -13.2945   25.1980 C   0  0  0  0  0  0  0  0  0  0  0  0
    7.9416  -14.2421   24.8517 C   0  0  2  0  0  0  0  0  0  0  0  0
    7.7617  -14.7996   23.5244 N   0  0  0  0  0  0  0  0  0  0  0  0
    8.2399  -15.2805   25.8338 C   0  0  0  0  0  0  0  0  0  0  0  0
    8.6319  -15.0702   27.0093 O   0  0  0  0  0  0  0  0  0  0  0  0
    7.4965  -18.9653   26.0241 C   0  0  0  0  0  0  0  0  0  0  0  0
    8.2588  -17.7253   26.4287 C   0  0  2  0  0  0  0  0  0  0  0  0
    8.0878  -16.6506   25.4711 N   0  0  0  0  0  0  0  0  0  0  0  0
    9.6815  -17.9918   26.6828 C   0  0  0  0  0  0  0  0  0  0  0  0
   10.1395  -18.7209   27.7469 O   0  0  0  0  0  0  0  0  0  0  0  0
   10.5294  -17.5254   25.8796 O   0  0  0  0  0  0  0  0  0  0  0  0
  2  1  1  6
  2  3  1  0
  4  6  1  0
  4  2  1  0
  4  5  1  1
  6  7  2  0
  9  8  1  6
  9 11  1  0
 10  9  1  0
 12 11  1  1
 13  6  1  0
 13 12  1  0
 14 18  1  0
 14 12  1  0
 15 14  2  0
 17 16  1  6
 17 18  1  0
 19 17  1  0
 19 20  1  0
 21 19  2  0
M  END
$$$$
