WLC.pdb
     RDKit          3D

 29 30  0  0  1  0  0  0  0  0999 V2000
   25.7091  -21.7389  -11.1395 N   0  0  0  0  0  0  0  0  0  0  0  0
   24.6257  -20.8408  -11.5340 C   0  0  1  0  0  0  0  0  0  0  0  0
   24.2203  -19.9453  -10.4191 C   0  0  0  0  0  0  0  0  0  0  0  0
   23.5929  -20.6288   -9.2774 C   0  0  0  0  0  0  0  0  0  0  0  0
   24.1317  -20.6228   -7.9875 C   0  0  0  0  0  0  0  0  0  0  0  0
   23.3082  -21.2897   -7.1747 N   0  0  0  0  0  0  0  0  0  0  0  0
   22.2357  -21.7491   -7.8535 C   0  0  0  0  0  0  0  0  0  0  0  0
   21.1399  -22.4854   -7.4641 C   0  0  0  0  0  0  0  0  0  0  0  0
   20.1815  -22.8384   -8.3752 C   0  0  0  0  0  0  0  0  0  0  0  0
   20.3736  -22.4240   -9.6743 C   0  0  0  0  0  0  0  0  0  0  0  0
   21.4579  -21.6873  -10.0932 C   0  0  0  0  0  0  0  0  0  0  0  0
   22.4267  -21.3293   -9.1688 C   0  0  0  0  0  0  0  0  0  0  0  0
   25.0072  -20.2002  -12.8000 C   0  0  0  0  0  0  0  0  0  0  0  0
   25.2580  -18.9579  -12.8479 O   0  0  0  0  0  0  0  0  0  0  0  0
   28.3939  -19.1142  -15.2000 C   0  0  0  0  0  0  0  0  0  0  0  0
   27.9825  -20.5778  -15.0813 C   0  0  2  0  0  0  0  0  0  0  0  0
   29.1729  -21.3872  -15.5876 C   0  0  0  0  0  0  0  0  0  0  0  0
   26.7389  -20.8646  -15.8469 C   0  0  0  0  0  0  0  0  0  0  0  0
   25.4880  -20.2627  -15.2950 C   0  0  2  0  0  0  0  0  0  0  0  0
   25.1234  -20.8899  -14.0251 N   0  0  0  0  0  0  0  0  0  0  0  0
   24.3667  -20.5093  -16.2134 C   0  0  0  0  0  0  0  0  0  0  0  0
   23.6488  -21.5183  -16.0681 O   0  0  0  0  0  0  0  0  0  0  0  0
   24.0584  -19.6319  -17.2805 N   0  0  0  0  0  0  0  0  0  0  0  0
   22.6847  -19.5364  -17.8019 C   0  0  1  0  0  0  0  0  0  0  0  0
   21.8427  -18.9489  -16.6875 C   0  0  0  0  0  0  0  0  0  0  0  0
   20.0825  -19.1688  -16.9393 S   0  0  0  0  0  0  0  0  0  0  0  0
   22.6469  -18.6580  -18.9696 C   0  0  0  0  0  0  0  0  0  0  0  0
   23.3742  -17.6459  -19.0217 O   0  0  0  0  0  0  0  0  0  0  0  0
   21.8040  -18.9391  -20.0301 O   0  0  0  0  0  0  0  0  0  0  0  0
  2  1  1  1
  3  4  1  0
  3  2  1  0
  4 12  1  0
  4  5  2  0
  5  6  1  0
  7  6  1  0
  7  8  2  0
  9  8  1  0
 10  9  2  0
 11 12  2  0
 11 10  1  0
 12  7  1  0
 13  2  1  0
 13 20  1  0
 14 13  2  0
 16 15  1  6
 16 17  1  0
 19 18  1  6
 18 16  1  0
 19 20  1  0
 21 19  1  0
 22 21  2  0
 23 21  1  0
 24 27  1  0
 24 23  1  0
 24 25  1  1
 26 25  1  0
 27 29  1  0
 28 27  2  0
M  END
$$$$
