WLC.pdb
     RDKit          3D

 29 30  0  0  1  0  0  0  0  0999 V2000
   24.3963  -19.8535  -10.0478 N   0  0  0  0  0  0  0  0  0  0  0  0
   25.7777  -20.1900  -10.3860 C   0  0  1  0  0  0  0  0  0  0  0  0
   26.3134  -21.2624   -9.5072 C   0  0  0  0  0  0  0  0  0  0  0  0
   26.4345  -20.8924   -8.0884 C   0  0  0  0  0  0  0  0  0  0  0  0
   25.3373  -20.7621   -7.2320 C   0  0  0  0  0  0  0  0  0  0  0  0
   25.7807  -20.4631   -6.0082 N   0  0  0  0  0  0  0  0  0  0  0  0
   27.1281  -20.3832   -5.9946 C   0  0  0  0  0  0  0  0  0  0  0  0
   28.0281  -20.0975   -4.9931 C   0  0  0  0  0  0  0  0  0  0  0  0
   29.3712  -20.0671   -5.2549 C   0  0  0  0  0  0  0  0  0  0  0  0
   29.7602  -20.3323   -6.5490 C   0  0  0  0  0  0  0  0  0  0  0  0
   28.8845  -20.6212   -7.5705 C   0  0  0  0  0  0  0  0  0  0  0  0
   27.5248  -20.6532   -7.3032 C   0  0  0  0  0  0  0  0  0  0  0  0
   25.8458  -20.4189  -11.8358 C   0  0  0  0  0  0  0  0  0  0  0  0
   24.8527  -20.8962  -12.4638 O   0  0  0  0  0  0  0  0  0  0  0  0
   27.0081  -18.5493  -16.7095 C   0  0  0  0  0  0  0  0  0  0  0  0
   27.7311  -18.0372  -15.4683 C   0  0  2  0  0  0  0  0  0  0  0  0
   28.9540  -17.2818  -15.9809 C   0  0  0  0  0  0  0  0  0  0  0  0
   28.0988  -19.1469  -14.5475 C   0  0  0  0  0  0  0  0  0  0  0  0
   26.9650  -19.9992  -14.0789 C   0  0  2  0  0  0  0  0  0  0  0  0
   26.9818  -20.1355  -12.6228 N   0  0  0  0  0  0  0  0  0  0  0  0
   27.1032  -21.3586  -14.6217 C   0  0  0  0  0  0  0  0  0  0  0  0
   28.1621  -21.9950  -14.4536 O   0  0  0  0  0  0  0  0  0  0  0  0
   26.0636  -21.9921  -15.3437 N   0  0  0  0  0  0  0  0  0  0  0  0
   26.2610  -23.3291  -15.9280 C   0  0  1  0  0  0  0  0  0  0  0  0
   25.1681  -24.2114  -15.3597 C   0  0  0  0  0  0  0  0  0  0  0  0
   25.4254  -25.9546  -15.6843 S   0  0  0  0  0  0  0  0  0  0  0  0
   26.1435  -23.2673  -17.3836 C   0  0  0  0  0  0  0  0  0  0  0  0
   25.3866  -22.4339  -17.9208 O   0  0  0  0  0  0  0  0  0  0  0  0
   26.8704  -24.1324  -18.1820 O   0  0  0  0  0  0  0  0  0  0  0  0
  2  1  1  1
  3  4  1  0
  3  2  1  0
  4 12  1  0
  4  5  2  0
  5  6  1  0
  7  6  1  0
  7  8  2  0
  9  8  1  0
 10  9  2  0
 11 12  2  0
 11 10  1  0
 12  7  1  0
 13  2  1  0
 13 20  1  0
 14 13  2  0
 16 15  1  6
 16 17  1  0
 19 18  1  6
 18 16  1  0
 19 20  1  0
 21 19  1  0
 22 21  2  0
 23 21  1  0
 24 27  1  0
 24 23  1  0
 24 25  1  1
 26 25  1  0
 27 29  1  0
 28 27  2  0
M  END
$$$$
