WLC.pdb
     RDKit          3D

 29 30  0  0  1  0  0  0  0  0999 V2000
   22.6090  -20.1350  -18.9132 N   0  0  0  0  0  0  0  0  0  0  0  0
   22.6379  -19.6020  -17.5528 C   0  0  1  0  0  0  0  0  0  0  0  0
   21.2682  -19.4010  -17.0117 C   0  0  0  0  0  0  0  0  0  0  0  0
   20.5100  -18.3107  -17.6450 C   0  0  0  0  0  0  0  0  0  0  0  0
   19.2969  -18.5049  -18.3119 C   0  0  0  0  0  0  0  0  0  0  0  0
   18.8435  -17.3212  -18.7324 N   0  0  0  0  0  0  0  0  0  0  0  0
   19.6935  -16.3326  -18.3828 C   0  0  0  0  0  0  0  0  0  0  0  0
   19.6686  -14.9727  -18.5947 C   0  0  0  0  0  0  0  0  0  0  0  0
   20.6861  -14.1803  -18.1366 C   0  0  0  0  0  0  0  0  0  0  0  0
   21.7127  -14.8085  -17.4674 C   0  0  0  0  0  0  0  0  0  0  0  0
   21.7650  -16.1647  -17.2402 C   0  0  0  0  0  0  0  0  0  0  0  0
   20.7329  -16.9656  -17.7034 C   0  0  0  0  0  0  0  0  0  0  0  0
   23.5533  -20.4341  -16.7601 C   0  0  0  0  0  0  0  0  0  0  0  0
   23.6682  -21.6752  -16.9944 O   0  0  0  0  0  0  0  0  0  0  0  0
   28.4638  -19.9125  -12.9945 C   0  0  0  0  0  0  0  0  0  0  0  0
   27.3122  -20.7823  -13.4873 C   0  0  2  0  0  0  0  0  0  0  0  0
   27.9592  -21.9479  -14.2298 C   0  0  0  0  0  0  0  0  0  0  0  0
   26.3727  -20.0157  -14.3501 C   0  0  0  0  0  0  0  0  0  0  0  0
   25.1799  -20.7721  -14.8365 C   0  0  2  0  0  0  0  0  0  0  0  0
   24.3539  -19.9387  -15.7094 N   0  0  0  0  0  0  0  0  0  0  0  0
   24.3279  -21.1482  -13.6988 C   0  0  0  0  0  0  0  0  0  0  0  0
   24.7012  -22.0319  -12.9024 O   0  0  0  0  0  0  0  0  0  0  0  0
   23.0730  -20.5378  -13.4617 N   0  0  0  0  0  0  0  0  0  0  0  0
   22.2315  -20.9645  -12.3313 C   0  0  1  0  0  0  0  0  0  0  0  0
   21.8381  -19.7033  -11.5892 C   0  0  0  0  0  0  0  0  0  0  0  0
   20.9912  -18.5093  -12.6224 S   0  0  0  0  0  0  0  0  0  0  0  0
   21.0351  -21.6470  -12.8207 C   0  0  0  0  0  0  0  0  0  0  0  0
   20.7939  -21.6987  -14.0435 O   0  0  0  0  0  0  0  0  0  0  0  0
   20.1569  -22.2432  -11.9333 O   0  0  0  0  0  0  0  0  0  0  0  0
  2  1  1  6
  3  4  1  0
  3  2  1  0
  4 12  1  0
  4  5  2  0
  5  6  1  0
  7  6  1  0
  7  8  2  0
  9  8  1  0
 10  9  2  0
 11 12  2  0
 11 10  1  0
 12  7  1  0
 13  2  1  0
 13 20  1  0
 14 13  2  0
 16 15  1  6
 16 17  1  0
 19 18  1  1
 18 16  1  0
 19 20  1  0
 21 19  1  0
 22 21  2  0
 23 21  1  0
 24 27  1  0
 24 23  1  0
 24 25  1  6
 26 25  1  0
 27 29  1  0
 28 27  2  0
M  END
$$$$
