WLC.pdb
     RDKit          3D

 29 30  0  0  1  0  0  0  0  0999 V2000
   26.4694  -19.5023  -12.4867 N   0  0  0  0  0  0  0  0  0  0  0  0
   25.4929  -20.5237  -12.1137 C   0  0  1  0  0  0  0  0  0  0  0  0
   25.3122  -21.5313  -13.1914 C   0  0  0  0  0  0  0  0  0  0  0  0
   24.8011  -20.9903  -14.4605 C   0  0  0  0  0  0  0  0  0  0  0  0
   25.5550  -20.9481  -15.6369 C   0  0  0  0  0  0  0  0  0  0  0  0
   24.7973  -20.4452  -16.6150 N   0  0  0  0  0  0  0  0  0  0  0  0
   23.5642  -20.1431  -16.1566 C   0  0  0  0  0  0  0  0  0  0  0  0
   22.4560  -19.6029  -16.7687 C   0  0  0  0  0  0  0  0  0  0  0  0
   21.3087  -19.3808  -16.0562 C   0  0  0  0  0  0  0  0  0  0  0  0
   21.3277  -19.7210  -14.7220 C   0  0  0  0  0  0  0  0  0  0  0  0
   22.4194  -20.2626  -14.0828 C   0  0  0  0  0  0  0  0  0  0  0  0
   23.5801  -20.4884  -14.8063 C   0  0  0  0  0  0  0  0  0  0  0  0
   25.8525  -21.0283  -10.7815 C   0  0  0  0  0  0  0  0  0  0  0  0
   26.0578  -22.2652  -10.5906 O   0  0  0  0  0  0  0  0  0  0  0  0
   28.6095  -20.8311   -7.0692 C   0  0  0  0  0  0  0  0  0  0  0  0
   27.8704  -19.5393   -7.4013 C   0  0  2  0  0  0  0  0  0  0  0  0
   28.4064  -18.4914   -6.4301 C   0  0  0  0  0  0  0  0  0  0  0  0
   26.3953  -19.7052   -7.2943 C   0  0  0  0  0  0  0  0  0  0  0  0
   25.7805  -20.6567   -8.2681 C   0  0  2  0  0  0  0  0  0  0  0  0
   25.9952  -20.2072   -9.6432 N   0  0  0  0  0  0  0  0  0  0  0  0
   24.3241  -20.7020   -8.0719 C   0  0  0  0  0  0  0  0  0  0  0  0
   23.6251  -19.7047   -8.3391 O   0  0  0  0  0  0  0  0  0  0  0  0
   23.6644  -21.8543   -7.5815 N   0  0  0  0  0  0  0  0  0  0  0  0
   22.2154  -21.8366   -7.3205 C   0  0  1  0  0  0  0  0  0  0  0  0
   21.5630  -22.5746   -8.4719 C   0  0  0  0  0  0  0  0  0  0  0  0
   19.8042  -22.8294   -8.2434 S   0  0  0  0  0  0  0  0  0  0  0  0
   21.9198  -22.5185   -6.0618 C   0  0  0  0  0  0  0  0  0  0  0  0
   22.7406  -23.3187   -5.5698 O   0  0  0  0  0  0  0  0  0  0  0  0
   20.7265  -22.2840   -5.4020 O   0  0  0  0  0  0  0  0  0  0  0  0
  2  1  1  6
  3  4  1  0
  3  2  1  0
  4 12  1  0
  4  5  2  0
  5  6  1  0
  7  6  1  0
  7  8  2  0
  9  8  1  0
 10  9  2  0
 11 12  2  0
 11 10  1  0
 12  7  1  0
 13  2  1  0
 13 20  1  0
 14 13  2  0
 16 15  1  1
 16 17  1  0
 19 18  1  1
 18 16  1  0
 19 20  1  0
 21 19  1  0
 22 21  2  0
 23 21  1  0
 24 27  1  0
 24 23  1  0
 24 25  1  6
 26 25  1  0
 27 29  1  0
 28 27  2  0
M  END
$$$$
