WLC.pdb
     RDKit          3D

 29 30  0  0  1  0  0  0  0  0999 V2000
   27.0594  -19.0800  -10.3890 N   0  0  0  0  0  0  0  0  0  0  0  0
   26.6879  -20.4829  -10.2163 C   0  0  1  0  0  0  0  0  0  0  0  0
   26.4749  -20.8232   -8.7852 C   0  0  0  0  0  0  0  0  0  0  0  0
   27.6324  -20.5696   -7.9133 C   0  0  0  0  0  0  0  0  0  0  0  0
   28.9545  -20.5854   -8.3673 C   0  0  0  0  0  0  0  0  0  0  0  0
   29.7620  -20.2756   -7.3497 N   0  0  0  0  0  0  0  0  0  0  0  0
   29.0492  -20.0515   -6.2255 C   0  0  0  0  0  0  0  0  0  0  0  0
   29.4234  -19.7189   -4.9433 C   0  0  0  0  0  0  0  0  0  0  0  0
   28.4803  -19.5597   -3.9643 C   0  0  0  0  0  0  0  0  0  0  0  0
   27.1657  -19.7481   -4.3285 C   0  0  0  0  0  0  0  0  0  0  0  0
   26.7613  -20.0804   -5.6011 C   0  0  0  0  0  0  0  0  0  0  0  0
   27.7176  -20.2396   -6.5919 C   0  0  0  0  0  0  0  0  0  0  0  0
   25.5865  -20.7767  -11.1435 C   0  0  0  0  0  0  0  0  0  0  0  0
   24.5646  -20.0274  -11.1940 O   0  0  0  0  0  0  0  0  0  0  0  0
   24.8427  -24.4878  -16.1349 C   0  0  0  0  0  0  0  0  0  0  0  0
   24.3411  -23.3005  -15.3198 C   0  0  2  0  0  0  0  0  0  0  0  0
   24.3503  -22.1082  -16.2721 C   0  0  0  0  0  0  0  0  0  0  0  0
   25.1810  -23.0657  -14.1139 C   0  0  0  0  0  0  0  0  0  0  0  0
   24.7002  -21.9938  -13.1912 C   0  0  2  0  0  0  0  0  0  0  0  0
   25.5751  -21.8781  -12.0250 N   0  0  0  0  0  0  0  0  0  0  0  0
   23.3678  -22.3391  -12.6743 C   0  0  0  0  0  0  0  0  0  0  0  0
   23.2040  -23.3839  -12.0138 O   0  0  0  0  0  0  0  0  0  0  0  0
   22.2358  -21.5193  -12.8982 N   0  0  0  0  0  0  0  0  0  0  0  0
   20.9097  -21.9158  -12.3960 C   0  0  1  0  0  0  0  0  0  0  0  0
   20.1505  -20.6319  -12.1292 C   0  0  0  0  0  0  0  0  0  0  0  0
   18.4794  -20.9064  -11.5440 S   0  0  0  0  0  0  0  0  0  0  0  0
   20.2053  -22.7104  -13.4004 C   0  0  0  0  0  0  0  0  0  0  0  0
   19.6226  -23.7646  -13.0760 O   0  0  0  0  0  0  0  0  0  0  0  0
   20.1767  -22.3022  -14.7221 O   0  0  0  0  0  0  0  0  0  0  0  0
  2  1  1  1
  3  4  1  0
  3  2  1  0
  4 12  1  0
  4  5  2  0
  5  6  1  0
  7  6  1  0
  7  8  2  0
  9  8  1  0
 10  9  2  0
 11 12  2  0
 11 10  1  0
 12  7  1  0
 13  2  1  0
 13 20  1  0
 14 13  2  0
 16 15  1  6
 16 17  1  0
 19 18  1  6
 18 16  1  0
 19 20  1  0
 21 19  1  0
 22 21  2  0
 23 21  1  0
 24 27  1  0
 24 23  1  0
 24 25  1  6
 26 25  1  0
 27 29  1  0
 28 27  2  0
M  END
$$$$
