WLC.pdb
     RDKit          3D

 29 30  0  0  1  0  0  0  0  0999 V2000
   26.4354  -19.7515  -12.3395 N   0  0  0  0  0  0  0  0  0  0  0  0
   25.9510  -21.1220  -12.1889 C   0  0  1  0  0  0  0  0  0  0  0  0
   25.3214  -21.3400  -10.8603 C   0  0  0  0  0  0  0  0  0  0  0  0
   26.0750  -20.7876   -9.7239 C   0  0  0  0  0  0  0  0  0  0  0  0
   25.5292  -19.8862   -8.8053 C   0  0  0  0  0  0  0  0  0  0  0  0
   26.4473  -19.6121   -7.8749 N   0  0  0  0  0  0  0  0  0  0  0  0
   27.5915  -20.2848   -8.1202 C   0  0  0  0  0  0  0  0  0  0  0  0
   28.8015  -20.3227   -7.4650 C   0  0  0  0  0  0  0  0  0  0  0  0
   29.8254  -21.0953   -7.9424 C   0  0  0  0  0  0  0  0  0  0  0  0
   29.5802  -21.8153   -9.0903 C   0  0  0  0  0  0  0  0  0  0  0  0
   28.3819  -21.7980   -9.7667 C   0  0  0  0  0  0  0  0  0  0  0  0
   27.3454  -21.0163   -9.2809 C   0  0  0  0  0  0  0  0  0  0  0  0
   25.1434  -21.4490  -13.3721 C   0  0  0  0  0  0  0  0  0  0  0  0
   24.6383  -20.5305  -14.0860 O   0  0  0  0  0  0  0  0  0  0  0  0
   26.3738  -23.4177  -17.2568 C   0  0  0  0  0  0  0  0  0  0  0  0
   26.2076  -24.3824  -16.0875 C   0  0  2  0  0  0  0  0  0  0  0  0
   26.6677  -25.7433  -16.6020 C   0  0  0  0  0  0  0  0  0  0  0  0
   24.8046  -24.4114  -15.5922 C   0  0  0  0  0  0  0  0  0  0  0  0
   24.2717  -23.1109  -15.0862 C   0  0  2  0  0  0  0  0  0  0  0  0
   24.8729  -22.7663  -13.7983 N   0  0  0  0  0  0  0  0  0  0  0  0
   22.8248  -23.2213  -14.8493 C   0  0  0  0  0  0  0  0  0  0  0  0
   22.0372  -23.3028  -15.8124 O   0  0  0  0  0  0  0  0  0  0  0  0
   22.2728  -23.2393  -13.5460 N   0  0  0  0  0  0  0  0  0  0  0  0
   20.8176  -23.3432  -13.3476 C   0  0  1  0  0  0  0  0  0  0  0  0
   20.6144  -24.0120  -12.0032 C   0  0  0  0  0  0  0  0  0  0  0  0
   21.2329  -25.6927  -11.9482 S   0  0  0  0  0  0  0  0  0  0  0  0
   20.2122  -22.0128  -13.3377 C   0  0  0  0  0  0  0  0  0  0  0  0
   20.9298  -20.9928  -13.3622 O   0  0  0  0  0  0  0  0  0  0  0  0
   18.8365  -21.8699  -13.3009 O   0  0  0  0  0  0  0  0  0  0  0  0
  2  1  1  6
  3  4  1  0
  3  2  1  0
  4 12  1  0
  4  5  2  0
  5  6  1  0
  7  6  1  0
  7  8  2  0
  9  8  1  0
 10  9  2  0
 11 12  2  0
 11 10  1  0
 12  7  1  0
 13  2  1  0
 13 20  1  0
 14 13  2  0
 16 15  1  6
 16 17  1  0
 19 18  1  1
 18 16  1  0
 19 20  1  0
 21 19  1  0
 22 21  2  0
 23 21  1  0
 24 27  1  0
 24 23  1  0
 24 25  1  1
 26 25  1  0
 27 29  1  0
 28 27  2  0
M  END
$$$$
