WLC.pdb
     RDKit          3D

 29 30  0  0  1  0  0  0  0  0999 V2000
   28.0755  -20.2148  -16.1435 N   0  0  0  0  0  0  0  0  0  0  0  0
   26.9575  -19.7730  -15.3123 C   0  0  1  0  0  0  0  0  0  0  0  0
   25.8795  -19.1518  -16.1254 C   0  0  0  0  0  0  0  0  0  0  0  0
   26.2592  -17.8991  -16.7971 C   0  0  0  0  0  0  0  0  0  0  0  0
   26.3686  -17.7741  -18.1852 C   0  0  0  0  0  0  0  0  0  0  0  0
   26.6838  -16.5101  -18.4792 N   0  0  0  0  0  0  0  0  0  0  0  0
   26.7946  -15.7715  -17.3548 C   0  0  0  0  0  0  0  0  0  0  0  0
   27.1057  -14.4473  -17.1443 C   0  0  0  0  0  0  0  0  0  0  0  0
   27.1655  -13.9419  -15.8738 C   0  0  0  0  0  0  0  0  0  0  0  0
   26.9028  -14.8156  -14.8423 C   0  0  0  0  0  0  0  0  0  0  0  0
   26.5889  -16.1434  -15.0214 C   0  0  0  0  0  0  0  0  0  0  0  0
   26.5272  -16.6533  -16.3089 C   0  0  0  0  0  0  0  0  0  0  0  0
   26.5748  -20.8900  -14.4378 C   0  0  0  0  0  0  0  0  0  0  0  0
   26.6899  -22.0901  -14.8315 O   0  0  0  0  0  0  0  0  0  0  0  0
   26.8141  -19.7948  -10.7510 C   0  0  0  0  0  0  0  0  0  0  0  0
   25.5767  -20.5511  -10.2796 C   0  0  2  0  0  0  0  0  0  0  0  0
   25.7998  -20.8308   -8.7961 C   0  0  0  0  0  0  0  0  0  0  0  0
   25.3614  -21.7982  -11.0626 C   0  0  0  0  0  0  0  0  0  0  0  0
   25.0738  -21.6063  -12.5158 C   0  0  2  0  0  0  0  0  0  0  0  0
   26.0660  -20.7262  -13.1323 N   0  0  0  0  0  0  0  0  0  0  0  0
   23.7727  -20.9429  -12.6851 C   0  0  0  0  0  0  0  0  0  0  0  0
   23.6722  -19.7110  -12.5216 O   0  0  0  0  0  0  0  0  0  0  0  0
   22.6012  -21.6571  -13.0332 N   0  0  0  0  0  0  0  0  0  0  0  0
   21.3144  -20.9591  -13.1904 C   0  0  1  0  0  0  0  0  0  0  0  0
   20.7590  -21.3808  -14.5357 C   0  0  0  0  0  0  0  0  0  0  0  0
   19.0606  -20.8707  -14.7915 S   0  0  0  0  0  0  0  0  0  0  0  0
   20.3924  -21.3522  -12.1265 C   0  0  0  0  0  0  0  0  0  0  0  0
   20.3809  -22.5255  -11.7032 O   0  0  0  0  0  0  0  0  0  0  0  0
   19.5222  -20.4275  -11.5771 O   0  0  0  0  0  0  0  0  0  0  0  0
  2  1  1  6
  3  4  1  0
  3  2  1  0
  4 12  1  0
  4  5  2  0
  5  6  1  0
  7  6  1  0
  7  8  2  0
  9  8  1  0
 10  9  2  0
 11 12  2  0
 11 10  1  0
 12  7  1  0
 13  2  1  0
 13 20  1  0
 14 13  2  0
 16 15  1  6
 16 17  1  0
 19 18  1  1
 18 16  1  0
 19 20  1  0
 21 19  1  0
 22 21  2  0
 23 21  1  0
 24 27  1  0
 24 23  1  0
 24 25  1  6
 26 25  1  0
 27 29  1  0
 28 27  2  0
M  END
$$$$
