WLC.pdb
     RDKit          3D

 29 30  0  0  1  0  0  0  0  0999 V2000
   25.7566  -19.2364  -11.4475 N   0  0  0  0  0  0  0  0  0  0  0  0
   26.0183  -20.6737  -11.4872 C   0  0  1  0  0  0  0  0  0  0  0  0
   25.8165  -21.3063  -10.1574 C   0  0  0  0  0  0  0  0  0  0  0  0
   26.5564  -20.6719   -9.0553 C   0  0  0  0  0  0  0  0  0  0  0  0
   25.9353  -19.9875   -8.0065 C   0  0  0  0  0  0  0  0  0  0  0  0
   26.8722  -19.5706   -7.1509 N   0  0  0  0  0  0  0  0  0  0  0  0
   28.1008  -19.9394   -7.5712 C   0  0  0  0  0  0  0  0  0  0  0  0
   29.3574  -19.7383   -7.0465 C   0  0  0  0  0  0  0  0  0  0  0  0
   30.4644  -20.2162   -7.6939 C   0  0  0  0  0  0  0  0  0  0  0  0
   30.2526  -20.8938   -8.8739 C   0  0  0  0  0  0  0  0  0  0  0  0
   29.0094  -21.1107   -9.4226 C   0  0  0  0  0  0  0  0  0  0  0  0
   27.8891  -20.6273   -8.7647 C   0  0  0  0  0  0  0  0  0  0  0  0
   25.2674  -21.2393  -12.6164 C   0  0  0  0  0  0  0  0  0  0  0  0
   24.1712  -20.7222  -12.9898 O   0  0  0  0  0  0  0  0  0  0  0  0
   25.9114  -25.8817  -16.7941 C   0  0  0  0  0  0  0  0  0  0  0  0
   25.1839  -24.6121  -16.3650 C   0  0  2  0  0  0  0  0  0  0  0  0
   25.3928  -23.6099  -17.4966 C   0  0  0  0  0  0  0  0  0  0  0  0
   25.6871  -24.1027  -15.0603 C   0  0  0  0  0  0  0  0  0  0  0  0
   24.9981  -22.8866  -14.5332 C   0  0  2  0  0  0  0  0  0  0  0  0
   25.6892  -22.3652  -13.3544 N   0  0  0  0  0  0  0  0  0  0  0  0
   23.6383  -23.2327  -14.0942 C   0  0  0  0  0  0  0  0  0  0  0  0
   23.4682  -24.0560  -13.1736 O   0  0  0  0  0  0  0  0  0  0  0  0
   22.4862  -22.6596  -14.6841 N   0  0  0  0  0  0  0  0  0  0  0  0
   21.1390  -23.0603  -14.2455 C   0  0  1  0  0  0  0  0  0  0  0  0
   20.2514  -21.8448  -14.4210 C   0  0  0  0  0  0  0  0  0  0  0  0
   18.5266  -22.1702  -14.0609 S   0  0  0  0  0  0  0  0  0  0  0  0
   20.6446  -24.1603  -15.0713 C   0  0  0  0  0  0  0  0  0  0  0  0
   19.9889  -25.0892  -14.5582 O   0  0  0  0  0  0  0  0  0  0  0  0
   20.8982  -24.1837  -16.4312 O   0  0  0  0  0  0  0  0  0  0  0  0
  2  1  1  1
  3  4  1  0
  3  2  1  0
  4 12  1  0
  4  5  2  0
  5  6  1  0
  7  6  1  0
  7  8  2  0
  9  8  1  0
 10  9  2  0
 11 12  2  0
 11 10  1  0
 12  7  1  0
 13  2  1  0
 13 20  1  0
 14 13  2  0
 16 15  1  6
 16 17  1  0
 19 18  1  1
 18 16  1  0
 19 20  1  0
 21 19  1  0
 22 21  2  0
 23 21  1  0
 24 27  1  0
 24 23  1  0
 24 25  1  6
 26 25  1  0
 27 29  1  0
 28 27  2  0
M  END
$$$$
