WLC.pdb
     RDKit          3D

 29 30  0  0  1  0  0  0  0  0999 V2000
   26.4082  -19.8469  -12.5234 N   0  0  0  0  0  0  0  0  0  0  0  0
   26.0859  -21.2657  -12.3852 C   0  0  1  0  0  0  0  0  0  0  0  0
   25.3955  -21.5501  -11.1000 C   0  0  0  0  0  0  0  0  0  0  0  0
   26.0601  -20.9986   -9.9090 C   0  0  0  0  0  0  0  0  0  0  0  0
   25.4035  -20.2127   -8.9574 C   0  0  0  0  0  0  0  0  0  0  0  0
   26.2646  -19.9089   -7.9828 N   0  0  0  0  0  0  0  0  0  0  0  0
   27.4758  -20.4513   -8.2295 C   0  0  0  0  0  0  0  0  0  0  0  0
   28.6655  -20.4122   -7.5382 C   0  0  0  0  0  0  0  0  0  0  0  0
   29.7731  -21.0510   -8.0263 C   0  0  0  0  0  0  0  0  0  0  0  0
   29.6311  -21.7193   -9.2220 C   0  0  0  0  0  0  0  0  0  0  0  0
   28.4557  -21.7763   -9.9352 C   0  0  0  0  0  0  0  0  0  0  0  0
   27.3344  -21.1301   -9.4386 C   0  0  0  0  0  0  0  0  0  0  0  0
   25.4101  -21.6982  -13.6161 C   0  0  0  0  0  0  0  0  0  0  0  0
   24.8162  -20.8588  -14.3585 O   0  0  0  0  0  0  0  0  0  0  0  0
   26.9642  -23.7527  -17.5726 C   0  0  0  0  0  0  0  0  0  0  0  0
   26.8777  -24.5594  -16.2813 C   0  0  2  0  0  0  0  0  0  0  0  0
   27.5385  -25.9012  -16.5837 C   0  0  0  0  0  0  0  0  0  0  0  0
   25.4708  -24.7143  -15.8216 C   0  0  0  0  0  0  0  0  0  0  0  0
   24.8076  -23.4651  -15.3409 C   0  0  2  0  0  0  0  0  0  0  0  0
   25.3679  -23.0367  -14.0597 N   0  0  0  0  0  0  0  0  0  0  0  0
   23.3789  -23.7172  -15.1022 C   0  0  0  0  0  0  0  0  0  0  0  0
   22.6389  -24.0656  -16.0433 O   0  0  0  0  0  0  0  0  0  0  0  0
   22.7918  -23.5785  -13.8217 N   0  0  0  0  0  0  0  0  0  0  0  0
   21.3483  -23.7956  -13.6294 C   0  0  1  0  0  0  0  0  0  0  0  0
   21.1503  -24.0832  -12.1549 C   0  0  0  0  0  0  0  0  0  0  0  0
   19.4274  -24.2468  -11.6909 S   0  0  0  0  0  0  0  0  0  0  0  0
   20.6018  -22.5968  -14.0067 C   0  0  0  0  0  0  0  0  0  0  0  0
   21.0696  -21.4637  -13.7763 O   0  0  0  0  0  0  0  0  0  0  0  0
   19.3682  -22.7056  -14.6237 O   0  0  0  0  0  0  0  0  0  0  0  0
  2  1  1  6
  3  4  1  0
  3  2  1  0
  4 12  1  0
  4  5  2  0
  5  6  1  0
  7  6  1  0
  7  8  2  0
  9  8  1  0
 10  9  2  0
 11 12  2  0
 11 10  1  0
 12  7  1  0
 13  2  1  0
 13 20  1  0
 14 13  2  0
 16 15  1  6
 16 17  1  0
 19 18  1  1
 18 16  1  0
 19 20  1  0
 21 19  1  0
 22 21  2  0
 23 21  1  0
 24 27  1  0
 24 23  1  0
 24 25  1  1
 26 25  1  0
 27 29  1  0
 28 27  2  0
M  END
$$$$
