WLC.pdb
     RDKit          3D

 29 30  0  0  1  0  0  0  0  0999 V2000
   26.8245  -20.7999  -15.4070 N   0  0  0  0  0  0  0  0  0  0  0  0
   25.5038  -20.2773  -15.0628 C   0  0  1  0  0  0  0  0  0  0  0  0
   24.5989  -20.2498  -16.2416 C   0  0  0  0  0  0  0  0  0  0  0  0
   24.9973  -19.3107  -17.3017 C   0  0  0  0  0  0  0  0  0  0  0  0
   26.0396  -19.5618  -18.1988 C   0  0  0  0  0  0  0  0  0  0  0  0
   26.1203  -18.5438  -19.0595 N   0  0  0  0  0  0  0  0  0  0  0  0
   25.1816  -17.6127  -18.7874 C   0  0  0  0  0  0  0  0  0  0  0  0
   24.8783  -16.4052  -19.3745 C   0  0  0  0  0  0  0  0  0  0  0  0
   23.8627  -15.6304  -18.8833 C   0  0  0  0  0  0  0  0  0  0  0  0
   23.1783  -16.1178  -17.7922 C   0  0  0  0  0  0  0  0  0  0  0  0
   23.4581  -17.3204  -17.1845 C   0  0  0  0  0  0  0  0  0  0  0  0
   24.4859  -18.1047  -17.6843 C   0  0  0  0  0  0  0  0  0  0  0  0
   25.0286  -20.9966  -13.8730 C   0  0  0  0  0  0  0  0  0  0  0  0
   24.9829  -22.2638  -13.8570 O   0  0  0  0  0  0  0  0  0  0  0  0
   26.3878  -21.8799   -9.8683 C   0  0  0  0  0  0  0  0  0  0  0  0
   25.8573  -20.4548   -9.9833 C   0  0  2  0  0  0  0  0  0  0  0  0
   26.2030  -19.7741   -8.6620 C   0  0  0  0  0  0  0  0  0  0  0  0
   24.3961  -20.4316  -10.2644 C   0  0  0  0  0  0  0  0  0  0  0  0
   23.9780  -21.0482  -11.5591 C   0  0  2  0  0  0  0  0  0  0  0  0
   24.5993  -20.3594  -12.6898 N   0  0  0  0  0  0  0  0  0  0  0  0
   22.5256  -20.9039  -11.7362 C   0  0  0  0  0  0  0  0  0  0  0  0
   22.0256  -19.7754  -11.9127 O   0  0  0  0  0  0  0  0  0  0  0  0
   21.6488  -22.0148  -11.7145 N   0  0  0  0  0  0  0  0  0  0  0  0
   20.2032  -21.8355  -11.9294 C   0  0  1  0  0  0  0  0  0  0  0  0
   19.7421  -23.0191  -12.7555 C   0  0  0  0  0  0  0  0  0  0  0  0
   18.3620  -22.6360  -13.8321 S   0  0  0  0  0  0  0  0  0  0  0  0
   19.4997  -21.8191  -10.6483 C   0  0  0  0  0  0  0  0  0  0  0  0
   20.0426  -22.2802   -9.6243 O   0  0  0  0  0  0  0  0  0  0  0  0
   18.2237  -21.2920  -10.5570 O   0  0  0  0  0  0  0  0  0  0  0  0
  2  1  1  6
  3  4  1  0
  3  2  1  0
  4 12  1  0
  4  5  2  0
  5  6  1  0
  7  6  1  0
  7  8  2  0
  9  8  1  0
 10  9  2  0
 11 12  2  0
 11 10  1  0
 12  7  1  0
 13  2  1  0
 13 20  1  0
 14 13  2  0
 16 15  1  1
 16 17  1  0
 19 18  1  1
 18 16  1  0
 19 20  1  0
 21 19  1  0
 22 21  2  0
 23 21  1  0
 24 27  1  0
 24 23  1  0
 24 25  1  6
 26 25  1  0
 27 29  1  0
 28 27  2  0
M  END
$$$$
