WLC.pdb
     RDKit          3D

 29 30  0  0  1  0  0  0  0  0999 V2000
   24.8468  -18.5271  -13.2834 N   0  0  0  0  0  0  0  0  0  0  0  0
   25.7965  -19.5796  -12.9286 C   0  0  1  0  0  0  0  0  0  0  0  0
   25.1050  -20.8405  -12.5527 C   0  0  0  0  0  0  0  0  0  0  0  0
   24.4883  -20.8297  -11.2170 C   0  0  0  0  0  0  0  0  0  0  0  0
   23.1089  -20.9165  -11.0069 C   0  0  0  0  0  0  0  0  0  0  0  0
   22.8743  -20.9258   -9.6921 N   0  0  0  0  0  0  0  0  0  0  0  0
   24.0307  -20.8481   -9.0001 C   0  0  0  0  0  0  0  0  0  0  0  0
   24.3013  -20.8146   -7.6509 C   0  0  0  0  0  0  0  0  0  0  0  0
   25.5913  -20.7174   -7.2040 C   0  0  0  0  0  0  0  0  0  0  0  0
   26.5796  -20.6559   -8.1609 C   0  0  0  0  0  0  0  0  0  0  0  0
   26.3402  -20.6876   -9.5157 C   0  0  0  0  0  0  0  0  0  0  0  0
   25.0332  -20.7877   -9.9666 C   0  0  0  0  0  0  0  0  0  0  0  0
   26.8007  -19.6622  -13.9980 C   0  0  0  0  0  0  0  0  0  0  0  0
   26.5853  -19.1355  -15.1314 O   0  0  0  0  0  0  0  0  0  0  0  0
   29.5619  -21.3486  -12.0211 C   0  0  0  0  0  0  0  0  0  0  0  0
   30.3782  -21.7492  -13.2453 C   0  0  2  0  0  0  0  0  0  0  0  0
   31.7659  -22.1074  -12.7214 C   0  0  0  0  0  0  0  0  0  0  0  0
   30.4217  -20.6604  -14.2590 C   0  0  0  0  0  0  0  0  0  0  0  0
   29.1072  -20.2881  -14.8632 C   0  0  2  0  0  0  0  0  0  0  0  0
   28.0456  -20.3110  -13.8576 N   0  0  0  0  0  0  0  0  0  0  0  0
   28.7286  -21.2753  -15.8848 C   0  0  0  0  0  0  0  0  0  0  0  0
   29.4371  -21.4296  -16.8991 O   0  0  0  0  0  0  0  0  0  0  0  0
   27.5683  -22.0773  -15.7658 N   0  0  0  0  0  0  0  0  0  0  0  0
   27.2102  -23.0417  -16.8191 C   0  0  1  0  0  0  0  0  0  0  0  0
   26.8119  -24.3213  -16.1119 C   0  0  0  0  0  0  0  0  0  0  0  0
   28.2031  -25.3885  -15.7430 S   0  0  0  0  0  0  0  0  0  0  0  0
   26.0858  -22.5376  -17.6053 C   0  0  0  0  0  0  0  0  0  0  0  0
   25.3057  -21.6931  -17.1214 O   0  0  0  0  0  0  0  0  0  0  0  0
   25.8742  -22.9915  -18.8951 O   0  0  0  0  0  0  0  0  0  0  0  0
  2  1  1  6
  3  4  1  0
  3  2  1  0
  4 12  1  0
  4  5  2  0
  5  6  1  0
  7  6  1  0
  7  8  2  0
  9  8  1  0
 10  9  2  0
 11 12  2  0
 11 10  1  0
 12  7  1  0
 13  2  1  0
 13 20  1  0
 14 13  2  0
 16 15  1  1
 16 17  1  0
 19 18  1  1
 18 16  1  0
 19 20  1  0
 21 19  1  0
 22 21  2  0
 23 21  1  0
 24 27  1  0
 24 23  1  0
 24 25  1  1
 26 25  1  0
 27 29  1  0
 28 27  2  0
M  END
$$$$
