WLC.pdb
     RDKit          3D

 29 30  0  0  1  0  0  0  0  0999 V2000
   28.0967  -21.0434  -14.3547 N   0  0  0  0  0  0  0  0  0  0  0  0
   27.1535  -20.1911  -13.6338 C   0  0  1  0  0  0  0  0  0  0  0  0
   26.1323  -19.6087  -14.5434 C   0  0  0  0  0  0  0  0  0  0  0  0
   26.6697  -18.7121  -15.5786 C   0  0  0  0  0  0  0  0  0  0  0  0
   26.8178  -19.0859  -16.9174 C   0  0  0  0  0  0  0  0  0  0  0  0
   27.2858  -18.0416  -17.6059 N   0  0  0  0  0  0  0  0  0  0  0  0
   27.4634  -16.9765  -16.7959 C   0  0  0  0  0  0  0  0  0  0  0  0
   27.9256  -15.7015  -17.0316 C   0  0  0  0  0  0  0  0  0  0  0  0
   28.0223  -14.7981  -16.0081 C   0  0  0  0  0  0  0  0  0  0  0  0
   27.6396  -15.2294  -14.7576 C   0  0  0  0  0  0  0  0  0  0  0  0
   27.1736  -16.4966  -14.4914 C   0  0  0  0  0  0  0  0  0  0  0  0
   27.0748  -17.4099  -15.5295 C   0  0  0  0  0  0  0  0  0  0  0  0
   26.6611  -20.9432  -12.4716 C   0  0  0  0  0  0  0  0  0  0  0  0
   26.5473  -22.2055  -12.5174 O   0  0  0  0  0  0  0  0  0  0  0  0
   27.8511  -21.4648   -8.2192 C   0  0  0  0  0  0  0  0  0  0  0  0
   27.1395  -20.1395   -8.4698 C   0  0  2  0  0  0  0  0  0  0  0  0
   27.2560  -19.3518   -7.1681 C   0  0  0  0  0  0  0  0  0  0  0  0
   25.7238  -20.3433   -8.8811 C   0  0  0  0  0  0  0  0  0  0  0  0
   25.5253  -21.0179  -10.1990 C   0  0  2  0  0  0  0  0  0  0  0  0
   26.2878  -20.3447  -11.2499 N   0  0  0  0  0  0  0  0  0  0  0  0
   24.1123  -20.9333  -10.5965 C   0  0  0  0  0  0  0  0  0  0  0  0
   23.2127  -21.1364   -9.7575 O   0  0  0  0  0  0  0  0  0  0  0  0
   23.7181  -20.6245  -11.9205 N   0  0  0  0  0  0  0  0  0  0  0  0
   22.2927  -20.5335  -12.2783 C   0  0  1  0  0  0  0  0  0  0  0  0
   22.2034  -19.5677  -13.4425 C   0  0  0  0  0  0  0  0  0  0  0  0
   20.5437  -19.3987  -14.0960 S   0  0  0  0  0  0  0  0  0  0  0  0
   21.7874  -21.8448  -12.6802 C   0  0  0  0  0  0  0  0  0  0  0  0
   22.5341  -22.6578  -13.2611 O   0  0  0  0  0  0  0  0  0  0  0  0
   20.4753  -22.1990  -12.4208 O   0  0  0  0  0  0  0  0  0  0  0  0
  2  1  1  6
  3  4  1  0
  3  2  1  0
  4 12  1  0
  4  5  2  0
  5  6  1  0
  7  6  1  0
  7  8  2  0
  9  8  1  0
 10  9  2  0
 11 12  2  0
 11 10  1  0
 12  7  1  0
 13  2  1  0
 13 20  1  0
 14 13  2  0
 16 15  1  1
 16 17  1  0
 19 18  1  1
 18 16  1  0
 19 20  1  0
 21 19  1  0
 22 21  2  0
 23 21  1  0
 24 27  1  0
 24 23  1  0
 24 25  1  6
 26 25  1  0
 27 29  1  0
 28 27  2  0
M  END
$$$$
