WLC.pdb
     RDKit          3D

 29 30  0  0  1  0  0  0  0  0999 V2000
   26.3465  -18.1752   -9.1572 N   0  0  0  0  0  0  0  0  0  0  0  0
   26.6175  -19.6065   -9.2741 C   0  0  1  0  0  0  0  0  0  0  0  0
   26.5171  -20.2943   -7.9603 C   0  0  0  0  0  0  0  0  0  0  0  0
   27.3336  -19.7001   -6.8904 C   0  0  0  0  0  0  0  0  0  0  0  0
   27.6326  -18.3363   -6.8194 C   0  0  0  0  0  0  0  0  0  0  0  0
   28.3487  -18.1103   -5.7150 N   0  0  0  0  0  0  0  0  0  0  0  0
   28.5506  -19.2579   -5.0336 C   0  0  0  0  0  0  0  0  0  0  0  0
   29.2240  -19.5343   -3.8653 C   0  0  0  0  0  0  0  0  0  0  0  0
   29.2902  -20.8156   -3.3888 C   0  0  0  0  0  0  0  0  0  0  0  0
   28.6589  -21.7897   -4.1298 C   0  0  0  0  0  0  0  0  0  0  0  0
   27.9782  -21.5441   -5.3003 C   0  0  0  0  0  0  0  0  0  0  0  0
   27.9108  -20.2456   -5.7806 C   0  0  0  0  0  0  0  0  0  0  0  0
   25.7928  -20.1352  -10.3692 C   0  0  0  0  0  0  0  0  0  0  0  0
   24.5326  -19.9928  -10.3585 O   0  0  0  0  0  0  0  0  0  0  0  0
   27.3132  -18.9474  -14.7635 C   0  0  0  0  0  0  0  0  0  0  0  0
   27.8594  -20.2430  -14.1733 C   0  0  2  0  0  0  0  0  0  0  0  0
   28.8273  -20.7989  -15.2138 C   0  0  0  0  0  0  0  0  0  0  0  0
   26.7696  -21.2026  -13.8473 C   0  0  0  0  0  0  0  0  0  0  0  0
   25.7728  -20.7294  -12.8403 C   0  0  2  0  0  0  0  0  0  0  0  0
   26.3161  -20.8208  -11.4856 N   0  0  0  0  0  0  0  0  0  0  0  0
   24.5848  -21.5952  -12.8672 C   0  0  0  0  0  0  0  0  0  0  0  0
   24.6488  -22.7599  -12.4267 O   0  0  0  0  0  0  0  0  0  0  0  0
   23.3422  -21.1555  -13.3832 N   0  0  0  0  0  0  0  0  0  0  0  0
   22.1672  -22.0428  -13.3711 C   0  0  1  0  0  0  0  0  0  0  0  0
   21.3428  -21.6467  -12.1630 C   0  0  0  0  0  0  0  0  0  0  0  0
   19.8455  -22.6136  -11.9801 S   0  0  0  0  0  0  0  0  0  0  0  0
   21.3823  -21.8593  -14.5905 C   0  0  0  0  0  0  0  0  0  0  0  0
   20.4703  -22.6594  -14.8802 O   0  0  0  0  0  0  0  0  0  0  0  0
   21.6420  -20.7960  -15.4369 O   0  0  0  0  0  0  0  0  0  0  0  0
  2  1  1  1
  3  4  1  0
  3  2  1  0
  4 12  1  0
  4  5  2  0
  5  6  1  0
  7  6  1  0
  7  8  2  0
  9  8  1  0
 10  9  2  0
 11 12  2  0
 11 10  1  0
 12  7  1  0
 13  2  1  0
 13 20  1  0
 14 13  2  0
 16 15  1  6
 16 17  1  0
 19 18  1  6
 18 16  1  0
 19 20  1  0
 21 19  1  0
 22 21  2  0
 23 21  1  0
 24 27  1  0
 24 23  1  0
 24 25  1  1
 26 25  1  0
 27 29  1  0
 28 27  2  0
M  END
$$$$
