WLC.pdb
     RDKit          3D

 29 30  0  0  1  0  0  0  0  0999 V2000
   23.6216  -20.0538  -11.4717 N   0  0  0  0  0  0  0  0  0  0  0  0
   25.0254  -19.7118  -11.6914 C   0  0  1  0  0  0  0  0  0  0  0  0
   25.9377  -20.7007  -11.0597 C   0  0  0  0  0  0  0  0  0  0  0  0
   25.9240  -20.6989   -9.5885 C   0  0  0  0  0  0  0  0  0  0  0  0
   24.9238  -21.3126   -8.8287 C   0  0  0  0  0  0  0  0  0  0  0  0
   25.2210  -21.1730   -7.5342 N   0  0  0  0  0  0  0  0  0  0  0  0
   26.3761  -20.4918   -7.3801 C   0  0  0  0  0  0  0  0  0  0  0  0
   27.0756  -20.0969   -6.2623 C   0  0  0  0  0  0  0  0  0  0  0  0
   28.2399  -19.3884   -6.3866 C   0  0  0  0  0  0  0  0  0  0  0  0
   28.6607  -19.0999   -7.6657 C   0  0  0  0  0  0  0  0  0  0  0  0
   27.9836  -19.4813   -8.8014 C   0  0  0  0  0  0  0  0  0  0  0  0
   26.8054  -20.2003   -8.6738 C   0  0  0  0  0  0  0  0  0  0  0  0
   25.2094  -19.4553  -13.1264 C   0  0  0  0  0  0  0  0  0  0  0  0
   24.4851  -20.0405  -13.9874 O   0  0  0  0  0  0  0  0  0  0  0  0
   26.8066  -14.5648  -16.1145 C   0  0  0  0  0  0  0  0  0  0  0  0
   26.1214  -15.9240  -16.0229 C   0  0  2  0  0  0  0  0  0  0  0  0
   24.7649  -15.6635  -15.3743 C   0  0  0  0  0  0  0  0  0  0  0  0
   26.9368  -16.9016  -15.2520 C   0  0  0  0  0  0  0  0  0  0  0  0
   26.3230  -18.2510  -15.0679 C   0  0  2  0  0  0  0  0  0  0  0  0
   26.1730  -18.5666  -13.6478 N   0  0  0  0  0  0  0  0  0  0  0  0
   27.2070  -19.2834  -15.6285 C   0  0  0  0  0  0  0  0  0  0  0  0
   27.6538  -19.1636  -16.7863 O   0  0  0  0  0  0  0  0  0  0  0  0
   27.5824  -20.4346  -14.8954 N   0  0  0  0  0  0  0  0  0  0  0  0
   28.4515  -21.4590  -15.4981 C   0  0  1  0  0  0  0  0  0  0  0  0
   29.1984  -22.1149  -14.3545 C   0  0  0  0  0  0  0  0  0  0  0  0
   30.0930  -23.5876  -14.8457 S   0  0  0  0  0  0  0  0  0  0  0  0
   27.6461  -22.4551  -16.2021 C   0  0  0  0  0  0  0  0  0  0  0  0
   26.5439  -22.8150  -15.7420 O   0  0  0  0  0  0  0  0  0  0  0  0
   28.0971  -23.0100  -17.3865 O   0  0  0  0  0  0  0  0  0  0  0  0
  2  1  1  6
  3  4  1  0
  3  2  1  0
  4 12  1  0
  4  5  2  0
  5  6  1  0
  7  6  1  0
  7  8  2  0
  9  8  1  0
 10  9  2  0
 11 12  2  0
 11 10  1  0
 12  7  1  0
 13  2  1  0
 13 20  1  0
 14 13  2  0
 16 15  1  1
 16 17  1  0
 19 18  1  1
 18 16  1  0
 19 20  1  0
 21 19  1  0
 22 21  2  0
 23 21  1  0
 24 27  1  0
 24 23  1  0
 24 25  1  1
 26 25  1  0
 27 29  1  0
 28 27  2  0
M  END
$$$$
