WLC.pdb
     RDKit          3D

 29 30  0  0  1  0  0  0  0  0999 V2000
   23.1428  -18.3611  -15.8883 N   0  0  0  0  0  0  0  0  0  0  0  0
   23.5933  -19.5216  -16.6539 C   0  0  1  0  0  0  0  0  0  0  0  0
   24.4727  -19.1264  -17.7852 C   0  0  0  0  0  0  0  0  0  0  0  0
   23.9278  -18.0660  -18.6471 C   0  0  0  0  0  0  0  0  0  0  0  0
   24.5509  -16.8280  -18.8295 C   0  0  0  0  0  0  0  0  0  0  0  0
   23.8346  -16.1103  -19.6987 N   0  0  0  0  0  0  0  0  0  0  0  0
   22.7533  -16.8035  -20.1139 C   0  0  0  0  0  0  0  0  0  0  0  0
   21.7311  -16.4916  -20.9813 C   0  0  0  0  0  0  0  0  0  0  0  0
   20.7271  -17.3899  -21.2224 C   0  0  0  0  0  0  0  0  0  0  0  0
   20.7974  -18.5958  -20.5612 C   0  0  0  0  0  0  0  0  0  0  0  0
   21.8061  -18.9360  -19.6892 C   0  0  0  0  0  0  0  0  0  0  0  0
   22.8231  -18.0257  -19.4474 C   0  0  0  0  0  0  0  0  0  0  0  0
   24.1278  -20.5090  -15.7062 C   0  0  0  0  0  0  0  0  0  0  0  0
   24.5474  -21.6351  -16.1115 O   0  0  0  0  0  0  0  0  0  0  0  0
   27.6887  -21.3612  -14.4593 C   0  0  0  0  0  0  0  0  0  0  0  0
   27.0877  -20.2014  -13.6724 C   0  0  2  0  0  0  0  0  0  0  0  0
   28.2566  -19.5396  -12.9484 C   0  0  0  0  0  0  0  0  0  0  0  0
   26.0301  -20.6626  -12.7324 C   0  0  0  0  0  0  0  0  0  0  0  0
   24.8078  -21.2393  -13.3686 C   0  0  2  0  0  0  0  0  0  0  0  0
   24.2166  -20.2938  -14.3148 N   0  0  0  0  0  0  0  0  0  0  0  0
   23.7833  -21.4931  -12.3450 C   0  0  0  0  0  0  0  0  0  0  0  0
   24.0289  -22.2544  -11.3887 O   0  0  0  0  0  0  0  0  0  0  0  0
   22.5001  -20.8978  -12.3979 N   0  0  0  0  0  0  0  0  0  0  0  0
   21.4417  -21.3092  -11.4607 C   0  0  1  0  0  0  0  0  0  0  0  0
   21.2613  -20.1625  -10.4868 C   0  0  0  0  0  0  0  0  0  0  0  0
   20.6017  -18.6822  -11.2510 S   0  0  0  0  0  0  0  0  0  0  0  0
   20.1933  -21.5502  -12.1817 C   0  0  0  0  0  0  0  0  0  0  0  0
   20.0897  -21.2393  -13.3853 O   0  0  0  0  0  0  0  0  0  0  0  0
   19.1126  -22.1257  -11.5374 O   0  0  0  0  0  0  0  0  0  0  0  0
  2  1  1  1
  3  4  1  0
  3  2  1  0
  4 12  1  0
  4  5  2  0
  5  6  1  0
  7  6  1  0
  7  8  2  0
  9  8  1  0
 10  9  2  0
 11 12  2  0
 11 10  1  0
 12  7  1  0
 13  2  1  0
 13 20  1  0
 14 13  2  0
 16 15  1  1
 16 17  1  0
 19 18  1  1
 18 16  1  0
 19 20  1  0
 21 19  1  0
 22 21  2  0
 23 21  1  0
 24 27  1  0
 24 23  1  0
 24 25  1  1
 26 25  1  0
 27 29  1  0
 28 27  2  0
M  END
$$$$
