PFN.pdb
     RDKit          3D

 27 28  0  0  1  0  0  0  0  0999 V2000
    7.7473  -15.3140   19.0095 N   0  0  0  0  0  0  0  0  0  0  0  0
    7.5149  -14.8749   17.6235 C   0  0  0  0  0  0  0  0  0  0  0  0
    7.9816  -13.4583   17.5405 C   0  0  0  0  0  0  0  0  0  0  0  0
    8.2351  -13.0939   18.9894 C   0  0  0  0  0  0  0  0  0  0  0  0
    8.7534  -14.4395   19.5197 C   0  0  1  0  0  0  0  0  0  0  0  0
    8.8610  -14.3410   20.9693 C   0  0  0  0  0  0  0  0  0  0  0  0
    9.9528  -13.9158   21.4422 O   0  0  0  0  0  0  0  0  0  0  0  0
    7.8297  -14.6880   21.8759 N   0  0  0  0  0  0  0  0  0  0  0  0
    7.9816  -14.4176   23.2930 C   0  0  1  0  0  0  0  0  0  0  0  0
    6.6852  -13.9263   23.9010 C   0  0  0  0  0  0  0  0  0  0  0  0
    6.8345  -13.5021   25.2981 C   0  0  0  0  0  0  0  0  0  0  0  0
    6.4242  -14.2893   26.3494 C   0  0  0  0  0  0  0  0  0  0  0  0
    6.5719  -13.8753   27.6729 C   0  0  0  0  0  0  0  0  0  0  0  0
    7.1383  -12.6584   27.9226 C   0  0  0  0  0  0  0  0  0  0  0  0
    7.5617  -11.8420   26.8989 C   0  0  0  0  0  0  0  0  0  0  0  0
    7.4006  -12.2826   25.5941 C   0  0  0  0  0  0  0  0  0  0  0  0
    8.5523  -15.5598   24.0356 C   0  0  0  0  0  0  0  0  0  0  0  0
    7.9566  -16.6620   23.9316 O   0  0  0  0  0  0  0  0  0  0  0  0
   12.9808  -15.4647   23.3615 N   0  0  0  0  0  0  0  0  0  0  0  0
   12.3110  -16.6003   23.9197 C   0  0  0  0  0  0  0  0  0  0  0  0
   12.1327  -17.6079   23.1983 O   0  0  0  0  0  0  0  0  0  0  0  0
   11.8483  -16.5668   25.3140 C   0  0  0  0  0  0  0  0  0  0  0  0
   10.3675  -16.7010   25.3943 C   0  0  2  0  0  0  0  0  0  0  0  0
    9.7084  -15.5019   24.8460 N   0  0  0  0  0  0  0  0  0  0  0  0
    9.9122  -16.7518   26.8114 C   0  0  0  0  0  0  0  0  0  0  0  0
    9.0922  -15.8043   27.3630 O   0  0  0  0  0  0  0  0  0  0  0  0
   10.2648  -17.6938   27.6040 O   0  0  0  0  0  0  0  0  0  0  0  0
  1  5  1  0
  1  2  1  0
  2  3  1  0
  4  3  1  0
  5  4  1  0
  6  8  1  0
  5  6  1  1
  7  6  2  0
  9  8  1  0
 10 11  1  0
  9 10  1  1
 11 12  2  0
 11 16  1  0
 12 13  1  0
 13 14  2  0
 15 14  1  0
 16 15  2  0
 17 18  2  0
 17  9  1  0
 20 19  1  0
 20 22  1  0
 21 20  2  0
 23 22  1  1
 23 24  1  0
 24 17  1  0
 25 23  1  0
 26 25  1  0
 27 25  2  0
M  END
$$$$
