PFN.pdb
     RDKit          3D

 27 28  0  0  1  0  0  0  0  0999 V2000
    7.7433  -15.3097   18.9567 N   0  0  0  0  0  0  0  0  0  0  0  0
    7.5644  -14.9120   17.5503 C   0  0  0  0  0  0  0  0  0  0  0  0
    8.1731  -13.5551   17.4098 C   0  0  0  0  0  0  0  0  0  0  0  0
    8.4542  -13.1535   18.8436 C   0  0  0  0  0  0  0  0  0  0  0  0
    8.8301  -14.5195   19.4380 C   0  0  1  0  0  0  0  0  0  0  0  0
    8.9389  -14.3675   20.8829 C   0  0  0  0  0  0  0  0  0  0  0  0
   10.0091  -13.8706   21.3347 O   0  0  0  0  0  0  0  0  0  0  0  0
    7.9313  -14.7373   21.8068 N   0  0  0  0  0  0  0  0  0  0  0  0
    8.0582  -14.3810   23.2073 C   0  0  1  0  0  0  0  0  0  0  0  0
    6.8005  -13.7131   23.7209 C   0  0  0  0  0  0  0  0  0  0  0  0
    6.9236  -13.2555   25.1100 C   0  0  0  0  0  0  0  0  0  0  0  0
    7.7523  -12.2169   25.4673 C   0  0  0  0  0  0  0  0  0  0  0  0
    7.8603  -11.7908   26.7908 C   0  0  0  0  0  0  0  0  0  0  0  0
    7.1224  -12.4249   27.7487 C   0  0  0  0  0  0  0  0  0  0  0  0
    6.2820  -13.4676   27.4318 C   0  0  0  0  0  0  0  0  0  0  0  0
    6.1973  -13.8673   26.1068 C   0  0  0  0  0  0  0  0  0  0  0  0
    8.4742  -15.5191   24.0519 C   0  0  0  0  0  0  0  0  0  0  0  0
    7.7272  -16.5304   24.0535 O   0  0  0  0  0  0  0  0  0  0  0  0
   12.5669  -18.0544   23.3341 N   0  0  0  0  0  0  0  0  0  0  0  0
   12.1658  -18.0437   24.7084 C   0  0  0  0  0  0  0  0  0  0  0  0
   12.2410  -19.1070   25.3651 O   0  0  0  0  0  0  0  0  0  0  0  0
   11.6774  -16.8002   25.3203 C   0  0  0  0  0  0  0  0  0  0  0  0
   10.1917  -16.7944   25.4184 C   0  0  2  0  0  0  0  0  0  0  0  0
    9.6399  -15.5514   24.8497 N   0  0  0  0  0  0  0  0  0  0  0  0
    9.7505  -16.7723   26.8406 C   0  0  0  0  0  0  0  0  0  0  0  0
    9.2788  -17.8816   27.4898 O   0  0  0  0  0  0  0  0  0  0  0  0
    9.7867  -15.7039   27.5457 O   0  0  0  0  0  0  0  0  0  0  0  0
  1  5  1  0
  1  2  1  0
  2  3  1  0
  4  3  1  0
  5  4  1  0
  6  8  1  0
  5  6  1  1
  7  6  2  0
  9  8  1  0
 10 11  1  0
  9 10  1  1
 11 12  2  0
 11 16  1  0
 12 13  1  0
 13 14  2  0
 15 14  1  0
 16 15  2  0
 17 18  2  0
 17  9  1  0
 20 19  1  0
 20 22  1  0
 21 20  2  0
 23 22  1  1
 23 24  1  0
 24 17  1  0
 25 23  1  0
 26 25  1  0
 27 25  2  0
M  END
$$$$
