PFN.pdb
     RDKit          3D

 27 28  0  0  1  0  0  0  0  0999 V2000
    7.8443  -15.1889   18.8142 N   0  0  0  0  0  0  0  0  0  0  0  0
    7.7106  -14.7352   17.4198 C   0  0  0  0  0  0  0  0  0  0  0  0
    8.3401  -13.3824   17.3489 C   0  0  0  0  0  0  0  0  0  0  0  0
    8.5854  -13.0400   18.8045 C   0  0  0  0  0  0  0  0  0  0  0  0
    8.9270  -14.4328   19.3558 C   0  0  1  0  0  0  0  0  0  0  0  0
    8.9966  -14.3377   20.8080 C   0  0  0  0  0  0  0  0  0  0  0  0
   10.1298  -14.1154   21.3208 O   0  0  0  0  0  0  0  0  0  0  0  0
    7.8859  -14.4769   21.6755 N   0  0  0  0  0  0  0  0  0  0  0  0
    8.0318  -14.2208   23.0959 C   0  0  1  0  0  0  0  0  0  0  0  0
    6.8665  -13.4170   23.6322 C   0  0  0  0  0  0  0  0  0  0  0  0
    7.0171  -13.0696   25.0502 C   0  0  0  0  0  0  0  0  0  0  0  0
    7.8820  -12.0872   25.4747 C   0  0  0  0  0  0  0  0  0  0  0  0
    8.0158  -11.7657   26.8251 C   0  0  0  0  0  0  0  0  0  0  0  0
    7.2671  -12.4469   27.7412 C   0  0  0  0  0  0  0  0  0  0  0  0
    6.3909  -13.4360   27.3569 C   0  0  0  0  0  0  0  0  0  0  0  0
    6.2810  -13.7318   26.0067 C   0  0  0  0  0  0  0  0  0  0  0  0
    8.2722  -15.4508   23.8774 C   0  0  0  0  0  0  0  0  0  0  0  0
    7.5538  -16.4467   23.6079 O   0  0  0  0  0  0  0  0  0  0  0  0
   11.4371  -19.0721   25.7111 N   0  0  0  0  0  0  0  0  0  0  0  0
   12.0014  -18.1102   24.8132 C   0  0  0  0  0  0  0  0  0  0  0  0
   13.1507  -18.3127   24.3597 O   0  0  0  0  0  0  0  0  0  0  0  0
   11.2329  -16.9141   24.4419 C   0  0  0  0  0  0  0  0  0  0  0  0
    9.9406  -16.8529   25.1790 C   0  0  2  0  0  0  0  0  0  0  0  0
    9.2423  -15.5859   24.8959 N   0  0  0  0  0  0  0  0  0  0  0  0
   10.1662  -16.8241   26.6508 C   0  0  0  0  0  0  0  0  0  0  0  0
   10.2813  -17.9594   27.4074 O   0  0  0  0  0  0  0  0  0  0  0  0
   10.2662  -15.7252   27.3006 O   0  0  0  0  0  0  0  0  0  0  0  0
  1  5  1  0
  1  2  1  0
  2  3  1  0
  4  3  1  0
  5  4  1  0
  6  8  1  0
  5  6  1  1
  7  6  2  0
  9  8  1  0
 10 11  1  0
  9 10  1  1
 11 12  2  0
 11 16  1  0
 12 13  1  0
 13 14  2  0
 15 14  1  0
 16 15  2  0
 17 18  2  0
 17  9  1  0
 20 19  1  0
 20 22  1  0
 21 20  2  0
 23 22  1  6
 23 24  1  0
 24 17  1  0
 25 23  1  0
 26 25  1  0
 27 25  2  0
M  END
$$$$
