PFN.pdb
     RDKit          3D

 27 28  0  0  1  0  0  0  0  0999 V2000
    7.4067  -14.8109   20.3754 N   0  0  0  0  0  0  0  0  0  0  0  0
    7.0448  -14.0427   19.1726 C   0  0  0  0  0  0  0  0  0  0  0  0
    7.7370  -12.7237   19.2841 C   0  0  0  0  0  0  0  0  0  0  0  0
    8.2718  -12.7343   20.7019 C   0  0  0  0  0  0  0  0  0  0  0  0
    8.6186  -14.2238   20.8488 C   0  0  1  0  0  0  0  0  0  0  0  0
    8.9643  -14.4704   22.2424 C   0  0  0  0  0  0  0  0  0  0  0  0
   10.1242  -14.1400   22.6193 O   0  0  0  0  0  0  0  0  0  0  0  0
    8.0921  -15.0517   23.1949 N   0  0  0  0  0  0  0  0  0  0  0  0
    8.5458  -15.2876   24.5524 C   0  0  1  0  0  0  0  0  0  0  0  0
    7.4157  -15.1233   25.5461 C   0  0  0  0  0  0  0  0  0  0  0  0
    7.2365  -13.7334   25.9823 C   0  0  0  0  0  0  0  0  0  0  0  0
    8.2995  -12.9357   26.3385 C   0  0  0  0  0  0  0  0  0  0  0  0
    8.1163  -11.6161   26.7508 C   0  0  0  0  0  0  0  0  0  0  0  0
    6.8487  -11.1115   26.7993 C   0  0  0  0  0  0  0  0  0  0  0  0
    5.7594  -11.8771   26.4510 C   0  0  0  0  0  0  0  0  0  0  0  0
    5.9751  -13.1854   26.0454 C   0  0  0  0  0  0  0  0  0  0  0  0
    9.2447  -16.5797   24.7059 C   0  0  0  0  0  0  0  0  0  0  0  0
    8.8458  -17.3374   25.6265 O   0  0  0  0  0  0  0  0  0  0  0  0
   12.7400  -20.5330   23.9915 N   0  0  0  0  0  0  0  0  0  0  0  0
   12.1383  -20.0891   22.7706 C   0  0  0  0  0  0  0  0  0  0  0  0
   12.1398  -20.8602   21.7843 O   0  0  0  0  0  0  0  0  0  0  0  0
   11.5354  -18.7512   22.6940 C   0  0  0  0  0  0  0  0  0  0  0  0
   10.8775  -18.3816   23.9776 C   0  0  2  0  0  0  0  0  0  0  0  0
   10.3185  -17.0199   23.8998 N   0  0  0  0  0  0  0  0  0  0  0  0
   11.8712  -18.3054   25.0843 C   0  0  0  0  0  0  0  0  0  0  0  0
   12.1468  -19.3623   25.9097 O   0  0  0  0  0  0  0  0  0  0  0  0
   12.5316  -17.2362   25.3308 O   0  0  0  0  0  0  0  0  0  0  0  0
  1  5  1  0
  1  2  1  0
  2  3  1  0
  4  3  1  0
  5  4  1  0
  6  8  1  0
  5  6  1  1
  7  6  2  0
  9  8  1  0
 10 11  1  0
  9 10  1  1
 11 12  2  0
 11 16  1  0
 12 13  1  0
 13 14  2  0
 15 14  1  0
 16 15  2  0
 17 18  2  0
 17  9  1  0
 20 19  1  0
 20 22  1  0
 21 20  2  0
 23 22  1  6
 23 24  1  0
 24 17  1  0
 25 23  1  0
 26 25  1  0
 27 25  2  0
M  END
$$$$
