PFN.pdb
     RDKit          3D

 27 28  0  0  1  0  0  0  0  0999 V2000
    7.0006  -14.6875   20.0765 N   0  0  0  0  0  0  0  0  0  0  0  0
    6.5798  -13.8373   18.9505 C   0  0  0  0  0  0  0  0  0  0  0  0
    7.4185  -12.6026   19.0110 C   0  0  0  0  0  0  0  0  0  0  0  0
    8.1177  -12.7266   20.3497 C   0  0  0  0  0  0  0  0  0  0  0  0
    8.3172  -14.2488   20.4103 C   0  0  1  0  0  0  0  0  0  0  0  0
    8.8015  -14.5868   21.7422 C   0  0  0  0  0  0  0  0  0  0  0  0
   10.0245  -14.3814   21.9840 O   0  0  0  0  0  0  0  0  0  0  0  0
    7.9972  -15.1264   22.7755 N   0  0  0  0  0  0  0  0  0  0  0  0
    8.5326  -15.2754   24.1155 C   0  0  1  0  0  0  0  0  0  0  0  0
    7.4303  -15.2597   25.1529 C   0  0  0  0  0  0  0  0  0  0  0  0
    7.1414  -13.9125   25.6587 C   0  0  0  0  0  0  0  0  0  0  0  0
    8.0793  -13.1695   26.3379 C   0  0  0  0  0  0  0  0  0  0  0  0
    7.7929  -11.8901   26.8132 C   0  0  0  0  0  0  0  0  0  0  0  0
    6.5497  -11.3698   26.5950 C   0  0  0  0  0  0  0  0  0  0  0  0
    5.5841  -12.0811   25.9200 C   0  0  0  0  0  0  0  0  0  0  0  0
    5.9004  -13.3504   25.4602 C   0  0  0  0  0  0  0  0  0  0  0  0
    9.4148  -16.4521   24.2518 C   0  0  0  0  0  0  0  0  0  0  0  0
    8.9444  -17.5615   23.8933 O   0  0  0  0  0  0  0  0  0  0  0  0
   14.1160  -18.9119   22.9825 N   0  0  0  0  0  0  0  0  0  0  0  0
   14.0571  -17.9983   24.0833 C   0  0  0  0  0  0  0  0  0  0  0  0
   14.8956  -18.1135   25.0058 O   0  0  0  0  0  0  0  0  0  0  0  0
   13.0258  -16.9520   24.1138 C   0  0  0  0  0  0  0  0  0  0  0  0
   11.7075  -17.5059   24.5290 C   0  0  2  0  0  0  0  0  0  0  0  0
   10.7362  -16.4196   24.7513 N   0  0  0  0  0  0  0  0  0  0  0  0
   11.8057  -18.1838   25.8514 C   0  0  0  0  0  0  0  0  0  0  0  0
   12.2549  -19.4690   25.9961 O   0  0  0  0  0  0  0  0  0  0  0  0
   11.4722  -17.5984   26.9404 O   0  0  0  0  0  0  0  0  0  0  0  0
  1  5  1  0
  1  2  1  0
  2  3  1  0
  4  3  1  0
  5  4  1  0
  6  8  1  0
  5  6  1  1
  7  6  2  0
  9  8  1  0
 10 11  1  0
  9 10  1  1
 11 12  2  0
 11 16  1  0
 12 13  1  0
 13 14  2  0
 15 14  1  0
 16 15  2  0
 17 18  2  0
 17  9  1  0
 20 19  1  0
 20 22  1  0
 21 20  2  0
 23 22  1  1
 23 24  1  0
 24 17  1  0
 25 23  1  0
 26 25  1  0
 27 25  2  0
M  END
$$$$
