PFN.pdb
     RDKit          3D

 27 28  0  0  1  0  0  0  0  0999 V2000
    7.3468  -14.9912   20.4078 N   0  0  0  0  0  0  0  0  0  0  0  0
    6.8796  -14.2830   19.2045 C   0  0  0  0  0  0  0  0  0  0  0  0
    7.4588  -12.9074   19.2669 C   0  0  0  0  0  0  0  0  0  0  0  0
    8.0399  -12.8416   20.6648 C   0  0  0  0  0  0  0  0  0  0  0  0
    8.5187  -14.2924   20.8270 C   0  0  1  0  0  0  0  0  0  0  0  0
    8.9312  -14.4784   22.2118 C   0  0  0  0  0  0  0  0  0  0  0  0
   10.0218  -13.9491   22.5681 O   0  0  0  0  0  0  0  0  0  0  0  0
    8.1953  -15.2079   23.1773 N   0  0  0  0  0  0  0  0  0  0  0  0
    8.7108  -15.3630   24.5244 C   0  0  1  0  0  0  0  0  0  0  0  0
    7.6032  -15.2646   25.5516 C   0  0  0  0  0  0  0  0  0  0  0  0
    7.2294  -13.8786   25.8571 C   0  0  0  0  0  0  0  0  0  0  0  0
    8.1597  -12.9347   26.2271 C   0  0  0  0  0  0  0  0  0  0  0  0
    7.7922  -11.6205   26.5145 C   0  0  0  0  0  0  0  0  0  0  0  0
    6.4756  -11.2704   26.4240 C   0  0  0  0  0  0  0  0  0  0  0  0
    5.5150  -12.1850   26.0573 C   0  0  0  0  0  0  0  0  0  0  0  0
    5.9129  -13.4837   25.7782 C   0  0  0  0  0  0  0  0  0  0  0  0
    9.5222  -16.5862   24.6894 C   0  0  0  0  0  0  0  0  0  0  0  0
    9.5137  -17.1267   25.8245 O   0  0  0  0  0  0  0  0  0  0  0  0
   10.0294  -18.8472   20.4916 N   0  0  0  0  0  0  0  0  0  0  0  0
   10.1673  -19.3358   21.8303 C   0  0  0  0  0  0  0  0  0  0  0  0
    9.2242  -19.9881   22.3326 O   0  0  0  0  0  0  0  0  0  0  0  0
   11.3988  -19.0674   22.5858 C   0  0  0  0  0  0  0  0  0  0  0  0
   11.1009  -18.4039   23.8851 C   0  0  2  0  0  0  0  0  0  0  0  0
   10.2989  -17.1855   23.6725 N   0  0  0  0  0  0  0  0  0  0  0  0
   12.3487  -17.9112   24.5315 C   0  0  0  0  0  0  0  0  0  0  0  0
   12.6843  -16.5849   24.5850 O   0  0  0  0  0  0  0  0  0  0  0  0
   13.1887  -18.7072   25.0799 O   0  0  0  0  0  0  0  0  0  0  0  0
  1  5  1  0
  1  2  1  0
  2  3  1  0
  4  3  1  0
  5  4  1  0
  6  8  1  0
  5  6  1  1
  7  6  2  0
  9  8  1  0
 10 11  1  0
  9 10  1  1
 11 12  2  0
 11 16  1  0
 12 13  1  0
 13 14  2  0
 15 14  1  0
 16 15  2  0
 17 18  2  0
 17  9  1  0
 20 19  1  0
 20 22  1  0
 21 20  2  0
 23 22  1  6
 23 24  1  0
 24 17  1  0
 25 23  1  0
 26 25  1  0
 27 25  2  0
M  END
$$$$
