PFN.pdb
     RDKit          3D

 27 28  0  0  1  0  0  0  0  0999 V2000
    7.2712  -14.9547   20.0163 N   0  0  0  0  0  0  0  0  0  0  0  0
    6.9594  -14.1732   18.8080 C   0  0  0  0  0  0  0  0  0  0  0  0
    7.7154  -12.8899   18.9228 C   0  0  0  0  0  0  0  0  0  0  0  0
    8.2354  -12.9227   20.3458 C   0  0  0  0  0  0  0  0  0  0  0  0
    8.5062  -14.4272   20.4998 C   0  0  1  0  0  0  0  0  0  0  0  0
    8.8260  -14.6865   21.8974 C   0  0  0  0  0  0  0  0  0  0  0  0
    9.9996  -14.4208   22.2827 O   0  0  0  0  0  0  0  0  0  0  0  0
    7.9144  -15.2127   22.8449 N   0  0  0  0  0  0  0  0  0  0  0  0
    8.2758  -15.2776   24.2483 C   0  0  1  0  0  0  0  0  0  0  0  0
    7.0584  -15.1359   25.1368 C   0  0  0  0  0  0  0  0  0  0  0  0
    6.9061  -13.7830   25.6851 C   0  0  0  0  0  0  0  0  0  0  0  0
    7.9890  -12.9855   25.9759 C   0  0  0  0  0  0  0  0  0  0  0  0
    7.8314  -11.7013   26.4963 C   0  0  0  0  0  0  0  0  0  0  0  0
    6.5689  -11.2318   26.7194 C   0  0  0  0  0  0  0  0  0  0  0  0
    5.4603  -11.9985   26.4417 C   0  0  0  0  0  0  0  0  0  0  0  0
    5.6509  -13.2711   25.9252 C   0  0  0  0  0  0  0  0  0  0  0  0
    9.0753  -16.4748   24.5786 C   0  0  0  0  0  0  0  0  0  0  0  0
    8.5451  -17.5930   24.3568 O   0  0  0  0  0  0  0  0  0  0  0  0
   12.1588  -17.7452   22.7845 N   0  0  0  0  0  0  0  0  0  0  0  0
   12.9967  -17.2152   23.8175 C   0  0  0  0  0  0  0  0  0  0  0  0
   14.0402  -16.6050   23.4915 O   0  0  0  0  0  0  0  0  0  0  0  0
   12.6242  -17.3932   25.2277 C   0  0  0  0  0  0  0  0  0  0  0  0
   11.1686  -17.6728   25.3701 C   0  0  2  0  0  0  0  0  0  0  0  0
   10.3801  -16.4526   25.1204 N   0  0  0  0  0  0  0  0  0  0  0  0
   10.8310  -18.0449   26.7720 C   0  0  0  0  0  0  0  0  0  0  0  0
   10.3293  -17.1497   27.6783 O   0  0  0  0  0  0  0  0  0  0  0  0
   10.9924  -19.2352   27.2157 O   0  0  0  0  0  0  0  0  0  0  0  0
  1  5  1  0
  1  2  1  0
  2  3  1  0
  4  3  1  0
  5  4  1  0
  6  8  1  0
  5  6  1  1
  7  6  2  0
  9  8  1  0
 10 11  1  0
  9 10  1  1
 11 12  2  0
 11 16  1  0
 12 13  1  0
 13 14  2  0
 15 14  1  0
 16 15  2  0
 17 18  2  0
 17  9  1  0
 20 19  1  0
 20 22  1  0
 21 20  2  0
 23 22  1  1
 23 24  1  0
 24 17  1  0
 25 23  1  0
 26 25  1  0
 27 25  2  0
M  END
$$$$
