PFN.pdb
     RDKit          3D

 27 28  0  0  1  0  0  0  0  0999 V2000
    7.3889  -14.7997   20.0495 N   0  0  0  0  0  0  0  0  0  0  0  0
    7.0869  -14.0064   18.8464 C   0  0  0  0  0  0  0  0  0  0  0  0
    7.8680  -12.7385   18.9638 C   0  0  0  0  0  0  0  0  0  0  0  0
    8.3937  -12.7883   20.3841 C   0  0  0  0  0  0  0  0  0  0  0  0
    8.6361  -14.2984   20.5298 C   0  0  1  0  0  0  0  0  0  0  0  0
    8.9571  -14.5706   21.9246 C   0  0  0  0  0  0  0  0  0  0  0  0
   10.1383  -14.3325   22.3049 O   0  0  0  0  0  0  0  0  0  0  0  0
    8.0389  -15.0805   22.8747 N   0  0  0  0  0  0  0  0  0  0  0  0
    8.4527  -15.2947   24.2484 C   0  0  1  0  0  0  0  0  0  0  0  0
    7.2809  -15.1800   25.1999 C   0  0  0  0  0  0  0  0  0  0  0  0
    7.1180  -13.8268   25.7444 C   0  0  0  0  0  0  0  0  0  0  0  0
    8.1089  -13.2059   26.4696 C   0  0  0  0  0  0  0  0  0  0  0  0
    7.9423  -11.9195   26.9815 C   0  0  0  0  0  0  0  0  0  0  0  0
    6.7648  -11.2675   26.7529 C   0  0  0  0  0  0  0  0  0  0  0  0
    5.7495  -11.8540   26.0324 C   0  0  0  0  0  0  0  0  0  0  0  0
    5.9464  -13.1341   25.5371 C   0  0  0  0  0  0  0  0  0  0  0  0
    9.2022  -16.5544   24.4306 C   0  0  0  0  0  0  0  0  0  0  0  0
    9.1095  -17.4102   23.5142 O   0  0  0  0  0  0  0  0  0  0  0  0
   12.4397  -17.4307   22.5483 N   0  0  0  0  0  0  0  0  0  0  0  0
   12.2865  -18.3242   23.6564 C   0  0  0  0  0  0  0  0  0  0  0  0
   12.2314  -19.5549   23.4333 O   0  0  0  0  0  0  0  0  0  0  0  0
   12.1969  -17.7902   25.0225 C   0  0  0  0  0  0  0  0  0  0  0  0
   10.8612  -18.0620   25.6215 C   0  0  2  0  0  0  0  0  0  0  0  0
   10.0077  -16.8623   25.5499 N   0  0  0  0  0  0  0  0  0  0  0  0
   10.9768  -18.3411   27.0798 C   0  0  0  0  0  0  0  0  0  0  0  0
   11.5538  -19.4796   27.5752 O   0  0  0  0  0  0  0  0  0  0  0  0
   10.5385  -17.5247   27.9637 O   0  0  0  0  0  0  0  0  0  0  0  0
  1  5  1  0
  1  2  1  0
  2  3  1  0
  4  3  1  0
  5  4  1  0
  6  8  1  0
  5  6  1  1
  7  6  2  0
  9  8  1  0
 10 11  1  0
  9 10  1  1
 11 12  2  0
 11 16  1  0
 12 13  1  0
 13 14  2  0
 15 14  1  0
 16 15  2  0
 17 18  2  0
 17  9  1  0
 20 19  1  0
 20 22  1  0
 21 20  2  0
 23 22  1  1
 23 24  1  0
 24 17  1  0
 25 23  1  0
 26 25  1  0
 27 25  2  0
M  END
$$$$
