PFN.pdb
     RDKit          3D

 27 28  0  0  1  0  0  0  0  0999 V2000
    7.2643  -15.2358   20.0331 N   0  0  0  0  0  0  0  0  0  0  0  0
    6.7609  -14.6676   18.7715 C   0  0  0  0  0  0  0  0  0  0  0  0
    7.3734  -13.3115   18.6397 C   0  0  0  0  0  0  0  0  0  0  0  0
    8.0167  -13.0911   19.9939 C   0  0  0  0  0  0  0  0  0  0  0  0
    8.4691  -14.5240   20.3145 C   0  0  1  0  0  0  0  0  0  0  0  0
    8.9377  -14.5504   21.6937 C   0  0  0  0  0  0  0  0  0  0  0  0
   10.1220  -14.1675   21.9112 O   0  0  0  0  0  0  0  0  0  0  0  0
    8.1586  -14.9740   22.7980 N   0  0  0  0  0  0  0  0  0  0  0  0
    8.6885  -14.8788   24.1451 C   0  0  1  0  0  0  0  0  0  0  0  0
    7.6105  -14.4889   25.1337 C   0  0  0  0  0  0  0  0  0  0  0  0
    8.1363  -14.2305   26.4793 C   0  0  0  0  0  0  0  0  0  0  0  0
    8.3676  -15.2435   27.3813 C   0  0  0  0  0  0  0  0  0  0  0  0
    8.8680  -14.9852   28.6571 C   0  0  0  0  0  0  0  0  0  0  0  0
    9.1320  -13.6935   29.0115 C   0  0  0  0  0  0  0  0  0  0  0  0
    8.9143  -12.6525   28.1383 C   0  0  0  0  0  0  0  0  0  0  0  0
    8.4160  -12.9425   26.8772 C   0  0  0  0  0  0  0  0  0  0  0  0
    9.4178  -16.0943   24.5603 C   0  0  0  0  0  0  0  0  0  0  0  0
    8.8249  -17.1931   24.4121 O   0  0  0  0  0  0  0  0  0  0  0  0
   13.5620  -15.5675   23.3508 N   0  0  0  0  0  0  0  0  0  0  0  0
   13.1562  -16.8848   23.7380 C   0  0  0  0  0  0  0  0  0  0  0  0
   13.0240  -17.7584   22.8510 O   0  0  0  0  0  0  0  0  0  0  0  0
   12.9039  -17.1883   25.1535 C   0  0  0  0  0  0  0  0  0  0  0  0
   11.4481  -17.3530   25.4187 C   0  0  2  0  0  0  0  0  0  0  0  0
   10.7208  -16.1094   25.1066 N   0  0  0  0  0  0  0  0  0  0  0  0
   11.1910  -17.5718   26.8693 C   0  0  0  0  0  0  0  0  0  0  0  0
   11.6146  -16.7025   27.8384 O   0  0  0  0  0  0  0  0  0  0  0  0
   10.5531  -18.5958   27.2984 O   0  0  0  0  0  0  0  0  0  0  0  0
  1  5  1  0
  1  2  1  0
  2  3  1  0
  4  3  1  0
  5  4  1  0
  6  8  1  0
  5  6  1  1
  7  6  2  0
  9  8  1  0
 10 11  1  0
  9 10  1  1
 11 12  2  0
 11 16  1  0
 12 13  1  0
 13 14  2  0
 15 14  1  0
 16 15  2  0
 17 18  2  0
 17  9  1  0
 20 19  1  0
 20 22  1  0
 21 20  2  0
 23 22  1  1
 23 24  1  0
 24 17  1  0
 25 23  1  0
 26 25  1  0
 27 25  2  0
M  END
$$$$
