PFN.pdb
     RDKit          3D

 27 28  0  0  1  0  0  0  0  0999 V2000
    7.7807  -15.2285   18.5773 N   0  0  0  0  0  0  0  0  0  0  0  0
    7.5052  -14.8161   17.1909 C   0  0  0  0  0  0  0  0  0  0  0  0
    7.9116  -13.3827   17.0832 C   0  0  0  0  0  0  0  0  0  0  0  0
    8.1761  -12.9907   18.5229 C   0  0  0  0  0  0  0  0  0  0  0  0
    8.7590  -14.3074   19.0587 C   0  0  1  0  0  0  0  0  0  0  0  0
    8.8887  -14.1870   20.5048 C   0  0  0  0  0  0  0  0  0  0  0  0
    9.8675  -13.5207   20.9458 O   0  0  0  0  0  0  0  0  0  0  0  0
    7.9963  -14.7636   21.4413 N   0  0  0  0  0  0  0  0  0  0  0  0
    8.1560  -14.5018   22.8592 C   0  0  1  0  0  0  0  0  0  0  0  0
    6.8147  -14.3870   23.5515 C   0  0  0  0  0  0  0  0  0  0  0  0
    6.9114  -13.7882   24.8880 C   0  0  0  0  0  0  0  0  0  0  0  0
    6.3420  -14.3741   25.9951 C   0  0  0  0  0  0  0  0  0  0  0  0
    6.4412  -13.7955   27.2600 C   0  0  0  0  0  0  0  0  0  0  0  0
    7.1215  -12.6194   27.3944 C   0  0  0  0  0  0  0  0  0  0  0  0
    7.7051  -12.0020   26.3117 C   0  0  0  0  0  0  0  0  0  0  0  0
    7.5884  -12.6029   25.0675 C   0  0  0  0  0  0  0  0  0  0  0  0
    9.0491  -15.4727   23.5234 C   0  0  0  0  0  0  0  0  0  0  0  0
   10.2832  -15.3425   23.3213 O   0  0  0  0  0  0  0  0  0  0  0  0
   12.5269  -18.0080   26.1694 N   0  0  0  0  0  0  0  0  0  0  0  0
   11.3170  -17.5180   26.7575 C   0  0  0  0  0  0  0  0  0  0  0  0
   11.0382  -17.8566   27.9302 O   0  0  0  0  0  0  0  0  0  0  0  0
   10.4309  -16.6359   25.9854 C   0  0  0  0  0  0  0  0  0  0  0  0
    9.5511  -17.4186   25.0741 C   0  0  2  0  0  0  0  0  0  0  0  0
    8.6193  -16.5263   24.3611 N   0  0  0  0  0  0  0  0  0  0  0  0
    8.6632  -18.3330   25.8444 C   0  0  0  0  0  0  0  0  0  0  0  0
    7.3506  -18.0467   26.1082 O   0  0  0  0  0  0  0  0  0  0  0  0
    9.0800  -19.4509   26.3097 O   0  0  0  0  0  0  0  0  0  0  0  0
  1  5  1  0
  1  2  1  0
  2  3  1  0
  4  3  1  0
  5  4  1  0
  6  8  1  0
  5  6  1  1
  7  6  2  0
  9  8  1  0
 10 11  1  0
  9 10  1  1
 11 12  2  0
 11 16  1  0
 12 13  1  0
 13 14  2  0
 15 14  1  0
 16 15  2  0
 17 18  2  0
 17  9  1  0
 20 19  1  0
 20 22  1  0
 21 20  2  0
 23 22  1  1
 23 24  1  0
 24 17  1  0
 25 23  1  0
 26 25  1  0
 27 25  2  0
M  END
$$$$
