PFN.pdb
     RDKit          3D

 27 28  0  0  1  0  0  0  0  0999 V2000
    7.8656  -15.0806   18.6623 N   0  0  0  0  0  0  0  0  0  0  0  0
    7.6756  -14.5892   17.2874 C   0  0  0  0  0  0  0  0  0  0  0  0
    8.2668  -13.2182   17.2386 C   0  0  0  0  0  0  0  0  0  0  0  0
    8.5493  -12.9129   18.6957 C   0  0  0  0  0  0  0  0  0  0  0  0
    8.9447  -14.3118   19.1931 C   0  0  1  0  0  0  0  0  0  0  0  0
    9.0580  -14.2583   20.6446 C   0  0  0  0  0  0  0  0  0  0  0  0
   10.1889  -13.9680   21.1276 O   0  0  0  0  0  0  0  0  0  0  0  0
    7.9918  -14.5085   21.5426 N   0  0  0  0  0  0  0  0  0  0  0  0
    8.1645  -14.2766   22.9641 C   0  0  1  0  0  0  0  0  0  0  0  0
    7.0200  -13.4645   23.5317 C   0  0  0  0  0  0  0  0  0  0  0  0
    7.1970  -13.1441   24.9530 C   0  0  0  0  0  0  0  0  0  0  0  0
    6.5798  -13.8666   25.9481 C   0  0  0  0  0  0  0  0  0  0  0  0
    6.7563  -13.5526   27.2954 C   0  0  0  0  0  0  0  0  0  0  0  0
    7.5626  -12.5017   27.6262 C   0  0  0  0  0  0  0  0  0  0  0  0
    8.1976  -11.7546   26.6606 C   0  0  0  0  0  0  0  0  0  0  0  0
    8.0015  -12.0924   25.3301 C   0  0  0  0  0  0  0  0  0  0  0  0
    8.3993  -15.5220   23.7228 C   0  0  0  0  0  0  0  0  0  0  0  0
    7.5944  -16.4680   23.5282 O   0  0  0  0  0  0  0  0  0  0  0  0
   11.2641  -19.3769   25.6314 N   0  0  0  0  0  0  0  0  0  0  0  0
   11.9650  -18.4928   24.7499 C   0  0  0  0  0  0  0  0  0  0  0  0
   13.1037  -18.8229   24.3475 O   0  0  0  0  0  0  0  0  0  0  0  0
   11.3452  -17.2264   24.3358 C   0  0  0  0  0  0  0  0  0  0  0  0
   10.0031  -17.0542   24.9571 C   0  0  2  0  0  0  0  0  0  0  0  0
    9.4534  -15.7232   24.6419 N   0  0  0  0  0  0  0  0  0  0  0  0
   10.0970  -17.0675   26.4434 C   0  0  0  0  0  0  0  0  0  0  0  0
    9.7328  -16.0009   27.2207 O   0  0  0  0  0  0  0  0  0  0  0  0
   10.5286  -18.0870   27.0869 O   0  0  0  0  0  0  0  0  0  0  0  0
  1  5  1  0
  1  2  1  0
  2  3  1  0
  4  3  1  0
  5  4  1  0
  6  8  1  0
  5  6  1  1
  7  6  2  0
  9  8  1  0
 10 11  1  0
  9 10  1  1
 11 12  2  0
 11 16  1  0
 12 13  1  0
 13 14  2  0
 15 14  1  0
 16 15  2  0
 17 18  2  0
 17  9  1  0
 20 19  1  0
 20 22  1  0
 21 20  2  0
 23 22  1  6
 23 24  1  0
 24 17  1  0
 25 23  1  0
 26 25  1  0
 27 25  2  0
M  END
$$$$
