PFN.pdb
     RDKit          3D

 27 28  0  0  1  0  0  0  0  0999 V2000
    7.3060  -15.1363   18.7484 N   0  0  0  0  0  0  0  0  0  0  0  0
    7.0004  -14.6900   17.3790 C   0  0  0  0  0  0  0  0  0  0  0  0
    7.5787  -13.3200   17.2374 C   0  0  0  0  0  0  0  0  0  0  0  0
    7.9794  -12.9671   18.6555 C   0  0  0  0  0  0  0  0  0  0  0  0
    8.4216  -14.3483   19.1629 C   0  0  1  0  0  0  0  0  0  0  0  0
    8.6546  -14.2476   20.5975 C   0  0  0  0  0  0  0  0  0  0  0  0
    9.7621  -13.7691   20.9730 O   0  0  0  0  0  0  0  0  0  0  0  0
    7.7280  -14.6479   21.5910 N   0  0  0  0  0  0  0  0  0  0  0  0
    7.9875  -14.3621   22.9894 C   0  0  1  0  0  0  0  0  0  0  0  0
    6.7472  -13.8408   23.6833 C   0  0  0  0  0  0  0  0  0  0  0  0
    6.9812  -13.5013   25.0919 C   0  0  0  0  0  0  0  0  0  0  0  0
    6.6341  -14.3514   26.1166 C   0  0  0  0  0  0  0  0  0  0  0  0
    6.8621  -14.0176   27.4513 C   0  0  0  0  0  0  0  0  0  0  0  0
    7.4441  -12.8167   27.7394 C   0  0  0  0  0  0  0  0  0  0  0  0
    7.8058  -11.9389   26.7432 C   0  0  0  0  0  0  0  0  0  0  0  0
    7.5656  -12.3004   25.4262 C   0  0  0  0  0  0  0  0  0  0  0  0
    8.5924  -15.5043   23.7043 C   0  0  0  0  0  0  0  0  0  0  0  0
    8.0081  -16.6130   23.6045 O   0  0  0  0  0  0  0  0  0  0  0  0
   12.2252  -18.8339   25.1432 N   0  0  0  0  0  0  0  0  0  0  0  0
   12.7955  -17.5219   25.1985 C   0  0  0  0  0  0  0  0  0  0  0  0
   13.9677  -17.3929   25.6190 O   0  0  0  0  0  0  0  0  0  0  0  0
   12.0062  -16.3601   24.7666 C   0  0  0  0  0  0  0  0  0  0  0  0
   10.5458  -16.6319   24.8688 C   0  0  2  0  0  0  0  0  0  0  0  0
    9.7689  -15.4397   24.4842 N   0  0  0  0  0  0  0  0  0  0  0  0
   10.1478  -16.8868   26.2811 C   0  0  0  0  0  0  0  0  0  0  0  0
   10.0409  -18.1462   26.8075 O   0  0  0  0  0  0  0  0  0  0  0  0
    9.8792  -15.9335   27.0930 O   0  0  0  0  0  0  0  0  0  0  0  0
  1  5  1  0
  1  2  1  0
  2  3  1  0
  4  3  1  0
  5  4  1  0
  6  8  1  0
  5  6  1  1
  7  6  2  0
  9  8  1  0
 10 11  1  0
  9 10  1  1
 11 12  2  0
 11 16  1  0
 12 13  1  0
 13 14  2  0
 15 14  1  0
 16 15  2  0
 17 18  2  0
 17  9  1  0
 20 19  1  0
 20 22  1  0
 21 20  2  0
 23 22  1  1
 23 24  1  0
 24 17  1  0
 25 23  1  0
 26 25  1  0
 27 25  2  0
M  END
$$$$
