NDI.pdb
     RDKit          3D

 25 24  0  0  1  0  0  0  0  0999 V2000
   17.0295  -14.4220  -17.0109 N   0  0  0  0  0  0  0  0  0  0  0  0
   16.9422  -13.6745  -18.2020 C   0  0  0  0  0  0  0  0  0  0  0  0
   16.8695  -14.3136  -19.3041 O   0  0  0  0  0  0  0  0  0  0  0  0
   16.9285  -12.2077  -18.2709 C   0  0  0  0  0  0  0  0  0  0  0  0
   17.0273  -11.6219  -16.8704 C   0  0  2  0  0  0  0  0  0  0  0  0
   15.7866  -11.8228  -16.1840 N   0  0  0  0  0  0  0  0  0  0  0  0
   17.4202  -10.1936  -16.9358 C   0  0  0  0  0  0  0  0  0  0  0  0
   17.0207   -9.5505  -17.9570 O   0  0  0  0  0  0  0  0  0  0  0  0
   18.1924   -9.5519  -15.9403 N   0  0  0  0  0  0  0  0  0  0  0  0
   18.4914   -8.1646  -16.0732 C   0  0  1  0  0  0  0  0  0  0  0  0
   17.2515   -7.2868  -16.1948 C   0  0  0  0  0  0  0  0  0  0  0  0
   16.4400   -7.4173  -14.9796 C   0  0  0  0  0  0  0  0  0  0  0  0
   15.8660   -8.4609  -14.6175 O   0  0  0  0  0  0  0  0  0  0  0  0
   19.3598   -7.6726  -14.9473 C   0  0  0  0  0  0  0  0  0  0  0  0
   19.1822   -8.1766  -13.8081 O   0  0  0  0  0  0  0  0  0  0  0  0
   16.3037   -6.2887  -14.1737 O   0  0  0  0  0  0  0  0  0  0  0  0
   23.9602   -9.6934  -14.5621 C   0  0  0  0  0  0  0  0  0  0  0  0
   23.0433   -8.7025  -13.8775 C   0  0  0  0  0  0  0  0  0  0  0  0
   22.5518   -7.7362  -14.8989 C   0  0  2  0  0  0  0  0  0  0  0  0
   23.7767   -6.9594  -15.3983 C   0  0  0  0  0  0  0  0  0  0  0  0
   21.5663   -6.7321  -14.3880 C   0  0  2  0  0  0  0  0  0  0  0  0
   20.3504   -6.6741  -15.1477 N   0  0  0  0  0  0  0  0  0  0  0  0
   22.2026   -5.4001  -14.4043 C   0  0  0  0  0  0  0  0  0  0  0  0
   21.9336   -4.5715  -15.3027 O   0  0  0  0  0  0  0  0  0  0  0  0
   23.1060   -5.0568  -13.4209 O   0  0  0  0  0  0  0  0  0  0  0  0
  1  2  1  0
  2  4  1  0
  3  2  2  0
  4  5  1  0
  5  7  1  0
  5  6  1  6
  7  8  2  0
  9  7  1  0
  9 10  1  0
 10 14  1  0
 10 11  1  1
 12 11  1  0
 13 12  2  0
 14 15  2  0
 16 12  1  0
 18 17  1  0
 19 18  1  0
 19 21  1  0
 19 20  1  1
 21 23  1  0
 22 14  1  0
 21 22  1  6
 23 25  1  0
 24 23  2  0
M  END
$$$$
