NDI.pdb
     RDKit          3D

 25 24  0  0  1  0  0  0  0  0999 V2000
   28.3771  -19.4905  -18.3138 N   0  0  0  0  0  0  0  0  0  0  0  0
   27.7870  -18.2471  -18.0124 C   0  0  0  0  0  0  0  0  0  0  0  0
   28.3925  -17.1907  -18.3939 O   0  0  0  0  0  0  0  0  0  0  0  0
   26.5210  -18.0746  -17.2885 C   0  0  0  0  0  0  0  0  0  0  0  0
   25.9943  -19.4278  -16.8352 C   0  0  2  0  0  0  0  0  0  0  0  0
   25.7050  -20.2328  -17.9839 N   0  0  0  0  0  0  0  0  0  0  0  0
   24.8188  -19.2525  -15.9486 C   0  0  0  0  0  0  0  0  0  0  0  0
   25.0179  -18.5922  -14.8808 O   0  0  0  0  0  0  0  0  0  0  0  0
   23.5379  -19.7747  -16.2413 N   0  0  0  0  0  0  0  0  0  0  0  0
   22.4609  -19.5319  -15.3397 C   0  0  1  0  0  0  0  0  0  0  0  0
   21.0894  -19.6070  -16.0002 C   0  0  0  0  0  0  0  0  0  0  0  0
   20.0568  -19.2429  -15.0237 C   0  0  0  0  0  0  0  0  0  0  0  0
   20.2368  -18.4948  -14.0452 O   0  0  0  0  0  0  0  0  0  0  0  0
   22.5100  -20.4557  -14.1531 C   0  0  0  0  0  0  0  0  0  0  0  0
   22.5578  -21.6931  -14.3765 O   0  0  0  0  0  0  0  0  0  0  0  0
   18.7823  -19.7752  -15.2078 O   0  0  0  0  0  0  0  0  0  0  0  0
   25.0319  -21.2968   -8.8765 C   0  0  0  0  0  0  0  0  0  0  0  0
   23.7020  -21.5064   -9.5684 C   0  0  0  0  0  0  0  0  0  0  0  0
   23.6115  -20.5518  -10.7081 C   0  0  2  0  0  0  0  0  0  0  0  0
   23.2356  -19.1883  -10.1142 C   0  0  0  0  0  0  0  0  0  0  0  0
   22.5726  -20.8933  -11.7302 C   0  0  2  0  0  0  0  0  0  0  0  0
   22.5036  -19.9631  -12.8205 N   0  0  0  0  0  0  0  0  0  0  0  0
   21.2568  -20.9439  -11.0626 C   0  0  0  0  0  0  0  0  0  0  0  0
   20.9992  -21.8316  -10.2189 O   0  0  0  0  0  0  0  0  0  0  0  0
   20.2940  -20.0051  -11.3669 O   0  0  0  0  0  0  0  0  0  0  0  0
  1  2  1  0
  2  4  1  0
  3  2  2  0
  4  5  1  0
  5  7  1  0
  5  6  1  6
  7  8  2  0
  9  7  1  0
  9 10  1  0
 10 14  1  0
 10 11  1  6
 12 11  1  0
 13 12  2  0
 14 15  2  0
 16 12  1  0
 18 17  1  0
 19 18  1  0
 19 21  1  0
 19 20  1  1
 21 23  1  0
 22 14  1  0
 21 22  1  6
 23 25  1  0
 24 23  2  0
M  END
$$$$
