NDI.pdb
     RDKit          3D

 25 24  0  0  1  0  0  0  0  0999 V2000
   14.1016  -12.3323  -14.9958 N   0  0  0  0  0  0  0  0  0  0  0  0
   15.2789  -12.1037  -14.2563 C   0  0  0  0  0  0  0  0  0  0  0  0
   15.4495  -12.7731  -13.1834 O   0  0  0  0  0  0  0  0  0  0  0  0
   16.3297  -11.1482  -14.6293 C   0  0  0  0  0  0  0  0  0  0  0  0
   15.9322  -10.4096  -15.8984 C   0  0  2  0  0  0  0  0  0  0  0  0
   15.9618  -11.3185  -17.0048 N   0  0  0  0  0  0  0  0  0  0  0  0
   16.8069   -9.2299  -16.1036 C   0  0  0  0  0  0  0  0  0  0  0  0
   17.9217   -9.4532  -16.6721 O   0  0  0  0  0  0  0  0  0  0  0  0
   16.4546   -7.9204  -15.7036 N   0  0  0  0  0  0  0  0  0  0  0  0
   17.3340   -6.8383  -15.9999 C   0  0  1  0  0  0  0  0  0  0  0  0
   16.6228   -5.4958  -16.1208 C   0  0  0  0  0  0  0  0  0  0  0  0
   15.6291   -5.5651  -17.1979 C   0  0  0  0  0  0  0  0  0  0  0  0
   14.4064   -5.3859  -17.0488 O   0  0  0  0  0  0  0  0  0  0  0  0
   18.4508   -6.7387  -14.9967 C   0  0  0  0  0  0  0  0  0  0  0  0
   18.1464   -6.7764  -13.7764 O   0  0  0  0  0  0  0  0  0  0  0  0
   16.0912   -5.8530  -18.4807 O   0  0  0  0  0  0  0  0  0  0  0  0
   22.6257   -9.9011  -14.8092 C   0  0  0  0  0  0  0  0  0  0  0  0
   21.4234   -8.9890  -14.6922 C   0  0  0  0  0  0  0  0  0  0  0  0
   21.9092   -7.5851  -14.5850 C   0  0  2  0  0  0  0  0  0  0  0  0
   22.8183   -7.5247  -13.3509 C   0  0  0  0  0  0  0  0  0  0  0  0
   20.8326   -6.5626  -14.3949 C   0  0  2  0  0  0  0  0  0  0  0  0
   19.8074   -6.6064  -15.3979 N   0  0  0  0  0  0  0  0  0  0  0  0
   21.4518   -5.2225  -14.4042 C   0  0  0  0  0  0  0  0  0  0  0  0
   21.3256   -4.4643  -15.3919 O   0  0  0  0  0  0  0  0  0  0  0  0
   22.1800   -4.7931  -13.3151 O   0  0  0  0  0  0  0  0  0  0  0  0
  1  2  1  0
  2  4  1  0
  3  2  2  0
  4  5  1  0
  5  7  1  0
  5  6  1  6
  7  8  2  0
  9  7  1  0
  9 10  1  0
 10 14  1  0
 10 11  1  1
 12 11  1  0
 13 12  2  0
 14 15  2  0
 16 12  1  0
 18 17  1  0
 19 18  1  0
 19 21  1  0
 19 20  1  1
 21 23  1  0
 22 14  1  0
 21 22  1  6
 23 25  1  0
 24 23  2  0
M  END
$$$$
