NDI.pdb
     RDKit          3D

 25 24  0  0  1  0  0  0  0  0999 V2000
   13.4499  -13.5330  -16.6380 N   0  0  0  0  0  0  0  0  0  0  0  0
   14.6899  -13.0876  -17.1369 C   0  0  0  0  0  0  0  0  0  0  0  0
   14.8003  -12.9173  -18.3967 O   0  0  0  0  0  0  0  0  0  0  0  0
   15.8711  -12.8031  -16.3120 C   0  0  0  0  0  0  0  0  0  0  0  0
   17.0854  -13.5224  -16.8795 C   0  0  2  0  0  0  0  0  0  0  0  0
   17.0833  -14.8824  -16.4308 N   0  0  0  0  0  0  0  0  0  0  0  0
   18.3286  -12.8014  -16.5144 C   0  0  0  0  0  0  0  0  0  0  0  0
   18.6584  -12.8426  -15.2874 O   0  0  0  0  0  0  0  0  0  0  0  0
   19.1248  -12.0996  -17.4485 N   0  0  0  0  0  0  0  0  0  0  0  0
   20.3663  -11.5394  -17.0280 C   0  0  1  0  0  0  0  0  0  0  0  0
   21.5264  -11.8705  -17.9593 C   0  0  0  0  0  0  0  0  0  0  0  0
   22.7570  -11.2629  -17.4409 C   0  0  0  0  0  0  0  0  0  0  0  0
   22.9833  -11.0318  -16.2389 O   0  0  0  0  0  0  0  0  0  0  0  0
   20.2687  -10.0499  -16.8395 C   0  0  0  0  0  0  0  0  0  0  0  0
   19.8516   -9.3635  -17.8081 O   0  0  0  0  0  0  0  0  0  0  0  0
   23.7429  -10.9205  -18.3643 O   0  0  0  0  0  0  0  0  0  0  0  0
   17.9368   -5.7444  -15.4238 C   0  0  0  0  0  0  0  0  0  0  0  0
   18.9042   -6.2791  -14.3896 C   0  0  0  0  0  0  0  0  0  0  0  0
   19.1338   -7.7245  -14.6664 C   0  0  2  0  0  0  0  0  0  0  0  0
   19.2690   -8.4194  -13.3055 C   0  0  0  0  0  0  0  0  0  0  0  0
   20.3775   -8.0234  -15.4439 C   0  0  2  0  0  0  0  0  0  0  0  0
   20.6312   -9.4252  -15.6160 N   0  0  0  0  0  0  0  0  0  0  0  0
   21.5257   -7.4134  -14.7447 C   0  0  0  0  0  0  0  0  0  0  0  0
   22.3029   -8.1124  -14.0565 O   0  0  0  0  0  0  0  0  0  0  0  0
   21.7518   -6.0571  -14.8460 O   0  0  0  0  0  0  0  0  0  0  0  0
  1  2  1  0
  2  4  1  0
  3  2  2  0
  4  5  1  0
  5  7  1  0
  5  6  1  1
  7  8  2  0
  9  7  1  0
  9 10  1  0
 10 14  1  0
 10 11  1  6
 12 11  1  0
 13 12  2  0
 14 15  2  0
 16 12  1  0
 18 17  1  0
 19 18  1  0
 19 21  1  0
 19 20  1  1
 21 23  1  0
 22 14  1  0
 21 22  1  1
 23 25  1  0
 24 23  2  0
M  END
$$$$
