NDI.pdb
     RDKit          3D

 25 24  0  0  1  0  0  0  0  0999 V2000
   15.5801  -13.5978  -17.5481 N   0  0  0  0  0  0  0  0  0  0  0  0
   14.8486  -12.4782  -17.9912 C   0  0  0  0  0  0  0  0  0  0  0  0
   13.6506  -12.6665  -18.3881 O   0  0  0  0  0  0  0  0  0  0  0  0
   15.3639  -11.1036  -18.0309 C   0  0  0  0  0  0  0  0  0  0  0  0
   16.7840  -11.0662  -17.4867 C   0  0  2  0  0  0  0  0  0  0  0  0
   16.7771  -11.4794  -16.1155 N   0  0  0  0  0  0  0  0  0  0  0  0
   17.3728   -9.7185  -17.6753 C   0  0  0  0  0  0  0  0  0  0  0  0
   17.2046   -9.1905  -18.8193 O   0  0  0  0  0  0  0  0  0  0  0  0
   18.0850   -9.0316  -16.6654 N   0  0  0  0  0  0  0  0  0  0  0  0
   18.5570   -7.7104  -16.9177 C   0  0  1  0  0  0  0  0  0  0  0  0
   17.5178   -6.8118  -17.5774 C   0  0  0  0  0  0  0  0  0  0  0  0
   18.1181   -5.5058  -17.8714 C   0  0  0  0  0  0  0  0  0  0  0  0
   18.1020   -4.9514  -18.9858 O   0  0  0  0  0  0  0  0  0  0  0  0
   19.0791   -7.0581  -15.6664 C   0  0  0  0  0  0  0  0  0  0  0  0
   18.2840   -6.9249  -14.7003 O   0  0  0  0  0  0  0  0  0  0  0  0
   18.7519   -4.8397  -16.8243 O   0  0  0  0  0  0  0  0  0  0  0  0
   23.4747   -9.7759  -13.4480 C   0  0  0  0  0  0  0  0  0  0  0  0
   22.8120   -8.4291  -13.2523 C   0  0  0  0  0  0  0  0  0  0  0  0
   22.0337   -8.1073  -14.4808 C   0  0  2  0  0  0  0  0  0  0  0  0
   23.0548   -7.8435  -15.5948 C   0  0  0  0  0  0  0  0  0  0  0  0
   21.1686   -6.8905  -14.3733 C   0  0  2  0  0  0  0  0  0  0  0  0
   20.4212   -6.6030  -15.5640 N   0  0  0  0  0  0  0  0  0  0  0  0
   22.0266   -5.7314  -14.0576 C   0  0  0  0  0  0  0  0  0  0  0  0
   22.5217   -5.5916  -12.9167 O   0  0  0  0  0  0  0  0  0  0  0  0
   22.2908   -4.7864  -15.0262 O   0  0  0  0  0  0  0  0  0  0  0  0
  1  2  1  0
  2  4  1  0
  3  2  2  0
  4  5  1  0
  5  7  1  0
  5  6  1  1
  7  8  2  0
  9  7  1  0
  9 10  1  0
 10 14  1  0
 10 11  1  1
 12 11  1  0
 13 12  2  0
 14 15  2  0
 16 12  1  0
 18 17  1  0
 19 18  1  0
 19 21  1  0
 19 20  1  6
 21 23  1  0
 22 14  1  0
 21 22  1  6
 23 25  1  0
 24 23  2  0
M  END
$$$$
