NDI.pdb
     RDKit          3D

 25 24  0  0  1  0  0  0  0  0999 V2000
   16.8932  -16.3063  -14.0817 N   0  0  0  0  0  0  0  0  0  0  0  0
   16.4383  -15.0039  -14.3675 C   0  0  0  0  0  0  0  0  0  0  0  0
   15.1834  -14.7820  -14.3027 O   0  0  0  0  0  0  0  0  0  0  0  0
   17.3042  -13.8767  -14.7364 C   0  0  0  0  0  0  0  0  0  0  0  0
   16.8694  -13.3060  -16.0778 C   0  0  2  0  0  0  0  0  0  0  0  0
   17.2348  -14.2165  -17.1211 N   0  0  0  0  0  0  0  0  0  0  0  0
   17.4432  -11.9527  -16.2725 C   0  0  0  0  0  0  0  0  0  0  0  0
   18.5574  -11.9007  -16.8822 O   0  0  0  0  0  0  0  0  0  0  0  0
   16.8165  -10.7687  -15.8204 N   0  0  0  0  0  0  0  0  0  0  0  0
   17.3914   -9.5053  -16.1448 C   0  0  1  0  0  0  0  0  0  0  0  0
   16.3748   -8.3707  -16.1886 C   0  0  0  0  0  0  0  0  0  0  0  0
   17.0369   -7.1392  -16.6330 C   0  0  0  0  0  0  0  0  0  0  0  0
   17.8688   -7.0736  -17.5566 O   0  0  0  0  0  0  0  0  0  0  0  0
   18.5166   -9.1502  -15.2113 C   0  0  0  0  0  0  0  0  0  0  0  0
   18.3356   -9.3343  -13.9798 O   0  0  0  0  0  0  0  0  0  0  0  0
   16.7081   -5.9581  -15.9706 O   0  0  0  0  0  0  0  0  0  0  0  0
   23.3155  -11.2033  -15.2102 C   0  0  0  0  0  0  0  0  0  0  0  0
   21.9530  -10.5992  -14.9454 C   0  0  0  0  0  0  0  0  0  0  0  0
   22.0685   -9.1181  -15.0532 C   0  0  2  0  0  0  0  0  0  0  0  0
   23.1136   -8.6796  -14.0194 C   0  0  0  0  0  0  0  0  0  0  0  0
   20.8075   -8.3684  -14.7564 C   0  0  2  0  0  0  0  0  0  0  0  0
   19.7472   -8.6244  -15.6887 N   0  0  0  0  0  0  0  0  0  0  0  0
   21.1087   -6.9232  -14.7621 C   0  0  0  0  0  0  0  0  0  0  0  0
   21.7120   -6.3898  -13.8041 O   0  0  0  0  0  0  0  0  0  0  0  0
   20.7240   -6.1441  -15.8326 O   0  0  0  0  0  0  0  0  0  0  0  0
  1  2  1  0
  2  4  1  0
  3  2  2  0
  4  5  1  0
  5  7  1  0
  5  6  1  6
  7  8  2  0
  9  7  1  0
  9 10  1  0
 10 14  1  0
 10 11  1  1
 12 11  1  0
 13 12  2  0
 14 15  2  0
 16 12  1  0
 18 17  1  0
 19 18  1  0
 19 21  1  0
 19 20  1  1
 21 23  1  0
 22 14  1  0
 21 22  1  6
 23 25  1  0
 24 23  2  0
M  END
$$$$
