NDI.pdb
     RDKit          3D

 25 24  0  0  1  0  0  0  0  0999 V2000
   17.4955  -24.3419  -12.7064 N   0  0  0  0  0  0  0  0  0  0  0  0
   16.4838  -23.6506  -12.0110 C   0  0  0  0  0  0  0  0  0  0  0  0
   15.2823  -23.7796  -12.4208 O   0  0  0  0  0  0  0  0  0  0  0  0
   16.7093  -22.7883  -10.8439 C   0  0  0  0  0  0  0  0  0  0  0  0
   18.1783  -22.8225  -10.4499 C   0  0  2  0  0  0  0  0  0  0  0  0
   18.9854  -22.5816  -11.6081 N   0  0  0  0  0  0  0  0  0  0  0  0
   18.5031  -24.1065   -9.7831 C   0  0  0  0  0  0  0  0  0  0  0  0
   19.4189  -24.8015  -10.3255 O   0  0  0  0  0  0  0  0  0  0  0  0
   17.8539  -24.5624   -8.6128 N   0  0  0  0  0  0  0  0  0  0  0  0
   18.2673  -25.7893   -8.0165 C   0  0  1  0  0  0  0  0  0  0  0  0
   17.6586  -26.0290   -6.6400 C   0  0  0  0  0  0  0  0  0  0  0  0
   18.2075  -25.0572   -5.6877 C   0  0  0  0  0  0  0  0  0  0  0  0
   17.7478  -23.9171   -5.4920 O   0  0  0  0  0  0  0  0  0  0  0  0
   17.9879  -26.9651   -8.9127 C   0  0  0  0  0  0  0  0  0  0  0  0
   16.9776  -26.9040   -9.6603 O   0  0  0  0  0  0  0  0  0  0  0  0
   19.3253  -25.4417   -4.9499 O   0  0  0  0  0  0  0  0  0  0  0  0
   22.0054  -30.2471  -11.0021 C   0  0  0  0  0  0  0  0  0  0  0  0
   20.8785  -29.2695  -10.7458 C   0  0  0  0  0  0  0  0  0  0  0  0
   19.7240  -30.0231  -10.1821 C   0  0  2  0  0  0  0  0  0  0  0  0
   19.2788  -31.0207  -11.2590 C   0  0  0  0  0  0  0  0  0  0  0  0
   18.5353  -29.1815   -9.8369 C   0  0  2  0  0  0  0  0  0  0  0  0
   18.8266  -28.1118   -8.9259 N   0  0  0  0  0  0  0  0  0  0  0  0
   17.5036  -30.0506   -9.2373 C   0  0  0  0  0  0  0  0  0  0  0  0
   17.5493  -30.3584   -8.0251 O   0  0  0  0  0  0  0  0  0  0  0  0
   16.4732  -30.5337  -10.0157 O   0  0  0  0  0  0  0  0  0  0  0  0
  1  2  1  0
  2  4  1  0
  3  2  2  0
  4  5  1  0
  5  7  1  0
  5  6  1  6
  7  8  2  0
  9  7  1  0
  9 10  1  0
 10 14  1  0
 10 11  1  1
 12 11  1  0
 13 12  2  0
 14 15  2  0
 16 12  1  0
 18 17  1  0
 19 18  1  0
 19 21  1  0
 19 20  1  6
 21 23  1  0
 22 14  1  0
 21 22  1  1
 23 25  1  0
 24 23  2  0
M  END
$$$$
