NDI.pdb
     RDKit          3D

 25 24  0  0  1  0  0  0  0  0999 V2000
   15.1609  -12.5675  -17.0112 N   0  0  0  0  0  0  0  0  0  0  0  0
   14.2896  -11.4611  -17.0544 C   0  0  0  0  0  0  0  0  0  0  0  0
   13.0497  -11.6851  -17.2557 O   0  0  0  0  0  0  0  0  0  0  0  0
   14.7033  -10.0624  -16.8841 C   0  0  0  0  0  0  0  0  0  0  0  0
   16.1988   -9.9932  -16.6139 C   0  0  2  0  0  0  0  0  0  0  0  0
   16.4970  -10.7123  -15.4118 N   0  0  0  0  0  0  0  0  0  0  0  0
   16.6483   -8.5811  -16.5623 C   0  0  0  0  0  0  0  0  0  0  0  0
   16.1779   -7.8120  -17.4585 O   0  0  0  0  0  0  0  0  0  0  0  0
   17.5455   -8.0845  -15.5889 N   0  0  0  0  0  0  0  0  0  0  0  0
   17.8230   -6.6872  -15.5418 C   0  0  1  0  0  0  0  0  0  0  0  0
   16.5700   -5.8231  -15.4646 C   0  0  0  0  0  0  0  0  0  0  0  0
   16.9560   -4.4104  -15.3761 C   0  0  0  0  0  0  0  0  0  0  0  0
   17.5422   -3.7768  -16.2729 O   0  0  0  0  0  0  0  0  0  0  0  0
   18.7539   -6.3430  -14.4109 C   0  0  0  0  0  0  0  0  0  0  0  0
   18.3593   -6.5713  -13.2380 O   0  0  0  0  0  0  0  0  0  0  0  0
   16.6420   -3.7311  -14.2006 O   0  0  0  0  0  0  0  0  0  0  0  0
   23.5679   -9.0923  -14.0027 C   0  0  0  0  0  0  0  0  0  0  0  0
   23.0326   -7.7846  -13.4599 C   0  0  0  0  0  0  0  0  0  0  0  0
   21.9050   -7.3440  -14.3276 C   0  0  2  0  0  0  0  0  0  0  0  0
   22.5173   -6.9273  -15.6710 C   0  0  0  0  0  0  0  0  0  0  0  0
   21.1353   -6.1706  -13.8066 C   0  0  2  0  0  0  0  0  0  0  0  0
   20.0372   -5.7794  -14.6433 N   0  0  0  0  0  0  0  0  0  0  0  0
   22.0595   -5.0279  -13.6675 C   0  0  0  0  0  0  0  0  0  0  0  0
   22.0073   -4.0604  -14.4597 O   0  0  0  0  0  0  0  0  0  0  0  0
   22.9949   -5.0185  -12.6547 O   0  0  0  0  0  0  0  0  0  0  0  0
  1  2  1  0
  2  4  1  0
  3  2  2  0
  4  5  1  0
  5  7  1  0
  5  6  1  1
  7  8  2  0
  9  7  1  0
  9 10  1  0
 10 14  1  0
 10 11  1  1
 12 11  1  0
 13 12  2  0
 14 15  2  0
 16 12  1  0
 18 17  1  0
 19 18  1  0
 19 21  1  0
 19 20  1  6
 21 23  1  0
 22 14  1  0
 21 22  1  6
 23 25  1  0
 24 23  2  0
M  END
$$$$
