NDI.pdb
     RDKit          3D

 25 24  0  0  1  0  0  0  0  0999 V2000
   15.9722  -23.8482   -7.6942 N   0  0  0  0  0  0  0  0  0  0  0  0
   16.9005  -24.2014   -6.6949 C   0  0  0  0  0  0  0  0  0  0  0  0
   18.1391  -24.0136   -6.9372 O   0  0  0  0  0  0  0  0  0  0  0  0
   16.5480  -24.7725   -5.3887 C   0  0  0  0  0  0  0  0  0  0  0  0
   17.1711  -26.1524   -5.2408 C   0  0  2  0  0  0  0  0  0  0  0  0
   16.5617  -27.0503   -6.1754 N   0  0  0  0  0  0  0  0  0  0  0  0
   17.0573  -26.6217   -3.8389 C   0  0  0  0  0  0  0  0  0  0  0  0
   15.8779  -26.8354   -3.4154 O   0  0  0  0  0  0  0  0  0  0  0  0
   18.1720  -26.8300   -2.9945 N   0  0  0  0  0  0  0  0  0  0  0  0
   17.9655  -27.3186   -1.6714 C   0  0  1  0  0  0  0  0  0  0  0  0
   19.2186  -27.9185   -1.0449 C   0  0  0  0  0  0  0  0  0  0  0  0
   19.5253  -29.1972   -1.6954 C   0  0  0  0  0  0  0  0  0  0  0  0
   20.6696  -29.6671   -1.8340 O   0  0  0  0  0  0  0  0  0  0  0  0
   17.3986  -26.2567   -0.7688 C   0  0  0  0  0  0  0  0  0  0  0  0
   17.7364  -25.0639   -0.9844 O   0  0  0  0  0  0  0  0  0  0  0  0
   18.4550  -29.9374   -2.1938 O   0  0  0  0  0  0  0  0  0  0  0  0
   12.2891  -24.5660    0.6732 C   0  0  0  0  0  0  0  0  0  0  0  0
   13.7823  -24.4075    0.4821 C   0  0  0  0  0  0  0  0  0  0  0  0
   14.4653  -25.5361    1.1737 C   0  0  2  0  0  0  0  0  0  0  0  0
   14.0941  -25.4345    2.6586 C   0  0  0  0  0  0  0  0  0  0  0  0
   15.9594  -25.5121    1.0861 C   0  0  2  0  0  0  0  0  0  0  0  0
   16.5113  -26.5740    0.2946 N   0  0  0  0  0  0  0  0  0  0  0  0
   16.5108  -25.5999    2.4527 C   0  0  0  0  0  0  0  0  0  0  0  0
   16.9280  -26.6887    2.9074 O   0  0  0  0  0  0  0  0  0  0  0  0
   16.5703  -24.4729    3.2447 O   0  0  0  0  0  0  0  0  0  0  0  0
  1  2  1  0
  2  4  1  0
  3  2  2  0
  4  5  1  0
  5  7  1  0
  5  6  1  6
  7  8  2  0
  9  7  1  0
  9 10  1  0
 10 14  1  0
 10 11  1  1
 12 11  1  0
 13 12  2  0
 14 15  2  0
 16 12  1  0
 18 17  1  0
 19 18  1  0
 19 21  1  0
 19 20  1  1
 21 23  1  0
 22 14  1  0
 21 22  1  6
 23 25  1  0
 24 23  2  0
M  END
$$$$
