NDI.pdb
     RDKit          3D

 25 24  0  0  1  0  0  0  0  0999 V2000
   12.5043  -13.0408  -14.7284 N   0  0  0  0  0  0  0  0  0  0  0  0
   12.8325  -13.2077  -13.3685 C   0  0  0  0  0  0  0  0  0  0  0  0
   11.9817  -13.7890  -12.6158 O   0  0  0  0  0  0  0  0  0  0  0  0
   14.0865  -12.7605  -12.7488 C   0  0  0  0  0  0  0  0  0  0  0  0
   14.9139  -11.9791  -13.7582 C   0  0  2  0  0  0  0  0  0  0  0  0
   15.7314  -12.8872  -14.5054 N   0  0  0  0  0  0  0  0  0  0  0  0
   15.7049  -10.9285  -13.0733 C   0  0  0  0  0  0  0  0  0  0  0  0
   16.1155  -11.2116  -11.9040 O   0  0  0  0  0  0  0  0  0  0  0  0
   16.0038   -9.6751  -13.6552 N   0  0  0  0  0  0  0  0  0  0  0  0
   16.7807   -8.7311  -12.9222 C   0  0  1  0  0  0  0  0  0  0  0  0
   17.6127   -7.8126  -13.8092 C   0  0  0  0  0  0  0  0  0  0  0  0
   18.3646   -6.8733  -12.9698 C   0  0  0  0  0  0  0  0  0  0  0  0
   17.9725   -6.4280  -11.8755 O   0  0  0  0  0  0  0  0  0  0  0  0
   15.9278   -7.9117  -11.9923 C   0  0  0  0  0  0  0  0  0  0  0  0
   14.9648   -7.2735  -12.4910 O   0  0  0  0  0  0  0  0  0  0  0  0
   19.6084   -6.4504  -13.4343 O   0  0  0  0  0  0  0  0  0  0  0  0
   12.6636   -9.1074   -8.2582 C   0  0  0  0  0  0  0  0  0  0  0  0
   13.3655   -8.3517   -9.3661 C   0  0  0  0  0  0  0  0  0  0  0  0
   14.5436   -7.6520   -8.7822 C   0  0  2  0  0  0  0  0  0  0  0  0
   13.9951   -6.5797   -7.8323 C   0  0  0  0  0  0  0  0  0  0  0  0
   15.4174   -6.9576   -9.7797 C   0  0  2  0  0  0  0  0  0  0  0  0
   16.1880   -7.8506  -10.5968 N   0  0  0  0  0  0  0  0  0  0  0  0
   16.3385   -6.0617   -9.0529 C   0  0  0  0  0  0  0  0  0  0  0  0
   17.5130   -6.4145   -8.8034 O   0  0  0  0  0  0  0  0  0  0  0  0
   15.9072   -4.8188   -8.6402 O   0  0  0  0  0  0  0  0  0  0  0  0
  1  2  1  0
  2  4  1  0
  3  2  2  0
  4  5  1  0
  5  7  1  0
  5  6  1  1
  7  8  2  0
  9  7  1  0
  9 10  1  0
 10 14  1  0
 10 11  1  6
 12 11  1  0
 13 12  2  0
 14 15  2  0
 16 12  1  0
 18 17  1  0
 19 18  1  0
 19 21  1  0
 19 20  1  1
 21 23  1  0
 22 14  1  0
 21 22  1  1
 23 25  1  0
 24 23  2  0
M  END
$$$$
