NDI.pdb
     RDKit          3D

 25 24  0  0  1  0  0  0  0  0999 V2000
   18.8391  -17.1841  -17.7880 N   0  0  0  0  0  0  0  0  0  0  0  0
   18.1978  -17.8272  -16.7109 C   0  0  0  0  0  0  0  0  0  0  0  0
   16.9313  -17.9710  -16.7699 O   0  0  0  0  0  0  0  0  0  0  0  0
   18.8807  -18.3470  -15.5194 C   0  0  0  0  0  0  0  0  0  0  0  0
   20.3811  -18.1298  -15.6455 C   0  0  2  0  0  0  0  0  0  0  0  0
   20.7349  -18.0590  -17.0315 N   0  0  0  0  0  0  0  0  0  0  0  0
   21.1184  -19.1925  -14.9204 C   0  0  0  0  0  0  0  0  0  0  0  0
   20.8997  -19.2709  -13.6707 O   0  0  0  0  0  0  0  0  0  0  0  0
   22.0187  -20.0833  -15.5489 N   0  0  0  0  0  0  0  0  0  0  0  0
   22.6807  -21.0752  -14.7680 C   0  0  1  0  0  0  0  0  0  0  0  0
   23.0756  -22.3112  -15.5674 C   0  0  0  0  0  0  0  0  0  0  0  0
   21.8715  -22.9372  -16.1248 C   0  0  0  0  0  0  0  0  0  0  0  0
   20.8124  -23.1229  -15.4978 O   0  0  0  0  0  0  0  0  0  0  0  0
   23.8852  -20.5145  -14.0620 C   0  0  0  0  0  0  0  0  0  0  0  0
   24.4731  -19.5373  -14.5939 O   0  0  0  0  0  0  0  0  0  0  0  0
   21.9203  -23.3532  -17.4539 O   0  0  0  0  0  0  0  0  0  0  0  0
   26.5730  -20.1795   -8.5764 C   0  0  0  0  0  0  0  0  0  0  0  0
   26.7601  -20.0700  -10.0745 C   0  0  0  0  0  0  0  0  0  0  0  0
   25.5844  -20.6967  -10.7403 C   0  0  2  0  0  0  0  0  0  0  0  0
   25.6871  -22.2066  -10.4900 C   0  0  0  0  0  0  0  0  0  0  0  0
   25.5226  -20.4948  -12.2222 C   0  0  2  0  0  0  0  0  0  0  0  0
   24.3547  -21.0585  -12.8363 N   0  0  0  0  0  0  0  0  0  0  0  0
   26.7220  -21.1050  -12.8291 C   0  0  0  0  0  0  0  0  0  0  0  0
   26.6884  -22.2702  -13.2846 O   0  0  0  0  0  0  0  0  0  0  0  0
   27.8982  -20.3890  -12.8989 O   0  0  0  0  0  0  0  0  0  0  0  0
  1  2  1  0
  2  4  1  0
  3  2  2  0
  4  5  1  0
  5  7  1  0
  5  6  1  6
  7  8  2  0
  9  7  1  0
  9 10  1  0
 10 14  1  0
 10 11  1  6
 12 11  1  0
 13 12  2  0
 14 15  2  0
 16 12  1  0
 18 17  1  0
 19 18  1  0
 19 21  1  0
 19 20  1  6
 21 23  1  0
 22 14  1  0
 21 22  1  6
 23 25  1  0
 24 23  2  0
M  END
$$$$
