CVF.pdb
     RDKit          3D

 25 25  0  0  1  0  0  0  0  0999 V2000
    7.9412  -17.1587   17.2288 N   0  0  0  0  0  0  0  0  0  0  0  0
    7.9341  -18.1279   18.2815 C   0  0  1  0  0  0  0  0  0  0  0  0
    9.1836  -18.9681   18.3666 C   0  0  0  0  0  0  0  0  0  0  0  0
   10.5298  -17.8936   18.9740 S   0  0  0  0  0  0  0  0  0  0  0  0
    7.6052  -17.5054   19.5790 C   0  0  0  0  0  0  0  0  0  0  0  0
    7.7555  -16.2578   19.7106 O   0  0  0  0  0  0  0  0  0  0  0  0
    4.9400  -17.3743   23.6470 C   0  0  0  0  0  0  0  0  0  0  0  0
    5.2677  -18.0796   22.3214 C   0  0  1  0  0  0  0  0  0  0  0  0
    4.1244  -17.8291   21.3992 C   0  0  0  0  0  0  0  0  0  0  0  0
    6.5831  -17.5519   21.8683 C   0  0  2  0  0  0  0  0  0  0  0  0
    7.1279  -18.2095   20.6999 N   0  0  0  0  0  0  0  0  0  0  0  0
    7.5889  -17.4199   22.9492 C   0  0  0  0  0  0  0  0  0  0  0  0
    8.2208  -18.4606   23.3034 O   0  0  0  0  0  0  0  0  0  0  0  0
    7.8953  -16.2266   23.6119 N   0  0  0  0  0  0  0  0  0  0  0  0
    8.9500  -16.1135   24.6318 C   0  0  1  0  0  0  0  0  0  0  0  0
    9.3315  -14.6690   24.8101 C   0  0  0  0  0  0  0  0  0  0  0  0
    8.2737  -13.8315   25.4026 C   0  0  0  0  0  0  0  0  0  0  0  0
    8.2017  -13.5633   26.7599 C   0  0  0  0  0  0  0  0  0  0  0  0
    7.2081  -12.7741   27.2629 C   0  0  0  0  0  0  0  0  0  0  0  0
    6.2471  -12.2217   26.4281 C   0  0  0  0  0  0  0  0  0  0  0  0
    6.3058  -12.4800   25.0718 C   0  0  0  0  0  0  0  0  0  0  0  0
    7.3175  -13.2795   24.5833 C   0  0  0  0  0  0  0  0  0  0  0  0
    8.5482  -16.7598   25.8833 C   0  0  0  0  0  0  0  0  0  0  0  0
    7.3266  -16.9938   26.1762 O   0  0  0  0  0  0  0  0  0  0  0  0
    9.4676  -17.1598   26.8308 O   0  0  0  0  0  0  0  0  0  0  0  0
  2  5  1  0
  2  1  1  6
  3  2  1  0
  4  3  1  0
  5  6  2  0
  8  7  1  1
  8  9  1  0
  8 10  1  0
 10 12  1  0
 10 11  1  6
 11  5  1  0
 12 13  2  0
 12 14  1  0
 14 15  1  0
 15 16  1  1
 15 23  1  0
 17 22  2  0
 17 16  1  0
 18 17  1  0
 19 20  1  0
 19 18  2  0
 20 21  2  0
 21 22  1  0
 23 25  1  0
 24 23  2  0
M  END
$$$$
