CVF.pdb
     RDKit          3D

 25 25  0  0  1  0  0  0  0  0999 V2000
    6.8295  -15.1966   19.7545 N   0  0  0  0  0  0  0  0  0  0  0  0
    7.9740  -14.6724   20.4350 C   0  0  1  0  0  0  0  0  0  0  0  0
    7.8251  -13.2461   20.9017 C   0  0  0  0  0  0  0  0  0  0  0  0
    7.8618  -12.1755   19.4224 S   0  0  0  0  0  0  0  0  0  0  0  0
    8.3987  -15.5645   21.5317 C   0  0  0  0  0  0  0  0  0  0  0  0
    7.5150  -16.1817   22.1907 O   0  0  0  0  0  0  0  0  0  0  0  0
   11.4999  -18.6258   23.6352 C   0  0  0  0  0  0  0  0  0  0  0  0
   11.3211  -17.5752   22.5277 C   0  0  1  0  0  0  0  0  0  0  0  0
   11.2227  -18.3136   21.2372 C   0  0  0  0  0  0  0  0  0  0  0  0
   10.1283  -16.7645   22.8941 C   0  0  2  0  0  0  0  0  0  0  0  0
    9.7378  -15.7832   21.9046 N   0  0  0  0  0  0  0  0  0  0  0  0
   10.1839  -16.1849   24.2572 C   0  0  0  0  0  0  0  0  0  0  0  0
   11.0556  -15.2938   24.4892 O   0  0  0  0  0  0  0  0  0  0  0  0
    9.3420  -16.5491   25.3134 N   0  0  0  0  0  0  0  0  0  0  0  0
    9.4973  -16.0416   26.6860 C   0  0  1  0  0  0  0  0  0  0  0  0
    8.1623  -15.5937   27.2162 C   0  0  0  0  0  0  0  0  0  0  0  0
    7.7031  -14.2981   26.6853 C   0  0  0  0  0  0  0  0  0  0  0  0
    6.4986  -14.1456   26.0181 C   0  0  0  0  0  0  0  0  0  0  0  0
    6.1102  -12.9232   25.5512 C   0  0  0  0  0  0  0  0  0  0  0  0
    6.9112  -11.8048   25.7334 C   0  0  0  0  0  0  0  0  0  0  0  0
    8.1155  -11.9411   26.3972 C   0  0  0  0  0  0  0  0  0  0  0  0
    8.4898  -13.1844   26.8614 C   0  0  0  0  0  0  0  0  0  0  0  0
   10.1539  -17.0299   27.5450 C   0  0  0  0  0  0  0  0  0  0  0  0
   10.2028  -18.2727   27.2521 O   0  0  0  0  0  0  0  0  0  0  0  0
   10.7652  -16.6803   28.7313 O   0  0  0  0  0  0  0  0  0  0  0  0
  2  5  1  0
  2  1  1  1
  3  2  1  0
  4  3  1  0
  5  6  2  0
  8  7  1  1
  8  9  1  0
  8 10  1  0
 10 12  1  0
 10 11  1  6
 11  5  1  0
 12 13  2  0
 12 14  1  0
 14 15  1  0
 15 16  1  1
 15 23  1  0
 17 22  2  0
 17 16  1  0
 18 17  1  0
 19 20  1  0
 19 18  2  0
 20 21  2  0
 21 22  1  0
 23 25  1  0
 24 23  2  0
M  END
$$$$
