CVF.pdb
     RDKit          3D

 25 25  0  0  1  0  0  0  0  0999 V2000
    6.7704  -19.2731   20.1772 N   0  0  0  0  0  0  0  0  0  0  0  0
    6.4565  -18.4544   21.3080 C   0  0  1  0  0  0  0  0  0  0  0  0
    6.1468  -19.2215   22.5689 C   0  0  0  0  0  0  0  0  0  0  0  0
    5.3916  -18.0538   23.7529 S   0  0  0  0  0  0  0  0  0  0  0  0
    7.4970  -17.4316   21.5326 C   0  0  0  0  0  0  0  0  0  0  0  0
    8.7020  -17.7999   21.6254 O   0  0  0  0  0  0  0  0  0  0  0  0
    7.0901  -13.8599   20.0931 C   0  0  0  0  0  0  0  0  0  0  0  0
    7.9396  -13.6995   21.3639 C   0  0  1  0  0  0  0  0  0  0  0  0
    7.1383  -12.8915   22.3257 C   0  0  0  0  0  0  0  0  0  0  0  0
    8.2935  -15.0713   21.8192 C   0  0  2  0  0  0  0  0  0  0  0  0
    7.2431  -16.0529   21.6528 N   0  0  0  0  0  0  0  0  0  0  0  0
    8.8925  -15.1254   23.1740 C   0  0  0  0  0  0  0  0  0  0  0  0
    9.9027  -14.3953   23.4068 O   0  0  0  0  0  0  0  0  0  0  0  0
    8.4246  -15.9260   24.2214 N   0  0  0  0  0  0  0  0  0  0  0  0
    8.9474  -15.8513   25.5949 C   0  0  1  0  0  0  0  0  0  0  0  0
    7.8297  -15.5219   26.5468 C   0  0  0  0  0  0  0  0  0  0  0  0
    7.5623  -14.0801   26.6919 C   0  0  0  0  0  0  0  0  0  0  0  0
    8.5715  -13.1389   26.8147 C   0  0  0  0  0  0  0  0  0  0  0  0
    8.2760  -11.8120   26.9380 C   0  0  0  0  0  0  0  0  0  0  0  0
    6.9594  -11.3739   26.9431 C   0  0  0  0  0  0  0  0  0  0  0  0
    5.9417  -12.3009   26.8213 C   0  0  0  0  0  0  0  0  0  0  0  0
    6.2609  -13.6366   26.6976 C   0  0  0  0  0  0  0  0  0  0  0  0
    9.6663  -17.0756   25.9553 C   0  0  0  0  0  0  0  0  0  0  0  0
   10.2423  -17.2286   27.0857 O   0  0  0  0  0  0  0  0  0  0  0  0
    9.7676  -18.1478   25.0933 O   0  0  0  0  0  0  0  0  0  0  0  0
  2  5  1  0
  2  1  1  6
  3  2  1  0
  4  3  1  0
  5  6  2  0
  8  7  1  6
  8  9  1  0
  8 10  1  0
 10 12  1  0
 10 11  1  1
 11  5  1  0
 12 13  2  0
 12 14  1  0
 14 15  1  0
 15 16  1  1
 15 23  1  0
 17 22  2  0
 17 16  1  0
 18 17  1  0
 19 20  1  0
 19 18  2  0
 20 21  2  0
 21 22  1  0
 23 25  1  0
 24 23  2  0
M  END
$$$$
