CVF.pdb
     RDKit          3D

 25 25  0  0  1  0  0  0  0  0999 V2000
    7.0232  -14.0886   18.9408 N   0  0  0  0  0  0  0  0  0  0  0  0
    8.3118  -14.1584   19.5591 C   0  0  1  0  0  0  0  0  0  0  0  0
    8.9062  -12.8198   19.9187 C   0  0  0  0  0  0  0  0  0  0  0  0
    7.7888  -12.0274   21.1266 S   0  0  0  0  0  0  0  0  0  0  0  0
    8.3020  -15.0793   20.7128 C   0  0  0  0  0  0  0  0  0  0  0  0
    7.1908  -15.4710   21.1690 O   0  0  0  0  0  0  0  0  0  0  0  0
   10.1382  -18.9127   22.9366 C   0  0  0  0  0  0  0  0  0  0  0  0
   10.2527  -17.8537   21.8285 C   0  0  1  0  0  0  0  0  0  0  0  0
    9.8154  -18.5006   20.5594 C   0  0  0  0  0  0  0  0  0  0  0  0
    9.4398  -16.6863   22.2653 C   0  0  2  0  0  0  0  0  0  0  0  0
    9.4577  -15.5626   21.3535 N   0  0  0  0  0  0  0  0  0  0  0  0
    9.6836  -16.2671   23.6660 C   0  0  0  0  0  0  0  0  0  0  0  0
   10.7634  -15.6545   23.9238 O   0  0  0  0  0  0  0  0  0  0  0  0
    8.8068  -16.4977   24.7314 N   0  0  0  0  0  0  0  0  0  0  0  0
    9.1118  -16.1368   26.1251 C   0  0  1  0  0  0  0  0  0  0  0  0
    7.8490  -15.7232   26.8308 C   0  0  0  0  0  0  0  0  0  0  0  0
    7.4218  -14.3415   26.5489 C   0  0  0  0  0  0  0  0  0  0  0  0
    8.2670  -13.2524   26.6866 C   0  0  0  0  0  0  0  0  0  0  0  0
    7.8295  -11.9904   26.4052 C   0  0  0  0  0  0  0  0  0  0  0  0
    6.5292  -11.7678   25.9747 C   0  0  0  0  0  0  0  0  0  0  0  0
    5.6744  -12.8442   25.8323 C   0  0  0  0  0  0  0  0  0  0  0  0
    6.1355  -14.1111   26.1214 C   0  0  0  0  0  0  0  0  0  0  0  0
    9.8235  -17.2190   26.8089 C   0  0  0  0  0  0  0  0  0  0  0  0
    9.7793  -18.4322   26.4101 O   0  0  0  0  0  0  0  0  0  0  0  0
   10.5917  -16.9968   27.9331 O   0  0  0  0  0  0  0  0  0  0  0  0
  2  5  1  0
  2  1  1  1
  3  2  1  0
  4  3  1  0
  5  6  2  0
  8  7  1  1
  8  9  1  0
  8 10  1  0
 10 12  1  0
 10 11  1  6
 11  5  1  0
 12 13  2  0
 12 14  1  0
 14 15  1  0
 15 16  1  1
 15 23  1  0
 17 22  2  0
 17 16  1  0
 18 17  1  0
 19 20  1  0
 19 18  2  0
 20 21  2  0
 21 22  1  0
 23 25  1  0
 24 23  2  0
M  END
$$$$
