CVF.pdb
     RDKit          3D

 25 25  0  0  1  0  0  0  0  0999 V2000
    7.2334  -15.3896   17.9693 N   0  0  0  0  0  0  0  0  0  0  0  0
    7.9173  -14.8633   19.1107 C   0  0  1  0  0  0  0  0  0  0  0  0
    7.9201  -13.3577   19.1988 C   0  0  0  0  0  0  0  0  0  0  0  0
    8.8883  -12.7249   17.7855 S   0  0  0  0  0  0  0  0  0  0  0  0
    7.4294  -15.4825   20.3588 C   0  0  0  0  0  0  0  0  0  0  0  0
    6.3554  -15.0564   20.8698 O   0  0  0  0  0  0  0  0  0  0  0  0
    6.6130  -18.8780   23.5882 C   0  0  0  0  0  0  0  0  0  0  0  0
    7.0825  -18.4781   22.1804 C   0  0  1  0  0  0  0  0  0  0  0  0
    5.9238  -18.6690   21.2631 C   0  0  0  0  0  0  0  0  0  0  0  0
    7.5979  -17.0856   22.2795 C   0  0  2  0  0  0  0  0  0  0  0  0
    8.0821  -16.5306   21.0337 N   0  0  0  0  0  0  0  0  0  0  0  0
    8.5549  -16.8705   23.3908 C   0  0  0  0  0  0  0  0  0  0  0  0
    9.7431  -17.2868   23.2411 O   0  0  0  0  0  0  0  0  0  0  0  0
    8.2439  -16.2389   24.5998 N   0  0  0  0  0  0  0  0  0  0  0  0
    9.1795  -16.1503   25.7322 C   0  0  1  0  0  0  0  0  0  0  0  0
    9.5831  -14.7168   25.9468 C   0  0  0  0  0  0  0  0  0  0  0  0
    8.4568  -13.8019   26.2029 C   0  0  0  0  0  0  0  0  0  0  0  0
    7.5844  -13.3899   25.2087 C   0  0  0  0  0  0  0  0  0  0  0  0
    6.5490  -12.5477   25.4947 C   0  0  0  0  0  0  0  0  0  0  0  0
    6.3451  -12.0843   26.7867 C   0  0  0  0  0  0  0  0  0  0  0  0
    7.2069  -12.4866   27.7893 C   0  0  0  0  0  0  0  0  0  0  0  0
    8.2467  -13.3378   27.4799 C   0  0  0  0  0  0  0  0  0  0  0  0
    8.6187  -16.7746   26.9327 C   0  0  0  0  0  0  0  0  0  0  0  0
    7.3929  -17.1254   27.0179 O   0  0  0  0  0  0  0  0  0  0  0  0
    9.3820  -17.0258   28.0540 O   0  0  0  0  0  0  0  0  0  0  0  0
  2  5  1  0
  2  1  1  6
  3  2  1  0
  4  3  1  0
  5  6  2  0
  8  7  1  1
  8  9  1  0
  8 10  1  0
 10 12  1  0
 10 11  1  6
 11  5  1  0
 12 13  2  0
 12 14  1  0
 14 15  1  0
 15 16  1  1
 15 23  1  0
 17 22  2  0
 17 16  1  0
 18 17  1  0
 19 20  1  0
 19 18  2  0
 20 21  2  0
 21 22  1  0
 23 25  1  0
 24 23  2  0
M  END
$$$$
