CVF.pdb
     RDKit          3D

 25 25  0  0  1  0  0  0  0  0999 V2000
    6.9814  -15.2104   19.4807 N   0  0  0  0  0  0  0  0  0  0  0  0
    8.0082  -14.6618   20.3129 C   0  0  1  0  0  0  0  0  0  0  0  0
    7.7962  -13.2193   20.6987 C   0  0  0  0  0  0  0  0  0  0  0  0
    7.9040  -12.2196   19.1741 S   0  0  0  0  0  0  0  0  0  0  0  0
    8.2507  -15.5132   21.4941 C   0  0  0  0  0  0  0  0  0  0  0  0
    7.2649  -16.0679   22.0569 O   0  0  0  0  0  0  0  0  0  0  0  0
   10.8423  -18.7767   23.8753 C   0  0  0  0  0  0  0  0  0  0  0  0
   10.7592  -17.7966   22.6944 C   0  0  1  0  0  0  0  0  0  0  0  0
   10.4368  -18.6003   21.4818 C   0  0  0  0  0  0  0  0  0  0  0  0
    9.7537  -16.7638   23.0640 C   0  0  2  0  0  0  0  0  0  0  0  0
    9.5200  -15.7581   22.0499 N   0  0  0  0  0  0  0  0  0  0  0  0
    9.9651  -16.1626   24.4023 C   0  0  0  0  0  0  0  0  0  0  0  0
   10.8655  -15.2778   24.5209 O   0  0  0  0  0  0  0  0  0  0  0  0
    9.2416  -16.4997   25.5512 N   0  0  0  0  0  0  0  0  0  0  0  0
    9.5779  -16.0044   26.8954 C   0  0  1  0  0  0  0  0  0  0  0  0
    8.3466  -15.4424   27.5526 C   0  0  0  0  0  0  0  0  0  0  0  0
    7.8677  -14.1797   26.9631 C   0  0  0  0  0  0  0  0  0  0  0  0
    6.7722  -14.1148   26.1176 C   0  0  0  0  0  0  0  0  0  0  0  0
    6.3593  -12.9204   25.6019 C   0  0  0  0  0  0  0  0  0  0  0  0
    7.0258  -11.7433   25.9116 C   0  0  0  0  0  0  0  0  0  0  0  0
    8.1203  -11.7920   26.7538 C   0  0  0  0  0  0  0  0  0  0  0  0
    8.5215  -13.0083   27.2645 C   0  0  0  0  0  0  0  0  0  0  0  0
   10.2317  -17.0434   27.6946 C   0  0  0  0  0  0  0  0  0  0  0  0
   10.0435  -18.2905   27.4894 O   0  0  0  0  0  0  0  0  0  0  0  0
   11.0974  -16.7406   28.7251 O   0  0  0  0  0  0  0  0  0  0  0  0
  2  5  1  0
  2  1  1  1
  3  2  1  0
  4  3  1  0
  5  6  2  0
  8  7  1  1
  8  9  1  0
  8 10  1  0
 10 12  1  0
 10 11  1  6
 11  5  1  0
 12 13  2  0
 12 14  1  0
 14 15  1  0
 15 16  1  1
 15 23  1  0
 17 22  2  0
 17 16  1  0
 18 17  1  0
 19 20  1  0
 19 18  2  0
 20 21  2  0
 21 22  1  0
 23 25  1  0
 24 23  2  0
M  END
$$$$
