CVF.pdb
     RDKit          3D

 25 25  0  0  1  0  0  0  0  0999 V2000
    6.7262  -14.4154   18.9976 N   0  0  0  0  0  0  0  0  0  0  0  0
    7.8382  -14.1832   19.8677 C   0  0  1  0  0  0  0  0  0  0  0  0
    7.9195  -12.7815   20.4182 C   0  0  0  0  0  0  0  0  0  0  0  0
    8.3120  -11.6650   19.0271 S   0  0  0  0  0  0  0  0  0  0  0  0
    7.8982  -15.1956   20.9403 C   0  0  0  0  0  0  0  0  0  0  0  0
    6.8214  -15.5679   21.4863 O   0  0  0  0  0  0  0  0  0  0  0  0
    9.7050  -19.0944   23.1023 C   0  0  0  0  0  0  0  0  0  0  0  0
    9.8884  -18.0521   21.9877 C   0  0  1  0  0  0  0  0  0  0  0  0
    9.4711  -18.6990   20.7119 C   0  0  0  0  0  0  0  0  0  0  0  0
    9.1000  -16.8547   22.3863 C   0  0  2  0  0  0  0  0  0  0  0  0
    9.0857  -15.7879   21.4084 N   0  0  0  0  0  0  0  0  0  0  0  0
    9.4036  -16.3539   23.7480 C   0  0  0  0  0  0  0  0  0  0  0  0
   10.4611  -15.6732   23.9090 O   0  0  0  0  0  0  0  0  0  0  0  0
    8.6064  -16.5770   24.8757 N   0  0  0  0  0  0  0  0  0  0  0  0
    9.0091  -16.2014   26.2404 C   0  0  1  0  0  0  0  0  0  0  0  0
    7.8274  -15.6379   26.9819 C   0  0  0  0  0  0  0  0  0  0  0  0
    7.4494  -14.2737   26.5728 C   0  0  0  0  0  0  0  0  0  0  0  0
    8.2162  -13.1604   26.8760 C   0  0  0  0  0  0  0  0  0  0  0  0
    7.8306  -11.9162   26.4681 C   0  0  0  0  0  0  0  0  0  0  0  0
    6.6627  -11.7363   25.7405 C   0  0  0  0  0  0  0  0  0  0  0  0
    5.8874  -12.8373   25.4302 C   0  0  0  0  0  0  0  0  0  0  0  0
    6.2943  -14.0857   25.8513 C   0  0  0  0  0  0  0  0  0  0  0  0
    9.6395  -17.3263   26.9351 C   0  0  0  0  0  0  0  0  0  0  0  0
   10.2589  -17.1908   28.0445 O   0  0  0  0  0  0  0  0  0  0  0  0
    9.6044  -18.6111   26.4338 O   0  0  0  0  0  0  0  0  0  0  0  0
  2  5  1  0
  2  1  1  1
  3  2  1  0
  4  3  1  0
  5  6  2  0
  8  7  1  1
  8  9  1  0
  8 10  1  0
 10 12  1  0
 10 11  1  6
 11  5  1  0
 12 13  2  0
 12 14  1  0
 14 15  1  0
 15 16  1  1
 15 23  1  0
 17 22  2  0
 17 16  1  0
 18 17  1  0
 19 20  1  0
 19 18  2  0
 20 21  2  0
 21 22  1  0
 23 25  1  0
 24 23  2  0
M  END
$$$$
