CVF.pdb
     RDKit          3D

 25 25  0  0  1  0  0  0  0  0999 V2000
    6.5001  -17.7475   18.5393 N   0  0  0  0  0  0  0  0  0  0  0  0
    7.6473  -17.5602   19.3737 C   0  0  1  0  0  0  0  0  0  0  0  0
    8.6061  -16.5012   18.8903 C   0  0  0  0  0  0  0  0  0  0  0  0
    9.7210  -17.2819   17.6724 S   0  0  0  0  0  0  0  0  0  0  0  0
    7.2554  -17.3411   20.7800 C   0  0  0  0  0  0  0  0  0  0  0  0
    6.5145  -16.3565   21.0587 O   0  0  0  0  0  0  0  0  0  0  0  0
    7.4636  -20.2230   23.8451 C   0  0  0  0  0  0  0  0  0  0  0  0
    6.5697  -18.9749   23.9197 C   0  0  1  0  0  0  0  0  0  0  0  0
    6.2713  -18.7370   25.3600 C   0  0  0  0  0  0  0  0  0  0  0  0
    7.3031  -17.8801   23.2284 C   0  0  2  0  0  0  0  0  0  0  0  0
    7.6518  -18.1615   21.8523 N   0  0  0  0  0  0  0  0  0  0  0  0
    8.4541  -17.3435   23.9930 C   0  0  0  0  0  0  0  0  0  0  0  0
    9.5970  -17.8496   23.7801 O   0  0  0  0  0  0  0  0  0  0  0  0
    8.3739  -16.3146   24.9374 N   0  0  0  0  0  0  0  0  0  0  0  0
    9.5501  -15.7284   25.5995 C   0  0  1  0  0  0  0  0  0  0  0  0
    9.5329  -14.2329   25.4354 C   0  0  0  0  0  0  0  0  0  0  0  0
    8.3450  -13.5741   26.0066 C   0  0  0  0  0  0  0  0  0  0  0  0
    8.3217  -13.0511   27.2893 C   0  0  0  0  0  0  0  0  0  0  0  0
    7.2005  -12.4413   27.7732 C   0  0  0  0  0  0  0  0  0  0  0  0
    6.0582  -12.3302   26.9933 C   0  0  0  0  0  0  0  0  0  0  0  0
    6.0663  -12.8469   25.7116 C   0  0  0  0  0  0  0  0  0  0  0  0
    7.2088  -13.4591   25.2412 C   0  0  0  0  0  0  0  0  0  0  0  0
    9.6356  -16.1514   26.9993 C   0  0  0  0  0  0  0  0  0  0  0  0
   10.6192  -15.8412   27.7536 O   0  0  0  0  0  0  0  0  0  0  0  0
    8.6542  -16.9153   27.5963 O   0  0  0  0  0  0  0  0  0  0  0  0
  2  5  1  0
  2  1  1  6
  3  2  1  0
  4  3  1  0
  5  6  2  0
  8  7  1  1
  8  9  1  0
  8 10  1  0
 10 12  1  0
 10 11  1  6
 11  5  1  0
 12 13  2  0
 12 14  1  0
 14 15  1  0
 15 16  1  1
 15 23  1  0
 17 22  2  0
 17 16  1  0
 18 17  1  0
 19 20  1  0
 19 18  2  0
 20 21  2  0
 21 22  1  0
 23 25  1  0
 24 23  2  0
M  END
$$$$
