CVF.pdb
     RDKit          3D

 25 25  0  0  1  0  0  0  0  0999 V2000
    6.2771  -19.3247   20.7585 N   0  0  0  0  0  0  0  0  0  0  0  0
    6.1252  -18.3845   21.8265 C   0  0  1  0  0  0  0  0  0  0  0  0
    6.1005  -19.0002   23.2030 C   0  0  0  0  0  0  0  0  0  0  0  0
    5.6372  -17.6877   24.3855 S   0  0  0  0  0  0  0  0  0  0  0  0
    7.1231  -17.3010   21.7307 C   0  0  0  0  0  0  0  0  0  0  0  0
    8.3282  -17.6025   21.5004 O   0  0  0  0  0  0  0  0  0  0  0  0
    8.5460  -12.6491   21.2046 C   0  0  0  0  0  0  0  0  0  0  0  0
    7.3405  -13.6017   21.2403 C   0  0  1  0  0  0  0  0  0  0  0  0
    6.7855  -13.6557   19.8585 C   0  0  0  0  0  0  0  0  0  0  0  0
    7.8330  -14.8966   21.7835 C   0  0  2  0  0  0  0  0  0  0  0  0
    6.8276  -15.9332   21.8789 N   0  0  0  0  0  0  0  0  0  0  0  0
    8.6191  -14.7706   23.0338 C   0  0  0  0  0  0  0  0  0  0  0  0
    9.2384  -13.6834   23.2396 O   0  0  0  0  0  0  0  0  0  0  0  0
    8.7298  -15.7666   24.0098 N   0  0  0  0  0  0  0  0  0  0  0  0
    9.3964  -15.5613   25.3056 C   0  0  1  0  0  0  0  0  0  0  0  0
    8.3642  -15.4206   26.3913 C   0  0  0  0  0  0  0  0  0  0  0  0
    7.6147  -14.1524   26.3543 C   0  0  0  0  0  0  0  0  0  0  0  0
    8.2007  -12.9269   26.6263 C   0  0  0  0  0  0  0  0  0  0  0  0
    7.4683  -11.7764   26.5711 C   0  0  0  0  0  0  0  0  0  0  0  0
    6.1207  -11.8061   26.2414 C   0  0  0  0  0  0  0  0  0  0  0  0
    5.5222  -13.0211   25.9673 C   0  0  0  0  0  0  0  0  0  0  0  0
    6.2792  -14.1719   26.0283 C   0  0  0  0  0  0  0  0  0  0  0  0
   10.3707  -16.6216   25.5739 C   0  0  0  0  0  0  0  0  0  0  0  0
   10.4878  -17.6538   24.8297 O   0  0  0  0  0  0  0  0  0  0  0  0
   11.2293  -16.5735   26.6526 O   0  0  0  0  0  0  0  0  0  0  0  0
  2  5  1  0
  2  1  1  6
  3  2  1  0
  4  3  1  0
  5  6  2  0
  8  7  1  6
  8  9  1  0
  8 10  1  0
 10 12  1  0
 10 11  1  1
 11  5  1  0
 12 13  2  0
 12 14  1  0
 14 15  1  0
 15 16  1  1
 15 23  1  0
 17 22  2  0
 17 16  1  0
 18 17  1  0
 19 20  1  0
 19 18  2  0
 20 21  2  0
 21 22  1  0
 23 25  1  0
 24 23  2  0
M  END
$$$$
