CVF.pdb
     RDKit          3D

 25 25  0  0  1  0  0  0  0  0999 V2000
   11.8085  -16.8897   18.4179 N   0  0  0  0  0  0  0  0  0  0  0  0
   10.9136  -17.4981   19.3542 C   0  0  1  0  0  0  0  0  0  0  0  0
   11.4755  -18.7051   20.0627 C   0  0  0  0  0  0  0  0  0  0  0  0
   10.1272  -19.4415   21.0503 S   0  0  0  0  0  0  0  0  0  0  0  0
   10.3802  -16.5047   20.3069 C   0  0  0  0  0  0  0  0  0  0  0  0
   11.1920  -15.7729   20.9407 O   0  0  0  0  0  0  0  0  0  0  0  0
    6.8730  -13.8166   22.4142 C   0  0  0  0  0  0  0  0  0  0  0  0
    7.2163  -14.7499   21.2423 C   0  0  1  0  0  0  0  0  0  0  0  0
    7.1899  -13.9227   20.0032 C   0  0  0  0  0  0  0  0  0  0  0  0
    8.5257  -15.3791   21.5643 C   0  0  2  0  0  0  0  0  0  0  0  0
    9.0114  -16.3079   20.5664 N   0  0  0  0  0  0  0  0  0  0  0  0
    8.6078  -15.9431   22.9327 C   0  0  0  0  0  0  0  0  0  0  0  0
    8.3823  -17.1822   23.0794 O   0  0  0  0  0  0  0  0  0  0  0  0
    8.9171  -15.2069   24.0813 N   0  0  0  0  0  0  0  0  0  0  0  0
    8.9245  -15.7826   25.4356 C   0  0  1  0  0  0  0  0  0  0  0  0
    9.1839  -14.6991   26.4469 C   0  0  0  0  0  0  0  0  0  0  0  0
    8.2567  -13.5570   26.3628 C   0  0  0  0  0  0  0  0  0  0  0  0
    8.5225  -12.4297   25.6026 C   0  0  0  0  0  0  0  0  0  0  0  0
    7.6290  -11.3992   25.5478 C   0  0  0  0  0  0  0  0  0  0  0  0
    6.4342  -11.4555   26.2512 C   0  0  0  0  0  0  0  0  0  0  0  0
    6.1548  -12.5736   27.0138 C   0  0  0  0  0  0  0  0  0  0  0  0
    7.0702  -13.6039   27.0559 C   0  0  0  0  0  0  0  0  0  0  0  0
    7.6936  -16.5314   25.6996 C   0  0  0  0  0  0  0  0  0  0  0  0
    7.5731  -17.3320   26.6883 O   0  0  0  0  0  0  0  0  0  0  0  0
    6.5795  -16.4195   24.8938 O   0  0  0  0  0  0  0  0  0  0  0  0
  2  5  1  0
  2  1  1  1
  3  2  1  0
  4  3  1  0
  5  6  2  0
  8  7  1  1
  8  9  1  0
  8 10  1  0
 10 12  1  0
 10 11  1  6
 11  5  1  0
 12 13  2  0
 12 14  1  0
 14 15  1  0
 15 16  1  1
 15 23  1  0
 17 22  2  0
 17 16  1  0
 18 17  1  0
 19 20  1  0
 19 18  2  0
 20 21  2  0
 21 22  1  0
 23 25  1  0
 24 23  2  0
M  END
$$$$
