CVF.pdb
     RDKit          3D

 25 25  0  0  1  0  0  0  0  0999 V2000
    7.1999  -15.2444   18.9457 N   0  0  0  0  0  0  0  0  0  0  0  0
    8.1313  -14.6821   19.8751 C   0  0  1  0  0  0  0  0  0  0  0  0
    7.7676  -13.3043   20.3688 C   0  0  0  0  0  0  0  0  0  0  0  0
    7.7877  -12.1802   18.9295 S   0  0  0  0  0  0  0  0  0  0  0  0
    8.3979  -15.6097   20.9921 C   0  0  0  0  0  0  0  0  0  0  0  0
    7.4476  -16.3114   21.4401 O   0  0  0  0  0  0  0  0  0  0  0  0
   11.2072  -18.7336   23.3440 C   0  0  0  0  0  0  0  0  0  0  0  0
   11.0949  -17.6825   22.2283 C   0  0  1  0  0  0  0  0  0  0  0  0
   10.9943  -18.4231   20.9393 C   0  0  0  0  0  0  0  0  0  0  0  0
    9.9284  -16.8223   22.5652 C   0  0  2  0  0  0  0  0  0  0  0  0
    9.6534  -15.7744   21.6057 N   0  0  0  0  0  0  0  0  0  0  0  0
    9.9325  -16.3120   23.9569 C   0  0  0  0  0  0  0  0  0  0  0  0
   10.8002  -15.4415   24.2683 O   0  0  0  0  0  0  0  0  0  0  0  0
    9.0459  -16.7210   24.9588 N   0  0  0  0  0  0  0  0  0  0  0  0
    9.1609  -16.3005   26.3643 C   0  0  1  0  0  0  0  0  0  0  0  0
    7.8154  -15.8617   26.8750 C   0  0  0  0  0  0  0  0  0  0  0  0
    7.5039  -14.4439   26.6218 C   0  0  0  0  0  0  0  0  0  0  0  0
    6.2952  -14.0252   26.0897 C   0  0  0  0  0  0  0  0  0  0  0  0
    6.0476  -12.6993   25.8806 C   0  0  0  0  0  0  0  0  0  0  0  0
    6.9990  -11.7396   26.1956 C   0  0  0  0  0  0  0  0  0  0  0  0
    8.2094  -12.1418   26.7273 C   0  0  0  0  0  0  0  0  0  0  0  0
    8.4402  -13.4859   26.9311 C   0  0  0  0  0  0  0  0  0  0  0  0
    9.7713  -17.3505   27.1831 C   0  0  0  0  0  0  0  0  0  0  0  0
   10.2267  -17.1313   28.3567 O   0  0  0  0  0  0  0  0  0  0  0  0
    9.8937  -18.6504   26.7376 O   0  0  0  0  0  0  0  0  0  0  0  0
  2  5  1  0
  2  1  1  1
  3  2  1  0
  4  3  1  0
  5  6  2  0
  8  7  1  1
  8  9  1  0
  8 10  1  0
 10 12  1  0
 10 11  1  6
 11  5  1  0
 12 13  2  0
 12 14  1  0
 14 15  1  0
 15 16  1  1
 15 23  1  0
 17 22  2  0
 17 16  1  0
 18 17  1  0
 19 20  1  0
 19 18  2  0
 20 21  2  0
 21 22  1  0
 23 25  1  0
 24 23  2  0
M  END
$$$$
