CVF.pdb
     RDKit          3D

 25 25  0  0  1  0  0  0  0  0999 V2000
    5.7207  -13.3763   27.0082 N   0  0  0  0  0  0  0  0  0  0  0  0
    6.1832  -12.9411   25.7259 C   0  0  1  0  0  0  0  0  0  0  0  0
    6.9180  -11.6242   25.7400 C   0  0  0  0  0  0  0  0  0  0  0  0
    8.4619  -11.8648   26.6855 S   0  0  0  0  0  0  0  0  0  0  0  0
    6.9665  -13.9965   25.0538 C   0  0  0  0  0  0  0  0  0  0  0  0
    7.3892  -14.9700   25.7392 O   0  0  0  0  0  0  0  0  0  0  0  0
    8.2355  -16.4946   21.0629 C   0  0  0  0  0  0  0  0  0  0  0  0
    7.9106  -15.0725   21.5468 C   0  0  1  0  0  0  0  0  0  0  0  0
    6.5956  -14.6992   20.9537 C   0  0  0  0  0  0  0  0  0  0  0  0
    7.9563  -15.1044   23.0338 C   0  0  2  0  0  0  0  0  0  0  0  0
    7.2829  -13.9999   23.6828 N   0  0  0  0  0  0  0  0  0  0  0  0
    9.3089  -15.3351   23.5945 C   0  0  0  0  0  0  0  0  0  0  0  0
   10.1614  -14.4020   23.4933 O   0  0  0  0  0  0  0  0  0  0  0  0
    9.7182  -16.5118   24.2308 N   0  0  0  0  0  0  0  0  0  0  0  0
   11.0523  -16.6898   24.8258 C   0  0  1  0  0  0  0  0  0  0  0  0
   10.9153  -17.1550   26.2502 C   0  0  0  0  0  0  0  0  0  0  0  0
   10.3852  -16.1353   27.1724 C   0  0  0  0  0  0  0  0  0  0  0  0
   11.1758  -15.1416   27.7264 C   0  0  0  0  0  0  0  0  0  0  0  0
   10.6386  -14.2124   28.5696 C   0  0  0  0  0  0  0  0  0  0  0  0
    9.2892  -14.2401   28.8920 C   0  0  0  0  0  0  0  0  0  0  0  0
    8.4878  -15.2252   28.3472 C   0  0  0  0  0  0  0  0  0  0  0  0
    9.0494  -16.1546   27.4974 C   0  0  0  0  0  0  0  0  0  0  0  0
   11.8823  -17.5783   24.0091 C   0  0  0  0  0  0  0  0  0  0  0  0
   11.3939  -18.3426   23.1090 O   0  0  0  0  0  0  0  0  0  0  0  0
   13.2519  -17.6470   24.1596 O   0  0  0  0  0  0  0  0  0  0  0  0
  2  5  1  0
  2  1  1  1
  3  2  1  0
  4  3  1  0
  5  6  2  0
  8  7  1  6
  8  9  1  0
  8 10  1  0
 10 12  1  0
 10 11  1  1
 11  5  1  0
 12 13  2  0
 12 14  1  0
 14 15  1  0
 15 16  1  1
 15 23  1  0
 17 22  2  0
 17 16  1  0
 18 17  1  0
 19 20  1  0
 19 18  2  0
 20 21  2  0
 21 22  1  0
 23 25  1  0
 24 23  2  0
M  END
$$$$
