SYW.pdb
     RDKit          3D

 33 35  0  0  1  0  0  0  0  0999 V2000
    9.0652  -12.9903   20.3107 O   0  0  0  0  0  0  0  0  0  0  0  0
    7.6949  -13.1412   20.1760 C   0  0  0  0  0  0  0  0  0  0  0  0
    7.4104  -14.5385   19.6757 C   0  0  2  0  0  0  0  0  0  0  0  0
    5.9548  -14.5745   19.4538 N   0  0  0  0  0  0  0  0  0  0  0  0
    7.7143  -15.4981   20.7494 C   0  0  0  0  0  0  0  0  0  0  0  0
    6.8442  -15.7062   21.6308 O   0  0  0  0  0  0  0  0  0  0  0  0
   10.3166  -22.6183   25.1668 O   0  0  0  0  0  0  0  0  0  0  0  0
   10.1787  -21.5836   24.2234 C   0  0  0  0  0  0  0  0  0  0  0  0
   11.1925  -20.6876   23.9792 C   0  0  0  0  0  0  0  0  0  0  0  0
   11.0400  -19.6812   23.0527 C   0  0  0  0  0  0  0  0  0  0  0  0
    9.8659  -19.5314   22.3332 C   0  0  0  0  0  0  0  0  0  0  0  0
    9.8036  -18.4280   21.3713 C   0  0  0  0  0  0  0  0  0  0  0  0
    9.0919  -17.1940   21.8789 C   0  0  2  0  0  0  0  0  0  0  0  0
    8.9269  -16.2189   20.8701 N   0  0  0  0  0  0  0  0  0  0  0  0
    9.6730  -16.6287   23.0901 C   0  0  0  0  0  0  0  0  0  0  0  0
   10.6316  -15.8008   23.1017 O   0  0  0  0  0  0  0  0  0  0  0  0
    8.8413  -20.4172   22.5633 C   0  0  0  0  0  0  0  0  0  0  0  0
    9.0203  -21.4096   23.4913 C   0  0  0  0  0  0  0  0  0  0  0  0
    9.1748  -16.9903   24.3696 N   0  0  0  0  0  0  0  0  0  0  0  0
    9.7767  -16.4838   25.6063 C   0  0  1  0  0  0  0  0  0  0  0  0
    8.6193  -16.2557   26.5353 C   0  0  0  0  0  0  0  0  0  0  0  0
    7.6102  -15.2830   26.1008 C   0  0  0  0  0  0  0  0  0  0  0  0
    6.4402  -15.5574   25.3865 C   0  0  0  0  0  0  0  0  0  0  0  0
    5.7606  -14.4413   25.1275 N   0  0  0  0  0  0  0  0  0  0  0  0
    6.4406  -13.4093   25.6502 C   0  0  0  0  0  0  0  0  0  0  0  0
    6.1766  -12.0596   25.6787 C   0  0  0  0  0  0  0  0  0  0  0  0
    7.0248  -11.1719   26.3000 C   0  0  0  0  0  0  0  0  0  0  0  0
    8.1660  -11.6542   26.9071 C   0  0  0  0  0  0  0  0  0  0  0  0
    8.4094  -12.9989   26.8663 C   0  0  0  0  0  0  0  0  0  0  0  0
    7.5784  -13.9085   26.2514 C   0  0  0  0  0  0  0  0  0  0  0  0
   10.8165  -17.3389   26.1246 C   0  0  0  0  0  0  0  0  0  0  0  0
   11.1103  -18.5538   25.5277 O   0  0  0  0  0  0  0  0  0  0  0  0
   11.5058  -17.0369   27.1400 O   0  0  0  0  0  0  0  0  0  0  0  0
  2  1  1  0
  3  4  1  1
  3  2  1  0
  5  3  1  0
  6  5  2  0
  8  7  1  0
  8 18  2  0
  9  8  1  0
 10  9  2  0
 10 11  1  0
 11 17  2  0
 12 11  1  0
 13 12  1  6
 13 14  1  0
 14  5  1  0
 15 19  1  0
 15 13  1  0
 16 15  2  0
 17 18  1  0
 20 21  1  1
 20 31  1  0
 20 19  1  0
 22 23  2  0
 22 21  1  0
 24 23  1  0
 25 30  2  0
 25 24  1  0
 26 25  1  0
 27 28  1  0
 27 26  2  0
 28 29  2  0
 29 30  1  0
 30 22  1  0
 31 32  1  0
 33 31  2  0
M  END
$$$$
