SYW.pdb
     RDKit          3D

 33 35  0  0  1  0  0  0  0  0999 V2000
    8.4790  -16.4749   17.7591 O   0  0  0  0  0  0  0  0  0  0  0  0
    7.9652  -16.4989   19.0452 C   0  0  0  0  0  0  0  0  0  0  0  0
    7.8734  -17.9367   19.5013 C   0  0  2  0  0  0  0  0  0  0  0  0
    6.6988  -18.4840   18.8014 N   0  0  0  0  0  0  0  0  0  0  0  0
    7.5754  -17.9593   20.9424 C   0  0  0  0  0  0  0  0  0  0  0  0
    6.5050  -18.4938   21.3244 O   0  0  0  0  0  0  0  0  0  0  0  0
    8.1411  -21.5273   28.6001 O   0  0  0  0  0  0  0  0  0  0  0  0
    8.2312  -21.0028   27.2977 C   0  0  0  0  0  0  0  0  0  0  0  0
    7.1116  -20.6655   26.5746 C   0  0  0  0  0  0  0  0  0  0  0  0
    7.2186  -20.1538   25.3013 C   0  0  0  0  0  0  0  0  0  0  0  0
    8.4516  -19.9591   24.7007 C   0  0  0  0  0  0  0  0  0  0  0  0
    8.4578  -19.4097   23.3425 C   0  0  0  0  0  0  0  0  0  0  0  0
    8.3506  -17.9027   23.2759 C   0  0  2  0  0  0  0  0  0  0  0  0
    8.4120  -17.4204   21.9495 N   0  0  0  0  0  0  0  0  0  0  0  0
    9.2806  -17.2014   24.1519 C   0  0  0  0  0  0  0  0  0  0  0  0
   10.5267  -17.1112   23.9430 O   0  0  0  0  0  0  0  0  0  0  0  0
    9.5820  -20.2902   25.4076 C   0  0  0  0  0  0  0  0  0  0  0  0
    9.4462  -20.7977   26.6733 C   0  0  0  0  0  0  0  0  0  0  0  0
    8.8201  -16.5571   25.3304 N   0  0  0  0  0  0  0  0  0  0  0  0
    9.7363  -15.8733   26.2475 C   0  0  1  0  0  0  0  0  0  0  0  0
    8.8490  -15.2321   27.2751 C   0  0  0  0  0  0  0  0  0  0  0  0
    7.6565  -14.5398   26.7730 C   0  0  0  0  0  0  0  0  0  0  0  0
    6.4323  -15.1247   26.4360 C   0  0  0  0  0  0  0  0  0  0  0  0
    5.5711  -14.2143   25.9842 N   0  0  0  0  0  0  0  0  0  0  0  0
    6.1802  -13.0188   26.0057 C   0  0  0  0  0  0  0  0  0  0  0  0
    5.7407  -11.7614   25.6623 C   0  0  0  0  0  0  0  0  0  0  0  0
    6.5504  -10.6556   25.7862 C   0  0  0  0  0  0  0  0  0  0  0  0
    7.8331  -10.8195   26.2673 C   0  0  0  0  0  0  0  0  0  0  0  0
    8.2497  -12.0779   26.6021 C   0  0  0  0  0  0  0  0  0  0  0  0
    7.4609  -13.2007   26.4874 C   0  0  0  0  0  0  0  0  0  0  0  0
   10.7600  -16.7393   26.7796 C   0  0  0  0  0  0  0  0  0  0  0  0
   10.7334  -18.1054   26.5524 O   0  0  0  0  0  0  0  0  0  0  0  0
   11.7228  -16.3101   27.4769 O   0  0  0  0  0  0  0  0  0  0  0  0
  2  1  1  0
  3  4  1  6
  3  2  1  0
  5  3  1  0
  6  5  2  0
  8  7  1  0
  8 18  2  0
  9  8  1  0
 10  9  2  0
 10 11  1  0
 11 17  2  0
 12 11  1  0
 13 12  1  6
 13 14  1  0
 14  5  1  0
 15 19  1  0
 15 13  1  0
 16 15  2  0
 17 18  1  0
 20 21  1  1
 20 31  1  0
 20 19  1  0
 22 23  2  0
 22 21  1  0
 24 23  1  0
 25 30  2  0
 25 24  1  0
 26 25  1  0
 27 28  1  0
 27 26  2  0
 28 29  2  0
 29 30  1  0
 30 22  1  0
 31 32  1  0
 33 31  2  0
M  END
$$$$
