SYW.pdb
     RDKit          3D

 33 35  0  0  1  0  0  0  0  0999 V2000
    8.6174  -19.4586   22.5724 O   0  0  0  0  0  0  0  0  0  0  0  0
    8.9256  -19.6626   21.2374 C   0  0  0  0  0  0  0  0  0  0  0  0
    8.4568  -18.4640   20.4455 C   0  0  2  0  0  0  0  0  0  0  0  0
    8.9243  -18.7094   19.0706 N   0  0  0  0  0  0  0  0  0  0  0  0
    9.1555  -17.2663   20.9392 C   0  0  0  0  0  0  0  0  0  0  0  0
   10.3206  -17.0405   20.5283 O   0  0  0  0  0  0  0  0  0  0  0  0
    7.6695  -12.9420   16.5405 O   0  0  0  0  0  0  0  0  0  0  0  0
    7.9057  -13.1818   17.9066 C   0  0  0  0  0  0  0  0  0  0  0  0
    9.1790  -13.3136   18.4083 C   0  0  0  0  0  0  0  0  0  0  0  0
    9.3914  -13.5483   19.7478 C   0  0  0  0  0  0  0  0  0  0  0  0
    8.3370  -13.6604   20.6392 C   0  0  0  0  0  0  0  0  0  0  0  0
    8.6689  -13.9111   22.0440 C   0  0  0  0  0  0  0  0  0  0  0  0
    9.3709  -15.2266   22.2967 C   0  0  2  0  0  0  0  0  0  0  0  0
    8.6111  -16.3319   21.8530 N   0  0  0  0  0  0  0  0  0  0  0  0
    9.8319  -15.4005   23.6683 C   0  0  0  0  0  0  0  0  0  0  0  0
   10.6080  -14.5979   24.2667 O   0  0  0  0  0  0  0  0  0  0  0  0
    7.0573  -13.5315   20.1567 C   0  0  0  0  0  0  0  0  0  0  0  0
    6.8748  -13.2982   18.8186 C   0  0  0  0  0  0  0  0  0  0  0  0
    9.4182  -16.5216   24.4350 N   0  0  0  0  0  0  0  0  0  0  0  0
    9.8117  -16.6886   25.8370 C   0  0  1  0  0  0  0  0  0  0  0  0
    8.5195  -16.8397   26.5867 C   0  0  0  0  0  0  0  0  0  0  0  0
    7.5181  -15.7856   26.3883 C   0  0  0  0  0  0  0  0  0  0  0  0
    6.2783  -15.9210   25.7565 C   0  0  0  0  0  0  0  0  0  0  0  0
    5.6265  -14.7598   25.7198 N   0  0  0  0  0  0  0  0  0  0  0  0
    6.3939  -13.8330   26.3139 C   0  0  0  0  0  0  0  0  0  0  0  0
    6.1913  -12.4938   26.5539 C   0  0  0  0  0  0  0  0  0  0  0  0
    7.1287  -11.7287   27.2094 C   0  0  0  0  0  0  0  0  0  0  0  0
    8.2979  -12.3260   27.6334 C   0  0  0  0  0  0  0  0  0  0  0  0
    8.4791  -13.6579   27.3840 C   0  0  0  0  0  0  0  0  0  0  0  0
    7.5585  -14.4460   26.7302 C   0  0  0  0  0  0  0  0  0  0  0  0
   10.7624  -17.7549   26.0378 C   0  0  0  0  0  0  0  0  0  0  0  0
   11.3325  -17.9833   27.2793 O   0  0  0  0  0  0  0  0  0  0  0  0
   11.1285  -18.5274   25.1070 O   0  0  0  0  0  0  0  0  0  0  0  0
  2  1  1  0
  3  4  1  6
  3  2  1  0
  5  3  1  0
  6  5  2  0
  8  7  1  0
  8 18  2  0
  9  8  1  0
 10  9  2  0
 10 11  1  0
 11 17  2  0
 12 11  1  0
 13 12  1  1
 13 14  1  0
 14  5  1  0
 15 19  1  0
 15 13  1  0
 16 15  2  0
 17 18  1  0
 20 21  1  1
 20 31  1  0
 20 19  1  0
 22 23  2  0
 22 21  1  0
 24 23  1  0
 25 30  2  0
 25 24  1  0
 26 25  1  0
 27 28  1  0
 27 26  2  0
 28 29  2  0
 29 30  1  0
 30 22  1  0
 31 32  1  0
 33 31  2  0
M  END
$$$$
