SYW.pdb
     RDKit          3D

 33 35  0  0  1  0  0  0  0  0999 V2000
    7.8851  -13.3573   19.5260 O   0  0  0  0  0  0  0  0  0  0  0  0
    7.9230  -14.1961   20.6276 C   0  0  0  0  0  0  0  0  0  0  0  0
    8.2453  -15.5956   20.1574 C   0  0  2  0  0  0  0  0  0  0  0  0
    6.9550  -16.1585   19.7246 N   0  0  0  0  0  0  0  0  0  0  0  0
    8.7058  -16.3887   21.3085 C   0  0  0  0  0  0  0  0  0  0  0  0
    7.8480  -16.9773   22.0120 O   0  0  0  0  0  0  0  0  0  0  0  0
   13.0865  -22.0771   26.3531 O   0  0  0  0  0  0  0  0  0  0  0  0
   12.7213  -21.1285   25.3803 C   0  0  0  0  0  0  0  0  0  0  0  0
   13.4623  -19.9904   25.1658 C   0  0  0  0  0  0  0  0  0  0  0  0
   13.0899  -19.0728   24.2098 C   0  0  0  0  0  0  0  0  0  0  0  0
   11.9602  -19.2580   23.4298 C   0  0  0  0  0  0  0  0  0  0  0  0
   11.6498  -18.2227   22.4407 C   0  0  0  0  0  0  0  0  0  0  0  0
   10.4155  -17.4070   22.7541 C   0  0  2  0  0  0  0  0  0  0  0  0
   10.0596  -16.5461   21.6921 N   0  0  0  0  0  0  0  0  0  0  0  0
   10.4773  -16.7008   24.0276 C   0  0  0  0  0  0  0  0  0  0  0  0
   11.2226  -15.7018   24.2534 O   0  0  0  0  0  0  0  0  0  0  0  0
   11.2069  -20.3893   23.6295 C   0  0  0  0  0  0  0  0  0  0  0  0
   11.6008  -21.2861   24.5880 C   0  0  0  0  0  0  0  0  0  0  0  0
    9.6734  -17.1116   25.1235 N   0  0  0  0  0  0  0  0  0  0  0  0
    9.8002  -16.4992   26.4491 C   0  0  1  0  0  0  0  0  0  0  0  0
    8.3891  -16.3246   26.9317 C   0  0  0  0  0  0  0  0  0  0  0  0
    7.5437  -15.3995   26.1682 C   0  0  0  0  0  0  0  0  0  0  0  0
    6.6019  -15.7414   25.1933 C   0  0  0  0  0  0  0  0  0  0  0  0
    6.0294  -14.6563   24.6744 N   0  0  0  0  0  0  0  0  0  0  0  0
    6.5592  -13.5792   25.2743 C   0  0  0  0  0  0  0  0  0  0  0  0
    6.3139  -12.2341   25.1234 C   0  0  0  0  0  0  0  0  0  0  0  0
    6.9778  -11.2913   25.8743 C   0  0  0  0  0  0  0  0  0  0  0  0
    7.9109  -11.7124   26.7993 C   0  0  0  0  0  0  0  0  0  0  0  0
    8.1396  -13.0537   26.9326 C   0  0  0  0  0  0  0  0  0  0  0  0
    7.4903  -14.0176   26.1942 C   0  0  0  0  0  0  0  0  0  0  0  0
   10.6621  -17.2397   27.3378 C   0  0  0  0  0  0  0  0  0  0  0  0
   11.1722  -18.4761   26.9774 O   0  0  0  0  0  0  0  0  0  0  0  0
   10.9932  -16.8130   28.4804 O   0  0  0  0  0  0  0  0  0  0  0  0
  2  1  1  0
  3  4  1  1
  3  2  1  0
  5  3  1  0
  6  5  2  0
  8  7  1  0
  8 18  2  0
  9  8  1  0
 10  9  2  0
 10 11  1  0
 11 17  2  0
 12 11  1  0
 13 12  1  6
 13 14  1  0
 14  5  1  0
 15 19  1  0
 15 13  1  0
 16 15  2  0
 17 18  1  0
 20 21  1  1
 20 31  1  0
 20 19  1  0
 22 23  2  0
 22 21  1  0
 24 23  1  0
 25 30  2  0
 25 24  1  0
 26 25  1  0
 27 28  1  0
 27 26  2  0
 28 29  2  0
 29 30  1  0
 30 22  1  0
 31 32  1  0
 33 31  2  0
M  END
$$$$
