SYW.pdb
     RDKit          3D

 33 35  0  0  1  0  0  0  0  0999 V2000
    7.0019  -16.4111   18.3349 O   0  0  0  0  0  0  0  0  0  0  0  0
    7.2638  -17.5264   17.5562 C   0  0  0  0  0  0  0  0  0  0  0  0
    8.7430  -17.5637   17.2493 C   0  0  2  0  0  0  0  0  0  0  0  0
    8.9277  -18.7595   16.4096 N   0  0  0  0  0  0  0  0  0  0  0  0
    9.4821  -17.7890   18.5020 C   0  0  0  0  0  0  0  0  0  0  0  0
    9.2472  -18.8349   19.1563 O   0  0  0  0  0  0  0  0  0  0  0  0
   15.0593  -19.1774   24.8999 O   0  0  0  0  0  0  0  0  0  0  0  0
   14.4459  -18.6765   23.7369 C   0  0  0  0  0  0  0  0  0  0  0  0
   13.6700  -19.4728   22.9281 C   0  0  0  0  0  0  0  0  0  0  0  0
   13.0776  -18.9659   21.7938 C   0  0  0  0  0  0  0  0  0  0  0  0
   13.2384  -17.6408   21.4236 C   0  0  0  0  0  0  0  0  0  0  0  0
   12.5671  -17.1995   20.1984 C   0  0  0  0  0  0  0  0  0  0  0  0
   11.0576  -17.1710   20.2868 C   0  0  2  0  0  0  0  0  0  0  0  0
   10.4537  -16.9089   19.0368 N   0  0  0  0  0  0  0  0  0  0  0  0
   10.5399  -16.2985   21.3332 C   0  0  0  0  0  0  0  0  0  0  0  0
   10.8783  -15.0872   21.4837 O   0  0  0  0  0  0  0  0  0  0  0  0
   14.0102  -16.8294   22.2192 C   0  0  0  0  0  0  0  0  0  0  0  0
   14.5882  -17.3603   23.3428 C   0  0  0  0  0  0  0  0  0  0  0  0
    9.5918  -16.7797   22.2743 N   0  0  0  0  0  0  0  0  0  0  0  0
    9.2667  -16.0363   23.4949 C   0  0  1  0  0  0  0  0  0  0  0  0
    7.8394  -15.6052   23.3174 C   0  0  0  0  0  0  0  0  0  0  0  0
    7.1872  -14.9971   24.4828 C   0  0  0  0  0  0  0  0  0  0  0  0
    6.2939  -15.6208   25.3588 C   0  0  0  0  0  0  0  0  0  0  0  0
    5.8648  -14.7742   26.2935 N   0  0  0  0  0  0  0  0  0  0  0  0
    6.4463  -13.5846   26.0758 C   0  0  0  0  0  0  0  0  0  0  0  0
    6.3610  -12.3875   26.7479 C   0  0  0  0  0  0  0  0  0  0  0  0
    7.0761  -11.2825   26.3464 C   0  0  0  0  0  0  0  0  0  0  0  0
    7.8966  -11.3849   25.2420 C   0  0  0  0  0  0  0  0  0  0  0  0
    7.9660  -12.5837   24.5884 C   0  0  0  0  0  0  0  0  0  0  0  0
    7.2613  -13.7041   24.9682 C   0  0  0  0  0  0  0  0  0  0  0  0
    9.5343  -16.7797   24.7019 C   0  0  0  0  0  0  0  0  0  0  0  0
   10.0229  -16.1535   25.8367 O   0  0  0  0  0  0  0  0  0  0  0  0
    9.3463  -18.0263   24.7918 O   0  0  0  0  0  0  0  0  0  0  0  0
  2  1  1  0
  3  4  1  6
  3  2  1  0
  5  3  1  0
  6  5  2  0
  8  7  1  0
  8 18  2  0
  9  8  1  0
 10  9  2  0
 10 11  1  0
 11 17  2  0
 12 11  1  0
 13 12  1  6
 13 14  1  0
 14  5  1  0
 15 19  1  0
 15 13  1  0
 16 15  2  0
 17 18  1  0
 20 21  1  6
 20 31  1  0
 20 19  1  0
 22 23  2  0
 22 21  1  0
 24 23  1  0
 25 30  2  0
 25 24  1  0
 26 25  1  0
 27 28  1  0
 27 26  2  0
 28 29  2  0
 29 30  1  0
 30 22  1  0
 31 32  1  0
 33 31  2  0
M  END
$$$$
