SYW.pdb
     RDKit          3D

 33 35  0  0  1  0  0  0  0  0999 V2000
   10.2280  -19.6093   21.9775 O   0  0  0  0  0  0  0  0  0  0  0  0
    9.0857  -19.6544   21.1954 C   0  0  0  0  0  0  0  0  0  0  0  0
    9.1037  -18.4780   20.2471 C   0  0  2  0  0  0  0  0  0  0  0  0
   10.1151  -18.8216   19.2332 N   0  0  0  0  0  0  0  0  0  0  0  0
    9.5925  -17.2929   20.9703 C   0  0  0  0  0  0  0  0  0  0  0  0
   10.8020  -16.9760   20.8525 O   0  0  0  0  0  0  0  0  0  0  0  0
    7.0625  -13.2054   16.6456 O   0  0  0  0  0  0  0  0  0  0  0  0
    7.3993  -13.4177   17.9951 C   0  0  0  0  0  0  0  0  0  0  0  0
    6.6821  -14.2774   18.7930 C   0  0  0  0  0  0  0  0  0  0  0  0
    7.0258  -14.4726   20.1114 C   0  0  0  0  0  0  0  0  0  0  0  0
    8.1020  -13.8148   20.6841 C   0  0  0  0  0  0  0  0  0  0  0  0
    8.3848  -14.0911   22.0948 C   0  0  0  0  0  0  0  0  0  0  0  0
    9.3114  -15.2629   22.3302 C   0  0  2  0  0  0  0  0  0  0  0  0
    8.7964  -16.4667   21.7998 N   0  0  0  0  0  0  0  0  0  0  0  0
    9.7337  -15.4175   23.7165 C   0  0  0  0  0  0  0  0  0  0  0  0
   10.4440  -14.5767   24.3435 O   0  0  0  0  0  0  0  0  0  0  0  0
    8.8310  -12.9517   19.9025 C   0  0  0  0  0  0  0  0  0  0  0  0
    8.4666  -12.7762   18.5931 C   0  0  0  0  0  0  0  0  0  0  0  0
    9.3554  -16.5629   24.4656 N   0  0  0  0  0  0  0  0  0  0  0  0
    9.7517  -16.7378   25.8658 C   0  0  1  0  0  0  0  0  0  0  0  0
    8.4602  -16.8685   26.6205 C   0  0  0  0  0  0  0  0  0  0  0  0
    7.4804  -15.7916   26.4368 C   0  0  0  0  0  0  0  0  0  0  0  0
    6.1875  -15.9192   25.9203 C   0  0  0  0  0  0  0  0  0  0  0  0
    5.5732  -14.7387   25.8614 N   0  0  0  0  0  0  0  0  0  0  0  0
    6.4183  -13.8063   26.3274 C   0  0  0  0  0  0  0  0  0  0  0  0
    6.2807  -12.4478   26.4946 C   0  0  0  0  0  0  0  0  0  0  0  0
    7.2949  -11.6793   27.0181 C   0  0  0  0  0  0  0  0  0  0  0  0
    8.4759  -12.2927   27.3821 C   0  0  0  0  0  0  0  0  0  0  0  0
    8.5917  -13.6436   27.2068 C   0  0  0  0  0  0  0  0  0  0  0  0
    7.5935  -14.4357   26.6851 C   0  0  0  0  0  0  0  0  0  0  0  0
   10.6856  -17.8197   26.0618 C   0  0  0  0  0  0  0  0  0  0  0  0
   11.3187  -18.0093   27.2791 O   0  0  0  0  0  0  0  0  0  0  0  0
   10.9796  -18.6417   25.1479 O   0  0  0  0  0  0  0  0  0  0  0  0
  2  1  1  0
  3  4  1  6
  3  2  1  0
  5  3  1  0
  6  5  2  0
  8  7  1  0
  8 18  2  0
  9  8  1  0
 10  9  2  0
 10 11  1  0
 11 17  2  0
 12 11  1  0
 13 12  1  1
 13 14  1  0
 14  5  1  0
 15 19  1  0
 15 13  1  0
 16 15  2  0
 17 18  1  0
 20 21  1  1
 20 31  1  0
 20 19  1  0
 22 23  2  0
 22 21  1  0
 24 23  1  0
 25 30  2  0
 25 24  1  0
 26 25  1  0
 27 28  1  0
 27 26  2  0
 28 29  2  0
 29 30  1  0
 30 22  1  0
 31 32  1  0
 33 31  2  0
M  END
$$$$
