SYW.pdb
     RDKit          3D

 33 35  0  0  1  0  0  0  0  0999 V2000
    6.8466  -20.0023   24.9332 O   0  0  0  0  0  0  0  0  0  0  0  0
    5.5720  -19.9463   24.3938 C   0  0  0  0  0  0  0  0  0  0  0  0
    5.6856  -19.9449   22.8869 C   0  0  2  0  0  0  0  0  0  0  0  0
    6.4398  -21.1672   22.5607 N   0  0  0  0  0  0  0  0  0  0  0  0
    6.5100  -18.7976   22.4742 C   0  0  0  0  0  0  0  0  0  0  0  0
    7.6690  -19.0170   22.0433 O   0  0  0  0  0  0  0  0  0  0  0  0
    9.2891  -12.2210   17.7412 O   0  0  0  0  0  0  0  0  0  0  0  0
    8.5040  -12.9971   18.6136 C   0  0  0  0  0  0  0  0  0  0  0  0
    8.1777  -14.3014   18.3262 C   0  0  0  0  0  0  0  0  0  0  0  0
    7.4083  -15.0457   19.1913 C   0  0  0  0  0  0  0  0  0  0  0  0
    6.9346  -14.5139   20.3794 C   0  0  0  0  0  0  0  0  0  0  0  0
    6.1235  -15.3881   21.2305 C   0  0  0  0  0  0  0  0  0  0  0  0
    6.9152  -16.4173   22.0060 C   0  0  2  0  0  0  0  0  0  0  0  0
    6.0948  -17.4449   22.5224 N   0  0  0  0  0  0  0  0  0  0  0  0
    7.7843  -15.8507   23.0296 C   0  0  0  0  0  0  0  0  0  0  0  0
    7.5789  -14.7411   23.6050 O   0  0  0  0  0  0  0  0  0  0  0  0
    7.2502  -13.2120   20.6840 C   0  0  0  0  0  0  0  0  0  0  0  0
    8.0179  -12.4940   19.8046 C   0  0  0  0  0  0  0  0  0  0  0  0
    8.9514  -16.5404   23.4519 N   0  0  0  0  0  0  0  0  0  0  0  0
    9.9916  -15.8855   24.2501 C   0  0  1  0  0  0  0  0  0  0  0  0
    9.4810  -15.9275   25.6615 C   0  0  0  0  0  0  0  0  0  0  0  0
    8.2173  -15.2294   25.9237 C   0  0  0  0  0  0  0  0  0  0  0  0
    6.9449  -15.8046   25.9917 C   0  0  0  0  0  0  0  0  0  0  0  0
    6.0103  -14.8825   26.2167 N   0  0  0  0  0  0  0  0  0  0  0  0
    6.6165  -13.6886   26.3049 C   0  0  0  0  0  0  0  0  0  0  0  0
    6.1227  -12.4263   26.5397 C   0  0  0  0  0  0  0  0  0  0  0  0
    6.9504  -11.3291   26.6066 C   0  0  0  0  0  0  0  0  0  0  0  0
    8.3075  -11.5064   26.4329 C   0  0  0  0  0  0  0  0  0  0  0  0
    8.7770  -12.7692   26.1999 C   0  0  0  0  0  0  0  0  0  0  0  0
    7.9715  -13.8837   26.1276 C   0  0  0  0  0  0  0  0  0  0  0  0
   11.3016  -16.4581   24.0573 C   0  0  0  0  0  0  0  0  0  0  0  0
   12.4167  -15.9253   24.6827 O   0  0  0  0  0  0  0  0  0  0  0  0
   11.5060  -17.4603   23.3148 O   0  0  0  0  0  0  0  0  0  0  0  0
  2  1  1  0
  3  4  1  1
  3  2  1  0
  5  3  1  0
  6  5  2  0
  8  7  1  0
  8 18  2  0
  9  8  1  0
 10  9  2  0
 10 11  1  0
 11 17  2  0
 12 11  1  0
 13 12  1  1
 13 14  1  0
 14  5  1  0
 15 19  1  0
 15 13  1  0
 16 15  2  0
 17 18  1  0
 20 21  1  1
 20 31  1  0
 20 19  1  0
 22 23  2  0
 22 21  1  0
 24 23  1  0
 25 30  2  0
 25 24  1  0
 26 25  1  0
 27 28  1  0
 27 26  2  0
 28 29  2  0
 29 30  1  0
 30 22  1  0
 31 32  1  0
 33 31  2  0
M  END
$$$$
