SYW.pdb
     RDKit          3D

 33 35  0  0  1  0  0  0  0  0999 V2000
   10.0471  -20.5270   20.2085 O   0  0  0  0  0  0  0  0  0  0  0  0
   10.4730  -19.2497   19.8834 C   0  0  0  0  0  0  0  0  0  0  0  0
    9.3578  -18.5416   19.1495 C   0  0  2  0  0  0  0  0  0  0  0  0
    9.9409  -18.1533   17.8540 N   0  0  0  0  0  0  0  0  0  0  0  0
    9.0271  -17.3020   19.8708 C   0  0  0  0  0  0  0  0  0  0  0  0
    9.7140  -16.2755   19.6439 O   0  0  0  0  0  0  0  0  0  0  0  0
    5.6617  -20.3149   25.7139 O   0  0  0  0  0  0  0  0  0  0  0  0
    5.8524  -19.2189   24.8525 C   0  0  0  0  0  0  0  0  0  0  0  0
    5.7662  -19.3490   23.4865 C   0  0  0  0  0  0  0  0  0  0  0  0
    5.9560  -18.2658   22.6588 C   0  0  0  0  0  0  0  0  0  0  0  0
    6.2398  -17.0083   23.1657 C   0  0  0  0  0  0  0  0  0  0  0  0
    6.4251  -15.9212   22.2010 C   0  0  0  0  0  0  0  0  0  0  0  0
    7.7535  -15.9446   21.4785 C   0  0  2  0  0  0  0  0  0  0  0  0
    7.9790  -17.1704   20.8136 N   0  0  0  0  0  0  0  0  0  0  0  0
    8.8883  -15.5607   22.3086 C   0  0  0  0  0  0  0  0  0  0  0  0
    9.4844  -14.4458   22.2298 O   0  0  0  0  0  0  0  0  0  0  0  0
    6.3299  -16.8584   24.5283 C   0  0  0  0  0  0  0  0  0  0  0  0
    6.1364  -17.9538   25.3289 C   0  0  0  0  0  0  0  0  0  0  0  0
    9.4039  -16.4508   23.2873 N   0  0  0  0  0  0  0  0  0  0  0  0
   10.5974  -16.1286   24.0748 C   0  0  1  0  0  0  0  0  0  0  0  0
   10.2903  -14.8085   24.7211 C   0  0  0  0  0  0  0  0  0  0  0  0
    9.1159  -14.7649   25.5998 C   0  0  0  0  0  0  0  0  0  0  0  0
    8.6913  -15.7688   26.4752 C   0  0  0  0  0  0  0  0  0  0  0  0
    7.5700  -15.4184   27.1032 N   0  0  0  0  0  0  0  0  0  0  0  0
    7.2190  -14.1955   26.6765 C   0  0  0  0  0  0  0  0  0  0  0  0
    6.1659  -13.3764   27.0116 C   0  0  0  0  0  0  0  0  0  0  0  0
    6.0135  -12.1305   26.4476 C   0  0  0  0  0  0  0  0  0  0  0  0
    6.9432  -11.6988   25.5241 C   0  0  0  0  0  0  0  0  0  0  0  0
    7.9815  -12.5290   25.2050 C   0  0  0  0  0  0  0  0  0  0  0  0
    8.1574  -13.7798   25.7535 C   0  0  0  0  0  0  0  0  0  0  0  0
   10.9789  -17.1803   24.9855 C   0  0  0  0  0  0  0  0  0  0  0  0
   12.2055  -17.1624   25.6287 O   0  0  0  0  0  0  0  0  0  0  0  0
   10.2306  -18.1659   25.2422 O   0  0  0  0  0  0  0  0  0  0  0  0
  2  1  1  0
  3  4  1  6
  3  2  1  0
  5  3  1  0
  6  5  2  0
  8  7  1  0
  8 18  2  0
  9  8  1  0
 10  9  2  0
 10 11  1  0
 11 17  2  0
 12 11  1  0
 13 12  1  1
 13 14  1  0
 14  5  1  0
 15 19  1  0
 15 13  1  0
 16 15  2  0
 17 18  1  0
 20 21  1  1
 20 31  1  0
 20 19  1  0
 22 23  2  0
 22 21  1  0
 24 23  1  0
 25 30  2  0
 25 24  1  0
 26 25  1  0
 27 28  1  0
 27 26  2  0
 28 29  2  0
 29 30  1  0
 30 22  1  0
 31 32  1  0
 33 31  2  0
M  END
$$$$
