SYW.pdb
     RDKit          3D

 33 35  0  0  1  0  0  0  0  0999 V2000
    9.3464  -18.0375   21.2033 O   0  0  0  0  0  0  0  0  0  0  0  0
    9.9927  -17.2503   20.2644 C   0  0  0  0  0  0  0  0  0  0  0  0
   11.3758  -16.9241   20.7784 C   0  0  2  0  0  0  0  0  0  0  0  0
   12.2203  -18.0478   20.3388 N   0  0  0  0  0  0  0  0  0  0  0  0
   11.3519  -16.9428   22.2499 C   0  0  0  0  0  0  0  0  0  0  0  0
   11.7032  -17.9935   22.8414 O   0  0  0  0  0  0  0  0  0  0  0  0
   10.9105  -15.0917   30.8242 O   0  0  0  0  0  0  0  0  0  0  0  0
   10.9325  -14.9712   29.4225 C   0  0  0  0  0  0  0  0  0  0  0  0
   11.7850  -15.7193   28.6455 C   0  0  0  0  0  0  0  0  0  0  0  0
   11.7931  -15.5881   27.2754 C   0  0  0  0  0  0  0  0  0  0  0  0
   10.9475  -14.7023   26.6280 C   0  0  0  0  0  0  0  0  0  0  0  0
   11.0341  -14.6371   25.1669 C   0  0  0  0  0  0  0  0  0  0  0  0
   10.9339  -15.9771   24.4730 C   0  0  2  0  0  0  0  0  0  0  0  0
   10.9605  -15.8540   23.0660 N   0  0  0  0  0  0  0  0  0  0  0  0
    9.8179  -16.7984   24.9249 C   0  0  0  0  0  0  0  0  0  0  0  0
    9.7341  -17.3153   26.0783 O   0  0  0  0  0  0  0  0  0  0  0  0
   10.0882  -13.9460   27.3876 C   0  0  0  0  0  0  0  0  0  0  0  0
   10.1013  -14.0969   28.7496 C   0  0  0  0  0  0  0  0  0  0  0  0
    8.7237  -17.0717   24.0623 N   0  0  0  0  0  0  0  0  0  0  0  0
    7.5021  -17.7229   24.5438 C   0  0  1  0  0  0  0  0  0  0  0  0
    6.3909  -16.7823   24.1763 C   0  0  0  0  0  0  0  0  0  0  0  0
    6.5044  -15.4060   24.6725 C   0  0  0  0  0  0  0  0  0  0  0  0
    6.3197  -14.9763   25.9899 C   0  0  0  0  0  0  0  0  0  0  0  0
    6.4679  -13.6564   26.0918 N   0  0  0  0  0  0  0  0  0  0  0  0
    6.7510  -13.1742   24.8720 C   0  0  0  0  0  0  0  0  0  0  0  0
    7.0078  -11.8973   24.4294 C   0  0  0  0  0  0  0  0  0  0  0  0
    7.2973  -11.6360   23.1098 C   0  0  0  0  0  0  0  0  0  0  0  0
    7.3291  -12.6850   22.2141 C   0  0  0  0  0  0  0  0  0  0  0  0
    7.0702  -13.9458   22.6751 C   0  0  0  0  0  0  0  0  0  0  0  0
    6.7774  -14.2350   23.9891 C   0  0  0  0  0  0  0  0  0  0  0  0
    7.3466  -19.0718   24.0564 C   0  0  0  0  0  0  0  0  0  0  0  0
    8.2685  -19.6313   23.1871 O   0  0  0  0  0  0  0  0  0  0  0  0
    6.3735  -19.8084   24.3847 O   0  0  0  0  0  0  0  0  0  0  0  0
  2  1  1  0
  3  4  1  6
  3  2  1  0
  5  3  1  0
  6  5  2  0
  8  7  1  0
  8 18  2  0
  9  8  1  0
 10  9  2  0
 10 11  1  0
 11 17  2  0
 12 11  1  0
 13 12  1  1
 13 14  1  0
 14  5  1  0
 15 19  1  0
 15 13  1  0
 16 15  2  0
 17 18  1  0
 20 21  1  6
 20 31  1  0
 20 19  1  0
 22 23  2  0
 22 21  1  0
 24 23  1  0
 25 30  2  0
 25 24  1  0
 26 25  1  0
 27 28  1  0
 27 26  2  0
 28 29  2  0
 29 30  1  0
 30 22  1  0
 31 32  1  0
 33 31  2  0
M  END
$$$$
