CMD.pdb
     RDKit          3D

 23 22  0  0  1  0  0  0  0  0999 V2000
   18.5129  -11.9297  -17.7397 N   0  0  0  0  0  0  0  0  0  0  0  0
   19.7672  -12.2685  -17.0830 C   0  0  1  0  0  0  0  0  0  0  0  0
   20.2196  -13.6652  -17.3399 C   0  0  0  0  0  0  0  0  0  0  0  0
   18.9862  -14.8430  -16.7753 S   0  0  0  0  0  0  0  0  0  0  0  0
   20.7564  -11.2255  -17.4801 C   0  0  0  0  0  0  0  0  0  0  0  0
   21.9446  -11.3184  -17.0360 O   0  0  0  0  0  0  0  0  0  0  0  0
   22.1062   -9.1933  -23.9656 C   0  0  0  0  0  0  0  0  0  0  0  0
   21.2668   -8.3952  -22.5863 S   0  0  0  0  0  0  0  0  0  0  0  0
   21.7910   -9.0845  -21.0045 C   0  0  0  0  0  0  0  0  0  0  0  0
   20.9787   -8.4440  -19.8937 C   0  0  0  0  0  0  0  0  0  0  0  0
   21.3650   -9.0222  -18.5510 C   0  0  2  0  0  0  0  0  0  0  0  0
   20.4514  -10.1417  -18.3172 N   0  0  0  0  0  0  0  0  0  0  0  0
   21.1624   -7.9872  -17.5159 C   0  0  0  0  0  0  0  0  0  0  0  0
   20.1731   -8.1091  -16.7403 O   0  0  0  0  0  0  0  0  0  0  0  0
   22.0033   -6.8696  -17.3319 N   0  0  0  0  0  0  0  0  0  0  0  0
   21.8165   -6.0226  -16.1881 C   0  0  1  0  0  0  0  0  0  0  0  0
   22.0602   -6.7798  -14.8823 C   0  0  0  0  0  0  0  0  0  0  0  0
   21.8509   -5.8144  -13.7794 C   0  0  0  0  0  0  0  0  0  0  0  0
   21.3326   -4.6917  -14.0705 O   0  0  0  0  0  0  0  0  0  0  0  0
   22.6817   -4.8174  -16.2425 C   0  0  0  0  0  0  0  0  0  0  0  0
   23.8350   -4.8098  -17.0384 O   0  0  0  0  0  0  0  0  0  0  0  0
   22.1800   -6.0479  -12.4576 O   0  0  0  0  0  0  0  0  0  0  0  0
   22.4172   -3.7828  -15.5909 O   0  0  0  0  0  0  0  0  0  0  0  0
  2  1  1  6
  3  2  1  0
  3  4  1  0
  5  2  1  0
  5 12  1  0
  6  5  2  0
  7  8  1  0
  8  9  1  0
  9 10  1  0
 11 12  1  0
 11 13  1  0
 11 10  1  6
 13 14  2  0
 15 13  1  0
 15 16  1  0
 16 20  1  0
 16 17  1  1
 18 22  1  0
 18 17  1  0
 19 18  2  0
 20 23  2  0
 20 21  1  0
M  END
$$$$
