CMD.pdb
     RDKit          3D

 23 22  0  0  1  0  0  0  0  0999 V2000
   21.2633  -13.2437  -17.3656 N   0  0  0  0  0  0  0  0  0  0  0  0
   21.0300  -11.9033  -17.8834 C   0  0  1  0  0  0  0  0  0  0  0  0
   19.6495  -11.6945  -18.4051 C   0  0  0  0  0  0  0  0  0  0  0  0
   19.4447  -10.0100  -18.9948 S   0  0  0  0  0  0  0  0  0  0  0  0
   21.4240  -10.9508  -16.8056 C   0  0  0  0  0  0  0  0  0  0  0  0
   21.0063  -11.1678  -15.6241 O   0  0  0  0  0  0  0  0  0  0  0  0
   27.2013  -11.1781  -14.4068 C   0  0  0  0  0  0  0  0  0  0  0  0
   26.4112   -9.7313  -15.1323 S   0  0  0  0  0  0  0  0  0  0  0  0
   24.6255   -9.9476  -15.2615 C   0  0  0  0  0  0  0  0  0  0  0  0
   24.0263   -8.7196  -15.9227 C   0  0  0  0  0  0  0  0  0  0  0  0
   22.5196   -8.8304  -15.9837 C   0  0  2  0  0  0  0  0  0  0  0  0
   22.2308   -9.8231  -17.0199 N   0  0  0  0  0  0  0  0  0  0  0  0
   21.9659   -7.5188  -16.3799 C   0  0  0  0  0  0  0  0  0  0  0  0
   22.1954   -7.1071  -17.5517 O   0  0  0  0  0  0  0  0  0  0  0  0
   21.1930   -6.6931  -15.5368 N   0  0  0  0  0  0  0  0  0  0  0  0
   20.5872   -5.5055  -16.0690 C   0  0  1  0  0  0  0  0  0  0  0  0
   19.7225   -5.8151  -17.2913 C   0  0  0  0  0  0  0  0  0  0  0  0
   19.1450   -4.5301  -17.7468 C   0  0  0  0  0  0  0  0  0  0  0  0
   17.8931   -4.3652  -17.6070 O   0  0  0  0  0  0  0  0  0  0  0  0
   19.7819   -4.7880  -15.0488 C   0  0  0  0  0  0  0  0  0  0  0  0
   19.6171   -3.3987  -15.1266 O   0  0  0  0  0  0  0  0  0  0  0  0
   19.8705   -3.4992  -18.3132 O   0  0  0  0  0  0  0  0  0  0  0  0
   19.2310   -5.3874  -14.0991 O   0  0  0  0  0  0  0  0  0  0  0  0
  2  1  1  1
  3  2  1  0
  3  4  1  0
  5  2  1  0
  5 12  1  0
  6  5  2  0
  7  8  1  0
  8  9  1  0
  9 10  1  0
 11 12  1  0
 11 13  1  0
 11 10  1  6
 13 14  2  0
 15 13  1  0
 15 16  1  0
 16 20  1  0
 16 17  1  6
 18 22  1  0
 18 17  1  0
 19 18  2  0
 20 23  2  0
 20 21  1  0
M  END
$$$$
