CMD.pdb
     RDKit          3D

 23 22  0  0  1  0  0  0  0  0999 V2000
   20.4633  -12.2812  -17.2356 N   0  0  0  0  0  0  0  0  0  0  0  0
   21.0429  -11.0926  -17.8443 C   0  0  1  0  0  0  0  0  0  0  0  0
   20.0754  -10.3043  -18.6590 C   0  0  0  0  0  0  0  0  0  0  0  0
   19.6413  -11.1924  -20.1590 S   0  0  0  0  0  0  0  0  0  0  0  0
   21.6873  -10.3170  -16.7455 C   0  0  0  0  0  0  0  0  0  0  0  0
   21.2190  -10.4319  -15.5686 O   0  0  0  0  0  0  0  0  0  0  0  0
   27.6274  -11.9018  -15.2761 C   0  0  0  0  0  0  0  0  0  0  0  0
   27.0507  -10.2527  -15.7139 S   0  0  0  0  0  0  0  0  0  0  0  0
   25.2768  -10.0778  -15.4408 C   0  0  0  0  0  0  0  0  0  0  0  0
   24.8268   -8.7280  -15.9696 C   0  0  0  0  0  0  0  0  0  0  0  0
   23.3228   -8.5979  -15.8842 C   0  0  2  0  0  0  0  0  0  0  0  0
   22.7839   -9.4625  -16.9352 N   0  0  0  0  0  0  0  0  0  0  0  0
   22.9549   -7.1926  -16.1555 C   0  0  0  0  0  0  0  0  0  0  0  0
   23.2965   -6.3162  -15.3127 O   0  0  0  0  0  0  0  0  0  0  0  0
   22.2480   -6.7607  -17.2973 N   0  0  0  0  0  0  0  0  0  0  0  0
   21.9108   -5.3727  -17.4395 C   0  0  1  0  0  0  0  0  0  0  0  0
   22.8004   -4.6812  -18.4730 C   0  0  0  0  0  0  0  0  0  0  0  0
   22.4230   -3.2496  -18.4770 C   0  0  0  0  0  0  0  0  0  0  0  0
   21.6076   -2.8535  -17.5870 O   0  0  0  0  0  0  0  0  0  0  0  0
   20.4818   -5.1820  -17.7942 C   0  0  0  0  0  0  0  0  0  0  0  0
   19.7182   -4.1994  -17.1504 O   0  0  0  0  0  0  0  0  0  0  0  0
   22.8937   -2.3152  -19.3800 O   0  0  0  0  0  0  0  0  0  0  0  0
   19.9175   -5.8798  -18.6657 O   0  0  0  0  0  0  0  0  0  0  0  0
  2  1  1  1
  3  2  1  0
  3  4  1  0
  5  2  1  0
  5 12  1  0
  6  5  2  0
  7  8  1  0
  8  9  1  0
  9 10  1  0
 11 12  1  0
 11 13  1  0
 11 10  1  6
 13 14  2  0
 15 13  1  0
 15 16  1  0
 16 20  1  0
 16 17  1  6
 18 22  1  0
 18 17  1  0
 19 18  2  0
 20 23  2  0
 20 21  1  0
M  END
$$$$
