CMD.pdb
     RDKit          3D

 23 22  0  0  1  0  0  0  0  0999 V2000
   35.0068   -8.8764  -17.2442 N   0  0  0  0  0  0  0  0  0  0  0  0
   33.8227   -8.7282  -16.4104 C   0  0  1  0  0  0  0  0  0  0  0  0
   33.5277   -7.3165  -16.0343 C   0  0  0  0  0  0  0  0  0  0  0  0
   34.7223   -6.7196  -14.8327 S   0  0  0  0  0  0  0  0  0  0  0  0
   32.7063   -9.4145  -17.1222 C   0  0  0  0  0  0  0  0  0  0  0  0
   32.7114   -9.4183  -18.3941 O   0  0  0  0  0  0  0  0  0  0  0  0
   27.0039  -14.8178  -16.3522 C   0  0  0  0  0  0  0  0  0  0  0  0
   28.2570  -13.7444  -15.6301 S   0  0  0  0  0  0  0  0  0  0  0  0
   28.9173  -12.5874  -16.8455 C   0  0  0  0  0  0  0  0  0  0  0  0
   29.9831  -11.7322  -16.1846 C   0  0  0  0  0  0  0  0  0  0  0  0
   30.5622  -10.7457  -17.1734 C   0  0  2  0  0  0  0  0  0  0  0  0
   31.6447  -10.0577  -16.4681 N   0  0  0  0  0  0  0  0  0  0  0  0
   29.5104   -9.7756  -17.5427 C   0  0  0  0  0  0  0  0  0  0  0  0
   29.5013   -8.6576  -16.9554 O   0  0  0  0  0  0  0  0  0  0  0  0
   28.5137  -10.0125  -18.5125 N   0  0  0  0  0  0  0  0  0  0  0  0
   27.6677   -8.9336  -18.9377 C   0  0  1  0  0  0  0  0  0  0  0  0
   28.4853   -7.7285  -19.4036 C   0  0  0  0  0  0  0  0  0  0  0  0
   27.6504   -6.5273  -19.1748 C   0  0  0  0  0  0  0  0  0  0  0  0
   26.4687   -6.7055  -18.7438 O   0  0  0  0  0  0  0  0  0  0  0  0
   26.7297   -9.3527  -20.0094 C   0  0  0  0  0  0  0  0  0  0  0  0
   25.3991   -8.9138  -19.9965 O   0  0  0  0  0  0  0  0  0  0  0  0
   28.0649   -5.2279  -19.3976 O   0  0  0  0  0  0  0  0  0  0  0  0
   27.0870  -10.1002  -20.9466 O   0  0  0  0  0  0  0  0  0  0  0  0
  2  1  1  6
  3  2  1  0
  3  4  1  0
  5  2  1  0
  5 12  1  0
  6  5  2  0
  7  8  1  0
  8  9  1  0
  9 10  1  0
 11 12  1  0
 11 13  1  0
 11 10  1  1
 13 14  2  0
 15 13  1  0
 15 16  1  0
 16 20  1  0
 16 17  1  6
 18 22  1  0
 18 17  1  0
 19 18  2  0
 20 23  2  0
 20 21  1  0
M  END
$$$$
