CMD.pdb
     RDKit          3D

 23 22  0  0  1  0  0  0  0  0999 V2000
   12.3608  -14.2471  -10.4146 N   0  0  0  0  0  0  0  0  0  0  0  0
   12.2668  -12.8552  -10.8304 C   0  0  1  0  0  0  0  0  0  0  0  0
   11.1480  -12.1114  -10.1850 C   0  0  0  0  0  0  0  0  0  0  0  0
    9.5835  -12.9447  -10.4769 S   0  0  0  0  0  0  0  0  0  0  0  0
   13.6103  -12.2476  -10.6073 C   0  0  0  0  0  0  0  0  0  0  0  0
   14.2508  -12.5650   -9.5553 O   0  0  0  0  0  0  0  0  0  0  0  0
   20.2809  -10.0242  -13.8732 C   0  0  0  0  0  0  0  0  0  0  0  0
   18.6580  -10.8053  -13.8848 S   0  0  0  0  0  0  0  0  0  0  0  0
   17.6894  -10.3400  -12.4365 C   0  0  0  0  0  0  0  0  0  0  0  0
   16.3185  -10.9847  -12.5318 C   0  0  0  0  0  0  0  0  0  0  0  0
   15.5286  -10.7444  -11.2651 C   0  0  2  0  0  0  0  0  0  0  0  0
   14.2114  -11.3406  -11.4932 N   0  0  0  0  0  0  0  0  0  0  0  0
   15.3896   -9.2868  -11.0653 C   0  0  0  0  0  0  0  0  0  0  0  0
   14.6644   -8.6432  -11.8746 O   0  0  0  0  0  0  0  0  0  0  0  0
   16.0114   -8.5625  -10.0267 N   0  0  0  0  0  0  0  0  0  0  0  0
   15.8154   -7.1434   -9.9360 C   0  0  1  0  0  0  0  0  0  0  0  0
   15.5961   -6.6977   -8.4899 C   0  0  0  0  0  0  0  0  0  0  0  0
   15.3395   -5.2399   -8.5228 C   0  0  0  0  0  0  0  0  0  0  0  0
   14.8708   -4.7491   -9.5967 O   0  0  0  0  0  0  0  0  0  0  0  0
   16.9456   -6.3875  -10.5320 C   0  0  0  0  0  0  0  0  0  0  0  0
   16.7274   -5.1330  -11.1169 O   0  0  0  0  0  0  0  0  0  0  0  0
   15.5745   -4.3765   -7.4696 O   0  0  0  0  0  0  0  0  0  0  0  0
   18.1136   -6.8354  -10.5337 O   0  0  0  0  0  0  0  0  0  0  0  0
  2  1  1  1
  3  2  1  0
  3  4  1  0
  5  2  1  0
  5 12  1  0
  6  5  2  0
  7  8  1  0
  8  9  1  0
  9 10  1  0
 11 12  1  0
 11 13  1  0
 11 10  1  6
 13 14  2  0
 15 13  1  0
 15 16  1  0
 16 20  1  0
 16 17  1  1
 18 22  1  0
 18 17  1  0
 19 18  2  0
 20 23  2  0
 20 21  1  0
M  END
$$$$
