CMD.pdb
     RDKit          3D

 23 22  0  0  1  0  0  0  0  0999 V2000
   22.6098  -28.3366  -21.5596 N   0  0  0  0  0  0  0  0  0  0  0  0
   23.2520  -27.8914  -20.3314 C   0  0  1  0  0  0  0  0  0  0  0  0
   22.7068  -28.5354  -19.1028 C   0  0  0  0  0  0  0  0  0  0  0  0
   20.9812  -28.0935  -18.8701 S   0  0  0  0  0  0  0  0  0  0  0  0
   24.7191  -28.0827  -20.5189 C   0  0  0  0  0  0  0  0  0  0  0  0
   25.1162  -29.0678  -21.2186 O   0  0  0  0  0  0  0  0  0  0  0  0
   28.5189  -24.2486  -23.0668 C   0  0  0  0  0  0  0  0  0  0  0  0
   27.8353  -23.5992  -21.5321 S   0  0  0  0  0  0  0  0  0  0  0  0
   27.3711  -24.9251  -20.4013 C   0  0  0  0  0  0  0  0  0  0  0  0
   27.5273  -26.2571  -21.1121 C   0  0  0  0  0  0  0  0  0  0  0  0
   27.1273  -27.3960  -20.2015 C   0  0  2  0  0  0  0  0  0  0  0  0
   25.6916  -27.2367  -19.9649 N   0  0  0  0  0  0  0  0  0  0  0  0
   27.8620  -27.2606  -18.9264 C   0  0  0  0  0  0  0  0  0  0  0  0
   27.5835  -26.2789  -18.1822 O   0  0  0  0  0  0  0  0  0  0  0  0
   28.8550  -28.1578  -18.4804 N   0  0  0  0  0  0  0  0  0  0  0  0
   29.4557  -27.9665  -17.1908 C   0  0  1  0  0  0  0  0  0  0  0  0
   30.3398  -26.7193  -17.1622 C   0  0  0  0  0  0  0  0  0  0  0  0
   31.5700  -27.0462  -17.9184 C   0  0  0  0  0  0  0  0  0  0  0  0
   32.4803  -26.1617  -17.9720 O   0  0  0  0  0  0  0  0  0  0  0  0
   28.4400  -27.8908  -16.1107 C   0  0  0  0  0  0  0  0  0  0  0  0
   27.8306  -26.6687  -15.7970 O   0  0  0  0  0  0  0  0  0  0  0  0
   31.7972  -28.2437  -18.5699 O   0  0  0  0  0  0  0  0  0  0  0  0
   28.0974  -28.8981  -15.4527 O   0  0  0  0  0  0  0  0  0  0  0  0
  2  1  1  6
  3  2  1  0
  3  4  1  0
  5  2  1  0
  5 12  1  0
  6  5  2  0
  7  8  1  0
  8  9  1  0
  9 10  1  0
 11 12  1  0
 11 13  1  0
 11 10  1  6
 13 14  2  0
 15 13  1  0
 15 16  1  0
 16 20  1  0
 16 17  1  6
 18 22  1  0
 18 17  1  0
 19 18  2  0
 20 23  2  0
 20 21  1  0
M  END
$$$$
