CMD.pdb
     RDKit          3D

 23 22  0  0  1  0  0  0  0  0999 V2000
   21.0851  -13.2998  -20.6893 N   0  0  0  0  0  0  0  0  0  0  0  0
   20.3682  -13.7315  -19.4982 C   0  0  1  0  0  0  0  0  0  0  0  0
   20.2359  -15.2115  -19.3819 C   0  0  0  0  0  0  0  0  0  0  0  0
   19.1726  -15.8549  -20.6791 S   0  0  0  0  0  0  0  0  0  0  0  0
   21.0410  -13.0872  -18.3336 C   0  0  0  0  0  0  0  0  0  0  0  0
   20.5088  -13.2076  -17.1847 O   0  0  0  0  0  0  0  0  0  0  0  0
   27.6911  -10.7421  -14.9996 C   0  0  0  0  0  0  0  0  0  0  0  0
   26.7877  -11.4684  -16.3781 S   0  0  0  0  0  0  0  0  0  0  0  0
   25.0248  -11.1009  -16.2810 C   0  0  0  0  0  0  0  0  0  0  0  0
   24.3113  -11.8006  -17.4235 C   0  0  0  0  0  0  0  0  0  0  0  0
   22.8154  -11.6106  -17.3121 C   0  0  2  0  0  0  0  0  0  0  0  0
   22.2313  -12.3510  -18.4317 N   0  0  0  0  0  0  0  0  0  0  0  0
   22.5111  -10.1713  -17.4518 C   0  0  0  0  0  0  0  0  0  0  0  0
   22.3957   -9.6993  -18.6176 O   0  0  0  0  0  0  0  0  0  0  0  0
   22.3368   -9.2854  -16.3679 N   0  0  0  0  0  0  0  0  0  0  0  0
   21.5766   -8.0816  -16.5513 C   0  0  1  0  0  0  0  0  0  0  0  0
   20.1707   -8.3790  -17.0736 C   0  0  0  0  0  0  0  0  0  0  0  0
   19.4811   -7.0769  -17.2191 C   0  0  0  0  0  0  0  0  0  0  0  0
   18.5672   -6.7983  -16.3818 O   0  0  0  0  0  0  0  0  0  0  0  0
   21.4935   -7.2819  -15.3033 C   0  0  0  0  0  0  0  0  0  0  0  0
   22.0008   -7.7921  -14.1010 O   0  0  0  0  0  0  0  0  0  0  0  0
   19.7605   -6.1449  -18.2005 O   0  0  0  0  0  0  0  0  0  0  0  0
   20.9762   -6.1431  -15.2802 O   0  0  0  0  0  0  0  0  0  0  0  0
  2  1  1  6
  3  2  1  0
  3  4  1  0
  5  2  1  0
  5 12  1  0
  6  5  2  0
  7  8  1  0
  8  9  1  0
  9 10  1  0
 11 12  1  0
 11 13  1  0
 11 10  1  6
 13 14  2  0
 15 13  1  0
 15 16  1  0
 16 20  1  0
 16 17  1  1
 18 22  1  0
 18 17  1  0
 19 18  2  0
 20 23  2  0
 20 21  1  0
M  END
$$$$
