CMD.pdb
     RDKit          3D

 23 22  0  0  1  0  0  0  0  0999 V2000
   26.6250  -22.3540  -10.3983 N   0  0  0  0  0  0  0  0  0  0  0  0
   25.9006  -21.1165  -10.6492 C   0  0  1  0  0  0  0  0  0  0  0  0
   26.4691  -19.9352   -9.9402 C   0  0  0  0  0  0  0  0  0  0  0  0
   25.9384  -19.9123   -8.2241 S   0  0  0  0  0  0  0  0  0  0  0  0
   25.8205  -20.9572  -12.1299 C   0  0  0  0  0  0  0  0  0  0  0  0
   26.8417  -21.2561  -12.8266 O   0  0  0  0  0  0  0  0  0  0  0  0
   23.2848  -25.5693  -14.5444 C   0  0  0  0  0  0  0  0  0  0  0  0
   24.7383  -24.7130  -15.1755 S   0  0  0  0  0  0  0  0  0  0  0  0
   25.1690  -23.2950  -14.1480 C   0  0  0  0  0  0  0  0  0  0  0  0
   23.9346  -22.4334  -13.9537 C   0  0  0  0  0  0  0  0  0  0  0  0
   24.2749  -20.9702  -14.1256 C   0  0  2  0  0  0  0  0  0  0  0  0
   24.6799  -20.4932  -12.8024 N   0  0  0  0  0  0  0  0  0  0  0  0
   23.0607  -20.2521  -14.5657 C   0  0  0  0  0  0  0  0  0  0  0  0
   22.0467  -20.2841  -13.8135 O   0  0  0  0  0  0  0  0  0  0  0  0
   22.9570  -19.5278  -15.7718 N   0  0  0  0  0  0  0  0  0  0  0  0
   21.7335  -18.8462  -16.0866 C   0  0  1  0  0  0  0  0  0  0  0  0
   21.9900  -17.5801  -16.9045 C   0  0  0  0  0  0  0  0  0  0  0  0
   20.6834  -16.9046  -17.0734 C   0  0  0  0  0  0  0  0  0  0  0  0
   19.6703  -17.4366  -16.5217 O   0  0  0  0  0  0  0  0  0  0  0  0
   20.7765  -19.7259  -16.8038 C   0  0  0  0  0  0  0  0  0  0  0  0
   21.2374  -20.6460  -17.7547 O   0  0  0  0  0  0  0  0  0  0  0  0
   20.4882  -15.7384  -17.7888 O   0  0  0  0  0  0  0  0  0  0  0  0
   19.5451  -19.6783  -16.5889 O   0  0  0  0  0  0  0  0  0  0  0  0
  2  1  1  6
  3  2  1  0
  3  4  1  0
  5  2  1  0
  5 12  1  0
  6  5  2  0
  7  8  1  0
  8  9  1  0
  9 10  1  0
 11 12  1  0
 11 13  1  0
 11 10  1  1
 13 14  2  0
 15 13  1  0
 15 16  1  0
 16 20  1  0
 16 17  1  6
 18 22  1  0
 18 17  1  0
 19 18  2  0
 20 23  2  0
 20 21  1  0
M  END
$$$$
