CMD.pdb
     RDKit          3D

 23 22  0  0  1  0  0  0  0  0999 V2000
   29.5102   -9.8939  -18.0719 N   0  0  0  0  0  0  0  0  0  0  0  0
   30.7479   -9.2740  -18.5224 C   0  0  1  0  0  0  0  0  0  0  0  0
   30.5660   -8.3345  -19.6650 C   0  0  0  0  0  0  0  0  0  0  0  0
   29.8235   -9.1791  -21.0658 S   0  0  0  0  0  0  0  0  0  0  0  0
   31.3821   -8.6569  -17.3219 C   0  0  0  0  0  0  0  0  0  0  0  0
   30.6268   -8.1899  -16.4114 O   0  0  0  0  0  0  0  0  0  0  0  0
   36.9972  -10.4715  -14.2123 C   0  0  0  0  0  0  0  0  0  0  0  0
   37.1401   -8.7101  -14.5605 S   0  0  0  0  0  0  0  0  0  0  0  0
   35.5206   -7.9264  -14.6835 C   0  0  0  0  0  0  0  0  0  0  0  0
   34.7868   -8.4959  -15.8841 C   0  0  0  0  0  0  0  0  0  0  0  0
   33.3850   -7.9352  -15.9656 C   0  0  2  0  0  0  0  0  0  0  0  0
   32.7696   -8.5592  -17.1380 N   0  0  0  0  0  0  0  0  0  0  0  0
   33.4725   -6.4736  -16.1655 C   0  0  0  0  0  0  0  0  0  0  0  0
   33.3280   -6.0250  -17.3373 O   0  0  0  0  0  0  0  0  0  0  0  0
   33.7043   -5.5411  -15.1327 N   0  0  0  0  0  0  0  0  0  0  0  0
   33.4866   -4.1435  -15.3774 C   0  0  1  0  0  0  0  0  0  0  0  0
   32.0722   -3.8770  -15.8935 C   0  0  0  0  0  0  0  0  0  0  0  0
   32.0066   -2.4409  -16.2476 C   0  0  0  0  0  0  0  0  0  0  0  0
   33.0456   -1.7377  -16.0484 O   0  0  0  0  0  0  0  0  0  0  0  0
   33.7471   -3.3211  -14.1692 C   0  0  0  0  0  0  0  0  0  0  0  0
   33.6060   -3.8773  -12.8909 O   0  0  0  0  0  0  0  0  0  0  0  0
   30.8960   -1.8122  -16.7780 O   0  0  0  0  0  0  0  0  0  0  0  0
   34.0958   -2.1223  -14.2472 O   0  0  0  0  0  0  0  0  0  0  0  0
  2  1  1  1
  3  2  1  0
  3  4  1  0
  5  2  1  0
  5 12  1  0
  6  5  2  0
  7  8  1  0
  8  9  1  0
  9 10  1  0
 11 12  1  0
 11 13  1  0
 11 10  1  6
 13 14  2  0
 15 13  1  0
 15 16  1  0
 16 20  1  0
 16 17  1  1
 18 22  1  0
 18 17  1  0
 19 18  2  0
 20 23  2  0
 20 21  1  0
M  END
$$$$
