CMD.pdb
     RDKit          3D

 23 22  0  0  1  0  0  0  0  0999 V2000
   24.3127  -13.5630  -18.0533 N   0  0  0  0  0  0  0  0  0  0  0  0
   24.0550  -12.8125  -16.8329 C   0  0  1  0  0  0  0  0  0  0  0  0
   25.2723  -12.5779  -16.0055 C   0  0  0  0  0  0  0  0  0  0  0  0
   25.8621  -14.1198  -15.2972 S   0  0  0  0  0  0  0  0  0  0  0  0
   23.3437  -11.5654  -17.2364 C   0  0  0  0  0  0  0  0  0  0  0  0
   23.8258  -10.8756  -18.1900 O   0  0  0  0  0  0  0  0  0  0  0  0
   17.2434  -11.6192  -18.7514 C   0  0  0  0  0  0  0  0  0  0  0  0
   17.7199   -9.8829  -18.7032 S   0  0  0  0  0  0  0  0  0  0  0  0
   19.5117   -9.6900  -18.6376 C   0  0  0  0  0  0  0  0  0  0  0  0
   20.0395  -10.3998  -17.4041 C   0  0  0  0  0  0  0  0  0  0  0  0
   21.4350   -9.9218  -17.0717 C   0  0  2  0  0  0  0  0  0  0  0  0
   22.1693  -11.1054  -16.6219 N   0  0  0  0  0  0  0  0  0  0  0  0
   21.3473   -8.9397  -15.9709 C   0  0  0  0  0  0  0  0  0  0  0  0
   21.1610   -9.3754  -14.8002 O   0  0  0  0  0  0  0  0  0  0  0  0
   21.4611   -7.5437  -16.1382 N   0  0  0  0  0  0  0  0  0  0  0  0
   21.3573   -6.6818  -14.9950 C   0  0  1  0  0  0  0  0  0  0  0  0
   22.5146   -5.6843  -14.9364 C   0  0  0  0  0  0  0  0  0  0  0  0
   22.3008   -4.8470  -13.7341 C   0  0  0  0  0  0  0  0  0  0  0  0
   22.0444   -5.4415  -12.6411 O   0  0  0  0  0  0  0  0  0  0  0  0
   20.0625   -5.9562  -14.9624 C   0  0  0  0  0  0  0  0  0  0  0  0
   19.5055   -5.5577  -13.7400 O   0  0  0  0  0  0  0  0  0  0  0  0
   22.3596   -3.4664  -13.7173 O   0  0  0  0  0  0  0  0  0  0  0  0
   19.4326   -5.6791  -16.0071 O   0  0  0  0  0  0  0  0  0  0  0  0
  2  1  1  6
  3  2  1  0
  3  4  1  0
  5  2  1  0
  5 12  1  0
  6  5  2  0
  7  8  1  0
  8  9  1  0
  9 10  1  0
 11 12  1  0
 11 13  1  0
 11 10  1  1
 13 14  2  0
 15 13  1  0
 15 16  1  0
 16 20  1  0
 16 17  1  6
 18 22  1  0
 18 17  1  0
 19 18  2  0
 20 23  2  0
 20 21  1  0
M  END
$$$$
