CMD.pdb
     RDKit          3D

 23 22  0  0  1  0  0  0  0  0999 V2000
   24.1088  -24.8790  -15.6939 N   0  0  0  0  0  0  0  0  0  0  0  0
   22.8406  -24.4611  -15.1141 C   0  0  1  0  0  0  0  0  0  0  0  0
   22.4437  -25.2471  -13.9116 C   0  0  0  0  0  0  0  0  0  0  0  0
   22.8309  -26.9867  -14.1373 S   0  0  0  0  0  0  0  0  0  0  0  0
   22.9393  -22.9922  -14.8759 C   0  0  0  0  0  0  0  0  0  0  0  0
   21.9856  -22.4128  -14.2657 O   0  0  0  0  0  0  0  0  0  0  0  0
   28.2513  -18.5285  -14.7905 C   0  0  0  0  0  0  0  0  0  0  0  0
   28.0747  -20.1756  -14.0833 S   0  0  0  0  0  0  0  0  0  0  0  0
   26.3408  -20.6129  -13.8496 C   0  0  0  0  0  0  0  0  0  0  0  0
   25.6058  -20.4368  -15.1660 C   0  0  0  0  0  0  0  0  0  0  0  0
   24.1410  -20.7762  -15.0067 C   0  0  2  0  0  0  0  0  0  0  0  0
   24.0268  -22.2079  -15.2890 N   0  0  0  0  0  0  0  0  0  0  0  0
   23.3675  -20.0070  -16.0036 C   0  0  0  0  0  0  0  0  0  0  0  0
   23.0046  -20.5988  -17.0587 O   0  0  0  0  0  0  0  0  0  0  0  0
   23.0026  -18.6524  -15.8557 N   0  0  0  0  0  0  0  0  0  0  0  0
   21.8286  -18.1581  -16.5175 C   0  0  1  0  0  0  0  0  0  0  0  0
   20.5793  -18.9343  -16.0999 C   0  0  0  0  0  0  0  0  0  0  0  0
   19.4483  -18.3812  -16.8791 C   0  0  0  0  0  0  0  0  0  0  0  0
   19.6934  -17.9551  -18.0505 O   0  0  0  0  0  0  0  0  0  0  0  0
   21.6257  -16.7070  -16.2781 C   0  0  0  0  0  0  0  0  0  0  0  0
   22.5503  -15.9795  -15.5171 O   0  0  0  0  0  0  0  0  0  0  0  0
   18.1468  -18.2950  -16.4223 O   0  0  0  0  0  0  0  0  0  0  0  0
   20.6387  -16.0919  -16.7390 O   0  0  0  0  0  0  0  0  0  0  0  0
  2  1  1  1
  3  2  1  0
  3  4  1  0
  5  2  1  0
  5 12  1  0
  6  5  2  0
  7  8  1  0
  8  9  1  0
  9 10  1  0
 11 12  1  0
 11 13  1  0
 11 10  1  6
 13 14  2  0
 15 13  1  0
 15 16  1  0
 16 20  1  0
 16 17  1  1
 18 22  1  0
 18 17  1  0
 19 18  2  0
 20 23  2  0
 20 21  1  0
M  END
$$$$
