CMD.pdb
     RDKit          3D

 23 22  0  0  1  0  0  0  0  0999 V2000
   20.3154  -13.0395  -16.2876 N   0  0  0  0  0  0  0  0  0  0  0  0
   20.1816  -11.6670  -16.7542 C   0  0  1  0  0  0  0  0  0  0  0  0
   18.7695  -11.2448  -16.9762 C   0  0  0  0  0  0  0  0  0  0  0  0
   18.0029  -12.2489  -18.2534 S   0  0  0  0  0  0  0  0  0  0  0  0
   20.9288  -10.8096  -15.7895 C   0  0  0  0  0  0  0  0  0  0  0  0
   20.7014  -10.9572  -14.5469 O   0  0  0  0  0  0  0  0  0  0  0  0
   27.0902  -12.0335  -14.9788 C   0  0  0  0  0  0  0  0  0  0  0  0
   26.3476  -10.4855  -15.5230 S   0  0  0  0  0  0  0  0  0  0  0  0
   24.6147  -10.3756  -15.0359 C   0  0  0  0  0  0  0  0  0  0  0  0
   24.0351   -9.0760  -15.5641 C   0  0  0  0  0  0  0  0  0  0  0  0
   22.5653   -8.9725  -15.2248 C   0  0  2  0  0  0  0  0  0  0  0  0
   21.8710   -9.8437  -16.1742 N   0  0  0  0  0  0  0  0  0  0  0  0
   22.1331   -7.5732  -15.4223 C   0  0  0  0  0  0  0  0  0  0  0  0
   22.0441   -7.1407  -16.6056 O   0  0  0  0  0  0  0  0  0  0  0  0
   21.8088   -6.6847  -14.3757 N   0  0  0  0  0  0  0  0  0  0  0  0
   21.4587   -5.3266  -14.6815 C   0  0  1  0  0  0  0  0  0  0  0  0
   19.9716   -5.0625  -14.4438 C   0  0  0  0  0  0  0  0  0  0  0  0
   19.7265   -3.6427  -14.7850 C   0  0  0  0  0  0  0  0  0  0  0  0
   20.0904   -3.2426  -15.9345 O   0  0  0  0  0  0  0  0  0  0  0  0
   22.2742   -4.3556  -13.9095 C   0  0  0  0  0  0  0  0  0  0  0  0
   22.5673   -3.0944  -14.4450 O   0  0  0  0  0  0  0  0  0  0  0  0
   19.1316   -2.7232  -13.9421 O   0  0  0  0  0  0  0  0  0  0  0  0
   22.7217   -4.6236  -12.7725 O   0  0  0  0  0  0  0  0  0  0  0  0
  2  1  1  1
  3  2  1  0
  3  4  1  0
  5  2  1  0
  5 12  1  0
  6  5  2  0
  7  8  1  0
  8  9  1  0
  9 10  1  0
 11 12  1  0
 11 13  1  0
 11 10  1  6
 13 14  2  0
 15 13  1  0
 15 16  1  0
 16 20  1  0
 16 17  1  1
 18 22  1  0
 18 17  1  0
 19 18  2  0
 20 23  2  0
 20 21  1  0
M  END
$$$$
