CMD.pdb
     RDKit          3D

 23 22  0  0  1  0  0  0  0  0999 V2000
   28.0738  -18.4886  -16.6262 N   0  0  0  0  0  0  0  0  0  0  0  0
   27.3956  -18.0108  -15.4299 C   0  0  1  0  0  0  0  0  0  0  0  0
   26.5675  -16.7925  -15.6570 C   0  0  0  0  0  0  0  0  0  0  0  0
   27.5994  -15.3222  -15.6806 S   0  0  0  0  0  0  0  0  0  0  0  0
   26.6365  -19.1679  -14.8742 C   0  0  0  0  0  0  0  0  0  0  0  0
   26.3250  -20.1198  -15.6581 O   0  0  0  0  0  0  0  0  0  0  0  0
   26.2387  -19.9767   -8.5963 C   0  0  0  0  0  0  0  0  0  0  0  0
   25.3321  -21.4665   -9.0465 S   0  0  0  0  0  0  0  0  0  0  0  0
   25.0379  -21.5504  -10.8237 C   0  0  0  0  0  0  0  0  0  0  0  0
   25.7709  -20.4059  -11.4997 C   0  0  0  0  0  0  0  0  0  0  0  0
   25.5116  -20.4144  -12.9893 C   0  0  2  0  0  0  0  0  0  0  0  0
   26.2423  -19.2677  -13.5314 N   0  0  0  0  0  0  0  0  0  0  0  0
   24.0623  -20.2365  -13.2168 C   0  0  0  0  0  0  0  0  0  0  0  0
   23.5611  -19.0995  -12.9904 O   0  0  0  0  0  0  0  0  0  0  0  0
   23.1974  -21.2526  -13.6742 N   0  0  0  0  0  0  0  0  0  0  0  0
   21.8161  -20.9499  -13.9211 C   0  0  1  0  0  0  0  0  0  0  0  0
   21.2468  -21.8063  -15.0527 C   0  0  0  0  0  0  0  0  0  0  0  0
   21.5026  -21.0765  -16.3154 C   0  0  0  0  0  0  0  0  0  0  0  0
   22.0276  -19.9227  -16.2321 O   0  0  0  0  0  0  0  0  0  0  0  0
   20.9860  -21.1086  -12.7005 C   0  0  0  0  0  0  0  0  0  0  0  0
   21.3314  -22.0568  -11.7285 O   0  0  0  0  0  0  0  0  0  0  0  0
   21.2100  -21.5610  -17.5762 O   0  0  0  0  0  0  0  0  0  0  0  0
   19.9656  -20.4135  -12.4992 O   0  0  0  0  0  0  0  0  0  0  0  0
  2  1  1  6
  3  2  1  0
  3  4  1  0
  5  2  1  0
  5 12  1  0
  6  5  2  0
  7  8  1  0
  8  9  1  0
  9 10  1  0
 11 12  1  0
 11 13  1  0
 11 10  1  1
 13 14  2  0
 15 13  1  0
 15 16  1  0
 16 20  1  0
 16 17  1  6
 18 22  1  0
 18 17  1  0
 19 18  2  0
 20 23  2  0
 20 21  1  0
M  END
$$$$
