FDA.pdb
     RDKit          3D

 25 25  0  0  1  0  0  0  0  0999 V2000
   24.7363  -35.1160   -0.2512 N   0  0  0  0  0  0  0  0  0  0  0  0
   26.1572  -35.1713   -0.5778 C   0  0  1  0  0  0  0  0  0  0  0  0
   26.7133  -33.8043   -0.1321 C   0  0  0  0  0  0  0  0  0  0  0  0
   26.3121  -32.8174   -1.1517 C   0  0  0  0  0  0  0  0  0  0  0  0
   26.7652  -32.8463   -2.4634 C   0  0  0  0  0  0  0  0  0  0  0  0
   26.3842  -31.9081   -3.3896 C   0  0  0  0  0  0  0  0  0  0  0  0
   25.5223  -30.8930   -3.0272 C   0  0  0  0  0  0  0  0  0  0  0  0
   25.0643  -30.8450   -1.7390 C   0  0  0  0  0  0  0  0  0  0  0  0
   25.4420  -31.7887   -0.7919 C   0  0  0  0  0  0  0  0  0  0  0  0
   26.8000  -36.1679    0.3338 C   0  0  0  0  0  0  0  0  0  0  0  0
   26.2397  -36.5408    1.4108 O   0  0  0  0  0  0  0  0  0  0  0  0
   28.0533  -36.7090   -0.0032 N   0  0  0  0  0  0  0  0  0  0  0  0
   28.7621  -37.7282    0.7674 C   0  0  1  0  0  0  0  0  0  0  0  0
   29.4320  -38.6050   -0.3225 C   0  0  0  0  0  0  0  0  0  0  0  0
   30.0214  -39.8268    0.2600 C   0  0  0  0  0  0  0  0  0  0  0  0
   30.6403  -40.6269   -0.4975 O   0  0  0  0  0  0  0  0  0  0  0  0
   29.8117  -37.0277    1.5494 C   0  0  0  0  0  0  0  0  0  0  0  0
   30.6204  -36.1964    1.0134 O   0  0  0  0  0  0  0  0  0  0  0  0
   29.8842  -40.0656    1.6086 O   0  0  0  0  0  0  0  0  0  0  0  0
   30.7297  -36.6994    5.2628 C   0  0  0  0  0  0  0  0  0  0  0  0
   30.9446  -36.5146    3.7716 C   0  0  2  0  0  0  0  0  0  0  0  0
   30.0029  -37.2235    2.9611 N   0  0  0  0  0  0  0  0  0  0  0  0
   32.3139  -36.8768    3.3678 C   0  0  0  0  0  0  0  0  0  0  0  0
   32.5675  -38.0383    2.9855 O   0  0  0  0  0  0  0  0  0  0  0  0
   33.3163  -35.9410    3.4093 O   0  0  0  0  0  0  0  0  0  0  0  0
  2  1  1  1
  2 10  1  0
  3  2  1  0
  4  9  2  0
  4  3  1  0
  5  4  1  0
  6  7  1  0
  6  5  2  0
  7  8  2  0
  8  9  1  0
 10 12  1  0
 11 10  2  0
 12 13  1  0
 13 17  1  0
 13 14  1  6
 15 19  1  0
 15 14  1  0
 16 15  2  0
 17 22  1  0
 17 18  2  0
 21 20  1  1
 22 21  1  0
 23 21  1  0
 23 25  1  0
 24 23  2  0
M  END
$$$$
