FDA.pdb
     RDKit          3D

 25 25  0  0  1  0  0  0  0  0999 V2000
   24.1273  -10.5332  -17.2108 N   0  0  0  0  0  0  0  0  0  0  0  0
   23.7121   -9.5441  -16.2221 C   0  0  1  0  0  0  0  0  0  0  0  0
   24.8107   -8.4635  -16.2663 C   0  0  0  0  0  0  0  0  0  0  0  0
   26.1064   -9.1536  -16.1260 C   0  0  0  0  0  0  0  0  0  0  0  0
   26.4567   -9.9026  -15.0112 C   0  0  0  0  0  0  0  0  0  0  0  0
   27.6745  -10.5257  -14.9019 C   0  0  0  0  0  0  0  0  0  0  0  0
   28.5973  -10.4179  -15.9224 C   0  0  0  0  0  0  0  0  0  0  0  0
   28.2731   -9.6835  -17.0301 C   0  0  0  0  0  0  0  0  0  0  0  0
   27.0437   -9.0481  -17.1532 C   0  0  0  0  0  0  0  0  0  0  0  0
   22.4814   -8.8678  -16.7372 C   0  0  0  0  0  0  0  0  0  0  0  0
   21.9953   -9.1509  -17.8758 O   0  0  0  0  0  0  0  0  0  0  0  0
   21.8422   -7.8953  -15.9479 N   0  0  0  0  0  0  0  0  0  0  0  0
   20.6192   -7.1860  -16.3169 C   0  0  1  0  0  0  0  0  0  0  0  0
   19.7180   -7.3432  -15.0645 C   0  0  0  0  0  0  0  0  0  0  0  0
   18.3881   -6.7402  -15.2820 C   0  0  0  0  0  0  0  0  0  0  0  0
   18.1510   -6.1658  -16.3824 O   0  0  0  0  0  0  0  0  0  0  0  0
   20.9820   -5.7565  -16.4861 C   0  0  0  0  0  0  0  0  0  0  0  0
   21.6379   -5.1103  -15.6003 O   0  0  0  0  0  0  0  0  0  0  0  0
   17.4412   -6.8169  -14.2860 O   0  0  0  0  0  0  0  0  0  0  0  0
   20.6577   -3.1173  -19.2619 C   0  0  0  0  0  0  0  0  0  0  0  0
   20.9582   -3.6117  -17.8586 C   0  0  2  0  0  0  0  0  0  0  0  0
   20.6301   -4.9882  -17.6494 N   0  0  0  0  0  0  0  0  0  0  0  0
   20.2958   -2.7857  -16.8347 C   0  0  0  0  0  0  0  0  0  0  0  0
   19.2022   -3.1457  -16.3510 O   0  0  0  0  0  0  0  0  0  0  0  0
   20.8765   -1.6184  -16.4076 O   0  0  0  0  0  0  0  0  0  0  0  0
  2  1  1  6
  2 10  1  0
  3  2  1  0
  4  9  2  0
  4  3  1  0
  5  4  1  0
  6  7  1  0
  6  5  2  0
  7  8  2  0
  8  9  1  0
 10 12  1  0
 11 10  2  0
 12 13  1  0
 13 17  1  0
 13 14  1  1
 15 19  1  0
 15 14  1  0
 16 15  2  0
 17 22  1  0
 17 18  2  0
 21 20  1  6
 22 21  1  0
 23 21  1  0
 23 25  1  0
 24 23  2  0
M  END
$$$$
