FDA.pdb
     RDKit          3D

 25 25  0  0  1  0  0  0  0  0999 V2000
   22.1581  -11.2641  -15.8643 N   0  0  0  0  0  0  0  0  0  0  0  0
   22.2368   -9.8076  -15.8340 C   0  0  1  0  0  0  0  0  0  0  0  0
   23.3511   -9.4562  -16.8397 C   0  0  0  0  0  0  0  0  0  0  0  0
   24.6208   -9.9462  -16.2718 C   0  0  0  0  0  0  0  0  0  0  0  0
   25.2891   -9.3118  -15.2338 C   0  0  0  0  0  0  0  0  0  0  0  0
   26.4759   -9.7836  -14.7316 C   0  0  0  0  0  0  0  0  0  0  0  0
   27.0421  -10.9256  -15.2606 C   0  0  0  0  0  0  0  0  0  0  0  0
   26.4006  -11.5663  -16.2850 C   0  0  0  0  0  0  0  0  0  0  0  0
   25.1987  -11.0992  -16.8022 C   0  0  0  0  0  0  0  0  0  0  0  0
   20.9813   -9.2666  -16.4410 C   0  0  0  0  0  0  0  0  0  0  0  0
   20.2817   -9.9567  -17.2454 O   0  0  0  0  0  0  0  0  0  0  0  0
   20.5594   -7.9648  -16.1177 N   0  0  0  0  0  0  0  0  0  0  0  0
   19.3513   -7.3224  -16.6304 C   0  0  1  0  0  0  0  0  0  0  0  0
   18.2059   -8.0711  -15.9004 C   0  0  0  0  0  0  0  0  0  0  0  0
   16.8853   -7.5318  -16.2806 C   0  0  0  0  0  0  0  0  0  0  0  0
   16.5923   -7.4428  -17.5067 O   0  0  0  0  0  0  0  0  0  0  0  0
   19.3852   -5.9100  -16.1745 C   0  0  0  0  0  0  0  0  0  0  0  0
   19.4517   -5.5942  -14.9383 O   0  0  0  0  0  0  0  0  0  0  0  0
   16.0072   -7.1400  -15.2957 O   0  0  0  0  0  0  0  0  0  0  0  0
   17.8872   -3.0678  -16.0778 C   0  0  0  0  0  0  0  0  0  0  0  0
   19.2326   -3.4201  -16.6859 C   0  0  2  0  0  0  0  0  0  0  0  0
   19.3474   -4.7913  -17.0770 N   0  0  0  0  0  0  0  0  0  0  0  0
   20.3467   -3.0682  -15.7891 C   0  0  0  0  0  0  0  0  0  0  0  0
   20.1554   -2.9785  -14.5582 O   0  0  0  0  0  0  0  0  0  0  0  0
   21.5986   -2.8377  -16.3008 O   0  0  0  0  0  0  0  0  0  0  0  0
  2  1  1  6
  2 10  1  0
  3  2  1  0
  4  9  2  0
  4  3  1  0
  5  4  1  0
  6  7  1  0
  6  5  2  0
  7  8  2  0
  8  9  1  0
 10 12  1  0
 11 10  2  0
 12 13  1  0
 13 17  1  0
 13 14  1  1
 15 19  1  0
 15 14  1  0
 16 15  2  0
 17 22  1  0
 17 18  2  0
 21 20  1  1
 22 21  1  0
 23 21  1  0
 23 25  1  0
 24 23  2  0
M  END
$$$$
