FDA.pdb
     RDKit          3D

 25 25  0  0  1  0  0  0  0  0999 V2000
   23.4432   -9.8662  -17.5295 N   0  0  0  0  0  0  0  0  0  0  0  0
   22.9596   -9.0575  -16.4157 C   0  0  1  0  0  0  0  0  0  0  0  0
   24.0356   -7.9698  -16.2273 C   0  0  0  0  0  0  0  0  0  0  0  0
   25.3049   -8.6594  -15.9308 C   0  0  0  0  0  0  0  0  0  0  0  0
   26.4660   -8.4737  -16.6682 C   0  0  0  0  0  0  0  0  0  0  0  0
   27.6313   -9.1374  -16.3770 C   0  0  0  0  0  0  0  0  0  0  0  0
   27.6735  -10.0237  -15.3199 C   0  0  0  0  0  0  0  0  0  0  0  0
   26.5399  -10.2225  -14.5803 C   0  0  0  0  0  0  0  0  0  0  0  0
   25.3540   -9.5568  -14.8645 C   0  0  0  0  0  0  0  0  0  0  0  0
   21.7409   -8.3225  -16.8763 C   0  0  0  0  0  0  0  0  0  0  0  0
   21.5374   -8.0793  -18.1061 O   0  0  0  0  0  0  0  0  0  0  0  0
   20.7943   -7.8881  -15.9317 N   0  0  0  0  0  0  0  0  0  0  0  0
   19.5327   -7.2241  -16.2519 C   0  0  1  0  0  0  0  0  0  0  0  0
   18.5575   -7.7602  -15.1717 C   0  0  0  0  0  0  0  0  0  0  0  0
   18.0266   -9.0876  -15.5402 C   0  0  0  0  0  0  0  0  0  0  0  0
   17.9608   -9.4008  -16.7627 O   0  0  0  0  0  0  0  0  0  0  0  0
   19.7445   -5.7694  -16.0456 C   0  0  0  0  0  0  0  0  0  0  0  0
   20.3818   -5.3094  -15.0383 O   0  0  0  0  0  0  0  0  0  0  0  0
   17.6173   -9.9499  -14.5484 O   0  0  0  0  0  0  0  0  0  0  0  0
   19.1480   -2.5758  -18.0884 C   0  0  0  0  0  0  0  0  0  0  0  0
   19.4974   -3.3618  -16.8377 C   0  0  2  0  0  0  0  0  0  0  0  0
   19.2559   -4.7670  -16.9535 N   0  0  0  0  0  0  0  0  0  0  0  0
   18.8006   -2.8379  -15.6506 C   0  0  0  0  0  0  0  0  0  0  0  0
   19.1560   -1.7533  -15.1438 O   0  0  0  0  0  0  0  0  0  0  0  0
   17.7589   -3.5379  -15.0966 O   0  0  0  0  0  0  0  0  0  0  0  0
  2  1  1  6
  2 10  1  0
  3  2  1  0
  4  9  2  0
  4  3  1  0
  5  4  1  0
  6  7  1  0
  6  5  2  0
  7  8  2  0
  8  9  1  0
 10 12  1  0
 11 10  2  0
 12 13  1  0
 13 17  1  0
 13 14  1  1
 15 19  1  0
 15 14  1  0
 16 15  2  0
 17 22  1  0
 17 18  2  0
 21 20  1  6
 22 21  1  0
 23 21  1  0
 23 25  1  0
 24 23  2  0
M  END
$$$$
