FDA.pdb
     RDKit          3D

 25 25  0  0  1  0  0  0  0  0999 V2000
   15.9693  -14.8279    6.5515 N   0  0  0  0  0  0  0  0  0  0  0  0
   16.8429  -15.9063    6.1017 C   0  0  1  0  0  0  0  0  0  0  0  0
   18.2577  -15.2943    6.1171 C   0  0  0  0  0  0  0  0  0  0  0  0
   18.4053  -14.5071    4.8788 C   0  0  0  0  0  0  0  0  0  0  0  0
   18.4137  -15.0715    3.6108 C   0  0  0  0  0  0  0  0  0  0  0  0
   18.5640  -14.3160    2.4750 C   0  0  0  0  0  0  0  0  0  0  0  0
   18.7130  -12.9475    2.5729 C   0  0  0  0  0  0  0  0  0  0  0  0
   18.7085  -12.3705    3.8133 C   0  0  0  0  0  0  0  0  0  0  0  0
   18.5570  -13.1239    4.9707 C   0  0  0  0  0  0  0  0  0  0  0  0
   16.8625  -16.9565    7.1666 C   0  0  0  0  0  0  0  0  0  0  0  0
   16.6326  -16.6731    8.3830 O   0  0  0  0  0  0  0  0  0  0  0  0
   17.1408  -18.2906    6.8203 N   0  0  0  0  0  0  0  0  0  0  0  0
   17.2733  -19.3939    7.7690 C   0  0  1  0  0  0  0  0  0  0  0  0
   16.8518  -20.6357    6.9409 C   0  0  0  0  0  0  0  0  0  0  0  0
   16.7848  -21.8452    7.7848 C   0  0  0  0  0  0  0  0  0  0  0  0
   17.0874  -21.7532    9.0084 O   0  0  0  0  0  0  0  0  0  0  0  0
   18.7134  -19.4979    8.1139 C   0  0  0  0  0  0  0  0  0  0  0  0
   19.6320  -19.4461    7.2274 O   0  0  0  0  0  0  0  0  0  0  0  0
   16.3961  -23.0399    7.2225 O   0  0  0  0  0  0  0  0  0  0  0  0
   21.1657  -21.1264    9.2275 C   0  0  0  0  0  0  0  0  0  0  0  0
   20.5546  -19.8754    9.8321 C   0  0  2  0  0  0  0  0  0  0  0  0
   19.1897  -19.6628    9.4606 N   0  0  0  0  0  0  0  0  0  0  0  0
   21.3448  -18.6734    9.5155 C   0  0  0  0  0  0  0  0  0  0  0  0
   20.8238  -17.7296    8.8852 O   0  0  0  0  0  0  0  0  0  0  0  0
   22.6554  -18.5848    9.9112 O   0  0  0  0  0  0  0  0  0  0  0  0
  2  1  1  1
  2 10  1  0
  3  2  1  0
  4  9  2  0
  4  3  1  0
  5  4  1  0
  6  7  1  0
  6  5  2  0
  7  8  2  0
  8  9  1  0
 10 12  1  0
 11 10  2  0
 12 13  1  0
 13 17  1  0
 13 14  1  6
 15 19  1  0
 15 14  1  0
 16 15  2  0
 17 22  1  0
 17 18  2  0
 21 20  1  6
 22 21  1  0
 23 21  1  0
 23 25  1  0
 24 23  2  0
M  END
$$$$
