FDA.pdb
     RDKit          3D

 25 25  0  0  1  0  0  0  0  0999 V2000
   38.8820  -10.4155   -6.1851 N   0  0  0  0  0  0  0  0  0  0  0  0
   39.9297   -9.8512   -7.0291 C   0  0  1  0  0  0  0  0  0  0  0  0
   40.2611  -10.9680   -8.0387 C   0  0  0  0  0  0  0  0  0  0  0  0
   38.9828  -11.4349   -8.6068 C   0  0  0  0  0  0  0  0  0  0  0  0
   38.3921  -10.8680   -9.7277 C   0  0  0  0  0  0  0  0  0  0  0  0
   37.1955  -11.3153  -10.2289 C   0  0  0  0  0  0  0  0  0  0  0  0
   36.5398  -12.3628   -9.6145 C   0  0  0  0  0  0  0  0  0  0  0  0
   37.1038  -12.9356   -8.5076 C   0  0  0  0  0  0  0  0  0  0  0  0
   38.3147  -12.4924   -7.9903 C   0  0  0  0  0  0  0  0  0  0  0  0
   39.3213   -8.7564   -7.8469 C   0  0  0  0  0  0  0  0  0  0  0  0
   38.2943   -8.1235   -7.4502 O   0  0  0  0  0  0  0  0  0  0  0  0
   39.8946   -8.4144   -9.0844 N   0  0  0  0  0  0  0  0  0  0  0  0
   39.5131   -7.2609   -9.8961 C   0  0  1  0  0  0  0  0  0  0  0  0
   39.9860   -6.0505   -9.0497 C   0  0  0  0  0  0  0  0  0  0  0  0
   38.8395   -5.2955   -8.5066 C   0  0  0  0  0  0  0  0  0  0  0  0
   38.0914   -4.6635   -9.3054 O   0  0  0  0  0  0  0  0  0  0  0  0
   40.3102   -7.3287  -11.1466 C   0  0  0  0  0  0  0  0  0  0  0  0
   41.3957   -7.9978  -11.2275 O   0  0  0  0  0  0  0  0  0  0  0  0
   38.6124   -5.2969   -7.1491 O   0  0  0  0  0  0  0  0  0  0  0  0
   40.3212   -8.4155  -14.0466 C   0  0  0  0  0  0  0  0  0  0  0  0
   40.4408   -6.9520  -13.6617 C   0  0  2  0  0  0  0  0  0  0  0  0
   39.9306   -6.6549  -12.3588 N   0  0  0  0  0  0  0  0  0  0  0  0
   39.8012   -6.0718  -14.6544 C   0  0  0  0  0  0  0  0  0  0  0  0
   40.3797   -5.8186  -15.7318 O   0  0  0  0  0  0  0  0  0  0  0  0
   38.5681   -5.5265  -14.4006 O   0  0  0  0  0  0  0  0  0  0  0  0
  2  1  1  1
  2 10  1  0
  3  2  1  0
  4  9  2  0
  4  3  1  0
  5  4  1  0
  6  7  1  0
  6  5  2  0
  7  8  2  0
  8  9  1  0
 10 12  1  0
 11 10  2  0
 12 13  1  0
 13 17  1  0
 13 14  1  1
 15 19  1  0
 15 14  1  0
 16 15  2  0
 17 22  1  0
 17 18  2  0
 21 20  1  6
 22 21  1  0
 23 21  1  0
 23 25  1  0
 24 23  2  0
M  END
$$$$
