FDA.pdb
     RDKit          3D

 25 25  0  0  1  0  0  0  0  0999 V2000
   23.7308   -9.8653  -16.9084 N   0  0  0  0  0  0  0  0  0  0  0  0
   23.2182   -8.8232  -16.0254 C   0  0  1  0  0  0  0  0  0  0  0  0
   24.4218   -7.8910  -15.7824 C   0  0  0  0  0  0  0  0  0  0  0  0
   25.6298   -8.7365  -15.7593 C   0  0  0  0  0  0  0  0  0  0  0  0
   26.6098   -8.6963  -16.7415 C   0  0  0  0  0  0  0  0  0  0  0  0
   27.7193   -9.5028  -16.7010 C   0  0  0  0  0  0  0  0  0  0  0  0
   27.8874  -10.3910  -15.6582 C   0  0  0  0  0  0  0  0  0  0  0  0
   26.9330  -10.4479  -14.6798 C   0  0  0  0  0  0  0  0  0  0  0  0
   25.8054   -9.6367  -14.7088 C   0  0  0  0  0  0  0  0  0  0  0  0
   22.2411   -8.0006  -16.8039 C   0  0  0  0  0  0  0  0  0  0  0  0
   22.0642   -8.1811  -18.0485 O   0  0  0  0  0  0  0  0  0  0  0  0
   21.4973   -7.0029  -16.1492 N   0  0  0  0  0  0  0  0  0  0  0  0
   20.4739   -6.1705  -16.7775 C   0  0  1  0  0  0  0  0  0  0  0  0
   19.1513   -6.6972  -16.1623 C   0  0  0  0  0  0  0  0  0  0  0  0
   17.9802   -6.0059  -16.7369 C   0  0  0  0  0  0  0  0  0  0  0  0
   18.0347   -5.6054  -17.9343 O   0  0  0  0  0  0  0  0  0  0  0  0
   20.7087   -4.7775  -16.3213 C   0  0  0  0  0  0  0  0  0  0  0  0
   20.8377   -4.4774  -15.0862 O   0  0  0  0  0  0  0  0  0  0  0  0
   16.8608   -5.8142  -15.9591 O   0  0  0  0  0  0  0  0  0  0  0  0
   21.3605   -1.3891  -18.0190 C   0  0  0  0  0  0  0  0  0  0  0  0
   21.1410   -2.3226  -16.8424 C   0  0  2  0  0  0  0  0  0  0  0  0
   20.8105   -3.6615  -17.2223 N   0  0  0  0  0  0  0  0  0  0  0  0
   20.1176   -1.8055  -15.9180 C   0  0  0  0  0  0  0  0  0  0  0  0
   20.4397   -1.0171  -15.0046 O   0  0  0  0  0  0  0  0  0  0  0  0
   18.8069   -2.1867  -16.0558 O   0  0  0  0  0  0  0  0  0  0  0  0
  2  1  1  6
  2 10  1  0
  3  2  1  0
  4  9  2  0
  4  3  1  0
  5  4  1  0
  6  7  1  0
  6  5  2  0
  7  8  2  0
  8  9  1  0
 10 12  1  0
 11 10  2  0
 12 13  1  0
 13 17  1  0
 13 14  1  1
 15 19  1  0
 15 14  1  0
 16 15  2  0
 17 22  1  0
 17 18  2  0
 21 20  1  6
 22 21  1  0
 23 21  1  0
 23 25  1  0
 24 23  2  0
M  END
$$$$
