FDA.pdb
     RDKit          3D

 25 25  0  0  1  0  0  0  0  0999 V2000
   23.8532  -21.2595   -9.1668 N   0  0  0  0  0  0  0  0  0  0  0  0
   24.4178  -20.4125  -10.2119 C   0  0  1  0  0  0  0  0  0  0  0  0
   25.9190  -20.7624  -10.2290 C   0  0  0  0  0  0  0  0  0  0  0  0
   26.5162  -20.1787   -9.0135 C   0  0  0  0  0  0  0  0  0  0  0  0
   26.8722  -20.9285   -7.9010 C   0  0  0  0  0  0  0  0  0  0  0  0
   27.4162  -20.3576   -6.7779 C   0  0  0  0  0  0  0  0  0  0  0  0
   27.6256  -18.9943   -6.7308 C   0  0  0  0  0  0  0  0  0  0  0  0
   27.2809  -18.2361   -7.8160 C   0  0  0  0  0  0  0  0  0  0  0  0
   26.7297  -18.8017   -8.9591 C   0  0  0  0  0  0  0  0  0  0  0  0
   23.8921  -20.8934  -11.5272 C   0  0  0  0  0  0  0  0  0  0  0  0
   23.5657  -22.1072  -11.7082 O   0  0  0  0  0  0  0  0  0  0  0  0
   23.7531  -19.9860  -12.5923 N   0  0  0  0  0  0  0  0  0  0  0  0
   23.3108  -20.3355  -13.9404 C   0  0  1  0  0  0  0  0  0  0  0  0
   22.2981  -19.2144  -14.2910 C   0  0  0  0  0  0  0  0  0  0  0  0
   21.0068  -19.4256  -13.6072 C   0  0  0  0  0  0  0  0  0  0  0  0
   20.5928  -20.6073  -13.4362 O   0  0  0  0  0  0  0  0  0  0  0  0
   24.4959  -20.2235  -14.8275 C   0  0  0  0  0  0  0  0  0  0  0  0
   24.4219  -20.4053  -16.0899 O   0  0  0  0  0  0  0  0  0  0  0  0
   20.2866  -18.3357  -13.1736 O   0  0  0  0  0  0  0  0  0  0  0  0
   28.0914  -18.9838  -14.5896 C   0  0  0  0  0  0  0  0  0  0  0  0
   26.9998  -19.8825  -15.1417 C   0  0  2  0  0  0  0  0  0  0  0  0
   25.8120  -19.9032  -14.3449 N   0  0  0  0  0  0  0  0  0  0  0  0
   27.4787  -21.2599  -15.3489 C   0  0  0  0  0  0  0  0  0  0  0  0
   26.9825  -22.2005  -14.6942 O   0  0  0  0  0  0  0  0  0  0  0  0
   28.4708  -21.5159  -16.2612 O   0  0  0  0  0  0  0  0  0  0  0  0
  2  1  1  1
  2 10  1  0
  3  2  1  0
  4  9  2  0
  4  3  1  0
  5  4  1  0
  6  7  1  0
  6  5  2  0
  7  8  2  0
  8  9  1  0
 10 12  1  0
 11 10  2  0
 12 13  1  0
 13 17  1  0
 13 14  1  6
 15 19  1  0
 15 14  1  0
 16 15  2  0
 17 22  1  0
 17 18  2  0
 21 20  1  1
 22 21  1  0
 23 21  1  0
 23 25  1  0
 24 23  2  0
M  END
$$$$
