FDA.pdb
     RDKit          3D

 25 25  0  0  1  0  0  0  0  0999 V2000
   21.2143  -13.2100  -18.8419 N   0  0  0  0  0  0  0  0  0  0  0  0
   20.7404  -12.4071  -17.7197 C   0  0  1  0  0  0  0  0  0  0  0  0
   21.7121  -12.7340  -16.5684 C   0  0  0  0  0  0  0  0  0  0  0  0
   21.3114  -14.0424  -16.0187 C   0  0  0  0  0  0  0  0  0  0  0  0
   20.2689  -14.2058  -15.1170 C   0  0  0  0  0  0  0  0  0  0  0  0
   19.9243  -15.4346  -14.6124 C   0  0  0  0  0  0  0  0  0  0  0  0
   20.6236  -16.5593  -15.0005 C   0  0  0  0  0  0  0  0  0  0  0  0
   21.6557  -16.4208  -15.8877 C   0  0  0  0  0  0  0  0  0  0  0  0
   22.0144  -15.1828  -16.4061 C   0  0  0  0  0  0  0  0  0  0  0  0
   20.9931  -10.9689  -18.0444 C   0  0  0  0  0  0  0  0  0  0  0  0
   21.7952  -10.6277  -18.9680 O   0  0  0  0  0  0  0  0  0  0  0  0
   20.3304   -9.9662  -17.3147 N   0  0  0  0  0  0  0  0  0  0  0  0
   20.4787   -8.5296  -17.5366 C   0  0  1  0  0  0  0  0  0  0  0  0
   19.0260   -8.0514  -17.7940 C   0  0  0  0  0  0  0  0  0  0  0  0
   18.9776   -6.5984  -18.0508 C   0  0  0  0  0  0  0  0  0  0  0  0
   17.9420   -5.9542  -17.7195 O   0  0  0  0  0  0  0  0  0  0  0  0
   20.9720   -7.9437  -16.2649 C   0  0  0  0  0  0  0  0  0  0  0  0
   20.5208   -8.3080  -15.1265 O   0  0  0  0  0  0  0  0  0  0  0  0
   20.0563   -5.9812  -18.6425 O   0  0  0  0  0  0  0  0  0  0  0  0
   23.5620   -5.2818  -15.2529 C   0  0  0  0  0  0  0  0  0  0  0  0
   22.4806   -6.3194  -15.0118 C   0  0  2  0  0  0  0  0  0  0  0  0
   21.9888   -6.9285  -16.2090 N   0  0  0  0  0  0  0  0  0  0  0  0
   21.3539   -5.7656  -14.2416 C   0  0  0  0  0  0  0  0  0  0  0  0
   20.3914   -5.2343  -14.8339 O   0  0  0  0  0  0  0  0  0  0  0  0
   21.3561   -5.8310  -12.8712 O   0  0  0  0  0  0  0  0  0  0  0  0
  2  1  1  6
  2 10  1  0
  3  2  1  0
  4  9  2  0
  4  3  1  0
  5  4  1  0
  6  7  1  0
  6  5  2  0
  7  8  2  0
  8  9  1  0
 10 12  1  0
 11 10  2  0
 12 13  1  0
 13 17  1  0
 13 14  1  1
 15 19  1  0
 15 14  1  0
 16 15  2  0
 17 22  1  0
 17 18  2  0
 21 20  1  6
 22 21  1  0
 23 21  1  0
 23 25  1  0
 24 23  2  0
M  END
$$$$
