FDA.pdb
     RDKit          3D

 25 25  0  0  1  0  0  0  0  0999 V2000
   28.4648  -21.0437   -8.9208 N   0  0  0  0  0  0  0  0  0  0  0  0
   27.0127  -20.9043   -8.9381 C   0  0  1  0  0  0  0  0  0  0  0  0
   26.7376  -19.5927   -8.1762 C   0  0  0  0  0  0  0  0  0  0  0  0
   27.3387  -19.7327   -6.8369 C   0  0  0  0  0  0  0  0  0  0  0  0
   26.8170  -20.5541   -5.8470 C   0  0  0  0  0  0  0  0  0  0  0  0
   27.3906  -20.6571   -4.6046 C   0  0  0  0  0  0  0  0  0  0  0  0
   28.5248  -19.9291   -4.3072 C   0  0  0  0  0  0  0  0  0  0  0  0
   29.0552  -19.1124   -5.2680 C   0  0  0  0  0  0  0  0  0  0  0  0
   28.4844  -18.9994   -6.5296 C   0  0  0  0  0  0  0  0  0  0  0  0
   26.5940  -20.6296  -10.3476 C   0  0  0  0  0  0  0  0  0  0  0  0
   27.4308  -20.2615  -11.2291 O   0  0  0  0  0  0  0  0  0  0  0  0
   25.2445  -20.7808  -10.7124 N   0  0  0  0  0  0  0  0  0  0  0  0
   24.7206  -20.6378  -12.0689 C   0  0  1  0  0  0  0  0  0  0  0  0
   25.4606  -21.7468  -12.8613 C   0  0  0  0  0  0  0  0  0  0  0  0
   26.6660  -21.2157  -13.5281 C   0  0  0  0  0  0  0  0  0  0  0  0
   26.5613  -20.1787  -14.2428 O   0  0  0  0  0  0  0  0  0  0  0  0
   23.2723  -20.9581  -12.0097 C   0  0  0  0  0  0  0  0  0  0  0  0
   22.7576  -21.6107  -11.0393 O   0  0  0  0  0  0  0  0  0  0  0  0
   27.8708  -21.8589  -13.3570 O   0  0  0  0  0  0  0  0  0  0  0  0
   20.6543  -22.3197  -12.5979 C   0  0  0  0  0  0  0  0  0  0  0  0
   20.9468  -20.8991  -13.0459 C   0  0  2  0  0  0  0  0  0  0  0  0
   22.3373  -20.5639  -13.0286 N   0  0  0  0  0  0  0  0  0  0  0  0
   20.1914  -19.9109  -12.2571 C   0  0  0  0  0  0  0  0  0  0  0  0
   20.1387  -20.0105  -11.0134 O   0  0  0  0  0  0  0  0  0  0  0  0
   19.5429  -18.8773  -12.8842 O   0  0  0  0  0  0  0  0  0  0  0  0
  2  1  1  6
  2 10  1  0
  3  2  1  0
  4  9  2  0
  4  3  1  0
  5  4  1  0
  6  7  1  0
  6  5  2  0
  7  8  2  0
  8  9  1  0
 10 12  1  0
 11 10  2  0
 12 13  1  0
 13 17  1  0
 13 14  1  6
 15 19  1  0
 15 14  1  0
 16 15  2  0
 17 22  1  0
 17 18  2  0
 21 20  1  1
 22 21  1  0
 23 21  1  0
 23 25  1  0
 24 23  2  0
M  END
$$$$
