FDA.pdb
     RDKit          3D

 25 25  0  0  1  0  0  0  0  0999 V2000
   28.7503  -21.1439   -8.6980 N   0  0  0  0  0  0  0  0  0  0  0  0
   27.2993  -21.0237   -8.7906 C   0  0  1  0  0  0  0  0  0  0  0  0
   26.9724  -19.6925   -8.0852 C   0  0  0  0  0  0  0  0  0  0  0  0
   27.5338  -19.7716   -6.7239 C   0  0  0  0  0  0  0  0  0  0  0  0
   28.7164  -19.1500   -6.3475 C   0  0  0  0  0  0  0  0  0  0  0  0
   29.2222  -19.2494   -5.0756 C   0  0  0  0  0  0  0  0  0  0  0  0
   28.5493  -19.9865   -4.1225 C   0  0  0  0  0  0  0  0  0  0  0  0
   27.3821  -20.6084   -4.4723 C   0  0  0  0  0  0  0  0  0  0  0  0
   26.8592  -20.5154   -5.7562 C   0  0  0  0  0  0  0  0  0  0  0  0
   26.9474  -20.7987  -10.2269 C   0  0  0  0  0  0  0  0  0  0  0  0
   27.8424  -20.7024  -11.1226 O   0  0  0  0  0  0  0  0  0  0  0  0
   25.5964  -20.6906  -10.6014 N   0  0  0  0  0  0  0  0  0  0  0  0
   25.1050  -20.6808  -11.9775 C   0  0  1  0  0  0  0  0  0  0  0  0
   25.5599  -22.0552  -12.5338 C   0  0  0  0  0  0  0  0  0  0  0  0
   25.1428  -22.2292  -13.9393 C   0  0  0  0  0  0  0  0  0  0  0  0
   25.1374  -21.2226  -14.7034 O   0  0  0  0  0  0  0  0  0  0  0  0
   23.6226  -20.6441  -11.9076 C   0  0  0  0  0  0  0  0  0  0  0  0
   22.9625  -21.3422  -11.0655 O   0  0  0  0  0  0  0  0  0  0  0  0
   24.7711  -23.4778  -14.3834 O   0  0  0  0  0  0  0  0  0  0  0  0
   20.8015  -18.7630  -13.7291 C   0  0  0  0  0  0  0  0  0  0  0  0
   21.3864  -19.7543  -12.7395 C   0  0  2  0  0  0  0  0  0  0  0  0
   22.8146  -19.8275  -12.7723 N   0  0  0  0  0  0  0  0  0  0  0  0
   20.8193  -21.1021  -12.9162 C   0  0  0  0  0  0  0  0  0  0  0  0
   21.3748  -21.9201  -13.6790 O   0  0  0  0  0  0  0  0  0  0  0  0
   19.6796  -21.4651  -12.2443 O   0  0  0  0  0  0  0  0  0  0  0  0
  2  1  1  6
  2 10  1  0
  3  2  1  0
  4  9  2  0
  4  3  1  0
  5  4  1  0
  6  7  1  0
  6  5  2  0
  7  8  2  0
  8  9  1  0
 10 12  1  0
 11 10  2  0
 12 13  1  0
 13 17  1  0
 13 14  1  1
 15 19  1  0
 15 14  1  0
 16 15  2  0
 17 22  1  0
 17 18  2  0
 21 20  1  6
 22 21  1  0
 23 21  1  0
 23 25  1  0
 24 23  2  0
M  END
$$$$
