SLI.pdb
     RDKit          3D

 23 22  0  0  1  0  0  0  0  0999 V2000
   28.4411  -35.5952   -7.4661 O   0  0  0  0  0  0  0  0  0  0  0  0
   27.3043  -35.2950   -8.1741 C   0  0  0  0  0  0  0  0  0  0  0  0
   27.1922  -33.8407   -8.5523 C   0  0  2  0  0  0  0  0  0  0  0  0
   27.0071  -33.0224   -7.3689 N   0  0  0  0  0  0  0  0  0  0  0  0
   26.1497  -33.5585   -9.5308 C   0  0  0  0  0  0  0  0  0  0  0  0
   25.1859  -32.8082   -9.2325 O   0  0  0  0  0  0  0  0  0  0  0  0
   26.9404  -31.8313  -13.7588 C   0  0  0  0  0  0  0  0  0  0  0  0
   26.9809  -33.3167  -13.6770 C   0  0  2  0  0  0  0  0  0  0  0  0
   27.3042  -33.8292  -15.0937 C   0  0  0  0  0  0  0  0  0  0  0  0
   25.7488  -34.0091  -13.2591 C   0  0  0  0  0  0  0  0  0  0  0  0
   25.2532  -33.8354  -11.8780 C   0  0  2  0  0  0  0  0  0  0  0  0
   26.2188  -34.1323  -10.8305 N   0  0  0  0  0  0  0  0  0  0  0  0
   23.9518  -34.4696  -11.6025 C   0  0  0  0  0  0  0  0  0  0  0  0
   23.8838  -35.6686  -11.2861 O   0  0  0  0  0  0  0  0  0  0  0  0
   20.6668  -33.1276   -7.9004 C   0  0  0  0  0  0  0  0  0  0  0  0
   21.3261  -33.8918   -9.0241 C   0  0  0  0  0  0  0  0  0  0  0  0
   20.8218  -33.5038  -10.3688 C   0  0  2  0  0  0  0  0  0  0  0  0
   19.3127  -33.4796  -10.4492 C   0  0  0  0  0  0  0  0  0  0  0  0
   21.4377  -34.2539  -11.5236 C   0  0  2  0  0  0  0  0  0  0  0  0
   22.7756  -33.7009  -11.7007 N   0  0  0  0  0  0  0  0  0  0  0  0
   20.6667  -34.2342  -12.7632 C   0  0  0  0  0  0  0  0  0  0  0  0
   21.0334  -33.4242  -13.8221 O   0  0  0  0  0  0  0  0  0  0  0  0
   19.6376  -34.9414  -12.9391 O   0  0  0  0  0  0  0  0  0  0  0  0
  2  1  1  0
  3  2  1  0
  3  4  1  1
  5  6  2  0
  5  3  1  0
  8  7  1  6
  8 10  1  0
  9  8  1  0
 11 10  1  6
 11 12  1  0
 12  5  1  0
 13 11  1  0
 13 20  1  0
 14 13  2  0
 16 15  1  0
 17 19  1  0
 17 16  1  0
 17 18  1  1
 19 20  1  6
 19 21  1  0
 21 23  2  0
 21 22  1  0
M  END
$$$$
