SLI.pdb
     RDKit          3D

 23 22  0  0  1  0  0  0  0  0999 V2000
   27.0359  -18.7567  -15.7377 O   0  0  0  0  0  0  0  0  0  0  0  0
   27.9756  -19.0797  -14.7909 C   0  0  0  0  0  0  0  0  0  0  0  0
   28.1644  -20.5632  -14.6060 C   0  0  2  0  0  0  0  0  0  0  0  0
   28.4571  -21.1988  -15.8768 N   0  0  0  0  0  0  0  0  0  0  0  0
   27.0444  -21.2293  -13.9533 C   0  0  0  0  0  0  0  0  0  0  0  0
   26.2909  -21.9929  -14.6088 O   0  0  0  0  0  0  0  0  0  0  0  0
   27.0115  -20.6379   -8.5161 C   0  0  0  0  0  0  0  0  0  0  0  0
   26.1432  -20.3229   -9.6830 C   0  0  2  0  0  0  0  0  0  0  0  0
   24.9307  -19.5457   -9.1352 C   0  0  0  0  0  0  0  0  0  0  0  0
   25.5949  -21.4563  -10.4490 C   0  0  0  0  0  0  0  0  0  0  0  0
   25.5450  -21.3774  -11.9236 C   0  0  2  0  0  0  0  0  0  0  0  0
   26.7990  -21.0173  -12.5683 N   0  0  0  0  0  0  0  0  0  0  0  0
   24.4202  -20.5937  -12.4643 C   0  0  0  0  0  0  0  0  0  0  0  0
   24.4575  -19.3524  -12.4737 O   0  0  0  0  0  0  0  0  0  0  0  0
   22.9510  -21.2184  -17.2369 C   0  0  0  0  0  0  0  0  0  0  0  0
   23.1254  -20.7081  -15.8259 C   0  0  0  0  0  0  0  0  0  0  0  0
   21.9797  -21.0428  -14.9381 C   0  0  2  0  0  0  0  0  0  0  0  0
   20.6429  -20.6559  -15.5280 C   0  0  0  0  0  0  0  0  0  0  0  0
   22.1220  -20.5814  -13.5090 C   0  0  2  0  0  0  0  0  0  0  0  0
   23.2933  -21.2670  -12.9750 N   0  0  0  0  0  0  0  0  0  0  0  0
   20.9427  -20.7741  -12.6702 C   0  0  0  0  0  0  0  0  0  0  0  0
   20.6756  -21.9955  -12.0796 O   0  0  0  0  0  0  0  0  0  0  0  0
   20.1110  -19.8550  -12.4390 O   0  0  0  0  0  0  0  0  0  0  0  0
  2  1  1  0
  3  2  1  0
  3  4  1  6
  5  6  2  0
  5  3  1  0
  8  7  1  1
  8 10  1  0
  9  8  1  0
 11 10  1  1
 11 12  1  0
 12  5  1  0
 13 11  1  0
 13 20  1  0
 14 13  2  0
 16 15  1  0
 17 19  1  0
 17 16  1  0
 17 18  1  6
 19 20  1  1
 19 21  1  0
 21 23  2  0
 21 22  1  0
M  END
$$$$
