SLI.pdb
     RDKit          3D

 23 22  0  0  1  0  0  0  0  0999 V2000
   15.9646  -17.4894    9.2836 O   0  0  0  0  0  0  0  0  0  0  0  0
   15.9336  -18.0048    8.0119 C   0  0  0  0  0  0  0  0  0  0  0  0
   15.3661  -17.0566    6.9875 C   0  0  2  0  0  0  0  0  0  0  0  0
   13.9175  -17.0372    7.0630 N   0  0  0  0  0  0  0  0  0  0  0  0
   15.7980  -17.3270    5.6221 C   0  0  0  0  0  0  0  0  0  0  0  0
   15.1267  -18.0922    4.8841 O   0  0  0  0  0  0  0  0  0  0  0  0
   20.0651  -15.2718    1.4591 C   0  0  0  0  0  0  0  0  0  0  0  0
   18.9114  -16.1240    1.8563 C   0  0  2  0  0  0  0  0  0  0  0  0
   17.7534  -15.7736    0.9021 C   0  0  0  0  0  0  0  0  0  0  0  0
   18.3836  -15.9611    3.2227 C   0  0  0  0  0  0  0  0  0  0  0  0
   17.5139  -17.0106    3.7930 C   0  0  2  0  0  0  0  0  0  0  0  0
   16.9838  -16.7246    5.1178 N   0  0  0  0  0  0  0  0  0  0  0  0
   18.0612  -18.3769    3.7184 C   0  0  0  0  0  0  0  0  0  0  0  0
   18.2659  -18.9200    2.6205 O   0  0  0  0  0  0  0  0  0  0  0  0
   22.1618  -21.2197    7.0377 C   0  0  0  0  0  0  0  0  0  0  0  0
   20.9240  -21.4502    6.2033 C   0  0  0  0  0  0  0  0  0  0  0  0
   20.2434  -20.1882    5.8071 C   0  0  2  0  0  0  0  0  0  0  0  0
   19.9830  -19.2657    6.9757 C   0  0  0  0  0  0  0  0  0  0  0  0
   19.0196  -20.3656    4.9431 C   0  0  2  0  0  0  0  0  0  0  0  0
   18.3535  -19.0686    4.9102 N   0  0  0  0  0  0  0  0  0  0  0  0
   18.1162  -21.4369    5.3525 C   0  0  0  0  0  0  0  0  0  0  0  0
   17.1976  -21.2500    6.3690 O   0  0  0  0  0  0  0  0  0  0  0  0
   18.1200  -22.5771    4.8140 O   0  0  0  0  0  0  0  0  0  0  0  0
  2  1  1  0
  3  2  1  0
  3  4  1  6
  5  6  2  0
  5  3  1  0
  8  7  1  6
  8 10  1  0
  9  8  1  0
 11 10  1  1
 11 12  1  0
 12  5  1  0
 13 11  1  0
 13 20  1  0
 14 13  2  0
 16 15  1  0
 17 19  1  0
 17 16  1  0
 17 18  1  1
 19 20  1  1
 19 21  1  0
 21 23  2  0
 21 22  1  0
M  END
$$$$
