SLI.pdb
     RDKit          3D

 23 22  0  0  1  0  0  0  0  0999 V2000
   21.4729  -10.2870  -21.5733 O   0  0  0  0  0  0  0  0  0  0  0  0
   20.6706  -11.3955  -21.4667 C   0  0  0  0  0  0  0  0  0  0  0  0
   21.1114  -12.3620  -20.3979 C   0  0  2  0  0  0  0  0  0  0  0  0
   20.2376  -13.5197  -20.3705 N   0  0  0  0  0  0  0  0  0  0  0  0
   21.2136  -11.7737  -19.0685 C   0  0  0  0  0  0  0  0  0  0  0  0
   20.1875  -11.6348  -18.3555 O   0  0  0  0  0  0  0  0  0  0  0  0
   23.2732  -12.9760  -15.1624 C   0  0  0  0  0  0  0  0  0  0  0  0
   24.1820  -12.3557  -16.1646 C   0  0  2  0  0  0  0  0  0  0  0  0
   25.5881  -12.3367  -15.5346 C   0  0  0  0  0  0  0  0  0  0  0  0
   23.8960  -10.9700  -16.5770 C   0  0  0  0  0  0  0  0  0  0  0  0
   22.6394  -10.6727  -17.2950 C   0  0  2  0  0  0  0  0  0  0  0  0
   22.4783  -11.3533  -18.5713 N   0  0  0  0  0  0  0  0  0  0  0  0
   22.3140   -9.2398  -17.4072 C   0  0  0  0  0  0  0  0  0  0  0  0
   22.8479   -8.5335  -18.2781 O   0  0  0  0  0  0  0  0  0  0  0  0
   17.7171   -5.8996  -18.1063 C   0  0  0  0  0  0  0  0  0  0  0  0
   19.0272   -5.8860  -17.3546 C   0  0  0  0  0  0  0  0  0  0  0  0
   19.6103   -7.2424  -17.1728 C   0  0  2  0  0  0  0  0  0  0  0  0
   18.6643   -8.2055  -16.4930 C   0  0  0  0  0  0  0  0  0  0  0  0
   20.9859   -7.2695  -16.5542 C   0  0  2  0  0  0  0  0  0  0  0  0
   21.3858   -8.6715  -16.5130 N   0  0  0  0  0  0  0  0  0  0  0  0
   21.0955   -6.6284  -15.2472 C   0  0  0  0  0  0  0  0  0  0  0  0
   21.3008   -7.3719  -14.0996 O   0  0  0  0  0  0  0  0  0  0  0  0
   21.0101   -5.3803  -15.0891 O   0  0  0  0  0  0  0  0  0  0  0  0
  2  1  1  0
  3  2  1  0
  3  4  1  1
  5  6  2  0
  5  3  1  0
  8  7  1  1
  8 10  1  0
  9  8  1  0
 11 10  1  6
 11 12  1  0
 12  5  1  0
 13 11  1  0
 13 20  1  0
 14 13  2  0
 16 15  1  0
 17 19  1  0
 17 16  1  0
 17 18  1  1
 19 20  1  1
 19 21  1  0
 21 23  2  0
 21 22  1  0
M  END
$$$$
