SLI.pdb
     RDKit          3D

 23 22  0  0  1  0  0  0  0  0999 V2000
   28.2747  -18.7070  -15.3602 O   0  0  0  0  0  0  0  0  0  0  0  0
   27.4962  -19.3880  -14.4581 C   0  0  0  0  0  0  0  0  0  0  0  0
   28.2055  -20.5395  -13.7934 C   0  0  2  0  0  0  0  0  0  0  0  0
   28.4454  -21.6054  -14.7476 N   0  0  0  0  0  0  0  0  0  0  0  0
   27.5227  -21.0592  -12.6154 C   0  0  0  0  0  0  0  0  0  0  0  0
   26.7803  -22.0697  -12.7066 O   0  0  0  0  0  0  0  0  0  0  0  0
   26.5843  -19.1438   -6.6652 C   0  0  0  0  0  0  0  0  0  0  0  0
   26.2592  -20.0242   -7.8202 C   0  0  2  0  0  0  0  0  0  0  0  0
   26.2464  -21.4691   -7.2852 C   0  0  0  0  0  0  0  0  0  0  0  0
   27.1878  -20.0163   -8.9646 C   0  0  0  0  0  0  0  0  0  0  0  0
   26.7420  -20.5629  -10.2629 C   0  0  2  0  0  0  0  0  0  0  0  0
   27.6943  -20.4235  -11.3545 N   0  0  0  0  0  0  0  0  0  0  0  0
   25.3888  -20.1512  -10.6766 C   0  0  0  0  0  0  0  0  0  0  0  0
   25.1442  -18.9673  -10.9610 O   0  0  0  0  0  0  0  0  0  0  0  0
   23.6337  -21.9821  -14.8627 C   0  0  0  0  0  0  0  0  0  0  0  0
   23.7728  -21.1473  -13.6116 C   0  0  0  0  0  0  0  0  0  0  0  0
   22.8557  -21.5731  -12.5205 C   0  0  2  0  0  0  0  0  0  0  0  0
   21.4105  -21.6435  -12.9576 C   0  0  0  0  0  0  0  0  0  0  0  0
   23.0174  -20.8249  -11.2206 C   0  0  2  0  0  0  0  0  0  0  0  0
   24.3661  -21.1170  -10.7483 N   0  0  0  0  0  0  0  0  0  0  0  0
   22.0066  -21.1094  -10.2064 C   0  0  0  0  0  0  0  0  0  0  0  0
   20.8110  -20.4155  -10.1723 O   0  0  0  0  0  0  0  0  0  0  0  0
   22.1607  -21.9885   -9.3157 O   0  0  0  0  0  0  0  0  0  0  0  0
  2  1  1  0
  3  2  1  0
  3  4  1  6
  5  6  2  0
  5  3  1  0
  8  7  1  1
  8 10  1  0
  9  8  1  0
 11 10  1  1
 11 12  1  0
 12  5  1  0
 13 11  1  0
 13 20  1  0
 14 13  2  0
 16 15  1  0
 17 19  1  0
 17 16  1  0
 17 18  1  6
 19 20  1  1
 19 21  1  0
 21 23  2  0
 21 22  1  0
M  END
$$$$
