SLI.pdb
     RDKit          3D

 23 22  0  0  1  0  0  0  0  0999 V2000
   28.1518  -18.3266  -16.6686 O   0  0  0  0  0  0  0  0  0  0  0  0
   27.1111  -19.0480  -16.1391 C   0  0  0  0  0  0  0  0  0  0  0  0
   27.5511  -20.2149  -15.2935 C   0  0  2  0  0  0  0  0  0  0  0  0
   28.1839  -21.2274  -16.1174 N   0  0  0  0  0  0  0  0  0  0  0  0
   26.4856  -20.8064  -14.4942 C   0  0  0  0  0  0  0  0  0  0  0  0
   25.8642  -21.8161  -14.9129 O   0  0  0  0  0  0  0  0  0  0  0  0
   26.2605  -22.2885  -10.0497 C   0  0  0  0  0  0  0  0  0  0  0  0
   26.1303  -20.8208  -10.2593 C   0  0  2  0  0  0  0  0  0  0  0  0
   25.9856  -20.1856   -8.8629 C   0  0  0  0  0  0  0  0  0  0  0  0
   24.9808  -20.3455  -11.0498 C   0  0  0  0  0  0  0  0  0  0  0  0
   24.9411  -20.6118  -12.5026 C   0  0  2  0  0  0  0  0  0  0  0  0
   26.1437  -20.2421  -13.2340 N   0  0  0  0  0  0  0  0  0  0  0  0
   23.7282  -20.1309  -13.1876 C   0  0  0  0  0  0  0  0  0  0  0  0
   23.5595  -18.9199  -13.4051 O   0  0  0  0  0  0  0  0  0  0  0  0
   22.6426  -21.6959  -17.8017 C   0  0  0  0  0  0  0  0  0  0  0  0
   22.6652  -20.9892  -16.4670 C   0  0  0  0  0  0  0  0  0  0  0  0
   21.5100  -21.3430  -15.5991 C   0  0  2  0  0  0  0  0  0  0  0  0
   20.1794  -21.2084  -16.3032 C   0  0  0  0  0  0  0  0  0  0  0  0
   21.5021  -20.6811  -14.2436 C   0  0  2  0  0  0  0  0  0  0  0  0
   22.7534  -21.0612  -13.5980 N   0  0  0  0  0  0  0  0  0  0  0  0
   20.3412  -20.9790  -13.4100 C   0  0  0  0  0  0  0  0  0  0  0  0
   19.2545  -20.1251  -13.3636 O   0  0  0  0  0  0  0  0  0  0  0  0
   20.2615  -22.0139  -12.6941 O   0  0  0  0  0  0  0  0  0  0  0  0
  2  1  1  0
  3  2  1  0
  3  4  1  6
  5  6  2  0
  5  3  1  0
  8  7  1  1
  8 10  1  0
  9  8  1  0
 11 10  1  1
 11 12  1  0
 12  5  1  0
 13 11  1  0
 13 20  1  0
 14 13  2  0
 16 15  1  0
 17 19  1  0
 17 16  1  0
 17 18  1  6
 19 20  1  1
 19 21  1  0
 21 23  2  0
 21 22  1  0
M  END
$$$$
