SLI.pdb
     RDKit          3D

 23 22  0  0  1  0  0  0  0  0999 V2000
   20.9523  -18.1670  -15.6444 O   0  0  0  0  0  0  0  0  0  0  0  0
   21.5525  -19.1217  -14.8620 C   0  0  0  0  0  0  0  0  0  0  0  0
   22.4503  -20.0574  -15.6294 C   0  0  2  0  0  0  0  0  0  0  0  0
   21.7050  -21.2166  -16.0824 N   0  0  0  0  0  0  0  0  0  0  0  0
   23.6398  -20.4748  -14.8981 C   0  0  0  0  0  0  0  0  0  0  0  0
   23.6016  -21.4818  -14.1463 O   0  0  0  0  0  0  0  0  0  0  0  0
   28.1828  -21.5056  -15.9661 C   0  0  0  0  0  0  0  0  0  0  0  0
   27.8044  -20.0663  -15.9762 C   0  0  2  0  0  0  0  0  0  0  0  0
   29.0791  -19.2762  -16.3298 C   0  0  0  0  0  0  0  0  0  0  0  0
   27.2955  -19.4875  -14.7200 C   0  0  0  0  0  0  0  0  0  0  0  0
   26.0067  -19.9609  -14.1742 C   0  0  2  0  0  0  0  0  0  0  0  0
   24.8519  -19.7425  -15.0325 N   0  0  0  0  0  0  0  0  0  0  0  0
   25.7304  -19.5441  -12.7880 C   0  0  0  0  0  0  0  0  0  0  0  0
   25.3833  -18.3795  -12.5321 O   0  0  0  0  0  0  0  0  0  0  0  0
   21.9156  -20.8876  -10.2095 C   0  0  0  0  0  0  0  0  0  0  0  0
   23.2146  -20.2871  -10.6928 C   0  0  0  0  0  0  0  0  0  0  0  0
   24.3931  -20.7297   -9.9002 C   0  0  2  0  0  0  0  0  0  0  0  0
   24.1823  -20.6049   -8.4088 C   0  0  0  0  0  0  0  0  0  0  0  0
   25.7132  -20.1437  -10.3357 C   0  0  2  0  0  0  0  0  0  0  0  0
   25.8632  -20.4829  -11.7463 N   0  0  0  0  0  0  0  0  0  0  0  0
   26.8700  -20.5551   -9.5458 C   0  0  0  0  0  0  0  0  0  0  0  0
   27.2060  -19.9023   -8.3740 O   0  0  0  0  0  0  0  0  0  0  0  0
   27.6195  -21.5127   -9.8792 O   0  0  0  0  0  0  0  0  0  0  0  0
  2  1  1  0
  3  2  1  0
  3  4  1  1
  5  6  2  0
  5  3  1  0
  8  7  1  1
  8 10  1  0
  9  8  1  0
 11 10  1  6
 11 12  1  0
 12  5  1  0
 13 11  1  0
 13 20  1  0
 14 13  2  0
 16 15  1  0
 17 19  1  0
 17 16  1  0
 17 18  1  1
 19 20  1  6
 19 21  1  0
 21 23  2  0
 21 22  1  0
M  END
$$$$
