SLI.pdb
     RDKit          3D

 23 22  0  0  1  0  0  0  0  0999 V2000
   17.8475  -12.4645  -19.1118 O   0  0  0  0  0  0  0  0  0  0  0  0
   18.2581  -11.4177  -18.3248 C   0  0  0  0  0  0  0  0  0  0  0  0
   19.3160  -11.7937  -17.3198 C   0  0  2  0  0  0  0  0  0  0  0  0
   18.8206  -12.8212  -16.4234 N   0  0  0  0  0  0  0  0  0  0  0  0
   19.8407  -10.6676  -16.5579 C   0  0  0  0  0  0  0  0  0  0  0  0
   19.1149  -10.0760  -15.7189 O   0  0  0  0  0  0  0  0  0  0  0  0
   23.3415   -9.9497  -13.5606 C   0  0  0  0  0  0  0  0  0  0  0  0
   23.7480  -10.0286  -14.9901 C   0  0  2  0  0  0  0  0  0  0  0  0
   25.2748   -9.8246  -15.0277 C   0  0  0  0  0  0  0  0  0  0  0  0
   23.1761   -9.0349  -15.9162 C   0  0  0  0  0  0  0  0  0  0  0  0
   21.7182   -9.0234  -16.1562 C   0  0  2  0  0  0  0  0  0  0  0  0
   21.1796  -10.2324  -16.7612 N   0  0  0  0  0  0  0  0  0  0  0  0
   21.2109   -7.8152  -16.8304 C   0  0  0  0  0  0  0  0  0  0  0  0
   21.3678   -7.6563  -18.0521 O   0  0  0  0  0  0  0  0  0  0  0  0
   16.4619   -5.0510  -18.0487 C   0  0  0  0  0  0  0  0  0  0  0  0
   17.8720   -4.7123  -17.6262 C   0  0  0  0  0  0  0  0  0  0  0  0
   18.5986   -5.8687  -17.0365 C   0  0  2  0  0  0  0  0  0  0  0  0
   17.8275   -6.5475  -15.9279 C   0  0  0  0  0  0  0  0  0  0  0  0
   20.0286   -5.5924  -16.6436 C   0  0  2  0  0  0  0  0  0  0  0  0
   20.5411   -6.8335  -16.0743 N   0  0  0  0  0  0  0  0  0  0  0  0
   20.2216   -4.4561  -15.7476 C   0  0  0  0  0  0  0  0  0  0  0  0
   20.2055   -3.1578  -16.2233 O   0  0  0  0  0  0  0  0  0  0  0  0
   20.4123   -4.5880  -14.5081 O   0  0  0  0  0  0  0  0  0  0  0  0
  2  1  1  0
  3  2  1  0
  3  4  1  1
  5  6  2  0
  5  3  1  0
  8  7  1  1
  8 10  1  0
  9  8  1  0
 11 10  1  6
 11 12  1  0
 12  5  1  0
 13 11  1  0
 13 20  1  0
 14 13  2  0
 16 15  1  0
 17 19  1  0
 17 16  1  0
 17 18  1  1
 19 20  1  1
 19 21  1  0
 21 23  2  0
 21 22  1  0
M  END
$$$$
