SLI.pdb
     RDKit          3D

 23 22  0  0  1  0  0  0  0  0999 V2000
   27.1008  -18.7253  -16.6237 O   0  0  0  0  0  0  0  0  0  0  0  0
   27.6369  -19.8594  -17.1807 C   0  0  0  0  0  0  0  0  0  0  0  0
   28.0922  -20.8759  -16.1658 C   0  0  2  0  0  0  0  0  0  0  0  0
   28.6033  -22.0603  -16.8294 N   0  0  0  0  0  0  0  0  0  0  0  0
   27.0725  -21.2423  -15.1912 C   0  0  0  0  0  0  0  0  0  0  0  0
   26.1952  -22.0950  -15.4809 O   0  0  0  0  0  0  0  0  0  0  0  0
   25.5677  -20.0478   -9.1741 C   0  0  0  0  0  0  0  0  0  0  0  0
   25.2597  -20.6013  -10.5208 C   0  0  2  0  0  0  0  0  0  0  0  0
   24.9671  -22.1016  -10.3261 C   0  0  0  0  0  0  0  0  0  0  0  0
   26.3125  -20.5163  -11.5486 C   0  0  0  0  0  0  0  0  0  0  0  0
   25.9730  -20.8002  -12.9583 C   0  0  2  0  0  0  0  0  0  0  0  0
   27.0659  -20.6349  -13.9049 N   0  0  0  0  0  0  0  0  0  0  0  0
   24.7423  -20.1499  -13.4422 C   0  0  0  0  0  0  0  0  0  0  0  0
   24.6863  -18.9166  -13.5767 O   0  0  0  0  0  0  0  0  0  0  0  0
   22.6770  -20.6563  -17.8977 C   0  0  0  0  0  0  0  0  0  0  0  0
   23.0002  -20.2491  -16.4795 C   0  0  0  0  0  0  0  0  0  0  0  0
   22.0119  -20.7520  -15.4879 C   0  0  2  0  0  0  0  0  0  0  0  0
   20.5825  -20.4435  -15.8701 C   0  0  0  0  0  0  0  0  0  0  0  0
   22.3045  -20.3895  -14.0531 C   0  0  2  0  0  0  0  0  0  0  0  0
   23.6204  -20.9426  -13.7540 N   0  0  0  0  0  0  0  0  0  0  0  0
   21.2976  -20.8127  -13.0844 C   0  0  0  0  0  0  0  0  0  0  0  0
   20.3786  -19.9172  -12.5688 O   0  0  0  0  0  0  0  0  0  0  0  0
   21.2078  -21.9988  -12.6661 O   0  0  0  0  0  0  0  0  0  0  0  0
  2  1  1  0
  3  2  1  0
  3  4  1  6
  5  6  2  0
  5  3  1  0
  8  7  1  1
  8 10  1  0
  9  8  1  0
 11 10  1  1
 11 12  1  0
 12  5  1  0
 13 11  1  0
 13 20  1  0
 14 13  2  0
 16 15  1  0
 17 19  1  0
 17 16  1  0
 17 18  1  6
 19 20  1  1
 19 21  1  0
 21 23  2  0
 21 22  1  0
M  END
$$$$
