SLI.pdb
     RDKit          3D

 23 22  0  0  1  0  0  0  0  0999 V2000
   25.1033  -19.0350  -14.5926 O   0  0  0  0  0  0  0  0  0  0  0  0
   24.9288  -20.2989  -15.0983 C   0  0  0  0  0  0  0  0  0  0  0  0
   26.1428  -21.1805  -14.9584 C   0  0  2  0  0  0  0  0  0  0  0  0
   25.9860  -22.3875  -15.7477 N   0  0  0  0  0  0  0  0  0  0  0  0
   26.4788  -21.5171  -13.5807 C   0  0  0  0  0  0  0  0  0  0  0  0
   25.7638  -22.3224  -12.9319 O   0  0  0  0  0  0  0  0  0  0  0  0
   30.3819  -23.2089  -11.1482 C   0  0  0  0  0  0  0  0  0  0  0  0
   30.3263  -21.8361  -11.7203 C   0  0  2  0  0  0  0  0  0  0  0  0
   31.7015  -21.1921  -11.4591 C   0  0  0  0  0  0  0  0  0  0  0  0
   29.3243  -20.9080  -11.1665 C   0  0  0  0  0  0  0  0  0  0  0  0
   27.9042  -21.0668  -11.5423 C   0  0  2  0  0  0  0  0  0  0  0  0
   27.6200  -20.9341  -12.9633 N   0  0  0  0  0  0  0  0  0  0  0  0
   26.9572  -20.2817  -10.7309 C   0  0  0  0  0  0  0  0  0  0  0  0
   26.6481  -19.1243  -11.0580 O   0  0  0  0  0  0  0  0  0  0  0  0
   22.0714  -21.1598   -9.5426 C   0  0  0  0  0  0  0  0  0  0  0  0
   23.4032  -20.4543   -9.6434 C   0  0  0  0  0  0  0  0  0  0  0  0
   24.2956  -20.7231   -8.4840 C   0  0  2  0  0  0  0  0  0  0  0  0
   23.6318  -20.4542   -7.1530 C   0  0  0  0  0  0  0  0  0  0  0  0
   25.6639  -20.0939   -8.5708 C   0  0  2  0  0  0  0  0  0  0  0  0
   26.3998  -20.8572   -9.5723 N   0  0  0  0  0  0  0  0  0  0  0  0
   26.3900  -20.0015   -7.3077 C   0  0  0  0  0  0  0  0  0  0  0  0
   27.2713  -20.9916   -6.9139 O   0  0  0  0  0  0  0  0  0  0  0  0
   26.2587  -19.0310   -6.5134 O   0  0  0  0  0  0  0  0  0  0  0  0
  2  1  1  0
  3  2  1  0
  3  4  1  6
  5  6  2  0
  5  3  1  0
  8  7  1  1
  8 10  1  0
  9  8  1  0
 11 10  1  6
 11 12  1  0
 12  5  1  0
 13 11  1  0
 13 20  1  0
 14 13  2  0
 16 15  1  0
 17 19  1  0
 17 16  1  0
 17 18  1  1
 19 20  1  6
 19 21  1  0
 21 23  2  0
 21 22  1  0
M  END
$$$$
