SLI.pdb
     RDKit          3D

 23 22  0  0  1  0  0  0  0  0999 V2000
   16.7570  -11.3616  -16.9065 O   0  0  0  0  0  0  0  0  0  0  0  0
   16.4433  -10.0690  -17.2448 C   0  0  0  0  0  0  0  0  0  0  0  0
   17.6371   -9.2398  -17.6422 C   0  0  2  0  0  0  0  0  0  0  0  0
   18.2091   -9.7359  -18.8796 N   0  0  0  0  0  0  0  0  0  0  0  0
   18.6644   -9.1435  -16.6129 C   0  0  0  0  0  0  0  0  0  0  0  0
   18.3841   -8.6804  -15.4781 O   0  0  0  0  0  0  0  0  0  0  0  0
   24.5139  -11.1574  -15.4791 C   0  0  0  0  0  0  0  0  0  0  0  0
   23.3854  -10.2205  -15.2271 C   0  0  2  0  0  0  0  0  0  0  0  0
   22.9772  -10.4060  -13.7529 C   0  0  0  0  0  0  0  0  0  0  0  0
   22.1577  -10.4045  -16.0214 C   0  0  0  0  0  0  0  0  0  0  0  0
   21.0952   -9.3796  -15.9604 C   0  0  2  0  0  0  0  0  0  0  0  0
   19.9917   -9.5741  -16.8891 N   0  0  0  0  0  0  0  0  0  0  0  0
   21.5759   -7.9868  -15.9839 C   0  0  0  0  0  0  0  0  0  0  0  0
   22.2521   -7.5642  -16.9360 O   0  0  0  0  0  0  0  0  0  0  0  0
   19.7435   -2.5826  -15.7649 C   0  0  0  0  0  0  0  0  0  0  0  0
   20.8871   -3.4177  -15.2393 C   0  0  0  0  0  0  0  0  0  0  0  0
   20.6110   -4.8788  -15.2822 C   0  0  2  0  0  0  0  0  0  0  0  0
   19.2971   -5.2509  -14.6343 C   0  0  0  0  0  0  0  0  0  0  0  0
   21.7429   -5.7576  -14.8107 C   0  0  2  0  0  0  0  0  0  0  0  0
   21.2608   -7.1304  -14.9108 N   0  0  0  0  0  0  0  0  0  0  0  0
   22.2578   -5.4519  -13.4793 C   0  0  0  0  0  0  0  0  0  0  0  0
   23.0617   -4.3488  -13.2580 O   0  0  0  0  0  0  0  0  0  0  0  0
   22.0058   -6.1634  -12.4692 O   0  0  0  0  0  0  0  0  0  0  0  0
  2  1  1  0
  3  2  1  0
  3  4  1  6
  5  6  2  0
  5  3  1  0
  8  7  1  6
  8 10  1  0
  9  8  1  0
 11 10  1  6
 11 12  1  0
 12  5  1  0
 13 11  1  0
 13 20  1  0
 14 13  2  0
 16 15  1  0
 17 19  1  0
 17 16  1  0
 17 18  1  1
 19 20  1  1
 19 21  1  0
 21 23  2  0
 21 22  1  0
M  END
$$$$
