STH.pdb
     RDKit          3D

 24 24  0  0  1  0  0  0  0  0999 V2000
   20.3926  -15.4765  -15.7329 O   0  0  0  0  0  0  0  0  0  0  0  0
   19.9726  -14.2544  -16.2151 C   0  0  0  0  0  0  0  0  0  0  0  0
   18.4603  -14.1930  -16.3163 C   0  0  2  0  0  0  0  0  0  0  0  0
   17.9683  -14.9977  -17.3919 N   0  0  0  0  0  0  0  0  0  0  0  0
   18.1060  -12.7497  -16.5437 C   0  0  0  0  0  0  0  0  0  0  0  0
   18.3057  -12.2083  -17.6488 O   0  0  0  0  0  0  0  0  0  0  0  0
   14.7430  -11.1151  -15.7464 C   0  0  0  0  0  0  0  0  0  0  0  0
   15.7894  -10.3165  -14.9939 C   0  0  1  0  0  0  0  0  0  0  0  0
   15.7689  -10.7667  -13.6751 O   0  0  0  0  0  0  0  0  0  0  0  0
   17.1268  -10.5911  -15.6557 C   0  0  2  0  0  0  0  0  0  0  0  0
   17.5341  -11.9627  -15.5063 N   0  0  0  0  0  0  0  0  0  0  0  0
   18.1051   -9.6554  -15.0417 C   0  0  0  0  0  0  0  0  0  0  0  0
   19.1343  -10.0858  -14.4984 O   0  0  0  0  0  0  0  0  0  0  0  0
   17.8156   -8.2653  -15.1024 N   0  0  0  0  0  0  0  0  0  0  0  0
   18.7501   -7.2952  -14.6148 C   0  0  1  0  0  0  0  0  0  0  0  0
   20.0696   -7.4305  -15.3331 C   0  0  0  0  0  0  0  0  0  0  0  0
   21.0691   -6.4215  -14.9229 C   0  0  0  0  0  0  0  0  0  0  0  0
   21.3972   -6.0856  -13.6233 C   0  0  0  0  0  0  0  0  0  0  0  0
   22.3341   -5.1416  -13.6683 N   0  0  0  0  0  0  0  0  0  0  0  0
   22.6075   -4.8713  -14.9519 C   0  0  0  0  0  0  0  0  0  0  0  0
   21.8373   -5.6507  -15.7035 N   0  0  0  0  0  0  0  0  0  0  0  0
   18.2049   -5.9285  -14.6892 C   0  0  0  0  0  0  0  0  0  0  0  0
   18.9178   -4.9800  -14.2372 O   0  0  0  0  0  0  0  0  0  0  0  0
   16.9533   -5.6639  -15.2328 O   0  0  0  0  0  0  0  0  0  0  0  0
  2  1  1  0
  2  3  1  0
  3  5  1  0
  3  4  1  6
  5  6  2  0
  8  7  1  6
  8 10  1  0
  9  8  1  0
 10 11  1  1
 10 12  1  0
 11  5  1  0
 12 13  2  0
 12 14  1  0
 14 15  1  0
 15 22  1  0
 16 17  1  0
 15 16  1  6
 17 18  2  0
 19 18  1  0
 20 19  1  0
 21 20  2  0
 21 17  1  0
 22 23  2  0
 22 24  1  0
M  END
$$$$
