STH.pdb
     RDKit          3D

 24 24  0  0  1  0  0  0  0  0999 V2000
   32.7572  -25.5256  -22.0397 O   0  0  0  0  0  0  0  0  0  0  0  0
   32.2984  -26.1525  -20.9000 C   0  0  0  0  0  0  0  0  0  0  0  0
   32.9586  -25.5867  -19.6569 C   0  0  2  0  0  0  0  0  0  0  0  0
   34.3523  -25.9055  -19.6057 N   0  0  0  0  0  0  0  0  0  0  0  0
   32.2440  -26.1922  -18.4809 C   0  0  0  0  0  0  0  0  0  0  0  0
   32.8657  -26.8515  -17.6246 O   0  0  0  0  0  0  0  0  0  0  0  0
   30.4761  -24.5939  -15.8348 C   0  0  0  0  0  0  0  0  0  0  0  0
   29.3940  -25.4883  -16.4075 C   0  0  1  0  0  0  0  0  0  0  0  0
   28.5904  -24.6839  -17.2135 O   0  0  0  0  0  0  0  0  0  0  0  0
   30.0855  -26.5713  -17.2144 C   0  0  2  0  0  0  0  0  0  0  0  0
   30.8412  -26.0301  -18.3124 N   0  0  0  0  0  0  0  0  0  0  0  0
   29.0217  -27.4986  -17.6811 C   0  0  0  0  0  0  0  0  0  0  0  0
   28.6600  -27.4975  -18.8680 O   0  0  0  0  0  0  0  0  0  0  0  0
   28.4439  -28.3750  -16.7230 N   0  0  0  0  0  0  0  0  0  0  0  0
   27.3726  -29.2561  -17.0807 C   0  0  1  0  0  0  0  0  0  0  0  0
   27.2035  -30.3286  -16.0336 C   0  0  0  0  0  0  0  0  0  0  0  0
   26.0820  -31.2508  -16.3114 C   0  0  0  0  0  0  0  0  0  0  0  0
   24.7390  -30.9266  -16.2857 C   0  0  0  0  0  0  0  0  0  0  0  0
   24.0472  -32.0222  -16.5892 N   0  0  0  0  0  0  0  0  0  0  0  0
   24.9086  -33.0256  -16.8052 C   0  0  0  0  0  0  0  0  0  0  0  0
   26.1373  -32.5493  -16.6349 N   0  0  0  0  0  0  0  0  0  0  0  0
   26.1238  -28.5183  -17.3392 C   0  0  0  0  0  0  0  0  0  0  0  0
   25.3384  -28.9739  -18.2265 O   0  0  0  0  0  0  0  0  0  0  0  0
   25.7968  -27.3590  -16.6455 O   0  0  0  0  0  0  0  0  0  0  0  0
  2  1  1  0
  2  3  1  0
  3  5  1  0
  3  4  1  1
  5  6  2  0
  8  7  1  6
  8 10  1  0
  9  8  1  0
 10 11  1  6
 10 12  1  0
 11  5  1  0
 12 13  2  0
 12 14  1  0
 14 15  1  0
 15 22  1  0
 16 17  1  0
 15 16  1  1
 17 18  2  0
 19 18  1  0
 20 19  1  0
 21 20  2  0
 21 17  1  0
 22 23  2  0
 22 24  1  0
M  END
$$$$
