STH.pdb
     RDKit          3D

 24 24  0  0  1  0  0  0  0  0999 V2000
   21.2425  -15.4164  -15.1725 O   0  0  0  0  0  0  0  0  0  0  0  0
   20.7522  -15.6724  -16.4361 C   0  0  0  0  0  0  0  0  0  0  0  0
   21.8739  -15.7672  -17.4529 C   0  0  2  0  0  0  0  0  0  0  0  0
   22.8687  -16.7162  -17.0571 N   0  0  0  0  0  0  0  0  0  0  0  0
   22.4771  -14.3937  -17.5524 C   0  0  0  0  0  0  0  0  0  0  0  0
   23.6714  -14.1962  -17.2537 O   0  0  0  0  0  0  0  0  0  0  0  0
   21.9050  -12.2341  -20.6945 C   0  0  0  0  0  0  0  0  0  0  0  0
   21.5821  -11.3557  -19.5016 C   0  0  1  0  0  0  0  0  0  0  0  0
   20.1941  -11.3390  -19.3770 O   0  0  0  0  0  0  0  0  0  0  0  0
   22.2430  -11.9833  -18.2886 C   0  0  2  0  0  0  0  0  0  0  0  0
   21.7038  -13.2830  -17.9893 N   0  0  0  0  0  0  0  0  0  0  0  0
   22.0514  -11.0338  -17.1611 C   0  0  0  0  0  0  0  0  0  0  0  0
   21.2654  -11.3002  -16.2387 O   0  0  0  0  0  0  0  0  0  0  0  0
   22.7967   -9.8239  -17.1840 N   0  0  0  0  0  0  0  0  0  0  0  0
   22.7029   -8.8793  -16.1111 C   0  0  1  0  0  0  0  0  0  0  0  0
   24.0657   -8.3234  -15.7810 C   0  0  0  0  0  0  0  0  0  0  0  0
   25.0459   -9.3598  -15.3933 C   0  0  0  0  0  0  0  0  0  0  0  0
   24.8221  -10.3992  -14.5108 C   0  0  0  0  0  0  0  0  0  0  0  0
   25.9421  -11.1129  -14.4258 N   0  0  0  0  0  0  0  0  0  0  0  0
   26.8640  -10.5585  -15.2248 C   0  0  0  0  0  0  0  0  0  0  0  0
   26.3125   -9.4985  -15.8059 N   0  0  0  0  0  0  0  0  0  0  0  0
   21.7177   -7.8228  -16.4004 C   0  0  0  0  0  0  0  0  0  0  0  0
   21.1518   -7.8343  -17.5369 O   0  0  0  0  0  0  0  0  0  0  0  0
   21.4030   -6.8361  -15.4733 O   0  0  0  0  0  0  0  0  0  0  0  0
  2  1  1  0
  2  3  1  0
  3  5  1  0
  3  4  1  1
  5  6  2  0
  8  7  1  6
  8 10  1  0
  9  8  1  0
 10 11  1  1
 10 12  1  0
 11  5  1  0
 12 13  2  0
 12 14  1  0
 14 15  1  0
 15 22  1  0
 16 17  1  0
 15 16  1  6
 17 18  2  0
 19 18  1  0
 20 19  1  0
 21 20  2  0
 21 17  1  0
 22 23  2  0
 22 24  1  0
M  END
$$$$
