STH.pdb
     RDKit          3D

 24 24  0  0  1  0  0  0  0  0999 V2000
   28.3061  -23.5519  -20.0154 O   0  0  0  0  0  0  0  0  0  0  0  0
   27.6316  -23.4183  -18.8197 C   0  0  0  0  0  0  0  0  0  0  0  0
   28.5364  -22.8616  -17.7367 C   0  0  2  0  0  0  0  0  0  0  0  0
   29.3174  -23.8889  -17.1192 N   0  0  0  0  0  0  0  0  0  0  0  0
   27.6375  -22.2118  -16.7218 C   0  0  0  0  0  0  0  0  0  0  0  0
   27.3162  -22.8096  -15.6759 O   0  0  0  0  0  0  0  0  0  0  0  0
   28.2091  -19.1003  -14.8604 C   0  0  0  0  0  0  0  0  0  0  0  0
   26.9234  -18.8342  -15.6186 C   0  0  1  0  0  0  0  0  0  0  0  0
   27.2696  -18.1109  -16.7585 O   0  0  0  0  0  0  0  0  0  0  0  0
   26.3236  -20.1816  -15.9744 C   0  0  2  0  0  0  0  0  0  0  0  0
   27.1292  -20.8994  -16.9258 N   0  0  0  0  0  0  0  0  0  0  0  0
   24.9584  -19.9144  -16.4983 C   0  0  0  0  0  0  0  0  0  0  0  0
   24.7407  -19.9125  -17.7199 O   0  0  0  0  0  0  0  0  0  0  0  0
   23.9267  -19.6644  -15.5533 N   0  0  0  0  0  0  0  0  0  0  0  0
   22.5473  -19.8119  -15.9108 C   0  0  1  0  0  0  0  0  0  0  0  0
   22.3127  -21.1564  -16.5530 C   0  0  0  0  0  0  0  0  0  0  0  0
   20.9254  -21.3486  -17.0262 C   0  0  0  0  0  0  0  0  0  0  0  0
   20.0046  -20.3473  -17.2693 C   0  0  0  0  0  0  0  0  0  0  0  0
   18.8759  -20.9198  -17.6804 N   0  0  0  0  0  0  0  0  0  0  0  0
   19.0540  -22.2477  -17.7046 C   0  0  0  0  0  0  0  0  0  0  0  0
   20.2971  -22.4975  -17.3071 N   0  0  0  0  0  0  0  0  0  0  0  0
   21.6581  -19.5732  -14.7606 C   0  0  0  0  0  0  0  0  0  0  0  0
   20.4051  -19.6021  -14.9635 O   0  0  0  0  0  0  0  0  0  0  0  0
   22.1539  -19.3230  -13.4865 O   0  0  0  0  0  0  0  0  0  0  0  0
  2  1  1  0
  2  3  1  0
  3  5  1  0
  3  4  1  1
  5  6  2  0
  8  7  1  1
  8 10  1  0
  9  8  1  0
 10 11  1  6
 10 12  1  0
 11  5  1  0
 12 13  2  0
 12 14  1  0
 14 15  1  0
 15 22  1  0
 16 17  1  0
 15 16  1  1
 17 18  2  0
 19 18  1  0
 20 19  1  0
 21 20  2  0
 21 17  1  0
 22 23  2  0
 22 24  1  0
M  END
$$$$
