STH.pdb
     RDKit          3D

 24 24  0  0  1  0  0  0  0  0999 V2000
   14.0463  -10.1035  -15.4314 O   0  0  0  0  0  0  0  0  0  0  0  0
   15.2255   -9.8424  -14.7651 C   0  0  0  0  0  0  0  0  0  0  0  0
   16.3194  -10.8061  -15.1842 C   0  0  2  0  0  0  0  0  0  0  0  0
   16.1162  -12.1104  -14.6326 N   0  0  0  0  0  0  0  0  0  0  0  0
   17.6134  -10.2268  -14.6839 C   0  0  0  0  0  0  0  0  0  0  0  0
   17.9045  -10.2630  -13.4721 O   0  0  0  0  0  0  0  0  0  0  0  0
   21.0533  -11.1573  -15.4011 C   0  0  0  0  0  0  0  0  0  0  0  0
   20.9692   -9.7284  -15.9013 C   0  0  1  0  0  0  0  0  0  0  0  0
   20.7497   -9.7946  -17.2760 O   0  0  0  0  0  0  0  0  0  0  0  0
   19.8076   -9.0678  -15.1827 C   0  0  2  0  0  0  0  0  0  0  0  0
   18.5402   -9.6221  -15.5772 N   0  0  0  0  0  0  0  0  0  0  0  0
   19.8920   -7.6147  -15.4845 C   0  0  0  0  0  0  0  0  0  0  0  0
   19.1233   -7.0961  -16.3090 O   0  0  0  0  0  0  0  0  0  0  0  0
   20.8772   -6.8547  -14.7979 N   0  0  0  0  0  0  0  0  0  0  0  0
   21.0585   -5.4608  -15.0741 C   0  0  1  0  0  0  0  0  0  0  0  0
   21.7518   -4.7829  -13.9186 C   0  0  0  0  0  0  0  0  0  0  0  0
   21.9367   -3.3293  -14.1140 C   0  0  0  0  0  0  0  0  0  0  0  0
   20.9765   -2.3552  -13.9178 C   0  0  0  0  0  0  0  0  0  0  0  0
   21.5262   -1.1759  -14.1971 N   0  0  0  0  0  0  0  0  0  0  0  0
   22.8001   -1.3738  -14.5625 C   0  0  0  0  0  0  0  0  0  0  0  0
   23.0393   -2.6797  -14.5092 N   0  0  0  0  0  0  0  0  0  0  0  0
   21.7547   -5.2453  -16.3545 C   0  0  0  0  0  0  0  0  0  0  0  0
   22.7207   -6.0174  -16.6418 O   0  0  0  0  0  0  0  0  0  0  0  0
   21.3820   -4.2355  -17.2340 O   0  0  0  0  0  0  0  0  0  0  0  0
  2  1  1  0
  2  3  1  0
  3  5  1  0
  3  4  1  1
  5  6  2  0
  8  7  1  1
  8 10  1  0
  9  8  1  0
 10 11  1  6
 10 12  1  0
 11  5  1  0
 12 13  2  0
 12 14  1  0
 14 15  1  0
 15 22  1  0
 16 17  1  0
 15 16  1  1
 17 18  2  0
 19 18  1  0
 20 19  1  0
 21 20  2  0
 21 17  1  0
 22 23  2  0
 22 24  1  0
M  END
$$$$
