STH.pdb
     RDKit          3D

 24 24  0  0  1  0  0  0  0  0999 V2000
   23.4074  -16.9008  -15.6266 O   0  0  0  0  0  0  0  0  0  0  0  0
   23.4227  -15.6044  -15.1558 C   0  0  0  0  0  0  0  0  0  0  0  0
   24.5320  -14.7970  -15.8029 C   0  0  2  0  0  0  0  0  0  0  0  0
   25.8157  -15.3889  -15.5826 N   0  0  0  0  0  0  0  0  0  0  0  0
   24.4790  -13.4273  -15.1854 C   0  0  0  0  0  0  0  0  0  0  0  0
   24.8870  -13.2331  -14.0234 O   0  0  0  0  0  0  0  0  0  0  0  0
   26.2447  -10.6916  -15.2332 C   0  0  0  0  0  0  0  0  0  0  0  0
   24.9693  -10.0832  -15.7829 C   0  0  1  0  0  0  0  0  0  0  0  0
   25.1102  -10.0347  -17.1687 O   0  0  0  0  0  0  0  0  0  0  0  0
   23.8243  -10.9893  -15.3707 C   0  0  2  0  0  0  0  0  0  0  0  0
   23.9628  -12.3165  -15.9080 N   0  0  0  0  0  0  0  0  0  0  0  0
   22.5742  -10.3335  -15.8363 C   0  0  0  0  0  0  0  0  0  0  0  0
   21.8249  -10.9052  -16.6434 O   0  0  0  0  0  0  0  0  0  0  0  0
   22.2775   -9.0412  -15.3248 N   0  0  0  0  0  0  0  0  0  0  0  0
   21.0151   -8.4164  -15.5859 C   0  0  1  0  0  0  0  0  0  0  0  0
   19.8917   -9.2440  -15.0128 C   0  0  0  0  0  0  0  0  0  0  0  0
   18.5597   -8.6254  -15.1815 C   0  0  0  0  0  0  0  0  0  0  0  0
   17.6242   -8.9617  -16.1413 C   0  0  0  0  0  0  0  0  0  0  0  0
   16.5594   -8.1830  -15.9661 N   0  0  0  0  0  0  0  0  0  0  0  0
   16.7921   -7.3676  -14.9285 C   0  0  0  0  0  0  0  0  0  0  0  0
   18.0048   -7.6427  -14.4604 N   0  0  0  0  0  0  0  0  0  0  0  0
   20.9884   -7.0225  -15.1098 C   0  0  0  0  0  0  0  0  0  0  0  0
   21.7134   -6.7225  -14.1117 O   0  0  0  0  0  0  0  0  0  0  0  0
   20.2024   -6.0515  -15.7193 O   0  0  0  0  0  0  0  0  0  0  0  0
  2  1  1  0
  2  3  1  0
  3  5  1  0
  3  4  1  1
  5  6  2  0
  8  7  1  1
  8 10  1  0
  9  8  1  0
 10 11  1  6
 10 12  1  0
 11  5  1  0
 12 13  2  0
 12 14  1  0
 14 15  1  0
 15 22  1  0
 16 17  1  0
 15 16  1  1
 17 18  2  0
 19 18  1  0
 20 19  1  0
 21 20  2  0
 21 17  1  0
 22 23  2  0
 22 24  1  0
M  END
$$$$
