STH.pdb
     RDKit          3D

 24 24  0  0  1  0  0  0  0  0999 V2000
   25.8031  -38.3268  -10.1439 O   0  0  0  0  0  0  0  0  0  0  0  0
   25.8427  -37.6620   -8.9360 C   0  0  0  0  0  0  0  0  0  0  0  0
   26.5777  -36.3407   -9.0588 C   0  0  2  0  0  0  0  0  0  0  0  0
   27.9797  -36.5320   -9.2689 N   0  0  0  0  0  0  0  0  0  0  0  0
   26.3419  -35.5999   -7.7720 C   0  0  0  0  0  0  0  0  0  0  0  0
   27.0776  -35.7856   -6.7827 O   0  0  0  0  0  0  0  0  0  0  0  0
   22.9572  -32.9635   -7.4194 C   0  0  0  0  0  0  0  0  0  0  0  0
   24.2826  -32.5996   -6.7792 C   0  0  1  0  0  0  0  0  0  0  0  0
   23.9877  -31.8828   -5.6209 O   0  0  0  0  0  0  0  0  0  0  0  0
   25.0013  -33.8979   -6.4632 C   0  0  2  0  0  0  0  0  0  0  0  0
   25.2748  -34.6681   -7.6471 N   0  0  0  0  0  0  0  0  0  0  0  0
   24.1369  -34.6411   -5.5093 C   0  0  0  0  0  0  0  0  0  0  0  0
   23.6276  -35.7255   -5.8326 O   0  0  0  0  0  0  0  0  0  0  0  0
   23.9212  -34.0649   -4.2282 N   0  0  0  0  0  0  0  0  0  0  0  0
   23.1245  -34.7336   -3.2432 C   0  0  1  0  0  0  0  0  0  0  0  0
   23.6160  -36.1453   -3.0410 C   0  0  0  0  0  0  0  0  0  0  0  0
   22.8574  -36.8912   -2.0146 C   0  0  0  0  0  0  0  0  0  0  0  0
   21.4821  -37.0050   -1.9446 C   0  0  0  0  0  0  0  0  0  0  0  0
   21.1863  -37.7525   -0.8841 N   0  0  0  0  0  0  0  0  0  0  0  0
   22.3285  -38.1136   -0.2835 C   0  0  0  0  0  0  0  0  0  0  0  0
   23.3341  -37.5878   -0.9747 N   0  0  0  0  0  0  0  0  0  0  0  0
   23.0631  -33.9719   -1.9836 C   0  0  0  0  0  0  0  0  0  0  0  0
   23.6594  -32.8518   -1.9380 O   0  0  0  0  0  0  0  0  0  0  0  0
   22.3801  -34.4455   -0.8695 O   0  0  0  0  0  0  0  0  0  0  0  0
  2  1  1  0
  2  3  1  0
  3  5  1  0
  3  4  1  1
  5  6  2  0
  8  7  1  1
  8 10  1  0
  9  8  1  0
 10 11  1  6
 10 12  1  0
 11  5  1  0
 12 13  2  0
 12 14  1  0
 14 15  1  0
 15 22  1  0
 16 17  1  0
 15 16  1  1
 17 18  2  0
 19 18  1  0
 20 19  1  0
 21 20  2  0
 21 17  1  0
 22 23  2  0
 22 24  1  0
M  END
$$$$
