STH.pdb
     RDKit          3D

 24 24  0  0  1  0  0  0  0  0999 V2000
   15.3469  -15.5848  -15.7974 O   0  0  0  0  0  0  0  0  0  0  0  0
   16.0528  -15.7910  -16.9643 C   0  0  0  0  0  0  0  0  0  0  0  0
   17.4503  -16.3072  -16.6782 C   0  0  2  0  0  0  0  0  0  0  0  0
   17.4273  -17.4465  -15.8133 N   0  0  0  0  0  0  0  0  0  0  0  0
   18.1981  -15.1767  -16.0278 C   0  0  0  0  0  0  0  0  0  0  0  0
   18.4013  -15.1679  -14.7977 O   0  0  0  0  0  0  0  0  0  0  0  0
   21.5438  -14.0650  -16.2420 C   0  0  0  0  0  0  0  0  0  0  0  0
   20.8039  -12.8381  -16.7382 C   0  0  1  0  0  0  0  0  0  0  0  0
   20.8686  -12.8636  -18.1301 O   0  0  0  0  0  0  0  0  0  0  0  0
   19.3732  -12.9453  -16.2448 C   0  0  2  0  0  0  0  0  0  0  0  0
   18.6938  -14.0874  -16.7960 N   0  0  0  0  0  0  0  0  0  0  0  0
   18.6998  -11.6724  -16.6132 C   0  0  0  0  0  0  0  0  0  0  0  0
   17.7251  -11.6736  -17.3810 O   0  0  0  0  0  0  0  0  0  0  0  0
   19.2129  -10.4697  -16.0562 N   0  0  0  0  0  0  0  0  0  0  0  0
   18.5695   -9.2125  -16.2959 C   0  0  1  0  0  0  0  0  0  0  0  0
   17.1065   -9.2952  -15.9379 C   0  0  0  0  0  0  0  0  0  0  0  0
   16.3854   -8.0162  -16.1095 C   0  0  0  0  0  0  0  0  0  0  0  0
   16.9078   -6.8556  -16.6475 C   0  0  0  0  0  0  0  0  0  0  0  0
   15.9520   -5.9298  -16.6307 N   0  0  0  0  0  0  0  0  0  0  0  0
   14.8451   -6.4676  -16.1004 C   0  0  0  0  0  0  0  0  0  0  0  0
   15.1170   -7.7302  -15.7882 N   0  0  0  0  0  0  0  0  0  0  0  0
   19.2576   -8.1081  -15.6050 C   0  0  0  0  0  0  0  0  0  0  0  0
   20.2124   -8.4018  -14.8214 O   0  0  0  0  0  0  0  0  0  0  0  0
   18.8896   -6.7806  -15.7908 O   0  0  0  0  0  0  0  0  0  0  0  0
  2  1  1  0
  2  3  1  0
  3  5  1  0
  3  4  1  1
  5  6  2  0
  8  7  1  1
  8 10  1  0
  9  8  1  0
 10 11  1  6
 10 12  1  0
 11  5  1  0
 12 13  2  0
 12 14  1  0
 14 15  1  0
 15 22  1  0
 16 17  1  0
 15 16  1  1
 17 18  2  0
 19 18  1  0
 20 19  1  0
 21 20  2  0
 21 17  1  0
 22 23  2  0
 22 24  1  0
M  END
$$$$
