STH.pdb
     RDKit          3D

 24 24  0  0  1  0  0  0  0  0999 V2000
   27.2351  -14.6299  -16.7495 O   0  0  0  0  0  0  0  0  0  0  0  0
   26.8279  -13.4622  -16.1386 C   0  0  0  0  0  0  0  0  0  0  0  0
   27.4073  -12.2456  -16.8352 C   0  0  2  0  0  0  0  0  0  0  0  0
   28.8262  -12.1666  -16.6707 N   0  0  0  0  0  0  0  0  0  0  0  0
   26.7454  -11.0449  -16.2182 C   0  0  0  0  0  0  0  0  0  0  0  0
   27.0844  -10.6367  -15.0900 O   0  0  0  0  0  0  0  0  0  0  0  0
   26.8566   -7.6947  -17.2618 C   0  0  0  0  0  0  0  0  0  0  0  0
   25.3623   -7.9484  -17.3041 C   0  0  1  0  0  0  0  0  0  0  0  0
   25.0351   -8.2108  -18.6332 O   0  0  0  0  0  0  0  0  0  0  0  0
   25.0838   -9.1457  -16.4148 C   0  0  2  0  0  0  0  0  0  0  0  0
   25.7159  -10.3422  -16.9029 N   0  0  0  0  0  0  0  0  0  0  0  0
   23.6060   -9.2909  -16.3476 C   0  0  0  0  0  0  0  0  0  0  0  0
   23.0602  -10.3517  -16.6889 O   0  0  0  0  0  0  0  0  0  0  0  0
   22.8545   -8.1780  -15.8821 N   0  0  0  0  0  0  0  0  0  0  0  0
   21.4269   -8.2418  -15.7821 C   0  0  1  0  0  0  0  0  0  0  0  0
   21.0125   -9.4164  -14.9313 C   0  0  0  0  0  0  0  0  0  0  0  0
   19.5494   -9.5238  -14.7488 C   0  0  0  0  0  0  0  0  0  0  0  0
   18.5989   -8.6866  -15.3009 C   0  0  0  0  0  0  0  0  0  0  0  0
   17.4009   -9.1089  -14.9041 N   0  0  0  0  0  0  0  0  0  0  0  0
   17.5643  -10.1837  -14.1208 C   0  0  0  0  0  0  0  0  0  0  0  0
   18.8676  -10.4271  -14.0326 N   0  0  0  0  0  0  0  0  0  0  0  0
   20.8571   -6.9701  -15.3040 C   0  0  0  0  0  0  0  0  0  0  0  0
   19.5946   -6.8382  -15.3312 O   0  0  0  0  0  0  0  0  0  0  0  0
   21.6576   -5.9354  -14.8340 O   0  0  0  0  0  0  0  0  0  0  0  0
  2  1  1  0
  2  3  1  0
  3  5  1  0
  3  4  1  1
  5  6  2  0
  8  7  1  6
  8 10  1  0
  9  8  1  0
 10 11  1  6
 10 12  1  0
 11  5  1  0
 12 13  2  0
 12 14  1  0
 14 15  1  0
 15 22  1  0
 16 17  1  0
 15 16  1  1
 17 18  2  0
 19 18  1  0
 20 19  1  0
 21 20  2  0
 21 17  1  0
 22 23  2  0
 22 24  1  0
M  END
$$$$
