STH.pdb
     RDKit          3D

 24 24  0  0  1  0  0  0  0  0999 V2000
   27.8699  -25.4970  -19.0597 O   0  0  0  0  0  0  0  0  0  0  0  0
   27.4462  -24.6185  -18.0843 C   0  0  0  0  0  0  0  0  0  0  0  0
   28.5265  -23.6086  -17.7465 C   0  0  2  0  0  0  0  0  0  0  0  0
   29.6794  -24.2364  -17.1778 N   0  0  0  0  0  0  0  0  0  0  0  0
   27.9198  -22.6479  -16.7620 C   0  0  0  0  0  0  0  0  0  0  0  0
   28.0150  -22.8444  -15.5345 O   0  0  0  0  0  0  0  0  0  0  0  0
   28.6248  -19.1088  -16.2450 C   0  0  0  0  0  0  0  0  0  0  0  0
   27.1494  -19.1147  -16.5944 C   0  0  1  0  0  0  0  0  0  0  0  0
   27.0533  -18.7827  -17.9445 O   0  0  0  0  0  0  0  0  0  0  0  0
   26.6292  -20.5146  -16.3264 C   0  0  2  0  0  0  0  0  0  0  0  0
   27.2215  -21.4900  -17.2023 N   0  0  0  0  0  0  0  0  0  0  0  0
   25.1522  -20.4567  -16.4840 C   0  0  0  0  0  0  0  0  0  0  0  0
   24.6199  -20.7698  -17.5602 O   0  0  0  0  0  0  0  0  0  0  0  0
   24.3857  -20.0331  -15.3646 N   0  0  0  0  0  0  0  0  0  0  0  0
   22.9666  -19.8642  -15.4637 C   0  0  1  0  0  0  0  0  0  0  0  0
   22.3845  -19.5159  -14.1164 C   0  0  0  0  0  0  0  0  0  0  0  0
   20.9258  -19.2782  -14.1492 C   0  0  0  0  0  0  0  0  0  0  0  0
   20.1234  -19.3095  -15.2736 C   0  0  0  0  0  0  0  0  0  0  0  0
   18.8754  -19.0464  -14.8938 N   0  0  0  0  0  0  0  0  0  0  0  0
   18.8643  -18.8503  -13.5682 C   0  0  0  0  0  0  0  0  0  0  0  0
   20.1093  -18.9926  -13.1266 N   0  0  0  0  0  0  0  0  0  0  0  0
   22.6059  -18.8855  -16.5041 C   0  0  0  0  0  0  0  0  0  0  0  0
   21.6382  -19.1693  -17.2755 O   0  0  0  0  0  0  0  0  0  0  0  0
   23.2894  -17.6845  -16.6536 O   0  0  0  0  0  0  0  0  0  0  0  0
  2  1  1  0
  2  3  1  0
  3  5  1  0
  3  4  1  1
  5  6  2  0
  8  7  1  6
  8 10  1  0
  9  8  1  0
 10 11  1  6
 10 12  1  0
 11  5  1  0
 12 13  2  0
 12 14  1  0
 14 15  1  0
 15 22  1  0
 16 17  1  0
 15 16  1  1
 17 18  2  0
 19 18  1  0
 20 19  1  0
 21 20  2  0
 21 17  1  0
 22 23  2  0
 22 24  1  0
M  END
$$$$
