STH.pdb
     RDKit          3D

 24 24  0  0  1  0  0  0  0  0999 V2000
   15.6926  -14.6264  -15.4369 O   0  0  0  0  0  0  0  0  0  0  0  0
   14.9458  -13.8780  -14.5511 C   0  0  0  0  0  0  0  0  0  0  0  0
   13.9485  -12.9969  -15.2793 C   0  0  2  0  0  0  0  0  0  0  0  0
   13.2014  -13.7340  -16.2515 N   0  0  0  0  0  0  0  0  0  0  0  0
   14.7464  -11.9134  -15.9500 C   0  0  0  0  0  0  0  0  0  0  0  0
   14.4910  -11.5608  -17.1183 O   0  0  0  0  0  0  0  0  0  0  0  0
   14.3413   -9.3565  -16.6731 C   0  0  0  0  0  0  0  0  0  0  0  0
   15.5442   -8.8982  -15.8718 C   0  0  1  0  0  0  0  0  0  0  0  0
   15.0686   -8.4954  -14.6252 O   0  0  0  0  0  0  0  0  0  0  0  0
   16.4840  -10.0834  -15.7532 C   0  0  2  0  0  0  0  0  0  0  0  0
   15.8129  -11.2614  -15.2720 N   0  0  0  0  0  0  0  0  0  0  0  0
   17.5834   -9.6651  -14.8445 C   0  0  0  0  0  0  0  0  0  0  0  0
   17.8152  -10.2970  -13.8021 O   0  0  0  0  0  0  0  0  0  0  0  0
   18.3478   -8.5257  -15.2152 N   0  0  0  0  0  0  0  0  0  0  0  0
   19.7529   -8.4598  -14.9437 C   0  0  1  0  0  0  0  0  0  0  0  0
   20.4694   -9.6112  -15.6041 C   0  0  0  0  0  0  0  0  0  0  0  0
   21.9154   -9.6568  -15.3001 C   0  0  0  0  0  0  0  0  0  0  0  0
   22.5013  -10.3209  -14.2395 C   0  0  0  0  0  0  0  0  0  0  0  0
   23.8156  -10.1243  -14.3088 N   0  0  0  0  0  0  0  0  0  0  0  0
   24.0777   -9.3588  -15.3769 C   0  0  0  0  0  0  0  0  0  0  0  0
   22.9218   -9.0810  -15.9704 N   0  0  0  0  0  0  0  0  0  0  0  0
   20.3195   -7.1528  -15.3193 C   0  0  0  0  0  0  0  0  0  0  0  0
   19.8936   -6.6051  -16.3827 O   0  0  0  0  0  0  0  0  0  0  0  0
   21.2894   -6.5222  -14.5489 O   0  0  0  0  0  0  0  0  0  0  0  0
  2  1  1  0
  2  3  1  0
  3  5  1  0
  3  4  1  6
  5  6  2  0
  8  7  1  6
  8 10  1  0
  9  8  1  0
 10 11  1  1
 10 12  1  0
 11  5  1  0
 12 13  2  0
 12 14  1  0
 14 15  1  0
 15 22  1  0
 16 17  1  0
 15 16  1  6
 17 18  2  0
 19 18  1  0
 20 19  1  0
 21 20  2  0
 21 17  1  0
 22 23  2  0
 22 24  1  0
M  END
$$$$
