STH.pdb
     RDKit          3D

 24 24  0  0  1  0  0  0  0  0999 V2000
   15.3068  -10.1182  -15.7170 O   0  0  0  0  0  0  0  0  0  0  0  0
   16.2807   -9.4061  -15.0485 C   0  0  0  0  0  0  0  0  0  0  0  0
   17.6677   -9.9170  -15.3895 C   0  0  2  0  0  0  0  0  0  0  0  0
   17.9456  -11.1644  -14.7467 N   0  0  0  0  0  0  0  0  0  0  0  0
   18.6363   -8.8657  -14.9236 C   0  0  0  0  0  0  0  0  0  0  0  0
   18.9672   -8.7873  -13.7241 O   0  0  0  0  0  0  0  0  0  0  0  0
   21.7511   -8.5538  -14.6057 C   0  0  0  0  0  0  0  0  0  0  0  0
   21.5870   -7.4167  -15.5951 C   0  0  1  0  0  0  0  0  0  0  0  0
   21.8436   -7.9425  -16.8601 O   0  0  0  0  0  0  0  0  0  0  0  0
   20.1581   -6.9204  -15.4773 C   0  0  2  0  0  0  0  0  0  0  0  0
   19.2012   -7.9328  -15.8363 N   0  0  0  0  0  0  0  0  0  0  0  0
   20.0499   -5.7241  -16.3530 C   0  0  0  0  0  0  0  0  0  0  0  0
   19.6753   -5.8362  -17.5306 O   0  0  0  0  0  0  0  0  0  0  0  0
   20.3891   -4.4632  -15.7917 N   0  0  0  0  0  0  0  0  0  0  0  0
   20.1786   -3.2496  -16.5231 C   0  0  1  0  0  0  0  0  0  0  0  0
   18.7257   -3.1124  -16.9048 C   0  0  0  0  0  0  0  0  0  0  0  0
   18.3938   -3.7503  -18.1965 C   0  0  0  0  0  0  0  0  0  0  0  0
   19.2918   -4.3428  -19.0636 C   0  0  0  0  0  0  0  0  0  0  0  0
   18.6095   -4.7993  -20.1110 N   0  0  0  0  0  0  0  0  0  0  0  0
   17.3122   -4.5146  -19.9333 C   0  0  0  0  0  0  0  0  0  0  0  0
   17.1916   -3.8799  -18.7722 N   0  0  0  0  0  0  0  0  0  0  0  0
   20.6817   -2.0763  -15.7877 C   0  0  0  0  0  0  0  0  0  0  0  0
   20.8256   -2.1810  -14.5306 O   0  0  0  0  0  0  0  0  0  0  0  0
   20.9950   -0.8840  -16.4298 O   0  0  0  0  0  0  0  0  0  0  0  0
  2  1  1  0
  2  3  1  0
  3  5  1  0
  3  4  1  1
  5  6  2  0
  8  7  1  1
  8 10  1  0
  9  8  1  0
 10 11  1  6
 10 12  1  0
 11  5  1  0
 12 13  2  0
 12 14  1  0
 14 15  1  0
 15 22  1  0
 16 17  1  0
 15 16  1  1
 17 18  2  0
 19 18  1  0
 20 19  1  0
 21 20  2  0
 21 17  1  0
 22 23  2  0
 22 24  1  0
M  END
$$$$
