STH.pdb
     RDKit          3D

 24 24  0  0  1  0  0  0  0  0999 V2000
   26.8927  -18.0581  -16.0739 O   0  0  0  0  0  0  0  0  0  0  0  0
   27.7000  -18.2561  -14.9732 C   0  0  0  0  0  0  0  0  0  0  0  0
   28.1784  -19.6934  -14.8929 C   0  0  2  0  0  0  0  0  0  0  0  0
   28.5974  -20.1843  -16.1696 N   0  0  0  0  0  0  0  0  0  0  0  0
   27.0183  -20.5013  -14.3812 C   0  0  0  0  0  0  0  0  0  0  0  0
   26.6303  -21.5190  -14.9880 O   0  0  0  0  0  0  0  0  0  0  0  0
   26.5098  -21.4382  -10.6859 C   0  0  0  0  0  0  0  0  0  0  0  0
   25.1950  -20.8322  -11.1366 C   0  0  1  0  0  0  0  0  0  0  0  0
   25.1503  -19.5376  -10.6224 O   0  0  0  0  0  0  0  0  0  0  0  0
   25.1975  -20.8294  -12.6538 C   0  0  2  0  0  0  0  0  0  0  0  0
   26.3321  -20.1282  -13.1928 N   0  0  0  0  0  0  0  0  0  0  0  0
   23.9143  -20.2119  -13.0800 C   0  0  0  0  0  0  0  0  0  0  0  0
   23.9090  -19.1950  -13.7911 O   0  0  0  0  0  0  0  0  0  0  0  0
   22.7096  -20.8273  -12.6444 N   0  0  0  0  0  0  0  0  0  0  0  0
   21.4329  -20.2842  -13.0011 C   0  0  1  0  0  0  0  0  0  0  0  0
   21.3919  -18.8049  -12.7088 C   0  0  0  0  0  0  0  0  0  0  0  0
   20.1100  -18.1675  -13.0776 C   0  0  0  0  0  0  0  0  0  0  0  0
   19.7868  -17.6527  -14.3185 C   0  0  0  0  0  0  0  0  0  0  0  0
   18.5494  -17.1678  -14.2513 N   0  0  0  0  0  0  0  0  0  0  0  0
   18.0819  -17.3596  -13.0102 C   0  0  0  0  0  0  0  0  0  0  0  0
   19.0332  -17.9651  -12.3074 N   0  0  0  0  0  0  0  0  0  0  0  0
   21.0806  -20.5932  -14.3979 C   0  0  0  0  0  0  0  0  0  0  0  0
   19.8524  -20.5700  -14.7189 O   0  0  0  0  0  0  0  0  0  0  0  0
   22.0457  -20.9023  -15.3492 O   0  0  0  0  0  0  0  0  0  0  0  0
  2  1  1  0
  2  3  1  0
  3  5  1  0
  3  4  1  6
  5  6  2  0
  8  7  1  1
  8 10  1  0
  9  8  1  0
 10 11  1  1
 10 12  1  0
 11  5  1  0
 12 13  2  0
 12 14  1  0
 14 15  1  0
 15 22  1  0
 16 17  1  0
 15 16  1  6
 17 18  2  0
 19 18  1  0
 20 19  1  0
 21 20  2  0
 21 17  1  0
 22 23  2  0
 22 24  1  0
M  END
$$$$
