STH.pdb
     RDKit          3D

 24 24  0  0  1  0  0  0  0  0999 V2000
   24.5717  -12.6298  -21.1376 O   0  0  0  0  0  0  0  0  0  0  0  0
   25.4839  -11.5982  -21.0596 C   0  0  0  0  0  0  0  0  0  0  0  0
   26.5622  -11.8934  -20.0344 C   0  0  2  0  0  0  0  0  0  0  0  0
   27.1507  -13.1810  -20.2404 N   0  0  0  0  0  0  0  0  0  0  0  0
   25.8975  -11.8360  -18.6871 C   0  0  0  0  0  0  0  0  0  0  0  0
   25.5867  -12.8808  -18.0819 O   0  0  0  0  0  0  0  0  0  0  0  0
   26.8674  -11.0339  -15.5000 C   0  0  0  0  0  0  0  0  0  0  0  0
   25.8043   -9.9717  -15.7010 C   0  0  1  0  0  0  0  0  0  0  0  0
   26.4688   -8.7959  -16.0449 O   0  0  0  0  0  0  0  0  0  0  0  0
   24.8985  -10.4478  -16.8211 C   0  0  2  0  0  0  0  0  0  0  0  0
   25.6050  -10.5905  -18.0661 N   0  0  0  0  0  0  0  0  0  0  0  0
   23.7938   -9.4586  -16.9243 C   0  0  0  0  0  0  0  0  0  0  0  0
   23.7938   -8.6045  -17.8243 O   0  0  0  0  0  0  0  0  0  0  0  0
   22.7512   -9.5316  -15.9611 N   0  0  0  0  0  0  0  0  0  0  0  0
   21.6365   -8.6333  -16.0111 C   0  0  1  0  0  0  0  0  0  0  0  0
   20.3432   -9.3924  -15.8484 C   0  0  0  0  0  0  0  0  0  0  0  0
   19.9543  -10.1573  -17.0523 C   0  0  0  0  0  0  0  0  0  0  0  0
   20.6024  -10.1352  -18.2725 C   0  0  0  0  0  0  0  0  0  0  0  0
   19.9518  -10.9527  -19.0967 N   0  0  0  0  0  0  0  0  0  0  0  0
   18.9159  -11.4891  -18.4374 C   0  0  0  0  0  0  0  0  0  0  0  0
   18.9257  -11.0019  -17.2013 N   0  0  0  0  0  0  0  0  0  0  0  0
   21.7747   -7.5388  -15.0346 C   0  0  0  0  0  0  0  0  0  0  0  0
   22.7129   -7.6187  -14.1829 O   0  0  0  0  0  0  0  0  0  0  0  0
   20.9169   -6.4452  -15.0285 O   0  0  0  0  0  0  0  0  0  0  0  0
  2  1  1  0
  2  3  1  0
  3  5  1  0
  3  4  1  6
  5  6  2  0
  8  7  1  6
  8 10  1  0
  9  8  1  0
 10 11  1  6
 10 12  1  0
 11  5  1  0
 12 13  2  0
 12 14  1  0
 14 15  1  0
 15 22  1  0
 16 17  1  0
 15 16  1  1
 17 18  2  0
 19 18  1  0
 20 19  1  0
 21 20  2  0
 21 17  1  0
 22 23  2  0
 22 24  1  0
M  END
$$$$
