STH.pdb
     RDKit          3D

 24 24  0  0  1  0  0  0  0  0999 V2000
   42.9591  -10.1108   -3.3045 O   0  0  0  0  0  0  0  0  0  0  0  0
   42.5565   -9.4561   -4.4499 C   0  0  0  0  0  0  0  0  0  0  0  0
   42.7520  -10.3250   -5.6779 C   0  0  2  0  0  0  0  0  0  0  0  0
   44.1376  -10.5595   -5.9457 N   0  0  0  0  0  0  0  0  0  0  0  0
   42.1185   -9.5898   -6.8262 C   0  0  0  0  0  0  0  0  0  0  0  0
   42.8193   -9.0400   -7.6985 O   0  0  0  0  0  0  0  0  0  0  0  0
   39.1142  -10.6358   -9.0359 C   0  0  0  0  0  0  0  0  0  0  0  0
   38.7393   -9.3092   -8.4046 C   0  0  1  0  0  0  0  0  0  0  0  0
   37.8667   -9.5939   -7.3557 O   0  0  0  0  0  0  0  0  0  0  0  0
   40.0215   -8.6702   -7.9049 C   0  0  2  0  0  0  0  0  0  0  0  0
   40.7045   -9.5009   -6.9494 N   0  0  0  0  0  0  0  0  0  0  0  0
   39.6427   -7.3563   -7.3221 C   0  0  0  0  0  0  0  0  0  0  0  0
   39.6073   -7.1985   -6.0919 O   0  0  0  0  0  0  0  0  0  0  0  0
   39.3272   -6.3022   -8.2217 N   0  0  0  0  0  0  0  0  0  0  0  0
   38.9952   -4.9950   -7.7390 C   0  0  1  0  0  0  0  0  0  0  0  0
   40.0814   -4.4809   -6.8273 C   0  0  0  0  0  0  0  0  0  0  0  0
   39.8163   -3.1245   -6.3025 C   0  0  0  0  0  0  0  0  0  0  0  0
   40.2416   -1.9378   -6.8684 C   0  0  0  0  0  0  0  0  0  0  0  0
   39.8043   -0.9398   -6.1044 N   0  0  0  0  0  0  0  0  0  0  0  0
   39.1180   -1.4573   -5.0764 C   0  0  0  0  0  0  0  0  0  0  0  0
   39.1307   -2.7798   -5.2049 N   0  0  0  0  0  0  0  0  0  0  0  0
   38.6988   -4.0657   -8.8431 C   0  0  0  0  0  0  0  0  0  0  0  0
   39.0304   -4.4151  -10.0178 O   0  0  0  0  0  0  0  0  0  0  0  0
   38.0770   -2.8413   -8.6278 O   0  0  0  0  0  0  0  0  0  0  0  0
  2  1  1  0
  2  3  1  0
  3  5  1  0
  3  4  1  6
  5  6  2  0
  8  7  1  1
  8 10  1  0
  9  8  1  0
 10 11  1  1
 10 12  1  0
 11  5  1  0
 12 13  2  0
 12 14  1  0
 14 15  1  0
 15 22  1  0
 16 17  1  0
 15 16  1  6
 17 18  2  0
 19 18  1  0
 20 19  1  0
 21 20  2  0
 21 17  1  0
 22 23  2  0
 22 24  1  0
M  END
$$$$
