STH.pdb
     RDKit          3D

 24 24  0  0  1  0  0  0  0  0999 V2000
   21.5679  -13.2526  -20.7424 O   0  0  0  0  0  0  0  0  0  0  0  0
   21.1950  -12.3475  -19.7708 C   0  0  0  0  0  0  0  0  0  0  0  0
   22.0717  -12.4700  -18.5389 C   0  0  2  0  0  0  0  0  0  0  0  0
   22.1096  -13.8128  -18.0471 N   0  0  0  0  0  0  0  0  0  0  0  0
   21.4822  -11.5540  -17.5027 C   0  0  0  0  0  0  0  0  0  0  0  0
   20.2499  -11.5025  -17.3210 O   0  0  0  0  0  0  0  0  0  0  0  0
   21.6940  -11.5289  -14.0091 C   0  0  0  0  0  0  0  0  0  0  0  0
   22.2657  -10.1583  -14.3152 C   0  0  1  0  0  0  0  0  0  0  0  0
   23.6521  -10.2706  -14.2262 O   0  0  0  0  0  0  0  0  0  0  0  0
   21.8254   -9.7905  -15.7197 C   0  0  2  0  0  0  0  0  0  0  0  0
   22.3123  -10.7220  -16.7019 N   0  0  0  0  0  0  0  0  0  0  0  0
   22.3211   -8.4123  -15.9735 C   0  0  0  0  0  0  0  0  0  0  0  0
   23.1080   -8.1866  -16.9059 O   0  0  0  0  0  0  0  0  0  0  0  0
   21.8618   -7.3776  -15.1142 N   0  0  0  0  0  0  0  0  0  0  0  0
   22.1969   -6.0075  -15.3646 C   0  0  1  0  0  0  0  0  0  0  0  0
   21.8583   -5.6362  -16.7869 C   0  0  0  0  0  0  0  0  0  0  0  0
   22.1482   -4.2233  -17.1112 C   0  0  0  0  0  0  0  0  0  0  0  0
   23.1424   -3.4481  -16.5455 C   0  0  0  0  0  0  0  0  0  0  0  0
   23.0827   -2.2386  -17.0973 N   0  0  0  0  0  0  0  0  0  0  0  0
   22.0846   -2.2254  -17.9914 C   0  0  0  0  0  0  0  0  0  0  0  0
   21.5252   -3.4305  -17.9927 N   0  0  0  0  0  0  0  0  0  0  0  0
   21.5714   -5.1054  -14.3820 C   0  0  0  0  0  0  0  0  0  0  0  0
   20.3968   -5.3815  -13.9868 O   0  0  0  0  0  0  0  0  0  0  0  0
   22.2282   -3.9834  -13.8905 O   0  0  0  0  0  0  0  0  0  0  0  0
  2  1  1  0
  2  3  1  0
  3  5  1  0
  3  4  1  1
  5  6  2  0
  8  7  1  6
  8 10  1  0
  9  8  1  0
 10 11  1  6
 10 12  1  0
 11  5  1  0
 12 13  2  0
 12 14  1  0
 14 15  1  0
 15 22  1  0
 16 17  1  0
 15 16  1  6
 17 18  2  0
 19 18  1  0
 20 19  1  0
 21 20  2  0
 21 17  1  0
 22 23  2  0
 22 24  1  0
M  END
$$$$
