NCP.pdb
     RDKit          3D

 22 22  0  0  1  0  0  0  0  0999 V2000
    9.4849  -14.6529   18.2491 N   0  0  0  0  0  0  0  0  0  0  0  0
    8.2087  -14.0592   18.3997 C   0  0  0  0  0  0  0  0  0  0  0  0
    7.6185  -13.6143   17.3924 O   0  0  0  0  0  0  0  0  0  0  0  0
    7.6076  -13.9798   19.7351 C   0  0  0  0  0  0  0  0  0  0  0  0
    8.4169  -14.7599   20.7445 C   0  0  2  0  0  0  0  0  0  0  0  0
    8.2969  -16.1735   20.5359 N   0  0  0  0  0  0  0  0  0  0  0  0
    8.0194  -14.3883   22.1239 C   0  0  0  0  0  0  0  0  0  0  0  0
    7.6009  -13.2471   22.4046 O   0  0  0  0  0  0  0  0  0  0  0  0
    8.1161  -15.3462   23.1450 N   0  0  0  0  0  0  0  0  0  0  0  0
    7.7653  -15.0641   24.5450 C   0  0  1  0  0  0  0  0  0  0  0  0
    6.6531  -16.0699   24.8725 C   0  0  0  0  0  0  0  0  0  0  0  0
    7.3844  -17.7352   25.0619 S   0  0  0  0  0  0  0  0  0  0  0  0
    8.9669  -15.3219   25.3742 C   0  0  0  0  0  0  0  0  0  0  0  0
    9.8850  -16.1110   24.9570 O   0  0  0  0  0  0  0  0  0  0  0  0
    9.1608  -14.7246   26.6403 N   0  0  0  0  0  0  0  0  0  0  0  0
    8.2762  -13.7074   27.2207 C   0  0  0  0  0  0  0  0  0  0  0  0
    9.2592  -12.8932   28.0796 C   0  0  0  0  0  0  0  0  0  0  0  0
   10.0149  -14.0202   28.7430 C   0  0  0  0  0  0  0  0  0  0  0  0
   10.2297  -14.9746   27.5888 C   0  0  1  0  0  0  0  0  0  0  0  0
   10.1705  -16.3767   28.0611 C   0  0  0  0  0  0  0  0  0  0  0  0
    9.1642  -17.0802   27.8869 O   0  0  0  0  0  0  0  0  0  0  0  0
   11.2733  -16.9121   28.7156 O   0  0  0  0  0  0  0  0  0  0  0  0
  2  1  1  0
  3  2  2  0
  4  2  1  0
  4  5  1  0
  5  6  1  6
  7  5  1  0
  7  9  1  0
  8  7  2  0
 10 11  1  1
 10  9  1  0
 10 13  1  0
 12 11  1  0
 13 15  1  0
 14 13  2  0
 15 19  1  0
 15 16  1  0
 16 17  1  0
 18 17  1  0
 19 18  1  0
 19 20  1  1
 20 22  1  0
 21 20  2  0
M  END
$$$$
