NCP.pdb
     RDKit          3D

 22 22  0  0  1  0  0  0  0  0999 V2000
   10.4186  -17.7590   19.6469 N   0  0  0  0  0  0  0  0  0  0  0  0
   10.3874  -16.3705   19.3731 C   0  0  0  0  0  0  0  0  0  0  0  0
   10.8639  -15.9482   18.2981 O   0  0  0  0  0  0  0  0  0  0  0  0
    9.7963  -15.4583   20.3577 C   0  0  0  0  0  0  0  0  0  0  0  0
    9.3867  -16.1983   21.6095 C   0  0  2  0  0  0  0  0  0  0  0  0
    8.1230  -16.8551   21.4430 N   0  0  0  0  0  0  0  0  0  0  0  0
    9.3600  -15.2756   22.7700 C   0  0  0  0  0  0  0  0  0  0  0  0
   10.3469  -14.5789   23.0812 O   0  0  0  0  0  0  0  0  0  0  0  0
    8.1919  -15.1816   23.5422 N   0  0  0  0  0  0  0  0  0  0  0  0
    8.1378  -14.4774   24.8320 C   0  0  1  0  0  0  0  0  0  0  0  0
    6.6462  -14.4509   25.1929 C   0  0  0  0  0  0  0  0  0  0  0  0
    6.4445  -13.7408   26.8659 S   0  0  0  0  0  0  0  0  0  0  0  0
    8.9022  -15.2780   25.8180 C   0  0  0  0  0  0  0  0  0  0  0  0
    9.0265  -16.5436   25.6683 O   0  0  0  0  0  0  0  0  0  0  0  0
    9.5217  -14.7021   26.9503 N   0  0  0  0  0  0  0  0  0  0  0  0
    9.3878  -13.2938   27.3413 C   0  0  0  0  0  0  0  0  0  0  0  0
   10.7402  -13.0307   28.0260 C   0  0  0  0  0  0  0  0  0  0  0  0
   10.8422  -14.2731   28.8789 C   0  0  0  0  0  0  0  0  0  0  0  0
   10.3862  -15.3498   27.9187 C   0  0  1  0  0  0  0  0  0  0  0  0
    9.6375  -16.4026   28.6421 C   0  0  0  0  0  0  0  0  0  0  0  0
    8.4145  -16.5477   28.4973 O   0  0  0  0  0  0  0  0  0  0  0  0
   10.3282  -17.2463   29.5037 O   0  0  0  0  0  0  0  0  0  0  0  0
  2  1  1  0
  3  2  2  0
  4  2  1  0
  4  5  1  0
  5  6  1  6
  7  5  1  0
  7  9  1  0
  8  7  2  0
 10 11  1  1
 10  9  1  0
 10 13  1  0
 12 11  1  0
 13 15  1  0
 14 13  2  0
 15 19  1  0
 15 16  1  0
 16 17  1  0
 18 17  1  0
 19 18  1  0
 19 20  1  1
 20 22  1  0
 21 20  2  0
M  END
$$$$
