NCP.pdb
     RDKit          3D

 22 22  0  0  1  0  0  0  0  0999 V2000
   13.3127  -18.7719   15.8304 N   0  0  0  0  0  0  0  0  0  0  0  0
   12.1483  -19.0397   16.5896 C   0  0  0  0  0  0  0  0  0  0  0  0
   11.8741  -20.2203   16.8929 O   0  0  0  0  0  0  0  0  0  0  0  0
   11.2897  -17.9250   17.0034 C   0  0  0  0  0  0  0  0  0  0  0  0
    9.8347  -18.2276   16.7319 C   0  0  2  0  0  0  0  0  0  0  0  0
    9.5327  -18.1477   15.3325 N   0  0  0  0  0  0  0  0  0  0  0  0
    8.9629  -17.3222   17.5187 C   0  0  0  0  0  0  0  0  0  0  0  0
    8.8284  -16.1172   17.2254 O   0  0  0  0  0  0  0  0  0  0  0  0
    8.2681  -17.8332   18.6258 N   0  0  0  0  0  0  0  0  0  0  0  0
    7.3963  -17.0086   19.4758 C   0  0  1  0  0  0  0  0  0  0  0  0
    6.5231  -18.0222   20.2281 C   0  0  0  0  0  0  0  0  0  0  0  0
    5.6136  -17.1609   21.5604 S   0  0  0  0  0  0  0  0  0  0  0  0
    8.2602  -16.2584   20.4183 C   0  0  0  0  0  0  0  0  0  0  0  0
    9.2554  -16.8333   20.9829 O   0  0  0  0  0  0  0  0  0  0  0  0
    8.0387  -14.8996   20.7376 N   0  0  0  0  0  0  0  0  0  0  0  0
    6.9738  -14.0746   20.1548 C   0  0  0  0  0  0  0  0  0  0  0  0
    7.6157  -12.6766   20.1766 C   0  0  0  0  0  0  0  0  0  0  0  0
    8.1916  -12.6801   21.5730 C   0  0  0  0  0  0  0  0  0  0  0  0
    8.7862  -14.0685   21.6623 C   0  0  1  0  0  0  0  0  0  0  0  0
    8.6554  -14.5979   23.0389 C   0  0  0  0  0  0  0  0  0  0  0  0
    7.7516  -15.3883   23.3491 O   0  0  0  0  0  0  0  0  0  0  0  0
    9.5714  -14.1952   24.0033 O   0  0  0  0  0  0  0  0  0  0  0  0
  2  1  1  0
  3  2  2  0
  4  2  1  0
  4  5  1  0
  5  6  1  6
  7  5  1  0
  7  9  1  0
  8  7  2  0
 10 11  1  1
 10  9  1  0
 10 13  1  0
 12 11  1  0
 13 15  1  0
 14 13  2  0
 15 19  1  0
 15 16  1  0
 16 17  1  0
 18 17  1  0
 19 18  1  0
 19 20  1  1
 20 22  1  0
 21 20  2  0
M  END
$$$$
