NCP.pdb
     RDKit          3D

 22 22  0  0  1  0  0  0  0  0999 V2000
   10.9809  -18.1775   19.2385 N   0  0  0  0  0  0  0  0  0  0  0  0
   10.4265  -18.0120   20.5304 C   0  0  0  0  0  0  0  0  0  0  0  0
    9.8091  -18.9619   21.0573 O   0  0  0  0  0  0  0  0  0  0  0  0
   10.5892  -16.7288   21.2218 C   0  0  0  0  0  0  0  0  0  0  0  0
    9.2804  -15.9777   21.2924 C   0  0  2  0  0  0  0  0  0  0  0  0
    9.0425  -15.2214   20.0976 N   0  0  0  0  0  0  0  0  0  0  0  0
    9.2489  -15.1056   22.4913 C   0  0  0  0  0  0  0  0  0  0  0  0
    9.9529  -14.0794   22.5787 O   0  0  0  0  0  0  0  0  0  0  0  0
    8.4037  -15.4423   23.5599 N   0  0  0  0  0  0  0  0  0  0  0  0
    8.3053  -14.6396   24.7880 C   0  0  1  0  0  0  0  0  0  0  0  0
    6.8015  -14.5822   25.0900 C   0  0  0  0  0  0  0  0  0  0  0  0
    6.5483  -13.8569   26.7494 S   0  0  0  0  0  0  0  0  0  0  0  0
    9.0289  -15.3623   25.8612 C   0  0  0  0  0  0  0  0  0  0  0  0
    9.2281  -16.6241   25.7723 O   0  0  0  0  0  0  0  0  0  0  0  0
    9.5275  -14.7137   27.0137 N   0  0  0  0  0  0  0  0  0  0  0  0
    9.1932  -13.3379   27.4000 C   0  0  0  0  0  0  0  0  0  0  0  0
   10.4746  -12.8992   28.1299 C   0  0  0  0  0  0  0  0  0  0  0  0
   10.7135  -14.1206   28.9857 C   0  0  0  0  0  0  0  0  0  0  0  0
   10.4382  -15.2443   28.0106 C   0  0  1  0  0  0  0  0  0  0  0  0
    9.8136  -16.3912   28.7084 C   0  0  0  0  0  0  0  0  0  0  0  0
    8.6241  -16.6926   28.5292 O   0  0  0  0  0  0  0  0  0  0  0  0
   10.5847  -17.1449   29.5850 O   0  0  0  0  0  0  0  0  0  0  0  0
  2  1  1  0
  3  2  2  0
  4  2  1  0
  4  5  1  0
  5  6  1  6
  7  5  1  0
  7  9  1  0
  8  7  2  0
 10 11  1  1
 10  9  1  0
 10 13  1  0
 12 11  1  0
 13 15  1  0
 14 13  2  0
 15 19  1  0
 15 16  1  0
 16 17  1  0
 18 17  1  0
 19 18  1  0
 19 20  1  1
 20 22  1  0
 21 20  2  0
M  END
$$$$
