NCP.pdb
     RDKit          3D

 22 22  0  0  1  0  0  0  0  0999 V2000
   12.1248  -15.3441   18.6859 N   0  0  0  0  0  0  0  0  0  0  0  0
   11.3853  -16.1976   19.5394 C   0  0  0  0  0  0  0  0  0  0  0  0
   11.6906  -17.4072   19.6088 O   0  0  0  0  0  0  0  0  0  0  0  0
   10.2770  -15.6428   20.3236 C   0  0  0  0  0  0  0  0  0  0  0  0
    9.1876  -16.6689   20.5297 C   0  0  2  0  0  0  0  0  0  0  0  0
    8.5567  -17.0226   19.2917 N   0  0  0  0  0  0  0  0  0  0  0  0
    8.1936  -16.1769   21.5139 C   0  0  0  0  0  0  0  0  0  0  0  0
    7.1380  -15.6143   21.1598 O   0  0  0  0  0  0  0  0  0  0  0  0
    8.4454  -16.3478   22.8840 N   0  0  0  0  0  0  0  0  0  0  0  0
    7.4975  -15.9375   23.9307 C   0  0  1  0  0  0  0  0  0  0  0  0
    6.9777  -17.2572   24.5171 C   0  0  0  0  0  0  0  0  0  0  0  0
    6.1072  -16.9159   26.0886 S   0  0  0  0  0  0  0  0  0  0  0  0
    8.2525  -15.1713   24.9509 C   0  0  0  0  0  0  0  0  0  0  0  0
    9.4640  -15.4800   25.2279 O   0  0  0  0  0  0  0  0  0  0  0  0
    7.6903  -14.0834   25.6565 N   0  0  0  0  0  0  0  0  0  0  0  0
    6.3443  -13.5487   25.4190 C   0  0  0  0  0  0  0  0  0  0  0  0
    6.5305  -12.0648   25.7803 C   0  0  0  0  0  0  0  0  0  0  0  0
    7.3083  -12.2095   27.0670 C   0  0  0  0  0  0  0  0  0  0  0  0
    8.2987  -13.2971   26.7130 C   0  0  1  0  0  0  0  0  0  0  0  0
    8.5678  -14.1528   27.8910 C   0  0  0  0  0  0  0  0  0  0  0  0
    8.0937  -15.2947   27.9878 O   0  0  0  0  0  0  0  0  0  0  0  0
    9.3725  -13.6586   28.9105 O   0  0  0  0  0  0  0  0  0  0  0  0
  2  1  1  0
  3  2  2  0
  4  2  1  0
  4  5  1  0
  5  6  1  6
  7  5  1  0
  7  9  1  0
  8  7  2  0
 10 11  1  1
 10  9  1  0
 10 13  1  0
 12 11  1  0
 13 15  1  0
 14 13  2  0
 15 19  1  0
 15 16  1  0
 16 17  1  0
 18 17  1  0
 19 18  1  0
 19 20  1  1
 20 22  1  0
 21 20  2  0
M  END
$$$$
