NCP.pdb
     RDKit          3D

 22 22  0  0  1  0  0  0  0  0999 V2000
   11.0051  -17.5779   19.2276 N   0  0  0  0  0  0  0  0  0  0  0  0
    9.9582  -16.6252   19.2113 C   0  0  0  0  0  0  0  0  0  0  0  0
    9.1694  -16.5999   18.2428 O   0  0  0  0  0  0  0  0  0  0  0  0
    9.8229  -15.6889   20.3320 C   0  0  0  0  0  0  0  0  0  0  0  0
    9.5995  -16.4241   21.6327 C   0  0  2  0  0  0  0  0  0  0  0  0
    8.4309  -17.2529   21.5749 N   0  0  0  0  0  0  0  0  0  0  0  0
    9.5187  -15.4654   22.7611 C   0  0  0  0  0  0  0  0  0  0  0  0
   10.4472  -14.6741   23.0216 O   0  0  0  0  0  0  0  0  0  0  0  0
    8.3654  -15.4458   23.5605 N   0  0  0  0  0  0  0  0  0  0  0  0
    8.2669  -14.6720   24.8071 C   0  0  1  0  0  0  0  0  0  0  0  0
    6.7696  -14.6760   25.1444 C   0  0  0  0  0  0  0  0  0  0  0  0
    6.5250  -13.9509   26.8052 S   0  0  0  0  0  0  0  0  0  0  0  0
    9.0413  -15.3890   25.8482 C   0  0  0  0  0  0  0  0  0  0  0  0
    9.2384  -16.6508   25.7553 O   0  0  0  0  0  0  0  0  0  0  0  0
    9.5921  -14.7348   26.9734 N   0  0  0  0  0  0  0  0  0  0  0  0
    9.3311  -13.3346   27.3277 C   0  0  0  0  0  0  0  0  0  0  0  0
   10.6456  -12.9389   28.0223 C   0  0  0  0  0  0  0  0  0  0  0  0
   10.8425  -14.1472   28.9069 C   0  0  0  0  0  0  0  0  0  0  0  0
   10.4954  -15.2818   27.9681 C   0  0  1  0  0  0  0  0  0  0  0  0
    9.8304  -16.3784   28.7081 C   0  0  0  0  0  0  0  0  0  0  0  0
    8.6231  -16.6222   28.5641 O   0  0  0  0  0  0  0  0  0  0  0  0
   10.5833  -17.1503   29.5848 O   0  0  0  0  0  0  0  0  0  0  0  0
  2  1  1  0
  3  2  2  0
  4  2  1  0
  4  5  1  0
  5  6  1  6
  7  5  1  0
  7  9  1  0
  8  7  2  0
 10 11  1  1
 10  9  1  0
 10 13  1  0
 12 11  1  0
 13 15  1  0
 14 13  2  0
 15 19  1  0
 15 16  1  0
 16 17  1  0
 18 17  1  0
 19 18  1  0
 19 20  1  1
 20 22  1  0
 21 20  2  0
M  END
$$$$
