NCP.pdb
     RDKit          3D

 22 22  0  0  1  0  0  0  0  0999 V2000
    8.9095  -12.5013   17.4931 N   0  0  0  0  0  0  0  0  0  0  0  0
    8.4678  -13.7445   18.0063 C   0  0  0  0  0  0  0  0  0  0  0  0
    8.7511  -14.7950   17.3922 O   0  0  0  0  0  0  0  0  0  0  0  0
    7.6876  -13.7715   19.2479 C   0  0  0  0  0  0  0  0  0  0  0  0
    8.4894  -14.3640   20.3830 C   0  0  2  0  0  0  0  0  0  0  0  0
    8.8817  -15.7141   20.1016 N   0  0  0  0  0  0  0  0  0  0  0  0
    7.7264  -14.2832   21.6519 C   0  0  0  0  0  0  0  0  0  0  0  0
    7.2908  -13.2000   22.0915 O   0  0  0  0  0  0  0  0  0  0  0  0
    7.4863  -15.4578   22.3814 N   0  0  0  0  0  0  0  0  0  0  0  0
    6.8723  -15.4605   23.7177 C   0  0  1  0  0  0  0  0  0  0  0  0
    6.4375  -16.9159   23.9377 C   0  0  0  0  0  0  0  0  0  0  0  0
    5.9495  -17.1403   25.6857 S   0  0  0  0  0  0  0  0  0  0  0  0
    7.9151  -15.0705   24.6965 C   0  0  0  0  0  0  0  0  0  0  0  0
    9.0989  -15.5507   24.6082 O   0  0  0  0  0  0  0  0  0  0  0  0
    7.6662  -14.1682   25.7555 N   0  0  0  0  0  0  0  0  0  0  0  0
    6.3675  -13.5372   26.0183 C   0  0  0  0  0  0  0  0  0  0  0  0
    6.7930  -12.1970   26.6426 C   0  0  0  0  0  0  0  0  0  0  0  0
    7.8509  -12.6858   27.6036 C   0  0  0  0  0  0  0  0  0  0  0  0
    8.6005  -13.6919   26.7580 C   0  0  1  0  0  0  0  0  0  0  0  0
    9.0672  -14.8217   27.5934 C   0  0  0  0  0  0  0  0  0  0  0  0
    8.4876  -15.9181   27.5879 O   0  0  0  0  0  0  0  0  0  0  0  0
   10.1832  -14.6431   28.4019 O   0  0  0  0  0  0  0  0  0  0  0  0
  2  1  1  0
  3  2  2  0
  4  2  1  0
  4  5  1  0
  5  6  1  6
  7  5  1  0
  7  9  1  0
  8  7  2  0
 10 11  1  1
 10  9  1  0
 10 13  1  0
 12 11  1  0
 13 15  1  0
 14 13  2  0
 15 19  1  0
 15 16  1  0
 16 17  1  0
 18 17  1  0
 19 18  1  0
 19 20  1  1
 20 22  1  0
 21 20  2  0
M  END
$$$$
