NCP.pdb
     RDKit          3D

 22 22  0  0  1  0  0  0  0  0999 V2000
    9.4363  -14.2224   17.8404 N   0  0  0  0  0  0  0  0  0  0  0  0
    8.2189  -13.5276   18.0376 C   0  0  0  0  0  0  0  0  0  0  0  0
    7.6900  -12.9347   17.0733 O   0  0  0  0  0  0  0  0  0  0  0  0
    7.6052  -13.5192   19.3696 C   0  0  0  0  0  0  0  0  0  0  0  0
    8.4250  -14.3218   20.3526 C   0  0  2  0  0  0  0  0  0  0  0  0
    8.4594  -15.7109   19.9986 N   0  0  0  0  0  0  0  0  0  0  0  0
    7.9090  -14.1347   21.7301 C   0  0  0  0  0  0  0  0  0  0  0  0
    7.8100  -13.0046   22.2491 O   0  0  0  0  0  0  0  0  0  0  0  0
    7.5204  -15.2597   22.4736 N   0  0  0  0  0  0  0  0  0  0  0  0
    7.0378  -15.1770   23.8602 C   0  0  1  0  0  0  0  0  0  0  0  0
    6.3474  -16.5252   24.1078 C   0  0  0  0  0  0  0  0  0  0  0  0
    6.0647  -16.7359   25.9021 S   0  0  0  0  0  0  0  0  0  0  0  0
    8.2189  -15.0222   24.7427 C   0  0  0  0  0  0  0  0  0  0  0  0
    9.2854  -15.6957   24.5220 O   0  0  0  0  0  0  0  0  0  0  0  0
    8.2326  -14.1434   25.8495 N   0  0  0  0  0  0  0  0  0  0  0  0
    7.1559  -13.1993   26.1710 C   0  0  0  0  0  0  0  0  0  0  0  0
    7.9341  -12.0591   26.8504 C   0  0  0  0  0  0  0  0  0  0  0  0
    8.8272  -12.8659   27.7630 C   0  0  0  0  0  0  0  0  0  0  0  0
    9.2689  -13.9913   26.8532 C   0  0  1  0  0  0  0  0  0  0  0  0
    9.4181  -15.2477   27.6223 C   0  0  0  0  0  0  0  0  0  0  0  0
    8.5572  -16.1395   27.5854 O   0  0  0  0  0  0  0  0  0  0  0  0
   10.5536  -15.4264   28.4033 O   0  0  0  0  0  0  0  0  0  0  0  0
  2  1  1  0
  3  2  2  0
  4  2  1  0
  4  5  1  0
  5  6  1  6
  7  5  1  0
  7  9  1  0
  8  7  2  0
 10 11  1  1
 10  9  1  0
 10 13  1  0
 12 11  1  0
 13 15  1  0
 14 13  2  0
 15 19  1  0
 15 16  1  0
 16 17  1  0
 18 17  1  0
 19 18  1  0
 19 20  1  1
 20 22  1  0
 21 20  2  0
M  END
$$$$
