NCP.pdb
     RDKit          3D

 22 22  0  0  1  0  0  0  0  0999 V2000
    8.0486  -17.8094   19.2974 N   0  0  0  0  0  0  0  0  0  0  0  0
    7.3766  -17.5237   20.5101 C   0  0  0  0  0  0  0  0  0  0  0  0
    6.1817  -17.8640   20.6420 O   0  0  0  0  0  0  0  0  0  0  0  0
    8.0982  -16.8344   21.5849 C   0  0  0  0  0  0  0  0  0  0  0  0
    7.8406  -15.3462   21.5473 C   0  0  2  0  0  0  0  0  0  0  0  0
    8.4272  -14.7396   20.3881 N   0  0  0  0  0  0  0  0  0  0  0  0
    8.3313  -14.7053   22.7912 C   0  0  0  0  0  0  0  0  0  0  0  0
    9.5402  -14.4557   22.9717 O   0  0  0  0  0  0  0  0  0  0  0  0
    7.4111  -14.3687   23.7960 N   0  0  0  0  0  0  0  0  0  0  0  0
    7.8092  -13.7800   25.0834 C   0  0  1  0  0  0  0  0  0  0  0  0
    6.5111  -13.1943   25.6558 C   0  0  0  0  0  0  0  0  0  0  0  0
    6.7855  -12.7124   27.3983 S   0  0  0  0  0  0  0  0  0  0  0  0
    8.3159  -14.8746   25.9452 C   0  0  0  0  0  0  0  0  0  0  0  0
    7.7999  -16.0446   25.8772 O   0  0  0  0  0  0  0  0  0  0  0  0
    9.3717  -14.6917   26.8668 N   0  0  0  0  0  0  0  0  0  0  0  0
    9.9789  -13.3937   27.1839 C   0  0  0  0  0  0  0  0  0  0  0  0
   11.4230  -13.8005   27.5250 C   0  0  0  0  0  0  0  0  0  0  0  0
   11.1513  -14.9919   28.4128 C   0  0  0  0  0  0  0  0  0  0  0  0
   10.0517  -15.7025   27.6544 C   0  0  1  0  0  0  0  0  0  0  0  0
    9.1010  -16.3352   28.5968 C   0  0  0  0  0  0  0  0  0  0  0  0
    8.0742  -15.7517   28.9752 O   0  0  0  0  0  0  0  0  0  0  0  0
    9.3715  -17.6151   29.0658 O   0  0  0  0  0  0  0  0  0  0  0  0
  2  1  1  0
  3  2  2  0
  4  2  1  0
  4  5  1  0
  5  6  1  6
  7  5  1  0
  7  9  1  0
  8  7  2  0
 10 11  1  1
 10  9  1  0
 10 13  1  0
 12 11  1  0
 13 15  1  0
 14 13  2  0
 15 19  1  0
 15 16  1  0
 16 17  1  0
 18 17  1  0
 19 18  1  0
 19 20  1  1
 20 22  1  0
 21 20  2  0
M  END
$$$$
