NCP.pdb
     RDKit          3D

 22 22  0  0  1  0  0  0  0  0999 V2000
    9.4694  -19.3750   21.1284 N   0  0  0  0  0  0  0  0  0  0  0  0
   10.0337  -18.1816   20.6171 C   0  0  0  0  0  0  0  0  0  0  0  0
   10.2869  -18.0989   19.3965 O   0  0  0  0  0  0  0  0  0  0  0  0
   10.3083  -17.0687   21.5319 C   0  0  0  0  0  0  0  0  0  0  0  0
    9.1940  -16.0491   21.5001 C   0  0  2  0  0  0  0  0  0  0  0  0
    9.2536  -15.2409   20.3172 N   0  0  0  0  0  0  0  0  0  0  0  0
    9.2263  -15.2098   22.7221 C   0  0  0  0  0  0  0  0  0  0  0  0
   10.1700  -14.4297   22.9614 O   0  0  0  0  0  0  0  0  0  0  0  0
    8.1659  -15.2937   23.6376 N   0  0  0  0  0  0  0  0  0  0  0  0
    8.1209  -14.5176   24.8859 C   0  0  1  0  0  0  0  0  0  0  0  0
    6.6243  -14.3661   25.1903 C   0  0  0  0  0  0  0  0  0  0  0  0
    6.4170  -13.7590   26.9027 S   0  0  0  0  0  0  0  0  0  0  0  0
    8.7928  -15.3148   25.9398 C   0  0  0  0  0  0  0  0  0  0  0  0
    8.8223  -16.5928   25.8658 O   0  0  0  0  0  0  0  0  0  0  0  0
    9.4233  -14.7222   27.0573 N   0  0  0  0  0  0  0  0  0  0  0  0
    9.2600  -13.3182   27.4526 C   0  0  0  0  0  0  0  0  0  0  0  0
   10.6209  -13.0179   28.1046 C   0  0  0  0  0  0  0  0  0  0  0  0
   10.7778  -14.2573   28.9537 C   0  0  0  0  0  0  0  0  0  0  0  0
   10.3287  -15.3459   28.0038 C   0  0  1  0  0  0  0  0  0  0  0  0
    9.6273  -16.4193   28.7442 C   0  0  0  0  0  0  0  0  0  0  0  0
    8.4009  -16.5788   28.6526 O   0  0  0  0  0  0  0  0  0  0  0  0
   10.3672  -17.2660   29.5608 O   0  0  0  0  0  0  0  0  0  0  0  0
  2  1  1  0
  3  2  2  0
  4  2  1  0
  4  5  1  0
  5  6  1  6
  7  5  1  0
  7  9  1  0
  8  7  2  0
 10 11  1  1
 10  9  1  0
 10 13  1  0
 12 11  1  0
 13 15  1  0
 14 13  2  0
 15 19  1  0
 15 16  1  0
 16 17  1  0
 18 17  1  0
 19 18  1  0
 19 20  1  1
 20 22  1  0
 21 20  2  0
M  END
$$$$
