PDL.pdb
     RDKit          3D

 24 24  0  0  1  0  0  0  0  0999 V2000
   27.8084  -20.0713  -16.2366 N   0  0  0  0  0  0  0  0  0  0  0  0
   28.6676  -19.6732  -17.3495 C   0  0  0  0  0  0  0  0  0  0  0  0
   28.8942  -18.2066  -17.2103 C   0  0  0  0  0  0  0  0  0  0  0  0
   28.1690  -17.8511  -15.9281 C   0  0  0  0  0  0  0  0  0  0  0  0
   28.2396  -19.1682  -15.1804 C   0  0  1  0  0  0  0  0  0  0  0  0
   27.3774  -19.2351  -13.9972 C   0  0  0  0  0  0  0  0  0  0  0  0
   27.4703  -18.4596  -13.0080 O   0  0  0  0  0  0  0  0  0  0  0  0
   26.3611  -20.2334  -13.9432 N   0  0  0  0  0  0  0  0  0  0  0  0
   25.3346  -20.1870  -12.8736 C   0  0  1  0  0  0  0  0  0  0  0  0
   24.0831  -20.8618  -13.3785 C   0  0  0  0  0  0  0  0  0  0  0  0
   22.9718  -20.8303  -12.4313 C   0  0  0  0  0  0  0  0  0  0  0  0
   22.6503  -19.7850  -11.8348 O   0  0  0  0  0  0  0  0  0  0  0  0
   25.9036  -20.7787  -11.6623 C   0  0  0  0  0  0  0  0  0  0  0  0
   27.0600  -21.2526  -11.5582 O   0  0  0  0  0  0  0  0  0  0  0  0
   22.2081  -21.9806  -12.1436 O   0  0  0  0  0  0  0  0  0  0  0  0
   28.8387  -20.9747   -7.5361 C   0  0  0  0  0  0  0  0  0  0  0  0
   27.4434  -20.4431   -7.4581 C   0  0  1  0  0  0  0  0  0  0  0  0
   27.3772  -19.1149   -6.6894 C   0  0  0  0  0  0  0  0  0  0  0  0
   26.8188  -20.1665   -8.7994 C   0  0  0  0  0  0  0  0  0  0  0  0
   25.6777  -21.0513   -9.1709 C   0  0  2  0  0  0  0  0  0  0  0  0
   25.0943  -20.8380  -10.4631 N   0  0  0  0  0  0  0  0  0  0  0  0
   24.6711  -21.1511   -8.0767 C   0  0  0  0  0  0  0  0  0  0  0  0
   23.5067  -20.7419   -8.2331 O   0  0  0  0  0  0  0  0  0  0  0  0
   25.0838  -21.7240   -6.8582 O   0  0  0  0  0  0  0  0  0  0  0  0
  1  2  1  0
  2  3  1  0
  4  3  1  0
  5  4  1  0
  5  1  1  0
  5  6  1  1
  6  7  2  0
  8  6  1  0
  9  8  1  0
  9 13  1  0
  9 10  1  6
 11 10  1  0
 11 12  2  0
 13 14  2  0
 15 11  1  0
 17 18  1  1
 17 16  1  0
 19 17  1  0
 20 19  1  1
 21 13  1  0
 21 20  1  0
 22 24  1  0
 22 20  1  0
 23 22  2  0
M  END
$$$$
