PDL.pdb
     RDKit          3D

 24 24  0  0  1  0  0  0  0  0999 V2000
   20.7986  -13.3835  -17.9452 N   0  0  0  0  0  0  0  0  0  0  0  0
   21.5913  -14.5215  -18.4055 C   0  0  0  0  0  0  0  0  0  0  0  0
   22.4064  -14.0365  -19.5554 C   0  0  0  0  0  0  0  0  0  0  0  0
   22.0612  -12.5637  -19.6447 C   0  0  0  0  0  0  0  0  0  0  0  0
   21.6919  -12.2647  -18.2049 C   0  0  1  0  0  0  0  0  0  0  0  0
   21.0393  -10.9673  -18.0084 C   0  0  0  0  0  0  0  0  0  0  0  0
   21.6516   -9.8668  -17.9565 O   0  0  0  0  0  0  0  0  0  0  0  0
   19.6213  -10.9259  -17.8663 N   0  0  0  0  0  0  0  0  0  0  0  0
   18.9206   -9.6197  -17.8170 C   0  0  1  0  0  0  0  0  0  0  0  0
   17.4644   -9.8425  -18.1430 C   0  0  0  0  0  0  0  0  0  0  0  0
   16.7064   -8.6088  -18.3340 C   0  0  0  0  0  0  0  0  0  0  0  0
   17.2566   -7.4917  -18.3036 O   0  0  0  0  0  0  0  0  0  0  0  0
   19.1697   -9.0118  -16.5095 C   0  0  0  0  0  0  0  0  0  0  0  0
   19.0463   -9.5895  -15.4032 O   0  0  0  0  0  0  0  0  0  0  0  0
   15.3143   -8.6199  -18.5610 O   0  0  0  0  0  0  0  0  0  0  0  0
   21.8945   -7.1512  -12.3296 C   0  0  0  0  0  0  0  0  0  0  0  0
   21.5142   -6.2234  -13.4387 C   0  0  1  0  0  0  0  0  0  0  0  0
   22.6048   -5.1766  -13.7110 C   0  0  0  0  0  0  0  0  0  0  0  0
   21.2751   -6.9114  -14.7561 C   0  0  0  0  0  0  0  0  0  0  0  0
   19.8524   -6.9757  -15.1977 C   0  0  2  0  0  0  0  0  0  0  0  0
   19.5973   -7.6298  -16.4478 N   0  0  0  0  0  0  0  0  0  0  0  0
   19.1693   -5.6576  -15.0697 C   0  0  0  0  0  0  0  0  0  0  0  0
   19.0423   -4.9000  -16.0483 O   0  0  0  0  0  0  0  0  0  0  0  0
   18.6731   -5.2982  -13.8016 O   0  0  0  0  0  0  0  0  0  0  0  0
  1  2  1  0
  2  3  1  0
  4  3  1  0
  5  4  1  0
  5  1  1  0
  5  6  1  6
  6  7  2  0
  8  6  1  0
  9  8  1  0
  9 13  1  0
  9 10  1  1
 11 10  1  0
 11 12  2  0
 13 14  2  0
 15 11  1  0
 17 18  1  6
 17 16  1  0
 19 17  1  0
 20 19  1  6
 21 13  1  0
 21 20  1  0
 22 24  1  0
 22 20  1  0
 23 22  2  0
M  END
$$$$
