PDL.pdb
     RDKit          3D

 24 24  0  0  1  0  0  0  0  0999 V2000
   27.9558  -21.5385  -15.3045 N   0  0  0  0  0  0  0  0  0  0  0  0
   28.8123  -21.5864  -16.4874 C   0  0  0  0  0  0  0  0  0  0  0  0
   28.7952  -20.2199  -17.0823 C   0  0  0  0  0  0  0  0  0  0  0  0
   27.9408  -19.4197  -16.1199 C   0  0  0  0  0  0  0  0  0  0  0  0
   28.1693  -20.1803  -14.8283 C   0  0  1  0  0  0  0  0  0  0  0  0
   27.2531  -19.8142  -13.7447 C   0  0  0  0  0  0  0  0  0  0  0  0
   27.1823  -18.6637  -13.2349 O   0  0  0  0  0  0  0  0  0  0  0  0
   26.3762  -20.8089  -13.2208 N   0  0  0  0  0  0  0  0  0  0  0  0
   25.2496  -20.4128  -12.3413 C   0  0  1  0  0  0  0  0  0  0  0  0
   23.9550  -20.7829  -13.0220 C   0  0  0  0  0  0  0  0  0  0  0  0
   22.7633  -20.4488  -12.2465 C   0  0  0  0  0  0  0  0  0  0  0  0
   22.0253  -21.3312  -11.7687 O   0  0  0  0  0  0  0  0  0  0  0  0
   25.4500  -21.0292  -11.0294 C   0  0  0  0  0  0  0  0  0  0  0  0
   25.6829  -22.2443  -10.8244 O   0  0  0  0  0  0  0  0  0  0  0  0
   22.3876  -19.1116  -12.0008 O   0  0  0  0  0  0  0  0  0  0  0  0
   28.1286  -18.5385   -6.9365 C   0  0  0  0  0  0  0  0  0  0  0  0
   27.5392  -19.5563   -7.8597 C   0  0  1  0  0  0  0  0  0  0  0  0
   28.3725  -20.8459   -7.8997 C   0  0  0  0  0  0  0  0  0  0  0  0
   26.1456  -19.9858   -7.4865 C   0  0  0  0  0  0  0  0  0  0  0  0
   25.4124  -20.7614   -8.5275 C   0  0  2  0  0  0  0  0  0  0  0  0
   25.3827  -20.1981   -9.8456 N   0  0  0  0  0  0  0  0  0  0  0  0
   24.0761  -21.2135   -8.0474 C   0  0  0  0  0  0  0  0  0  0  0  0
   23.0325  -20.8761   -8.6345 O   0  0  0  0  0  0  0  0  0  0  0  0
   24.0352  -22.0355   -6.9046 O   0  0  0  0  0  0  0  0  0  0  0  0
  1  2  1  0
  2  3  1  0
  4  3  1  0
  5  4  1  0
  5  1  1  0
  5  6  1  1
  6  7  2  0
  8  6  1  0
  9  8  1  0
  9 13  1  0
  9 10  1  6
 11 10  1  0
 11 12  2  0
 13 14  2  0
 15 11  1  0
 17 18  1  1
 17 16  1  0
 19 17  1  0
 20 19  1  1
 21 13  1  0
 21 20  1  0
 22 24  1  0
 22 20  1  0
 23 22  2  0
M  END
$$$$
