PDL.pdb
     RDKit          3D

 24 24  0  0  1  0  0  0  0  0999 V2000
   23.3374  -12.6658  -15.1501 N   0  0  0  0  0  0  0  0  0  0  0  0
   24.0261  -13.9081  -15.4927 C   0  0  0  0  0  0  0  0  0  0  0  0
   23.6072  -14.2599  -16.8793 C   0  0  0  0  0  0  0  0  0  0  0  0
   22.7122  -13.1073  -17.2876 C   0  0  0  0  0  0  0  0  0  0  0  0
   23.2757  -11.9868  -16.4355 C   0  0  1  0  0  0  0  0  0  0  0  0
   22.4406  -10.7832  -16.3958 C   0  0  0  0  0  0  0  0  0  0  0  0
   22.3406   -9.9585  -17.3436 O   0  0  0  0  0  0  0  0  0  0  0  0
   21.6836  -10.5108  -15.2187 N   0  0  0  0  0  0  0  0  0  0  0  0
   20.8412   -9.2923  -15.1465 C   0  0  1  0  0  0  0  0  0  0  0  0
   19.6182   -9.6014  -14.3187 C   0  0  0  0  0  0  0  0  0  0  0  0
   18.7120  -10.5635  -14.9402 C   0  0  0  0  0  0  0  0  0  0  0  0
   18.4434  -10.5182  -16.1558 O   0  0  0  0  0  0  0  0  0  0  0  0
   21.6627   -8.1930  -14.6388 C   0  0  0  0  0  0  0  0  0  0  0  0
   22.7921   -8.3142  -14.1072 O   0  0  0  0  0  0  0  0  0  0  0  0
   18.0948  -11.5906  -14.1961 O   0  0  0  0  0  0  0  0  0  0  0  0
   25.4127   -4.9460  -16.5276 C   0  0  0  0  0  0  0  0  0  0  0  0
   24.0786   -4.6430  -15.9245 C   0  0  1  0  0  0  0  0  0  0  0  0
   23.3067   -3.5922  -16.7365 C   0  0  0  0  0  0  0  0  0  0  0  0
   23.1644   -5.8354  -15.8323 C   0  0  0  0  0  0  0  0  0  0  0  0
   22.0500   -5.7154  -14.8491 C   0  0  2  0  0  0  0  0  0  0  0  0
   21.1640   -6.8376  -14.7430 N   0  0  0  0  0  0  0  0  0  0  0  0
   21.3402   -4.4106  -14.9682 C   0  0  0  0  0  0  0  0  0  0  0  0
   20.4062   -4.2566  -15.7754 O   0  0  0  0  0  0  0  0  0  0  0  0
   21.7642   -3.3567  -14.1358 O   0  0  0  0  0  0  0  0  0  0  0  0
  1  2  1  0
  2  3  1  0
  4  3  1  0
  5  4  1  0
  5  1  1  0
  5  6  1  1
  6  7  2  0
  8  6  1  0
  9  8  1  0
  9 13  1  0
  9 10  1  1
 11 10  1  0
 11 12  2  0
 13 14  2  0
 15 11  1  0
 17 18  1  6
 17 16  1  0
 19 17  1  0
 20 19  1  6
 21 13  1  0
 21 20  1  0
 22 24  1  0
 22 20  1  0
 23 22  2  0
M  END
$$$$
