PDL.pdb
     RDKit          3D

 24 24  0  0  1  0  0  0  0  0999 V2000
   21.2465   -9.8465  -18.5392 N   0  0  0  0  0  0  0  0  0  0  0  0
   22.2527  -10.4276  -19.4253 C   0  0  0  0  0  0  0  0  0  0  0  0
   21.5533  -11.4532  -20.2504 C   0  0  0  0  0  0  0  0  0  0  0  0
   20.1076  -11.3444  -19.8095 C   0  0  0  0  0  0  0  0  0  0  0  0
   20.0487   -9.8963  -19.3638 C   0  0  1  0  0  0  0  0  0  0  0  0
   18.8374   -9.5457  -18.6170 C   0  0  0  0  0  0  0  0  0  0  0  0
   17.6652   -9.7608  -19.0269 O   0  0  0  0  0  0  0  0  0  0  0  0
   18.9727   -8.9221  -17.3421 N   0  0  0  0  0  0  0  0  0  0  0  0
   17.8182   -8.8820  -16.4120 C   0  0  1  0  0  0  0  0  0  0  0  0
   17.3990  -10.2984  -16.1044 C   0  0  0  0  0  0  0  0  0  0  0  0
   16.0364  -10.4130  -15.5914 C   0  0  0  0  0  0  0  0  0  0  0  0
   15.3248   -9.4096  -15.3952 O   0  0  0  0  0  0  0  0  0  0  0  0
   18.1951   -8.0871  -15.2428 C   0  0  0  0  0  0  0  0  0  0  0  0
   17.7319   -8.2295  -14.0861 O   0  0  0  0  0  0  0  0  0  0  0  0
   15.4583  -11.6641  -15.2914 O   0  0  0  0  0  0  0  0  0  0  0  0
   22.2646   -8.1711  -12.4223 C   0  0  0  0  0  0  0  0  0  0  0  0
   22.4211   -8.4361  -13.8854 C   0  0  1  0  0  0  0  0  0  0  0  0
   23.0320   -9.8191  -14.1563 C   0  0  0  0  0  0  0  0  0  0  0  0
   21.1269   -8.4073  -14.6537 C   0  0  0  0  0  0  0  0  0  0  0  0
   20.4398   -7.0850  -14.7044 C   0  0  2  0  0  0  0  0  0  0  0  0
   19.1840   -7.0403  -15.3948 N   0  0  0  0  0  0  0  0  0  0  0  0
   21.3697   -5.9888  -15.0968 C   0  0  0  0  0  0  0  0  0  0  0  0
   21.7102   -5.1108  -14.2839 O   0  0  0  0  0  0  0  0  0  0  0  0
   21.8494   -5.9802  -16.4209 O   0  0  0  0  0  0  0  0  0  0  0  0
  1  2  1  0
  2  3  1  0
  4  3  1  0
  5  4  1  0
  5  1  1  0
  5  6  1  1
  6  7  2  0
  8  6  1  0
  9  8  1  0
  9 13  1  0
  9 10  1  1
 11 10  1  0
 11 12  2  0
 13 14  2  0
 15 11  1  0
 17 18  1  1
 17 16  1  0
 19 17  1  0
 20 19  1  6
 21 13  1  0
 21 20  1  0
 22 24  1  0
 22 20  1  0
 23 22  2  0
M  END
$$$$
