PDL.pdb
     RDKit          3D

 24 24  0  0  1  0  0  0  0  0999 V2000
   27.9965  -22.9989  -17.3260 N   0  0  0  0  0  0  0  0  0  0  0  0
   29.0570  -23.6703  -18.0741 C   0  0  0  0  0  0  0  0  0  0  0  0
   29.9268  -22.5984  -18.6366 C   0  0  0  0  0  0  0  0  0  0  0  0
   29.3179  -21.3206  -18.0953 C   0  0  0  0  0  0  0  0  0  0  0  0
   28.6826  -21.8226  -16.8134 C   0  0  1  0  0  0  0  0  0  0  0  0
   27.7668  -20.8683  -16.1822 C   0  0  0  0  0  0  0  0  0  0  0  0
   28.1243  -19.7687  -15.6806 O   0  0  0  0  0  0  0  0  0  0  0  0
   26.3780  -21.1850  -16.1234 N   0  0  0  0  0  0  0  0  0  0  0  0
   25.4171  -20.1989  -15.5721 C   0  0  1  0  0  0  0  0  0  0  0  0
   24.6058  -19.6300  -16.7098 C   0  0  0  0  0  0  0  0  0  0  0  0
   25.2662  -18.5363  -17.4174 C   0  0  0  0  0  0  0  0  0  0  0  0
   25.5974  -17.4861  -16.8350 O   0  0  0  0  0  0  0  0  0  0  0  0
   24.6308  -20.8555  -14.5273 C   0  0  0  0  0  0  0  0  0  0  0  0
   23.9652  -21.9086  -14.6711 O   0  0  0  0  0  0  0  0  0  0  0  0
   25.5611  -18.6132  -18.7945 O   0  0  0  0  0  0  0  0  0  0  0  0
   26.0145  -19.8974   -9.1076 C   0  0  0  0  0  0  0  0  0  0  0  0
   25.6665  -20.4863  -10.4372 C   0  0  1  0  0  0  0  0  0  0  0  0
   26.0784  -21.9627  -10.5367 C   0  0  0  0  0  0  0  0  0  0  0  0
   24.1953  -20.4539  -10.7538 C   0  0  0  0  0  0  0  0  0  0  0  0
   23.8285  -20.8552  -12.1421 C   0  0  2  0  0  0  0  0  0  0  0  0
   24.5955  -20.2707  -13.2031 N   0  0  0  0  0  0  0  0  0  0  0  0
   22.3574  -20.7900  -12.3705 C   0  0  0  0  0  0  0  0  0  0  0  0
   21.8690  -20.0076  -13.2054 O   0  0  0  0  0  0  0  0  0  0  0  0
   21.5382  -21.6443  -11.6073 O   0  0  0  0  0  0  0  0  0  0  0  0
  1  2  1  0
  2  3  1  0
  4  3  1  0
  5  4  1  0
  5  1  1  0
  5  6  1  6
  6  7  2  0
  8  6  1  0
  9  8  1  0
  9 13  1  0
  9 10  1  6
 11 10  1  0
 11 12  2  0
 13 14  2  0
 15 11  1  0
 17 18  1  1
 17 16  1  0
 19 17  1  0
 20 19  1  1
 21 13  1  0
 21 20  1  0
 22 24  1  0
 22 20  1  0
 23 22  2  0
M  END
$$$$
