PDL.pdb
     RDKit          3D

 24 24  0  0  1  0  0  0  0  0999 V2000
   17.7411  -14.0580  -16.9406 N   0  0  0  0  0  0  0  0  0  0  0  0
   17.4407  -15.4860  -17.0159 C   0  0  0  0  0  0  0  0  0  0  0  0
   17.8979  -15.9481  -18.3572 C   0  0  0  0  0  0  0  0  0  0  0  0
   18.5205  -14.7103  -18.9707 C   0  0  0  0  0  0  0  0  0  0  0  0
   18.9606  -13.9610  -17.7282 C   0  0  1  0  0  0  0  0  0  0  0  0
   19.3622  -12.5731  -17.9735 C   0  0  0  0  0  0  0  0  0  0  0  0
   20.4639  -12.2337  -18.4830 O   0  0  0  0  0  0  0  0  0  0  0  0
   18.4621  -11.5250  -17.6217 N   0  0  0  0  0  0  0  0  0  0  0  0
   18.8433  -10.1115  -17.8594 C   0  0  1  0  0  0  0  0  0  0  0  0
   17.6842   -9.4050  -18.5179 C   0  0  0  0  0  0  0  0  0  0  0  0
   17.9452   -8.0012  -18.8248 C   0  0  0  0  0  0  0  0  0  0  0  0
   18.9439   -7.6500  -19.4813 O   0  0  0  0  0  0  0  0  0  0  0  0
   19.2730   -9.5295  -16.5875 C   0  0  0  0  0  0  0  0  0  0  0  0
   18.5956   -9.5065  -15.5323 O   0  0  0  0  0  0  0  0  0  0  0  0
   17.0815   -6.9732  -18.3928 O   0  0  0  0  0  0  0  0  0  0  0  0
   23.7978  -10.8485  -14.0955 C   0  0  0  0  0  0  0  0  0  0  0  0
   22.4244  -10.2994  -14.3144 C   0  0  1  0  0  0  0  0  0  0  0  0
   21.5929  -10.3010  -13.0230 C   0  0  0  0  0  0  0  0  0  0  0  0
   22.4061   -8.8768  -14.8062 C   0  0  0  0  0  0  0  0  0  0  0  0
   21.0814   -8.3756  -15.2720 C   0  0  2  0  0  0  0  0  0  0  0  0
   20.5844   -8.9218  -16.5009 N   0  0  0  0  0  0  0  0  0  0  0  0
   20.9940   -6.8894  -15.2071 C   0  0  0  0  0  0  0  0  0  0  0  0
   21.2025   -6.2775  -14.1443 O   0  0  0  0  0  0  0  0  0  0  0  0
   20.6658   -6.2010  -16.3911 O   0  0  0  0  0  0  0  0  0  0  0  0
  1  2  1  0
  2  3  1  0
  4  3  1  0
  5  4  1  0
  5  1  1  0
  5  6  1  6
  6  7  2  0
  8  6  1  0
  9  8  1  0
  9 13  1  0
  9 10  1  1
 11 10  1  0
 11 12  2  0
 13 14  2  0
 15 11  1  0
 17 18  1  1
 17 16  1  0
 19 17  1  0
 20 19  1  6
 21 13  1  0
 21 20  1  0
 22 24  1  0
 22 20  1  0
 23 22  2  0
M  END
$$$$
