PDL.pdb
     RDKit          3D

 24 24  0  0  1  0  0  0  0  0999 V2000
   31.9501  -21.6323  -13.3025 N   0  0  0  0  0  0  0  0  0  0  0  0
   33.0979  -22.5291  -13.1868 C   0  0  0  0  0  0  0  0  0  0  0  0
   33.1855  -22.9274  -11.7531 C   0  0  0  0  0  0  0  0  0  0  0  0
   31.9858  -22.2530  -11.1189 C   0  0  0  0  0  0  0  0  0  0  0  0
   31.0409  -22.1701  -12.3019 C   0  0  1  0  0  0  0  0  0  0  0  0
   29.8753  -21.3096  -12.0814 C   0  0  0  0  0  0  0  0  0  0  0  0
   29.8403  -20.0799  -12.3556 O   0  0  0  0  0  0  0  0  0  0  0  0
   28.6947  -21.8817  -11.5233 N   0  0  0  0  0  0  0  0  0  0  0  0
   27.5631  -21.0071  -11.1307 C   0  0  1  0  0  0  0  0  0  0  0  0
   26.4099  -21.2619  -12.0697 C   0  0  0  0  0  0  0  0  0  0  0  0
   25.1849  -20.5545  -11.7066 C   0  0  0  0  0  0  0  0  0  0  0  0
   24.0594  -21.0119  -11.9818 O   0  0  0  0  0  0  0  0  0  0  0  0
   27.2661  -21.2435   -9.7175 C   0  0  0  0  0  0  0  0  0  0  0  0
   27.0598  -22.3648   -9.1952 O   0  0  0  0  0  0  0  0  0  0  0  0
   25.2142  -19.3185  -11.0277 O   0  0  0  0  0  0  0  0  0  0  0  0
   28.3748  -20.5172   -4.4419 C   0  0  0  0  0  0  0  0  0  0  0  0
   27.4552  -19.5005   -5.0387 C   0  0  1  0  0  0  0  0  0  0  0  0
   27.6292  -18.1187   -4.3909 C   0  0  0  0  0  0  0  0  0  0  0  0
   27.6581  -19.2844   -6.5145 C   0  0  0  0  0  0  0  0  0  0  0  0
   27.0038  -20.2849   -7.4057 C   0  0  2  0  0  0  0  0  0  0  0  0
   27.1982  -20.1127   -8.8157 N   0  0  0  0  0  0  0  0  0  0  0  0
   25.5813  -20.5200   -7.0292 C   0  0  0  0  0  0  0  0  0  0  0  0
   25.2805  -21.0373   -5.9385 O   0  0  0  0  0  0  0  0  0  0  0  0
   24.5884  -20.1372   -7.9517 O   0  0  0  0  0  0  0  0  0  0  0  0
  1  2  1  0
  2  3  1  0
  4  3  1  0
  5  4  1  0
  5  1  1  0
  5  6  1  1
  6  7  2  0
  8  6  1  0
  9  8  1  0
  9 13  1  0
  9 10  1  6
 11 10  1  0
 11 12  2  0
 13 14  2  0
 15 11  1  0
 17 18  1  1
 17 16  1  0
 19 17  1  0
 20 19  1  1
 21 13  1  0
 21 20  1  0
 22 24  1  0
 22 20  1  0
 23 22  2  0
M  END
$$$$
