PDL.pdb
     RDKit          3D

 24 24  0  0  1  0  0  0  0  0999 V2000
   20.7041  -11.8245  -16.1435 N   0  0  0  0  0  0  0  0  0  0  0  0
   20.3032  -13.2122  -16.3645 C   0  0  0  0  0  0  0  0  0  0  0  0
   18.8238  -13.2620  -16.1898 C   0  0  0  0  0  0  0  0  0  0  0  0
   18.4437  -11.8180  -15.9313 C   0  0  0  0  0  0  0  0  0  0  0  0
   19.5579  -11.0904  -16.6579 C   0  0  1  0  0  0  0  0  0  0  0  0
   19.6313   -9.6565  -16.3645 C   0  0  0  0  0  0  0  0  0  0  0  0
   18.8131   -8.8016  -16.7984 O   0  0  0  0  0  0  0  0  0  0  0  0
   20.6879   -9.1780  -15.5354 N   0  0  0  0  0  0  0  0  0  0  0  0
   20.7756   -7.7340  -15.2084 C   0  0  1  0  0  0  0  0  0  0  0  0
   21.4287   -7.5859  -13.8564 C   0  0  0  0  0  0  0  0  0  0  0  0
   21.6120   -6.1988  -13.4377 C   0  0  0  0  0  0  0  0  0  0  0  0
   22.7421   -5.6786  -13.3742 O   0  0  0  0  0  0  0  0  0  0  0  0
   21.4706   -7.0548  -16.3023 C   0  0  0  0  0  0  0  0  0  0  0  0
   22.3226   -7.5783  -17.0592 O   0  0  0  0  0  0  0  0  0  0  0  0
   20.5201   -5.3793  -13.0832 O   0  0  0  0  0  0  0  0  0  0  0  0
   23.4362   -5.2227  -20.4521 C   0  0  0  0  0  0  0  0  0  0  0  0
   21.9540   -5.1280  -20.2804 C   0  0  1  0  0  0  0  0  0  0  0  0
   21.1980   -5.7837  -21.4456 C   0  0  0  0  0  0  0  0  0  0  0  0
   21.4389   -5.7984  -19.0350 C   0  0  0  0  0  0  0  0  0  0  0  0
   21.5949   -5.0176  -17.7744 C   0  0  2  0  0  0  0  0  0  0  0  0
   21.1750   -5.6617  -16.5642 N   0  0  0  0  0  0  0  0  0  0  0  0
   21.0794   -3.6264  -17.9134 C   0  0  0  0  0  0  0  0  0  0  0  0
   20.1471   -3.2107  -17.2023 O   0  0  0  0  0  0  0  0  0  0  0  0
   21.6836   -2.7982  -18.8789 O   0  0  0  0  0  0  0  0  0  0  0  0
  1  2  1  0
  2  3  1  0
  4  3  1  0
  5  4  1  0
  5  1  1  0
  5  6  1  1
  6  7  2  0
  8  6  1  0
  9  8  1  0
  9 13  1  0
  9 10  1  1
 11 10  1  0
 11 12  2  0
 13 14  2  0
 15 11  1  0
 17 18  1  6
 17 16  1  0
 19 17  1  0
 20 19  1  6
 21 13  1  0
 21 20  1  0
 22 24  1  0
 22 20  1  0
 23 22  2  0
M  END
$$$$
