PDL.pdb
     RDKit          3D

 24 24  0  0  1  0  0  0  0  0999 V2000
   22.0800  -20.4857  -15.9283 N   0  0  0  0  0  0  0  0  0  0  0  0
   20.8074  -19.7833  -15.7791 C   0  0  0  0  0  0  0  0  0  0  0  0
   20.8630  -19.0728  -14.4700 C   0  0  0  0  0  0  0  0  0  0  0  0
   22.2564  -19.3745  -13.9563 C   0  0  0  0  0  0  0  0  0  0  0  0
   23.0056  -19.5854  -15.2575 C   0  0  1  0  0  0  0  0  0  0  0  0
   24.3398  -20.1698  -15.0954 C   0  0  0  0  0  0  0  0  0  0  0  0
   25.0872  -20.5060  -16.0528 O   0  0  0  0  0  0  0  0  0  0  0  0
   24.8432  -20.3778  -13.7778 N   0  0  0  0  0  0  0  0  0  0  0  0
   26.2567  -20.7817  -13.5812 C   0  0  1  0  0  0  0  0  0  0  0  0
   27.1477  -19.7172  -14.1723 C   0  0  0  0  0  0  0  0  0  0  0  0
   28.5730  -20.0230  -14.0824 C   0  0  0  0  0  0  0  0  0  0  0  0
   28.9799  -21.1513  -13.7459 O   0  0  0  0  0  0  0  0  0  0  0  0
   26.4695  -21.0368  -12.1562 C   0  0  0  0  0  0  0  0  0  0  0  0
   27.5485  -20.8672  -11.5400 O   0  0  0  0  0  0  0  0  0  0  0  0
   29.5597  -19.0572  -14.3704 O   0  0  0  0  0  0  0  0  0  0  0  0
   27.6522  -19.3450   -7.7175 C   0  0  0  0  0  0  0  0  0  0  0  0
   27.1855  -20.3947   -8.6745 C   0  0  1  0  0  0  0  0  0  0  0  0
   26.7148  -21.6642   -7.9494 C   0  0  0  0  0  0  0  0  0  0  0  0
   26.0267  -19.9661   -9.5345 C   0  0  0  0  0  0  0  0  0  0  0  0
   25.1441  -21.0666  -10.0173 C   0  0  2  0  0  0  0  0  0  0  0  0
   25.3646  -21.5250  -11.3577 N   0  0  0  0  0  0  0  0  0  0  0  0
   23.7096  -20.8055   -9.7100 C   0  0  0  0  0  0  0  0  0  0  0  0
   23.2400  -21.0370   -8.5815 O   0  0  0  0  0  0  0  0  0  0  0  0
   22.9029  -20.2885  -10.7421 O   0  0  0  0  0  0  0  0  0  0  0  0
  1  2  1  0
  2  3  1  0
  4  3  1  0
  5  4  1  0
  5  1  1  0
  5  6  1  1
  6  7  2  0
  8  6  1  0
  9  8  1  0
  9 13  1  0
  9 10  1  1
 11 10  1  0
 11 12  2  0
 13 14  2  0
 15 11  1  0
 17 18  1  1
 17 16  1  0
 19 17  1  0
 20 19  1  6
 21 13  1  0
 21 20  1  0
 22 24  1  0
 22 20  1  0
 23 22  2  0
M  END
$$$$
