PDL.pdb
     RDKit          3D

 24 24  0  0  1  0  0  0  0  0999 V2000
   17.0709  -11.4774  -15.0441 N   0  0  0  0  0  0  0  0  0  0  0  0
   16.6048  -12.8428  -15.2751 C   0  0  0  0  0  0  0  0  0  0  0  0
   16.1194  -12.8955  -16.6834 C   0  0  0  0  0  0  0  0  0  0  0  0
   16.4120  -11.5076  -17.2165 C   0  0  0  0  0  0  0  0  0  0  0  0
   17.5913  -11.1075  -16.3516 C   0  0  1  0  0  0  0  0  0  0  0  0
   17.9439   -9.6875  -16.4349 C   0  0  0  0  0  0  0  0  0  0  0  0
   18.5752   -9.1693  -17.3947 O   0  0  0  0  0  0  0  0  0  0  0  0
   17.5553   -8.8196  -15.3726 N   0  0  0  0  0  0  0  0  0  0  0  0
   17.8834   -7.3748  -15.4401 C   0  0  1  0  0  0  0  0  0  0  0  0
   16.6036   -6.5848  -15.3198 C   0  0  0  0  0  0  0  0  0  0  0  0
   16.7641   -5.1568  -15.5808 C   0  0  0  0  0  0  0  0  0  0  0  0
   15.8332   -4.3497  -15.3971 O   0  0  0  0  0  0  0  0  0  0  0  0
   18.8838   -7.0806  -14.4136 C   0  0  0  0  0  0  0  0  0  0  0  0
   18.7128   -7.1968  -13.1767 O   0  0  0  0  0  0  0  0  0  0  0  0
   17.9794   -4.6202  -16.0546 O   0  0  0  0  0  0  0  0  0  0  0  0
   23.0189   -9.8022  -13.7057 C   0  0  0  0  0  0  0  0  0  0  0  0
   21.9483   -8.7847  -13.4733 C   0  0  1  0  0  0  0  0  0  0  0  0
   21.5279   -8.7206  -11.9973 C   0  0  0  0  0  0  0  0  0  0  0  0
   22.3484   -7.3812  -13.8419 C   0  0  0  0  0  0  0  0  0  0  0  0
   21.2402   -6.3842  -13.8704 C   0  0  2  0  0  0  0  0  0  0  0  0
   20.1929   -6.6157  -14.8219 N   0  0  0  0  0  0  0  0  0  0  0  0
   21.7505   -4.9842  -13.8816 C   0  0  0  0  0  0  0  0  0  0  0  0
   21.4011   -4.1781  -14.7623 O   0  0  0  0  0  0  0  0  0  0  0  0
   22.6436   -4.6052  -12.8608 O   0  0  0  0  0  0  0  0  0  0  0  0
  1  2  1  0
  2  3  1  0
  4  3  1  0
  5  4  1  0
  5  1  1  0
  5  6  1  1
  6  7  2  0
  8  6  1  0
  9  8  1  0
  9 13  1  0
  9 10  1  1
 11 10  1  0
 11 12  2  0
 13 14  2  0
 15 11  1  0
 17 18  1  1
 17 16  1  0
 19 17  1  0
 20 19  1  6
 21 13  1  0
 21 20  1  0
 22 24  1  0
 22 20  1  0
 23 22  2  0
M  END
$$$$
