PDL.pdb
     RDKit          3D

 24 24  0  0  1  0  0  0  0  0999 V2000
   27.6620  -21.1677  -15.4209 N   0  0  0  0  0  0  0  0  0  0  0  0
   28.6639  -21.2549  -16.4810 C   0  0  0  0  0  0  0  0  0  0  0  0
   28.8623  -19.8701  -16.9955 C   0  0  0  0  0  0  0  0  0  0  0  0
   27.9663  -19.0264  -16.1114 C   0  0  0  0  0  0  0  0  0  0  0  0
   27.9398  -19.8605  -14.8455 C   0  0  1  0  0  0  0  0  0  0  0  0
   26.9238  -19.4468  -13.8738 C   0  0  0  0  0  0  0  0  0  0  0  0
   26.8655  -18.2999  -13.3543 O   0  0  0  0  0  0  0  0  0  0  0  0
   25.9274  -20.3870  -13.4792 N   0  0  0  0  0  0  0  0  0  0  0  0
   24.6842  -19.9154  -12.8221 C   0  0  1  0  0  0  0  0  0  0  0  0
   23.5025  -20.5289  -13.5318 C   0  0  0  0  0  0  0  0  0  0  0  0
   23.3298  -20.0611  -14.9045 C   0  0  0  0  0  0  0  0  0  0  0  0
   23.2916  -20.8528  -15.8654 O   0  0  0  0  0  0  0  0  0  0  0  0
   24.7705  -20.2261  -11.3948 C   0  0  0  0  0  0  0  0  0  0  0  0
   23.8479  -20.0715  -10.5595 O   0  0  0  0  0  0  0  0  0  0  0  0
   23.1988  -18.6906  -15.2113 O   0  0  0  0  0  0  0  0  0  0  0  0
   28.6817  -20.7609   -6.9553 C   0  0  0  0  0  0  0  0  0  0  0  0
   27.4000  -20.1023   -7.3540 C   0  0  1  0  0  0  0  0  0  0  0  0
   27.2880  -18.6771   -6.7926 C   0  0  0  0  0  0  0  0  0  0  0  0
   27.2195  -19.9669   -8.8423 C   0  0  0  0  0  0  0  0  0  0  0  0
   26.2280  -20.8961   -9.4559 C   0  0  2  0  0  0  0  0  0  0  0  0
   26.0082  -20.7602  -10.8661 N   0  0  0  0  0  0  0  0  0  0  0  0
   24.9670  -20.9667   -8.6649 C   0  0  0  0  0  0  0  0  0  0  0  0
   23.9676  -20.2985   -8.9847 O   0  0  0  0  0  0  0  0  0  0  0  0
   24.9461  -21.8156   -7.5414 O   0  0  0  0  0  0  0  0  0  0  0  0
  1  2  1  0
  2  3  1  0
  4  3  1  0
  5  4  1  0
  5  1  1  0
  5  6  1  1
  6  7  2  0
  8  6  1  0
  9  8  1  0
  9 13  1  0
  9 10  1  6
 11 10  1  0
 11 12  2  0
 13 14  2  0
 15 11  1  0
 17 18  1  1
 17 16  1  0
 19 17  1  0
 20 19  1  1
 21 13  1  0
 21 20  1  0
 22 24  1  0
 22 20  1  0
 23 22  2  0
M  END
$$$$
