PDL.pdb
     RDKit          3D

 24 24  0  0  1  0  0  0  0  0999 V2000
   27.8456  -27.3732  -18.0296 N   0  0  0  0  0  0  0  0  0  0  0  0
   27.7114  -25.9370  -18.2630 C   0  0  0  0  0  0  0  0  0  0  0  0
   28.6030  -25.2597  -17.2791 C   0  0  0  0  0  0  0  0  0  0  0  0
   29.2737  -26.4077  -16.5522 C   0  0  0  0  0  0  0  0  0  0  0  0
   29.2363  -27.4864  -17.6170 C   0  0  1  0  0  0  0  0  0  0  0  0
   29.5698  -28.8268  -17.1272 C   0  0  0  0  0  0  0  0  0  0  0  0
   30.6689  -29.1323  -16.5914 O   0  0  0  0  0  0  0  0  0  0  0  0
   28.6015  -29.8655  -17.2544 N   0  0  0  0  0  0  0  0  0  0  0  0
   28.8730  -31.2046  -16.6777 C   0  0  1  0  0  0  0  0  0  0  0  0
   27.8056  -31.5141  -15.6572 C   0  0  0  0  0  0  0  0  0  0  0  0
   27.9833  -32.8001  -14.9880 C   0  0  0  0  0  0  0  0  0  0  0  0
   28.9948  -33.5019  -15.1778 O   0  0  0  0  0  0  0  0  0  0  0  0
   28.9696  -32.1682  -17.7746 C   0  0  0  0  0  0  0  0  0  0  0  0
   28.2424  -32.1830  -18.7962 O   0  0  0  0  0  0  0  0  0  0  0  0
   27.0191  -33.3123  -14.0950 O   0  0  0  0  0  0  0  0  0  0  0  0
   33.5456  -33.5928  -20.3263 C   0  0  0  0  0  0  0  0  0  0  0  0
   32.1152  -33.3424  -19.9701 C   0  0  1  0  0  0  0  0  0  0  0  0
   31.2510  -33.0827  -21.2131 C   0  0  0  0  0  0  0  0  0  0  0  0
   31.4551  -34.4876  -19.2499 C   0  0  0  0  0  0  0  0  0  0  0  0
   30.0868  -34.2129  -18.7254 C   0  0  2  0  0  0  0  0  0  0  0  0
   29.9784  -33.2050  -17.7114 N   0  0  0  0  0  0  0  0  0  0  0  0
   29.3555  -35.4678  -18.3924 C   0  0  0  0  0  0  0  0  0  0  0  0
   29.1869  -36.3602  -19.2426 O   0  0  0  0  0  0  0  0  0  0  0  0
   28.8605  -35.6085  -17.0815 O   0  0  0  0  0  0  0  0  0  0  0  0
  1  2  1  0
  2  3  1  0
  4  3  1  0
  5  4  1  0
  5  1  1  0
  5  6  1  1
  6  7  2  0
  8  6  1  0
  9  8  1  0
  9 13  1  0
  9 10  1  1
 11 10  1  0
 11 12  2  0
 13 14  2  0
 15 11  1  0
 17 18  1  6
 17 16  1  0
 19 17  1  0
 20 19  1  1
 21 13  1  0
 21 20  1  0
 22 24  1  0
 22 20  1  0
 23 22  2  0
M  END
$$$$
