QLM.pdb
     RDKit          3D

 26 25  0  0  1  0  0  0  0  0999 V2000
   28.9352  -22.5905  -16.4002 N   0  0  0  0  0  0  0  0  0  0  0  0
   29.0109  -21.2542  -16.8565 C   0  0  0  0  0  0  0  0  0  0  0  0
   28.5416  -20.9476  -17.9629 O   0  0  0  0  0  0  0  0  0  0  0  0
   29.6509  -20.2365  -16.0055 C   0  0  0  0  0  0  0  0  0  0  0  0
   28.6600  -19.7678  -14.9841 C   0  0  0  0  0  0  0  0  0  0  0  0
   27.2421  -19.7119  -15.5318 C   0  0  2  0  0  0  0  0  0  0  0  0
   27.0647  -18.6614  -16.4826 N   0  0  0  0  0  0  0  0  0  0  0  0
   26.3206  -19.5188  -14.3791 C   0  0  0  0  0  0  0  0  0  0  0  0
   26.1834  -18.3730  -13.8482 O   0  0  0  0  0  0  0  0  0  0  0  0
   20.9970  -21.5645  -12.7748 C   0  0  0  0  0  0  0  0  0  0  0  0
   22.2056  -20.8552  -12.1423 C   0  0  2  0  0  0  0  0  0  0  0  0
   21.7496  -19.4848  -11.7715 C   0  0  0  0  0  0  0  0  0  0  0  0
   23.2967  -20.8953  -13.1511 C   0  0  0  0  0  0  0  0  0  0  0  0
   24.6156  -20.3666  -12.7133 C   0  0  2  0  0  0  0  0  0  0  0  0
   25.5589  -20.5673  -13.8150 N   0  0  0  0  0  0  0  0  0  0  0  0
   25.1304  -20.9428  -11.4567 C   0  0  0  0  0  0  0  0  0  0  0  0
   25.3878  -22.1680  -11.3549 O   0  0  0  0  0  0  0  0  0  0  0  0
   29.4929  -19.1356   -6.6207 C   0  0  0  0  0  0  0  0  0  0  0  0
   27.8565  -19.2566   -5.8260 S   0  0  0  0  0  0  0  0  0  0  0  0
   26.8389  -20.3832   -6.7935 C   0  0  0  0  0  0  0  0  0  0  0  0
   26.5321  -19.7726   -8.1564 C   0  0  0  0  0  0  0  0  0  0  0  0
   25.7584  -20.7337   -9.0198 C   0  0  2  0  0  0  0  0  0  0  0  0
   25.3688  -20.1562  -10.2826 N   0  0  0  0  0  0  0  0  0  0  0  0
   24.5270  -21.1031   -8.2838 C   0  0  0  0  0  0  0  0  0  0  0  0
   23.4549  -20.4776   -8.4633 O   0  0  0  0  0  0  0  0  0  0  0  0
   24.5805  -22.1462   -7.3984 O   0  0  0  0  0  0  0  0  0  0  0  0
  1  2  1  0
  2  4  1  0
  2  3  2  0
  4  5  1  0
  5  6  1  0
  6  7  1  6
  8  9  2  0
  8  6  1  0
 11 10  1  6
 11 12  1  0
 14 13  1  6
 13 11  1  0
 14 15  1  0
 15  8  1  0
 16 14  1  0
 17 16  2  0
 19 18  1  0
 20 19  1  0
 21 20  1  0
 22 21  1  1
 22 24  1  0
 22 23  1  0
 23 16  1  0
 24 26  1  0
 25 24  2  0
M  END
$$$$
