QLM.pdb
     RDKit          3D

 26 25  0  0  1  0  0  0  0  0999 V2000
   13.3052  -22.3483    5.9924 N   0  0  0  0  0  0  0  0  0  0  0  0
   12.4424  -22.4993    4.8822 C   0  0  0  0  0  0  0  0  0  0  0  0
   11.3519  -23.0748    5.0162 O   0  0  0  0  0  0  0  0  0  0  0  0
   12.8533  -21.9673    3.5716 C   0  0  0  0  0  0  0  0  0  0  0  0
   14.2172  -21.3611    3.7020 C   0  0  0  0  0  0  0  0  0  0  0  0
   14.7363  -20.8075    2.3837 C   0  0  2  0  0  0  0  0  0  0  0  0
   15.0275  -21.8355    1.4364 N   0  0  0  0  0  0  0  0  0  0  0  0
   15.9650  -20.0206    2.6776 C   0  0  0  0  0  0  0  0  0  0  0  0
   17.1091  -20.5702    2.6318 O   0  0  0  0  0  0  0  0  0  0  0  0
   17.4940  -14.1338    2.9214 C   0  0  0  0  0  0  0  0  0  0  0  0
   18.0142  -15.5289    3.3045 C   0  0  2  0  0  0  0  0  0  0  0  0
   19.3126  -15.7096    2.5940 C   0  0  0  0  0  0  0  0  0  0  0  0
   16.9546  -16.4975    2.9185 C   0  0  0  0  0  0  0  0  0  0  0  0
   17.1406  -17.8960    3.3879 C   0  0  2  0  0  0  0  0  0  0  0  0
   15.9407  -18.6488    3.0174 N   0  0  0  0  0  0  0  0  0  0  0  0
   17.4362  -18.0348    4.8264 C   0  0  0  0  0  0  0  0  0  0  0  0
   16.5232  -18.0053    5.6887 O   0  0  0  0  0  0  0  0  0  0  0  0
   22.7187  -19.3720   10.6120 C   0  0  0  0  0  0  0  0  0  0  0  0
   22.4294  -19.3579    8.8120 S   0  0  0  0  0  0  0  0  0  0  0  0
   20.7828  -18.6968    8.5081 C   0  0  0  0  0  0  0  0  0  0  0  0
   20.4875  -18.6936    7.0123 C   0  0  0  0  0  0  0  0  0  0  0  0
   19.0627  -18.2886    6.7414 C   0  0  2  0  0  0  0  0  0  0  0  0
   18.7657  -18.2102    5.3322 N   0  0  0  0  0  0  0  0  0  0  0  0
   18.8614  -16.9437    7.3291 C   0  0  0  0  0  0  0  0  0  0  0  0
   19.0811  -15.9065    6.6593 O   0  0  0  0  0  0  0  0  0  0  0  0
   18.4283  -16.8527    8.6249 O   0  0  0  0  0  0  0  0  0  0  0  0
  1  2  1  0
  2  4  1  0
  2  3  2  0
  4  5  1  0
  5  6  1  0
  6  7  1  6
  8  9  2  0
  8  6  1  0
 11 10  1  6
 11 12  1  0
 14 13  1  1
 13 11  1  0
 14 15  1  0
 15  8  1  0
 16 14  1  0
 17 16  2  0
 19 18  1  0
 20 19  1  0
 21 20  1  0
 22 21  1  6
 22 24  1  0
 22 23  1  0
 23 16  1  0
 24 26  1  0
 25 24  2  0
M  END
$$$$
