QLM.pdb
     RDKit          3D

 26 25  0  0  1  0  0  0  0  0999 V2000
   12.9869  -10.3405  -14.7233 N   0  0  0  0  0  0  0  0  0  0  0  0
   13.4496  -10.7976  -15.9789 C   0  0  0  0  0  0  0  0  0  0  0  0
   12.6410  -11.1851  -16.8358 O   0  0  0  0  0  0  0  0  0  0  0  0
   14.8965  -10.8077  -16.2546 C   0  0  0  0  0  0  0  0  0  0  0  0
   15.6209  -10.2784  -15.0547 C   0  0  0  0  0  0  0  0  0  0  0  0
   17.1321  -10.3183  -15.2230 C   0  0  2  0  0  0  0  0  0  0  0  0
   17.6228  -11.6415  -15.4405 N   0  0  0  0  0  0  0  0  0  0  0  0
   17.7385   -9.7446  -13.9907 C   0  0  0  0  0  0  0  0  0  0  0  0
   18.1691  -10.5057  -13.0694 O   0  0  0  0  0  0  0  0  0  0  0  0
   19.6424   -5.3949  -11.2614 C   0  0  0  0  0  0  0  0  0  0  0  0
   20.5301   -6.4876  -11.8791 C   0  0  2  0  0  0  0  0  0  0  0  0
   21.7846   -5.8162  -12.3251 C   0  0  0  0  0  0  0  0  0  0  0  0
   19.7373   -7.1114  -12.9710 C   0  0  0  0  0  0  0  0  0  0  0  0
   18.4796   -7.7918  -12.5633 C   0  0  2  0  0  0  0  0  0  0  0  0
   17.8715   -8.3548  -13.7703 N   0  0  0  0  0  0  0  0  0  0  0  0
   17.5231   -6.9423  -11.8288 C   0  0  0  0  0  0  0  0  0  0  0  0
   17.0339   -5.9077  -12.3468 O   0  0  0  0  0  0  0  0  0  0  0  0
   11.7066   -7.0308   -6.5234 C   0  0  0  0  0  0  0  0  0  0  0  0
   13.2117   -7.8706   -7.1182 S   0  0  0  0  0  0  0  0  0  0  0  0
   14.0664   -6.7649   -8.2529 C   0  0  0  0  0  0  0  0  0  0  0  0
   15.2510   -7.4823   -8.8905 C   0  0  0  0  0  0  0  0  0  0  0  0
   15.9555   -6.5924   -9.8802 C   0  0  2  0  0  0  0  0  0  0  0  0
   17.0923   -7.2341  -10.4935 N   0  0  0  0  0  0  0  0  0  0  0  0
   16.4412   -5.4023   -9.1438 C   0  0  0  0  0  0  0  0  0  0  0  0
   17.6516   -5.2808   -8.8390 O   0  0  0  0  0  0  0  0  0  0  0  0
   15.5394   -4.4312   -8.7997 O   0  0  0  0  0  0  0  0  0  0  0  0
  1  2  1  0
  2  4  1  0
  2  3  2  0
  4  5  1  0
  5  6  1  0
  6  7  1  1
  8  9  2  0
  8  6  1  0
 11 10  1  6
 11 12  1  0
 14 13  1  6
 13 11  1  0
 14 15  1  0
 15  8  1  0
 16 14  1  0
 17 16  2  0
 19 18  1  0
 20 19  1  0
 21 20  1  0
 22 21  1  1
 22 24  1  0
 22 23  1  0
 23 16  1  0
 24 26  1  0
 25 24  2  0
M  END
$$$$
