QLM.pdb
     RDKit          3D

 26 25  0  0  1  0  0  0  0  0999 V2000
   26.2463  -17.3402  -17.9956 N   0  0  0  0  0  0  0  0  0  0  0  0
   27.0263  -18.5183  -17.9387 C   0  0  0  0  0  0  0  0  0  0  0  0
   28.1511  -18.4944  -17.4165 O   0  0  0  0  0  0  0  0  0  0  0  0
   26.4888  -19.7675  -18.5044 C   0  0  0  0  0  0  0  0  0  0  0  0
   25.5911  -20.4099  -17.4915 C   0  0  0  0  0  0  0  0  0  0  0  0
   26.3403  -20.8396  -16.2394 C   0  0  2  0  0  0  0  0  0  0  0  0
   27.2979  -21.8660  -16.5010 N   0  0  0  0  0  0  0  0  0  0  0  0
   25.3335  -21.3192  -15.2536 C   0  0  0  0  0  0  0  0  0  0  0  0
   24.7937  -22.4613  -15.3870 O   0  0  0  0  0  0  0  0  0  0  0  0
   25.5918  -22.4193  -11.1228 C   0  0  0  0  0  0  0  0  0  0  0  0
   25.6524  -20.8920  -11.2888 C   0  0  2  0  0  0  0  0  0  0  0  0
   25.9822  -20.3302   -9.9475 C   0  0  0  0  0  0  0  0  0  0  0  0
   24.3337  -20.4717  -11.8313 C   0  0  0  0  0  0  0  0  0  0  0  0
   23.9543  -21.0422  -13.1509 C   0  0  2  0  0  0  0  0  0  0  0  0
   24.9232  -20.5576  -14.1359 N   0  0  0  0  0  0  0  0  0  0  0  0
   22.5709  -20.7577  -13.5766 C   0  0  0  0  0  0  0  0  0  0  0  0
   22.1853  -19.5853  -13.8101 O   0  0  0  0  0  0  0  0  0  0  0  0
   18.3517  -25.3494  -15.3219 C   0  0  0  0  0  0  0  0  0  0  0  0
   17.2092  -23.9397  -15.4989 S   0  0  0  0  0  0  0  0  0  0  0  0
   18.1176  -22.4264  -15.1449 C   0  0  0  0  0  0  0  0  0  0  0  0
   19.4913  -22.7614  -14.5745 C   0  0  0  0  0  0  0  0  0  0  0  0
   20.2427  -21.5114  -14.1998 C   0  0  2  0  0  0  0  0  0  0  0  0
   21.5858  -21.7841  -13.7506 N   0  0  0  0  0  0  0  0  0  0  0  0
   19.5081  -20.8654  -13.0874 C   0  0  0  0  0  0  0  0  0  0  0  0
   19.8390  -21.0630  -11.8939 O   0  0  0  0  0  0  0  0  0  0  0  0
   18.4548  -20.0435  -13.3872 O   0  0  0  0  0  0  0  0  0  0  0  0
  1  2  1  0
  2  4  1  0
  2  3  2  0
  4  5  1  0
  5  6  1  0
  6  7  1  6
  8  9  2  0
  8  6  1  0
 11 10  1  1
 11 12  1  0
 14 13  1  1
 13 11  1  0
 14 15  1  0
 15  8  1  0
 16 14  1  0
 17 16  2  0
 19 18  1  0
 20 19  1  0
 21 20  1  0
 22 21  1  1
 22 24  1  0
 22 23  1  0
 23 16  1  0
 24 26  1  0
 25 24  2  0
M  END
$$$$
