QLM.pdb
     RDKit          3D

 26 25  0  0  1  0  0  0  0  0999 V2000
   20.7432  -20.0969  -14.2333 N   0  0  0  0  0  0  0  0  0  0  0  0
   20.0727  -21.2589  -14.6800 C   0  0  0  0  0  0  0  0  0  0  0  0
   19.0437  -21.1581  -15.3652 O   0  0  0  0  0  0  0  0  0  0  0  0
   20.6089  -22.5835  -14.3231 C   0  0  0  0  0  0  0  0  0  0  0  0
   21.8839  -22.3988  -13.5584 C   0  0  0  0  0  0  0  0  0  0  0  0
   23.0550  -22.0357  -14.4587 C   0  0  2  0  0  0  0  0  0  0  0  0
   23.2138  -22.9501  -15.5438 N   0  0  0  0  0  0  0  0  0  0  0  0
   24.2831  -22.0223  -13.6179 C   0  0  0  0  0  0  0  0  0  0  0  0
   24.7889  -23.1091  -13.1978 O   0  0  0  0  0  0  0  0  0  0  0  0
   28.3100  -20.6277  -14.3102 C   0  0  0  0  0  0  0  0  0  0  0  0
   27.3643  -19.4450  -14.0446 C   0  0  2  0  0  0  0  0  0  0  0  0
   28.1473  -18.2046  -14.3120 C   0  0  0  0  0  0  0  0  0  0  0  0
   26.8879  -19.5892  -12.6438 C   0  0  0  0  0  0  0  0  0  0  0  0
   26.1021  -20.8144  -12.3401 C   0  0  2  0  0  0  0  0  0  0  0  0
   24.9487  -20.8335  -13.2420 N   0  0  0  0  0  0  0  0  0  0  0  0
   25.6827  -20.9510  -10.9325 C   0  0  0  0  0  0  0  0  0  0  0  0
   24.4905  -20.7650  -10.5831 O   0  0  0  0  0  0  0  0  0  0  0  0
   29.3026  -18.9610   -6.0399 C   0  0  0  0  0  0  0  0  0  0  0  0
   28.3507  -20.2237   -5.1325 S   0  0  0  0  0  0  0  0  0  0  0  0
   26.9528  -20.7206   -6.1522 C   0  0  0  0  0  0  0  0  0  0  0  0
   27.3995  -20.9084   -7.5977 C   0  0  0  0  0  0  0  0  0  0  0  0
   26.2328  -21.2505   -8.4861 C   0  0  2  0  0  0  0  0  0  0  0  0
   26.5929  -21.3000   -9.8818 N   0  0  0  0  0  0  0  0  0  0  0  0
   25.2129  -20.1903   -8.3118 C   0  0  0  0  0  0  0  0  0  0  0  0
   24.1608  -20.4063   -7.6643 O   0  0  0  0  0  0  0  0  0  0  0  0
   25.4409  -18.9626   -8.8736 O   0  0  0  0  0  0  0  0  0  0  0  0
  1  2  1  0
  2  4  1  0
  2  3  2  0
  4  5  1  0
  5  6  1  0
  6  7  1  6
  8  9  2  0
  8  6  1  0
 11 10  1  1
 11 12  1  0
 14 13  1  1
 13 11  1  0
 14 15  1  0
 15  8  1  0
 16 14  1  0
 17 16  2  0
 19 18  1  0
 20 19  1  0
 21 20  1  0
 22 21  1  1
 22 24  1  0
 22 23  1  0
 23 16  1  0
 24 26  1  0
 25 24  2  0
M  END
$$$$
