QLM.pdb
     RDKit          3D

 26 25  0  0  1  0  0  0  0  0999 V2000
   22.8155  -19.3608  -17.5013 N   0  0  0  0  0  0  0  0  0  0  0  0
   21.4909  -19.0476  -17.1181 C   0  0  0  0  0  0  0  0  0  0  0  0
   20.8331  -18.2237  -17.7715 O   0  0  0  0  0  0  0  0  0  0  0  0
   20.9054  -19.7088  -15.9393 C   0  0  0  0  0  0  0  0  0  0  0  0
   21.9004  -20.6837  -15.3879 C   0  0  0  0  0  0  0  0  0  0  0  0
   22.3598  -20.3157  -13.9853 C   0  0  2  0  0  0  0  0  0  0  0  0
   22.5149  -18.9067  -13.8133 N   0  0  0  0  0  0  0  0  0  0  0  0
   23.6552  -21.0062  -13.7392 C   0  0  0  0  0  0  0  0  0  0  0  0
   23.7203  -22.2747  -13.7410 O   0  0  0  0  0  0  0  0  0  0  0  0
   29.5581  -19.4945  -13.8793 C   0  0  0  0  0  0  0  0  0  0  0  0
   28.6083  -20.6490  -13.5205 C   0  0  2  0  0  0  0  0  0  0  0  0
   28.9863  -21.7985  -14.3918 C   0  0  0  0  0  0  0  0  0  0  0  0
   27.2265  -20.1411  -13.7267 C   0  0  0  0  0  0  0  0  0  0  0  0
   26.1278  -20.9959  -13.2041 C   0  0  2  0  0  0  0  0  0  0  0  0
   24.8639  -20.3159  -13.4942 N   0  0  0  0  0  0  0  0  0  0  0  0
   26.2342  -21.3394  -11.7735 C   0  0  0  0  0  0  0  0  0  0  0  0
   27.0262  -22.2271  -11.3701 O   0  0  0  0  0  0  0  0  0  0  0  0
   28.9730  -19.4319   -6.8352 C   0  0  0  0  0  0  0  0  0  0  0  0
   27.3064  -19.3992   -6.0968 S   0  0  0  0  0  0  0  0  0  0  0  0
   26.2401  -20.4865   -7.0568 C   0  0  0  0  0  0  0  0  0  0  0  0
   26.3281  -20.1329   -8.5372 C   0  0  0  0  0  0  0  0  0  0  0  0
   25.5031  -21.0775   -9.3707 C   0  0  2  0  0  0  0  0  0  0  0  0
   25.4531  -20.6938  -10.7600 N   0  0  0  0  0  0  0  0  0  0  0  0
   24.1213  -21.0533   -8.8370 C   0  0  0  0  0  0  0  0  0  0  0  0
   23.1730  -20.5983   -9.5200 O   0  0  0  0  0  0  0  0  0  0  0  0
   23.8966  -21.5396   -7.5770 O   0  0  0  0  0  0  0  0  0  0  0  0
  1  2  1  0
  2  4  1  0
  2  3  2  0
  4  5  1  0
  5  6  1  0
  6  7  1  6
  8  9  2  0
  8  6  1  0
 11 10  1  6
 11 12  1  0
 14 13  1  1
 13 11  1  0
 14 15  1  0
 15  8  1  0
 16 14  1  0
 17 16  2  0
 19 18  1  0
 20 19  1  0
 21 20  1  0
 22 21  1  1
 22 24  1  0
 22 23  1  0
 23 16  1  0
 24 26  1  0
 25 24  2  0
M  END
$$$$
