QLM.pdb
     RDKit          3D

 26 25  0  0  1  0  0  0  0  0999 V2000
   25.3466  -22.5286  -13.5086 N   0  0  0  0  0  0  0  0  0  0  0  0
   25.4895  -21.2225  -14.0312 C   0  0  0  0  0  0  0  0  0  0  0  0
   25.0111  -20.9409  -15.1404 O   0  0  0  0  0  0  0  0  0  0  0  0
   26.2098  -20.2059  -13.2456 C   0  0  0  0  0  0  0  0  0  0  0  0
   26.6179  -20.8071  -11.9354 C   0  0  0  0  0  0  0  0  0  0  0  0
   25.5292  -20.6943  -10.8792 C   0  0  2  0  0  0  0  0  0  0  0  0
   25.0016  -19.3713  -10.7776 N   0  0  0  0  0  0  0  0  0  0  0  0
   26.1188  -21.1107   -9.5775 C   0  0  0  0  0  0  0  0  0  0  0  0
   26.6884  -22.2399   -9.4593 O   0  0  0  0  0  0  0  0  0  0  0  0
   29.2616  -20.2636   -6.3170 C   0  0  0  0  0  0  0  0  0  0  0  0
   28.2669  -19.1375   -6.6427 C   0  0  2  0  0  0  0  0  0  0  0  0
   28.7060  -17.9430   -5.8658 C   0  0  0  0  0  0  0  0  0  0  0  0
   26.9168  -19.6481   -6.2871 C   0  0  0  0  0  0  0  0  0  0  0  0
   26.4192  -20.8001   -7.0848 C   0  0  2  0  0  0  0  0  0  0  0  0
   26.0849  -20.3005   -8.4199 N   0  0  0  0  0  0  0  0  0  0  0  0
   25.2838  -21.5267   -6.4858 C   0  0  0  0  0  0  0  0  0  0  0  0
   25.4588  -22.3993   -5.5993 O   0  0  0  0  0  0  0  0  0  0  0  0
   21.9421  -18.3372   -3.3227 C   0  0  0  0  0  0  0  0  0  0  0  0
   22.3610  -19.8670   -2.4237 S   0  0  0  0  0  0  0  0  0  0  0  0
   22.8064  -21.1282   -3.6286 C   0  0  0  0  0  0  0  0  0  0  0  0
   22.4181  -20.6731   -5.0310 C   0  0  0  0  0  0  0  0  0  0  0  0
   22.8007  -21.7028   -6.0610 C   0  0  2  0  0  0  0  0  0  0  0  0
   23.9228  -21.2910   -6.8682 N   0  0  0  0  0  0  0  0  0  0  0  0
   21.6358  -21.8933   -6.9561 C   0  0  0  0  0  0  0  0  0  0  0  0
   21.6323  -21.4264   -8.1201 O   0  0  0  0  0  0  0  0  0  0  0  0
   20.5561  -22.5925   -6.4870 O   0  0  0  0  0  0  0  0  0  0  0  0
  1  2  1  0
  2  4  1  0
  2  3  2  0
  4  5  1  0
  5  6  1  0
  6  7  1  1
  8  9  2  0
  8  6  1  0
 11 10  1  1
 11 12  1  0
 14 13  1  1
 13 11  1  0
 14 15  1  0
 15  8  1  0
 16 14  1  0
 17 16  2  0
 19 18  1  0
 20 19  1  0
 21 20  1  0
 22 21  1  1
 22 24  1  0
 22 23  1  0
 23 16  1  0
 24 26  1  0
 25 24  2  0
M  END
$$$$
