QLM.pdb
     RDKit          3D

 26 25  0  0  1  0  0  0  0  0999 V2000
   27.1936  -20.1508  -18.1519 N   0  0  0  0  0  0  0  0  0  0  0  0
   27.9727  -19.0298  -17.7835 C   0  0  0  0  0  0  0  0  0  0  0  0
   28.7651  -18.5293  -18.5960 O   0  0  0  0  0  0  0  0  0  0  0  0
   27.8321  -18.4670  -16.4296 C   0  0  0  0  0  0  0  0  0  0  0  0
   26.7388  -19.1990  -15.7130 C   0  0  0  0  0  0  0  0  0  0  0  0
   27.2687  -20.0983  -14.6066 C   0  0  2  0  0  0  0  0  0  0  0  0
   28.1300  -21.1240  -15.1018 N   0  0  0  0  0  0  0  0  0  0  0  0
   26.0967  -20.7038  -13.9173 C   0  0  0  0  0  0  0  0  0  0  0  0
   25.5069  -21.7130  -14.4143 O   0  0  0  0  0  0  0  0  0  0  0  0
   26.0220  -22.2738   -9.8789 C   0  0  0  0  0  0  0  0  0  0  0  0
   25.8646  -20.7447   -9.9083 C   0  0  2  0  0  0  0  0  0  0  0  0
   25.9664  -20.2783   -8.4957 C   0  0  0  0  0  0  0  0  0  0  0  0
   24.5593  -20.4650  -10.5625 C   0  0  0  0  0  0  0  0  0  0  0  0
   24.4524  -20.8333  -11.9991 C   0  0  2  0  0  0  0  0  0  0  0  0
   25.5773  -20.2101  -12.6990 N   0  0  0  0  0  0  0  0  0  0  0  0
   23.1678  -20.4863  -12.6358 C   0  0  0  0  0  0  0  0  0  0  0  0
   22.8482  -19.2920  -12.8579 O   0  0  0  0  0  0  0  0  0  0  0  0
   20.2803  -24.0613  -16.8909 C   0  0  0  0  0  0  0  0  0  0  0  0
   21.1867  -22.5782  -17.4410 S   0  0  0  0  0  0  0  0  0  0  0  0
   21.5550  -21.5707  -15.9954 C   0  0  0  0  0  0  0  0  0  0  0  0
   20.6195  -21.9379  -14.8489 C   0  0  0  0  0  0  0  0  0  0  0  0
   20.9318  -21.1336  -13.6148 C   0  0  2  0  0  0  0  0  0  0  0  0
   22.2098  -21.4731  -13.0390 N   0  0  0  0  0  0  0  0  0  0  0  0
   19.8825  -21.4293  -12.6117 C   0  0  0  0  0  0  0  0  0  0  0  0
   18.6893  -21.0970  -12.8080 O   0  0  0  0  0  0  0  0  0  0  0  0
   20.2409  -22.0760  -11.4593 O   0  0  0  0  0  0  0  0  0  0  0  0
  1  2  1  0
  2  4  1  0
  2  3  2  0
  4  5  1  0
  5  6  1  0
  6  7  1  6
  8  9  2  0
  8  6  1  0
 11 10  1  1
 11 12  1  0
 14 13  1  1
 13 11  1  0
 14 15  1  0
 15  8  1  0
 16 14  1  0
 17 16  2  0
 19 18  1  0
 20 19  1  0
 21 20  1  0
 22 21  1  6
 22 24  1  0
 22 23  1  0
 23 16  1  0
 24 26  1  0
 25 24  2  0
M  END
$$$$
