LCN.pdb
     RDKit          3D

 23 22  0  0  1  0  0  0  0  0999 V2000
    5.8181  -12.1626   25.8354 C   0  0  0  0  0  0  0  0  0  0  0  0
    6.6086  -13.0374   26.7460 C   0  0  2  0  0  0  0  0  0  0  0  0
    7.4728  -12.1732   27.6491 C   0  0  0  0  0  0  0  0  0  0  0  0
    7.3739  -14.1353   26.0982 C   0  0  0  0  0  0  0  0  0  0  0  0
    6.6028  -15.0710   25.2353 C   0  0  2  0  0  0  0  0  0  0  0  0
    5.6750  -15.8980   25.9264 N   0  0  0  0  0  0  0  0  0  0  0  0
    7.5697  -15.8032   24.3742 C   0  0  0  0  0  0  0  0  0  0  0  0
    8.0001  -16.9574   24.7191 O   0  0  0  0  0  0  0  0  0  0  0  0
    8.0879  -15.3283   23.1487 N   0  0  0  0  0  0  0  0  0  0  0  0
    9.0822  -16.0470   22.3760 C   0  0  1  0  0  0  0  0  0  0  0  0
    9.3053  -15.4612   21.0201 C   0  0  0  0  0  0  0  0  0  0  0  0
   10.5181  -16.4806   20.1461 S   0  0  0  0  0  0  0  0  0  0  0  0
   10.3473  -16.1925   23.1571 C   0  0  0  0  0  0  0  0  0  0  0  0
   10.7048  -15.2381   23.9041 O   0  0  0  0  0  0  0  0  0  0  0  0
   13.4965  -18.8641   26.2262 N   0  0  0  0  0  0  0  0  0  0  0  0
   12.1290  -18.6117   26.5059 C   0  0  0  0  0  0  0  0  0  0  0  0
   11.7099  -18.8395   27.6662 O   0  0  0  0  0  0  0  0  0  0  0  0
   11.2410  -18.0923   25.4360 C   0  0  0  0  0  0  0  0  0  0  0  0
   12.0228  -17.7387   24.1885 C   0  0  2  0  0  0  0  0  0  0  0  0
   11.1648  -17.3282   23.1110 N   0  0  0  0  0  0  0  0  0  0  0  0
   12.8719  -18.8957   23.8558 C   0  0  0  0  0  0  0  0  0  0  0  0
   12.3466  -19.8292   23.1944 O   0  0  0  0  0  0  0  0  0  0  0  0
   14.1937  -19.0406   24.2088 O   0  0  0  0  0  0  0  0  0  0  0  0
  2  3  1  6
  2  1  1  0
  4  2  1  0
  5  7  1  0
  5  4  1  0
  5  6  1  1
  7  9  1  0
  8  7  2  0
  9 10  1  0
 10 13  1  0
 10 11  1  6
 11 12  1  0
 13 14  2  0
 13 20  1  0
 16 18  1  0
 16 15  1  0
 17 16  2  0
 19 21  1  0
 19 18  1  1
 20 19  1  0
 21 23  1  0
 22 21  2  0
M  END
$$$$
