LCN.pdb
     RDKit          3D

 23 22  0  0  1  0  0  0  0  0999 V2000
    8.5495  -13.8365   18.4149 C   0  0  0  0  0  0  0  0  0  0  0  0
    8.0875  -13.0946   19.6214 C   0  0  2  0  0  0  0  0  0  0  0  0
    8.2212  -11.6010   19.3754 C   0  0  0  0  0  0  0  0  0  0  0  0
    8.6802  -13.5183   20.9175 C   0  0  0  0  0  0  0  0  0  0  0  0
    8.4162  -14.9178   21.3493 C   0  0  2  0  0  0  0  0  0  0  0  0
    7.1450  -15.4322   20.9728 N   0  0  0  0  0  0  0  0  0  0  0  0
    8.7230  -15.0154   22.8015 C   0  0  0  0  0  0  0  0  0  0  0  0
    9.9180  -14.8441   23.2245 O   0  0  0  0  0  0  0  0  0  0  0  0
    7.7782  -15.2921   23.8147 N   0  0  0  0  0  0  0  0  0  0  0  0
    8.1430  -15.5150   25.2002 C   0  0  1  0  0  0  0  0  0  0  0  0
    7.0273  -15.2309   26.1521 C   0  0  0  0  0  0  0  0  0  0  0  0
    6.2507  -13.6671   25.6769 S   0  0  0  0  0  0  0  0  0  0  0  0
    8.7179  -16.8825   25.3766 C   0  0  0  0  0  0  0  0  0  0  0  0
    8.3868  -17.7836   24.5549 O   0  0  0  0  0  0  0  0  0  0  0  0
   12.0711  -20.5837   24.3938 N   0  0  0  0  0  0  0  0  0  0  0  0
   12.3825  -19.4311   25.1597 C   0  0  0  0  0  0  0  0  0  0  0  0
   13.4569  -19.4229   25.8074 O   0  0  0  0  0  0  0  0  0  0  0  0
   11.4447  -18.2808   25.1760 C   0  0  0  0  0  0  0  0  0  0  0  0
   10.4886  -18.3605   26.3473 C   0  0  2  0  0  0  0  0  0  0  0  0
    9.6058  -17.2276   26.4027 N   0  0  0  0  0  0  0  0  0  0  0  0
   11.2964  -18.5365   27.5666 C   0  0  0  0  0  0  0  0  0  0  0  0
   11.6086  -17.5002   28.2097 O   0  0  0  0  0  0  0  0  0  0  0  0
   11.7386  -19.7417   28.0614 O   0  0  0  0  0  0  0  0  0  0  0  0
  2  3  1  6
  2  1  1  0
  4  2  1  0
  5  7  1  0
  5  4  1  0
  5  6  1  1
  7  9  1  0
  8  7  2  0
  9 10  1  0
 10 13  1  0
 10 11  1  1
 11 12  1  0
 13 14  2  0
 13 20  1  0
 16 18  1  0
 16 15  1  0
 17 16  2  0
 19 21  1  0
 19 18  1  6
 20 19  1  0
 21 23  1  0
 22 21  2  0
M  END
$$$$
