LCN.pdb
     RDKit          3D

 23 22  0  0  1  0  0  0  0  0999 V2000
    8.3614  -14.0442   17.6887 C   0  0  0  0  0  0  0  0  0  0  0  0
    7.6644  -13.4005   18.8373 C   0  0  2  0  0  0  0  0  0  0  0  0
    7.3752  -11.9474   18.4999 C   0  0  0  0  0  0  0  0  0  0  0  0
    8.3069  -13.5641   20.1682 C   0  0  0  0  0  0  0  0  0  0  0  0
    8.5496  -14.9584   20.6282 C   0  0  2  0  0  0  0  0  0  0  0  0
    7.4677  -15.8569   20.4168 N   0  0  0  0  0  0  0  0  0  0  0  0
    9.0464  -14.8994   22.0290 C   0  0  0  0  0  0  0  0  0  0  0  0
   10.1180  -14.2601   22.3103 O   0  0  0  0  0  0  0  0  0  0  0  0
    8.4212  -15.5097   23.1392 N   0  0  0  0  0  0  0  0  0  0  0  0
    8.9915  -15.5054   24.4722 C   0  0  1  0  0  0  0  0  0  0  0  0
    7.9587  -15.4559   25.5504 C   0  0  0  0  0  0  0  0  0  0  0  0
    7.3567  -13.7553   25.6918 S   0  0  0  0  0  0  0  0  0  0  0  0
    9.9442  -16.6441   24.6377 C   0  0  0  0  0  0  0  0  0  0  0  0
    9.4870  -17.7589   25.0184 O   0  0  0  0  0  0  0  0  0  0  0  0
   13.7102  -15.6356   22.0722 N   0  0  0  0  0  0  0  0  0  0  0  0
   13.8764  -16.2561   23.3369 C   0  0  0  0  0  0  0  0  0  0  0  0
   14.4687  -15.6149   24.2380 O   0  0  0  0  0  0  0  0  0  0  0  0
   13.3539  -17.6273   23.5600 C   0  0  0  0  0  0  0  0  0  0  0  0
   12.2405  -17.6372   24.5859 C   0  0  2  0  0  0  0  0  0  0  0  0
   11.3199  -16.5501   24.3951 N   0  0  0  0  0  0  0  0  0  0  0  0
   12.8673  -17.6496   25.9190 C   0  0  0  0  0  0  0  0  0  0  0  0
   13.6141  -18.6236   26.1994 O   0  0  0  0  0  0  0  0  0  0  0  0
   12.7039  -16.6832   26.8845 O   0  0  0  0  0  0  0  0  0  0  0  0
  2  3  1  6
  2  1  1  0
  4  2  1  0
  5  7  1  0
  5  4  1  0
  5  6  1  1
  7  9  1  0
  8  7  2  0
  9 10  1  0
 10 13  1  0
 10 11  1  1
 11 12  1  0
 13 14  2  0
 13 20  1  0
 16 18  1  0
 16 15  1  0
 17 16  2  0
 19 21  1  0
 19 18  1  6
 20 19  1  0
 21 23  1  0
 22 21  2  0
M  END
$$$$
