LCN.pdb
     RDKit          3D

 23 22  0  0  1  0  0  0  0  0999 V2000
    8.0759  -12.8171   18.8060 C   0  0  0  0  0  0  0  0  0  0  0  0
    7.7687  -13.7826   19.8983 C   0  0  2  0  0  0  0  0  0  0  0  0
    6.5594  -13.2926   20.6773 C   0  0  0  0  0  0  0  0  0  0  0  0
    8.9059  -14.1579   20.7796 C   0  0  0  0  0  0  0  0  0  0  0  0
    8.7104  -15.3439   21.6571 C   0  0  2  0  0  0  0  0  0  0  0  0
    7.3996  -15.8948   21.6381 N   0  0  0  0  0  0  0  0  0  0  0  0
    9.2236  -15.0024   23.0108 C   0  0  0  0  0  0  0  0  0  0  0  0
   10.3970  -14.5140   23.1550 O   0  0  0  0  0  0  0  0  0  0  0  0
    8.5083  -15.1712   24.2173 N   0  0  0  0  0  0  0  0  0  0  0  0
    9.0321  -14.7803   25.5116 C   0  0  1  0  0  0  0  0  0  0  0  0
    8.1555  -13.8055   26.2276 C   0  0  0  0  0  0  0  0  0  0  0  0
    8.9176  -13.4093   27.8202 S   0  0  0  0  0  0  0  0  0  0  0  0
    9.3466  -15.9866   26.3349 C   0  0  0  0  0  0  0  0  0  0  0  0
    8.3975  -16.7538   26.6627 O   0  0  0  0  0  0  0  0  0  0  0  0
   11.0324  -18.9724   25.2873 N   0  0  0  0  0  0  0  0  0  0  0  0
   12.2570  -18.6250   25.9132 C   0  0  0  0  0  0  0  0  0  0  0  0
   13.3200  -18.7905   25.2677 O   0  0  0  0  0  0  0  0  0  0  0  0
   12.2513  -18.0826   27.2948 C   0  0  0  0  0  0  0  0  0  0  0  0
   10.9260  -17.4319   27.6303 C   0  0  2  0  0  0  0  0  0  0  0  0
   10.6358  -16.3198   26.7674 N   0  0  0  0  0  0  0  0  0  0  0  0
   10.9579  -17.0747   29.0592 C   0  0  0  0  0  0  0  0  0  0  0  0
   10.9089  -15.8513   29.3521 O   0  0  0  0  0  0  0  0  0  0  0  0
   11.0367  -17.9690   30.1017 O   0  0  0  0  0  0  0  0  0  0  0  0
  2  3  1  1
  2  1  1  0
  4  2  1  0
  5  7  1  0
  5  4  1  0
  5  6  1  1
  7  9  1  0
  8  7  2  0
  9 10  1  0
 10 13  1  0
 10 11  1  1
 11 12  1  0
 13 14  2  0
 13 20  1  0
 16 18  1  0
 16 15  1  0
 17 16  2  0
 19 21  1  0
 19 18  1  6
 20 19  1  0
 21 23  1  0
 22 21  2  0
M  END
$$$$
