LCN.pdb
     RDKit          3D

 23 22  0  0  1  0  0  0  0  0999 V2000
    7.7246  -11.4659   27.2424 C   0  0  0  0  0  0  0  0  0  0  0  0
    6.7565  -11.9375   26.2128 C   0  0  2  0  0  0  0  0  0  0  0  0
    5.4002  -11.3021   26.4692 C   0  0  0  0  0  0  0  0  0  0  0  0
    6.6734  -13.4091   26.0175 C   0  0  0  0  0  0  0  0  0  0  0  0
    7.9483  -14.1194   25.7261 C   0  0  2  0  0  0  0  0  0  0  0  0
    9.0183  -13.2829   25.3043 N   0  0  0  0  0  0  0  0  0  0  0  0
    7.6438  -15.2514   24.8105 C   0  0  0  0  0  0  0  0  0  0  0  0
    6.6713  -16.0438   25.0606 O   0  0  0  0  0  0  0  0  0  0  0  0
    8.3574  -15.5560   23.6298 N   0  0  0  0  0  0  0  0  0  0  0  0
    8.0566  -16.7024   22.7945 C   0  0  1  0  0  0  0  0  0  0  0  0
    7.7934  -16.3359   21.3705 C   0  0  0  0  0  0  0  0  0  0  0  0
    7.4460  -14.5619   21.2885 S   0  0  0  0  0  0  0  0  0  0  0  0
    9.1170  -17.7453   22.9354 C   0  0  0  0  0  0  0  0  0  0  0  0
    9.0064  -18.8087   22.2618 O   0  0  0  0  0  0  0  0  0  0  0  0
   11.9774  -17.8218   21.6755 N   0  0  0  0  0  0  0  0  0  0  0  0
   12.9480  -17.8648   22.7089 C   0  0  0  0  0  0  0  0  0  0  0  0
   14.1211  -17.5145   22.4347 O   0  0  0  0  0  0  0  0  0  0  0  0
   12.5586  -18.3159   24.0683 C   0  0  0  0  0  0  0  0  0  0  0  0
   11.0969  -18.7063   24.1262 C   0  0  2  0  0  0  0  0  0  0  0  0
   10.2313  -17.6147   23.7729 N   0  0  0  0  0  0  0  0  0  0  0  0
   10.8375  -19.2510   25.4702 C   0  0  0  0  0  0  0  0  0  0  0  0
   11.3319  -20.3756   25.7452 O   0  0  0  0  0  0  0  0  0  0  0  0
   10.0983  -18.6313   26.4512 O   0  0  0  0  0  0  0  0  0  0  0  0
  2  3  1  1
  2  1  1  0
  4  2  1  0
  5  7  1  0
  5  4  1  0
  5  6  1  6
  7  9  1  0
  8  7  2  0
  9 10  1  0
 10 13  1  0
 10 11  1  6
 11 12  1  0
 13 14  2  0
 13 20  1  0
 16 18  1  0
 16 15  1  0
 17 16  2  0
 19 21  1  0
 19 18  1  1
 20 19  1  0
 21 23  1  0
 22 21  2  0
M  END
$$$$
