LCN.pdb
     RDKit          3D

 23 22  0  0  1  0  0  0  0  0999 V2000
    9.3291  -12.9848   19.1937 C   0  0  0  0  0  0  0  0  0  0  0  0
    7.8751  -13.2936   19.2936 C   0  0  2  0  0  0  0  0  0  0  0  0
    7.0752  -12.0154   19.1046 C   0  0  0  0  0  0  0  0  0  0  0  0
    7.4502  -14.0650   20.4915 C   0  0  0  0  0  0  0  0  0  0  0  0
    8.2038  -15.3141   20.7860 C   0  0  2  0  0  0  0  0  0  0  0  0
    7.8555  -16.4300   19.9763 N   0  0  0  0  0  0  0  0  0  0  0  0
    8.1299  -15.5597   22.2512 C   0  0  0  0  0  0  0  0  0  0  0  0
    7.0895  -15.2205   22.9137 O   0  0  0  0  0  0  0  0  0  0  0  0
    9.1459  -16.1621   23.0263 N   0  0  0  0  0  0  0  0  0  0  0  0
    8.9230  -16.6796   24.3622 C   0  0  1  0  0  0  0  0  0  0  0  0
    7.6114  -17.3798   24.5073 C   0  0  0  0  0  0  0  0  0  0  0  0
    7.4684  -17.9860   26.2062 S   0  0  0  0  0  0  0  0  0  0  0  0
   10.0778  -17.5219   24.7967 C   0  0  0  0  0  0  0  0  0  0  0  0
   10.2452  -18.6442   24.2405 O   0  0  0  0  0  0  0  0  0  0  0  0
   13.4779  -17.3588   23.5428 N   0  0  0  0  0  0  0  0  0  0  0  0
   13.5107  -16.6001   24.7410 C   0  0  0  0  0  0  0  0  0  0  0  0
   13.6168  -15.3534   24.6499 O   0  0  0  0  0  0  0  0  0  0  0  0
   13.4200  -17.2887   26.0527 C   0  0  0  0  0  0  0  0  0  0  0  0
   12.0788  -17.9679   26.2317 C   0  0  2  0  0  0  0  0  0  0  0  0
   10.9904  -17.1408   25.7878 N   0  0  0  0  0  0  0  0  0  0  0  0
   11.9723  -18.3713   27.6446 C   0  0  0  0  0  0  0  0  0  0  0  0
   12.8608  -19.1403   28.0964 O   0  0  0  0  0  0  0  0  0  0  0  0
   10.9805  -17.9765   28.5125 O   0  0  0  0  0  0  0  0  0  0  0  0
  2  3  1  1
  2  1  1  0
  4  2  1  0
  5  7  1  0
  5  4  1  0
  5  6  1  6
  7  9  1  0
  8  7  2  0
  9 10  1  0
 10 13  1  0
 10 11  1  6
 11 12  1  0
 13 14  2  0
 13 20  1  0
 16 18  1  0
 16 15  1  0
 17 16  2  0
 19 21  1  0
 19 18  1  1
 20 19  1  0
 21 23  1  0
 22 21  2  0
M  END
$$$$
