LCN.pdb
     RDKit          3D

 23 22  0  0  1  0  0  0  0  0999 V2000
    8.4358  -14.1964   18.7069 C   0  0  0  0  0  0  0  0  0  0  0  0
    7.4702  -13.7823   19.7631 C   0  0  2  0  0  0  0  0  0  0  0  0
    6.6715  -12.5859   19.2734 C   0  0  0  0  0  0  0  0  0  0  0  0
    8.0353  -13.5776   21.1231 C   0  0  0  0  0  0  0  0  0  0  0  0
    8.6684  -14.7588   21.7703 C   0  0  2  0  0  0  0  0  0  0  0  0
    7.9648  -15.9833   21.6036 N   0  0  0  0  0  0  0  0  0  0  0  0
    8.9712  -14.4009   23.1819 C   0  0  0  0  0  0  0  0  0  0  0  0
    9.1207  -13.1770   23.5226 O   0  0  0  0  0  0  0  0  0  0  0  0
    9.1177  -15.3246   24.2408 N   0  0  0  0  0  0  0  0  0  0  0  0
    9.1556  -14.9324   25.6361 C   0  0  1  0  0  0  0  0  0  0  0  0
    8.0532  -13.9966   26.0111 C   0  0  0  0  0  0  0  0  0  0  0  0
    8.3279  -13.4363   27.7096 S   0  0  0  0  0  0  0  0  0  0  0  0
    9.2141  -16.1375   26.5171 C   0  0  0  0  0  0  0  0  0  0  0  0
    9.2814  -15.9647   27.7671 O   0  0  0  0  0  0  0  0  0  0  0  0
    6.3528  -19.0295   27.7988 N   0  0  0  0  0  0  0  0  0  0  0  0
    6.9398  -19.2855   26.5331 C   0  0  0  0  0  0  0  0  0  0  0  0
    6.2293  -19.1374   25.5098 O   0  0  0  0  0  0  0  0  0  0  0  0
    8.3580  -19.7156   26.4513 C   0  0  0  0  0  0  0  0  0  0  0  0
    9.2990  -18.6114   26.8842 C   0  0  2  0  0  0  0  0  0  0  0  0
    9.1989  -17.4533   26.0389 N   0  0  0  0  0  0  0  0  0  0  0  0
   10.6557  -19.1829   26.9402 C   0  0  0  0  0  0  0  0  0  0  0  0
   10.8414  -20.1609   27.7108 O   0  0  0  0  0  0  0  0  0  0  0  0
   11.7383  -18.7353   26.2188 O   0  0  0  0  0  0  0  0  0  0  0  0
  2  3  1  6
  2  1  1  0
  4  2  1  0
  5  7  1  0
  5  4  1  0
  5  6  1  1
  7  9  1  0
  8  7  2  0
  9 10  1  0
 10 13  1  0
 10 11  1  1
 11 12  1  0
 13 14  2  0
 13 20  1  0
 16 18  1  0
 16 15  1  0
 17 16  2  0
 19 21  1  0
 19 18  1  6
 20 19  1  0
 21 23  1  0
 22 21  2  0
M  END
$$$$
