LCN.pdb
     RDKit          3D

 23 22  0  0  1  0  0  0  0  0999 V2000
    9.1978  -12.9295   19.6423 C   0  0  0  0  0  0  0  0  0  0  0  0
    7.8312  -13.5155   19.7342 C   0  0  2  0  0  0  0  0  0  0  0  0
    6.8113  -12.4885   19.2714 C   0  0  0  0  0  0  0  0  0  0  0  0
    7.4710  -14.1359   21.0365 C   0  0  0  0  0  0  0  0  0  0  0  0
    8.3915  -15.1829   21.5573 C   0  0  2  0  0  0  0  0  0  0  0  0
    8.5819  -16.2974   20.6947 N   0  0  0  0  0  0  0  0  0  0  0  0
    7.9580  -15.5296   22.9373 C   0  0  0  0  0  0  0  0  0  0  0  0
    7.6244  -14.6105   23.7621 O   0  0  0  0  0  0  0  0  0  0  0  0
    7.8723  -16.8406   23.4568 N   0  0  0  0  0  0  0  0  0  0  0  0
    7.5266  -17.1266   24.8356 C   0  0  1  0  0  0  0  0  0  0  0  0
    6.7636  -18.4008   24.9954 C   0  0  0  0  0  0  0  0  0  0  0  0
    7.7090  -19.7372   24.2242 S   0  0  0  0  0  0  0  0  0  0  0  0
    8.7419  -17.0691   25.7026 C   0  0  0  0  0  0  0  0  0  0  0  0
    9.8762  -17.1583   25.1529 O   0  0  0  0  0  0  0  0  0  0  0  0
   10.2587  -14.4413   26.7931 N   0  0  0  0  0  0  0  0  0  0  0  0
   10.0743  -14.4582   28.1995 C   0  0  0  0  0  0  0  0  0  0  0  0
   10.0944  -13.3639   28.8126 O   0  0  0  0  0  0  0  0  0  0  0  0
    9.8653  -15.7496   28.9005 C   0  0  0  0  0  0  0  0  0  0  0  0
    9.8671  -16.9136   27.9323 C   0  0  2  0  0  0  0  0  0  0  0  0
    8.6995  -16.9216   27.0942 N   0  0  0  0  0  0  0  0  0  0  0  0
   10.0320  -18.1460   28.7224 C   0  0  0  0  0  0  0  0  0  0  0  0
    9.0826  -18.9727   28.7120 O   0  0  0  0  0  0  0  0  0  0  0  0
   11.1396  -18.4687   29.4720 O   0  0  0  0  0  0  0  0  0  0  0  0
  2  3  1  1
  2  1  1  0
  4  2  1  0
  5  7  1  0
  5  4  1  0
  5  6  1  6
  7  9  1  0
  8  7  2  0
  9 10  1  0
 10 13  1  0
 10 11  1  6
 11 12  1  0
 13 14  2  0
 13 20  1  0
 16 18  1  0
 16 15  1  0
 17 16  2  0
 19 21  1  0
 19 18  1  1
 20 19  1  0
 21 23  1  0
 22 21  2  0
M  END
$$$$
