LCN.pdb
     RDKit          3D

 23 22  0  0  1  0  0  0  0  0999 V2000
    5.8655  -12.5815   26.6601 C   0  0  0  0  0  0  0  0  0  0  0  0
    7.1199  -13.2490   27.1079 C   0  0  2  0  0  0  0  0  0  0  0  0
    8.0705  -12.2066   27.6726 C   0  0  0  0  0  0  0  0  0  0  0  0
    7.7734  -14.1461   26.1186 C   0  0  0  0  0  0  0  0  0  0  0  0
    6.9217  -15.2020   25.5066 C   0  0  2  0  0  0  0  0  0  0  0  0
    6.4369  -16.1831   26.4147 N   0  0  0  0  0  0  0  0  0  0  0  0
    7.6447  -15.7477   24.3267 C   0  0  0  0  0  0  0  0  0  0  0  0
    8.0025  -16.9754   24.2966 O   0  0  0  0  0  0  0  0  0  0  0  0
    7.9942  -15.0084   23.1747 N   0  0  0  0  0  0  0  0  0  0  0  0
    8.6149  -15.6044   22.0077 C   0  0  1  0  0  0  0  0  0  0  0  0
    8.3735  -14.8269   20.7552 C   0  0  0  0  0  0  0  0  0  0  0  0
    8.9101  -15.8268   19.3457 S   0  0  0  0  0  0  0  0  0  0  0  0
   10.0655  -15.8584   22.2587 C   0  0  0  0  0  0  0  0  0  0  0  0
   10.4633  -15.9349   23.4556 O   0  0  0  0  0  0  0  0  0  0  0  0
   12.5117  -13.7740   18.7209 N   0  0  0  0  0  0  0  0  0  0  0  0
   12.9394  -14.9774   19.3381 C   0  0  0  0  0  0  0  0  0  0  0  0
   13.0850  -15.9937   18.6170 O   0  0  0  0  0  0  0  0  0  0  0  0
   13.2001  -15.0048   20.7990 C   0  0  0  0  0  0  0  0  0  0  0  0
   12.4296  -16.1162   21.4798 C   0  0  2  0  0  0  0  0  0  0  0  0
   11.0155  -16.0177   21.2425 N   0  0  0  0  0  0  0  0  0  0  0  0
   12.7890  -16.0931   22.9082 C   0  0  0  0  0  0  0  0  0  0  0  0
   14.0140  -16.1113   23.1981 O   0  0  0  0  0  0  0  0  0  0  0  0
   11.8953  -16.0531   23.9534 O   0  0  0  0  0  0  0  0  0  0  0  0
  2  3  1  6
  2  1  1  0
  4  2  1  0
  5  7  1  0
  5  4  1  0
  5  6  1  1
  7  9  1  0
  8  7  2  0
  9 10  1  0
 10 13  1  0
 10 11  1  6
 11 12  1  0
 13 14  2  0
 13 20  1  0
 16 18  1  0
 16 15  1  0
 17 16  2  0
 19 21  1  0
 19 18  1  6
 20 19  1  0
 21 23  1  0
 22 21  2  0
M  END
$$$$
