LCN.pdb
     RDKit          3D

 23 22  0  0  1  0  0  0  0  0999 V2000
    7.4944  -12.9798   20.7732 C   0  0  0  0  0  0  0  0  0  0  0  0
    8.4307  -13.3993   19.6929 C   0  0  2  0  0  0  0  0  0  0  0  0
    9.0792  -12.1678   19.0830 C   0  0  0  0  0  0  0  0  0  0  0  0
    7.8765  -14.3233   18.6684 C   0  0  0  0  0  0  0  0  0  0  0  0
    8.8497  -14.9426   17.7281 C   0  0  2  0  0  0  0  0  0  0  0  0
    8.2858  -15.8585   16.7979 N   0  0  0  0  0  0  0  0  0  0  0  0
    9.9802  -15.4841   18.5290 C   0  0  0  0  0  0  0  0  0  0  0  0
    9.8002  -16.4758   19.3166 O   0  0  0  0  0  0  0  0  0  0  0  0
   11.3029  -14.9882   18.5062 N   0  0  0  0  0  0  0  0  0  0  0  0
   12.4345  -15.7221   19.0383 C   0  0  1  0  0  0  0  0  0  0  0  0
   13.7235  -15.3781   18.3662 C   0  0  0  0  0  0  0  0  0  0  0  0
   14.0963  -13.6381   18.6945 S   0  0  0  0  0  0  0  0  0  0  0  0
   12.5014  -15.5761   20.5237 C   0  0  0  0  0  0  0  0  0  0  0  0
   12.2176  -14.4537   21.0299 O   0  0  0  0  0  0  0  0  0  0  0  0
   11.4081  -16.7810   25.8104 N   0  0  0  0  0  0  0  0  0  0  0  0
   12.3946  -17.4339   25.0277 C   0  0  0  0  0  0  0  0  0  0  0  0
   13.4033  -17.8974   25.6123 O   0  0  0  0  0  0  0  0  0  0  0  0
   12.2125  -17.5511   23.5594 C   0  0  0  0  0  0  0  0  0  0  0  0
   12.9595  -16.4623   22.8186 C   0  0  2  0  0  0  0  0  0  0  0  0
   12.8612  -16.6132   21.3927 N   0  0  0  0  0  0  0  0  0  0  0  0
   14.3463  -16.4605   23.3154 C   0  0  0  0  0  0  0  0  0  0  0  0
   14.5423  -16.0407   24.4859 O   0  0  0  0  0  0  0  0  0  0  0  0
   15.4470  -16.8805   22.6047 O   0  0  0  0  0  0  0  0  0  0  0  0
  2  3  1  6
  2  1  1  0
  4  2  1  0
  5  7  1  0
  5  4  1  0
  5  6  1  1
  7  9  1  0
  8  7  2  0
  9 10  1  0
 10 13  1  0
 10 11  1  6
 11 12  1  0
 13 14  2  0
 13 20  1  0
 16 18  1  0
 16 15  1  0
 17 16  2  0
 19 21  1  0
 19 18  1  1
 20 19  1  0
 21 23  1  0
 22 21  2  0
M  END
$$$$
