LCN.pdb
     RDKit          3D

 23 22  0  0  1  0  0  0  0  0999 V2000
    7.9100  -14.2049   18.2866 C   0  0  0  0  0  0  0  0  0  0  0  0
    7.7974  -13.3383   19.4933 C   0  0  2  0  0  0  0  0  0  0  0  0
    8.0445  -11.8919   19.0986 C   0  0  0  0  0  0  0  0  0  0  0  0
    8.5964  -13.7553   20.6758 C   0  0  0  0  0  0  0  0  0  0  0  0
    8.1959  -15.0249   21.3411 C   0  0  2  0  0  0  0  0  0  0  0  0
    6.8487  -15.4209   21.1166 N   0  0  0  0  0  0  0  0  0  0  0  0
    8.5895  -14.9364   22.7728 C   0  0  0  0  0  0  0  0  0  0  0  0
    9.8203  -14.8183   23.1006 O   0  0  0  0  0  0  0  0  0  0  0  0
    7.6942  -14.9709   23.8652 N   0  0  0  0  0  0  0  0  0  0  0  0
    8.1300  -14.9835   25.2480 C   0  0  1  0  0  0  0  0  0  0  0  0
    7.1953  -14.2617   26.1627 C   0  0  0  0  0  0  0  0  0  0  0  0
    5.8385  -13.5811   25.1777 S   0  0  0  0  0  0  0  0  0  0  0  0
    8.4110  -16.3808   25.6955 C   0  0  0  0  0  0  0  0  0  0  0  0
    7.5604  -17.2777   25.4333 O   0  0  0  0  0  0  0  0  0  0  0  0
   11.2986  -19.9400   23.6138 N   0  0  0  0  0  0  0  0  0  0  0  0
   11.8454  -18.7564   24.1724 C   0  0  0  0  0  0  0  0  0  0  0  0
   13.0905  -18.6868   24.3102 O   0  0  0  0  0  0  0  0  0  0  0  0
   10.9457  -17.6464   24.5740 C   0  0  0  0  0  0  0  0  0  0  0  0
   10.4275  -17.8342   25.9842 C   0  0  2  0  0  0  0  0  0  0  0  0
    9.5659  -16.7584   26.3913 N   0  0  0  0  0  0  0  0  0  0  0  0
   11.5950  -18.0173   26.8638 C   0  0  0  0  0  0  0  0  0  0  0  0
   12.2894  -19.0541   26.6972 O   0  0  0  0  0  0  0  0  0  0  0  0
   11.9899  -17.1475   27.8539 O   0  0  0  0  0  0  0  0  0  0  0  0
  2  3  1  6
  2  1  1  0
  4  2  1  0
  5  7  1  0
  5  4  1  0
  5  6  1  1
  7  9  1  0
  8  7  2  0
  9 10  1  0
 10 13  1  0
 10 11  1  1
 11 12  1  0
 13 14  2  0
 13 20  1  0
 16 18  1  0
 16 15  1  0
 17 16  2  0
 19 21  1  0
 19 18  1  6
 20 19  1  0
 21 23  1  0
 22 21  2  0
M  END
$$$$
