SNS.pdb
     RDKit          3D

 21 20  0  0  1  0  0  0  0  0999 V2000
   22.9337  -11.7826  -17.7781 O   0  0  0  0  0  0  0  0  0  0  0  0
   22.0985  -10.6783  -17.7435 C   0  0  0  0  0  0  0  0  0  0  0  0
   20.8853  -10.9121  -16.8753 C   0  0  2  0  0  0  0  0  0  0  0  0
   20.0395  -11.8749  -17.4997 N   0  0  0  0  0  0  0  0  0  0  0  0
   20.1256   -9.6675  -16.6231 C   0  0  0  0  0  0  0  0  0  0  0  0
   19.5032   -9.0621  -17.5413 O   0  0  0  0  0  0  0  0  0  0  0  0
   16.1027   -7.6200  -15.2142 N   0  0  0  0  0  0  0  0  0  0  0  0
   17.1688   -8.4974  -14.7705 C   0  0  0  0  0  0  0  0  0  0  0  0
   16.9636   -9.7029  -15.0289 O   0  0  0  0  0  0  0  0  0  0  0  0
   18.3356   -7.9156  -14.0908 C   0  0  0  0  0  0  0  0  0  0  0  0
   19.5098   -7.8424  -14.9698 C   0  0  2  0  0  0  0  0  0  0  0  0
   20.0827   -9.1242  -15.3274 N   0  0  0  0  0  0  0  0  0  0  0  0
   20.5799   -7.0223  -14.3585 C   0  0  0  0  0  0  0  0  0  0  0  0
   21.5824   -7.4454  -13.7418 O   0  0  0  0  0  0  0  0  0  0  0  0
   23.9054   -4.3292  -14.9398 O   0  0  0  0  0  0  0  0  0  0  0  0
   22.7565   -5.1203  -15.1571 C   0  0  0  0  0  0  0  0  0  0  0  0
   21.6755   -4.7433  -14.1361 C   0  0  2  0  0  0  0  0  0  0  0  0
   20.5235   -5.5734  -14.4445 N   0  0  0  0  0  0  0  0  0  0  0  0
   21.3859   -3.3196  -14.3064 C   0  0  0  0  0  0  0  0  0  0  0  0
   20.5706   -2.9472  -15.1731 O   0  0  0  0  0  0  0  0  0  0  0  0
   22.0169   -2.3866  -13.5051 O   0  0  0  0  0  0  0  0  0  0  0  0
  2  1  1  0
  3  2  1  0
  3  4  1  6
  3  5  1  0
  5  6  2  0
  8  7  1  0
  8 10  1  0
  9  8  2  0
 11 10  1  1
 11 13  1  0
 12  5  1  0
 12 11  1  0
 13 18  1  0
 13 14  2  0
 15 16  1  0
 17 16  1  6
 17 19  1  0
 18 17  1  0
 19 20  2  0
 19 21  1  0
M  END
$$$$
