SNS.pdb
     RDKit          3D

 21 20  0  0  1  0  0  0  0  0999 V2000
   16.8084  -12.0436  -15.2757 O   0  0  0  0  0  0  0  0  0  0  0  0
   17.7013  -10.9867  -15.3378 C   0  0  0  0  0  0  0  0  0  0  0  0
   18.7978  -11.2294  -16.3474 C   0  0  2  0  0  0  0  0  0  0  0  0
   19.5876  -12.3385  -15.9254 N   0  0  0  0  0  0  0  0  0  0  0  0
   19.6616  -10.0429  -16.5360 C   0  0  0  0  0  0  0  0  0  0  0  0
   20.7652   -9.9123  -15.9342 O   0  0  0  0  0  0  0  0  0  0  0  0
   20.7159   -9.1757  -20.0474 N   0  0  0  0  0  0  0  0  0  0  0  0
   19.9785   -7.9353  -20.1921 C   0  0  0  0  0  0  0  0  0  0  0  0
   19.7139   -7.6472  -21.3792 O   0  0  0  0  0  0  0  0  0  0  0  0
   19.6275   -7.1689  -18.9874 C   0  0  0  0  0  0  0  0  0  0  0  0
   20.0462   -7.8500  -17.7555 C   0  0  2  0  0  0  0  0  0  0  0  0
   19.2598   -9.0161  -17.4077 N   0  0  0  0  0  0  0  0  0  0  0  0
   20.0181   -6.9236  -16.6012 C   0  0  0  0  0  0  0  0  0  0  0  0
   19.0065   -6.5617  -15.9609 O   0  0  0  0  0  0  0  0  0  0  0  0
   22.6992   -5.1155  -13.0043 O   0  0  0  0  0  0  0  0  0  0  0  0
   22.5726   -5.9045  -14.1682 C   0  0  0  0  0  0  0  0  0  0  0  0
   21.2869   -5.5182  -14.9104 C   0  0  2  0  0  0  0  0  0  0  0  0
   21.2531   -6.3374  -16.1100 N   0  0  0  0  0  0  0  0  0  0  0  0
   21.3706   -4.0918  -15.2236 C   0  0  0  0  0  0  0  0  0  0  0  0
   21.9700   -3.7113  -16.2486 O   0  0  0  0  0  0  0  0  0  0  0  0
   20.7840   -3.1652  -14.3821 O   0  0  0  0  0  0  0  0  0  0  0  0
  2  1  1  0
  3  2  1  0
  3  4  1  1
  3  5  1  0
  5  6  2  0
  8  7  1  0
  8 10  1  0
  9  8  2  0
 11 10  1  6
 11 13  1  0
 12  5  1  0
 12 11  1  0
 13 18  1  0
 13 14  2  0
 15 16  1  0
 17 16  1  1
 17 19  1  0
 18 17  1  0
 19 20  2  0
 19 21  1  0
M  END
$$$$
