SNS.pdb
     RDKit          3D

 21 20  0  0  1  0  0  0  0  0999 V2000
   17.3326  -11.9452  -11.6783 O   0  0  0  0  0  0  0  0  0  0  0  0
   16.8474  -10.6484  -11.6436 C   0  0  0  0  0  0  0  0  0  0  0  0
   15.7488  -10.4814  -10.6210 C   0  0  2  0  0  0  0  0  0  0  0  0
   14.6323  -11.2844  -10.9960 N   0  0  0  0  0  0  0  0  0  0  0  0
   15.3247   -9.0711  -10.4762 C   0  0  0  0  0  0  0  0  0  0  0  0
   14.6272   -8.4855  -11.3523 O   0  0  0  0  0  0  0  0  0  0  0  0
   12.8670   -7.4426   -7.9130 N   0  0  0  0  0  0  0  0  0  0  0  0
   13.9280   -6.9875   -7.0351 C   0  0  0  0  0  0  0  0  0  0  0  0
   13.5921   -6.9330   -5.8324 O   0  0  0  0  0  0  0  0  0  0  0  0
   15.2367   -6.6490   -7.6133 C   0  0  0  0  0  0  0  0  0  0  0  0
   15.3126   -6.9759   -9.0430 C   0  0  2  0  0  0  0  0  0  0  0  0
   15.6999   -8.3412   -9.3350 N   0  0  0  0  0  0  0  0  0  0  0  0
   16.2573   -6.0770   -9.7435 C   0  0  0  0  0  0  0  0  0  0  0  0
   17.5061   -6.1211   -9.6901 O   0  0  0  0  0  0  0  0  0  0  0  0
   17.3666   -3.6636  -13.5589 O   0  0  0  0  0  0  0  0  0  0  0  0
   16.6190   -4.5683  -12.7741 C   0  0  0  0  0  0  0  0  0  0  0  0
   16.6451   -4.1163  -11.3085 C   0  0  2  0  0  0  0  0  0  0  0  0
   15.7526   -5.0136  -10.5946 N   0  0  0  0  0  0  0  0  0  0  0  0
   16.1775   -2.7309  -11.2662 C   0  0  0  0  0  0  0  0  0  0  0  0
   14.9592   -2.4854  -11.1657 O   0  0  0  0  0  0  0  0  0  0  0  0
   17.0879   -1.6932  -11.3375 O   0  0  0  0  0  0  0  0  0  0  0  0
  2  1  1  0
  3  2  1  0
  3  4  1  6
  3  5  1  0
  5  6  2  0
  8  7  1  0
  8 10  1  0
  9  8  2  0
 11 10  1  1
 11 13  1  0
 12  5  1  0
 12 11  1  0
 13 18  1  0
 13 14  2  0
 15 16  1  0
 17 16  1  6
 17 19  1  0
 18 17  1  0
 19 20  2  0
 19 21  1  0
M  END
$$$$
