SNS.pdb
     RDKit          3D

 21 20  0  0  1  0  0  0  0  0999 V2000
   15.4306   -7.8513  -18.0447 O   0  0  0  0  0  0  0  0  0  0  0  0
   16.0669   -6.9755  -17.1808 C   0  0  0  0  0  0  0  0  0  0  0  0
   17.0546   -7.6820  -16.2832 C   0  0  2  0  0  0  0  0  0  0  0  0
   16.3534   -8.5883  -15.4351 N   0  0  0  0  0  0  0  0  0  0  0  0
   17.8442   -6.7376  -15.4622 C   0  0  0  0  0  0  0  0  0  0  0  0
   17.3196   -6.0403  -14.5481 O   0  0  0  0  0  0  0  0  0  0  0  0
   21.6488   -3.9754  -13.5271 N   0  0  0  0  0  0  0  0  0  0  0  0
   22.2789   -5.1736  -14.0473 C   0  0  0  0  0  0  0  0  0  0  0  0
   23.4749   -5.2974  -13.7059 O   0  0  0  0  0  0  0  0  0  0  0  0
   21.4906   -6.0872  -14.8873 C   0  0  0  0  0  0  0  0  0  0  0  0
   20.0956   -5.6494  -15.0249 C   0  0  2  0  0  0  0  0  0  0  0  0
   19.2239   -6.5959  -15.6908 N   0  0  0  0  0  0  0  0  0  0  0  0
   20.0122   -4.3647  -15.7556 C   0  0  0  0  0  0  0  0  0  0  0  0
   20.3078   -4.1694  -16.9551 O   0  0  0  0  0  0  0  0  0  0  0  0
   17.5329   -0.3679  -16.2197 O   0  0  0  0  0  0  0  0  0  0  0  0
   17.8346   -1.5855  -15.5719 C   0  0  0  0  0  0  0  0  0  0  0  0
   19.3158   -1.9238  -15.7836 C   0  0  2  0  0  0  0  0  0  0  0  0
   19.5498   -3.1691  -15.0724 N   0  0  0  0  0  0  0  0  0  0  0  0
   20.1028   -0.8215  -15.2311 C   0  0  0  0  0  0  0  0  0  0  0  0
   20.2045   -0.6840  -13.9960 O   0  0  0  0  0  0  0  0  0  0  0  0
   20.7346    0.0681  -16.0797 O   0  0  0  0  0  0  0  0  0  0  0  0
  2  1  1  0
  3  2  1  0
  3  4  1  1
  3  5  1  0
  5  6  2  0
  8  7  1  0
  8 10  1  0
  9  8  2  0
 11 10  1  6
 11 13  1  0
 12  5  1  0
 12 11  1  0
 13 18  1  0
 13 14  2  0
 15 16  1  0
 17 16  1  1
 17 19  1  0
 18 17  1  0
 19 20  2  0
 19 21  1  0
M  END
$$$$
