SNS.pdb
     RDKit          3D

 21 20  0  0  1  0  0  0  0  0999 V2000
   13.1244  -10.6398  -10.1809 O   0  0  0  0  0  0  0  0  0  0  0  0
   13.7839   -9.6119  -10.8342 C   0  0  0  0  0  0  0  0  0  0  0  0
   15.2696   -9.6301  -10.5649 C   0  0  2  0  0  0  0  0  0  0  0  0
   15.4913   -9.6697   -9.1572 N   0  0  0  0  0  0  0  0  0  0  0  0
   15.9615   -8.4590  -11.1476 C   0  0  0  0  0  0  0  0  0  0  0  0
   15.9012   -8.1874  -12.3803 O   0  0  0  0  0  0  0  0  0  0  0  0
   15.1264   -4.9772  -10.3433 N   0  0  0  0  0  0  0  0  0  0  0  0
   16.2662   -4.6618   -9.5039 C   0  0  0  0  0  0  0  0  0  0  0  0
   16.0271   -3.7853   -8.6456 O   0  0  0  0  0  0  0  0  0  0  0  0
   17.5358   -5.3682   -9.7294 C   0  0  0  0  0  0  0  0  0  0  0  0
   17.4138   -6.4150  -10.7524 C   0  0  2  0  0  0  0  0  0  0  0  0
   16.7159   -7.6090  -10.3206 N   0  0  0  0  0  0  0  0  0  0  0  0
   18.7450   -6.8243  -11.2540 C   0  0  0  0  0  0  0  0  0  0  0  0
   19.5782   -7.5407  -10.6566 O   0  0  0  0  0  0  0  0  0  0  0  0
   19.6163   -8.4474  -14.5266 O   0  0  0  0  0  0  0  0  0  0  0  0
   20.2792   -7.2009  -14.5277 C   0  0  0  0  0  0  0  0  0  0  0  0
   20.5044   -6.7404  -13.0819 C   0  0  2  0  0  0  0  0  0  0  0  0
   19.1941   -6.3853  -12.5638 N   0  0  0  0  0  0  0  0  0  0  0  0
   21.4076   -5.5904  -13.1213 C   0  0  0  0  0  0  0  0  0  0  0  0
   20.9470   -4.4325  -13.0819 O   0  0  0  0  0  0  0  0  0  0  0  0
   22.7733   -5.7884  -13.2022 O   0  0  0  0  0  0  0  0  0  0  0  0
  2  1  1  0
  3  2  1  0
  3  4  1  1
  3  5  1  0
  5  6  2  0
  8  7  1  0
  8 10  1  0
  9  8  2  0
 11 10  1  1
 11 13  1  0
 12  5  1  0
 12 11  1  0
 13 18  1  0
 13 14  2  0
 15 16  1  0
 17 16  1  6
 17 19  1  0
 18 17  1  0
 19 20  2  0
 19 21  1  0
M  END
$$$$
