SNS.pdb
     RDKit          3D

 21 20  0  0  1  0  0  0  0  0999 V2000
   13.0172  -12.8016  -10.2293 O   0  0  0  0  0  0  0  0  0  0  0  0
   13.4133  -11.5713  -10.7269 C   0  0  0  0  0  0  0  0  0  0  0  0
   13.3179  -10.4814   -9.6860 C   0  0  2  0  0  0  0  0  0  0  0  0
   11.9479  -10.2657   -9.3562 N   0  0  0  0  0  0  0  0  0  0  0  0
   13.9285   -9.2129  -10.1419 C   0  0  0  0  0  0  0  0  0  0  0  0
   13.3378   -8.4312  -10.9399 O   0  0  0  0  0  0  0  0  0  0  0  0
   14.5737   -5.6336   -8.8330 N   0  0  0  0  0  0  0  0  0  0  0  0
   15.8906   -5.9591   -8.3198 C   0  0  0  0  0  0  0  0  0  0  0  0
   16.2198   -5.2808   -7.3230 O   0  0  0  0  0  0  0  0  0  0  0  0
   16.6779   -7.0061   -8.9874 C   0  0  0  0  0  0  0  0  0  0  0  0
   15.9309   -7.6543  -10.0731 C   0  0  2  0  0  0  0  0  0  0  0  0
   15.2066   -8.8475   -9.6850 N   0  0  0  0  0  0  0  0  0  0  0  0
   16.8285   -8.0132  -11.1941 C   0  0  0  0  0  0  0  0  0  0  0  0
   17.4110   -9.1074  -11.3610 O   0  0  0  0  0  0  0  0  0  0  0  0
   16.5907   -8.6825  -15.4459 O   0  0  0  0  0  0  0  0  0  0  0  0
   16.3430   -8.3330  -14.1007 C   0  0  0  0  0  0  0  0  0  0  0  0
   17.4895   -7.4563  -13.5809 C   0  0  2  0  0  0  0  0  0  0  0  0
   17.1061   -7.0452  -12.2410 N   0  0  0  0  0  0  0  0  0  0  0  0
   17.6180   -6.3157  -14.4878 C   0  0  0  0  0  0  0  0  0  0  0  0
   16.7481   -5.4226  -14.4956 O   0  0  0  0  0  0  0  0  0  0  0  0
   18.7056   -6.2286  -15.3365 O   0  0  0  0  0  0  0  0  0  0  0  0
  2  1  1  0
  3  2  1  0
  3  4  1  6
  3  5  1  0
  5  6  2  0
  8  7  1  0
  8 10  1  0
  9  8  2  0
 11 10  1  1
 11 13  1  0
 12  5  1  0
 12 11  1  0
 13 18  1  0
 13 14  2  0
 15 16  1  0
 17 16  1  6
 17 19  1  0
 18 17  1  0
 19 20  2  0
 19 21  1  0
M  END
$$$$
