SNS.pdb
     RDKit          3D

 21 20  0  0  1  0  0  0  0  0999 V2000
   17.6599  -12.2054  -14.5901 O   0  0  0  0  0  0  0  0  0  0  0  0
   17.8004  -10.8339  -14.7224 C   0  0  0  0  0  0  0  0  0  0  0  0
   16.5878  -10.0885  -14.2180 C   0  0  2  0  0  0  0  0  0  0  0  0
   15.5489  -10.1690  -15.1909 N   0  0  0  0  0  0  0  0  0  0  0  0
   16.8837   -8.6700  -13.9183 C   0  0  0  0  0  0  0  0  0  0  0  0
   16.6409   -7.7438  -14.7430 O   0  0  0  0  0  0  0  0  0  0  0  0
   18.4344   -5.0345   -9.1192 N   0  0  0  0  0  0  0  0  0  0  0  0
   18.0357   -5.3361  -10.4806 C   0  0  0  0  0  0  0  0  0  0  0  0
   18.0398   -4.3392  -11.2347 O   0  0  0  0  0  0  0  0  0  0  0  0
   17.6810   -6.7193  -10.8306 C   0  0  0  0  0  0  0  0  0  0  0  0
   17.8146   -6.9788  -12.2699 C   0  0  2  0  0  0  0  0  0  0  0  0
   17.4541   -8.3202  -12.6821 N   0  0  0  0  0  0  0  0  0  0  0  0
   19.1977   -6.7196  -12.7296 C   0  0  0  0  0  0  0  0  0  0  0  0
   20.2133   -7.3956  -12.4540 O   0  0  0  0  0  0  0  0  0  0  0  0
   21.8841   -4.3121  -16.0016 O   0  0  0  0  0  0  0  0  0  0  0  0
   20.6217   -4.5951  -15.4364 C   0  0  0  0  0  0  0  0  0  0  0  0
   20.8118   -5.3148  -14.0952 C   0  0  2  0  0  0  0  0  0  0  0  0
   19.4763   -5.5822  -13.5890 N   0  0  0  0  0  0  0  0  0  0  0  0
   21.5611   -4.4175  -13.2159 C   0  0  0  0  0  0  0  0  0  0  0  0
   22.7893   -4.5716  -13.0658 O   0  0  0  0  0  0  0  0  0  0  0  0
   20.9063   -3.3977  -12.5512 O   0  0  0  0  0  0  0  0  0  0  0  0
  2  1  1  0
  3  2  1  0
  3  4  1  6
  3  5  1  0
  5  6  2  0
  8  7  1  0
  8 10  1  0
  9  8  2  0
 11 10  1  1
 11 13  1  0
 12  5  1  0
 12 11  1  0
 13 18  1  0
 13 14  2  0
 15 16  1  0
 17 16  1  6
 17 19  1  0
 18 17  1  0
 19 20  2  0
 19 21  1  0
M  END
$$$$
