SNS.pdb
     RDKit          3D

 21 20  0  0  1  0  0  0  0  0999 V2000
   13.7912  -11.4756  -13.2421 O   0  0  0  0  0  0  0  0  0  0  0  0
   14.3070  -10.1952  -13.3546 C   0  0  0  0  0  0  0  0  0  0  0  0
   15.8170  -10.1908  -13.3599 C   0  0  2  0  0  0  0  0  0  0  0  0
   16.2927  -11.1780  -12.4482 N   0  0  0  0  0  0  0  0  0  0  0  0
   16.3771   -8.8685  -13.0027 C   0  0  0  0  0  0  0  0  0  0  0  0
   16.0734   -7.8169  -13.6343 O   0  0  0  0  0  0  0  0  0  0  0  0
   16.1387   -6.0925   -9.1109 N   0  0  0  0  0  0  0  0  0  0  0  0
   16.7821   -7.3786   -9.2990 C   0  0  0  0  0  0  0  0  0  0  0  0
   16.1409   -8.3340   -8.8107 O   0  0  0  0  0  0  0  0  0  0  0  0
   18.0666   -7.4365  -10.0120 C   0  0  0  0  0  0  0  0  0  0  0  0
   17.8895   -7.5275  -11.4671 C   0  0  2  0  0  0  0  0  0  0  0  0
   17.2782   -8.7569  -11.9297 N   0  0  0  0  0  0  0  0  0  0  0  0
   19.1830   -7.3720  -12.1698 C   0  0  0  0  0  0  0  0  0  0  0  0
   20.0834   -8.2340  -12.2723 O   0  0  0  0  0  0  0  0  0  0  0  0
   21.5219   -5.2563  -15.7300 O   0  0  0  0  0  0  0  0  0  0  0  0
   20.3570   -5.5146  -14.9754 C   0  0  0  0  0  0  0  0  0  0  0  0
   20.7514   -5.9334  -13.5534 C   0  0  2  0  0  0  0  0  0  0  0  0
   19.5059   -6.1181  -12.8282 N   0  0  0  0  0  0  0  0  0  0  0  0
   21.5611   -4.8557  -12.9853 C   0  0  0  0  0  0  0  0  0  0  0  0
   22.7942   -4.9967  -12.8666 O   0  0  0  0  0  0  0  0  0  0  0  0
   20.9578   -3.6799  -12.5800 O   0  0  0  0  0  0  0  0  0  0  0  0
  2  1  1  0
  3  2  1  0
  3  4  1  1
  3  5  1  0
  5  6  2  0
  8  7  1  0
  8 10  1  0
  9  8  2  0
 11 10  1  1
 11 13  1  0
 12  5  1  0
 12 11  1  0
 13 18  1  0
 13 14  2  0
 15 16  1  0
 17 16  1  6
 17 19  1  0
 18 17  1  0
 19 20  2  0
 19 21  1  0
M  END
$$$$
