SNS.pdb
     RDKit          3D

 21 20  0  0  1  0  0  0  0  0999 V2000
   13.0022   -8.1668  -10.4652 O   0  0  0  0  0  0  0  0  0  0  0  0
   13.1591   -9.4038   -9.8623 C   0  0  0  0  0  0  0  0  0  0  0  0
   14.4524  -10.0710  -10.2655 C   0  0  2  0  0  0  0  0  0  0  0  0
   14.5662  -11.3213   -9.5902 N   0  0  0  0  0  0  0  0  0  0  0  0
   15.6347   -9.2323   -9.9681 C   0  0  0  0  0  0  0  0  0  0  0  0
   16.0546   -9.0561   -8.7893 O   0  0  0  0  0  0  0  0  0  0  0  0
   19.8246   -6.4041  -10.4085 N   0  0  0  0  0  0  0  0  0  0  0  0
   19.7877   -7.2643  -11.5756 C   0  0  0  0  0  0  0  0  0  0  0  0
   20.8409   -7.2389  -12.2482 O   0  0  0  0  0  0  0  0  0  0  0  0
   18.5737   -8.0484  -11.8461 C   0  0  0  0  0  0  0  0  0  0  0  0
   17.5103   -7.7787  -10.8698 C   0  0  2  0  0  0  0  0  0  0  0  0
   16.3270   -8.6017  -11.0164 N   0  0  0  0  0  0  0  0  0  0  0  0
   17.0865   -6.3614  -10.9248 C   0  0  0  0  0  0  0  0  0  0  0  0
   16.5177   -5.7906  -11.8813 O   0  0  0  0  0  0  0  0  0  0  0  0
   16.8132   -2.1966   -8.3270 O   0  0  0  0  0  0  0  0  0  0  0  0
   17.1195   -3.5739   -8.3768 C   0  0  0  0  0  0  0  0  0  0  0  0
   16.9554   -4.0824   -9.8147 C   0  0  2  0  0  0  0  0  0  0  0  0
   17.3247   -5.4875   -9.7892 N   0  0  0  0  0  0  0  0  0  0  0  0
   17.8497   -3.2966  -10.6647 C   0  0  0  0  0  0  0  0  0  0  0  0
   19.0325   -3.6559  -10.8278 O   0  0  0  0  0  0  0  0  0  0  0  0
   17.3823   -2.1546  -11.2878 O   0  0  0  0  0  0  0  0  0  0  0  0
  2  1  1  0
  3  2  1  0
  3  4  1  1
  3  5  1  0
  5  6  2  0
  8  7  1  0
  8 10  1  0
  9  8  2  0
 11 10  1  6
 11 13  1  0
 12  5  1  0
 12 11  1  0
 13 18  1  0
 13 14  2  0
 15 16  1  0
 17 16  1  1
 17 19  1  0
 18 17  1  0
 19 20  2  0
 19 21  1  0
M  END
$$$$
