SNS.pdb
     RDKit          3D

 21 20  0  0  1  0  0  0  0  0999 V2000
   15.2285  -11.4545  -16.4029 O   0  0  0  0  0  0  0  0  0  0  0  0
   15.8790  -10.4791  -15.6656 C   0  0  0  0  0  0  0  0  0  0  0  0
   17.3704  -10.4898  -15.9024 C   0  0  2  0  0  0  0  0  0  0  0  0
   17.9174  -11.7051  -15.3965 N   0  0  0  0  0  0  0  0  0  0  0  0
   18.0484   -9.3354  -15.2722 C   0  0  0  0  0  0  0  0  0  0  0  0
   17.8613   -9.0247  -14.0616 O   0  0  0  0  0  0  0  0  0  0  0  0
   22.4894   -9.5029  -15.6640 N   0  0  0  0  0  0  0  0  0  0  0  0
   21.7988   -8.4179  -14.9936 C   0  0  0  0  0  0  0  0  0  0  0  0
   21.8808   -8.4682  -13.7474 O   0  0  0  0  0  0  0  0  0  0  0  0
   21.1004   -7.4085  -15.8029 C   0  0  0  0  0  0  0  0  0  0  0  0
   19.6558   -7.3888  -15.5389 C   0  0  2  0  0  0  0  0  0  0  0  0
   18.9325   -8.5454  -16.0272 N   0  0  0  0  0  0  0  0  0  0  0  0
   19.0265   -6.1818  -16.1206 C   0  0  0  0  0  0  0  0  0  0  0  0
   18.8106   -5.9653  -17.3334 O   0  0  0  0  0  0  0  0  0  0  0  0
   15.7888   -2.7912  -15.4560 O   0  0  0  0  0  0  0  0  0  0  0  0
   16.5604   -3.8759  -14.9855 C   0  0  0  0  0  0  0  0  0  0  0  0
   17.8760   -3.9462  -15.7713 C   0  0  2  0  0  0  0  0  0  0  0  0
   18.5925   -5.0997  -15.2542 N   0  0  0  0  0  0  0  0  0  0  0  0
   18.6004   -2.6984  -15.5303 C   0  0  0  0  0  0  0  0  0  0  0  0
   19.5240   -2.6639  -14.6934 O   0  0  0  0  0  0  0  0  0  0  0  0
   18.2603   -1.5569  -16.2316 O   0  0  0  0  0  0  0  0  0  0  0  0
  2  1  1  0
  3  2  1  0
  3  4  1  1
  3  5  1  0
  5  6  2  0
  8  7  1  0
  8 10  1  0
  9  8  2  0
 11 10  1  6
 11 13  1  0
 12  5  1  0
 12 11  1  0
 13 18  1  0
 13 14  2  0
 15 16  1  0
 17 16  1  1
 17 19  1  0
 18 17  1  0
 19 20  2  0
 19 21  1  0
M  END
$$$$
