SNS.pdb
     RDKit          3D

 21 20  0  0  1  0  0  0  0  0999 V2000
   14.8042  -13.0678  -10.8381 O   0  0  0  0  0  0  0  0  0  0  0  0
   15.0906  -11.7952  -11.3036 C   0  0  0  0  0  0  0  0  0  0  0  0
   14.5795  -10.7224  -10.3719 C   0  0  2  0  0  0  0  0  0  0  0  0
   13.1548  -10.7017  -10.4162 N   0  0  0  0  0  0  0  0  0  0  0  0
   15.1101   -9.3833  -10.7109 C   0  0  0  0  0  0  0  0  0  0  0  0
   14.7257   -8.7468  -11.7328 O   0  0  0  0  0  0  0  0  0  0  0  0
   14.3057   -6.1933   -9.5575 N   0  0  0  0  0  0  0  0  0  0  0  0
   15.3986   -5.9768   -8.6290 C   0  0  0  0  0  0  0  0  0  0  0  0
   15.0994   -5.2327   -7.6703 O   0  0  0  0  0  0  0  0  0  0  0  0
   16.6942   -6.6214   -8.8889 C   0  0  0  0  0  0  0  0  0  0  0  0
   16.6599   -7.4727  -10.0851 C   0  0  2  0  0  0  0  0  0  0  0  0
   16.0740   -8.7823   -9.8830 N   0  0  0  0  0  0  0  0  0  0  0  0
   18.0192   -7.6647  -10.6389 C   0  0  0  0  0  0  0  0  0  0  0  0
   18.7954   -8.6148  -10.3954 O   0  0  0  0  0  0  0  0  0  0  0  0
   20.5705   -8.5127  -13.9949 O   0  0  0  0  0  0  0  0  0  0  0  0
   19.4544   -8.1986  -13.1894 C   0  0  0  0  0  0  0  0  0  0  0  0
   19.7706   -6.9630  -12.3371 C   0  0  2  0  0  0  0  0  0  0  0  0
   18.5713   -6.6900  -11.5635 N   0  0  0  0  0  0  0  0  0  0  0  0
   20.0935   -5.8678  -13.2515 C   0  0  0  0  0  0  0  0  0  0  0  0
   19.1795   -5.2382  -13.8196 O   0  0  0  0  0  0  0  0  0  0  0  0
   21.4136   -5.5310  -13.4852 O   0  0  0  0  0  0  0  0  0  0  0  0
  2  1  1  0
  3  2  1  0
  3  4  1  6
  3  5  1  0
  5  6  2  0
  8  7  1  0
  8 10  1  0
  9  8  2  0
 11 10  1  1
 11 13  1  0
 12  5  1  0
 12 11  1  0
 13 18  1  0
 13 14  2  0
 15 16  1  0
 17 16  1  6
 17 19  1  0
 18 17  1  0
 19 20  2  0
 19 21  1  0
M  END
$$$$
