SNS.pdb
     RDKit          3D

 21 20  0  0  1  0  0  0  0  0999 V2000
   17.2223   -8.8134  -17.2945 O   0  0  0  0  0  0  0  0  0  0  0  0
   18.1273   -9.8546  -17.1719 C   0  0  0  0  0  0  0  0  0  0  0  0
   18.4133  -10.1901  -15.7276 C   0  0  2  0  0  0  0  0  0  0  0  0
   17.1830  -10.4312  -15.0491 N   0  0  0  0  0  0  0  0  0  0  0  0
   19.1628   -9.1164  -15.0383 C   0  0  0  0  0  0  0  0  0  0  0  0
   19.7393   -9.3041  -13.9295 O   0  0  0  0  0  0  0  0  0  0  0  0
   21.4178   -4.6279  -14.0504 N   0  0  0  0  0  0  0  0  0  0  0  0
   22.1465   -5.8584  -14.2923 C   0  0  0  0  0  0  0  0  0  0  0  0
   23.3436   -5.8081  -13.9365 O   0  0  0  0  0  0  0  0  0  0  0  0
   21.4434   -6.9956  -14.9040 C   0  0  0  0  0  0  0  0  0  0  0  0
   20.0127   -6.7251  -15.0954 C   0  0  2  0  0  0  0  0  0  0  0  0
   19.2478   -7.8389  -15.6184 N   0  0  0  0  0  0  0  0  0  0  0  0
   19.8072   -5.5702  -15.9983 C   0  0  0  0  0  0  0  0  0  0  0  0
   19.9365   -5.5650  -17.2424 O   0  0  0  0  0  0  0  0  0  0  0  0
   16.9421   -3.1423  -15.2556 O   0  0  0  0  0  0  0  0  0  0  0  0
   18.0529   -2.3252  -15.5585 C   0  0  0  0  0  0  0  0  0  0  0  0
   19.1051   -3.1508  -16.3098 C   0  0  2  0  0  0  0  0  0  0  0  0
   19.4161   -4.2821  -15.4526 N   0  0  0  0  0  0  0  0  0  0  0  0
   20.2686   -2.2907  -16.5250 C   0  0  0  0  0  0  0  0  0  0  0  0
   21.3519   -2.5539  -15.9669 O   0  0  0  0  0  0  0  0  0  0  0  0
   20.1662   -1.1853  -17.3486 O   0  0  0  0  0  0  0  0  0  0  0  0
  2  1  1  0
  3  2  1  0
  3  4  1  1
  3  5  1  0
  5  6  2  0
  8  7  1  0
  8 10  1  0
  9  8  2  0
 11 10  1  6
 11 13  1  0
 12  5  1  0
 12 11  1  0
 13 18  1  0
 13 14  2  0
 15 16  1  0
 17 16  1  1
 17 19  1  0
 18 17  1  0
 19 20  2  0
 19 21  1  0
M  END
$$$$
