DVQ.pdb
     RDKit          3D

 25 24  0  0  1  0  0  0  0  0999 V2000
   17.4236  -12.4850  -15.7592 N   0  0  0  0  0  0  0  0  0  0  0  0
   17.8354  -11.2047  -16.2943 C   0  0  1  0  0  0  0  0  0  0  0  0
   16.6815  -10.3269  -16.6518 C   0  0  0  0  0  0  0  0  0  0  0  0
   15.8416  -10.9976  -17.6638 C   0  0  0  0  0  0  0  0  0  0  0  0
   16.3141  -11.8942  -18.3881 O   0  0  0  0  0  0  0  0  0  0  0  0
   18.8151  -10.5311  -15.4069 C   0  0  0  0  0  0  0  0  0  0  0  0
   18.5025  -10.3364  -14.2107 O   0  0  0  0  0  0  0  0  0  0  0  0
   14.5221  -10.6282  -17.8069 O   0  0  0  0  0  0  0  0  0  0  0  0
   23.4969   -9.2338  -14.7291 C   0  0  0  0  0  0  0  0  0  0  0  0
   22.4272   -9.9611  -15.4961 C   0  0  1  0  0  0  0  0  0  0  0  0
   22.4540  -11.4387  -15.1232 C   0  0  0  0  0  0  0  0  0  0  0  0
   21.0616   -9.4141  -15.1487 C   0  0  2  0  0  0  0  0  0  0  0  0
   20.0784  -10.1165  -15.9085 N   0  0  0  0  0  0  0  0  0  0  0  0
   21.1039   -7.9611  -15.4723 C   0  0  0  0  0  0  0  0  0  0  0  0
   21.2040   -7.4885  -16.6104 O   0  0  0  0  0  0  0  0  0  0  0  0
   17.9321   -3.8992  -15.7194 N   0  0  0  0  0  0  0  0  0  0  0  0
   18.7726   -2.9221  -15.1298 C   0  0  0  0  0  0  0  0  0  0  0  0
   18.6193   -1.6806  -15.2947 O   0  0  0  0  0  0  0  0  0  0  0  0
   19.9037   -3.4099  -14.2617 C   0  0  0  0  0  0  0  0  0  0  0  0
   19.8461   -4.9153  -14.1439 C   0  0  0  0  0  0  0  0  0  0  0  0
   21.0782   -5.6251  -14.5657 C   0  0  2  0  0  0  0  0  0  0  0  0
   21.0228   -7.0614  -14.3661 N   0  0  0  0  0  0  0  0  0  0  0  0
   22.2356   -5.0411  -13.8084 C   0  0  0  0  0  0  0  0  0  0  0  0
   22.9508   -4.1859  -14.3779 O   0  0  0  0  0  0  0  0  0  0  0  0
   22.5355   -5.4101  -12.5159 O   0  0  0  0  0  0  0  0  0  0  0  0
  2  1  1  1
  2  6  1  0
  2  3  1  0
  3  4  1  0
  4  5  2  0
  6 13  1  0
  7  6  2  0
  8  4  1  0
 10  9  1  1
 11 10  1  0
 12 10  1  0
 12 13  1  6
 14 15  2  0
 14 12  1  0
 16 17  1  0
 17 19  1  0
 18 17  2  0
 19 20  1  0
 21 22  1  0
 21 20  1  1
 22 14  1  0
 23 21  1  0
 24 23  2  0
 25 23  1  0
M  END
$$$$
