DVQ.pdb
     RDKit          3D

 25 24  0  0  1  0  0  0  0  0999 V2000
   18.3724  -10.5172  -16.7083 N   0  0  0  0  0  0  0  0  0  0  0  0
   18.5835   -9.1381  -16.3229 C   0  0  1  0  0  0  0  0  0  0  0  0
   17.5390   -8.2181  -16.8637 C   0  0  0  0  0  0  0  0  0  0  0  0
   17.5312   -8.2869  -18.3383 C   0  0  0  0  0  0  0  0  0  0  0  0
   18.5860   -8.4865  -18.9703 O   0  0  0  0  0  0  0  0  0  0  0  0
   18.7642   -9.0020  -14.8567 C   0  0  0  0  0  0  0  0  0  0  0  0
   18.0135   -9.6566  -14.0988 O   0  0  0  0  0  0  0  0  0  0  0  0
   16.3450   -8.1300  -19.0212 O   0  0  0  0  0  0  0  0  0  0  0  0
   21.6144   -7.2160  -11.2335 C   0  0  0  0  0  0  0  0  0  0  0  0
   21.3973   -7.5651  -12.6801 C   0  0  1  0  0  0  0  0  0  0  0  0
   22.1951   -8.8178  -13.0228 C   0  0  0  0  0  0  0  0  0  0  0  0
   19.9367   -7.8527  -12.9420 C   0  0  2  0  0  0  0  0  0  0  0  0
   19.7676   -8.1451  -14.3288 N   0  0  0  0  0  0  0  0  0  0  0  0
   19.1933   -6.6333  -12.5200 C   0  0  0  0  0  0  0  0  0  0  0  0
   19.2940   -5.5202  -13.0487 O   0  0  0  0  0  0  0  0  0  0  0  0
   13.4548   -6.2428  -11.9528 N   0  0  0  0  0  0  0  0  0  0  0  0
   13.6954   -5.0491  -11.2276 C   0  0  0  0  0  0  0  0  0  0  0  0
   12.7900   -4.2249  -10.9227 O   0  0  0  0  0  0  0  0  0  0  0  0
   15.1141   -4.7658  -10.8052 C   0  0  0  0  0  0  0  0  0  0  0  0
   16.0197   -5.8816  -11.2723 C   0  0  0  0  0  0  0  0  0  0  0  0
   17.4601   -5.6849  -10.9785 C   0  0  2  0  0  0  0  0  0  0  0  0
   18.3012   -6.7840  -11.4150 N   0  0  0  0  0  0  0  0  0  0  0  0
   17.6102   -5.4734   -9.4997 C   0  0  0  0  0  0  0  0  0  0  0  0
   18.1355   -6.3820   -8.8172 O   0  0  0  0  0  0  0  0  0  0  0  0
   17.1939   -4.3208   -8.8715 O   0  0  0  0  0  0  0  0  0  0  0  0
  2  1  1  1
  2  6  1  0
  2  3  1  0
  3  4  1  0
  4  5  2  0
  6 13  1  0
  7  6  2  0
  8  4  1  0
 10  9  1  1
 11 10  1  0
 12 10  1  0
 12 13  1  6
 14 15  2  0
 14 12  1  0
 16 17  1  0
 17 19  1  0
 18 17  2  0
 19 20  1  0
 21 22  1  0
 21 20  1  1
 22 14  1  0
 23 21  1  0
 24 23  2  0
 25 23  1  0
M  END
$$$$
