DVQ.pdb
     RDKit          3D

 25 24  0  0  1  0  0  0  0  0999 V2000
   19.3916  -23.5181   -8.9368 N   0  0  0  0  0  0  0  0  0  0  0  0
   18.8603  -22.7095  -10.0134 C   0  0  1  0  0  0  0  0  0  0  0  0
   17.5433  -22.0904   -9.6787 C   0  0  0  0  0  0  0  0  0  0  0  0
   16.5550  -23.1488   -9.3920 C   0  0  0  0  0  0  0  0  0  0  0  0
   16.9053  -24.3420   -9.3193 O   0  0  0  0  0  0  0  0  0  0  0  0
   19.8542  -21.7186  -10.4945 C   0  0  0  0  0  0  0  0  0  0  0  0
   19.4386  -20.6751  -11.0465 O   0  0  0  0  0  0  0  0  0  0  0  0
   15.2326  -22.8124   -9.2018 O   0  0  0  0  0  0  0  0  0  0  0  0
   24.6064  -20.3555  -10.2456 C   0  0  0  0  0  0  0  0  0  0  0  0
   23.5115  -21.3270   -9.9006 C   0  0  1  0  0  0  0  0  0  0  0  0
   23.1490  -21.1776   -8.4277 C   0  0  0  0  0  0  0  0  0  0  0  0
   22.2736  -21.0424  -10.7198 C   0  0  2  0  0  0  0  0  0  0  0  0
   21.2462  -21.9540  -10.3315 N   0  0  0  0  0  0  0  0  0  0  0  0
   22.6744  -21.2057  -12.1447 C   0  0  0  0  0  0  0  0  0  0  0  0
   23.0466  -22.2651  -12.6620 O   0  0  0  0  0  0  0  0  0  0  0  0
   22.2033  -16.4847  -16.3252 N   0  0  0  0  0  0  0  0  0  0  0  0
   22.5151  -17.5475  -17.2094 C   0  0  0  0  0  0  0  0  0  0  0  0
   22.5626  -17.4188  -18.4637 O   0  0  0  0  0  0  0  0  0  0  0  0
   22.8038  -18.8960  -16.6016 C   0  0  0  0  0  0  0  0  0  0  0  0
   22.5839  -18.8418  -15.1076 C   0  0  0  0  0  0  0  0  0  0  0  0
   22.8902  -20.0988  -14.3825 C   0  0  2  0  0  0  0  0  0  0  0  0
   22.6184  -20.0334  -12.9586 N   0  0  0  0  0  0  0  0  0  0  0  0
   24.3344  -20.4343  -14.6193 C   0  0  0  0  0  0  0  0  0  0  0  0
   25.1946  -19.9413  -13.8550 O   0  0  0  0  0  0  0  0  0  0  0  0
   24.7433  -21.2618  -15.6413 O   0  0  0  0  0  0  0  0  0  0  0  0
  2  1  1  1
  2  6  1  0
  2  3  1  0
  3  4  1  0
  4  5  2  0
  6 13  1  0
  7  6  2  0
  8  4  1  0
 10  9  1  6
 11 10  1  0
 12 10  1  0
 12 13  1  1
 14 15  2  0
 14 12  1  0
 16 17  1  0
 17 19  1  0
 18 17  2  0
 19 20  1  0
 21 22  1  0
 21 20  1  6
 22 14  1  0
 23 21  1  0
 24 23  2  0
 25 23  1  0
M  END
$$$$
