DVQ.pdb
     RDKit          3D

 25 24  0  0  1  0  0  0  0  0999 V2000
   12.6733  -11.6912  -11.3718 N   0  0  0  0  0  0  0  0  0  0  0  0
   14.0928  -11.4981  -11.1643 C   0  0  1  0  0  0  0  0  0  0  0  0
   14.9312  -12.3485  -12.0608 C   0  0  0  0  0  0  0  0  0  0  0  0
   14.6142  -13.7725  -11.8345 C   0  0  0  0  0  0  0  0  0  0  0  0
   14.6125  -14.2475  -10.6829 O   0  0  0  0  0  0  0  0  0  0  0  0
   14.4635  -10.0629  -11.2236 C   0  0  0  0  0  0  0  0  0  0  0  0
   14.0848   -9.3881  -12.2074 O   0  0  0  0  0  0  0  0  0  0  0  0
   14.3162  -14.5828  -12.9081 O   0  0  0  0  0  0  0  0  0  0  0  0
   15.8860   -6.1582   -8.6251 C   0  0  0  0  0  0  0  0  0  0  0  0
   15.3762   -7.5676   -8.7485 C   0  0  1  0  0  0  0  0  0  0  0  0
   13.8744   -7.5863   -8.4893 C   0  0  0  0  0  0  0  0  0  0  0  0
   15.6184   -8.0982  -10.1430 C   0  0  2  0  0  0  0  0  0  0  0  0
   15.2330   -9.4719  -10.1852 N   0  0  0  0  0  0  0  0  0  0  0  0
   17.0698   -7.9029  -10.4131 C   0  0  0  0  0  0  0  0  0  0  0  0
   17.9890   -8.4356   -9.7808 O   0  0  0  0  0  0  0  0  0  0  0  0
   19.8946   -9.9584  -14.5369 N   0  0  0  0  0  0  0  0  0  0  0  0
   20.8991   -8.9740  -14.3618 C   0  0  0  0  0  0  0  0  0  0  0  0
   22.0357   -9.0343  -14.9062 O   0  0  0  0  0  0  0  0  0  0  0  0
   20.5744   -7.7988  -13.4759 C   0  0  0  0  0  0  0  0  0  0  0  0
   19.1803   -7.9517  -12.9132 C   0  0  0  0  0  0  0  0  0  0  0  0
   18.7725   -6.8979  -11.9527 C   0  0  2  0  0  0  0  0  0  0  0  0
   17.4030   -7.0264  -11.4904 N   0  0  0  0  0  0  0  0  0  0  0  0
   18.9740   -5.5634  -12.6106 C   0  0  0  0  0  0  0  0  0  0  0  0
   17.9852   -4.9998  -13.1320 O   0  0  0  0  0  0  0  0  0  0  0  0
   20.2013   -4.9405  -12.6589 O   0  0  0  0  0  0  0  0  0  0  0  0
  2  1  1  6
  2  6  1  0
  2  3  1  0
  3  4  1  0
  4  5  2  0
  6 13  1  0
  7  6  2  0
  8  4  1  0
 10  9  1  6
 11 10  1  0
 12 10  1  0
 12 13  1  1
 14 15  2  0
 14 12  1  0
 16 17  1  0
 17 19  1  0
 18 17  2  0
 19 20  1  0
 21 22  1  0
 21 20  1  6
 22 14  1  0
 23 21  1  0
 24 23  2  0
 25 23  1  0
M  END
$$$$
