DVQ.pdb
     RDKit          3D

 25 24  0  0  1  0  0  0  0  0999 V2000
   18.6393  -12.4517  -16.9336 N   0  0  0  0  0  0  0  0  0  0  0  0
   17.8646  -11.2292  -16.9150 C   0  0  1  0  0  0  0  0  0  0  0  0
   17.4175  -10.8464  -15.5426 C   0  0  0  0  0  0  0  0  0  0  0  0
   16.6724  -11.9652  -14.9324 C   0  0  0  0  0  0  0  0  0  0  0  0
   15.5793  -12.3323  -15.4037 O   0  0  0  0  0  0  0  0  0  0  0  0
   18.5658  -10.1270  -17.6181 C   0  0  0  0  0  0  0  0  0  0  0  0
   19.2999  -10.4107  -18.5913 O   0  0  0  0  0  0  0  0  0  0  0  0
   17.1926  -12.6098  -13.8315 O   0  0  0  0  0  0  0  0  0  0  0  0
   18.3881   -6.2750  -19.9423 C   0  0  0  0  0  0  0  0  0  0  0  0
   18.0255   -7.5250  -19.1889 C   0  0  1  0  0  0  0  0  0  0  0  0
   18.3198   -8.7421  -20.0579 C   0  0  0  0  0  0  0  0  0  0  0  0
   18.8485   -7.6398  -17.9263 C   0  0  2  0  0  0  0  0  0  0  0  0
   18.4061   -8.7808  -17.1917 N   0  0  0  0  0  0  0  0  0  0  0  0
   18.6437   -6.3661  -17.1824 C   0  0  0  0  0  0  0  0  0  0  0  0
   17.7048   -6.1355  -16.4117 O   0  0  0  0  0  0  0  0  0  0  0  0
   22.2576   -7.2419  -13.7165 N   0  0  0  0  0  0  0  0  0  0  0  0
   22.3906   -5.8778  -13.3556 C   0  0  0  0  0  0  0  0  0  0  0  0
   23.0602   -5.4824  -12.3619 O   0  0  0  0  0  0  0  0  0  0  0  0
   21.6892   -4.8589  -14.2165 C   0  0  0  0  0  0  0  0  0  0  0  0
   21.0239   -5.5475  -15.3855 C   0  0  0  0  0  0  0  0  0  0  0  0
   20.2344   -4.6576  -16.2712 C   0  0  2  0  0  0  0  0  0  0  0  0
   19.6193   -5.3443  -17.3918 N   0  0  0  0  0  0  0  0  0  0  0  0
   21.1410   -3.5677  -16.7659 C   0  0  0  0  0  0  0  0  0  0  0  0
   21.6886   -3.7082  -17.8829 O   0  0  0  0  0  0  0  0  0  0  0  0
   21.3886   -2.4248  -16.0386 O   0  0  0  0  0  0  0  0  0  0  0  0
  2  1  1  1
  2  6  1  0
  2  3  1  0
  3  4  1  0
  4  5  2  0
  6 13  1  0
  7  6  2  0
  8  4  1  0
 10  9  1  6
 11 10  1  0
 12 10  1  0
 12 13  1  1
 14 15  2  0
 14 12  1  0
 16 17  1  0
 17 19  1  0
 18 17  2  0
 19 20  1  0
 21 22  1  0
 21 20  1  6
 22 14  1  0
 23 21  1  0
 24 23  2  0
 25 23  1  0
M  END
$$$$
