DVQ.pdb
     RDKit          3D

 25 24  0  0  1  0  0  0  0  0999 V2000
   19.4129  -12.8778  -16.6934 N   0  0  0  0  0  0  0  0  0  0  0  0
   18.6837  -11.7646  -16.1241 C   0  0  1  0  0  0  0  0  0  0  0  0
   17.3789  -12.1720  -15.5232 C   0  0  0  0  0  0  0  0  0  0  0  0
   16.4539  -12.6041  -16.5894 C   0  0  0  0  0  0  0  0  0  0  0  0
   16.8577  -12.7541  -17.7583 O   0  0  0  0  0  0  0  0  0  0  0  0
   19.5265  -10.9807  -15.1880 C   0  0  0  0  0  0  0  0  0  0  0  0
   19.6416  -11.3825  -14.0083 O   0  0  0  0  0  0  0  0  0  0  0  0
   15.1314  -12.8450  -16.2875 O   0  0  0  0  0  0  0  0  0  0  0  0
   23.0693  -10.2021  -15.5514 C   0  0  0  0  0  0  0  0  0  0  0  0
   22.3810   -8.8667  -15.4861 C   0  0  1  0  0  0  0  0  0  0  0  0
   22.1493   -8.3479  -16.9004 C   0  0  0  0  0  0  0  0  0  0  0  0
   21.0365   -8.9966  -14.8077 C   0  0  2  0  0  0  0  0  0  0  0  0
   20.1853   -9.7998  -15.6249 N   0  0  0  0  0  0  0  0  0  0  0  0
   20.5233   -7.6090  -14.6383 C   0  0  0  0  0  0  0  0  0  0  0  0
   19.8171   -7.0070  -15.4552 O   0  0  0  0  0  0  0  0  0  0  0  0
   18.1860   -5.6674   -9.5419 N   0  0  0  0  0  0  0  0  0  0  0  0
   18.2102   -4.3988  -10.1734 C   0  0  0  0  0  0  0  0  0  0  0  0
   17.6687   -3.3682   -9.6868 O   0  0  0  0  0  0  0  0  0  0  0  0
   18.9264   -4.2932  -11.4951 C   0  0  0  0  0  0  0  0  0  0  0  0
   19.5091   -5.6360  -11.8703 C   0  0  0  0  0  0  0  0  0  0  0  0
   20.3369   -5.6389  -13.1009 C   0  0  2  0  0  0  0  0  0  0  0  0
   20.8893   -6.9395  -13.4309 N   0  0  0  0  0  0  0  0  0  0  0  0
   21.4410   -4.6371  -12.9230 C   0  0  0  0  0  0  0  0  0  0  0  0
   22.5685   -5.0487  -12.5672 O   0  0  0  0  0  0  0  0  0  0  0  0
   21.2583   -3.2892  -13.1378 O   0  0  0  0  0  0  0  0  0  0  0  0
  2  1  1  1
  2  6  1  0
  2  3  1  0
  3  4  1  0
  4  5  2  0
  6 13  1  0
  7  6  2  0
  8  4  1  0
 10  9  1  6
 11 10  1  0
 12 10  1  0
 12 13  1  6
 14 15  2  0
 14 12  1  0
 16 17  1  0
 17 19  1  0
 18 17  2  0
 19 20  1  0
 21 22  1  0
 21 20  1  1
 22 14  1  0
 23 21  1  0
 24 23  2  0
 25 23  1  0
M  END
$$$$
