DVQ.pdb
     RDKit          3D

 25 24  0  0  1  0  0  0  0  0999 V2000
   23.1176  -15.7325  -17.2146 N   0  0  0  0  0  0  0  0  0  0  0  0
   23.2280  -14.4728  -17.9190 C   0  0  1  0  0  0  0  0  0  0  0  0
   22.1220  -14.2568  -18.8986 C   0  0  0  0  0  0  0  0  0  0  0  0
   22.1587  -15.3119  -19.9305 C   0  0  0  0  0  0  0  0  0  0  0  0
   23.0471  -16.1850  -19.9147 O   0  0  0  0  0  0  0  0  0  0  0  0
   23.3941  -13.3351  -16.9814 C   0  0  0  0  0  0  0  0  0  0  0  0
   22.6113  -13.2430  -16.0092 O   0  0  0  0  0  0  0  0  0  0  0  0
   21.1997  -15.3311  -20.9194 O   0  0  0  0  0  0  0  0  0  0  0  0
   26.3523   -9.6567  -15.5326 C   0  0  0  0  0  0  0  0  0  0  0  0
   26.0827  -10.8337  -16.4289 C   0  0  1  0  0  0  0  0  0  0  0  0
   26.9031  -12.0278  -15.9554 C   0  0  0  0  0  0  0  0  0  0  0  0
   24.6216  -11.2170  -16.3747 C   0  0  2  0  0  0  0  0  0  0  0  0
   24.4195  -12.3729  -17.1872 N   0  0  0  0  0  0  0  0  0  0  0  0
   23.8652  -10.0325  -16.8670 C   0  0  0  0  0  0  0  0  0  0  0  0
   23.9451   -9.5611  -18.0071 O   0  0  0  0  0  0  0  0  0  0  0  0
   20.5096   -8.4618  -19.2472 N   0  0  0  0  0  0  0  0  0  0  0  0
   19.7624   -7.4855  -18.5420 C   0  0  0  0  0  0  0  0  0  0  0  0
   19.0072   -6.6459  -19.1049 O   0  0  0  0  0  0  0  0  0  0  0  0
   19.8877   -7.4644  -17.0404 C   0  0  0  0  0  0  0  0  0  0  0  0
   20.7516   -8.6165  -16.5825 C   0  0  0  0  0  0  0  0  0  0  0  0
   22.1694   -8.2711  -16.3181 C   0  0  2  0  0  0  0  0  0  0  0  0
   22.9857   -9.4069  -15.9316 N   0  0  0  0  0  0  0  0  0  0  0  0
   22.2017   -7.2211  -15.2453 C   0  0  0  0  0  0  0  0  0  0  0  0
   22.4655   -7.5734  -14.0733 O   0  0  0  0  0  0  0  0  0  0  0  0
   21.9542   -5.8914  -15.5043 O   0  0  0  0  0  0  0  0  0  0  0  0
  2  1  1  1
  2  6  1  0
  2  3  1  0
  3  4  1  0
  4  5  2  0
  6 13  1  0
  7  6  2  0
  8  4  1  0
 10  9  1  1
 11 10  1  0
 12 10  1  0
 12 13  1  6
 14 15  2  0
 14 12  1  0
 16 17  1  0
 17 19  1  0
 18 17  2  0
 19 20  1  0
 21 22  1  0
 21 20  1  1
 22 14  1  0
 23 21  1  0
 24 23  2  0
 25 23  1  0
M  END
$$$$
