DVQ.pdb
     RDKit          3D

 25 24  0  0  1  0  0  0  0  0999 V2000
   14.6877  -11.7577  -11.8916 N   0  0  0  0  0  0  0  0  0  0  0  0
   15.6860  -10.7100  -11.8597 C   0  0  1  0  0  0  0  0  0  0  0  0
   16.3787  -10.5284  -13.1700 C   0  0  0  0  0  0  0  0  0  0  0  0
   17.0815  -11.7735  -13.5375 C   0  0  0  0  0  0  0  0  0  0  0  0
   16.5644  -12.8845  -13.3135 O   0  0  0  0  0  0  0  0  0  0  0  0
   15.1312   -9.4427  -11.3237 C   0  0  0  0  0  0  0  0  0  0  0  0
   14.1517   -8.9256  -11.9064 O   0  0  0  0  0  0  0  0  0  0  0  0
   18.3208  -11.7050  -14.1353 O   0  0  0  0  0  0  0  0  0  0  0  0
   14.6891   -6.4863   -7.4691 C   0  0  0  0  0  0  0  0  0  0  0  0
   15.1122   -7.7774   -8.1138 C   0  0  1  0  0  0  0  0  0  0  0  0
   14.0455   -8.8381   -7.8684 C   0  0  0  0  0  0  0  0  0  0  0  0
   15.2620   -7.5993   -9.6073 C   0  0  2  0  0  0  0  0  0  0  0  0
   15.7034   -8.8323  -10.1750 N   0  0  0  0  0  0  0  0  0  0  0  0
   16.2468   -6.4982   -9.7955 C   0  0  0  0  0  0  0  0  0  0  0  0
   17.4713   -6.6092   -9.6656 O   0  0  0  0  0  0  0  0  0  0  0  0
   17.6953   -4.7405  -14.6161 N   0  0  0  0  0  0  0  0  0  0  0  0
   18.1969   -3.5388  -14.0567 C   0  0  0  0  0  0  0  0  0  0  0  0
   18.9649   -2.7506  -14.6741 O   0  0  0  0  0  0  0  0  0  0  0  0
   17.7795   -3.1994  -12.6489 C   0  0  0  0  0  0  0  0  0  0  0  0
   16.9337   -4.3162  -12.0825 C   0  0  0  0  0  0  0  0  0  0  0  0
   16.5725   -4.1659  -10.6520 C   0  0  2  0  0  0  0  0  0  0  0  0
   15.7127   -5.2224  -10.1519 N   0  0  0  0  0  0  0  0  0  0  0  0
   15.9083   -2.8308  -10.4762 C   0  0  0  0  0  0  0  0  0  0  0  0
   14.6583   -2.7761  -10.5177 O   0  0  0  0  0  0  0  0  0  0  0  0
   16.6220   -1.6712  -10.2704 O   0  0  0  0  0  0  0  0  0  0  0  0
  2  1  1  6
  2  6  1  0
  2  3  1  0
  3  4  1  0
  4  5  2  0
  6 13  1  0
  7  6  2  0
  8  4  1  0
 10  9  1  1
 11 10  1  0
 12 10  1  0
 12 13  1  6
 14 15  2  0
 14 12  1  0
 16 17  1  0
 17 19  1  0
 18 17  2  0
 19 20  1  0
 21 22  1  0
 21 20  1  6
 22 14  1  0
 23 21  1  0
 24 23  2  0
 25 23  1  0
M  END
$$$$
