DVQ.pdb
     RDKit          3D

 25 24  0  0  1  0  0  0  0  0999 V2000
   21.5111  -14.4716  -15.5901 N   0  0  0  0  0  0  0  0  0  0  0  0
   21.7559  -13.3488  -16.4702 C   0  0  1  0  0  0  0  0  0  0  0  0
   20.5270  -12.8938  -17.1860 C   0  0  0  0  0  0  0  0  0  0  0  0
   19.8774  -14.0466  -17.8406 C   0  0  0  0  0  0  0  0  0  0  0  0
   20.5243  -14.7936  -18.5992 O   0  0  0  0  0  0  0  0  0  0  0  0
   22.4517  -12.2439  -15.7659 C   0  0  0  0  0  0  0  0  0  0  0  0
   22.0084  -11.8695  -14.6569 O   0  0  0  0  0  0  0  0  0  0  0  0
   18.5430  -14.2987  -17.6086 O   0  0  0  0  0  0  0  0  0  0  0  0
   26.4986   -9.4633  -15.4797 C   0  0  0  0  0  0  0  0  0  0  0  0
   25.7532  -10.6538  -16.0168 C   0  0  1  0  0  0  0  0  0  0  0  0
   26.2094  -11.9091  -15.2825 C   0  0  0  0  0  0  0  0  0  0  0  0
   24.2670  -10.4932  -15.7931 C   0  0  2  0  0  0  0  0  0  0  0  0
   23.5947  -11.6264  -16.3418 N   0  0  0  0  0  0  0  0  0  0  0  0
   23.8833   -9.2203  -16.4641 C   0  0  0  0  0  0  0  0  0  0  0  0
   24.0224   -8.9814  -17.6691 O   0  0  0  0  0  0  0  0  0  0  0  0
   19.3754   -5.5908  -14.3324 N   0  0  0  0  0  0  0  0  0  0  0  0
   19.8109   -4.7566  -15.3923 C   0  0  0  0  0  0  0  0  0  0  0  0
   19.2106   -3.7030  -15.7410 O   0  0  0  0  0  0  0  0  0  0  0  0
   21.0599   -5.1645  -16.1303 C   0  0  0  0  0  0  0  0  0  0  0  0
   21.5683   -6.4802  -15.5881 C   0  0  0  0  0  0  0  0  0  0  0  0
   22.8342   -6.9608  -16.1930 C   0  0  2  0  0  0  0  0  0  0  0  0
   23.3136   -8.2098  -15.6310 N   0  0  0  0  0  0  0  0  0  0  0  0
   23.8693   -5.8861  -16.0250 C   0  0  0  0  0  0  0  0  0  0  0  0
   24.5240   -5.8498  -14.9586 O   0  0  0  0  0  0  0  0  0  0  0  0
   24.1231   -4.9453  -16.9980 O   0  0  0  0  0  0  0  0  0  0  0  0
  2  1  1  1
  2  6  1  0
  2  3  1  0
  3  4  1  0
  4  5  2  0
  6 13  1  0
  7  6  2  0
  8  4  1  0
 10  9  1  1
 11 10  1  0
 12 10  1  0
 12 13  1  6
 14 15  2  0
 14 12  1  0
 16 17  1  0
 17 19  1  0
 18 17  2  0
 19 20  1  0
 21 22  1  0
 21 20  1  1
 22 14  1  0
 23 21  1  0
 24 23  2  0
 25 23  1  0
M  END
$$$$
