DVQ.pdb
     RDKit          3D

 25 24  0  0  1  0  0  0  0  0999 V2000
   18.6631  -11.1889  -16.5090 N   0  0  0  0  0  0  0  0  0  0  0  0
   18.3128   -9.8570  -16.0634 C   0  0  1  0  0  0  0  0  0  0  0  0
   16.9743   -9.4139  -16.5553 C   0  0  0  0  0  0  0  0  0  0  0  0
   16.9515   -9.4457  -18.0310 C   0  0  0  0  0  0  0  0  0  0  0  0
   18.0132   -9.4523  -18.6826 O   0  0  0  0  0  0  0  0  0  0  0  0
   18.4593   -9.7162  -14.5938 C   0  0  0  0  0  0  0  0  0  0  0  0
   18.1046  -10.6692  -13.8640 O   0  0  0  0  0  0  0  0  0  0  0  0
   15.7436   -9.4698  -18.6931 O   0  0  0  0  0  0  0  0  0  0  0  0
   20.8507   -7.4729  -10.9842 C   0  0  0  0  0  0  0  0  0  0  0  0
   20.5680   -7.6840  -12.4460 C   0  0  1  0  0  0  0  0  0  0  0  0
   21.6107   -8.6292  -13.0312 C   0  0  0  0  0  0  0  0  0  0  0  0
   19.2061   -8.3114  -12.6368 C   0  0  2  0  0  0  0  0  0  0  0  0
   18.9894   -8.5236  -14.0316 N   0  0  0  0  0  0  0  0  0  0  0  0
   18.2260   -7.3597  -12.0441 C   0  0  0  0  0  0  0  0  0  0  0  0
   18.0168   -6.2103  -12.4485 O   0  0  0  0  0  0  0  0  0  0  0  0
   13.0795   -7.6530   -6.8546 N   0  0  0  0  0  0  0  0  0  0  0  0
   13.3681   -7.9299   -8.2143 C   0  0  0  0  0  0  0  0  0  0  0  0
   12.8638   -8.8959   -8.8505 O   0  0  0  0  0  0  0  0  0  0  0  0
   14.3295   -7.0106   -8.9226 C   0  0  0  0  0  0  0  0  0  0  0  0
   15.4436   -7.8180   -9.5473 C   0  0  0  0  0  0  0  0  0  0  0  0
   16.4231   -7.0308  -10.3351 C   0  0  2  0  0  0  0  0  0  0  0  0
   17.4817   -7.8322  -10.9205 N   0  0  0  0  0  0  0  0  0  0  0  0
   17.0064   -5.9784   -9.4369 C   0  0  0  0  0  0  0  0  0  0  0  0
   17.9760   -6.2870   -8.7075 O   0  0  0  0  0  0  0  0  0  0  0  0
   16.5160   -4.6925   -9.3888 O   0  0  0  0  0  0  0  0  0  0  0  0
  2  1  1  1
  2  6  1  0
  2  3  1  0
  3  4  1  0
  4  5  2  0
  6 13  1  0
  7  6  2  0
  8  4  1  0
 10  9  1  1
 11 10  1  0
 12 10  1  0
 12 13  1  6
 14 15  2  0
 14 12  1  0
 16 17  1  0
 17 19  1  0
 18 17  2  0
 19 20  1  0
 21 22  1  0
 21 20  1  1
 22 14  1  0
 23 21  1  0
 24 23  2  0
 25 23  1  0
M  END
$$$$
