DVQ.pdb
     RDKit          3D

 25 24  0  0  1  0  0  0  0  0999 V2000
   16.3101  -12.4222  -16.9402 N   0  0  0  0  0  0  0  0  0  0  0  0
   16.9928  -11.5623  -15.9971 C   0  0  1  0  0  0  0  0  0  0  0  0
   17.8392  -12.3203  -15.0282 C   0  0  0  0  0  0  0  0  0  0  0  0
   17.0116  -13.3145  -14.3169 C   0  0  0  0  0  0  0  0  0  0  0  0
   17.5365  -14.3021  -13.7684 O   0  0  0  0  0  0  0  0  0  0  0  0
   17.7380  -10.4795  -16.6850 C   0  0  0  0  0  0  0  0  0  0  0  0
   18.3506  -10.7537  -17.7414 O   0  0  0  0  0  0  0  0  0  0  0  0
   15.6454  -13.1468  -14.2586 O   0  0  0  0  0  0  0  0  0  0  0  0
   16.4035   -7.3390  -17.9834 C   0  0  0  0  0  0  0  0  0  0  0  0
   17.4333   -6.9377  -16.9636 C   0  0  1  0  0  0  0  0  0  0  0  0
   16.7442   -6.6552  -15.6337 C   0  0  0  0  0  0  0  0  0  0  0  0
   18.4288   -8.0546  -16.7484 C   0  0  2  0  0  0  0  0  0  0  0  0
   17.7545   -9.1623  -16.1519 N   0  0  0  0  0  0  0  0  0  0  0  0
   19.4949   -7.4948  -15.8723 C   0  0  0  0  0  0  0  0  0  0  0  0
   19.4949   -7.5364  -14.6367 O   0  0  0  0  0  0  0  0  0  0  0  0
   24.9697   -5.3793  -18.1447 N   0  0  0  0  0  0  0  0  0  0  0  0
   25.1658   -5.0698  -16.7756 C   0  0  0  0  0  0  0  0  0  0  0  0
   26.2430   -4.6010  -16.3150 O   0  0  0  0  0  0  0  0  0  0  0  0
   24.0156   -5.3189  -15.8343 C   0  0  0  0  0  0  0  0  0  0  0  0
   22.8255   -5.8390  -16.6068 C   0  0  0  0  0  0  0  0  0  0  0  0
   21.6711   -6.2562  -15.7744 C   0  0  2  0  0  0  0  0  0  0  0  0
   20.5930   -6.8636  -16.5323 N   0  0  0  0  0  0  0  0  0  0  0  0
   21.1688   -5.0499  -15.0348 C   0  0  0  0  0  0  0  0  0  0  0  0
   20.3230   -4.3161  -15.5947 O   0  0  0  0  0  0  0  0  0  0  0  0
   21.6023   -4.7251  -13.7687 O   0  0  0  0  0  0  0  0  0  0  0  0
  2  1  1  6
  2  6  1  0
  2  3  1  0
  3  4  1  0
  4  5  2  0
  6 13  1  0
  7  6  2  0
  8  4  1  0
 10  9  1  6
 11 10  1  0
 12 10  1  0
 12 13  1  1
 14 15  2  0
 14 12  1  0
 16 17  1  0
 17 19  1  0
 18 17  2  0
 19 20  1  0
 21 22  1  0
 21 20  1  6
 22 14  1  0
 23 21  1  0
 24 23  2  0
 25 23  1  0
M  END
$$$$
