DVQ.pdb
     RDKit          3D

 25 24  0  0  1  0  0  0  0  0999 V2000
   18.3104  -14.0263  -16.9925 N   0  0  0  0  0  0  0  0  0  0  0  0
   17.6086  -12.8818  -16.4515 C   0  0  1  0  0  0  0  0  0  0  0  0
   17.6055  -12.8556  -14.9585 C   0  0  0  0  0  0  0  0  0  0  0  0
   16.8655  -14.0241  -14.4424 C   0  0  0  0  0  0  0  0  0  0  0  0
   15.7846  -13.8763  -13.8411 O   0  0  0  0  0  0  0  0  0  0  0  0
   18.0934  -11.6122  -17.0465 C   0  0  0  0  0  0  0  0  0  0  0  0
   19.3239  -11.4666  -17.2231 O   0  0  0  0  0  0  0  0  0  0  0  0
   17.3757  -15.2901  -14.6292 O   0  0  0  0  0  0  0  0  0  0  0  0
   16.7460   -7.5023  -19.4439 C   0  0  0  0  0  0  0  0  0  0  0  0
   16.4119   -8.8419  -18.8478 C   0  0  1  0  0  0  0  0  0  0  0  0
   16.1987   -9.8542  -19.9671 C   0  0  0  0  0  0  0  0  0  0  0  0
   17.5480   -9.3337  -17.9804 C   0  0  2  0  0  0  0  0  0  0  0  0
   17.1776  -10.5863  -17.4050 N   0  0  0  0  0  0  0  0  0  0  0  0
   17.7723   -8.2773  -16.9551 C   0  0  0  0  0  0  0  0  0  0  0  0
   17.0276   -8.0482  -15.9951 O   0  0  0  0  0  0  0  0  0  0  0  0
   22.7335   -7.4092  -13.9938 N   0  0  0  0  0  0  0  0  0  0  0  0
   22.2381   -6.1105  -13.7168 C   0  0  0  0  0  0  0  0  0  0  0  0
   22.7718   -5.3238  -12.8871 O   0  0  0  0  0  0  0  0  0  0  0  0
   21.0083   -5.6613  -14.4630 C   0  0  0  0  0  0  0  0  0  0  0  0
   20.5353   -6.7643  -15.3812 C   0  0  0  0  0  0  0  0  0  0  0  0
   19.2948   -6.4632  -16.1362 C   0  0  2  0  0  0  0  0  0  0  0  0
   18.9445   -7.4770  -17.1136 N   0  0  0  0  0  0  0  0  0  0  0  0
   19.4697   -5.1327  -16.8099 C   0  0  0  0  0  0  0  0  0  0  0  0
   19.7463   -5.1138  -18.0307 O   0  0  0  0  0  0  0  0  0  0  0  0
   19.3357   -3.9393  -16.1359 O   0  0  0  0  0  0  0  0  0  0  0  0
  2  1  1  1
  2  6  1  0
  2  3  1  0
  3  4  1  0
  4  5  2  0
  6 13  1  0
  7  6  2  0
  8  4  1  0
 10  9  1  6
 11 10  1  0
 12 10  1  0
 12 13  1  1
 14 15  2  0
 14 12  1  0
 16 17  1  0
 17 19  1  0
 18 17  2  0
 19 20  1  0
 21 22  1  0
 21 20  1  6
 22 14  1  0
 23 21  1  0
 24 23  2  0
 25 23  1  0
M  END
$$$$
