MET.pdb
     RDKit          3D

 25 24  0  0  1  0  0  0  0  0999 V2000
   23.1247  -12.6682  -17.8199 C   0  0  0  0  0  0  0  0  0  0  0  0
   22.3871  -11.2311  -17.0384 S   0  0  0  0  0  0  0  0  0  0  0  0
   22.9123  -11.0593  -15.3537 C   0  0  0  0  0  0  0  0  0  0  0  0
   22.3389   -9.9379  -14.6007 C   0  0  0  0  0  0  0  0  0  0  0  0
   20.9212   -9.9620  -14.1854 C   0  0  2  0  0  0  0  0  0  0  0  0
   20.1292   -9.5915  -15.3804 N   0  0  0  0  0  0  0  0  0  0  0  0
   20.6738   -8.8499  -13.1684 C   0  0  0  0  0  0  0  0  0  0  0  0
   21.2929   -8.9219  -12.0912 O   0  0  0  0  0  0  0  0  0  0  0  0
   19.7923   -7.7922  -13.4258 N   0  0  0  0  0  0  0  0  0  0  0  0
   19.5947   -6.6978  -12.4661 C   0  0  1  0  0  0  0  0  0  0  0  0
   20.1417   -5.4222  -12.9909 C   0  0  0  0  0  0  0  0  0  0  0  0
   21.6318   -5.4024  -13.0495 C   0  0  0  0  0  0  0  0  0  0  0  0
   22.2205   -4.1632  -13.5884 C   0  0  0  0  0  0  0  0  0  0  0  0
   22.8801   -4.0759  -14.6480 O   0  0  0  0  0  0  0  0  0  0  0  0
   18.1542   -6.5733  -12.1480 C   0  0  0  0  0  0  0  0  0  0  0  0
   17.2501   -6.7507  -12.9926 O   0  0  0  0  0  0  0  0  0  0  0  0
   22.0565   -2.9515  -12.8932 O   0  0  0  0  0  0  0  0  0  0  0  0
   16.1429   -8.3927   -9.4133 C   0  0  0  0  0  0  0  0  0  0  0  0
   15.9447   -6.9069   -9.2431 C   0  0  1  0  0  0  0  0  0  0  0  0
   16.7160   -6.4242   -8.1999 O   0  0  0  0  0  0  0  0  0  0  0  0
   16.2981   -6.1355  -10.4814 C   0  0  2  0  0  0  0  0  0  0  0  0
   17.7008   -6.2354  -10.8284 N   0  0  0  0  0  0  0  0  0  0  0  0
   15.8765   -4.7126  -10.4019 C   0  0  0  0  0  0  0  0  0  0  0  0
   14.5165   -4.3927  -10.3616 O   0  0  0  0  0  0  0  0  0  0  0  0
   16.7019   -3.7827  -10.3691 O   0  0  0  0  0  0  0  0  0  0  0  0
  2  1  1  0
  3  4  1  0
  3  2  1  0
  4  5  1  0
  5  7  1  0
  5  6  1  6
  7  8  2  0
  9  7  1  0
  9 10  1  0
 10 15  1  0
 11 12  1  0
 10 11  1  6
 12 13  1  0
 13 14  2  0
 15 22  1  0
 15 16  2  0
 17 13  1  0
 19 21  1  0
 19 18  1  6
 20 19  1  0
 21 23  1  0
 21 22  1  1
 23 24  1  0
 25 23  2  0
M  END
$$$$
