MET.pdb
     RDKit          3D

 25 24  0  0  1  0  0  0  0  0999 V2000
   26.4923  -18.1705   -7.1855 C   0  0  0  0  0  0  0  0  0  0  0  0
   27.5574  -19.5354   -6.7140 S   0  0  0  0  0  0  0  0  0  0  0  0
   27.6235  -20.7808   -7.9742 C   0  0  0  0  0  0  0  0  0  0  0  0
   26.9360  -20.4742   -9.2339 C   0  0  0  0  0  0  0  0  0  0  0  0
   26.9479  -21.4438  -10.3486 C   0  0  2  0  0  0  0  0  0  0  0  0
   28.3588  -21.5669  -10.7806 N   0  0  0  0  0  0  0  0  0  0  0  0
   26.2036  -20.8499  -11.5425 C   0  0  0  0  0  0  0  0  0  0  0  0
   26.6595  -19.7974  -12.0254 O   0  0  0  0  0  0  0  0  0  0  0  0
   25.0588  -21.4539  -12.0779 N   0  0  0  0  0  0  0  0  0  0  0  0
   24.5312  -21.0806  -13.3970 C   0  0  1  0  0  0  0  0  0  0  0  0
   24.7365  -22.1709  -14.3824 C   0  0  0  0  0  0  0  0  0  0  0  0
   26.1630  -22.3381  -14.7841 C   0  0  0  0  0  0  0  0  0  0  0  0
   26.7099  -21.2520  -15.6171 C   0  0  0  0  0  0  0  0  0  0  0  0
   26.0904  -20.6529  -16.5241 O   0  0  0  0  0  0  0  0  0  0  0  0
   23.0979  -20.7305  -13.2751 C   0  0  0  0  0  0  0  0  0  0  0  0
   22.3527  -21.2002  -12.3883 O   0  0  0  0  0  0  0  0  0  0  0  0
   28.0319  -20.8154  -15.4167 O   0  0  0  0  0  0  0  0  0  0  0  0
   19.2034  -18.0324  -14.9449 C   0  0  0  0  0  0  0  0  0  0  0  0
   20.6485  -18.4365  -15.1011 C   0  0  1  0  0  0  0  0  0  0  0  0
   21.4862  -17.3516  -14.9083 O   0  0  0  0  0  0  0  0  0  0  0  0
   21.0501  -19.5144  -14.1367 C   0  0  2  0  0  0  0  0  0  0  0  0
   22.4663  -19.8154  -14.1832 N   0  0  0  0  0  0  0  0  0  0  0  0
   20.2442  -20.7520  -14.3028 C   0  0  0  0  0  0  0  0  0  0  0  0
   19.1665  -20.9986  -13.4475 O   0  0  0  0  0  0  0  0  0  0  0  0
   20.4974  -21.5881  -15.1880 O   0  0  0  0  0  0  0  0  0  0  0  0
  2  1  1  0
  3  4  1  0
  3  2  1  0
  4  5  1  0
  5  7  1  0
  5  6  1  6
  7  8  2  0
  9  7  1  0
  9 10  1  0
 10 15  1  0
 11 12  1  0
 10 11  1  6
 12 13  1  0
 13 14  2  0
 15 22  1  0
 15 16  2  0
 17 13  1  0
 19 21  1  0
 19 18  1  1
 20 19  1  0
 21 23  1  0
 21 22  1  6
 23 24  1  0
 25 23  2  0
M  END
$$$$
