MET.pdb
     RDKit          3D

 25 24  0  0  1  0  0  0  0  0999 V2000
   27.7517  -11.9237  -15.2288 C   0  0  0  0  0  0  0  0  0  0  0  0
   27.2959  -13.6280  -15.5564 S   0  0  0  0  0  0  0  0  0  0  0  0
   26.7966  -13.8606  -17.2417 C   0  0  0  0  0  0  0  0  0  0  0  0
   25.5432  -13.2146  -17.6478 C   0  0  0  0  0  0  0  0  0  0  0  0
   24.2507  -13.6790  -17.1031 C   0  0  2  0  0  0  0  0  0  0  0  0
   23.9449  -14.9574  -17.7849 N   0  0  0  0  0  0  0  0  0  0  0  0
   23.1470  -12.7131  -17.5285 C   0  0  0  0  0  0  0  0  0  0  0  0
   22.7871  -12.7557  -18.7190 O   0  0  0  0  0  0  0  0  0  0  0  0
   22.5594  -11.8155  -16.6278 N   0  0  0  0  0  0  0  0  0  0  0  0
   21.4987  -10.8870  -17.0408 C   0  0  1  0  0  0  0  0  0  0  0  0
   20.1833  -11.3012  -16.4932 C   0  0  0  0  0  0  0  0  0  0  0  0
   19.7582  -12.6562  -16.9488 C   0  0  0  0  0  0  0  0  0  0  0  0
   18.4178  -13.0750  -16.5009 C   0  0  0  0  0  0  0  0  0  0  0  0
   18.1370  -13.5050  -15.3600 O   0  0  0  0  0  0  0  0  0  0  0  0
   21.8496   -9.5138  -16.6129 C   0  0  0  0  0  0  0  0  0  0  0  0
   22.6083   -9.2711  -15.6497 O   0  0  0  0  0  0  0  0  0  0  0  0
   17.3302  -13.0054  -17.3901 O   0  0  0  0  0  0  0  0  0  0  0  0
   21.7154   -4.5918  -17.5408 C   0  0  0  0  0  0  0  0  0  0  0  0
   21.2434   -5.9784  -17.9020 C   0  0  1  0  0  0  0  0  0  0  0  0
   21.7561   -6.3689  -19.1270 O   0  0  0  0  0  0  0  0  0  0  0  0
   21.6412   -7.0040  -16.8805 C   0  0  2  0  0  0  0  0  0  0  0  0
   21.3309   -8.3585  -17.2891 N   0  0  0  0  0  0  0  0  0  0  0  0
   21.0718   -6.7166  -15.5381 C   0  0  0  0  0  0  0  0  0  0  0  0
   21.8545   -6.0729  -14.5754 O   0  0  0  0  0  0  0  0  0  0  0  0
   19.9074   -7.0324  -15.2360 O   0  0  0  0  0  0  0  0  0  0  0  0
  2  1  1  0
  3  4  1  0
  3  2  1  0
  4  5  1  0
  5  7  1  0
  5  6  1  6
  7  8  2  0
  9  7  1  0
  9 10  1  0
 10 15  1  0
 11 12  1  0
 10 11  1  1
 12 13  1  0
 13 14  2  0
 15 22  1  0
 15 16  2  0
 17 13  1  0
 19 21  1  0
 19 18  1  1
 20 19  1  0
 21 23  1  0
 21 22  1  6
 23 24  1  0
 25 23  2  0
M  END
$$$$
