MET.pdb
     RDKit          3D

 25 24  0  0  1  0  0  0  0  0999 V2000
   10.2471  -10.7351   -9.8739 C   0  0  0  0  0  0  0  0  0  0  0  0
   10.6758  -12.4158  -10.3335 S   0  0  0  0  0  0  0  0  0  0  0  0
   11.9467  -12.4536  -11.5692 C   0  0  0  0  0  0  0  0  0  0  0  0
   13.1323  -11.6274  -11.3138 C   0  0  0  0  0  0  0  0  0  0  0  0
   14.2412  -11.5873  -12.2893 C   0  0  2  0  0  0  0  0  0  0  0  0
   14.8916  -12.9165  -12.2378 N   0  0  0  0  0  0  0  0  0  0  0  0
   15.2986  -10.5944  -11.8115 C   0  0  0  0  0  0  0  0  0  0  0  0
   16.1188  -11.0043  -10.9702 O   0  0  0  0  0  0  0  0  0  0  0  0
   15.3518   -9.2795  -12.2916 N   0  0  0  0  0  0  0  0  0  0  0  0
   16.3187   -8.3037  -11.7711 C   0  0  1  0  0  0  0  0  0  0  0  0
   17.1785   -7.7724  -12.8574 C   0  0  0  0  0  0  0  0  0  0  0  0
   17.9955   -8.8250  -13.5274 C   0  0  0  0  0  0  0  0  0  0  0  0
   18.8736   -8.3420  -14.6083 C   0  0  0  0  0  0  0  0  0  0  0  0
   19.6056   -7.3291  -14.5487 O   0  0  0  0  0  0  0  0  0  0  0  0
   15.5960   -7.2138  -11.0772 C   0  0  0  0  0  0  0  0  0  0  0  0
   14.5303   -6.7199  -11.5048 O   0  0  0  0  0  0  0  0  0  0  0  0
   18.9303   -9.0408  -15.8277 O   0  0  0  0  0  0  0  0  0  0  0  0
   14.3807   -7.1716   -7.3705 C   0  0  0  0  0  0  0  0  0  0  0  0
   15.2514   -5.9691   -7.6386 C   0  0  1  0  0  0  0  0  0  0  0  0
   16.5318   -6.1711   -7.1532 O   0  0  0  0  0  0  0  0  0  0  0  0
   15.3513   -5.6481   -9.1016 C   0  0  2  0  0  0  0  0  0  0  0  0
   16.0834   -6.6484   -9.8509 N   0  0  0  0  0  0  0  0  0  0  0  0
   15.9112   -4.2934   -9.3472 C   0  0  0  0  0  0  0  0  0  0  0  0
   17.1134   -4.1556  -10.0468 O   0  0  0  0  0  0  0  0  0  0  0  0
   15.3405   -3.2633   -8.9473 O   0  0  0  0  0  0  0  0  0  0  0  0
  2  1  1  0
  3  4  1  0
  3  2  1  0
  4  5  1  0
  5  7  1  0
  5  6  1  1
  7  8  2  0
  9  7  1  0
  9 10  1  0
 10 15  1  0
 11 12  1  0
 10 11  1  6
 12 13  1  0
 13 14  2  0
 15 22  1  0
 15 16  2  0
 17 13  1  0
 19 21  1  0
 19 18  1  6
 20 19  1  0
 21 23  1  0
 21 22  1  6
 23 24  1  0
 25 23  2  0
M  END
$$$$
