MET.pdb
     RDKit          3D

 25 24  0  0  1  0  0  0  0  0999 V2000
   26.6184  -16.7108  -14.5362 C   0  0  0  0  0  0  0  0  0  0  0  0
   25.5101  -15.4506  -15.1714 S   0  0  0  0  0  0  0  0  0  0  0  0
   26.4008  -14.0712  -15.8403 C   0  0  0  0  0  0  0  0  0  0  0  0
   25.5948  -12.9433  -16.3219 C   0  0  0  0  0  0  0  0  0  0  0  0
   24.2000  -13.1535  -16.7613 C   0  0  2  0  0  0  0  0  0  0  0  0
   24.2699  -13.9482  -18.0087 N   0  0  0  0  0  0  0  0  0  0  0  0
   23.5895  -11.8125  -17.1630 C   0  0  0  0  0  0  0  0  0  0  0  0
   24.1573  -11.1841  -18.0748 O   0  0  0  0  0  0  0  0  0  0  0  0
   22.4428  -11.3034  -16.5400 N   0  0  0  0  0  0  0  0  0  0  0  0
   21.8440  -10.0249  -16.9458 C   0  0  1  0  0  0  0  0  0  0  0  0
   20.4814  -10.2247  -17.4980 C   0  0  0  0  0  0  0  0  0  0  0  0
   20.4825  -10.8501  -18.8519 C   0  0  0  0  0  0  0  0  0  0  0  0
   19.1555  -10.9885  -19.4784 C   0  0  0  0  0  0  0  0  0  0  0  0
   18.0988  -10.4657  -19.0595 O   0  0  0  0  0  0  0  0  0  0  0  0
   21.8244   -9.0995  -15.7904 C   0  0  0  0  0  0  0  0  0  0  0  0
   21.7188   -9.4866  -14.6066 O   0  0  0  0  0  0  0  0  0  0  0  0
   19.0102  -11.7611  -20.6448 O   0  0  0  0  0  0  0  0  0  0  0  0
   22.3672   -4.4299  -14.0481 C   0  0  0  0  0  0  0  0  0  0  0  0
   22.2935   -5.3571  -15.2360 C   0  0  1  0  0  0  0  0  0  0  0  0
   23.5191   -5.4366  -15.8744 O   0  0  0  0  0  0  0  0  0  0  0  0
   21.8745   -6.7469  -14.8538 C   0  0  2  0  0  0  0  0  0  0  0  0
   21.9266   -7.6779  -15.9622 N   0  0  0  0  0  0  0  0  0  0  0  0
   20.5379   -6.7771  -14.2046 C   0  0  0  0  0  0  0  0  0  0  0  0
   20.4440   -6.8709  -12.8132 O   0  0  0  0  0  0  0  0  0  0  0  0
   19.4849   -6.7206  -14.8639 O   0  0  0  0  0  0  0  0  0  0  0  0
  2  1  1  0
  3  4  1  0
  3  2  1  0
  4  5  1  0
  5  7  1  0
  5  6  1  6
  7  8  2  0
  9  7  1  0
  9 10  1  0
 10 15  1  0
 11 12  1  0
 10 11  1  1
 12 13  1  0
 13 14  2  0
 15 22  1  0
 15 16  2  0
 17 13  1  0
 19 21  1  0
 19 18  1  1
 20 19  1  0
 21 23  1  0
 21 22  1  6
 23 24  1  0
 25 23  2  0
M  END
$$$$
