MET.pdb
     RDKit          3D

 25 24  0  0  1  0  0  0  0  0999 V2000
   26.4913  -18.7069   -6.0642 C   0  0  0  0  0  0  0  0  0  0  0  0
   28.1369  -19.3936   -6.2649 S   0  0  0  0  0  0  0  0  0  0  0  0
   28.2189  -20.5073   -7.6421 C   0  0  0  0  0  0  0  0  0  0  0  0
   27.2587  -20.2771   -8.7277 C   0  0  0  0  0  0  0  0  0  0  0  0
   27.1580  -21.2296   -9.8527 C   0  0  2  0  0  0  0  0  0  0  0  0
   28.4904  -21.2563  -10.4983 N   0  0  0  0  0  0  0  0  0  0  0  0
   26.2035  -20.6694  -10.9050 C   0  0  0  0  0  0  0  0  0  0  0  0
   26.5434  -19.6146  -11.4712 O   0  0  0  0  0  0  0  0  0  0  0  0
   24.9975  -21.3055  -11.2259 N   0  0  0  0  0  0  0  0  0  0  0  0
   24.2514  -20.9795  -12.4485 C   0  0  1  0  0  0  0  0  0  0  0  0
   24.3838  -22.0583  -13.4587 C   0  0  0  0  0  0  0  0  0  0  0  0
   25.7852  -22.2512  -13.9312 C   0  0  0  0  0  0  0  0  0  0  0  0
   26.2641  -21.2455  -14.8964 C   0  0  0  0  0  0  0  0  0  0  0  0
   25.5372  -20.4608  -15.5454 O   0  0  0  0  0  0  0  0  0  0  0  0
   22.8315  -20.7326  -12.1100 C   0  0  0  0  0  0  0  0  0  0  0  0
   22.2744  -21.2199  -11.1027 O   0  0  0  0  0  0  0  0  0  0  0  0
   27.6425  -21.1162  -15.1452 O   0  0  0  0  0  0  0  0  0  0  0  0
   20.7278  -17.1253  -12.8668 C   0  0  0  0  0  0  0  0  0  0  0  0
   20.0830  -18.4090  -13.3277 C   0  0  1  0  0  0  0  0  0  0  0  0
   20.2834  -18.6007  -14.6838 O   0  0  0  0  0  0  0  0  0  0  0  0
   20.6148  -19.6107  -12.6022 C   0  0  2  0  0  0  0  0  0  0  0  0
   21.9941  -19.9054  -12.9320 N   0  0  0  0  0  0  0  0  0  0  0  0
   19.7606  -20.8118  -12.7936 C   0  0  0  0  0  0  0  0  0  0  0  0
   18.5757  -20.9442  -12.0642 O   0  0  0  0  0  0  0  0  0  0  0  0
   20.0661  -21.7160  -13.5910 O   0  0  0  0  0  0  0  0  0  0  0  0
  2  1  1  0
  3  4  1  0
  3  2  1  0
  4  5  1  0
  5  7  1  0
  5  6  1  6
  7  8  2  0
  9  7  1  0
  9 10  1  0
 10 15  1  0
 11 12  1  0
 10 11  1  6
 12 13  1  0
 13 14  2  0
 15 22  1  0
 15 16  2  0
 17 13  1  0
 19 21  1  0
 19 18  1  1
 20 19  1  0
 21 23  1  0
 21 22  1  6
 23 24  1  0
 25 23  2  0
M  END
$$$$
