MET.pdb
     RDKit          3D

 25 24  0  0  1  0  0  0  0  0999 V2000
   25.9498  -19.2114   -7.5408 C   0  0  0  0  0  0  0  0  0  0  0  0
   27.4987  -20.0897   -7.3187 S   0  0  0  0  0  0  0  0  0  0  0  0
   28.1874  -20.6063   -8.8687 C   0  0  0  0  0  0  0  0  0  0  0  0
   27.3281  -20.4567  -10.0488 C   0  0  0  0  0  0  0  0  0  0  0  0
   26.4854  -21.5799  -10.5085 C   0  0  2  0  0  0  0  0  0  0  0  0
   27.4117  -22.6137  -11.0240 N   0  0  0  0  0  0  0  0  0  0  0  0
   25.6597  -21.1319  -11.7125 C   0  0  0  0  0  0  0  0  0  0  0  0
   26.1563  -21.3173  -12.8384 O   0  0  0  0  0  0  0  0  0  0  0  0
   24.3993  -20.5380  -11.5677 N   0  0  0  0  0  0  0  0  0  0  0  0
   23.3611  -20.6633  -12.5993 C   0  0  1  0  0  0  0  0  0  0  0  0
   22.0047  -20.6283  -11.9988 C   0  0  0  0  0  0  0  0  0  0  0  0
   20.9142  -20.8011  -13.0015 C   0  0  0  0  0  0  0  0  0  0  0  0
   19.5496  -20.8212  -12.4446 C   0  0  0  0  0  0  0  0  0  0  0  0
   19.1291  -21.6294  -11.5871 O   0  0  0  0  0  0  0  0  0  0  0  0
   23.5308  -19.5897  -13.6044 C   0  0  0  0  0  0  0  0  0  0  0  0
   23.4804  -18.3735  -13.3204 O   0  0  0  0  0  0  0  0  0  0  0  0
   18.6033  -19.8756  -12.8793 O   0  0  0  0  0  0  0  0  0  0  0  0
   26.4195  -19.0637  -16.2435 C   0  0  0  0  0  0  0  0  0  0  0  0
   25.0781  -19.1353  -16.9302 C   0  0  1  0  0  0  0  0  0  0  0  0
   24.8787  -20.3851  -17.4907 O   0  0  0  0  0  0  0  0  0  0  0  0
   23.9387  -18.8557  -15.9938 C   0  0  2  0  0  0  0  0  0  0  0  0
   23.7671  -19.8850  -14.9893 N   0  0  0  0  0  0  0  0  0  0  0  0
   22.6625  -18.6058  -16.7134 C   0  0  0  0  0  0  0  0  0  0  0  0
   22.5646  -17.5293  -17.5996 O   0  0  0  0  0  0  0  0  0  0  0  0
   21.6644  -19.3304  -16.5537 O   0  0  0  0  0  0  0  0  0  0  0  0
  2  1  1  0
  3  4  1  0
  3  2  1  0
  4  5  1  0
  5  7  1  0
  5  6  1  6
  7  8  2  0
  9  7  1  0
  9 10  1  0
 10 15  1  0
 11 12  1  0
 10 11  1  1
 12 13  1  0
 13 14  2  0
 15 22  1  0
 15 16  2  0
 17 13  1  0
 19 21  1  0
 19 18  1  1
 20 19  1  0
 21 23  1  0
 21 22  1  1
 23 24  1  0
 25 23  2  0
M  END
$$$$
