MET.pdb
     RDKit          3D

 25 24  0  0  1  0  0  0  0  0999 V2000
   30.6580  -21.0165  -10.7069 C   0  0  0  0  0  0  0  0  0  0  0  0
   29.8869  -21.5633   -9.1817 S   0  0  0  0  0  0  0  0  0  0  0  0
   28.2521  -20.9014   -8.9998 C   0  0  0  0  0  0  0  0  0  0  0  0
   27.4343  -20.8344  -10.2163 C   0  0  0  0  0  0  0  0  0  0  0  0
   26.0899  -20.2225  -10.1819 C   0  0  2  0  0  0  0  0  0  0  0  0
   25.1740  -21.2557   -9.6470 N   0  0  0  0  0  0  0  0  0  0  0  0
   25.6191  -19.9569  -11.6103 C   0  0  0  0  0  0  0  0  0  0  0  0
   24.4817  -19.4716  -11.7489 O   0  0  0  0  0  0  0  0  0  0  0  0
   26.4230  -20.2430  -12.7212 N   0  0  0  0  0  0  0  0  0  0  0  0
   26.0988  -19.7381  -14.0621 C   0  0  1  0  0  0  0  0  0  0  0  0
   27.3278  -19.5397  -14.8695 C   0  0  0  0  0  0  0  0  0  0  0  0
   27.0491  -19.0673  -16.2564 C   0  0  0  0  0  0  0  0  0  0  0  0
   28.2431  -18.8067  -17.0804 C   0  0  0  0  0  0  0  0  0  0  0  0
   28.5513  -17.7018  -17.5799 O   0  0  0  0  0  0  0  0  0  0  0  0
   25.1636  -20.6721  -14.7291 C   0  0  0  0  0  0  0  0  0  0  0  0
   25.3655  -21.9032  -14.8053 O   0  0  0  0  0  0  0  0  0  0  0  0
   29.1424  -19.8520  -17.3582 O   0  0  0  0  0  0  0  0  0  0  0  0
   21.5227  -21.4365  -13.9046 C   0  0  0  0  0  0  0  0  0  0  0  0
   21.6007  -20.9464  -15.3293 C   0  0  1  0  0  0  0  0  0  0  0  0
   21.2563  -19.6082  -15.4085 O   0  0  0  0  0  0  0  0  0  0  0  0
   22.9713  -21.1120  -15.9186 C   0  0  2  0  0  0  0  0  0  0  0  0
   23.9480  -20.2127  -15.3393 N   0  0  0  0  0  0  0  0  0  0  0  0
   22.9679  -20.9999  -17.4006 C   0  0  0  0  0  0  0  0  0  0  0  0
   22.3126  -21.9668  -18.1683 O   0  0  0  0  0  0  0  0  0  0  0  0
   23.5348  -20.0635  -17.9908 O   0  0  0  0  0  0  0  0  0  0  0  0
  2  1  1  0
  3  4  1  0
  3  2  1  0
  4  5  1  0
  5  7  1  0
  5  6  1  6
  7  8  2  0
  9  7  1  0
  9 10  1  0
 10 15  1  0
 11 12  1  0
 10 11  1  6
 12 13  1  0
 13 14  2  0
 15 22  1  0
 15 16  2  0
 17 13  1  0
 19 21  1  0
 19 18  1  1
 20 19  1  0
 21 23  1  0
 21 22  1  1
 23 24  1  0
 25 23  2  0
M  END
$$$$
