MET.pdb
     RDKit          3D

 25 24  0  0  1  0  0  0  0  0999 V2000
   29.7148  -17.2130  -17.2007 C   0  0  0  0  0  0  0  0  0  0  0  0
   28.3367  -18.0052  -16.3683 S   0  0  0  0  0  0  0  0  0  0  0  0
   27.1439  -18.6281  -17.5229 C   0  0  0  0  0  0  0  0  0  0  0  0
   25.9942  -19.3416  -16.9550 C   0  0  0  0  0  0  0  0  0  0  0  0
   26.1054  -20.0195  -15.6470 C   0  0  2  0  0  0  0  0  0  0  0  0
   26.9063  -21.2435  -15.8772 N   0  0  0  0  0  0  0  0  0  0  0  0
   24.7252  -20.5081  -15.2125 C   0  0  0  0  0  0  0  0  0  0  0  0
   24.3394  -21.5962  -15.6770 O   0  0  0  0  0  0  0  0  0  0  0  0
   23.9217  -19.7728  -14.3316 N   0  0  0  0  0  0  0  0  0  0  0  0
   22.6477  -20.2987  -13.8234 C   0  0  1  0  0  0  0  0  0  0  0  0
   22.3635  -19.7850  -12.4607 C   0  0  0  0  0  0  0  0  0  0  0  0
   21.1460  -20.3898  -11.8474 C   0  0  0  0  0  0  0  0  0  0  0  0
   20.8213  -19.9063  -10.4934 C   0  0  0  0  0  0  0  0  0  0  0  0
   19.8483  -20.2838   -9.8035 O   0  0  0  0  0  0  0  0  0  0  0  0
   21.5592  -19.9523  -14.7652 C   0  0  0  0  0  0  0  0  0  0  0  0
   21.4653  -18.8365  -15.3205 O   0  0  0  0  0  0  0  0  0  0  0  0
   21.6406  -18.9409   -9.8807 O   0  0  0  0  0  0  0  0  0  0  0  0
   17.7049  -21.5203  -17.5646 C   0  0  0  0  0  0  0  0  0  0  0  0
   18.8131  -21.8371  -16.5912 C   0  0  1  0  0  0  0  0  0  0  0  0
   19.7774  -22.6324  -17.1857 O   0  0  0  0  0  0  0  0  0  0  0  0
   19.4850  -20.6021  -16.0652 C   0  0  2  0  0  0  0  0  0  0  0  0
   20.5282  -20.8924  -15.1031 N   0  0  0  0  0  0  0  0  0  0  0  0
   18.5152  -19.6228  -15.5092 C   0  0  0  0  0  0  0  0  0  0  0  0
   18.0458  -18.5788  -16.3114 O   0  0  0  0  0  0  0  0  0  0  0  0
   18.0998  -19.6999  -14.3395 O   0  0  0  0  0  0  0  0  0  0  0  0
  2  1  1  0
  3  4  1  0
  3  2  1  0
  4  5  1  0
  5  7  1  0
  5  6  1  6
  7  8  2  0
  9  7  1  0
  9 10  1  0
 10 15  1  0
 11 12  1  0
 10 11  1  1
 12 13  1  0
 13 14  2  0
 15 22  1  0
 15 16  2  0
 17 13  1  0
 19 21  1  0
 19 18  1  6
 20 19  1  0
 21 23  1  0
 21 22  1  1
 23 24  1  0
 25 23  2  0
M  END
$$$$
