MET.pdb
     RDKit          3D

 25 24  0  0  1  0  0  0  0  0999 V2000
   29.7945  -10.5277  -18.5791 C   0  0  0  0  0  0  0  0  0  0  0  0
   28.8922  -11.3285  -17.2508 S   0  0  0  0  0  0  0  0  0  0  0  0
   27.4572  -12.1784  -17.8525 C   0  0  0  0  0  0  0  0  0  0  0  0
   26.1816  -11.4598  -17.7535 C   0  0  0  0  0  0  0  0  0  0  0  0
   25.8791  -10.6313  -16.5682 C   0  0  2  0  0  0  0  0  0  0  0  0
   25.7495  -11.5658  -15.4270 N   0  0  0  0  0  0  0  0  0  0  0  0
   24.5011   -9.9946  -16.7355 C   0  0  0  0  0  0  0  0  0  0  0  0
   24.3424   -9.2402  -17.7124 O   0  0  0  0  0  0  0  0  0  0  0  0
   23.4560  -10.2415  -15.8360 N   0  0  0  0  0  0  0  0  0  0  0  0
   22.1158   -9.6726  -16.0311 C   0  0  1  0  0  0  0  0  0  0  0  0
   21.0619  -10.6505  -15.6639 C   0  0  0  0  0  0  0  0  0  0  0  0
   19.6801  -10.1159  -15.8341 C   0  0  0  0  0  0  0  0  0  0  0  0
   18.5983  -11.0736  -15.5423 C   0  0  0  0  0  0  0  0  0  0  0  0
   18.1402  -11.9157  -16.3462 O   0  0  0  0  0  0  0  0  0  0  0  0
   21.9887   -8.4256  -15.2432 C   0  0  0  0  0  0  0  0  0  0  0  0
   22.1027   -8.3888  -13.9990 O   0  0  0  0  0  0  0  0  0  0  0  0
   17.9974  -11.0831  -14.2705 O   0  0  0  0  0  0  0  0  0  0  0  0
   23.7900   -5.0060  -16.0486 C   0  0  0  0  0  0  0  0  0  0  0  0
   22.3135   -4.7753  -15.8419 C   0  0  1  0  0  0  0  0  0  0  0  0
   21.6708   -4.5876  -17.0534 O   0  0  0  0  0  0  0  0  0  0  0  0
   21.6482   -5.9184  -15.1320 C   0  0  2  0  0  0  0  0  0  0  0  0
   21.7220   -7.1622  -15.8707 N   0  0  0  0  0  0  0  0  0  0  0  0
   20.2428   -5.6120  -14.7581 C   0  0  0  0  0  0  0  0  0  0  0  0
   19.9792   -4.6536  -13.7754 O   0  0  0  0  0  0  0  0  0  0  0  0
   19.2790   -6.1853  -15.2958 O   0  0  0  0  0  0  0  0  0  0  0  0
  2  1  1  0
  3  4  1  0
  3  2  1  0
  4  5  1  0
  5  7  1  0
  5  6  1  1
  7  8  2  0
  9  7  1  0
  9 10  1  0
 10 15  1  0
 11 12  1  0
 10 11  1  1
 12 13  1  0
 13 14  2  0
 15 22  1  0
 15 16  2  0
 17 13  1  0
 19 21  1  0
 19 18  1  6
 20 19  1  0
 21 23  1  0
 21 22  1  6
 23 24  1  0
 25 23  2  0
M  END
$$$$
