MET.pdb
     RDKit          3D

 25 24  0  0  1  0  0  0  0  0999 V2000
   26.1108  -18.3747   -6.7267 C   0  0  0  0  0  0  0  0  0  0  0  0
   27.3498  -19.6046   -6.3118 S   0  0  0  0  0  0  0  0  0  0  0  0
   27.7970  -20.5854   -7.7195 C   0  0  0  0  0  0  0  0  0  0  0  0
   27.0618  -20.3206   -8.9616 C   0  0  0  0  0  0  0  0  0  0  0  0
   27.2393  -21.1967  -10.1380 C   0  0  2  0  0  0  0  0  0  0  0  0
   28.6168  -20.9637  -10.6287 N   0  0  0  0  0  0  0  0  0  0  0  0
   26.3185  -20.7260  -11.2617 C   0  0  0  0  0  0  0  0  0  0  0  0
   26.6883  -19.7349  -11.9171 O   0  0  0  0  0  0  0  0  0  0  0  0
   25.1101  -21.3731  -11.5503 N   0  0  0  0  0  0  0  0  0  0  0  0
   24.4083  -21.1705  -12.8247 C   0  0  1  0  0  0  0  0  0  0  0  0
   24.1798  -22.4614  -13.5198 C   0  0  0  0  0  0  0  0  0  0  0  0
   25.4121  -23.0130  -14.1534 C   0  0  0  0  0  0  0  0  0  0  0  0
   25.2393  -24.3092  -14.8337 C   0  0  0  0  0  0  0  0  0  0  0  0
   25.8172  -25.3739  -14.5211 O   0  0  0  0  0  0  0  0  0  0  0  0
   23.1327  -20.4603  -12.5791 C   0  0  0  0  0  0  0  0  0  0  0  0
   22.5027  -20.5397  -11.5024 O   0  0  0  0  0  0  0  0  0  0  0  0
   24.3645  -24.4119  -15.9303 O   0  0  0  0  0  0  0  0  0  0  0  0
   20.7250  -18.6862  -15.7944 C   0  0  0  0  0  0  0  0  0  0  0  0
   20.9493  -17.9729  -14.4840 C   0  0  1  0  0  0  0  0  0  0  0  0
   19.8252  -17.2535  -14.1170 O   0  0  0  0  0  0  0  0  0  0  0  0
   21.2849  -18.9177  -13.3668 C   0  0  2  0  0  0  0  0  0  0  0  0
   22.5317  -19.6238  -13.5791 N   0  0  0  0  0  0  0  0  0  0  0  0
   20.1822  -19.8726  -13.0821 C   0  0  0  0  0  0  0  0  0  0  0  0
   19.0942  -19.4648  -12.3052 O   0  0  0  0  0  0  0  0  0  0  0  0
   20.1924  -21.0379  -13.5166 O   0  0  0  0  0  0  0  0  0  0  0  0
  2  1  1  0
  3  4  1  0
  3  2  1  0
  4  5  1  0
  5  7  1  0
  5  6  1  6
  7  8  2  0
  9  7  1  0
  9 10  1  0
 10 15  1  0
 11 12  1  0
 10 11  1  1
 12 13  1  0
 13 14  2  0
 15 22  1  0
 15 16  2  0
 17 13  1  0
 19 21  1  0
 19 18  1  6
 20 19  1  0
 21 23  1  0
 21 22  1  6
 23 24  1  0
 25 23  2  0
M  END
$$$$
