MET.pdb
     RDKit          3D

 25 24  0  0  1  0  0  0  0  0999 V2000
   22.7526  -15.2210  -15.4609 C   0  0  0  0  0  0  0  0  0  0  0  0
   22.9619  -13.7148  -14.5085 S   0  0  0  0  0  0  0  0  0  0  0  0
   24.1409  -12.6234  -15.2585 C   0  0  0  0  0  0  0  0  0  0  0  0
   23.6042  -11.4056  -15.8768 C   0  0  0  0  0  0  0  0  0  0  0  0
   22.6615  -11.4947  -17.0110 C   0  0  2  0  0  0  0  0  0  0  0  0
   23.4618  -11.9004  -18.1888 N   0  0  0  0  0  0  0  0  0  0  0  0
   22.1301  -10.1005  -17.3367 C   0  0  0  0  0  0  0  0  0  0  0  0
   22.8192   -9.3971  -18.0976 O   0  0  0  0  0  0  0  0  0  0  0  0
   20.9230   -9.6249  -16.8085 N   0  0  0  0  0  0  0  0  0  0  0  0
   20.3817   -8.3097  -17.1760 C   0  0  1  0  0  0  0  0  0  0  0  0
   19.0848   -8.4449  -17.8842 C   0  0  0  0  0  0  0  0  0  0  0  0
   18.1066   -9.3056  -17.1585 C   0  0  0  0  0  0  0  0  0  0  0  0
   16.8032   -9.4717  -17.8264 C   0  0  0  0  0  0  0  0  0  0  0  0
   15.6884   -9.4265  -17.2604 O   0  0  0  0  0  0  0  0  0  0  0  0
   20.2453   -7.4744  -15.9613 C   0  0  0  0  0  0  0  0  0  0  0  0
   19.7213   -7.8865  -14.9040 O   0  0  0  0  0  0  0  0  0  0  0  0
   16.7527   -9.7022  -19.2131 O   0  0  0  0  0  0  0  0  0  0  0  0
   22.6953   -6.5759  -13.7205 C   0  0  0  0  0  0  0  0  0  0  0  0
   22.1387   -5.2332  -14.1250 C   0  0  1  0  0  0  0  0  0  0  0  0
   22.9558   -4.6242  -15.0618 O   0  0  0  0  0  0  0  0  0  0  0  0
   20.7581   -5.3358  -14.7052 C   0  0  2  0  0  0  0  0  0  0  0  0
   20.7138   -6.1179  -15.9236 N   0  0  0  0  0  0  0  0  0  0  0  0
   20.1304   -4.0047  -14.9122 C   0  0  0  0  0  0  0  0  0  0  0  0
   19.8535   -3.1891  -13.8114 O   0  0  0  0  0  0  0  0  0  0  0  0
   19.8387   -3.5840  -16.0457 O   0  0  0  0  0  0  0  0  0  0  0  0
  2  1  1  0
  3  4  1  0
  3  2  1  0
  4  5  1  0
  5  7  1  0
  5  6  1  6
  7  8  2  0
  9  7  1  0
  9 10  1  0
 10 15  1  0
 11 12  1  0
 10 11  1  1
 12 13  1  0
 13 14  2  0
 15 22  1  0
 15 16  2  0
 17 13  1  0
 19 21  1  0
 19 18  1  6
 20 19  1  0
 21 23  1  0
 21 22  1  6
 23 24  1  0
 25 23  2  0
M  END
$$$$
