MET.pdb
     RDKit          3D

 25 24  0  0  1  0  0  0  0  0999 V2000
   15.8875  -13.1610  -20.6841 C   0  0  0  0  0  0  0  0  0  0  0  0
   16.1909  -11.7203  -19.6584 S   0  0  0  0  0  0  0  0  0  0  0  0
   16.5170  -12.1712  -17.9749 C   0  0  0  0  0  0  0  0  0  0  0  0
   16.8279  -11.0734  -17.0520 C   0  0  0  0  0  0  0  0  0  0  0  0
   18.2117  -10.8613  -16.5800 C   0  0  2  0  0  0  0  0  0  0  0  0
   18.5105  -11.9726  -15.6482 N   0  0  0  0  0  0  0  0  0  0  0  0
   18.2677   -9.5908  -15.7344 C   0  0  0  0  0  0  0  0  0  0  0  0
   17.5436   -9.5532  -14.7231 O   0  0  0  0  0  0  0  0  0  0  0  0
   19.0931   -8.5107  -16.0726 N   0  0  0  0  0  0  0  0  0  0  0  0
   19.2082   -7.3252  -15.2130 C   0  0  1  0  0  0  0  0  0  0  0  0
   20.6254   -6.9141  -15.0570 C   0  0  0  0  0  0  0  0  0  0  0  0
   20.7904   -5.6692  -14.2525 C   0  0  0  0  0  0  0  0  0  0  0  0
   22.1787   -5.1942  -14.1124 C   0  0  0  0  0  0  0  0  0  0  0  0
   23.1969   -5.9212  -14.1171 O   0  0  0  0  0  0  0  0  0  0  0  0
   18.3895   -6.2266  -15.7739 C   0  0  0  0  0  0  0  0  0  0  0  0
   18.5506   -5.7749  -16.9281 O   0  0  0  0  0  0  0  0  0  0  0  0
   22.4350   -3.8198  -13.9579 O   0  0  0  0  0  0  0  0  0  0  0  0
   14.4228   -5.8216  -15.7892 C   0  0  0  0  0  0  0  0  0  0  0  0
   15.0908   -4.6270  -15.1545 C   0  0  1  0  0  0  0  0  0  0  0  0
   15.0062   -4.6919  -13.7745 O   0  0  0  0  0  0  0  0  0  0  0  0
   16.5399   -4.5137  -15.5293 C   0  0  2  0  0  0  0  0  0  0  0  0
   17.3438   -5.6027  -15.0134 N   0  0  0  0  0  0  0  0  0  0  0  0
   17.1234   -3.2020  -15.1450 C   0  0  0  0  0  0  0  0  0  0  0  0
   16.6438   -2.0293  -15.7353 O   0  0  0  0  0  0  0  0  0  0  0  0
   18.0358   -3.1086  -14.3050 O   0  0  0  0  0  0  0  0  0  0  0  0
  2  1  1  0
  3  4  1  0
  3  2  1  0
  4  5  1  0
  5  7  1  0
  5  6  1  1
  7  8  2  0
  9  7  1  0
  9 10  1  0
 10 15  1  0
 11 12  1  0
 10 11  1  6
 12 13  1  0
 13 14  2  0
 15 22  1  0
 15 16  2  0
 17 13  1  0
 19 21  1  0
 19 18  1  6
 20 19  1  0
 21 23  1  0
 21 22  1  1
 23 24  1  0
 25 23  2  0
M  END
$$$$
