MET.pdb
     RDKit          3D

 25 24  0  0  1  0  0  0  0  0999 V2000
   26.9620  -16.6768  -17.2531 C   0  0  0  0  0  0  0  0  0  0  0  0
   28.0576  -18.0950  -17.3443 S   0  0  0  0  0  0  0  0  0  0  0  0
   27.7884  -19.2188  -15.9996 C   0  0  0  0  0  0  0  0  0  0  0  0
   26.4043  -19.6519  -15.7759 C   0  0  0  0  0  0  0  0  0  0  0  0
   26.0523  -20.4471  -14.5815 C   0  0  2  0  0  0  0  0  0  0  0  0
   26.6955  -21.7695  -14.7553 N   0  0  0  0  0  0  0  0  0  0  0  0
   24.5495  -20.7189  -14.5805 C   0  0  0  0  0  0  0  0  0  0  0  0
   24.1748  -21.8213  -15.0197 O   0  0  0  0  0  0  0  0  0  0  0  0
   23.6259  -19.7771  -14.1091 N   0  0  0  0  0  0  0  0  0  0  0  0
   22.1883  -20.0706  -14.0384 C   0  0  1  0  0  0  0  0  0  0  0  0
   21.6173  -19.6340  -12.7403 C   0  0  0  0  0  0  0  0  0  0  0  0
   21.8930  -20.5877  -11.6273 C   0  0  0  0  0  0  0  0  0  0  0  0
   21.4058  -20.1615  -10.3031 C   0  0  0  0  0  0  0  0  0  0  0  0
   21.6805  -20.7181   -9.2168 O   0  0  0  0  0  0  0  0  0  0  0  0
   21.4951  -19.4224  -15.1747 C   0  0  0  0  0  0  0  0  0  0  0  0
   21.5351  -18.1913  -15.3871 O   0  0  0  0  0  0  0  0  0  0  0  0
   20.5595  -19.0431  -10.1963 O   0  0  0  0  0  0  0  0  0  0  0  0
   21.5863  -20.5051  -18.9936 C   0  0  0  0  0  0  0  0  0  0  0  0
   20.1640  -20.3959  -18.5024 C   0  0  1  0  0  0  0  0  0  0  0  0
   19.6344  -21.6490  -18.2471 O   0  0  0  0  0  0  0  0  0  0  0  0
   20.0511  -19.5767  -17.2496 C   0  0  2  0  0  0  0  0  0  0  0  0
   20.7218  -20.1809  -16.1169 N   0  0  0  0  0  0  0  0  0  0  0  0
   18.6412  -19.2494  -16.9121 C   0  0  0  0  0  0  0  0  0  0  0  0
   17.8693  -18.5012  -17.8055 O   0  0  0  0  0  0  0  0  0  0  0  0
   18.1157  -19.6227  -15.8485 O   0  0  0  0  0  0  0  0  0  0  0  0
  2  1  1  0
  3  4  1  0
  3  2  1  0
  4  5  1  0
  5  7  1  0
  5  6  1  6
  7  8  2  0
  9  7  1  0
  9 10  1  0
 10 15  1  0
 11 12  1  0
 10 11  1  1
 12 13  1  0
 13 14  2  0
 15 22  1  0
 15 16  2  0
 17 13  1  0
 19 21  1  0
 19 18  1  1
 20 19  1  0
 21 23  1  0
 21 22  1  1
 23 24  1  0
 25 23  2  0
M  END
$$$$
