MET.pdb
     RDKit          3D

 25 24  0  0  1  0  0  0  0  0999 V2000
   28.9047   -9.9919  -17.9856 C   0  0  0  0  0  0  0  0  0  0  0  0
   29.2040  -11.5897  -17.2259 S   0  0  0  0  0  0  0  0  0  0  0  0
   27.7809  -12.1730  -16.3438 C   0  0  0  0  0  0  0  0  0  0  0  0
   26.5266  -11.4460  -16.5713 C   0  0  0  0  0  0  0  0  0  0  0  0
   25.2842  -11.8649  -15.8904 C   0  0  2  0  0  0  0  0  0  0  0  0
   24.9606  -13.2153  -16.4046 N   0  0  0  0  0  0  0  0  0  0  0  0
   24.1337  -10.9677  -16.3416 C   0  0  0  0  0  0  0  0  0  0  0  0
   23.3858  -11.4129  -17.2310 O   0  0  0  0  0  0  0  0  0  0  0  0
   23.9209   -9.6993  -15.7865 N   0  0  0  0  0  0  0  0  0  0  0  0
   22.6962   -8.9331  -16.0528 C   0  0  1  0  0  0  0  0  0  0  0  0
   21.4868   -9.7308  -15.7319 C   0  0  0  0  0  0  0  0  0  0  0  0
   20.2148   -8.9871  -15.9628 C   0  0  0  0  0  0  0  0  0  0  0  0
   18.9926   -9.6889  -15.5313 C   0  0  0  0  0  0  0  0  0  0  0  0
   17.8387   -9.2054  -15.5395 O   0  0  0  0  0  0  0  0  0  0  0  0
   22.7260   -7.6699  -15.2813 C   0  0  0  0  0  0  0  0  0  0  0  0
   23.0728   -7.6095  -14.0820 O   0  0  0  0  0  0  0  0  0  0  0  0
   19.0750  -11.0127  -15.0630 O   0  0  0  0  0  0  0  0  0  0  0  0
   22.3245   -2.6625  -15.3114 C   0  0  0  0  0  0  0  0  0  0  0  0
   22.1275   -3.9729  -16.0327 C   0  0  1  0  0  0  0  0  0  0  0  0
   22.9399   -4.0456  -17.1510 O   0  0  0  0  0  0  0  0  0  0  0  0
   22.4254   -5.1580  -15.1608 C   0  0  2  0  0  0  0  0  0  0  0  0
   22.3517   -6.4168  -15.8736 N   0  0  0  0  0  0  0  0  0  0  0  0
   21.5744   -5.1932  -13.9428 C   0  0  0  0  0  0  0  0  0  0  0  0
   22.0070   -4.5583  -12.7751 O   0  0  0  0  0  0  0  0  0  0  0  0
   20.4753   -5.7750  -13.9248 O   0  0  0  0  0  0  0  0  0  0  0  0
  2  1  1  0
  3  4  1  0
  3  2  1  0
  4  5  1  0
  5  7  1  0
  5  6  1  6
  7  8  2  0
  9  7  1  0
  9 10  1  0
 10 15  1  0
 11 12  1  0
 10 11  1  1
 12 13  1  0
 13 14  2  0
 15 22  1  0
 15 16  2  0
 17 13  1  0
 19 21  1  0
 19 18  1  1
 20 19  1  0
 21 23  1  0
 21 22  1  6
 23 24  1  0
 25 23  2  0
M  END
$$$$
