IPV.pdb
     RDKit          3D

 23 23  0  0  1  0  0  0  0  0999 V2000
   25.6796  -18.4416  -14.0140 C   0  0  0  0  0  0  0  0  0  0  0  0
   26.2029  -19.8259  -13.7697 C   0  0  0  0  0  0  0  0  0  0  0  0
   26.7328  -19.9845  -12.3954 C   0  0  2  0  0  0  0  0  0  0  0  0
   27.8685  -18.9487  -12.2076 C   0  0  0  0  0  0  0  0  0  0  0  0
   27.2895  -21.3538  -12.0518 C   0  0  2  0  0  0  0  0  0  0  0  0
   26.0594  -22.2095  -12.0595 N   0  0  0  0  0  0  0  0  0  0  0  0
   27.7854  -21.4678  -10.6694 C   0  0  0  0  0  0  0  0  0  0  0  0
   26.9417  -21.5495   -9.7130 O   0  0  0  0  0  0  0  0  0  0  0  0
   29.1406  -21.4977  -10.3205 N   0  0  0  0  0  0  0  0  0  0  0  0
   30.2669  -21.3524  -11.2058 C   0  0  0  0  0  0  0  0  0  0  0  0
   31.3903  -22.1537  -10.5617 C   0  0  0  0  0  0  0  0  0  0  0  0
   31.1552  -21.8494   -9.0999 C   0  0  0  0  0  0  0  0  0  0  0  0
   29.6782  -21.6959   -8.9754 C   0  0  1  0  0  0  0  0  0  0  0  0
   29.2629  -20.6091   -8.0641 C   0  0  0  0  0  0  0  0  0  0  0  0
   29.0978  -19.4484   -8.5187 O   0  0  0  0  0  0  0  0  0  0  0  0
   27.0420  -18.9115   -4.1191 C   0  0  0  0  0  0  0  0  0  0  0  0
   27.4037  -19.9166   -5.1643 C   0  0  1  0  0  0  0  0  0  0  0  0
   26.3832  -19.7961   -6.2887 C   0  0  0  0  0  0  0  0  0  0  0  0
   28.7560  -19.7021   -5.7687 C   0  0  2  0  0  0  0  0  0  0  0  0
   29.0338  -20.7948   -6.6822 N   0  0  0  0  0  0  0  0  0  0  0  0
   29.8346  -19.5606   -4.7596 C   0  0  0  0  0  0  0  0  0  0  0  0
   30.4634  -20.7066   -4.2647 O   0  0  0  0  0  0  0  0  0  0  0  0
   30.2202  -18.4622   -4.3192 O   0  0  0  0  0  0  0  0  0  0  0  0
  2  1  1  0
  3  2  1  0
  3  4  1  6
  5  6  1  1
  5  7  1  0
  5  3  1  0
  7  9  1  0
  8  7  2  0
  9 10  1  0
  9 13  1  0
 10 11  1  0
 12 11  1  0
 13 12  1  0
 14 20  1  0
 13 14  1  1
 15 14  2  0
 17 16  1  1
 18 17  1  0
 19 17  1  0
 19 20  1  6
 21 19  1  0
 21 22  1  0
 23 21  2  0
M  END
$$$$
