IPV.pdb
     RDKit          3D

 23 23  0  0  1  0  0  0  0  0999 V2000
   20.9091  -17.3555  -17.1624 C   0  0  0  0  0  0  0  0  0  0  0  0
   21.6032  -18.5778  -17.6858 C   0  0  0  0  0  0  0  0  0  0  0  0
   22.3939  -19.2599  -16.6349 C   0  0  2  0  0  0  0  0  0  0  0  0
   23.3866  -18.2259  -16.0489 C   0  0  0  0  0  0  0  0  0  0  0  0
   23.1923  -20.4696  -17.0843 C   0  0  2  0  0  0  0  0  0  0  0  0
   22.1176  -21.4768  -17.3601 N   0  0  0  0  0  0  0  0  0  0  0  0
   23.9878  -21.0926  -16.0123 C   0  0  0  0  0  0  0  0  0  0  0  0
   23.3819  -21.6710  -15.0471 O   0  0  0  0  0  0  0  0  0  0  0  0
   25.3870  -21.1008  -15.9753 N   0  0  0  0  0  0  0  0  0  0  0  0
   26.2840  -20.6526  -17.0087 C   0  0  0  0  0  0  0  0  0  0  0  0
   27.5405  -21.4969  -16.8442 C   0  0  0  0  0  0  0  0  0  0  0  0
   27.6304  -21.5831  -15.3378 C   0  0  0  0  0  0  0  0  0  0  0  0
   26.2153  -21.5822  -14.8709 C   0  0  1  0  0  0  0  0  0  0  0  0
   25.9891  -20.7909  -13.6435 C   0  0  0  0  0  0  0  0  0  0  0  0
   25.7655  -19.5568  -13.7344 O   0  0  0  0  0  0  0  0  0  0  0  0
   24.8920  -20.3905   -8.8886 C   0  0  0  0  0  0  0  0  0  0  0  0
   25.0154  -21.1417  -10.1746 C   0  0  1  0  0  0  0  0  0  0  0  0
   23.6494  -21.1241  -10.8485 C   0  0  0  0  0  0  0  0  0  0  0  0
   25.9915  -20.5399  -11.1364 C   0  0  2  0  0  0  0  0  0  0  0  0
   26.0085  -21.3447  -12.3437 N   0  0  0  0  0  0  0  0  0  0  0  0
   27.3560  -20.3916  -10.5728 C   0  0  0  0  0  0  0  0  0  0  0  0
   27.6468  -19.2886   -9.7652 O   0  0  0  0  0  0  0  0  0  0  0  0
   28.2743  -21.2059  -10.7799 O   0  0  0  0  0  0  0  0  0  0  0  0
  2  1  1  0
  3  2  1  0
  3  4  1  6
  5  6  1  1
  5  7  1  0
  5  3  1  0
  7  9  1  0
  8  7  2  0
  9 10  1  0
  9 13  1  0
 10 11  1  0
 12 11  1  0
 13 12  1  0
 14 20  1  0
 13 14  1  1
 15 14  2  0
 17 16  1  1
 18 17  1  0
 19 17  1  0
 19 20  1  6
 21 19  1  0
 21 22  1  0
 23 21  2  0
M  END
$$$$
