IPV.pdb
     RDKit          3D

 23 23  0  0  1  0  0  0  0  0999 V2000
   29.8825  -19.4828  -15.4053 C   0  0  0  0  0  0  0  0  0  0  0  0
   28.4127  -19.2876  -15.1786 C   0  0  0  0  0  0  0  0  0  0  0  0
   28.0571  -19.3680  -13.7427 C   0  0  2  0  0  0  0  0  0  0  0  0
   28.4658  -20.7730  -13.2358 C   0  0  0  0  0  0  0  0  0  0  0  0
   26.5914  -19.1603  -13.4085 C   0  0  2  0  0  0  0  0  0  0  0  0
   26.3828  -17.7209  -13.7693 N   0  0  0  0  0  0  0  0  0  0  0  0
   26.2949  -19.2051  -11.9663 C   0  0  0  0  0  0  0  0  0  0  0  0
   26.7958  -18.3113  -11.2025 O   0  0  0  0  0  0  0  0  0  0  0  0
   25.4851  -20.1725  -11.3600 N   0  0  0  0  0  0  0  0  0  0  0  0
   24.8700  -21.3093  -11.9947 C   0  0  0  0  0  0  0  0  0  0  0  0
   23.6016  -21.5779  -11.1961 C   0  0  0  0  0  0  0  0  0  0  0  0
   24.0824  -21.2892   -9.7924 C   0  0  0  0  0  0  0  0  0  0  0  0
   25.0952  -20.2078   -9.9515 C   0  0  1  0  0  0  0  0  0  0  0  0
   26.2726  -20.3544   -9.0703 C   0  0  0  0  0  0  0  0  0  0  0  0
   27.2733  -20.9990   -9.4756 O   0  0  0  0  0  0  0  0  0  0  0  0
   28.8490  -19.1539   -5.0476 C   0  0  0  0  0  0  0  0  0  0  0  0
   27.7828  -18.9228   -6.0691 C   0  0  1  0  0  0  0  0  0  0  0  0
   28.3322  -17.9340   -7.0894 C   0  0  0  0  0  0  0  0  0  0  0  0
   27.3837  -20.1558   -6.8177 C   0  0  2  0  0  0  0  0  0  0  0  0
   26.3479  -19.8040   -7.7711 N   0  0  0  0  0  0  0  0  0  0  0  0
   26.9435  -21.2631   -5.9335 C   0  0  0  0  0  0  0  0  0  0  0  0
   25.6106  -21.6819   -5.9731 O   0  0  0  0  0  0  0  0  0  0  0  0
   27.7042  -21.8521   -5.1439 O   0  0  0  0  0  0  0  0  0  0  0  0
  2  1  1  0
  3  2  1  0
  3  4  1  6
  5  6  1  1
  5  7  1  0
  5  3  1  0
  7  9  1  0
  8  7  2  0
  9 10  1  0
  9 13  1  0
 10 11  1  0
 12 11  1  0
 13 12  1  0
 14 20  1  0
 13 14  1  1
 15 14  2  0
 17 16  1  1
 18 17  1  0
 19 17  1  0
 19 20  1  6
 21 19  1  0
 21 22  1  0
 23 21  2  0
M  END
$$$$
