IPV.pdb
     RDKit          3D

 23 23  0  0  1  0  0  0  0  0999 V2000
   21.7468  -19.0239  -16.1428 C   0  0  0  0  0  0  0  0  0  0  0  0
   23.2072  -19.3210  -16.3124 C   0  0  0  0  0  0  0  0  0  0  0  0
   23.8591  -19.6544  -15.0245 C   0  0  2  0  0  0  0  0  0  0  0  0
   24.6620  -18.4111  -14.5691 C   0  0  0  0  0  0  0  0  0  0  0  0
   24.8073  -20.8390  -15.0469 C   0  0  2  0  0  0  0  0  0  0  0  0
   23.8762  -21.9886  -15.2856 N   0  0  0  0  0  0  0  0  0  0  0  0
   25.4121  -21.1454  -13.7391 C   0  0  0  0  0  0  0  0  0  0  0  0
   24.6814  -21.6546  -12.8225 O   0  0  0  0  0  0  0  0  0  0  0  0
   26.7564  -20.9185  -13.4222 N   0  0  0  0  0  0  0  0  0  0  0  0
   27.7753  -20.3926  -14.2932 C   0  0  0  0  0  0  0  0  0  0  0  0
   29.0799  -21.0043  -13.8008 C   0  0  0  0  0  0  0  0  0  0  0  0
   28.8591  -20.9805  -12.3056 C   0  0  0  0  0  0  0  0  0  0  0  0
   27.3932  -21.1859  -12.1336 C   0  0  1  0  0  0  0  0  0  0  0  0
   26.7952  -20.3683  -11.0575 C   0  0  0  0  0  0  0  0  0  0  0  0
   26.4222  -19.1936  -11.3065 O   0  0  0  0  0  0  0  0  0  0  0  0
   23.8740  -20.9159   -9.0257 C   0  0  0  0  0  0  0  0  0  0  0  0
   24.9435  -20.5838   -8.0361 C   0  0  1  0  0  0  0  0  0  0  0  0
   25.3682  -21.8844   -7.3665 C   0  0  0  0  0  0  0  0  0  0  0  0
   26.1687  -19.9801   -8.6481 C   0  0  2  0  0  0  0  0  0  0  0  0
   26.6114  -20.8326   -9.7357 N   0  0  0  0  0  0  0  0  0  0  0  0
   27.2608  -19.7492   -7.6705 C   0  0  0  0  0  0  0  0  0  0  0  0
   28.3955  -20.5644   -7.7068 O   0  0  0  0  0  0  0  0  0  0  0  0
   27.2262  -18.8565   -6.8039 O   0  0  0  0  0  0  0  0  0  0  0  0
  2  1  1  0
  3  2  1  0
  3  4  1  6
  5  6  1  1
  5  7  1  0
  5  3  1  0
  7  9  1  0
  8  7  2  0
  9 10  1  0
  9 13  1  0
 10 11  1  0
 12 11  1  0
 13 12  1  0
 14 20  1  0
 13 14  1  1
 15 14  2  0
 17 16  1  6
 18 17  1  0
 19 17  1  0
 19 20  1  6
 21 19  1  0
 21 22  1  0
 23 21  2  0
M  END
$$$$
