IPV.pdb
     RDKit          3D

 23 23  0  0  1  0  0  0  0  0999 V2000
   22.4608  -15.4996  -16.8500 C   0  0  0  0  0  0  0  0  0  0  0  0
   23.4048  -16.5504  -17.3546 C   0  0  0  0  0  0  0  0  0  0  0  0
   23.8993  -17.4222  -16.2636 C   0  0  2  0  0  0  0  0  0  0  0  0
   24.6676  -16.5279  -15.2597 C   0  0  0  0  0  0  0  0  0  0  0  0
   24.8222  -18.5517  -16.6824 C   0  0  2  0  0  0  0  0  0  0  0  0
   23.8938  -19.4635  -17.4255 N   0  0  0  0  0  0  0  0  0  0  0  0
   25.3011  -19.3791  -15.5616 C   0  0  0  0  0  0  0  0  0  0  0  0
   24.4672  -20.1193  -14.9372 O   0  0  0  0  0  0  0  0  0  0  0  0
   26.6303  -19.4173  -15.1247 N   0  0  0  0  0  0  0  0  0  0  0  0
   27.7458  -18.6947  -15.6787 C   0  0  0  0  0  0  0  0  0  0  0  0
   28.9641  -19.5671  -15.4078 C   0  0  0  0  0  0  0  0  0  0  0  0
   28.6337  -20.0983  -14.0318 C   0  0  0  0  0  0  0  0  0  0  0  0
   27.1483  -20.2166  -14.0156 C   0  0  1  0  0  0  0  0  0  0  0  0
   26.5292  -19.8227  -12.7328 C   0  0  0  0  0  0  0  0  0  0  0  0
   26.2492  -18.6146  -12.5251 O   0  0  0  0  0  0  0  0  0  0  0  0
   23.8519  -20.7918   -8.7935 C   0  0  0  0  0  0  0  0  0  0  0  0
   24.5392  -21.1876  -10.0602 C   0  0  1  0  0  0  0  0  0  0  0  0
   23.5319  -21.0402  -11.1934 C   0  0  0  0  0  0  0  0  0  0  0  0
   25.7187  -20.3320  -10.4021 C   0  0  2  0  0  0  0  0  0  0  0  0
   26.2246  -20.7379  -11.7002 N   0  0  0  0  0  0  0  0  0  0  0  0
   26.7889  -20.3696   -9.3750 C   0  0  0  0  0  0  0  0  0  0  0  0
   26.7263  -19.4921   -8.2889 O   0  0  0  0  0  0  0  0  0  0  0  0
   27.7571  -21.1503   -9.4236 O   0  0  0  0  0  0  0  0  0  0  0  0
  2  1  1  0
  3  2  1  0
  3  4  1  1
  5  6  1  6
  5  7  1  0
  5  3  1  0
  7  9  1  0
  8  7  2  0
  9 10  1  0
  9 13  1  0
 10 11  1  0
 12 11  1  0
 13 12  1  0
 14 20  1  0
 13 14  1  1
 15 14  2  0
 17 16  1  1
 18 17  1  0
 19 17  1  0
 19 20  1  6
 21 19  1  0
 21 22  1  0
 23 21  2  0
M  END
$$$$
