IPV.pdb
     RDKit          3D

 23 23  0  0  1  0  0  0  0  0999 V2000
   25.9498  -18.2930  -14.2416 C   0  0  0  0  0  0  0  0  0  0  0  0
   26.1881  -19.7307  -13.8867 C   0  0  0  0  0  0  0  0  0  0  0  0
   26.7741  -19.8788  -12.5341 C   0  0  2  0  0  0  0  0  0  0  0  0
   28.1017  -19.0820  -12.5079 C   0  0  0  0  0  0  0  0  0  0  0  0
   27.0743  -21.2991  -12.0919 C   0  0  2  0  0  0  0  0  0  0  0  0
   25.7029  -21.8872  -11.9549 N   0  0  0  0  0  0  0  0  0  0  0  0
   27.6333  -21.3964  -10.7325 C   0  0  0  0  0  0  0  0  0  0  0  0
   26.8443  -21.3131   -9.7305 O   0  0  0  0  0  0  0  0  0  0  0  0
   28.9923  -21.5810  -10.4527 N   0  0  0  0  0  0  0  0  0  0  0  0
   30.0795  -21.5788  -11.3968 C   0  0  0  0  0  0  0  0  0  0  0  0
   31.1343  -22.4989  -10.7971 C   0  0  0  0  0  0  0  0  0  0  0  0
   31.0138  -22.1526   -9.3307 C   0  0  0  0  0  0  0  0  0  0  0  0
   29.5733  -21.8255   -9.1337 C   0  0  1  0  0  0  0  0  0  0  0  0
   29.3361  -20.6873   -8.2214 C   0  0  0  0  0  0  0  0  0  0  0  0
   29.2805  -19.5209   -8.6876 O   0  0  0  0  0  0  0  0  0  0  0  0
   26.8940  -20.4185   -4.9137 C   0  0  0  0  0  0  0  0  0  0  0  0
   27.6315  -19.3788   -5.6937 C   0  0  1  0  0  0  0  0  0  0  0  0
   27.5772  -18.0826   -4.8954 C   0  0  0  0  0  0  0  0  0  0  0  0
   29.0760  -19.7007   -5.9176 C   0  0  2  0  0  0  0  0  0  0  0  0
   29.1637  -20.8288   -6.8261 N   0  0  0  0  0  0  0  0  0  0  0  0
   29.8201  -19.9659   -4.6616 C   0  0  0  0  0  0  0  0  0  0  0  0
   30.2592  -18.8893   -3.8860 O   0  0  0  0  0  0  0  0  0  0  0  0
   30.0816  -21.1109   -4.2497 O   0  0  0  0  0  0  0  0  0  0  0  0
  2  1  1  0
  3  2  1  0
  3  4  1  6
  5  6  1  1
  5  7  1  0
  5  3  1  0
  7  9  1  0
  8  7  2  0
  9 10  1  0
  9 13  1  0
 10 11  1  0
 12 11  1  0
 13 12  1  0
 14 20  1  0
 13 14  1  1
 15 14  2  0
 17 16  1  1
 18 17  1  0
 19 17  1  0
 19 20  1  6
 21 19  1  0
 21 22  1  0
 23 21  2  0
M  END
$$$$
