IPV.pdb
     RDKit          3D

 23 23  0  0  1  0  0  0  0  0999 V2000
   24.8574  -17.5808  -14.8792 C   0  0  0  0  0  0  0  0  0  0  0  0
   25.3684  -18.9892  -14.8074 C   0  0  0  0  0  0  0  0  0  0  0  0
   25.8635  -19.3317  -13.4538 C   0  0  2  0  0  0  0  0  0  0  0  0
   27.0717  -18.4124  -13.1493 C   0  0  0  0  0  0  0  0  0  0  0  0
   26.3090  -20.7685  -13.2532 C   0  0  2  0  0  0  0  0  0  0  0  0
   25.0147  -21.5188  -13.3391 N   0  0  0  0  0  0  0  0  0  0  0  0
   26.7918  -21.0601  -11.8924 C   0  0  0  0  0  0  0  0  0  0  0  0
   25.9392  -21.2423  -10.9580 O   0  0  0  0  0  0  0  0  0  0  0  0
   28.1434  -21.1581  -11.5421 N   0  0  0  0  0  0  0  0  0  0  0  0
   29.2787  -20.8568  -12.3751 C   0  0  0  0  0  0  0  0  0  0  0  0
   30.3943  -21.7663  -11.8783 C   0  0  0  0  0  0  0  0  0  0  0  0
   30.1453  -21.7343  -10.3877 C   0  0  0  0  0  0  0  0  0  0  0  0
   28.6674  -21.6012  -10.2512 C   0  0  1  0  0  0  0  0  0  0  0  0
   28.2448  -20.6985   -9.1600 C   0  0  0  0  0  0  0  0  0  0  0  0
   27.9043  -19.5183   -9.4291 O   0  0  0  0  0  0  0  0  0  0  0  0
   26.6207  -19.8702   -4.6188 C   0  0  0  0  0  0  0  0  0  0  0  0
   26.9354  -20.7325   -5.7982 C   0  0  1  0  0  0  0  0  0  0  0  0
   25.6522  -20.8944   -6.6029 C   0  0  0  0  0  0  0  0  0  0  0  0
   27.9637  -20.1506   -6.7168 C   0  0  2  0  0  0  0  0  0  0  0  0
   28.1977  -21.0853   -7.8018 N   0  0  0  0  0  0  0  0  0  0  0  0
   29.2316  -19.7982   -6.0312 C   0  0  0  0  0  0  0  0  0  0  0  0
   29.4174  -18.4941   -5.5640 O   0  0  0  0  0  0  0  0  0  0  0  0
   30.1567  -20.6094   -5.8438 O   0  0  0  0  0  0  0  0  0  0  0  0
  2  1  1  0
  3  2  1  0
  3  4  1  6
  5  6  1  1
  5  7  1  0
  5  3  1  0
  7  9  1  0
  8  7  2  0
  9 10  1  0
  9 13  1  0
 10 11  1  0
 12 11  1  0
 13 12  1  0
 14 20  1  0
 13 14  1  1
 15 14  2  0
 17 16  1  1
 18 17  1  0
 19 17  1  0
 19 20  1  6
 21 19  1  0
 21 22  1  0
 23 21  2  0
M  END
$$$$
