IPV.pdb
     RDKit          3D

 23 23  0  0  1  0  0  0  0  0999 V2000
   24.1779  -16.6674  -15.7449 C   0  0  0  0  0  0  0  0  0  0  0  0
   24.9311  -17.9518  -15.9264 C   0  0  0  0  0  0  0  0  0  0  0  0
   25.2809  -18.5780  -14.6302 C   0  0  2  0  0  0  0  0  0  0  0  0
   26.2683  -17.6322  -13.9032 C   0  0  0  0  0  0  0  0  0  0  0  0
   25.9223  -19.9512  -14.7073 C   0  0  2  0  0  0  0  0  0  0  0  0
   24.7977  -20.8004  -15.2167 N   0  0  0  0  0  0  0  0  0  0  0  0
   26.2362  -20.5389  -13.3935 C   0  0  0  0  0  0  0  0  0  0  0  0
   25.2832  -20.9974  -12.6760 O   0  0  0  0  0  0  0  0  0  0  0  0
   27.5286  -20.6374  -12.8651 N   0  0  0  0  0  0  0  0  0  0  0  0
   28.7572  -20.2355  -13.4994 C   0  0  0  0  0  0  0  0  0  0  0  0
   29.8246  -21.1607  -12.9306 C   0  0  0  0  0  0  0  0  0  0  0  0
   29.3696  -21.2706  -11.4933 C   0  0  0  0  0  0  0  0  0  0  0  0
   27.8833  -21.1844  -11.5565 C   0  0  1  0  0  0  0  0  0  0  0  0
   27.2813  -20.3949  -10.4618 C   0  0  0  0  0  0  0  0  0  0  0  0
   27.0794  -19.1644  -10.6238 O   0  0  0  0  0  0  0  0  0  0  0  0
   25.0473  -20.1683   -6.0496 C   0  0  0  0  0  0  0  0  0  0  0  0
   25.4991  -20.8840   -7.2814 C   0  0  1  0  0  0  0  0  0  0  0  0
   24.2830  -21.0585   -8.1820 C   0  0  0  0  0  0  0  0  0  0  0  0
   26.5311  -20.1402   -8.0700 C   0  0  2  0  0  0  0  0  0  0  0  0
   26.9091  -20.9468   -9.2154 N   0  0  0  0  0  0  0  0  0  0  0  0
   27.7200  -19.7583   -7.2686 C   0  0  0  0  0  0  0  0  0  0  0  0
   27.7174  -18.5442   -6.5761 O   0  0  0  0  0  0  0  0  0  0  0  0
   28.7385  -20.4675   -7.1743 O   0  0  0  0  0  0  0  0  0  0  0  0
  2  1  1  0
  3  2  1  0
  3  4  1  6
  5  6  1  1
  5  7  1  0
  5  3  1  0
  7  9  1  0
  8  7  2  0
  9 10  1  0
  9 13  1  0
 10 11  1  0
 12 11  1  0
 13 12  1  0
 14 20  1  0
 13 14  1  1
 15 14  2  0
 17 16  1  1
 18 17  1  0
 19 17  1  0
 19 20  1  6
 21 19  1  0
 21 22  1  0
 23 21  2  0
M  END
$$$$
