IPV.pdb
     RDKit          3D

 23 23  0  0  1  0  0  0  0  0999 V2000
   24.2116  -15.7981  -17.1869 C   0  0  0  0  0  0  0  0  0  0  0  0
   25.5028  -16.5583  -17.1191 C   0  0  0  0  0  0  0  0  0  0  0  0
   25.6267  -17.3308  -15.8611 C   0  0  2  0  0  0  0  0  0  0  0  0
   26.7161  -16.6493  -14.9970 C   0  0  0  0  0  0  0  0  0  0  0  0
   26.0006  -18.7936  -16.0137 C   0  0  2  0  0  0  0  0  0  0  0  0
   24.7947  -19.3615  -16.6983 N   0  0  0  0  0  0  0  0  0  0  0  0
   26.0590  -19.5317  -14.7402 C   0  0  0  0  0  0  0  0  0  0  0  0
   24.9685  -19.8090  -14.1341 O   0  0  0  0  0  0  0  0  0  0  0  0
   27.2452  -19.9636  -14.1357 N   0  0  0  0  0  0  0  0  0  0  0  0
   28.5893  -19.7131  -14.5875 C   0  0  0  0  0  0  0  0  0  0  0  0
   29.4034  -20.9075  -14.1086 C   0  0  0  0  0  0  0  0  0  0  0  0
   28.7774  -21.1545  -12.7551 C   0  0  0  0  0  0  0  0  0  0  0  0
   27.3470  -20.7710  -12.9211 C   0  0  1  0  0  0  0  0  0  0  0  0
   26.7764  -20.0643  -11.7554 C   0  0  0  0  0  0  0  0  0  0  0  0
   26.8435  -18.8101  -11.6974 O   0  0  0  0  0  0  0  0  0  0  0  0
   23.3568  -20.3068  -10.4188 C   0  0  0  0  0  0  0  0  0  0  0  0
   24.2552  -20.4468   -9.2327 C   0  0  1  0  0  0  0  0  0  0  0  0
   24.2807  -21.9206   -8.8485 C   0  0  0  0  0  0  0  0  0  0  0  0
   25.6698  -20.0322   -9.4920 C   0  0  2  0  0  0  0  0  0  0  0  0
   26.1453  -20.7229  -10.6762 N   0  0  0  0  0  0  0  0  0  0  0  0
   26.5716  -20.2667   -8.3373 C   0  0  0  0  0  0  0  0  0  0  0  0
   26.5315  -19.3910   -7.2487 O   0  0  0  0  0  0  0  0  0  0  0  0
   27.3766  -21.2142   -8.2790 O   0  0  0  0  0  0  0  0  0  0  0  0
  2  1  1  0
  3  2  1  0
  3  4  1  1
  5  6  1  6
  5  7  1  0
  5  3  1  0
  7  9  1  0
  8  7  2  0
  9 10  1  0
  9 13  1  0
 10 11  1  0
 12 11  1  0
 13 12  1  0
 14 20  1  0
 13 14  1  1
 15 14  2  0
 17 16  1  6
 18 17  1  0
 19 17  1  0
 19 20  1  6
 21 19  1  0
 21 22  1  0
 23 21  2  0
M  END
$$$$
