IPV.pdb
     RDKit          3D

 23 23  0  0  1  0  0  0  0  0999 V2000
   23.7104  -18.7583  -14.4237 C   0  0  0  0  0  0  0  0  0  0  0  0
   24.5015  -20.0209  -14.2512 C   0  0  0  0  0  0  0  0  0  0  0  0
   25.1937  -20.0677  -12.9422 C   0  0  2  0  0  0  0  0  0  0  0  0
   26.1778  -18.8733  -12.8887 C   0  0  0  0  0  0  0  0  0  0  0  0
   25.9800  -21.3326  -12.6512 C   0  0  2  0  0  0  0  0  0  0  0  0
   24.9012  -22.3705  -12.5843 N   0  0  0  0  0  0  0  0  0  0  0  0
   26.5812  -21.3668  -11.3069 C   0  0  0  0  0  0  0  0  0  0  0  0
   25.8232  -21.5430  -10.2932 O   0  0  0  0  0  0  0  0  0  0  0  0
   27.9502  -21.2214  -11.0542 N   0  0  0  0  0  0  0  0  0  0  0  0
   28.9775  -20.8922  -12.0081 C   0  0  0  0  0  0  0  0  0  0  0  0
   30.2436  -21.5523  -11.4790 C   0  0  0  0  0  0  0  0  0  0  0  0
   30.0792  -21.3331   -9.9925 C   0  0  0  0  0  0  0  0  0  0  0  0
   28.6084  -21.3891   -9.7596 C   0  0  1  0  0  0  0  0  0  0  0  0
   28.1192  -20.4015   -8.7749 C   0  0  0  0  0  0  0  0  0  0  0  0
   27.6452  -19.3084   -9.1769 O   0  0  0  0  0  0  0  0  0  0  0  0
   25.6946  -20.7902   -5.9814 C   0  0  0  0  0  0  0  0  0  0  0  0
   26.9009  -20.1334   -5.3925 C   0  0  1  0  0  0  0  0  0  0  0  0
   27.6626  -21.1935   -4.6073 C   0  0  0  0  0  0  0  0  0  0  0  0
   27.8440  -19.5739   -6.4111 C   0  0  2  0  0  0  0  0  0  0  0  0
   28.1505  -20.6116   -7.3780 N   0  0  0  0  0  0  0  0  0  0  0  0
   29.0827  -19.0118   -5.8184 C   0  0  0  0  0  0  0  0  0  0  0  0
   29.0339  -17.7683   -5.1822 O   0  0  0  0  0  0  0  0  0  0  0  0
   30.1832  -19.5921   -5.8546 O   0  0  0  0  0  0  0  0  0  0  0  0
  2  1  1  0
  3  2  1  0
  3  4  1  6
  5  6  1  1
  5  7  1  0
  5  3  1  0
  7  9  1  0
  8  7  2  0
  9 10  1  0
  9 13  1  0
 10 11  1  0
 12 11  1  0
 13 12  1  0
 14 20  1  0
 13 14  1  1
 15 14  2  0
 17 16  1  6
 18 17  1  0
 19 17  1  0
 19 20  1  6
 21 19  1  0
 21 22  1  0
 23 21  2  0
M  END
$$$$
