IPV.pdb
     RDKit          3D

 23 23  0  0  1  0  0  0  0  0999 V2000
   23.1336  -18.8287  -13.4014 C   0  0  0  0  0  0  0  0  0  0  0  0
   24.0998  -19.9651  -13.5594 C   0  0  0  0  0  0  0  0  0  0  0  0
   24.8787  -20.2074  -12.3226 C   0  0  2  0  0  0  0  0  0  0  0  0
   25.6691  -18.9143  -12.0048 C   0  0  0  0  0  0  0  0  0  0  0  0
   25.8677  -21.3572  -12.3749 C   0  0  2  0  0  0  0  0  0  0  0  0
   24.9659  -22.5492  -12.4816 N   0  0  0  0  0  0  0  0  0  0  0  0
   26.5926  -21.5799  -11.1120 C   0  0  0  0  0  0  0  0  0  0  0  0
   25.9539  -22.0342  -10.1025 O   0  0  0  0  0  0  0  0  0  0  0  0
   27.9582  -21.3289  -10.9348 N   0  0  0  0  0  0  0  0  0  0  0  0
   28.8950  -20.8867  -11.9349 C   0  0  0  0  0  0  0  0  0  0  0  0
   30.2405  -21.4549  -11.5044 C   0  0  0  0  0  0  0  0  0  0  0  0
   30.1501  -21.2955  -10.0040 C   0  0  0  0  0  0  0  0  0  0  0  0
   28.7057  -21.4806   -9.6876 C   0  0  1  0  0  0  0  0  0  0  0  0
   28.1991  -20.5675   -8.6418 C   0  0  0  0  0  0  0  0  0  0  0  0
   27.6039  -19.5116   -8.9764 O   0  0  0  0  0  0  0  0  0  0  0  0
   27.5038  -19.5918   -3.8081 C   0  0  0  0  0  0  0  0  0  0  0  0
   27.7315  -20.5141   -4.9618 C   0  0  1  0  0  0  0  0  0  0  0  0
   26.4391  -21.2867   -5.1928 C   0  0  0  0  0  0  0  0  0  0  0  0
   28.0630  -19.8127   -6.2417 C   0  0  2  0  0  0  0  0  0  0  0  0
   28.3439  -20.8104   -7.2573 N   0  0  0  0  0  0  0  0  0  0  0  0
   29.1856  -18.8514   -6.1109 C   0  0  0  0  0  0  0  0  0  0  0  0
   30.4975  -19.3321   -6.0726 O   0  0  0  0  0  0  0  0  0  0  0  0
   29.0261  -17.6195   -6.0316 O   0  0  0  0  0  0  0  0  0  0  0  0
  2  1  1  0
  3  2  1  0
  3  4  1  6
  5  6  1  1
  5  7  1  0
  5  3  1  0
  7  9  1  0
  8  7  2  0
  9 10  1  0
  9 13  1  0
 10 11  1  0
 12 11  1  0
 13 12  1  0
 14 20  1  0
 13 14  1  1
 15 14  2  0
 17 16  1  1
 18 17  1  0
 19 17  1  0
 19 20  1  6
 21 19  1  0
 21 22  1  0
 23 21  2  0
M  END
$$$$
