IPV.pdb
     RDKit          3D

 23 23  0  0  1  0  0  0  0  0999 V2000
   20.3375  -12.4226  -21.1087 C   0  0  0  0  0  0  0  0  0  0  0  0
   21.2930  -12.2424  -19.9667 C   0  0  0  0  0  0  0  0  0  0  0  0
   20.7339  -11.3703  -18.9076 C   0  0  2  0  0  0  0  0  0  0  0  0
   20.4951   -9.9720  -19.5285 C   0  0  0  0  0  0  0  0  0  0  0  0
   21.5956  -11.1903  -17.6715 C   0  0  2  0  0  0  0  0  0  0  0  0
   21.5812  -12.5627  -17.0699 N   0  0  0  0  0  0  0  0  0  0  0  0
   20.9809  -10.3469  -16.6319 C   0  0  0  0  0  0  0  0  0  0  0  0
   19.8479  -10.6867  -16.1481 O   0  0  0  0  0  0  0  0  0  0  0  0
   21.5609   -9.1794  -16.1224 N   0  0  0  0  0  0  0  0  0  0  0  0
   22.8580   -8.6438  -16.4452 C   0  0  0  0  0  0  0  0  0  0  0  0
   23.3045   -7.8930  -15.1980 C   0  0  0  0  0  0  0  0  0  0  0  0
   21.9964   -7.2828  -14.7493 C   0  0  0  0  0  0  0  0  0  0  0  0
   20.9576   -8.2754  -15.1446 C   0  0  1  0  0  0  0  0  0  0  0  0
   19.7158   -7.6680  -15.6672 C   0  0  0  0  0  0  0  0  0  0  0  0
   19.5833   -7.4974  -16.9059 O   0  0  0  0  0  0  0  0  0  0  0  0
   15.0172   -6.4853  -15.4425 C   0  0  0  0  0  0  0  0  0  0  0  0
   16.2538   -7.1953  -14.9950 C   0  0  1  0  0  0  0  0  0  0  0  0
   16.2945   -8.5398  -15.7100 C   0  0  0  0  0  0  0  0  0  0  0  0
   17.5217   -6.4753  -15.3331 C   0  0  2  0  0  0  0  0  0  0  0  0
   18.6425   -7.2570  -14.8451 N   0  0  0  0  0  0  0  0  0  0  0  0
   17.5674   -5.0883  -14.8080 C   0  0  0  0  0  0  0  0  0  0  0  0
   17.4225   -4.0163  -15.6930 O   0  0  0  0  0  0  0  0  0  0  0  0
   17.7301   -4.8173  -13.6042 O   0  0  0  0  0  0  0  0  0  0  0  0
  2  1  1  0
  3  2  1  0
  3  4  1  6
  5  6  1  1
  5  7  1  0
  5  3  1  0
  7  9  1  0
  8  7  2  0
  9 10  1  0
  9 13  1  0
 10 11  1  0
 12 11  1  0
 13 12  1  0
 14 20  1  0
 13 14  1  6
 15 14  2  0
 17 16  1  6
 18 17  1  0
 19 17  1  0
 19 20  1  1
 21 19  1  0
 21 22  1  0
 23 21  2  0
M  END
$$$$
