MNV.pdb
     RDKit          3D

 24 23  0  0  1  0  0  0  0  0999 V2000
   10.9530  -12.8041   -9.9281 C   0  0  0  0  0  0  0  0  0  0  0  0
   10.6492  -12.6153  -11.6732 S   0  0  0  0  0  0  0  0  0  0  0  0
   12.1428  -12.8446  -12.6373 C   0  0  0  0  0  0  0  0  0  0  0  0
   13.2755  -12.0186  -12.1568 C   0  0  0  0  0  0  0  0  0  0  0  0
   14.5748  -12.1517  -12.8546 C   0  0  2  0  0  0  0  0  0  0  0  0
   15.2197  -13.4367  -12.6255 N   0  0  0  0  0  0  0  0  0  0  0  0
   15.4752  -11.0796  -12.2823 C   0  0  0  0  0  0  0  0  0  0  0  0
   15.8836  -11.1817  -11.0977 O   0  0  0  0  0  0  0  0  0  0  0  0
   18.2823   -7.0764  -11.3415 N   0  0  0  0  0  0  0  0  0  0  0  0
   18.3685   -7.2169  -12.7680 C   0  0  0  0  0  0  0  0  0  0  0  0
   19.1632   -6.5251  -13.4453 O   0  0  0  0  0  0  0  0  0  0  0  0
   17.4855   -8.2091  -13.4218 C   0  0  0  0  0  0  0  0  0  0  0  0
   16.6396   -8.9073  -12.3897 C   0  0  2  0  0  0  0  0  0  0  0  0
   15.8778   -9.9579  -13.0353 N   0  0  0  0  0  0  0  0  0  0  0  0
   15.7041   -7.9144  -11.7365 C   0  0  0  0  0  0  0  0  0  0  0  0
   14.7145   -7.6217  -12.4206 O   0  0  0  0  0  0  0  0  0  0  0  0
   14.7554   -8.1803   -7.8099 C   0  0  0  0  0  0  0  0  0  0  0  0
   15.2752   -6.8125   -8.1625 C   0  0  2  0  0  0  0  0  0  0  0  0
   14.5138   -5.7753   -7.3653 C   0  0  0  0  0  0  0  0  0  0  0  0
   15.2196   -6.4996   -9.6518 C   0  0  2  0  0  0  0  0  0  0  0  0
   15.9931   -7.4118  -10.4691 N   0  0  0  0  0  0  0  0  0  0  0  0
   15.7776   -5.1689   -9.9300 C   0  0  0  0  0  0  0  0  0  0  0  0
   16.9925   -5.0588  -10.2233 O   0  0  0  0  0  0  0  0  0  0  0  0
   15.0131   -4.0251   -9.8816 O   0  0  0  0  0  0  0  0  0  0  0  0
  1  2  1  0
  3  2  1  0
  4  3  1  0
  5  4  1  0
  5  6  1  1
  7  5  1  0
  8  7  2  0
  9 10  1  0
 10 12  1  0
 11 10  2  0
 13 12  1  6
 13 14  1  0
 14  7  1  0
 15 21  1  0
 15 13  1  0
 16 15  2  0
 18 17  1  6
 18 20  1  0
 19 18  1  0
 20 22  1  0
 20 21  1  6
 22 24  1  0
 23 22  2  0
M  END
$$$$
