MNV.pdb
     RDKit          3D

 24 23  0  0  1  0  0  0  0  0999 V2000
   28.3927  -22.8318  -15.6188 C   0  0  0  0  0  0  0  0  0  0  0  0
   28.7861  -22.7529  -17.3543 S   0  0  0  0  0  0  0  0  0  0  0  0
   29.4691  -21.1594  -17.8101 C   0  0  0  0  0  0  0  0  0  0  0  0
   28.7446  -20.0213  -17.1969 C   0  0  0  0  0  0  0  0  0  0  0  0
   27.5866  -19.4614  -17.9306 C   0  0  2  0  0  0  0  0  0  0  0  0
   27.9079  -18.2489  -18.6697 N   0  0  0  0  0  0  0  0  0  0  0  0
   26.5563  -19.0997  -16.8842 C   0  0  0  0  0  0  0  0  0  0  0  0
   26.7183  -18.0658  -16.1874 O   0  0  0  0  0  0  0  0  0  0  0  0
   23.2018  -17.7695  -18.3710 N   0  0  0  0  0  0  0  0  0  0  0  0
   23.3826  -17.7799  -16.9464 C   0  0  0  0  0  0  0  0  0  0  0  0
   23.6949  -16.7409  -16.3204 O   0  0  0  0  0  0  0  0  0  0  0  0
   23.1884  -19.0618  -16.2321 C   0  0  0  0  0  0  0  0  0  0  0  0
   24.4847  -19.5071  -15.6079 C   0  0  2  0  0  0  0  0  0  0  0  0
   25.4088  -19.8867  -16.6580 N   0  0  0  0  0  0  0  0  0  0  0  0
   24.2342  -20.6810  -14.6878 C   0  0  0  0  0  0  0  0  0  0  0  0
   23.8643  -21.7112  -15.2664 O   0  0  0  0  0  0  0  0  0  0  0  0
   24.5984  -19.9135  -10.3353 C   0  0  0  0  0  0  0  0  0  0  0  0
   24.9717  -21.2204  -10.9819 C   0  0  2  0  0  0  0  0  0  0  0  0
   26.4637  -21.2360  -11.2363 C   0  0  0  0  0  0  0  0  0  0  0  0
   24.2005  -21.5146  -12.2616 C   0  0  2  0  0  0  0  0  0  0  0  0
   24.4236  -20.5444  -13.3137 N   0  0  0  0  0  0  0  0  0  0  0  0
   22.7513  -21.4900  -12.0188 C   0  0  0  0  0  0  0  0  0  0  0  0
   22.1209  -20.4144  -12.1591 O   0  0  0  0  0  0  0  0  0  0  0  0
   22.0492  -22.6118  -11.6395 O   0  0  0  0  0  0  0  0  0  0  0  0
  1  2  1  0
  3  2  1  0
  4  3  1  0
  5  4  1  0
  5  6  1  1
  7  5  1  0
  8  7  2  0
  9 10  1  0
 10 12  1  0
 11 10  2  0
 13 12  1  6
 13 14  1  0
 14  7  1  0
 15 21  1  0
 15 13  1  0
 16 15  2  0
 18 17  1  6
 18 20  1  0
 19 18  1  0
 20 22  1  0
 20 21  1  6
 22 24  1  0
 23 22  2  0
M  END
$$$$
