MNV.pdb
     RDKit          3D

 24 23  0  0  1  0  0  0  0  0999 V2000
   22.1990  -31.8812  -14.4510 C   0  0  0  0  0  0  0  0  0  0  0  0
   21.6494  -31.9180  -16.1450 S   0  0  0  0  0  0  0  0  0  0  0  0
   22.1253  -30.4344  -17.0314 C   0  0  0  0  0  0  0  0  0  0  0  0
   21.7205  -29.1893  -16.3371 C   0  0  0  0  0  0  0  0  0  0  0  0
   22.1274  -27.8981  -16.9371 C   0  0  2  0  0  0  0  0  0  0  0  0
   23.5702  -27.7042  -16.9565 N   0  0  0  0  0  0  0  0  0  0  0  0
   21.5324  -26.8177  -16.0618 C   0  0  0  0  0  0  0  0  0  0  0  0
   20.5087  -27.0698  -15.3770 O   0  0  0  0  0  0  0  0  0  0  0  0
   24.8879  -24.5022  -14.1222 N   0  0  0  0  0  0  0  0  0  0  0  0
   23.5181  -24.3967  -13.7042 C   0  0  0  0  0  0  0  0  0  0  0  0
   23.1173  -24.9246  -12.6414 O   0  0  0  0  0  0  0  0  0  0  0  0
   22.5849  -23.6413  -14.5702 C   0  0  0  0  0  0  0  0  0  0  0  0
   21.5015  -24.5537  -15.0820 C   0  0  2  0  0  0  0  0  0  0  0  0
   22.0884  -25.5246  -15.9842 N   0  0  0  0  0  0  0  0  0  0  0  0
   20.4482  -23.7441  -15.8048 C   0  0  0  0  0  0  0  0  0  0  0  0
   20.8508  -23.1909  -16.8366 O   0  0  0  0  0  0  0  0  0  0  0  0
   16.3153  -24.6517  -14.9628 C   0  0  0  0  0  0  0  0  0  0  0  0
   16.8232  -23.8752  -16.1479 C   0  0  2  0  0  0  0  0  0  0  0  0
   17.1740  -24.8430  -17.2576 C   0  0  0  0  0  0  0  0  0  0  0  0
   18.0030  -22.9674  -15.8274 C   0  0  2  0  0  0  0  0  0  0  0  0
   19.1527  -23.6702  -15.2959 N   0  0  0  0  0  0  0  0  0  0  0  0
   17.6442  -21.9847  -14.7954 C   0  0  0  0  0  0  0  0  0  0  0  0
   16.8981  -21.0212  -15.0942 O   0  0  0  0  0  0  0  0  0  0  0  0
   18.0982  -22.0790  -13.4992 O   0  0  0  0  0  0  0  0  0  0  0  0
  1  2  1  0
  3  2  1  0
  4  3  1  0
  5  4  1  0
  5  6  1  1
  7  5  1  0
  8  7  2  0
  9 10  1  0
 10 12  1  0
 11 10  2  0
 13 12  1  6
 13 14  1  0
 14  7  1  0
 15 21  1  0
 15 13  1  0
 16 15  2  0
 18 17  1  1
 18 20  1  0
 19 18  1  0
 20 22  1  0
 20 21  1  1
 22 24  1  0
 23 22  2  0
M  END
$$$$
