MNV.pdb
     RDKit          3D

 24 23  0  0  1  0  0  0  0  0999 V2000
   29.5805  -19.0365  -11.8454 C   0  0  0  0  0  0  0  0  0  0  0  0
   29.7302  -20.7927  -11.5873 S   0  0  0  0  0  0  0  0  0  0  0  0
   28.4708  -21.7059  -12.4779 C   0  0  0  0  0  0  0  0  0  0  0  0
   27.1269  -21.0895  -12.3764 C   0  0  0  0  0  0  0  0  0  0  0  0
   26.0054  -21.7534  -13.0795 C   0  0  2  0  0  0  0  0  0  0  0  0
   26.1668  -21.7727  -14.5263 N   0  0  0  0  0  0  0  0  0  0  0  0
   24.7689  -20.9401  -12.7680 C   0  0  0  0  0  0  0  0  0  0  0  0
   24.8919  -19.7508  -12.3797 O   0  0  0  0  0  0  0  0  0  0  0  0
   21.5364  -17.5424  -14.3843 N   0  0  0  0  0  0  0  0  0  0  0  0
   21.5397  -18.9213  -14.7853 C   0  0  0  0  0  0  0  0  0  0  0  0
   20.5931  -19.4124  -15.4422 O   0  0  0  0  0  0  0  0  0  0  0  0
   22.7013  -19.7533  -14.3982 C   0  0  0  0  0  0  0  0  0  0  0  0
   22.3642  -20.5785  -13.1842 C   0  0  2  0  0  0  0  0  0  0  0  0
   23.4696  -21.4713  -12.8979 N   0  0  0  0  0  0  0  0  0  0  0  0
   21.1053  -21.3766  -13.4401 C   0  0  0  0  0  0  0  0  0  0  0  0
   21.2223  -22.2449  -14.3148 O   0  0  0  0  0  0  0  0  0  0  0  0
   17.4429  -20.0553  -11.3843 C   0  0  0  0  0  0  0  0  0  0  0  0
   17.8205  -21.5088  -11.4857 C   0  0  2  0  0  0  0  0  0  0  0  0
   18.4954  -21.9336  -10.1992 C   0  0  0  0  0  0  0  0  0  0  0  0
   18.6948  -21.8335  -12.6894 C   0  0  2  0  0  0  0  0  0  0  0  0
   19.9462  -21.1044  -12.7155 N   0  0  0  0  0  0  0  0  0  0  0  0
   18.0167  -21.4754  -13.9430 C   0  0  0  0  0  0  0  0  0  0  0  0
   18.2674  -20.3727  -14.4864 O   0  0  0  0  0  0  0  0  0  0  0  0
   17.1071  -22.3100  -14.5525 O   0  0  0  0  0  0  0  0  0  0  0  0
  1  2  1  0
  3  2  1  0
  4  3  1  0
  5  4  1  0
  5  6  1  6
  7  5  1  0
  8  7  2  0
  9 10  1  0
 10 12  1  0
 11 10  2  0
 13 12  1  6
 13 14  1  0
 14  7  1  0
 15 21  1  0
 15 13  1  0
 16 15  2  0
 18 17  1  1
 18 20  1  0
 19 18  1  0
 20 22  1  0
 20 21  1  1
 22 24  1  0
 23 22  2  0
M  END
$$$$
