MNV.pdb
     RDKit          3D

 24 23  0  0  1  0  0  0  0  0999 V2000
   30.1985  -20.4256  -12.6987 C   0  0  0  0  0  0  0  0  0  0  0  0
   29.8790  -21.7518  -13.8444 S   0  0  0  0  0  0  0  0  0  0  0  0
   29.1771  -21.1499  -15.3800 C   0  0  0  0  0  0  0  0  0  0  0  0
   28.2873  -19.9799  -15.1914 C   0  0  0  0  0  0  0  0  0  0  0  0
   27.6235  -19.4145  -16.3883 C   0  0  2  0  0  0  0  0  0  0  0  0
   28.2252  -18.1691  -16.8431 N   0  0  0  0  0  0  0  0  0  0  0  0
   26.1990  -19.1120  -15.9799 C   0  0  0  0  0  0  0  0  0  0  0  0
   25.8208  -17.9162  -15.8927 O   0  0  0  0  0  0  0  0  0  0  0  0
   21.0898  -18.2087  -15.8016 N   0  0  0  0  0  0  0  0  0  0  0  0
   21.6016  -19.5435  -15.6650 C   0  0  0  0  0  0  0  0  0  0  0  0
   20.9411  -20.4405  -15.0923 O   0  0  0  0  0  0  0  0  0  0  0  0
   22.9416  -19.8329  -16.2236 C   0  0  0  0  0  0  0  0  0  0  0  0
   23.9791  -19.7764  -15.1333 C   0  0  2  0  0  0  0  0  0  0  0  0
   25.2694  -20.1313  -15.6901 N   0  0  0  0  0  0  0  0  0  0  0  0
   23.6106  -20.7367  -14.0244 C   0  0  0  0  0  0  0  0  0  0  0  0
   23.3833  -21.8921  -14.4066 O   0  0  0  0  0  0  0  0  0  0  0  0
   23.7365  -21.3127   -9.0209 C   0  0  0  0  0  0  0  0  0  0  0  0
   23.9207  -20.4638  -10.2501 C   0  0  2  0  0  0  0  0  0  0  0  0
   23.3991  -19.0708   -9.9697 C   0  0  0  0  0  0  0  0  0  0  0  0
   23.2722  -21.0440  -11.4998 C   0  0  2  0  0  0  0  0  0  0  0  0
   23.5508  -20.2907  -12.7053 N   0  0  0  0  0  0  0  0  0  0  0  0
   21.8077  -21.0456  -11.3790 C   0  0  0  0  0  0  0  0  0  0  0  0
   21.1605  -20.0233  -11.7109 O   0  0  0  0  0  0  0  0  0  0  0  0
   21.1087  -22.1355  -10.9113 O   0  0  0  0  0  0  0  0  0  0  0  0
  1  2  1  0
  3  2  1  0
  4  3  1  0
  5  4  1  0
  5  6  1  1
  7  5  1  0
  8  7  2  0
  9 10  1  0
 10 12  1  0
 11 10  2  0
 13 12  1  6
 13 14  1  0
 14  7  1  0
 15 21  1  0
 15 13  1  0
 16 15  2  0
 18 17  1  1
 18 20  1  0
 19 18  1  0
 20 22  1  0
 20 21  1  6
 22 24  1  0
 23 22  2  0
M  END
$$$$
