MNV.pdb
     RDKit          3D

 24 23  0  0  1  0  0  0  0  0999 V2000
   29.8158  -17.0703  -19.3821 C   0  0  0  0  0  0  0  0  0  0  0  0
   28.5308  -16.3577  -18.3750 S   0  0  0  0  0  0  0  0  0  0  0  0
   28.0088  -17.4745  -17.0737 C   0  0  0  0  0  0  0  0  0  0  0  0
   28.2848  -18.8968  -17.3851 C   0  0  0  0  0  0  0  0  0  0  0  0
   27.8841  -19.9148  -16.3871 C   0  0  2  0  0  0  0  0  0  0  0  0
   28.2510  -21.2702  -16.7714 N   0  0  0  0  0  0  0  0  0  0  0  0
   26.3751  -19.8556  -16.3036 C   0  0  0  0  0  0  0  0  0  0  0  0
   25.8221  -18.8445  -15.8013 O   0  0  0  0  0  0  0  0  0  0  0  0
   24.3471  -19.2049  -18.8548 N   0  0  0  0  0  0  0  0  0  0  0  0
   23.7098  -20.4701  -19.0895 C   0  0  0  0  0  0  0  0  0  0  0  0
   23.3420  -20.8130  -20.2367 O   0  0  0  0  0  0  0  0  0  0  0  0
   23.4974  -21.3653  -17.9299 C   0  0  0  0  0  0  0  0  0  0  0  0
   24.1157  -20.7659  -16.6943 C   0  0  2  0  0  0  0  0  0  0  0  0
   25.5564  -20.9030  -16.7728 N   0  0  0  0  0  0  0  0  0  0  0  0
   23.5932  -21.4742  -15.4642 C   0  0  0  0  0  0  0  0  0  0  0  0
   24.1612  -22.5455  -15.2142 O   0  0  0  0  0  0  0  0  0  0  0  0
   21.7958  -21.0728  -10.9712 C   0  0  0  0  0  0  0  0  0  0  0  0
   22.3755  -20.5630  -12.2633 C   0  0  2  0  0  0  0  0  0  0  0  0
   21.9958  -19.1076  -12.4335 C   0  0  0  0  0  0  0  0  0  0  0  0
   21.9654  -21.3764  -13.4835 C   0  0  2  0  0  0  0  0  0  0  0  0
   22.5573  -20.9111  -14.7210 N   0  0  0  0  0  0  0  0  0  0  0  0
   20.5140  -21.3012  -13.7012 C   0  0  0  0  0  0  0  0  0  0  0  0
   19.7378  -21.8352  -12.8727 O   0  0  0  0  0  0  0  0  0  0  0  0
   19.9648  -20.6613  -14.7894 O   0  0  0  0  0  0  0  0  0  0  0  0
  1  2  1  0
  3  2  1  0
  4  3  1  0
  5  4  1  0
  5  6  1  6
  7  5  1  0
  8  7  2  0
  9 10  1  0
 10 12  1  0
 11 10  2  0
 13 12  1  6
 13 14  1  0
 14  7  1  0
 15 21  1  0
 15 13  1  0
 16 15  2  0
 18 17  1  1
 18 20  1  0
 19 18  1  0
 20 22  1  0
 20 21  1  6
 22 24  1  0
 23 22  2  0
M  END
$$$$
