MNV.pdb
     RDKit          3D

 24 23  0  0  1  0  0  0  0  0999 V2000
   20.9775  -15.6309  -19.6271 C   0  0  0  0  0  0  0  0  0  0  0  0
   22.6885  -15.2190  -19.9029 S   0  0  0  0  0  0  0  0  0  0  0  0
   23.1338  -13.6680  -19.1222 C   0  0  0  0  0  0  0  0  0  0  0  0
   21.9748  -12.7666  -18.9209 C   0  0  0  0  0  0  0  0  0  0  0  0
   22.1440  -11.3349  -19.2590 C   0  0  2  0  0  0  0  0  0  0  0  0
   23.5328  -10.8988  -19.2291 N   0  0  0  0  0  0  0  0  0  0  0  0
   21.3976  -10.5576  -18.1978 C   0  0  0  0  0  0  0  0  0  0  0  0
   20.1577  -10.7204  -18.0686 O   0  0  0  0  0  0  0  0  0  0  0  0
   19.8719   -8.0927  -14.2071 N   0  0  0  0  0  0  0  0  0  0  0  0
   21.1763   -8.5990  -13.8839 C   0  0  0  0  0  0  0  0  0  0  0  0
   21.6222   -8.5552  -12.7142 O   0  0  0  0  0  0  0  0  0  0  0  0
   21.9862   -9.1786  -14.9791 C   0  0  0  0  0  0  0  0  0  0  0  0
   21.2838   -8.9882  -16.2977 C   0  0  2  0  0  0  0  0  0  0  0  0
   22.0467   -9.6475  -17.3390 N   0  0  0  0  0  0  0  0  0  0  0  0
   21.1571   -7.5122  -16.6027 C   0  0  0  0  0  0  0  0  0  0  0  0
   22.2370   -6.9088  -16.6544 O   0  0  0  0  0  0  0  0  0  0  0  0
   17.2416   -6.3027  -17.9794 C   0  0  0  0  0  0  0  0  0  0  0  0
   18.5038   -5.5580  -18.3227 C   0  0  2  0  0  0  0  0  0  0  0  0
   19.0547   -6.0964  -19.6257 C   0  0  0  0  0  0  0  0  0  0  0  0
   19.5607   -5.6034  -17.2274 C   0  0  2  0  0  0  0  0  0  0  0  0
   19.8992   -6.9448  -16.7981 N   0  0  0  0  0  0  0  0  0  0  0  0
   19.0896   -4.9205  -16.0144 C   0  0  0  0  0  0  0  0  0  0  0  0
   19.0907   -3.6666  -15.9729 O   0  0  0  0  0  0  0  0  0  0  0  0
   18.6417   -5.6083  -14.9091 O   0  0  0  0  0  0  0  0  0  0  0  0
  1  2  1  0
  3  2  1  0
  4  3  1  0
  5  4  1  0
  5  6  1  1
  7  5  1  0
  8  7  2  0
  9 10  1  0
 10 12  1  0
 11 10  2  0
 13 12  1  1
 13 14  1  0
 14  7  1  0
 15 21  1  0
 15 13  1  0
 16 15  2  0
 18 17  1  1
 18 20  1  0
 19 18  1  0
 20 22  1  0
 20 21  1  1
 22 24  1  0
 23 22  2  0
M  END
$$$$
