MNV.pdb
     RDKit          3D

 24 23  0  0  1  0  0  0  0  0999 V2000
   18.1119  -15.4175  -14.9709 C   0  0  0  0  0  0  0  0  0  0  0  0
   17.3789  -15.3299  -16.5921 S   0  0  0  0  0  0  0  0  0  0  0  0
   17.6110  -13.7180  -17.3411 C   0  0  0  0  0  0  0  0  0  0  0  0
   17.5960  -12.6125  -16.3543 C   0  0  0  0  0  0  0  0  0  0  0  0
   17.8105  -11.2351  -16.8538 C   0  0  2  0  0  0  0  0  0  0  0  0
   18.0299  -11.1743  -18.2918 N   0  0  0  0  0  0  0  0  0  0  0  0
   19.0655  -10.7296  -16.1778 C   0  0  0  0  0  0  0  0  0  0  0  0
   19.0692  -10.5511  -14.9334 O   0  0  0  0  0  0  0  0  0  0  0  0
   24.5060  -10.9369  -15.1212 N   0  0  0  0  0  0  0  0  0  0  0  0
   23.8552  -10.1090  -16.0975 C   0  0  0  0  0  0  0  0  0  0  0  0
   24.2965   -8.9736  -16.3892 O   0  0  0  0  0  0  0  0  0  0  0  0
   22.6388  -10.6377  -16.7550 C   0  0  0  0  0  0  0  0  0  0  0  0
   21.4133   -9.9720  -16.1865 C   0  0  2  0  0  0  0  0  0  0  0  0
   20.2439  -10.4478  -16.8984 N   0  0  0  0  0  0  0  0  0  0  0  0
   21.5324   -8.4710  -16.3288 C   0  0  0  0  0  0  0  0  0  0  0  0
   21.5425   -8.0702  -17.5002 O   0  0  0  0  0  0  0  0  0  0  0  0
   20.2211   -4.1018  -15.1964 C   0  0  0  0  0  0  0  0  0  0  0  0
   20.2517   -5.5953  -15.3807 C   0  0  2  0  0  0  0  0  0  0  0  0
   19.1800   -6.2209  -14.5140 C   0  0  0  0  0  0  0  0  0  0  0  0
   21.6109   -6.2210  -15.0983 C   0  0  2  0  0  0  0  0  0  0  0  0
   21.6194   -7.6664  -15.1941 N   0  0  0  0  0  0  0  0  0  0  0  0
   22.0505   -5.9255  -13.7275 C   0  0  0  0  0  0  0  0  0  0  0  0
   21.8629   -6.7747  -12.8232 O   0  0  0  0  0  0  0  0  0  0  0  0
   22.6671   -4.7414  -13.3912 O   0  0  0  0  0  0  0  0  0  0  0  0
  1  2  1  0
  3  2  1  0
  4  3  1  0
  5  4  1  0
  5  6  1  6
  7  5  1  0
  8  7  2  0
  9 10  1  0
 10 12  1  0
 11 10  2  0
 13 12  1  6
 13 14  1  0
 14  7  1  0
 15 21  1  0
 15 13  1  0
 16 15  2  0
 18 17  1  1
 18 20  1  0
 19 18  1  0
 20 22  1  0
 20 21  1  1
 22 24  1  0
 23 22  2  0
M  END
$$$$
