MNV.pdb
     RDKit          3D

 24 23  0  0  1  0  0  0  0  0999 V2000
   28.2958  -21.3719  -19.5584 C   0  0  0  0  0  0  0  0  0  0  0  0
   28.5630  -19.8810  -18.6209 S   0  0  0  0  0  0  0  0  0  0  0  0
   28.9723  -20.2340  -16.9118 C   0  0  0  0  0  0  0  0  0  0  0  0
   27.8004  -20.6604  -16.1112 C   0  0  0  0  0  0  0  0  0  0  0  0
   26.8898  -19.6093  -15.6022 C   0  0  2  0  0  0  0  0  0  0  0  0
   27.5376  -18.6860  -14.6816 N   0  0  0  0  0  0  0  0  0  0  0  0
   25.7990  -20.3267  -14.8387 C   0  0  0  0  0  0  0  0  0  0  0  0
   25.1265  -21.2203  -15.4129 O   0  0  0  0  0  0  0  0  0  0  0  0
   26.0256  -22.2853  -11.6318 N   0  0  0  0  0  0  0  0  0  0  0  0
   25.3872  -21.3241  -10.7770 C   0  0  0  0  0  0  0  0  0  0  0  0
   25.6490  -21.2628   -9.5537 O   0  0  0  0  0  0  0  0  0  0  0  0
   24.4034  -20.4003  -11.3855 C   0  0  0  0  0  0  0  0  0  0  0  0
   24.3372  -20.6229  -12.8736 C   0  0  2  0  0  0  0  0  0  0  0  0
   25.5047  -20.0278  -13.4929 N   0  0  0  0  0  0  0  0  0  0  0  0
   23.0782  -19.9964  -13.4303 C   0  0  0  0  0  0  0  0  0  0  0  0
   23.0647  -18.7590  -13.3893 O   0  0  0  0  0  0  0  0  0  0  0  0
   20.6783  -22.4558  -16.0468 C   0  0  0  0  0  0  0  0  0  0  0  0
   20.6228  -20.9542  -15.9588 C   0  0  2  0  0  0  0  0  0  0  0  0
   21.6543  -20.3671  -16.8982 C   0  0  0  0  0  0  0  0  0  0  0  0
   20.8064  -20.4147  -14.5467 C   0  0  2  0  0  0  0  0  0  0  0  0
   22.0587  -20.8038  -13.9314 N   0  0  0  0  0  0  0  0  0  0  0  0
   19.7626  -20.9281  -13.6486 C   0  0  0  0  0  0  0  0  0  0  0  0
   20.0017  -21.9325  -12.9359 O   0  0  0  0  0  0  0  0  0  0  0  0
   18.5189  -20.3451  -13.5561 O   0  0  0  0  0  0  0  0  0  0  0  0
  1  2  1  0
  3  2  1  0
  4  3  1  0
  5  4  1  0
  5  6  1  1
  7  5  1  0
  8  7  2  0
  9 10  1  0
 10 12  1  0
 11 10  2  0
 13 12  1  1
 13 14  1  0
 14  7  1  0
 15 21  1  0
 15 13  1  0
 16 15  2  0
 18 17  1  1
 18 20  1  0
 19 18  1  0
 20 22  1  0
 20 21  1  1
 22 24  1  0
 23 22  2  0
M  END
$$$$
