MNV.pdb
     RDKit          3D

 24 23  0  0  1  0  0  0  0  0999 V2000
   28.5703  -18.7365  -16.3146 C   0  0  0  0  0  0  0  0  0  0  0  0
   27.5618  -18.9787  -14.8663 S   0  0  0  0  0  0  0  0  0  0  0  0
   26.5377  -17.5484  -14.5217 C   0  0  0  0  0  0  0  0  0  0  0  0
   25.9324  -16.9616  -15.7406 C   0  0  0  0  0  0  0  0  0  0  0  0
   26.1360  -15.5159  -15.9878 C   0  0  2  0  0  0  0  0  0  0  0  0
   25.9635  -14.7002  -14.7943 N   0  0  0  0  0  0  0  0  0  0  0  0
   25.0741  -15.1021  -16.9821 C   0  0  0  0  0  0  0  0  0  0  0  0
   25.0384  -15.6496  -18.1133 O   0  0  0  0  0  0  0  0  0  0  0  0
   21.0237  -16.2475  -18.2789 N   0  0  0  0  0  0  0  0  0  0  0  0
   21.5954  -15.6090  -17.1268 C   0  0  0  0  0  0  0  0  0  0  0  0
   21.9525  -16.2694  -16.1242 O   0  0  0  0  0  0  0  0  0  0  0  0
   21.7525  -14.1373  -17.1561 C   0  0  0  0  0  0  0  0  0  0  0  0
   23.1165  -13.7735  -17.6812 C   0  0  2  0  0  0  0  0  0  0  0  0
   24.1127  -14.1149  -16.6852 N   0  0  0  0  0  0  0  0  0  0  0  0
   23.1713  -12.2927  -17.9837 C   0  0  0  0  0  0  0  0  0  0  0  0
   23.4229  -11.5817  -17.0019 O   0  0  0  0  0  0  0  0  0  0  0  0
   22.0820  -11.0181  -22.0883 C   0  0  0  0  0  0  0  0  0  0  0  0
   23.2317  -10.4299  -21.3153 C   0  0  2  0  0  0  0  0  0  0  0  0
   24.5114  -11.1228  -21.7317 C   0  0  0  0  0  0  0  0  0  0  0  0
   23.0502  -10.4892  -19.8046 C   0  0  2  0  0  0  0  0  0  0  0  0
   22.9475  -11.8361  -19.2814 N   0  0  0  0  0  0  0  0  0  0  0  0
   21.8037   -9.8248  -19.3990 C   0  0  0  0  0  0  0  0  0  0  0  0
   20.7696  -10.5116  -19.2176 O   0  0  0  0  0  0  0  0  0  0  0  0
   21.7234   -8.4638  -19.2076 O   0  0  0  0  0  0  0  0  0  0  0  0
  1  2  1  0
  3  2  1  0
  4  3  1  0
  5  4  1  0
  5  6  1  1
  7  5  1  0
  8  7  2  0
  9 10  1  0
 10 12  1  0
 11 10  2  0
 13 12  1  1
 13 14  1  0
 14  7  1  0
 15 21  1  0
 15 13  1  0
 16 15  2  0
 18 17  1  6
 18 20  1  0
 19 18  1  0
 20 22  1  0
 20 21  1  6
 22 24  1  0
 23 22  2  0
M  END
$$$$
