MNV.pdb
     RDKit          3D

 24 23  0  0  1  0  0  0  0  0999 V2000
   36.3769  -39.7646   -9.3496 C   0  0  0  0  0  0  0  0  0  0  0  0
   35.1719  -38.9468   -8.3238 S   0  0  0  0  0  0  0  0  0  0  0  0
   35.7996  -37.4042   -7.6606 C   0  0  0  0  0  0  0  0  0  0  0  0
   34.8252  -36.7101   -6.7860 C   0  0  0  0  0  0  0  0  0  0  0  0
   33.8827  -35.7585   -7.4176 C   0  0  2  0  0  0  0  0  0  0  0  0
   34.5388  -34.5797   -7.9649 N   0  0  0  0  0  0  0  0  0  0  0  0
   32.9496  -35.2952   -6.3212 C   0  0  0  0  0  0  0  0  0  0  0  0
   33.2921  -34.3393   -5.5799 O   0  0  0  0  0  0  0  0  0  0  0  0
   29.0968  -33.9459   -3.5804 N   0  0  0  0  0  0  0  0  0  0  0  0
   28.5661  -34.3437   -4.8540 C   0  0  0  0  0  0  0  0  0  0  0  0
   27.3909  -34.0663   -5.1870 O   0  0  0  0  0  0  0  0  0  0  0  0
   29.4523  -35.0967   -5.7700 C   0  0  0  0  0  0  0  0  0  0  0  0
   30.7934  -35.3217   -5.1227 C   0  0  2  0  0  0  0  0  0  0  0  0
   31.6969  -35.9014   -6.0966 N   0  0  0  0  0  0  0  0  0  0  0  0
   30.6419  -36.2501   -3.9384 C   0  0  0  0  0  0  0  0  0  0  0  0
   30.1626  -37.3570   -4.2176 O   0  0  0  0  0  0  0  0  0  0  0  0
   32.7775  -35.0349   -0.3639 C   0  0  0  0  0  0  0  0  0  0  0  0
   32.4000  -36.4559   -0.6862 C   0  0  2  0  0  0  0  0  0  0  0  0
   33.5257  -37.0999   -1.4667 C   0  0  0  0  0  0  0  0  0  0  0  0
   31.0792  -36.5860   -1.4327 C   0  0  2  0  0  0  0  0  0  0  0  0
   31.0294  -35.8300   -2.6673 N   0  0  0  0  0  0  0  0  0  0  0  0
   29.9657  -36.0715   -0.6234 C   0  0  0  0  0  0  0  0  0  0  0  0
   29.5924  -36.7111    0.3893 O   0  0  0  0  0  0  0  0  0  0  0  0
   29.3080  -34.9027   -0.9344 O   0  0  0  0  0  0  0  0  0  0  0  0
  1  2  1  0
  3  2  1  0
  4  3  1  0
  5  4  1  0
  5  6  1  1
  7  5  1  0
  8  7  2  0
  9 10  1  0
 10 12  1  0
 11 10  2  0
 13 12  1  6
 13 14  1  0
 14  7  1  0
 15 21  1  0
 15 13  1  0
 16 15  2  0
 18 17  1  6
 18 20  1  0
 19 18  1  0
 20 22  1  0
 20 21  1  6
 22 24  1  0
 23 22  2  0
M  END
$$$$
