RWH.pdb
     RDKit          3D

 36 38  0  0  1  0  0  0  0  0999 V2000
    8.3012  -13.9749   16.8799 N   0  0  0  0  0  0  0  0  0  0  0  0
    8.1408  -13.1287   18.0429 C   0  0  0  0  0  0  0  0  0  0  0  0
    8.7148  -11.9846   18.0513 N   0  0  0  0  0  0  0  0  0  0  0  0
    7.3743  -13.5661   19.1458 N   0  0  0  0  0  0  0  0  0  0  0  0
    7.2671  -14.9762   19.4307 C   0  0  0  0  0  0  0  0  0  0  0  0
    8.5917  -15.6052   19.8116 C   0  0  0  0  0  0  0  0  0  0  0  0
    8.8782  -15.3878   21.2694 C   0  0  0  0  0  0  0  0  0  0  0  0
    9.0955  -16.7377   21.9273 C   0  0  2  0  0  0  0  0  0  0  0  0
    7.9195  -17.5517   21.7022 N   0  0  0  0  0  0  0  0  0  0  0  0
    9.4930  -16.6071   23.3336 C   0  0  0  0  0  0  0  0  0  0  0  0
   10.6148  -16.0396   23.5644 O   0  0  0  0  0  0  0  0  0  0  0  0
    8.6085  -11.3550   18.8659 N   0  0  0  0  0  0  0  0  0  0  0  0
    8.7733  -17.0386   24.4708 C   0  0  1  0  0  0  0  0  0  0  0  0
    9.3591  -16.9757   25.8090 C   0  0  0  0  0  0  0  0  0  0  0  0
    8.2726  -16.4993   26.7574 C   0  0  0  0  0  0  0  0  0  0  0  0
    7.3868  -15.4999   26.1642 C   0  0  0  0  0  0  0  0  0  0  0  0
    6.1892  -15.7648   25.5313 N   0  0  0  0  0  0  0  0  0  0  0  0
    5.6462  -14.5880   25.1098 C   0  0  0  0  0  0  0  0  0  0  0  0
    6.4422  -13.5605   25.4432 C   0  0  0  0  0  0  0  0  0  0  0  0
    6.3715  -12.2003   25.2632 C   0  0  0  0  0  0  0  0  0  0  0  0
    7.3922  -11.4039   25.7445 C   0  0  0  0  0  0  0  0  0  0  0  0
    8.4806  -11.9332   26.4012 C   0  0  0  0  0  0  0  0  0  0  0  0
    8.5207  -13.3021   26.5645 C   0  0  0  0  0  0  0  0  0  0  0  0
    7.5364  -14.1355   26.1059 C   0  0  0  0  0  0  0  0  0  0  0  0
    9.9473  -18.2448   26.2106 O   0  0  0  0  0  0  0  0  0  0  0  0
    9.7437  -19.3332   25.5960 N   0  0  0  0  0  0  0  0  0  0  0  0
   10.8008  -18.2886   27.3447 C   0  0  1  0  0  0  0  0  0  0  0  0
   11.9589  -19.2022   27.4373 C   0  0  0  0  0  0  0  0  0  0  0  0
   12.9042  -18.8480   26.3492 C   0  0  0  0  0  0  0  0  0  0  0  0
   14.1325  -19.6585   26.2724 C   0  0  0  0  0  0  0  0  0  0  0  0
   14.5871  -20.7400   26.9603 N   0  0  0  0  0  0  0  0  0  0  0  0
   15.7615  -21.1091   26.3923 C   0  0  0  0  0  0  0  0  0  0  0  0
   16.0493  -20.3021   25.3829 N   0  0  0  0  0  0  0  0  0  0  0  0
   15.0654  -19.4129   25.2971 C   0  0  0  0  0  0  0  0  0  0  0  0
   12.5321  -19.0507   28.8046 O   0  0  0  0  0  0  0  0  0  0  0  0
   13.0681  -20.0823   29.4983 O   0  0  0  0  0  0  0  0  0  0  0  0
  1  2  1  0
  2  3  2  0
  4  5  1  0
  4  2  1  0
  5  6  1  0
  7  6  1  0
  8  9  1  1
  8  7  1  0
 10  8  1  0
 11 10  2  0
 12 10  1  0
 13 12  1  0
 13 14  1  1
 15 14  1  0
 16 15  2  0
 17 16  1  0
 18 17  1  0
 18 23  2  0
 19 20  2  0
 19 18  1  0
 20 21  1  0
 21 22  2  0
 23 22  1  0
 23 15  1  0
 24 25  2  0
 24 13  1  0
 26 24  1  0
 27 26  1  0
 27 28  1  1
 28 29  1  0
 29 33  1  0
 30 29  2  0
 30 31  1  0
 31 32  1  0
 33 32  2  0
 34 27  1  0
 35 34  1  0
 36 34  2  0
M  END
$$$$
