RWH.pdb
     RDKit          3D

 36 38  0  0  1  0  0  0  0  0999 V2000
    7.8614  -15.5813   16.3629 N   0  0  0  0  0  0  0  0  0  0  0  0
    7.6905  -14.1776   16.0556 C   0  0  0  0  0  0  0  0  0  0  0  0
    7.9942  -13.7665   14.8820 N   0  0  0  0  0  0  0  0  0  0  0  0
    7.2080  -13.2838   17.0372 N   0  0  0  0  0  0  0  0  0  0  0  0
    7.8126  -13.2621   18.3468 C   0  0  0  0  0  0  0  0  0  0  0  0
    6.8575  -13.6790   19.4464 C   0  0  0  0  0  0  0  0  0  0  0  0
    7.5463  -13.6528   20.7803 C   0  0  0  0  0  0  0  0  0  0  0  0
    8.1232  -15.0290   21.0552 C   0  0  2  0  0  0  0  0  0  0  0  0
    7.0684  -16.0081   20.8968 N   0  0  0  0  0  0  0  0  0  0  0  0
    8.8255  -15.0845   22.3422 C   0  0  0  0  0  0  0  0  0  0  0  0
    9.6724  -14.1561   22.5764 O   0  0  0  0  0  0  0  0  0  0  0  0
    7.8745  -12.7690   14.6327 N   0  0  0  0  0  0  0  0  0  0  0  0
    8.6722  -16.0523   23.3606 C   0  0  1  0  0  0  0  0  0  0  0  0
    9.5232  -16.0446   24.5497 C   0  0  0  0  0  0  0  0  0  0  0  0
    8.6178  -16.2223   25.7561 C   0  0  0  0  0  0  0  0  0  0  0  0
    7.5426  -15.2348   25.8206 C   0  0  0  0  0  0  0  0  0  0  0  0
    6.2033  -15.4927   25.6089 N   0  0  0  0  0  0  0  0  0  0  0  0
    5.5047  -14.3315   25.7538 C   0  0  0  0  0  0  0  0  0  0  0  0
    6.3354  -13.3211   26.0537 C   0  0  0  0  0  0  0  0  0  0  0  0
    6.1594  -11.9805   26.2968 C   0  0  0  0  0  0  0  0  0  0  0  0
    7.2610  -11.1984   26.5842 C   0  0  0  0  0  0  0  0  0  0  0  0
    8.5330  -11.7234   26.6350 C   0  0  0  0  0  0  0  0  0  0  0  0
    8.6746  -13.0724   26.3854 C   0  0  0  0  0  0  0  0  0  0  0  0
    7.6163  -13.8906   26.0950 C   0  0  0  0  0  0  0  0  0  0  0  0
   10.5761  -17.0467   24.4772 O   0  0  0  0  0  0  0  0  0  0  0  0
   10.3962  -18.2156   24.0242 N   0  0  0  0  0  0  0  0  0  0  0  0
   11.8821  -16.7180   24.9278 C   0  0  1  0  0  0  0  0  0  0  0  0
   13.0351  -17.6282   24.7650 C   0  0  0  0  0  0  0  0  0  0  0  0
   14.2383  -16.7959   24.5151 C   0  0  0  0  0  0  0  0  0  0  0  0
   14.2177  -15.9849   23.2849 C   0  0  0  0  0  0  0  0  0  0  0  0
   13.3177  -15.8327   22.2768 N   0  0  0  0  0  0  0  0  0  0  0  0
   13.8088  -14.8824   21.4439 C   0  0  0  0  0  0  0  0  0  0  0  0
   14.9723  -14.4416   21.8963 N   0  0  0  0  0  0  0  0  0  0  0  0
   15.2348  -15.1039   23.0182 C   0  0  0  0  0  0  0  0  0  0  0  0
   13.1223  -18.4551   26.0019 O   0  0  0  0  0  0  0  0  0  0  0  0
   14.0054  -19.4705   26.1498 O   0  0  0  0  0  0  0  0  0  0  0  0
  1  2  1  0
  2  3  2  0
  4  5  1  0
  4  2  1  0
  5  6  1  0
  7  6  1  0
  8  9  1  1
  8  7  1  0
 10  8  1  0
 11 10  2  0
 12 10  1  0
 13 12  1  0
 13 14  1  1
 15 14  1  0
 16 15  2  0
 17 16  1  0
 18 17  1  0
 18 23  2  0
 19 20  2  0
 19 18  1  0
 20 21  1  0
 21 22  2  0
 23 22  1  0
 23 15  1  0
 24 25  2  0
 24 13  1  0
 26 24  1  0
 27 26  1  0
 27 28  1  1
 28 29  1  0
 29 33  1  0
 30 29  2  0
 30 31  1  0
 31 32  1  0
 33 32  2  0
 34 27  1  0
 35 34  1  0
 36 34  2  0
M  END
$$$$
