RWH.pdb
     RDKit          3D

 36 38  0  0  1  0  0  0  0  0999 V2000
    8.8536  -15.7072   16.4986 N   0  0  0  0  0  0  0  0  0  0  0  0
    8.3586  -14.4957   15.8811 C   0  0  0  0  0  0  0  0  0  0  0  0
    8.8128  -14.1652   14.7309 N   0  0  0  0  0  0  0  0  0  0  0  0
    7.4024  -13.6942   16.5434 N   0  0  0  0  0  0  0  0  0  0  0  0
    6.9541  -14.0574   17.8655 C   0  0  0  0  0  0  0  0  0  0  0  0
    7.7455  -13.3801   18.9655 C   0  0  0  0  0  0  0  0  0  0  0  0
    7.2699  -13.8368   20.3145 C   0  0  0  0  0  0  0  0  0  0  0  0
    7.8213  -15.2255   20.5783 C   0  0  2  0  0  0  0  0  0  0  0  0
    6.7246  -16.1699   20.5352 N   0  0  0  0  0  0  0  0  0  0  0  0
    8.6269  -15.2744   21.8036 C   0  0  0  0  0  0  0  0  0  0  0  0
    9.6392  -14.4957   21.8584 O   0  0  0  0  0  0  0  0  0  0  0  0
    8.5016  -13.2862   14.2814 N   0  0  0  0  0  0  0  0  0  0  0  0
    8.4112  -16.0881   22.9388 C   0  0  1  0  0  0  0  0  0  0  0  0
    9.2992  -16.0241   24.0987 C   0  0  0  0  0  0  0  0  0  0  0  0
    8.4491  -16.2650   25.3341 C   0  0  0  0  0  0  0  0  0  0  0  0
    7.3250  -15.3386   25.4502 C   0  0  0  0  0  0  0  0  0  0  0  0
    6.0006  -15.6521   25.2205 N   0  0  0  0  0  0  0  0  0  0  0  0
    5.2437  -14.5379   25.4277 C   0  0  0  0  0  0  0  0  0  0  0  0
    6.0217  -13.5048   25.7857 C   0  0  0  0  0  0  0  0  0  0  0  0
    5.7776  -12.1905   26.1025 C   0  0  0  0  0  0  0  0  0  0  0  0
    6.8379  -11.3706   26.4362 C   0  0  0  0  0  0  0  0  0  0  0  0
    8.1350  -11.8321   26.4615 C   0  0  0  0  0  0  0  0  0  0  0  0
    8.3452  -13.1562   26.1377 C   0  0  0  0  0  0  0  0  0  0  0  0
    7.3301  -14.0098   25.7991 C   0  0  0  0  0  0  0  0  0  0  0  0
   10.4149  -16.9518   23.9872 O   0  0  0  0  0  0  0  0  0  0  0  0
   10.2731  -18.1876   23.7493 N   0  0  0  0  0  0  0  0  0  0  0  0
   11.7408  -16.4682   24.1451 C   0  0  1  0  0  0  0  0  0  0  0  0
   12.9243  -17.3517   24.0910 C   0  0  0  0  0  0  0  0  0  0  0  0
   14.0599  -16.5569   23.5604 C   0  0  0  0  0  0  0  0  0  0  0  0
   15.3577  -17.2516   23.4926 C   0  0  0  0  0  0  0  0  0  0  0  0
   15.7580  -18.5207   23.7728 N   0  0  0  0  0  0  0  0  0  0  0  0
   17.0700  -18.6072   23.4425 C   0  0  0  0  0  0  0  0  0  0  0  0
   17.4951  -17.4459   22.9696 N   0  0  0  0  0  0  0  0  0  0  0  0
   16.4625  -16.6096   22.9935 C   0  0  0  0  0  0  0  0  0  0  0  0
   13.1480  -17.8744   25.4687 O   0  0  0  0  0  0  0  0  0  0  0  0
   12.4201  -17.4733   26.5372 O   0  0  0  0  0  0  0  0  0  0  0  0
  1  2  1  0
  2  3  2  0
  4  5  1  0
  4  2  1  0
  5  6  1  0
  7  6  1  0
  8  9  1  1
  8  7  1  0
 10  8  1  0
 11 10  2  0
 12 10  1  0
 13 12  1  0
 13 14  1  1
 15 14  1  0
 16 15  2  0
 17 16  1  0
 18 17  1  0
 18 23  2  0
 19 20  2  0
 19 18  1  0
 20 21  1  0
 21 22  2  0
 23 22  1  0
 23 15  1  0
 24 25  2  0
 24 13  1  0
 26 24  1  0
 27 26  1  0
 27 28  1  1
 28 29  1  0
 29 33  1  0
 30 29  2  0
 30 31  1  0
 31 32  1  0
 33 32  2  0
 34 27  1  0
 35 34  1  0
 36 34  2  0
M  END
$$$$
