RWH.pdb
     RDKit          3D

 36 38  0  0  1  0  0  0  0  0999 V2000
    8.4930  -14.8804   14.7483 N   0  0  0  0  0  0  0  0  0  0  0  0
    8.0158  -13.8571   15.6534 C   0  0  0  0  0  0  0  0  0  0  0  0
    8.5036  -12.6777   15.5560 N   0  0  0  0  0  0  0  0  0  0  0  0
    7.0399  -14.1624   16.6280 N   0  0  0  0  0  0  0  0  0  0  0  0
    7.3475  -13.9971   18.0276 C   0  0  0  0  0  0  0  0  0  0  0  0
    8.6702  -14.6226   18.4206 C   0  0  0  0  0  0  0  0  0  0  0  0
    8.9896  -14.3209   19.8564 C   0  0  0  0  0  0  0  0  0  0  0  0
    9.0866  -15.6303   20.6169 C   0  0  2  0  0  0  0  0  0  0  0  0
    7.8772  -16.3897   20.3780 N   0  0  0  0  0  0  0  0  0  0  0  0
    9.4123  -15.4220   22.0322 C   0  0  0  0  0  0  0  0  0  0  0  0
   10.1582  -14.4218   22.3102 O   0  0  0  0  0  0  0  0  0  0  0  0
    8.2614  -11.9548   16.2561 N   0  0  0  0  0  0  0  0  0  0  0  0
    8.9930  -16.2045   23.1319 C   0  0  1  0  0  0  0  0  0  0  0  0
    9.7453  -16.2169   24.3857 C   0  0  0  0  0  0  0  0  0  0  0  0
    8.7358  -16.2683   25.5194 C   0  0  0  0  0  0  0  0  0  0  0  0
    7.6616  -15.2874   25.3799 C   0  0  0  0  0  0  0  0  0  0  0  0
    6.3584  -15.5706   25.0243 N   0  0  0  0  0  0  0  0  0  0  0  0
    5.6482  -14.4077   24.9983 C   0  0  0  0  0  0  0  0  0  0  0  0
    6.4364  -13.3718   25.3244 C   0  0  0  0  0  0  0  0  0  0  0  0
    6.2329  -12.0187   25.4469 C   0  0  0  0  0  0  0  0  0  0  0  0
    7.2913  -11.2092   25.8105 C   0  0  0  0  0  0  0  0  0  0  0  0
    8.5470  -11.7188   26.0549 C   0  0  0  0  0  0  0  0  0  0  0  0
    8.7171  -13.0811   25.9224 C   0  0  0  0  0  0  0  0  0  0  0  0
    7.7021  -13.9265   25.5638 C   0  0  0  0  0  0  0  0  0  0  0  0
   10.7109  -17.3046   24.4353 O   0  0  0  0  0  0  0  0  0  0  0  0
   10.5065  -18.4426   23.9185 N   0  0  0  0  0  0  0  0  0  0  0  0
   11.9557  -17.1011   25.0877 C   0  0  2  0  0  0  0  0  0  0  0  0
   12.0943  -17.0975   26.5591 C   0  0  0  0  0  0  0  0  0  0  0  0
   11.1539  -16.0852   27.1010 C   0  0  0  0  0  0  0  0  0  0  0  0
   11.0731  -16.0005   28.5699 C   0  0  0  0  0  0  0  0  0  0  0  0
   11.7018  -16.6543   29.5831 N   0  0  0  0  0  0  0  0  0  0  0  0
   11.2772  -16.0950   30.7428 C   0  0  0  0  0  0  0  0  0  0  0  0
   10.4147  -15.1236   30.4875 N   0  0  0  0  0  0  0  0  0  0  0  0
   10.2803  -15.0536   29.1672 C   0  0  0  0  0  0  0  0  0  0  0  0
   11.8220  -18.4847   27.0313 O   0  0  0  0  0  0  0  0  0  0  0  0
   12.4588  -19.0430   28.0874 O   0  0  0  0  0  0  0  0  0  0  0  0
  1  2  1  0
  2  3  2  0
  4  5  1  0
  4  2  1  0
  5  6  1  0
  7  6  1  0
  8  9  1  1
  8  7  1  0
 10  8  1  0
 11 10  2  0
 12 10  1  0
 13 12  1  0
 13 14  1  1
 15 14  1  0
 16 15  2  0
 17 16  1  0
 18 17  1  0
 18 23  2  0
 19 20  2  0
 19 18  1  0
 20 21  1  0
 21 22  2  0
 23 22  1  0
 23 15  1  0
 24 25  2  0
 24 13  1  0
 26 24  1  0
 27 26  1  0
 27 28  1  6
 28 29  1  0
 29 33  1  0
 30 29  2  0
 30 31  1  0
 31 32  1  0
 33 32  2  0
 34 27  1  0
 35 34  1  0
 36 34  2  0
M  END
$$$$
