RWH.pdb
     RDKit          3D

 36 38  0  0  1  0  0  0  0  0999 V2000
    8.7772  -12.1853   17.1971 N   0  0  0  0  0  0  0  0  0  0  0  0
    7.7427  -13.0822   16.7284 C   0  0  0  0  0  0  0  0  0  0  0  0
    7.6476  -13.3032   15.4712 N   0  0  0  0  0  0  0  0  0  0  0  0
    6.8537  -13.6892   17.6430 N   0  0  0  0  0  0  0  0  0  0  0  0
    7.1385  -13.6457   19.0565 C   0  0  0  0  0  0  0  0  0  0  0  0
    7.7362  -14.9357   19.5797 C   0  0  0  0  0  0  0  0  0  0  0  0
    7.9386  -14.8580   21.0655 C   0  0  0  0  0  0  0  0  0  0  0  0
    8.5393  -16.1673   21.5420 C   0  0  2  0  0  0  0  0  0  0  0  0
    7.5577  -17.2156   21.3581 N   0  0  0  0  0  0  0  0  0  0  0  0
    9.0794  -16.0624   22.9022 C   0  0  0  0  0  0  0  0  0  0  0  0
    9.9852  -15.1814   23.0956 O   0  0  0  0  0  0  0  0  0  0  0  0
    6.8499  -13.8465   15.0972 N   0  0  0  0  0  0  0  0  0  0  0  0
    8.7108  -16.8278   24.0317 C   0  0  1  0  0  0  0  0  0  0  0  0
    9.3686  -16.6396   25.3239 C   0  0  0  0  0  0  0  0  0  0  0  0
    8.2798  -16.5672   26.3804 C   0  0  0  0  0  0  0  0  0  0  0  0
    7.2558  -15.5672   26.0856 C   0  0  0  0  0  0  0  0  0  0  0  0
    6.0093  -15.8287   25.5538 N   0  0  0  0  0  0  0  0  0  0  0  0
    5.3336  -14.6526   25.4208 C   0  0  0  0  0  0  0  0  0  0  0  0
    6.0898  -13.6290   25.8464 C   0  0  0  0  0  0  0  0  0  0  0  0
    5.8990  -12.2710   25.9298 C   0  0  0  0  0  0  0  0  0  0  0  0
    6.9128  -11.4786   26.4318 C   0  0  0  0  0  0  0  0  0  0  0  0
    8.1114  -12.0100   26.8525 C   0  0  0  0  0  0  0  0  0  0  0  0
    8.2705  -13.3765   26.7546 C   0  0  0  0  0  0  0  0  0  0  0  0
    7.2981  -14.2056   26.2638 C   0  0  0  0  0  0  0  0  0  0  0  0
   10.3540  -17.6759   25.5939 O   0  0  0  0  0  0  0  0  0  0  0  0
   10.1368  -18.9098   25.4087 N   0  0  0  0  0  0  0  0  0  0  0  0
   11.6340  -17.3080   26.0867 C   0  0  1  0  0  0  0  0  0  0  0  0
   12.6269  -18.3005   26.5485 C   0  0  0  0  0  0  0  0  0  0  0  0
   13.9768  -17.7785   26.2196 C   0  0  0  0  0  0  0  0  0  0  0  0
   14.3373  -17.7764   24.7907 C   0  0  0  0  0  0  0  0  0  0  0  0
   13.6744  -18.1255   23.6558 N   0  0  0  0  0  0  0  0  0  0  0  0
   14.4892  -17.8333   22.6123 C   0  0  0  0  0  0  0  0  0  0  0  0
   15.6252  -17.3178   23.0557 N   0  0  0  0  0  0  0  0  0  0  0  0
   15.5474  -17.2763   24.3817 C   0  0  0  0  0  0  0  0  0  0  0  0
   12.4005  -18.5052   28.0073 O   0  0  0  0  0  0  0  0  0  0  0  0
   11.5018  -17.7883   28.7222 O   0  0  0  0  0  0  0  0  0  0  0  0
  1  2  1  0
  2  3  2  0
  4  5  1  0
  4  2  1  0
  5  6  1  0
  7  6  1  0
  8  9  1  1
  8  7  1  0
 10  8  1  0
 11 10  2  0
 12 10  1  0
 13 12  1  0
 13 14  1  6
 15 14  1  0
 16 15  2  0
 17 16  1  0
 18 17  1  0
 18 23  2  0
 19 20  2  0
 19 18  1  0
 20 21  1  0
 21 22  2  0
 23 22  1  0
 23 15  1  0
 24 25  2  0
 24 13  1  0
 26 24  1  0
 27 26  1  0
 27 28  1  1
 28 29  1  0
 29 33  1  0
 30 29  2  0
 30 31  1  0
 31 32  1  0
 33 32  2  0
 34 27  1  0
 35 34  1  0
 36 34  2  0
M  END
$$$$
