RWH.pdb
     RDKit          3D

 36 38  0  0  1  0  0  0  0  0999 V2000
   12.5808  -19.2737   15.1197 N   0  0  0  0  0  0  0  0  0  0  0  0
   13.2878  -20.1245   16.0527 C   0  0  0  0  0  0  0  0  0  0  0  0
   13.3941  -21.3716   15.7844 N   0  0  0  0  0  0  0  0  0  0  0  0
   13.8376  -19.5858   17.2371 N   0  0  0  0  0  0  0  0  0  0  0  0
   13.6230  -18.1964   17.5602 C   0  0  0  0  0  0  0  0  0  0  0  0
   12.1560  -17.8333   17.6660 C   0  0  0  0  0  0  0  0  0  0  0  0
   11.8953  -17.0549   18.9233 C   0  0  0  0  0  0  0  0  0  0  0  0
   10.5677  -17.5039   19.5049 C   0  0  2  0  0  0  0  0  0  0  0  0
    9.5644  -17.4350   18.4633 N   0  0  0  0  0  0  0  0  0  0  0  0
   10.2302  -16.7754   20.7329 C   0  0  0  0  0  0  0  0  0  0  0  0
   10.9209  -15.7312   20.9912 O   0  0  0  0  0  0  0  0  0  0  0  0
   13.8440  -22.0130   16.4609 N   0  0  0  0  0  0  0  0  0  0  0  0
    9.2219  -17.0965   21.6698 C   0  0  1  0  0  0  0  0  0  0  0  0
    8.9474  -16.2315   22.8162 C   0  0  0  0  0  0  0  0  0  0  0  0
    7.4418  -16.2063   23.0147 C   0  0  0  0  0  0  0  0  0  0  0  0
    7.0257  -15.4160   24.1712 C   0  0  0  0  0  0  0  0  0  0  0  0
    6.4214  -15.9145   25.3075 N   0  0  0  0  0  0  0  0  0  0  0  0
    6.1820  -14.8831   26.1656 C   0  0  0  0  0  0  0  0  0  0  0  0
    6.6075  -13.7262   25.6353 C   0  0  0  0  0  0  0  0  0  0  0  0
    6.6086  -12.4216   26.0660 C   0  0  0  0  0  0  0  0  0  0  0  0
    7.1399  -11.4435   25.2483 C   0  0  0  0  0  0  0  0  0  0  0  0
    7.6702  -11.7372   24.0119 C   0  0  0  0  0  0  0  0  0  0  0  0
    7.6528  -13.0564   23.6098 C   0  0  0  0  0  0  0  0  0  0  0  0
    7.1374  -14.0628   24.3812 C   0  0  0  0  0  0  0  0  0  0  0  0
    9.6703  -16.6528   24.0069 O   0  0  0  0  0  0  0  0  0  0  0  0
    9.7153  -17.8536   24.4069 N   0  0  0  0  0  0  0  0  0  0  0  0
   10.3728  -15.6856   24.7735 C   0  0  2  0  0  0  0  0  0  0  0  0
   10.7773  -15.9189   26.1757 C   0  0  0  0  0  0  0  0  0  0  0  0
    9.8646  -15.1376   27.0471 C   0  0  0  0  0  0  0  0  0  0  0  0
   10.1022  -15.2514   28.4970 C   0  0  0  0  0  0  0  0  0  0  0  0
   10.0858  -16.2931   29.3711 N   0  0  0  0  0  0  0  0  0  0  0  0
   10.4626  -15.8061   30.5790 C   0  0  0  0  0  0  0  0  0  0  0  0
   10.7117  -14.5091   30.4862 N   0  0  0  0  0  0  0  0  0  0  0  0
   10.4969  -14.1565   29.2230 C   0  0  0  0  0  0  0  0  0  0  0  0
   10.7218  -17.3894   26.4120 O   0  0  0  0  0  0  0  0  0  0  0  0
    9.6451  -18.1471   26.0973 O   0  0  0  0  0  0  0  0  0  0  0  0
  1  2  1  0
  2  3  2  0
  4  5  1  0
  4  2  1  0
  5  6  1  0
  7  6  1  0
  8  9  1  6
  8  7  1  0
 10  8  1  0
 11 10  2  0
 12 10  1  0
 13 12  1  0
 13 14  1  1
 15 14  1  0
 16 15  2  0
 17 16  1  0
 18 17  1  0
 18 23  2  0
 19 20  2  0
 19 18  1  0
 20 21  1  0
 21 22  2  0
 23 22  1  0
 23 15  1  0
 24 25  2  0
 24 13  1  0
 26 24  1  0
 27 26  1  0
 27 28  1  6
 28 29  1  0
 29 33  1  0
 30 29  2  0
 30 31  1  0
 31 32  1  0
 33 32  2  0
 34 27  1  0
 35 34  1  0
 36 34  2  0
M  END
$$$$
