RWH.pdb
     RDKit          3D

 36 38  0  0  1  0  0  0  0  0999 V2000
    6.7302  -18.6681   13.7238 N   0  0  0  0  0  0  0  0  0  0  0  0
    6.8126  -19.2377   15.0515 C   0  0  0  0  0  0  0  0  0  0  0  0
    5.9605  -20.1316   15.3881 N   0  0  0  0  0  0  0  0  0  0  0  0
    7.8081  -18.8048   15.9553 N   0  0  0  0  0  0  0  0  0  0  0  0
    7.8495  -19.3478   17.2910 C   0  0  0  0  0  0  0  0  0  0  0  0
    8.9210  -18.7142   18.1545 C   0  0  0  0  0  0  0  0  0  0  0  0
    8.2996  -17.9129   19.2618 C   0  0  0  0  0  0  0  0  0  0  0  0
    9.0491  -16.5998   19.3895 C   0  0  2  0  0  0  0  0  0  0  0  0
   10.2521  -16.6789   18.5876 N   0  0  0  0  0  0  0  0  0  0  0  0
    9.2679  -16.2248   20.7910 C   0  0  0  0  0  0  0  0  0  0  0  0
   10.3132  -16.6957   21.3565 O   0  0  0  0  0  0  0  0  0  0  0  0
    6.0535  -20.6247   16.2935 N   0  0  0  0  0  0  0  0  0  0  0  0
    8.4512  -15.3966   21.5938 C   0  0  2  0  0  0  0  0  0  0  0  0
    8.8069  -15.0929   22.9791 C   0  0  0  0  0  0  0  0  0  0  0  0
    7.7997  -14.0794   23.4939 C   0  0  0  0  0  0  0  0  0  0  0  0
    7.9791  -13.7547   24.9073 C   0  0  0  0  0  0  0  0  0  0  0  0
    8.9617  -14.2681   25.7294 N   0  0  0  0  0  0  0  0  0  0  0  0
    8.8137  -13.7357   26.9753 C   0  0  0  0  0  0  0  0  0  0  0  0
    7.7711  -12.8913   27.0014 C   0  0  0  0  0  0  0  0  0  0  0  0
    7.1994  -12.1099   27.9760 C   0  0  0  0  0  0  0  0  0  0  0  0
    6.1010  -11.3349   27.6589 C   0  0  0  0  0  0  0  0  0  0  0  0
    5.5609  -11.3214   26.3924 C   0  0  0  0  0  0  0  0  0  0  0  0
    6.1584  -12.1177   25.4378 C   0  0  0  0  0  0  0  0  0  0  0  0
    7.2472  -12.9046   25.7005 C   0  0  0  0  0  0  0  0  0  0  0  0
    8.8787  -16.2909   23.8023 O   0  0  0  0  0  0  0  0  0  0  0  0
    7.9721  -17.1748   23.8277 N   0  0  0  0  0  0  0  0  0  0  0  0
   10.0168  -16.5033   24.6246 C   0  0  1  0  0  0  0  0  0  0  0  0
   10.3517  -17.8235   25.1983 C   0  0  0  0  0  0  0  0  0  0  0  0
   11.6699  -18.2338   24.6533 C   0  0  0  0  0  0  0  0  0  0  0  0
   12.2241  -19.4920   25.1836 C   0  0  0  0  0  0  0  0  0  0  0  0
   12.6330  -19.8900   26.4180 N   0  0  0  0  0  0  0  0  0  0  0  0
   12.9792  -21.1972   26.3212 C   0  0  0  0  0  0  0  0  0  0  0  0
   12.7998  -21.6221   25.0802 N   0  0  0  0  0  0  0  0  0  0  0  0
   12.3393  -20.5941   24.3750 C   0  0  0  0  0  0  0  0  0  0  0  0
   10.3334  -17.6776   26.6814 O   0  0  0  0  0  0  0  0  0  0  0  0
   10.3029  -18.7347   27.5265 O   0  0  0  0  0  0  0  0  0  0  0  0
  1  2  1  0
  2  3  2  0
  4  5  1  0
  4  2  1  0
  5  6  1  0
  7  6  1  0
  8  9  1  6
  8  7  1  0
 10  8  1  0
 11 10  2  0
 12 10  1  0
 13 12  1  0
 13 14  1  6
 15 14  1  0
 16 15  2  0
 17 16  1  0
 18 17  1  0
 18 23  2  0
 19 20  2  0
 19 18  1  0
 20 21  1  0
 21 22  2  0
 23 22  1  0
 23 15  1  0
 24 25  2  0
 24 13  1  0
 26 24  1  0
 27 26  1  0
 27 28  1  1
 28 29  1  0
 29 33  1  0
 30 29  2  0
 30 31  1  0
 31 32  1  0
 33 32  2  0
 34 27  1  0
 35 34  1  0
 36 34  2  0
M  END
$$$$
