RWH.pdb
     RDKit          3D

 36 38  0  0  1  0  0  0  0  0999 V2000
    7.9641  -12.8940   15.4120 N   0  0  0  0  0  0  0  0  0  0  0  0
    8.0737  -14.2875   15.7867 C   0  0  0  0  0  0  0  0  0  0  0  0
    8.6726  -15.0904   14.9897 N   0  0  0  0  0  0  0  0  0  0  0  0
    7.5205  -14.7472   17.0024 N   0  0  0  0  0  0  0  0  0  0  0  0
    7.1059  -13.7977   18.0062 C   0  0  0  0  0  0  0  0  0  0  0  0
    8.2416  -13.3523   18.9044 C   0  0  0  0  0  0  0  0  0  0  0  0
    7.9977  -13.7922   20.3192 C   0  0  0  0  0  0  0  0  0  0  0  0
    8.6061  -15.1690   20.5105 C   0  0  2  0  0  0  0  0  0  0  0  0
    7.6700  -16.1565   20.0154 N   0  0  0  0  0  0  0  0  0  0  0  0
    9.0556  -15.3854   21.8903 C   0  0  0  0  0  0  0  0  0  0  0  0
   10.0183  -14.6530   22.3037 O   0  0  0  0  0  0  0  0  0  0  0  0
    8.7009  -16.1042   15.1965 N   0  0  0  0  0  0  0  0  0  0  0  0
    8.5432  -16.3161   22.8222 C   0  0  1  0  0  0  0  0  0  0  0  0
    9.1169  -16.4444   24.1611 C   0  0  0  0  0  0  0  0  0  0  0  0
    7.9629  -16.6087   25.1347 C   0  0  0  0  0  0  0  0  0  0  0  0
    7.1170  -15.4211   25.2322 C   0  0  0  0  0  0  0  0  0  0  0  0
    5.8295  -15.3119   24.7471 N   0  0  0  0  0  0  0  0  0  0  0  0
    5.3613  -14.0621   25.0232 C   0  0  0  0  0  0  0  0  0  0  0  0
    6.2932  -13.3472   25.6722 C   0  0  0  0  0  0  0  0  0  0  0  0
    6.3399  -12.0675   26.1698 C   0  0  0  0  0  0  0  0  0  0  0  0
    7.4882  -11.6329   26.8024 C   0  0  0  0  0  0  0  0  0  0  0  0
    8.5899  -12.4457   26.9501 C   0  0  0  0  0  0  0  0  0  0  0  0
    8.5100  -13.7241   26.4387 C   0  0  0  0  0  0  0  0  0  0  0  0
    7.3966  -14.2029   25.8026 C   0  0  0  0  0  0  0  0  0  0  0  0
   10.0862  -17.5270   24.2411 O   0  0  0  0  0  0  0  0  0  0  0  0
   10.2686  -18.3696   23.3133 N   0  0  0  0  0  0  0  0  0  0  0  0
   10.8833  -17.6628   25.4085 C   0  0  1  0  0  0  0  0  0  0  0  0
   11.8864  -18.7361   25.5695 C   0  0  0  0  0  0  0  0  0  0  0  0
   13.1189  -18.3157   24.8574 C   0  0  0  0  0  0  0  0  0  0  0  0
   14.2794  -19.2140   24.9907 C   0  0  0  0  0  0  0  0  0  0  0  0
   14.4940  -20.3752   25.6653 N   0  0  0  0  0  0  0  0  0  0  0  0
   15.7439  -20.7949   25.3493 C   0  0  0  0  0  0  0  0  0  0  0  0
   16.3081  -19.9426   24.5077 N   0  0  0  0  0  0  0  0  0  0  0  0
   15.4275  -18.9739   24.2793 C   0  0  0  0  0  0  0  0  0  0  0  0
   12.0789  -18.9442   27.0327 O   0  0  0  0  0  0  0  0  0  0  0  0
   12.9080  -19.8858   27.5413 O   0  0  0  0  0  0  0  0  0  0  0  0
  1  2  1  0
  2  3  2  0
  4  5  1  0
  4  2  1  0
  5  6  1  0
  7  6  1  0
  8  9  1  1
  8  7  1  0
 10  8  1  0
 11 10  2  0
 12 10  1  0
 13 12  1  0
 13 14  1  1
 15 14  1  0
 16 15  2  0
 17 16  1  0
 18 17  1  0
 18 23  2  0
 19 20  2  0
 19 18  1  0
 20 21  1  0
 21 22  2  0
 23 22  1  0
 23 15  1  0
 24 25  2  0
 24 13  1  0
 26 24  1  0
 27 26  1  0
 27 28  1  1
 28 29  1  0
 29 33  1  0
 30 29  2  0
 30 31  1  0
 31 32  1  0
 33 32  2  0
 34 27  1  0
 35 34  1  0
 36 34  2  0
M  END
$$$$
