RWH.pdb
     RDKit          3D

 36 38  0  0  1  0  0  0  0  0999 V2000
    8.2216  -14.3479   16.6446 N   0  0  0  0  0  0  0  0  0  0  0  0
    8.6632  -14.0288   17.9852 C   0  0  0  0  0  0  0  0  0  0  0  0
    8.9400  -12.8107   18.2648 N   0  0  0  0  0  0  0  0  0  0  0  0
    8.7936  -15.0459   18.9567 N   0  0  0  0  0  0  0  0  0  0  0  0
    8.4849  -16.4119   18.6109 C   0  0  0  0  0  0  0  0  0  0  0  0
    7.0091  -16.7333   18.7298 C   0  0  0  0  0  0  0  0  0  0  0  0
    6.7971  -17.9037   19.6461 C   0  0  0  0  0  0  0  0  0  0  0  0
    5.8788  -17.4752   20.7754 C   0  0  2  0  0  0  0  0  0  0  0  0
    4.7897  -16.7045   20.2130 N   0  0  0  0  0  0  0  0  0  0  0  0
    6.6111  -16.8064   21.8567 C   0  0  0  0  0  0  0  0  0  0  0  0
    6.8236  -15.5534   21.7189 O   0  0  0  0  0  0  0  0  0  0  0  0
    9.3661  -12.5700   19.1769 N   0  0  0  0  0  0  0  0  0  0  0  0
    7.1116  -17.3913   23.0419 C   0  0  1  0  0  0  0  0  0  0  0  0
    7.8402  -16.5982   24.0310 C   0  0  0  0  0  0  0  0  0  0  0  0
    7.0010  -16.5704   25.2966 C   0  0  0  0  0  0  0  0  0  0  0  0
    7.4845  -15.6120   26.2881 C   0  0  0  0  0  0  0  0  0  0  0  0
    8.3192  -15.9062   27.3473 N   0  0  0  0  0  0  0  0  0  0  0  0
    8.5529  -14.7635   28.0522 C   0  0  0  0  0  0  0  0  0  0  0  0
    7.9035  -13.7299   27.4948 C   0  0  0  0  0  0  0  0  0  0  0  0
    7.7993  -12.3935   27.7957 C   0  0  0  0  0  0  0  0  0  0  0  0
    7.0247  -11.5810   26.9910 C   0  0  0  0  0  0  0  0  0  0  0  0
    6.3528  -12.0711   25.8935 C   0  0  0  0  0  0  0  0  0  0  0  0
    6.4783  -13.4171   25.6200 C   0  0  0  0  0  0  0  0  0  0  0  0
    7.2320  -14.2650   26.3859 C   0  0  0  0  0  0  0  0  0  0  0  0
    9.1873  -17.1020   24.2535 O   0  0  0  0  0  0  0  0  0  0  0  0
    9.4399  -18.3031   24.5658 N   0  0  0  0  0  0  0  0  0  0  0  0
   10.2919  -16.2204   24.1146 C   0  0  1  0  0  0  0  0  0  0  0  0
   11.6942  -16.6847   24.1608 C   0  0  0  0  0  0  0  0  0  0  0  0
   12.5555  -15.5750   23.6813 C   0  0  0  0  0  0  0  0  0  0  0  0
   12.4505  -15.2499   22.2478 C   0  0  0  0  0  0  0  0  0  0  0  0
   11.7764  -15.8075   21.2066 N   0  0  0  0  0  0  0  0  0  0  0  0
   11.9985  -15.0241   20.1225 C   0  0  0  0  0  0  0  0  0  0  0  0
   12.7795  -14.0070   20.4516 N   0  0  0  0  0  0  0  0  0  0  0  0
   13.0630  -14.1306   21.7441 C   0  0  0  0  0  0  0  0  0  0  0  0
   11.9753  -17.1006   25.5640 O   0  0  0  0  0  0  0  0  0  0  0  0
   11.0519  -17.0356   26.5518 O   0  0  0  0  0  0  0  0  0  0  0  0
  1  2  1  0
  2  3  2  0
  4  5  1  0
  4  2  1  0
  5  6  1  0
  7  6  1  0
  8  9  1  6
  8  7  1  0
 10  8  1  0
 11 10  2  0
 12 10  1  0
 13 12  1  0
 13 14  1  1
 15 14  1  0
 16 15  2  0
 17 16  1  0
 18 17  1  0
 18 23  2  0
 19 20  2  0
 19 18  1  0
 20 21  1  0
 21 22  2  0
 23 22  1  0
 23 15  1  0
 24 25  2  0
 24 13  1  0
 26 24  1  0
 27 26  1  0
 27 28  1  1
 28 29  1  0
 29 33  1  0
 30 29  2  0
 30 31  1  0
 31 32  1  0
 33 32  2  0
 34 27  1  0
 35 34  1  0
 36 34  2  0
M  END
$$$$
