RWH.pdb
     RDKit          3D

 36 38  0  0  1  0  0  0  0  0999 V2000
    8.3409  -13.2594   16.7496 N   0  0  0  0  0  0  0  0  0  0  0  0
    8.3605  -13.1624   18.1933 C   0  0  0  0  0  0  0  0  0  0  0  0
    8.3793  -11.9999   18.7286 N   0  0  0  0  0  0  0  0  0  0  0  0
    8.3690  -14.3297   18.9887 N   0  0  0  0  0  0  0  0  0  0  0  0
    8.9607  -15.5419   18.4774 C   0  0  0  0  0  0  0  0  0  0  0  0
    8.8788  -16.6977   19.4534 C   0  0  0  0  0  0  0  0  0  0  0  0
    9.6066  -16.3665   20.7243 C   0  0  0  0  0  0  0  0  0  0  0  0
    9.6035  -17.5925   21.6183 C   0  0  2  0  0  0  0  0  0  0  0  0
    8.5718  -18.4959   21.1535 N   0  0  0  0  0  0  0  0  0  0  0  0
    9.5154  -17.2375   23.0392 C   0  0  0  0  0  0  0  0  0  0  0  0
   10.4489  -16.5002   23.5073 O   0  0  0  0  0  0  0  0  0  0  0  0
    8.4692  -11.9009   19.7550 N   0  0  0  0  0  0  0  0  0  0  0  0
    8.5102  -17.6185   23.9567 C   0  0  1  0  0  0  0  0  0  0  0  0
    8.5778  -17.2256   25.3635 C   0  0  0  0  0  0  0  0  0  0  0  0
    7.2468  -16.5867   25.7200 C   0  0  0  0  0  0  0  0  0  0  0  0
    7.0213  -15.3096   25.0466 C   0  0  0  0  0  0  0  0  0  0  0  0
    6.6455  -15.1540   23.7277 N   0  0  0  0  0  0  0  0  0  0  0  0
    6.5313  -13.8229   23.4582 C   0  0  0  0  0  0  0  0  0  0  0  0
    6.8172  -13.0990   24.5513 C   0  0  0  0  0  0  0  0  0  0  0  0
    6.8546  -11.7526   24.8221 C   0  0  0  0  0  0  0  0  0  0  0  0
    7.1988  -11.3308   26.0914 C   0  0  0  0  0  0  0  0  0  0  0  0
    7.5058  -12.2211   27.0960 C   0  0  0  0  0  0  0  0  0  0  0  0
    7.4593  -13.5652   26.7906 C   0  0  0  0  0  0  0  0  0  0  0  0
    7.1254  -14.0351   25.5491 C   0  0  0  0  0  0  0  0  0  0  0  0
    8.9213  -18.3437   26.2294 O   0  0  0  0  0  0  0  0  0  0  0  0
    8.3911  -19.4897   26.1319 N   0  0  0  0  0  0  0  0  0  0  0  0
    9.9023  -18.1652   27.2405 C   0  0  1  0  0  0  0  0  0  0  0  0
   10.9078  -19.1977   27.5680 C   0  0  0  0  0  0  0  0  0  0  0  0
   11.7859  -19.3676   26.3835 C   0  0  0  0  0  0  0  0  0  0  0  0
   12.8227  -20.4091   26.4930 C   0  0  0  0  0  0  0  0  0  0  0  0
   13.4460  -21.2107   25.5884 N   0  0  0  0  0  0  0  0  0  0  0  0
   14.3783  -21.9257   26.2649 C   0  0  0  0  0  0  0  0  0  0  0  0
   14.3571  -21.5979   27.5475 N   0  0  0  0  0  0  0  0  0  0  0  0
   13.4143  -20.6741   27.7020 C   0  0  0  0  0  0  0  0  0  0  0  0
   11.6283  -18.7400   28.7897 O   0  0  0  0  0  0  0  0  0  0  0  0
   12.3829  -17.6167   28.8240 O   0  0  0  0  0  0  0  0  0  0  0  0
  1  2  1  0
  2  3  2  0
  4  5  1  0
  4  2  1  0
  5  6  1  0
  7  6  1  0
  8  9  1  6
  8  7  1  0
 10  8  1  0
 11 10  2  0
 12 10  1  0
 13 12  1  0
 13 14  1  1
 15 14  1  0
 16 15  2  0
 17 16  1  0
 18 17  1  0
 18 23  2  0
 19 20  2  0
 19 18  1  0
 20 21  1  0
 21 22  2  0
 23 22  1  0
 23 15  1  0
 24 25  2  0
 24 13  1  0
 26 24  1  0
 27 26  1  0
 27 28  1  1
 28 29  1  0
 29 33  1  0
 30 29  2  0
 30 31  1  0
 31 32  1  0
 33 32  2  0
 34 27  1  0
 35 34  1  0
 36 34  2  0
M  END
$$$$
