RWH.pdb
     RDKit          3D

 36 38  0  0  1  0  0  0  0  0999 V2000
    6.3775  -14.1394   16.1686 N   0  0  0  0  0  0  0  0  0  0  0  0
    7.7867  -13.9485   16.4367 C   0  0  0  0  0  0  0  0  0  0  0  0
    8.3042  -12.8012   16.2038 N   0  0  0  0  0  0  0  0  0  0  0  0
    8.5707  -15.0126   16.9351 N   0  0  0  0  0  0  0  0  0  0  0  0
    7.9379  -16.1021   17.6375 C   0  0  0  0  0  0  0  0  0  0  0  0
    8.7211  -16.5575   18.8518 C   0  0  0  0  0  0  0  0  0  0  0  0
    8.6850  -15.5086   19.9256 C   0  0  0  0  0  0  0  0  0  0  0  0
    7.9784  -16.0820   21.1398 C   0  0  2  0  0  0  0  0  0  0  0  0
    6.5968  -15.6498   21.1125 N   0  0  0  0  0  0  0  0  0  0  0  0
    8.6924  -15.7807   22.3856 C   0  0  0  0  0  0  0  0  0  0  0  0
    9.3413  -14.6800   22.4255 O   0  0  0  0  0  0  0  0  0  0  0  0
    9.3133  -12.6419   16.3704 N   0  0  0  0  0  0  0  0  0  0  0  0
    8.7456  -16.5719   23.5554 C   0  0  1  0  0  0  0  0  0  0  0  0
    9.5873  -16.1944   24.6899 C   0  0  0  0  0  0  0  0  0  0  0  0
    8.7204  -16.2501   25.9357 C   0  0  0  0  0  0  0  0  0  0  0  0
    7.6125  -15.2975   25.9105 C   0  0  0  0  0  0  0  0  0  0  0  0
    6.3014  -15.6006   25.6037 N   0  0  0  0  0  0  0  0  0  0  0  0
    5.5574  -14.4616   25.6844 C   0  0  0  0  0  0  0  0  0  0  0  0
    6.3311  -13.4223   26.0337 C   0  0  0  0  0  0  0  0  0  0  0  0
    6.0952  -12.0861   26.2489 C   0  0  0  0  0  0  0  0  0  0  0  0
    7.1471  -11.2663   26.6081 C   0  0  0  0  0  0  0  0  0  0  0  0
    8.4280  -11.7492   26.7579 C   0  0  0  0  0  0  0  0  0  0  0  0
    8.6304  -13.0949   26.5338 C   0  0  0  0  0  0  0  0  0  0  0  0
    7.6230  -13.9494   26.1752 C   0  0  0  0  0  0  0  0  0  0  0  0
   10.7786  -17.0244   24.7892 O   0  0  0  0  0  0  0  0  0  0  0  0
   10.7422  -18.2821   24.9330 N   0  0  0  0  0  0  0  0  0  0  0  0
   12.0594  -16.4150   24.7193 C   0  0  1  0  0  0  0  0  0  0  0  0
   13.3163  -17.1832   24.8387 C   0  0  0  0  0  0  0  0  0  0  0  0
   14.3783  -16.4289   24.1272 C   0  0  0  0  0  0  0  0  0  0  0  0
   14.2211  -16.3160   22.6663 C   0  0  0  0  0  0  0  0  0  0  0  0
   13.3086  -16.7989   21.7811 N   0  0  0  0  0  0  0  0  0  0  0  0
   13.6320  -16.2996   20.5628 C   0  0  0  0  0  0  0  0  0  0  0  0
   14.7040  -15.5287   20.6597 N   0  0  0  0  0  0  0  0  0  0  0  0
   15.0745  -15.5285   21.9360 C   0  0  0  0  0  0  0  0  0  0  0  0
   13.5829  -17.3696   26.2932 O   0  0  0  0  0  0  0  0  0  0  0  0
   14.5945  -18.1351   26.7657 O   0  0  0  0  0  0  0  0  0  0  0  0
  1  2  1  0
  2  3  2  0
  4  5  1  0
  4  2  1  0
  5  6  1  0
  7  6  1  0
  8  9  1  1
  8  7  1  0
 10  8  1  0
 11 10  2  0
 12 10  1  0
 13 12  1  0
 13 14  1  1
 15 14  1  0
 16 15  2  0
 17 16  1  0
 18 17  1  0
 18 23  2  0
 19 20  2  0
 19 18  1  0
 20 21  1  0
 21 22  2  0
 23 22  1  0
 23 15  1  0
 24 25  2  0
 24 13  1  0
 26 24  1  0
 27 26  1  0
 27 28  1  1
 28 29  1  0
 29 33  1  0
 30 29  2  0
 30 31  1  0
 31 32  1  0
 33 32  2  0
 34 27  1  0
 35 34  1  0
 36 34  2  0
M  END
$$$$
