RWH.pdb
     RDKit          3D

 36 38  0  0  1  0  0  0  0  0999 V2000
    7.5121  -15.4133   15.8565 N   0  0  0  0  0  0  0  0  0  0  0  0
    8.2810  -16.4422   15.1899 C   0  0  0  0  0  0  0  0  0  0  0  0
    8.3186  -16.4462   13.9105 N   0  0  0  0  0  0  0  0  0  0  0  0
    8.9647  -17.4241   15.9408 N   0  0  0  0  0  0  0  0  0  0  0  0
    9.2323  -17.1993   17.3404 C   0  0  0  0  0  0  0  0  0  0  0  0
   10.0102  -18.3295   17.9830 C   0  0  0  0  0  0  0  0  0  0  0  0
   10.1659  -18.0902   19.4571 C   0  0  0  0  0  0  0  0  0  0  0  0
   10.4727  -16.6211   19.6801 C   0  0  2  0  0  0  0  0  0  0  0  0
   11.8447  -16.3749   19.2882 N   0  0  0  0  0  0  0  0  0  0  0  0
   10.1349  -16.1884   21.0407 C   0  0  0  0  0  0  0  0  0  0  0  0
   11.1108  -16.0064   21.8460 O   0  0  0  0  0  0  0  0  0  0  0  0
    8.9375  -17.1080   13.4100 N   0  0  0  0  0  0  0  0  0  0  0  0
    8.8459  -15.9472   21.5677 C   0  0  1  0  0  0  0  0  0  0  0  0
    8.6624  -15.4759   22.9396 C   0  0  0  0  0  0  0  0  0  0  0  0
    7.2012  -15.0921   23.0954 C   0  0  0  0  0  0  0  0  0  0  0  0
    6.8745  -14.5954   24.4303 C   0  0  0  0  0  0  0  0  0  0  0  0
    6.1695  -15.2886   25.3934 N   0  0  0  0  0  0  0  0  0  0  0  0
    6.0623  -14.5080   26.5054 C   0  0  0  0  0  0  0  0  0  0  0  0
    6.6715  -13.3286   26.3085 C   0  0  0  0  0  0  0  0  0  0  0  0
    6.8553  -12.2081   27.0818 C   0  0  0  0  0  0  0  0  0  0  0  0
    7.5508  -11.1358   26.5581 C   0  0  0  0  0  0  0  0  0  0  0  0
    8.0669  -11.1563   25.2816 C   0  0  0  0  0  0  0  0  0  0  0  0
    7.8639  -12.2961   24.5320 C   0  0  0  0  0  0  0  0  0  0  0  0
    7.1814  -13.3850   25.0033 C   0  0  0  0  0  0  0  0  0  0  0  0
    9.0994  -16.4584   23.9202 O   0  0  0  0  0  0  0  0  0  0  0  0
    9.0118  -17.7091   23.7409 N   0  0  0  0  0  0  0  0  0  0  0  0
    9.6603  -16.0154   25.1473 C   0  0  1  0  0  0  0  0  0  0  0  0
   10.1902  -16.9469   26.1650 C   0  0  0  0  0  0  0  0  0  0  0  0
   11.1084  -16.1823   27.0455 C   0  0  0  0  0  0  0  0  0  0  0  0
   11.5220  -16.8577   28.2882 C   0  0  0  0  0  0  0  0  0  0  0  0
   10.8495  -17.2961   29.3860 N   0  0  0  0  0  0  0  0  0  0  0  0
   11.7516  -17.9181   30.1843 C   0  0  0  0  0  0  0  0  0  0  0  0
   12.9510  -17.8830   29.6247 N   0  0  0  0  0  0  0  0  0  0  0  0
   12.8270  -17.2402   28.4682 C   0  0  0  0  0  0  0  0  0  0  0  0
    9.0203  -17.5318   26.8794 O   0  0  0  0  0  0  0  0  0  0  0  0
    9.0637  -18.7292   27.5093 O   0  0  0  0  0  0  0  0  0  0  0  0
  1  2  1  0
  2  3  2  0
  4  5  1  0
  4  2  1  0
  5  6  1  0
  7  6  1  0
  8  9  1  1
  8  7  1  0
 10  8  1  0
 11 10  2  0
 12 10  1  0
 13 12  1  0
 13 14  1  6
 15 14  1  0
 16 15  2  0
 17 16  1  0
 18 17  1  0
 18 23  2  0
 19 20  2  0
 19 18  1  0
 20 21  1  0
 21 22  2  0
 23 22  1  0
 23 15  1  0
 24 25  2  0
 24 13  1  0
 26 24  1  0
 27 26  1  0
 27 28  1  1
 28 29  1  0
 29 33  1  0
 30 29  2  0
 30 31  1  0
 31 32  1  0
 33 32  2  0
 34 27  1  0
 35 34  1  0
 36 34  2  0
M  END
$$$$
