KIA.pdb
     RDKit          3D

 23 22  0  0  1  0  0  0  0  0999 V2000
   21.6899  -25.7466  -11.9515 N   0  0  0  0  0  0  0  0  0  0  0  0
   22.3612  -25.5247  -13.2133 C   0  0  1  0  0  0  0  0  0  0  0  0
   21.6322  -26.2181  -14.3500 C   0  0  0  0  0  0  0  0  0  0  0  0
   20.2040  -26.5107  -13.9726 C   0  0  0  0  0  0  0  0  0  0  0  0
   20.0503  -27.7751  -13.1800 C   0  0  0  0  0  0  0  0  0  0  0  0
   18.5987  -28.1464  -12.9690 C   0  0  0  0  0  0  0  0  0  0  0  0
   18.5712  -29.3335  -12.1166 N   0  0  0  0  0  0  0  0  0  0  0  0
   22.3875  -24.0676  -13.4811 C   0  0  0  0  0  0  0  0  0  0  0  0
   21.3241  -23.4090  -13.3651 O   0  0  0  0  0  0  0  0  0  0  0  0
   27.0273  -21.9688  -12.6192 C   0  0  0  0  0  0  0  0  0  0  0  0
   25.5413  -21.8156  -12.5396 C   0  0  0  0  0  0  0  0  0  0  0  0
   24.8670  -21.3871  -13.7878 C   0  0  2  0  0  0  0  0  0  0  0  0
   25.0807  -19.9324  -14.1449 C   0  0  0  0  0  0  0  0  0  0  0  0
   23.5006  -21.9117  -14.0056 C   0  0  2  0  0  0  0  0  0  0  0  0
   23.5485  -23.3792  -13.8608 N   0  0  0  0  0  0  0  0  0  0  0  0
   22.8228  -21.5580  -15.2575 C   0  0  0  0  0  0  0  0  0  0  0  0
   23.1092  -22.0322  -16.3768 O   0  0  0  0  0  0  0  0  0  0  0  0
   19.8452  -19.4254  -16.1964 C   0  0  0  0  0  0  0  0  0  0  0  0
   21.1315  -20.2096  -16.4527 C   0  0  2  0  0  0  0  0  0  0  0  0
   21.7458  -20.5981  -15.2257 N   0  0  0  0  0  0  0  0  0  0  0  0
   22.0431  -19.4209  -17.3066 C   0  0  0  0  0  0  0  0  0  0  0  0
   21.9529  -19.4906  -18.6779 O   0  0  0  0  0  0  0  0  0  0  0  0
   22.9040  -18.6835  -16.7843 O   0  0  0  0  0  0  0  0  0  0  0  0
  2  1  1  1
  3  2  1  0
  4  3  1  0
  5  4  1  0
  6  5  1  0
  7  6  1  0
  8  2  1  0
  8  9  2  0
 11 10  1  0
 12 11  1  0
 12 13  1  1
 14 15  1  6
 14 12  1  0
 15  8  1  0
 16 14  1  0
 17 16  2  0
 19 18  1  1
 19 20  1  0
 20 16  1  0
 21 19  1  0
 21 22  1  0
 23 21  2  0
M  END
$$$$
