KIA.pdb
     RDKit          3D

 23 22  0  0  1  0  0  0  0  0999 V2000
   29.7758  -27.0442  -16.1366 N   0  0  0  0  0  0  0  0  0  0  0  0
   30.1975  -27.9894  -17.1469 C   0  0  1  0  0  0  0  0  0  0  0  0
   31.5853  -27.6553  -17.6633 C   0  0  0  0  0  0  0  0  0  0  0  0
   31.5156  -26.6362  -18.7697 C   0  0  0  0  0  0  0  0  0  0  0  0
   32.8658  -26.2182  -19.2729 C   0  0  0  0  0  0  0  0  0  0  0  0
   32.7722  -25.3238  -20.4897 C   0  0  0  0  0  0  0  0  0  0  0  0
   34.1365  -25.0584  -20.9423 N   0  0  0  0  0  0  0  0  0  0  0  0
   30.2255  -29.3417  -16.5420 C   0  0  0  0  0  0  0  0  0  0  0  0
   30.6819  -29.4782  -15.3796 O   0  0  0  0  0  0  0  0  0  0  0  0
   26.2146  -31.0849  -16.2267 C   0  0  0  0  0  0  0  0  0  0  0  0
   27.5447  -31.3257  -15.5855 C   0  0  0  0  0  0  0  0  0  0  0  0
   28.4463  -32.2620  -16.2973 C   0  0  2  0  0  0  0  0  0  0  0  0
   28.2983  -33.7091  -15.8807 C   0  0  0  0  0  0  0  0  0  0  0  0
   29.8318  -31.7926  -16.5203 C   0  0  2  0  0  0  0  0  0  0  0  0
   29.7650  -30.4877  -17.2057 N   0  0  0  0  0  0  0  0  0  0  0  0
   30.7497  -32.6839  -17.2376 C   0  0  0  0  0  0  0  0  0  0  0  0
   30.7723  -32.8286  -18.4779 O   0  0  0  0  0  0  0  0  0  0  0  0
   33.5764  -34.9994  -16.2390 C   0  0  0  0  0  0  0  0  0  0  0  0
   32.5320  -34.3948  -17.1764 C   0  0  2  0  0  0  0  0  0  0  0  0
   31.7049  -33.4610  -16.4853 N   0  0  0  0  0  0  0  0  0  0  0  0
   31.7450  -35.4685  -17.8166 C   0  0  0  0  0  0  0  0  0  0  0  0
   32.0684  -35.9173  -19.0766 O   0  0  0  0  0  0  0  0  0  0  0  0
   30.7774  -35.9761  -17.2134 O   0  0  0  0  0  0  0  0  0  0  0  0
  2  1  1  1
  3  2  1  0
  4  3  1  0
  5  4  1  0
  6  5  1  0
  7  6  1  0
  8  2  1  0
  8  9  2  0
 11 10  1  0
 12 11  1  0
 12 13  1  1
 14 15  1  6
 14 12  1  0
 15  8  1  0
 16 14  1  0
 17 16  2  0
 19 18  1  1
 19 20  1  0
 20 16  1  0
 21 19  1  0
 21 22  1  0
 23 21  2  0
M  END
$$$$
