KIA.pdb
     RDKit          3D

 23 22  0  0  1  0  0  0  0  0999 V2000
   21.8181  -19.4257  -15.0594 N   0  0  0  0  0  0  0  0  0  0  0  0
   22.0376  -18.7809  -16.3354 C   0  0  1  0  0  0  0  0  0  0  0  0
   20.8046  -18.8764  -17.2157 C   0  0  0  0  0  0  0  0  0  0  0  0
   20.6374  -20.2719  -17.7561 C   0  0  0  0  0  0  0  0  0  0  0  0
   21.6632  -20.6310  -18.7903 C   0  0  0  0  0  0  0  0  0  0  0  0
   21.5033  -22.0513  -19.2870 C   0  0  0  0  0  0  0  0  0  0  0  0
   22.6255  -22.3298  -20.1815 N   0  0  0  0  0  0  0  0  0  0  0  0
   22.3418  -17.3512  -16.0926 C   0  0  0  0  0  0  0  0  0  0  0  0
   21.6187  -16.7028  -15.2959 O   0  0  0  0  0  0  0  0  0  0  0  0
   27.0043  -16.5774  -15.2617 C   0  0  0  0  0  0  0  0  0  0  0  0
   25.6136  -16.0795  -15.0240 C   0  0  0  0  0  0  0  0  0  0  0  0
   25.0875  -15.1249  -16.0279 C   0  0  2  0  0  0  0  0  0  0  0  0
   25.5936  -13.7080  -15.8671 C   0  0  0  0  0  0  0  0  0  0  0  0
   23.6555  -15.2639  -16.3742 C   0  0  2  0  0  0  0  0  0  0  0  0
   23.4046  -16.6781  -16.7117 N   0  0  0  0  0  0  0  0  0  0  0  0
   23.1193  -14.3985  -17.4302 C   0  0  0  0  0  0  0  0  0  0  0  0
   23.4391  -14.4698  -18.6353 O   0  0  0  0  0  0  0  0  0  0  0  0
   20.4010  -11.7954  -17.6629 C   0  0  0  0  0  0  0  0  0  0  0  0
   21.6825  -12.5030  -18.1011 C   0  0  2  0  0  0  0  0  0  0  0  0
   22.1528  -13.3845  -17.0836 N   0  0  0  0  0  0  0  0  0  0  0  0
   22.7022  -11.5075  -18.4904 C   0  0  0  0  0  0  0  0  0  0  0  0
   22.7086  -10.9710  -19.7575 O   0  0  0  0  0  0  0  0  0  0  0  0
   23.5673  -11.1468  -17.6662 O   0  0  0  0  0  0  0  0  0  0  0  0
  2  1  1  1
  3  2  1  0
  4  3  1  0
  5  4  1  0
  6  5  1  0
  7  6  1  0
  8  2  1  0
  8  9  2  0
 11 10  1  0
 12 11  1  0
 12 13  1  1
 14 15  1  6
 14 12  1  0
 15  8  1  0
 16 14  1  0
 17 16  2  0
 19 18  1  1
 19 20  1  0
 20 16  1  0
 21 19  1  0
 21 22  1  0
 23 21  2  0
M  END
$$$$
