KIA.pdb
     RDKit          3D

 23 22  0  0  1  0  0  0  0  0999 V2000
   27.1767  -20.9181  -13.7753 N   0  0  0  0  0  0  0  0  0  0  0  0
   26.1518  -20.0389  -13.2569 C   0  0  1  0  0  0  0  0  0  0  0  0
   25.0436  -19.8316  -14.2734 C   0  0  0  0  0  0  0  0  0  0  0  0
   25.5206  -18.9830  -15.4223 C   0  0  0  0  0  0  0  0  0  0  0  0
   26.0055  -17.6292  -14.9944 C   0  0  0  0  0  0  0  0  0  0  0  0
   26.3371  -16.7403  -16.1731 C   0  0  0  0  0  0  0  0  0  0  0  0
   27.7402  -16.9705  -16.5122 N   0  0  0  0  0  0  0  0  0  0  0  0
   25.5746  -20.6569  -12.0402 C   0  0  0  0  0  0  0  0  0  0  0  0
   25.2628  -21.8735  -12.0659 O   0  0  0  0  0  0  0  0  0  0  0  0
   27.4915  -19.4227   -7.2480 C   0  0  0  0  0  0  0  0  0  0  0  0
   26.8683  -20.1129   -8.4200 C   0  0  0  0  0  0  0  0  0  0  0  0
   25.3871  -20.1012   -8.4656 C   0  0  2  0  0  0  0  0  0  0  0  0
   24.7195  -20.4822   -7.1623 C   0  0  0  0  0  0  0  0  0  0  0  0
   24.7668  -20.6474   -9.6930 C   0  0  2  0  0  0  0  0  0  0  0  0
   25.3562  -19.9478  -10.8505 N   0  0  0  0  0  0  0  0  0  0  0  0
   23.3034  -20.6225   -9.7900 C   0  0  0  0  0  0  0  0  0  0  0  0
   22.6488  -19.7564  -10.4073 O   0  0  0  0  0  0  0  0  0  0  0  0
   20.6439  -21.8631  -10.6527 C   0  0  0  0  0  0  0  0  0  0  0  0
   21.1156  -21.6203   -9.2197 C   0  0  2  0  0  0  0  0  0  0  0  0
   22.5388  -21.6577   -9.1372 N   0  0  0  0  0  0  0  0  0  0  0  0
   20.4792  -22.5915   -8.3064 C   0  0  0  0  0  0  0  0  0  0  0  0
   19.1151  -22.5917   -8.1251 O   0  0  0  0  0  0  0  0  0  0  0  0
   21.1807  -23.4209   -7.6917 O   0  0  0  0  0  0  0  0  0  0  0  0
  2  1  1  6
  3  2  1  0
  4  3  1  0
  5  4  1  0
  6  5  1  0
  7  6  1  0
  8  2  1  0
  8  9  2  0
 11 10  1  0
 12 11  1  0
 12 13  1  1
 14 15  1  6
 14 12  1  0
 15  8  1  0
 16 14  1  0
 17 16  2  0
 19 18  1  6
 19 20  1  0
 20 16  1  0
 21 19  1  0
 21 22  1  0
 23 21  2  0
M  END
$$$$
