KIA.pdb
     RDKit          3D

 23 22  0  0  1  0  0  0  0  0999 V2000
   22.0874  -19.1676  -15.2220 N   0  0  0  0  0  0  0  0  0  0  0  0
   21.8667  -18.2515  -16.3193 C   0  0  1  0  0  0  0  0  0  0  0  0
   20.4366  -18.3343  -16.8217 C   0  0  0  0  0  0  0  0  0  0  0  0
   20.3084  -19.3686  -17.9086 C   0  0  0  0  0  0  0  0  0  0  0  0
   20.0785  -20.7540  -17.3806 C   0  0  0  0  0  0  0  0  0  0  0  0
   19.8999  -21.7677  -18.4897 C   0  0  0  0  0  0  0  0  0  0  0  0
   19.7596  -23.0806  -17.8626 N   0  0  0  0  0  0  0  0  0  0  0  0
   22.1256  -16.8736  -15.8399 C   0  0  0  0  0  0  0  0  0  0  0  0
   21.6482  -16.5150  -14.7346 O   0  0  0  0  0  0  0  0  0  0  0  0
   26.7869  -15.4862  -15.3240 C   0  0  0  0  0  0  0  0  0  0  0  0
   25.3038  -15.4690  -15.1280 C   0  0  0  0  0  0  0  0  0  0  0  0
   24.5680  -14.4034  -15.8485 C   0  0  2  0  0  0  0  0  0  0  0  0
   25.0163  -12.9980  -15.5115 C   0  0  0  0  0  0  0  0  0  0  0  0
   23.1081  -14.5990  -15.9909 C   0  0  2  0  0  0  0  0  0  0  0  0
   22.8827  -15.9405  -16.5623 N   0  0  0  0  0  0  0  0  0  0  0  0
   22.3549  -13.6001  -16.7567 C   0  0  0  0  0  0  0  0  0  0  0  0
   22.5878  -13.2951  -17.9452 O   0  0  0  0  0  0  0  0  0  0  0  0
   19.0989  -11.8195  -16.3841 C   0  0  0  0  0  0  0  0  0  0  0  0
   20.5474  -11.9179  -16.8606 C   0  0  2  0  0  0  0  0  0  0  0  0
   21.2629  -12.9043  -16.1197 N   0  0  0  0  0  0  0  0  0  0  0  0
   21.1941  -10.5915  -16.7909 C   0  0  0  0  0  0  0  0  0  0  0  0
   20.7584   -9.5578  -17.5878 O   0  0  0  0  0  0  0  0  0  0  0  0
   22.1441  -10.4022  -16.0039 O   0  0  0  0  0  0  0  0  0  0  0  0
  2  1  1  1
  3  2  1  0
  4  3  1  0
  5  4  1  0
  6  5  1  0
  7  6  1  0
  8  2  1  0
  8  9  2  0
 11 10  1  0
 12 11  1  0
 12 13  1  1
 14 15  1  6
 14 12  1  0
 15  8  1  0
 16 14  1  0
 17 16  2  0
 19 18  1  1
 19 20  1  0
 20 16  1  0
 21 19  1  0
 21 22  1  0
 23 21  2  0
M  END
$$$$
