KIA.pdb
     RDKit          3D

 23 22  0  0  1  0  0  0  0  0999 V2000
   14.2370  -13.7243  -14.8490 N   0  0  0  0  0  0  0  0  0  0  0  0
   14.7073  -12.5542  -15.5575 C   0  0  1  0  0  0  0  0  0  0  0  0
   13.7435  -12.1595  -16.6619 C   0  0  0  0  0  0  0  0  0  0  0  0
   13.9159  -13.0457  -17.8670 C   0  0  0  0  0  0  0  0  0  0  0  0
   12.9709  -14.2109  -17.8827 C   0  0  0  0  0  0  0  0  0  0  0  0
   13.0546  -14.9994  -19.1714 C   0  0  0  0  0  0  0  0  0  0  0  0
   12.1662  -16.1522  -19.0362 N   0  0  0  0  0  0  0  0  0  0  0  0
   14.8146  -11.4337  -14.5940 C   0  0  0  0  0  0  0  0  0  0  0  0
   13.8416  -11.1859  -13.8391 O   0  0  0  0  0  0  0  0  0  0  0  0
   16.0008   -9.0057  -10.3337 C   0  0  0  0  0  0  0  0  0  0  0  0
   17.1413   -8.9963  -11.3019 C   0  0  0  0  0  0  0  0  0  0  0  0
   17.0148   -9.9122  -12.4600 C   0  0  2  0  0  0  0  0  0  0  0  0
   18.3342  -10.4047  -13.0134 C   0  0  0  0  0  0  0  0  0  0  0  0
   15.9852   -9.5596  -13.4626 C   0  0  2  0  0  0  0  0  0  0  0  0
   15.9564  -10.6279  -14.4799 N   0  0  0  0  0  0  0  0  0  0  0  0
   16.0878   -8.2518  -14.1187 C   0  0  0  0  0  0  0  0  0  0  0  0
   16.9911   -7.9291  -14.9184 O   0  0  0  0  0  0  0  0  0  0  0  0
   13.8636   -5.2139  -14.3817 C   0  0  0  0  0  0  0  0  0  0  0  0
   15.1754   -5.9878  -14.5052 C   0  0  2  0  0  0  0  0  0  0  0  0
   15.0902   -7.2468  -13.8409 N   0  0  0  0  0  0  0  0  0  0  0  0
   16.2960   -5.1673  -14.0019 C   0  0  0  0  0  0  0  0  0  0  0  0
   17.0007   -4.3474  -14.8531 O   0  0  0  0  0  0  0  0  0  0  0  0
   16.6100   -5.2150  -12.7949 O   0  0  0  0  0  0  0  0  0  0  0  0
  2  1  1  1
  3  2  1  0
  4  3  1  0
  5  4  1  0
  6  5  1  0
  7  6  1  0
  8  2  1  0
  8  9  2  0
 11 10  1  0
 12 11  1  0
 12 13  1  6
 14 15  1  6
 14 12  1  0
 15  8  1  0
 16 14  1  0
 17 16  2  0
 19 18  1  1
 19 20  1  0
 20 16  1  0
 21 19  1  0
 21 22  1  0
 23 21  2  0
M  END
$$$$
