KIA.pdb
     RDKit          3D

 23 22  0  0  1  0  0  0  0  0999 V2000
   19.5356  -13.9477  -17.0238 N   0  0  0  0  0  0  0  0  0  0  0  0
   19.3990  -12.6526  -17.6534 C   0  0  1  0  0  0  0  0  0  0  0  0
   17.9848  -12.4382  -18.1620 C   0  0  0  0  0  0  0  0  0  0  0  0
   17.6727  -13.3809  -19.2940 C   0  0  0  0  0  0  0  0  0  0  0  0
   16.3635  -13.0850  -19.9643 C   0  0  0  0  0  0  0  0  0  0  0  0
   16.0895  -14.0180  -21.1236 C   0  0  0  0  0  0  0  0  0  0  0  0
   14.8200  -13.6093  -21.7221 N   0  0  0  0  0  0  0  0  0  0  0  0
   19.7093  -11.6077  -16.6498 C   0  0  0  0  0  0  0  0  0  0  0  0
   19.0575  -11.5836  -15.5761 O   0  0  0  0  0  0  0  0  0  0  0  0
   23.9849  -11.2541  -14.1768 C   0  0  0  0  0  0  0  0  0  0  0  0
   22.6047  -11.1013  -14.7333 C   0  0  0  0  0  0  0  0  0  0  0  0
   22.2620   -9.7571  -15.2545 C   0  0  2  0  0  0  0  0  0  0  0  0
   22.7686   -8.6110  -14.4063 C   0  0  0  0  0  0  0  0  0  0  0  0
   20.8984   -9.5983  -15.8068 C   0  0  2  0  0  0  0  0  0  0  0  0
   20.7018  -10.6353  -16.8377 N   0  0  0  0  0  0  0  0  0  0  0  0
   20.5262   -8.2857  -16.3454 C   0  0  0  0  0  0  0  0  0  0  0  0
   21.1489   -7.6876  -17.2478 O   0  0  0  0  0  0  0  0  0  0  0  0
   17.5748   -6.0072  -16.1995 C   0  0  0  0  0  0  0  0  0  0  0  0
   19.0761   -6.2867  -16.2525 C   0  0  2  0  0  0  0  0  0  0  0  0
   19.3644   -7.6133  -15.8159 N   0  0  0  0  0  0  0  0  0  0  0  0
   19.8078   -5.2710  -15.4681 C   0  0  0  0  0  0  0  0  0  0  0  0
   19.8629   -3.9637  -15.8942 O   0  0  0  0  0  0  0  0  0  0  0  0
   20.3824   -5.5966  -14.4091 O   0  0  0  0  0  0  0  0  0  0  0  0
  2  1  1  1
  3  2  1  0
  4  3  1  0
  5  4  1  0
  6  5  1  0
  7  6  1  0
  8  2  1  0
  8  9  2  0
 11 10  1  0
 12 11  1  0
 12 13  1  1
 14 15  1  6
 14 12  1  0
 15  8  1  0
 16 14  1  0
 17 16  2  0
 19 18  1  1
 19 20  1  0
 20 16  1  0
 21 19  1  0
 21 22  1  0
 23 21  2  0
M  END
$$$$
