KIA.pdb
     RDKit          3D

 23 22  0  0  1  0  0  0  0  0999 V2000
   23.2927  -15.3282  -17.1161 N   0  0  0  0  0  0  0  0  0  0  0  0
   23.3404  -14.3104  -16.0895 C   0  0  1  0  0  0  0  0  0  0  0  0
   24.7683  -13.8704  -15.8214 C   0  0  0  0  0  0  0  0  0  0  0  0
   25.5619  -14.9809  -15.1855 C   0  0  0  0  0  0  0  0  0  0  0  0
   26.5685  -15.5935  -16.1141 C   0  0  0  0  0  0  0  0  0  0  0  0
   27.3152  -16.7426  -15.4725 C   0  0  0  0  0  0  0  0  0  0  0  0
   28.1398  -17.3604  -16.5093 N   0  0  0  0  0  0  0  0  0  0  0  0
   22.5588  -13.1398  -16.5524 C   0  0  0  0  0  0  0  0  0  0  0  0
   22.6844  -12.7571  -17.7423 O   0  0  0  0  0  0  0  0  0  0  0  0
   18.4385  -13.9891  -16.5207 C   0  0  0  0  0  0  0  0  0  0  0  0
   19.0834  -12.8094  -17.1769 C   0  0  0  0  0  0  0  0  0  0  0  0
   19.4705  -11.6988  -16.2754 C   0  0  2  0  0  0  0  0  0  0  0  0
   18.4782  -10.5573  -16.2296 C   0  0  0  0  0  0  0  0  0  0  0  0
   20.8989  -11.3127  -16.2901 C   0  0  2  0  0  0  0  0  0  0  0  0
   21.6779  -12.4304  -15.7237 N   0  0  0  0  0  0  0  0  0  0  0  0
   21.2763  -10.0590  -15.6289 C   0  0  0  0  0  0  0  0  0  0  0  0
   21.3198   -9.8957  -14.3914 O   0  0  0  0  0  0  0  0  0  0  0  0
   22.5552   -6.6960  -16.8083 C   0  0  0  0  0  0  0  0  0  0  0  0
   22.0430   -7.7152  -15.7916 C   0  0  2  0  0  0  0  0  0  0  0  0
   21.6270   -8.9165  -16.4377 N   0  0  0  0  0  0  0  0  0  0  0  0
   20.9645   -7.1189  -14.9770 C   0  0  0  0  0  0  0  0  0  0  0  0
   21.2579   -6.4392  -13.8170 O   0  0  0  0  0  0  0  0  0  0  0  0
   19.7756   -7.2299  -15.3400 O   0  0  0  0  0  0  0  0  0  0  0  0
  2  1  1  6
  3  2  1  0
  4  3  1  0
  5  4  1  0
  6  5  1  0
  7  6  1  0
  8  2  1  0
  8  9  2  0
 11 10  1  0
 12 11  1  0
 12 13  1  6
 14 15  1  1
 14 12  1  0
 15  8  1  0
 16 14  1  0
 17 16  2  0
 19 18  1  6
 19 20  1  0
 20 16  1  0
 21 19  1  0
 21 22  1  0
 23 21  2  0
M  END
$$$$
