KIA.pdb
     RDKit          3D

 23 22  0  0  1  0  0  0  0  0999 V2000
   29.1160  -23.5088  -17.3167 N   0  0  0  0  0  0  0  0  0  0  0  0
   27.7844  -22.9542  -17.2094 C   0  0  1  0  0  0  0  0  0  0  0  0
   26.7338  -24.0499  -17.2110 C   0  0  0  0  0  0  0  0  0  0  0  0
   27.2946  -25.3323  -16.6555 C   0  0  0  0  0  0  0  0  0  0  0  0
   27.0335  -26.5200  -17.5341 C   0  0  0  0  0  0  0  0  0  0  0  0
   28.2856  -27.3302  -17.7897 C   0  0  0  0  0  0  0  0  0  0  0  0
   28.4424  -28.2564  -16.6698 N   0  0  0  0  0  0  0  0  0  0  0  0
   27.6899  -22.2036  -15.9354 C   0  0  0  0  0  0  0  0  0  0  0  0
   28.5711  -22.3819  -15.0581 O   0  0  0  0  0  0  0  0  0  0  0  0
   27.5207  -17.2412  -16.4091 C   0  0  0  0  0  0  0  0  0  0  0  0
   27.7363  -18.5837  -15.7850 C   0  0  0  0  0  0  0  0  0  0  0  0
   26.6768  -19.0436  -14.8566 C   0  0  2  0  0  0  0  0  0  0  0  0
   26.3272  -18.0522  -13.7682 C   0  0  0  0  0  0  0  0  0  0  0  0
   26.7426  -20.4623  -14.4411 C   0  0  2  0  0  0  0  0  0  0  0  0
   26.6583  -21.2960  -15.6555 N   0  0  0  0  0  0  0  0  0  0  0  0
   25.7697  -20.9309  -13.4485 C   0  0  0  0  0  0  0  0  0  0  0  0
   24.6528  -21.4164  -13.7253 O   0  0  0  0  0  0  0  0  0  0  0  0
   25.6827  -21.1500   -9.6670 C   0  0  0  0  0  0  0  0  0  0  0  0
   25.1058  -21.1847  -11.0816 C   0  0  2  0  0  0  0  0  0  0  0  0
   26.0971  -20.8377  -12.0462 N   0  0  0  0  0  0  0  0  0  0  0  0
   23.9177  -20.3107  -11.1649 C   0  0  0  0  0  0  0  0  0  0  0  0
   22.6935  -20.7489  -10.7146 O   0  0  0  0  0  0  0  0  0  0  0  0
   24.0204  -19.1641  -11.6472 O   0  0  0  0  0  0  0  0  0  0  0  0
  2  1  1  1
  3  2  1  0
  4  3  1  0
  5  4  1  0
  6  5  1  0
  7  6  1  0
  8  2  1  0
  8  9  2  0
 11 10  1  0
 12 11  1  0
 12 13  1  1
 14 15  1  6
 14 12  1  0
 15  8  1  0
 16 14  1  0
 17 16  2  0
 19 18  1  1
 19 20  1  0
 20 16  1  0
 21 19  1  0
 21 22  1  0
 23 21  2  0
M  END
$$$$
