KIA.pdb
     RDKit          3D

 23 22  0  0  1  0  0  0  0  0999 V2000
   25.9444  -21.1266  -13.0341 N   0  0  0  0  0  0  0  0  0  0  0  0
   24.8141  -20.5187  -12.3671 C   0  0  1  0  0  0  0  0  0  0  0  0
   23.5226  -20.7989  -13.1141 C   0  0  0  0  0  0  0  0  0  0  0  0
   23.3316  -19.8200  -14.2423 C   0  0  0  0  0  0  0  0  0  0  0  0
   24.5334  -18.9545  -14.4824 C   0  0  0  0  0  0  0  0  0  0  0  0
   24.3436  -18.0246  -15.6608 C   0  0  0  0  0  0  0  0  0  0  0  0
   23.1519  -17.2209  -15.3951 N   0  0  0  0  0  0  0  0  0  0  0  0
   24.7109  -21.0896  -11.0038 C   0  0  0  0  0  0  0  0  0  0  0  0
   24.7131  -22.3383  -10.8660 O   0  0  0  0  0  0  0  0  0  0  0  0
   27.3653  -18.8822   -7.1576 C   0  0  0  0  0  0  0  0  0  0  0  0
   26.6719  -19.9640   -7.9238 C   0  0  0  0  0  0  0  0  0  0  0  0
   25.2607  -20.2191   -7.5503 C   0  0  2  0  0  0  0  0  0  0  0  0
   25.0592  -20.6099   -6.1025 C   0  0  0  0  0  0  0  0  0  0  0  0
   24.4469  -20.9609   -8.5388 C   0  0  2  0  0  0  0  0  0  0  0  0
   24.6100  -20.3014   -9.8485 N   0  0  0  0  0  0  0  0  0  0  0  0
   23.0208  -21.1466   -8.2504 C   0  0  0  0  0  0  0  0  0  0  0  0
   22.1468  -20.2673   -8.4017 O   0  0  0  0  0  0  0  0  0  0  0  0
   20.6910  -23.9771   -7.8195 C   0  0  0  0  0  0  0  0  0  0  0  0
   21.1859  -22.5848   -7.4303 C   0  0  2  0  0  0  0  0  0  0  0  0
   22.5649  -22.4234   -7.7562 N   0  0  0  0  0  0  0  0  0  0  0  0
   20.9190  -22.3348   -5.9990 C   0  0  0  0  0  0  0  0  0  0  0  0
   21.9567  -22.2320   -5.1012 O   0  0  0  0  0  0  0  0  0  0  0  0
   19.7438  -22.2152   -5.5961 O   0  0  0  0  0  0  0  0  0  0  0  0
  2  1  1  6
  3  2  1  0
  4  3  1  0
  5  4  1  0
  6  5  1  0
  7  6  1  0
  8  2  1  0
  8  9  2  0
 11 10  1  0
 12 11  1  0
 12 13  1  1
 14 15  1  6
 14 12  1  0
 15  8  1  0
 16 14  1  0
 17 16  2  0
 19 18  1  1
 19 20  1  0
 20 16  1  0
 21 19  1  0
 21 22  1  0
 23 21  2  0
M  END
$$$$
