KIA.pdb
     RDKit          3D

 23 22  0  0  1  0  0  0  0  0999 V2000
   28.6564  -20.9179  -15.3385 N   0  0  0  0  0  0  0  0  0  0  0  0
   27.9197  -19.9085  -14.6102 C   0  0  1  0  0  0  0  0  0  0  0  0
   27.3614  -18.8546  -15.5493 C   0  0  0  0  0  0  0  0  0  0  0  0
   28.4676  -18.0180  -16.1359 C   0  0  0  0  0  0  0  0  0  0  0  0
   28.3498  -17.8415  -17.6211 C   0  0  0  0  0  0  0  0  0  0  0  0
   29.4272  -16.9367  -18.1779 C   0  0  0  0  0  0  0  0  0  0  0  0
   29.1746  -16.7873  -19.6099 N   0  0  0  0  0  0  0  0  0  0  0  0
   26.7937  -20.5658  -13.9063 C   0  0  0  0  0  0  0  0  0  0  0  0
   26.3998  -21.6896  -14.3063 O   0  0  0  0  0  0  0  0  0  0  0  0
   26.8570  -20.7272   -8.7012 C   0  0  0  0  0  0  0  0  0  0  0  0
   26.6110  -21.0040  -10.1507 C   0  0  0  0  0  0  0  0  0  0  0  0
   25.2767  -20.6166  -10.6663 C   0  0  2  0  0  0  0  0  0  0  0  0
   24.1197  -21.0538   -9.7947 C   0  0  0  0  0  0  0  0  0  0  0  0
   25.0745  -20.7553  -12.1256 C   0  0  2  0  0  0  0  0  0  0  0  0
   26.1387  -19.9934  -12.8066 N   0  0  0  0  0  0  0  0  0  0  0  0
   23.7667  -20.3809  -12.6743 C   0  0  0  0  0  0  0  0  0  0  0  0
   23.2592  -19.2435  -12.5828 O   0  0  0  0  0  0  0  0  0  0  0  0
   21.3529  -21.8374  -15.1178 C   0  0  0  0  0  0  0  0  0  0  0  0
   21.7040  -21.0151  -13.8786 C   0  0  2  0  0  0  0  0  0  0  0  0
   22.9886  -21.3744  -13.3743 N   0  0  0  0  0  0  0  0  0  0  0  0
   20.6450  -21.1598  -12.8589 C   0  0  0  0  0  0  0  0  0  0  0  0
   19.4715  -20.4487  -12.9627 O   0  0  0  0  0  0  0  0  0  0  0  0
   20.8116  -21.9325  -11.8930 O   0  0  0  0  0  0  0  0  0  0  0  0
  2  1  1  6
  3  2  1  0
  4  3  1  0
  5  4  1  0
  6  5  1  0
  7  6  1  0
  8  2  1  0
  8  9  2  0
 11 10  1  0
 12 11  1  0
 12 13  1  1
 14 15  1  6
 14 12  1  0
 15  8  1  0
 16 14  1  0
 17 16  2  0
 19 18  1  6
 19 20  1  0
 20 16  1  0
 21 19  1  0
 21 22  1  0
 23 21  2  0
M  END
$$$$
