KIA.pdb
     RDKit          3D

 23 22  0  0  1  0  0  0  0  0999 V2000
   28.1360  -21.9964  -15.6915 N   0  0  0  0  0  0  0  0  0  0  0  0
   27.4398  -20.7999  -15.2724 C   0  0  1  0  0  0  0  0  0  0  0  0
   26.9374  -20.0120  -16.4687 C   0  0  0  0  0  0  0  0  0  0  0  0
   28.0792  -19.3490  -17.1928 C   0  0  0  0  0  0  0  0  0  0  0  0
   28.8456  -20.2910  -18.0739 C   0  0  0  0  0  0  0  0  0  0  0  0
   29.9078  -19.5812  -18.8846 C   0  0  0  0  0  0  0  0  0  0  0  0
   30.6420  -20.6016  -19.6306 N   0  0  0  0  0  0  0  0  0  0  0  0
   26.2795  -21.1986  -14.4416 C   0  0  0  0  0  0  0  0  0  0  0  0
   25.6461  -22.2410  -14.7424 O   0  0  0  0  0  0  0  0  0  0  0  0
   26.6797  -20.6323   -9.2109 C   0  0  0  0  0  0  0  0  0  0  0  0
   26.3107  -21.1306  -10.5725 C   0  0  0  0  0  0  0  0  0  0  0  0
   25.0051  -20.6679  -11.0992 C   0  0  2  0  0  0  0  0  0  0  0  0
   23.8468  -20.8482  -10.1424 C   0  0  0  0  0  0  0  0  0  0  0  0
   24.7253  -20.9800  -12.5183 C   0  0  2  0  0  0  0  0  0  0  0  0
   25.8475  -20.4662  -13.3267 N   0  0  0  0  0  0  0  0  0  0  0  0
   23.4533  -20.5170  -13.0834 C   0  0  0  0  0  0  0  0  0  0  0  0
   23.1390  -19.3175  -13.2324 O   0  0  0  0  0  0  0  0  0  0  0  0
   20.6085  -22.0966  -14.9459 C   0  0  0  0  0  0  0  0  0  0  0  0
   21.2349  -21.0373  -14.0401 C   0  0  2  0  0  0  0  0  0  0  0  0
   22.4766  -21.4916  -13.5058 N   0  0  0  0  0  0  0  0  0  0  0  0
   20.2812  -20.6499  -12.9804 C   0  0  0  0  0  0  0  0  0  0  0  0
   19.2862  -19.7342  -13.2351 O   0  0  0  0  0  0  0  0  0  0  0  0
   20.3750  -21.1547  -11.8429 O   0  0  0  0  0  0  0  0  0  0  0  0
  2  1  1  6
  3  2  1  0
  4  3  1  0
  5  4  1  0
  6  5  1  0
  7  6  1  0
  8  2  1  0
  8  9  2  0
 11 10  1  0
 12 11  1  0
 12 13  1  1
 14 15  1  6
 14 12  1  0
 15  8  1  0
 16 14  1  0
 17 16  2  0
 19 18  1  1
 19 20  1  0
 20 16  1  0
 21 19  1  0
 21 22  1  0
 23 21  2  0
M  END
$$$$
