KIA.pdb
     RDKit          3D

 23 22  0  0  1  0  0  0  0  0999 V2000
   26.4282  -21.4871  -13.2229 N   0  0  0  0  0  0  0  0  0  0  0  0
   25.4553  -20.6198  -12.5956 C   0  0  1  0  0  0  0  0  0  0  0  0
   24.1490  -20.6139  -13.3688 C   0  0  0  0  0  0  0  0  0  0  0  0
   24.3621  -20.1319  -14.7794 C   0  0  0  0  0  0  0  0  0  0  0  0
   24.6343  -18.6590  -14.8649 C   0  0  0  0  0  0  0  0  0  0  0  0
   24.7304  -18.1761  -16.2956 C   0  0  0  0  0  0  0  0  0  0  0  0
   24.9120  -16.7262  -16.2556 N   0  0  0  0  0  0  0  0  0  0  0  0
   25.1968  -21.1187  -11.2246 C   0  0  0  0  0  0  0  0  0  0  0  0
   24.9291  -22.3351  -11.0609 O   0  0  0  0  0  0  0  0  0  0  0  0
   27.8573  -19.1569   -6.9792 C   0  0  0  0  0  0  0  0  0  0  0  0
   27.1184  -20.0251   -7.9478 C   0  0  0  0  0  0  0  0  0  0  0  0
   25.6539  -20.1224   -7.7430 C   0  0  2  0  0  0  0  0  0  0  0  0
   25.2393  -20.3713   -6.3093 C   0  0  0  0  0  0  0  0  0  0  0  0
   24.8983  -20.8695   -8.7729 C   0  0  2  0  0  0  0  0  0  0  0  0
   25.2358  -20.2962  -10.0898 N   0  0  0  0  0  0  0  0  0  0  0  0
   23.4412  -20.9537   -8.6266 C   0  0  0  0  0  0  0  0  0  0  0  0
   22.6483  -20.0239   -8.8841 O   0  0  0  0  0  0  0  0  0  0  0  0
   20.8088  -23.4403   -8.5692 C   0  0  0  0  0  0  0  0  0  0  0  0
   21.4503  -22.2252   -7.9007 C   0  0  2  0  0  0  0  0  0  0  0  0
   22.8530  -22.1839   -8.1543 N   0  0  0  0  0  0  0  0  0  0  0  0
   21.1455  -22.2236   -6.4552 C   0  0  0  0  0  0  0  0  0  0  0  0
   19.8573  -22.0300   -6.0117 O   0  0  0  0  0  0  0  0  0  0  0  0
   22.0611  -22.3989   -5.6252 O   0  0  0  0  0  0  0  0  0  0  0  0
  2  1  1  6
  3  2  1  0
  4  3  1  0
  5  4  1  0
  6  5  1  0
  7  6  1  0
  8  2  1  0
  8  9  2  0
 11 10  1  0
 12 11  1  0
 12 13  1  1
 14 15  1  6
 14 12  1  0
 15  8  1  0
 16 14  1  0
 17 16  2  0
 19 18  1  1
 19 20  1  0
 20 16  1  0
 21 19  1  0
 21 22  1  0
 23 21  2  0
M  END
$$$$
