KIA.pdb
     RDKit          3D

 23 22  0  0  1  0  0  0  0  0999 V2000
   20.3506  -20.3612  -12.6705 N   0  0  0  0  0  0  0  0  0  0  0  0
   21.2507  -21.0900  -13.5370 C   0  0  1  0  0  0  0  0  0  0  0  0
   20.6888  -21.1978  -14.9430 C   0  0  0  0  0  0  0  0  0  0  0  0
   19.3816  -21.9453  -14.9430 C   0  0  0  0  0  0  0  0  0  0  0  0
   19.5542  -23.4357  -14.9488 C   0  0  0  0  0  0  0  0  0  0  0  0
   19.1817  -24.0609  -13.6222 C   0  0  0  0  0  0  0  0  0  0  0  0
   19.3966  -25.5017  -13.7431 N   0  0  0  0  0  0  0  0  0  0  0  0
   22.5405  -20.3627  -13.5924 C   0  0  0  0  0  0  0  0  0  0  0  0
   22.5365  -19.1101  -13.4968 O   0  0  0  0  0  0  0  0  0  0  0  0
   26.3560  -21.5951  -10.4372 C   0  0  0  0  0  0  0  0  0  0  0  0
   25.4395  -20.9154  -11.4048 C   0  0  0  0  0  0  0  0  0  0  0  0
   25.9523  -20.7671  -12.7873 C   0  0  2  0  0  0  0  0  0  0  0  0
   27.3799  -20.2730  -12.8737 C   0  0  0  0  0  0  0  0  0  0  0  0
   25.0105  -20.1971  -13.7761 C   0  0  2  0  0  0  0  0  0  0  0  0
   23.7768  -21.0058  -13.7475 N   0  0  0  0  0  0  0  0  0  0  0  0
   25.4759  -20.0500  -15.1593 C   0  0  0  0  0  0  0  0  0  0  0  0
   25.9254  -20.9819  -15.8586 O   0  0  0  0  0  0  0  0  0  0  0  0
   25.7331  -17.1675  -17.6079 C   0  0  0  0  0  0  0  0  0  0  0  0
   25.8922  -18.6075  -17.1223 C   0  0  2  0  0  0  0  0  0  0  0  0
   25.4233  -18.7498  -15.7831 N   0  0  0  0  0  0  0  0  0  0  0  0
   27.2977  -19.0383  -17.2689 C   0  0  0  0  0  0  0  0  0  0  0  0
   28.2233  -18.7507  -16.2921 O   0  0  0  0  0  0  0  0  0  0  0  0
   27.6533  -19.6687  -18.2856 O   0  0  0  0  0  0  0  0  0  0  0  0
  2  1  1  1
  3  2  1  0
  4  3  1  0
  5  4  1  0
  6  5  1  0
  7  6  1  0
  8  2  1  0
  8  9  2  0
 11 10  1  0
 12 11  1  0
 12 13  1  1
 14 15  1  6
 14 12  1  0
 15  8  1  0
 16 14  1  0
 17 16  2  0
 19 18  1  1
 19 20  1  0
 20 16  1  0
 21 19  1  0
 21 22  1  0
 23 21  2  0
M  END
$$$$
