DDA.pdb
     RDKit          3D

 22 21  0  0  1  0  0  0  0  0999 V2000
   15.4864  -11.5811  -15.2099 N   0  0  0  0  0  0  0  0  0  0  0  0
   15.6716  -10.1447  -15.1101 C   0  0  1  0  0  0  0  0  0  0  0  0
   14.9350   -9.5577  -13.9259 C   0  0  0  0  0  0  0  0  0  0  0  0
   13.4717   -9.6313  -14.0925 C   0  0  0  0  0  0  0  0  0  0  0  0
   12.9793   -9.9487  -15.2047 O   0  0  0  0  0  0  0  0  0  0  0  0
   17.1154   -9.8467  -15.0754 C   0  0  0  0  0  0  0  0  0  0  0  0
   17.9024  -10.6203  -14.4584 O   0  0  0  0  0  0  0  0  0  0  0  0
   12.5833   -9.3640  -13.0670 O   0  0  0  0  0  0  0  0  0  0  0  0
   17.7038   -8.7237  -15.7008 N   0  0  0  0  0  0  0  0  0  0  0  0
   19.1493   -8.4828  -15.6718 C   0  0  1  0  0  0  0  0  0  0  0  0
   19.6008   -8.3686  -17.1133 C   0  0  0  0  0  0  0  0  0  0  0  0
   19.5966   -9.6533  -17.8332 C   0  0  0  0  0  0  0  0  0  0  0  0
   18.7549   -9.8675  -18.7356 O   0  0  0  0  0  0  0  0  0  0  0  0
   19.4583   -7.2890  -14.8542 C   0  0  0  0  0  0  0  0  0  0  0  0
   18.7189   -6.2464  -14.9174 O   0  0  0  0  0  0  0  0  0  0  0  0
   20.5402  -10.6098  -17.4884 O   0  0  0  0  0  0  0  0  0  0  0  0
   21.8428   -6.3507  -12.1468 C   0  0  0  0  0  0  0  0  0  0  0  0
   20.8321   -5.9636  -13.2253 C   0  0  2  0  0  0  0  0  0  0  0  0
   20.5507   -7.1810  -13.9548 N   0  0  0  0  0  0  0  0  0  0  0  0
   21.4799   -4.9218  -14.0518 C   0  0  0  0  0  0  0  0  0  0  0  0
   21.6177   -3.6182  -13.5964 O   0  0  0  0  0  0  0  0  0  0  0  0
   21.9333   -5.1632  -15.1956 O   0  0  0  0  0  0  0  0  0  0  0  0
  2  1  1  1
  2  3  1  0
  3  4  1  0
  4  8  1  0
  5  4  2  0
  6  2  1  0
  7  6  2  0
  9  6  1  0
 10  9  1  0
 10 14  1  0
 10 11  1  6
 12 13  2  0
 12 11  1  0
 14 19  1  0
 15 14  2  0
 16 12  1  0
 18 17  1  1
 18 20  1  0
 19 18  1  0
 20 22  2  0
 20 21  1  0
M  END
$$$$
