DDA.pdb
     RDKit          3D

 22 21  0  0  1  0  0  0  0  0999 V2000
   18.9676  -11.7086  -15.1840 N   0  0  0  0  0  0  0  0  0  0  0  0
   19.0192  -10.5415  -16.0457 C   0  0  1  0  0  0  0  0  0  0  0  0
   17.8272  -10.4679  -16.9748 C   0  0  0  0  0  0  0  0  0  0  0  0
   17.7991  -11.5917  -17.9291 C   0  0  0  0  0  0  0  0  0  0  0  0
   16.8858  -11.6646  -18.7898 O   0  0  0  0  0  0  0  0  0  0  0  0
   19.1548   -9.3330  -15.2117 C   0  0  0  0  0  0  0  0  0  0  0  0
   18.3068   -9.0969  -14.3042 O   0  0  0  0  0  0  0  0  0  0  0  0
   18.7459  -12.5995  -17.9328 O   0  0  0  0  0  0  0  0  0  0  0  0
   20.1962   -8.3879  -15.3565 N   0  0  0  0  0  0  0  0  0  0  0  0
   20.2519   -7.1599  -14.5583 C   0  0  1  0  0  0  0  0  0  0  0  0
   21.7176   -6.8168  -14.3888 C   0  0  0  0  0  0  0  0  0  0  0  0
   21.9483   -5.6184  -13.5645 C   0  0  0  0  0  0  0  0  0  0  0  0
   21.2603   -5.4179  -12.5373 O   0  0  0  0  0  0  0  0  0  0  0  0
   19.4597   -6.0886  -15.2018 C   0  0  0  0  0  0  0  0  0  0  0  0
   19.7658   -5.6631  -16.3693 O   0  0  0  0  0  0  0  0  0  0  0  0
   22.9377   -4.7270  -13.9523 O   0  0  0  0  0  0  0  0  0  0  0  0
   16.1560   -4.5145  -14.7571 C   0  0  0  0  0  0  0  0  0  0  0  0
   17.5741   -4.4371  -15.3207 C   0  0  2  0  0  0  0  0  0  0  0  0
   18.3301   -5.4543  -14.6227 N   0  0  0  0  0  0  0  0  0  0  0  0
   18.0558   -3.0638  -15.0558 C   0  0  0  0  0  0  0  0  0  0  0  0
   17.6562   -1.9923  -15.8418 O   0  0  0  0  0  0  0  0  0  0  0  0
   18.8424   -2.8021  -14.1152 O   0  0  0  0  0  0  0  0  0  0  0  0
  2  1  1  1
  2  3  1  0
  3  4  1  0
  4  8  1  0
  5  4  2  0
  6  2  1  0
  7  6  2  0
  9  6  1  0
 10  9  1  0
 10 14  1  0
 10 11  1  6
 12 13  2  0
 12 11  1  0
 14 19  1  0
 15 14  2  0
 16 12  1  0
 18 17  1  1
 18 20  1  0
 19 18  1  0
 20 22  2  0
 20 21  1  0
M  END
$$$$
