DDA.pdb
     RDKit          3D

 22 21  0  0  1  0  0  0  0  0999 V2000
   17.0001  -10.1780  -15.9890 N   0  0  0  0  0  0  0  0  0  0  0  0
   18.3049  -10.4993  -15.4400 C   0  0  1  0  0  0  0  0  0  0  0  0
   18.8243  -11.8264  -15.9484 C   0  0  0  0  0  0  0  0  0  0  0  0
   17.9848  -12.9553  -15.5065 C   0  0  0  0  0  0  0  0  0  0  0  0
   17.0620  -12.7662  -14.6742 O   0  0  0  0  0  0  0  0  0  0  0  0
   19.2331   -9.3890  -15.7232 C   0  0  0  0  0  0  0  0  0  0  0  0
   20.4501   -9.4876  -15.3950 O   0  0  0  0  0  0  0  0  0  0  0  0
   18.1582  -14.2475  -15.9674 O   0  0  0  0  0  0  0  0  0  0  0  0
   18.8507   -8.1833  -16.3547 N   0  0  0  0  0  0  0  0  0  0  0  0
   19.8116   -7.1148  -16.6431 C   0  0  1  0  0  0  0  0  0  0  0  0
   19.3797   -6.4817  -17.9498 C   0  0  0  0  0  0  0  0  0  0  0  0
   19.7178   -7.2900  -19.1335 C   0  0  0  0  0  0  0  0  0  0  0  0
   18.8299   -7.5965  -19.9620 O   0  0  0  0  0  0  0  0  0  0  0  0
   19.8798   -6.1620  -15.5131 C   0  0  0  0  0  0  0  0  0  0  0  0
   18.8119   -5.6571  -15.0207 O   0  0  0  0  0  0  0  0  0  0  0  0
   21.0323   -7.6983  -19.3043 O   0  0  0  0  0  0  0  0  0  0  0  0
   22.4027   -4.9410  -13.0830 C   0  0  0  0  0  0  0  0  0  0  0  0
   21.0815   -4.7463  -13.8253 C   0  0  2  0  0  0  0  0  0  0  0  0
   21.0771   -5.7321  -14.8844 N   0  0  0  0  0  0  0  0  0  0  0  0
   21.0815   -3.3528  -14.3219 C   0  0  0  0  0  0  0  0  0  0  0  0
   20.8790   -2.2794  -13.4662 O   0  0  0  0  0  0  0  0  0  0  0  0
   21.2635   -3.0750  -15.5309 O   0  0  0  0  0  0  0  0  0  0  0  0
  2  1  1  6
  2  3  1  0
  3  4  1  0
  4  8  1  0
  5  4  2  0
  6  2  1  0
  7  6  2  0
  9  6  1  0
 10  9  1  0
 10 14  1  0
 10 11  1  6
 12 13  2  0
 12 11  1  0
 14 19  1  0
 15 14  2  0
 16 12  1  0
 18 17  1  6
 18 20  1  0
 19 18  1  0
 20 22  2  0
 20 21  1  0
M  END
$$$$
