DDA.pdb
     RDKit          3D

 22 21  0  0  1  0  0  0  0  0999 V2000
   17.1885  -12.2979  -17.2164 N   0  0  0  0  0  0  0  0  0  0  0  0
   16.8310  -11.2334  -16.2965 C   0  0  1  0  0  0  0  0  0  0  0  0
   16.7056  -11.7307  -14.8729 C   0  0  0  0  0  0  0  0  0  0  0  0
   15.5700  -12.6568  -14.7082 C   0  0  0  0  0  0  0  0  0  0  0  0
   14.4339  -12.3449  -15.1465 O   0  0  0  0  0  0  0  0  0  0  0  0
   17.8106  -10.1385  -16.4230 C   0  0  0  0  0  0  0  0  0  0  0  0
   19.0473  -10.4006  -16.4438 O   0  0  0  0  0  0  0  0  0  0  0  0
   15.6848  -13.8842  -14.0816 O   0  0  0  0  0  0  0  0  0  0  0  0
   17.4582   -8.7733  -16.5260 N   0  0  0  0  0  0  0  0  0  0  0  0
   18.4582   -7.7236  -16.7415 C   0  0  1  0  0  0  0  0  0  0  0  0
   17.7086   -6.5024  -17.2330 C   0  0  0  0  0  0  0  0  0  0  0  0
   18.5877   -5.3683  -17.5645 C   0  0  0  0  0  0  0  0  0  0  0  0
   19.8322   -5.5025  -17.5238 O   0  0  0  0  0  0  0  0  0  0  0  0
   19.2353   -7.4879  -15.5046 C   0  0  0  0  0  0  0  0  0  0  0  0
   18.6420   -7.2134  -14.4044 O   0  0  0  0  0  0  0  0  0  0  0  0
   18.0061   -4.1600  -17.9194 O   0  0  0  0  0  0  0  0  0  0  0  0
   22.6170   -8.1971  -14.2574 C   0  0  0  0  0  0  0  0  0  0  0  0
   21.3491   -7.3502  -14.1593 C   0  0  2  0  0  0  0  0  0  0  0  0
   20.6502   -7.5431  -15.4114 N   0  0  0  0  0  0  0  0  0  0  0  0
   21.7926   -5.9554  -13.9447 C   0  0  0  0  0  0  0  0  0  0  0  0
   21.6170   -4.9820  -14.9180 O   0  0  0  0  0  0  0  0  0  0  0  0
   22.3445   -5.5865  -12.8811 O   0  0  0  0  0  0  0  0  0  0  0  0
  2  1  1  6
  2  3  1  0
  3  4  1  0
  4  8  1  0
  5  4  2  0
  6  2  1  0
  7  6  2  0
  9  6  1  0
 10  9  1  0
 10 14  1  0
 10 11  1  1
 12 13  2  0
 12 11  1  0
 14 19  1  0
 15 14  2  0
 16 12  1  0
 18 17  1  6
 18 20  1  0
 19 18  1  0
 20 22  2  0
 20 21  1  0
M  END
$$$$
