DDA.pdb
     RDKit          3D

 22 21  0  0  1  0  0  0  0  0999 V2000
   12.6553  -11.2094  -11.1453 N   0  0  0  0  0  0  0  0  0  0  0  0
   14.0701  -11.3111  -10.8364 C   0  0  1  0  0  0  0  0  0  0  0  0
   14.7532  -12.3893  -11.6490 C   0  0  0  0  0  0  0  0  0  0  0  0
   14.1698  -13.7211  -11.4029 C   0  0  0  0  0  0  0  0  0  0  0  0
   14.0922  -14.1681  -10.2306 O   0  0  0  0  0  0  0  0  0  0  0  0
   14.6988   -9.9897  -11.0184 C   0  0  0  0  0  0  0  0  0  0  0  0
   14.4642   -9.3206  -12.0652 O   0  0  0  0  0  0  0  0  0  0  0  0
   13.6890  -14.5307  -12.4157 O   0  0  0  0  0  0  0  0  0  0  0  0
   15.5728   -9.3963  -10.0789 N   0  0  0  0  0  0  0  0  0  0  0  0
   16.2210   -8.1047  -10.3237 C   0  0  1  0  0  0  0  0  0  0  0  0
   16.2230   -7.3614   -9.0038 C   0  0  0  0  0  0  0  0  0  0  0  0
   16.9081   -6.0591   -9.0647 C   0  0  0  0  0  0  0  0  0  0  0  0
   17.2531   -5.4784   -8.0101 O   0  0  0  0  0  0  0  0  0  0  0  0
   17.5702   -8.3039  -10.8975 C   0  0  0  0  0  0  0  0  0  0  0  0
   18.5015   -8.8403  -10.2027 O   0  0  0  0  0  0  0  0  0  0  0  0
   17.1584   -5.4991  -10.3088 O   0  0  0  0  0  0  0  0  0  0  0  0
   19.2236   -8.6400  -14.0939 C   0  0  0  0  0  0  0  0  0  0  0  0
   19.3179   -8.0634  -12.6821 C   0  0  2  0  0  0  0  0  0  0  0  0
   17.9538   -7.9429  -12.2152 N   0  0  0  0  0  0  0  0  0  0  0  0
   20.0118   -6.7629  -12.8063 C   0  0  0  0  0  0  0  0  0  0  0  0
   21.3911   -6.6879  -12.9384 O   0  0  0  0  0  0  0  0  0  0  0  0
   19.3927   -5.6726  -12.7989 O   0  0  0  0  0  0  0  0  0  0  0  0
  2  1  1  6
  2  3  1  0
  3  4  1  0
  4  8  1  0
  5  4  2  0
  6  2  1  0
  7  6  2  0
  9  6  1  0
 10  9  1  0
 10 14  1  0
 10 11  1  1
 12 13  2  0
 12 11  1  0
 14 19  1  0
 15 14  2  0
 16 12  1  0
 18 17  1  6
 18 20  1  0
 19 18  1  0
 20 22  2  0
 20 21  1  0
M  END
$$$$
