DDA.pdb
     RDKit          3D

 22 21  0  0  1  0  0  0  0  0999 V2000
   18.9685  -10.5390  -15.2704 N   0  0  0  0  0  0  0  0  0  0  0  0
   18.6476   -9.3426  -16.0274 C   0  0  1  0  0  0  0  0  0  0  0  0
   17.1993   -9.3186  -16.4652 C   0  0  0  0  0  0  0  0  0  0  0  0
   16.8696  -10.4515  -17.3498 C   0  0  0  0  0  0  0  0  0  0  0  0
   15.7766  -11.0577  -17.2164 O   0  0  0  0  0  0  0  0  0  0  0  0
   19.0115   -8.1565  -15.2305 C   0  0  0  0  0  0  0  0  0  0  0  0
   18.6078   -8.0530  -14.0368 O   0  0  0  0  0  0  0  0  0  0  0  0
   17.7172  -10.8991  -18.3466 O   0  0  0  0  0  0  0  0  0  0  0  0
   19.8037   -7.0919  -15.7180 N   0  0  0  0  0  0  0  0  0  0  0  0
   20.1781   -5.9501  -14.8787 C   0  0  1  0  0  0  0  0  0  0  0  0
   21.6638   -6.0750  -14.6110 C   0  0  0  0  0  0  0  0  0  0  0  0
   22.2159   -4.9540  -13.8316 C   0  0  0  0  0  0  0  0  0  0  0  0
   21.7257   -4.6590  -12.7174 O   0  0  0  0  0  0  0  0  0  0  0  0
   19.7952   -4.6796  -15.5333 C   0  0  0  0  0  0  0  0  0  0  0  0
   20.2332   -4.3897  -16.7004 O   0  0  0  0  0  0  0  0  0  0  0  0
   23.2824   -4.2411  -14.3593 O   0  0  0  0  0  0  0  0  0  0  0  0
   17.5079   -1.8103  -14.8758 C   0  0  0  0  0  0  0  0  0  0  0  0
   18.7085   -2.4187  -15.5990 C   0  0  2  0  0  0  0  0  0  0  0  0
   18.9407   -3.6989  -14.9661 N   0  0  0  0  0  0  0  0  0  0  0  0
   19.8281   -1.4676  -15.4253 C   0  0  0  0  0  0  0  0  0  0  0  0
   20.9062   -1.7609  -14.6023 O   0  0  0  0  0  0  0  0  0  0  0  0
   19.8583   -0.3583  -16.0088 O   0  0  0  0  0  0  0  0  0  0  0  0
  2  1  1  1
  2  3  1  0
  3  4  1  0
  4  8  1  0
  5  4  2  0
  6  2  1  0
  7  6  2  0
  9  6  1  0
 10  9  1  0
 10 14  1  0
 10 11  1  6
 12 13  2  0
 12 11  1  0
 14 19  1  0
 15 14  2  0
 16 12  1  0
 18 17  1  1
 18 20  1  0
 19 18  1  0
 20 22  2  0
 20 21  1  0
M  END
$$$$
