DDA.pdb
     RDKit          3D

 22 21  0  0  1  0  0  0  0  0999 V2000
   16.8050  -11.6695  -16.5359 N   0  0  0  0  0  0  0  0  0  0  0  0
   16.6357  -10.3747  -15.9017 C   0  0  1  0  0  0  0  0  0  0  0  0
   16.3280  -10.5007  -14.4256 C   0  0  0  0  0  0  0  0  0  0  0  0
   15.0193  -11.1364  -14.1853 C   0  0  0  0  0  0  0  0  0  0  0  0
   14.9292  -12.1172  -13.4043 O   0  0  0  0  0  0  0  0  0  0  0  0
   17.8339   -9.5538  -16.1560 C   0  0  0  0  0  0  0  0  0  0  0  0
   18.9730  -10.1006  -16.1999 O   0  0  0  0  0  0  0  0  0  0  0  0
   13.8512  -10.7042  -14.7863 O   0  0  0  0  0  0  0  0  0  0  0  0
   17.8025   -8.1552  -16.3607 N   0  0  0  0  0  0  0  0  0  0  0  0
   19.0220   -7.3700  -16.5715 C   0  0  1  0  0  0  0  0  0  0  0  0
   18.6643   -6.2615  -17.5400 C   0  0  0  0  0  0  0  0  0  0  0  0
   19.7823   -5.3454  -17.8222 C   0  0  0  0  0  0  0  0  0  0  0  0
   19.6295   -4.1083  -17.7006 O   0  0  0  0  0  0  0  0  0  0  0  0
   19.5537   -6.8837  -15.2791 C   0  0  0  0  0  0  0  0  0  0  0  0
   18.8012   -6.2474  -14.4626 O   0  0  0  0  0  0  0  0  0  0  0  0
   20.9964   -5.8840  -18.2221 O   0  0  0  0  0  0  0  0  0  0  0  0
   22.5231   -7.4231  -13.1487 C   0  0  0  0  0  0  0  0  0  0  0  0
   21.3562   -6.5310  -13.5693 C   0  0  2  0  0  0  0  0  0  0  0  0
   20.8870   -7.0662  -14.8290 N   0  0  0  0  0  0  0  0  0  0  0  0
   21.8972   -5.1587  -13.6809 C   0  0  0  0  0  0  0  0  0  0  0  0
   22.2347   -4.4199  -12.5557 O   0  0  0  0  0  0  0  0  0  0  0  0
   22.0765   -4.5998  -14.7888 O   0  0  0  0  0  0  0  0  0  0  0  0
  2  1  1  1
  2  3  1  0
  3  4  1  0
  4  8  1  0
  5  4  2  0
  6  2  1  0
  7  6  2  0
  9  6  1  0
 10  9  1  0
 10 14  1  0
 10 11  1  6
 12 13  2  0
 12 11  1  0
 14 19  1  0
 15 14  2  0
 16 12  1  0
 18 17  1  6
 18 20  1  0
 19 18  1  0
 20 22  2  0
 20 21  1  0
M  END
$$$$
