DDA.pdb
     RDKit          3D

 22 21  0  0  1  0  0  0  0  0999 V2000
   18.4579  -16.0349  -16.8468 N   0  0  0  0  0  0  0  0  0  0  0  0
   19.3490  -15.2010  -16.0607 C   0  0  1  0  0  0  0  0  0  0  0  0
   20.8025  -15.5620  -16.2759 C   0  0  0  0  0  0  0  0  0  0  0  0
   21.1138  -16.9188  -15.7892 C   0  0  0  0  0  0  0  0  0  0  0  0
   20.2539  -17.5688  -15.1426 O   0  0  0  0  0  0  0  0  0  0  0  0
   19.0733  -13.7842  -16.3622 C   0  0  0  0  0  0  0  0  0  0  0  0
   18.8967  -13.4189  -17.5597 O   0  0  0  0  0  0  0  0  0  0  0  0
   22.3316  -17.5360  -16.0088 O   0  0  0  0  0  0  0  0  0  0  0  0
   18.9891  -12.7709  -15.3799 N   0  0  0  0  0  0  0  0  0  0  0  0
   18.6825  -11.3785  -15.7195 C   0  0  1  0  0  0  0  0  0  0  0  0
   17.4120  -11.0188  -14.9770 C   0  0  0  0  0  0  0  0  0  0  0  0
   17.0339   -9.6020  -15.1132 C   0  0  0  0  0  0  0  0  0  0  0  0
   16.8460   -9.1060  -16.2477 O   0  0  0  0  0  0  0  0  0  0  0  0
   19.8302  -10.5026  -15.3958 C   0  0  0  0  0  0  0  0  0  0  0  0
   20.3398  -10.5029  -14.2219 O   0  0  0  0  0  0  0  0  0  0  0  0
   16.8928   -8.8398  -13.9629 O   0  0  0  0  0  0  0  0  0  0  0  0
   21.8357   -7.8757  -17.1461 C   0  0  0  0  0  0  0  0  0  0  0  0
   21.4727   -8.6718  -15.8935 C   0  0  2  0  0  0  0  0  0  0  0  0
   20.4587   -9.6166  -16.3090 N   0  0  0  0  0  0  0  0  0  0  0  0
   20.9867   -7.6900  -14.8994 C   0  0  0  0  0  0  0  0  0  0  0  0
   21.8258   -7.1728  -13.9227 O   0  0  0  0  0  0  0  0  0  0  0  0
   19.8020   -7.2796  -14.8906 O   0  0  0  0  0  0  0  0  0  0  0  0
  2  1  1  6
  2  3  1  0
  3  4  1  0
  4  8  1  0
  5  4  2  0
  6  2  1  0
  7  6  2  0
  9  6  1  0
 10  9  1  0
 10 14  1  0
 10 11  1  1
 12 13  2  0
 12 11  1  0
 14 19  1  0
 15 14  2  0
 16 12  1  0
 18 17  1  6
 18 20  1  0
 19 18  1  0
 20 22  2  0
 20 21  1  0
M  END
$$$$
