DDA.pdb
     RDKit          3D

 22 21  0  0  1  0  0  0  0  0999 V2000
   20.8833  -11.5348  -19.1846 N   0  0  0  0  0  0  0  0  0  0  0  0
   21.7569  -10.7728  -18.3108 C   0  0  1  0  0  0  0  0  0  0  0  0
   22.9057  -10.1409  -19.0663 C   0  0  0  0  0  0  0  0  0  0  0  0
   23.8182  -11.1513  -19.6327 C   0  0  0  0  0  0  0  0  0  0  0  0
   24.1824  -12.1323  -18.9361 O   0  0  0  0  0  0  0  0  0  0  0  0
   20.9543   -9.7772  -17.5767 C   0  0  0  0  0  0  0  0  0  0  0  0
   19.8554   -9.3774  -18.0574 O   0  0  0  0  0  0  0  0  0  0  0  0
   24.3111  -11.0811  -20.9227 O   0  0  0  0  0  0  0  0  0  0  0  0
   21.3347   -9.2184  -16.3350 N   0  0  0  0  0  0  0  0  0  0  0  0
   20.4876   -8.2610  -15.6181 C   0  0  1  0  0  0  0  0  0  0  0  0
   19.8371   -9.0215  -14.4809 C   0  0  0  0  0  0  0  0  0  0  0  0
   18.9873   -8.1793  -13.6221 C   0  0  0  0  0  0  0  0  0  0  0  0
   18.3499   -7.2195  -14.1131 O   0  0  0  0  0  0  0  0  0  0  0  0
   21.2845   -7.0951  -15.1764 C   0  0  0  0  0  0  0  0  0  0  0  0
   22.2785   -7.2471  -14.3848 O   0  0  0  0  0  0  0  0  0  0  0  0
   18.9127   -8.4748  -12.2689 O   0  0  0  0  0  0  0  0  0  0  0  0
   21.3682   -3.4194  -15.8523 C   0  0  0  0  0  0  0  0  0  0  0  0
   21.8680   -4.6555  -15.1063 C   0  0  2  0  0  0  0  0  0  0  0  0
   21.0451   -5.7523  -15.5680 N   0  0  0  0  0  0  0  0  0  0  0  0
   21.7062   -4.3683  -13.6642 C   0  0  0  0  0  0  0  0  0  0  0  0
   22.5685   -3.5111  -12.9955 O   0  0  0  0  0  0  0  0  0  0  0  0
   20.7889   -4.8809  -12.9803 O   0  0  0  0  0  0  0  0  0  0  0  0
  2  1  1  6
  2  3  1  0
  3  4  1  0
  4  8  1  0
  5  4  2  0
  6  2  1  0
  7  6  2  0
  9  6  1  0
 10  9  1  0
 10 14  1  0
 10 11  1  1
 12 13  2  0
 12 11  1  0
 14 19  1  0
 15 14  2  0
 16 12  1  0
 18 17  1  6
 18 20  1  0
 19 18  1  0
 20 22  2  0
 20 21  1  0
M  END
$$$$
