DDA.pdb
     RDKit          3D

 22 21  0  0  1  0  0  0  0  0999 V2000
   16.3510  -12.6850  -14.4574 N   0  0  0  0  0  0  0  0  0  0  0  0
   15.6022  -11.4505  -14.3075 C   0  0  1  0  0  0  0  0  0  0  0  0
   14.1419  -11.7049  -14.0034 C   0  0  0  0  0  0  0  0  0  0  0  0
   13.4549  -12.3848  -15.1171 C   0  0  0  0  0  0  0  0  0  0  0  0
   12.9987  -13.5457  -14.9611 O   0  0  0  0  0  0  0  0  0  0  0  0
   16.2511  -10.6155  -13.2798 C   0  0  0  0  0  0  0  0  0  0  0  0
   16.5871  -11.1276  -12.1738 O   0  0  0  0  0  0  0  0  0  0  0  0
   13.2780  -11.8034  -16.3592 O   0  0  0  0  0  0  0  0  0  0  0  0
   16.5344   -9.2403  -13.4448 N   0  0  0  0  0  0  0  0  0  0  0  0
   17.1722   -8.4435  -12.3929 C   0  0  1  0  0  0  0  0  0  0  0  0
   18.1422   -7.5070  -13.0835 C   0  0  0  0  0  0  0  0  0  0  0  0
   18.8279   -6.5871  -12.1602 C   0  0  0  0  0  0  0  0  0  0  0  0
   18.5285   -5.3711  -12.1440 O   0  0  0  0  0  0  0  0  0  0  0  0
   16.1502   -7.7487  -11.5791 C   0  0  0  0  0  0  0  0  0  0  0  0
   15.1964   -7.1060  -12.1403 O   0  0  0  0  0  0  0  0  0  0  0  0
   19.8041   -7.0985  -11.3179 O   0  0  0  0  0  0  0  0  0  0  0  0
   15.1715   -7.5280   -7.9947 C   0  0  0  0  0  0  0  0  0  0  0  0
   15.1185   -6.9863   -9.4224 C   0  0  2  0  0  0  0  0  0  0  0  0
   16.1188   -7.7265  -10.1605 N   0  0  0  0  0  0  0  0  0  0  0  0
   15.4089   -5.5386   -9.3321 C   0  0  0  0  0  0  0  0  0  0  0  0
   14.5023   -4.6522   -8.7683 O   0  0  0  0  0  0  0  0  0  0  0  0
   16.4803   -5.0449   -9.7567 O   0  0  0  0  0  0  0  0  0  0  0  0
  2  1  1  1
  2  3  1  0
  3  4  1  0
  4  8  1  0
  5  4  2  0
  6  2  1  0
  7  6  2  0
  9  6  1  0
 10  9  1  0
 10 14  1  0
 10 11  1  6
 12 13  2  0
 12 11  1  0
 14 19  1  0
 15 14  2  0
 16 12  1  0
 18 17  1  1
 18 20  1  0
 19 18  1  0
 20 22  2  0
 20 21  1  0
M  END
$$$$
