DDA.pdb
     RDKit          3D

 22 21  0  0  1  0  0  0  0  0999 V2000
   20.6043   -9.6944  -19.4042 N   0  0  0  0  0  0  0  0  0  0  0  0
   21.3683   -8.4611  -19.3542 C   0  0  1  0  0  0  0  0  0  0  0  0
   21.2497   -7.6668  -20.6367 C   0  0  0  0  0  0  0  0  0  0  0  0
   21.7851   -8.4043  -21.7960 C   0  0  0  0  0  0  0  0  0  0  0  0
   22.8137   -9.1158  -21.6697 O   0  0  0  0  0  0  0  0  0  0  0  0
   20.9503   -7.6834  -18.1732 C   0  0  0  0  0  0  0  0  0  0  0  0
   19.7395   -7.6940  -17.8095 O   0  0  0  0  0  0  0  0  0  0  0  0
   21.2053   -8.3577  -23.0505 O   0  0  0  0  0  0  0  0  0  0  0  0
   21.8317   -6.9013  -17.3920 N   0  0  0  0  0  0  0  0  0  0  0  0
   21.3578   -6.0529  -16.2947 C   0  0  1  0  0  0  0  0  0  0  0  0
   22.1739   -6.4239  -15.0736 C   0  0  0  0  0  0  0  0  0  0  0  0
   21.8098   -5.6581  -13.8696 C   0  0  0  0  0  0  0  0  0  0  0  0
   20.6460   -5.7202  -13.4110 O   0  0  0  0  0  0  0  0  0  0  0  0
   21.4568   -4.6241  -16.6661 C   0  0  0  0  0  0  0  0  0  0  0  0
   22.5300   -4.1581  -17.1846 O   0  0  0  0  0  0  0  0  0  0  0  0
   22.7805   -4.8743  -13.2635 O   0  0  0  0  0  0  0  0  0  0  0  0
   19.2173   -1.6306  -16.6630 C   0  0  0  0  0  0  0  0  0  0  0  0
   20.5811   -2.2827  -16.8855 C   0  0  2  0  0  0  0  0  0  0  0  0
   20.4218   -3.6677  -16.4986 N   0  0  0  0  0  0  0  0  0  0  0  0
   21.5419   -1.5442  -16.0371 C   0  0  0  0  0  0  0  0  0  0  0  0
   22.0838   -0.3329  -16.4430 O   0  0  0  0  0  0  0  0  0  0  0  0
   21.9108   -1.9726  -14.9180 O   0  0  0  0  0  0  0  0  0  0  0  0
  2  1  1  6
  2  3  1  0
  3  4  1  0
  4  8  1  0
  5  4  2  0
  6  2  1  0
  7  6  2  0
  9  6  1  0
 10  9  1  0
 10 14  1  0
 10 11  1  1
 12 13  2  0
 12 11  1  0
 14 19  1  0
 15 14  2  0
 16 12  1  0
 18 17  1  1
 18 20  1  0
 19 18  1  0
 20 22  2  0
 20 21  1  0
M  END
$$$$
