SLR.pdb
     RDKit          3D

 26 25  0  0  1  0  0  0  0  0999 V2000
    8.3201  -19.8573   16.9858 O   0  0  0  0  0  0  0  0  0  0  0  0
    8.9718  -19.0766   17.9460 C   0  0  0  0  0  0  0  0  0  0  0  0
    9.0887  -17.6833   17.3565 C   0  0  2  0  0  0  0  0  0  0  0  0
   10.0621  -17.7017   16.2827 N   0  0  0  0  0  0  0  0  0  0  0  0
    9.4873  -16.7685   18.4507 C   0  0  0  0  0  0  0  0  0  0  0  0
   10.7128  -16.5579   18.6448 O   0  0  0  0  0  0  0  0  0  0  0  0
    8.9480  -12.3957   19.3548 C   0  0  0  0  0  0  0  0  0  0  0  0
    7.7004  -13.2986   19.4306 C   0  0  2  0  0  0  0  0  0  0  0  0
    6.4668  -12.4585   19.6133 C   0  0  0  0  0  0  0  0  0  0  0  0
    7.8760  -14.2583   20.5722 C   0  0  0  0  0  0  0  0  0  0  0  0
    9.0060  -15.2412   20.4178 C   0  0  2  0  0  0  0  0  0  0  0  0
    8.5747  -16.1115   19.2973 N   0  0  0  0  0  0  0  0  0  0  0  0
    9.2101  -16.1302   21.5717 C   0  0  0  0  0  0  0  0  0  0  0  0
    8.4333  -17.1245   21.6907 O   0  0  0  0  0  0  0  0  0  0  0  0
   11.0613  -21.9219   19.9580 N   0  0  0  0  0  0  0  0  0  0  0  0
   12.3266  -22.1191   20.5602 C   0  0  0  0  0  0  0  0  0  0  0  0
   12.7105  -23.3220   20.8999 N   0  0  0  0  0  0  0  0  0  0  0  0
   13.1779  -20.9922   20.7922 N   0  0  0  0  0  0  0  0  0  0  0  0
   12.6834  -19.6513   20.5438 C   0  0  0  0  0  0  0  0  0  0  0  0
   12.2139  -19.0858   21.8949 C   0  0  0  0  0  0  0  0  0  0  0  0
   11.7707  -17.6610   21.7418 C   0  0  0  0  0  0  0  0  0  0  0  0
   11.1171  -17.0734   22.9487 C   0  0  2  0  0  0  0  0  0  0  0  0
   10.1905  -15.9957   22.5700 N   0  0  0  0  0  0  0  0  0  0  0  0
   12.0289  -16.6373   24.0091 C   0  0  0  0  0  0  0  0  0  0  0  0
   12.1510  -17.3420   25.2264 O   0  0  0  0  0  0  0  0  0  0  0  0
   12.7634  -15.6239   23.9303 O   0  0  0  0  0  0  0  0  0  0  0  0
  1  2  1  0
  3  2  1  0
  3  5  1  0
  3  4  1  6
  5  6  2  0
  8  7  1  1
  8  9  1  0
 10  8  1  0
 11 10  1  1
 12 11  1  0
 12  5  1  0
 13 11  1  0
 13 14  2  0
 15 16  1  0
 16 17  2  0
 18 16  1  0
 18 19  1  0
 20 19  1  0
 20 21  1  0
 22 21  1  6
 22 23  1  0
 22 24  1  0
 23 13  1  0
 24 26  2  0
 24 25  1  0
M  END
$$$$
