SLR.pdb
     RDKit          3D

 26 25  0  0  1  0  0  0  0  0999 V2000
    7.9406  -17.7123   22.2351 O   0  0  0  0  0  0  0  0  0  0  0  0
    8.6020  -17.0919   21.1703 C   0  0  0  0  0  0  0  0  0  0  0  0
    8.1611  -15.6401   21.1807 C   0  0  2  0  0  0  0  0  0  0  0  0
    8.7805  -14.9473   20.0683 N   0  0  0  0  0  0  0  0  0  0  0  0
    8.5598  -15.0625   22.4848 C   0  0  0  0  0  0  0  0  0  0  0  0
    9.7736  -14.7935   22.6798 O   0  0  0  0  0  0  0  0  0  0  0  0
    5.5499  -12.8681   27.3835 C   0  0  0  0  0  0  0  0  0  0  0  0
    6.9622  -13.1738   26.8454 C   0  0  2  0  0  0  0  0  0  0  0  0
    7.8162  -11.9378   26.9086 C   0  0  0  0  0  0  0  0  0  0  0  0
    6.8362  -13.6734   25.4348 C   0  0  0  0  0  0  0  0  0  0  0  0
    8.0947  -14.2488   24.8418 C   0  0  2  0  0  0  0  0  0  0  0  0
    7.6594  -14.7918   23.5323 N   0  0  0  0  0  0  0  0  0  0  0  0
    8.6633  -15.3826   25.5866 C   0  0  0  0  0  0  0  0  0  0  0  0
    7.9252  -16.3975   25.7634 O   0  0  0  0  0  0  0  0  0  0  0  0
   15.6881  -15.8384   22.9617 N   0  0  0  0  0  0  0  0  0  0  0  0
   14.5717  -16.3198   22.2375 C   0  0  0  0  0  0  0  0  0  0  0  0
   14.6834  -16.5871   20.9623 N   0  0  0  0  0  0  0  0  0  0  0  0
   13.3244  -16.5102   22.9131 N   0  0  0  0  0  0  0  0  0  0  0  0
   13.3067  -16.7275   24.3472 C   0  0  0  0  0  0  0  0  0  0  0  0
   11.8373  -16.9270   24.7555 C   0  0  0  0  0  0  0  0  0  0  0  0
   11.7284  -17.1403   26.2362 C   0  0  0  0  0  0  0  0  0  0  0  0
   10.4626  -16.6418   26.8513 C   0  0  2  0  0  0  0  0  0  0  0  0
    9.9576  -15.4644   26.1289 N   0  0  0  0  0  0  0  0  0  0  0  0
   10.5192  -16.3921   28.2936 C   0  0  0  0  0  0  0  0  0  0  0  0
   10.2102  -15.1304   28.8465 O   0  0  0  0  0  0  0  0  0  0  0  0
   10.8394  -17.2570   29.1435 O   0  0  0  0  0  0  0  0  0  0  0  0
  1  2  1  0
  3  2  1  0
  3  5  1  0
  3  4  1  6
  5  6  2  0
  8  7  1  6
  8  9  1  0
 10  8  1  0
 11 10  1  1
 12 11  1  0
 12  5  1  0
 13 11  1  0
 13 14  2  0
 15 16  1  0
 16 17  2  0
 18 16  1  0
 18 19  1  0
 20 19  1  0
 20 21  1  0
 22 21  1  6
 22 23  1  0
 22 24  1  0
 23 13  1  0
 24 26  2  0
 24 25  1  0
M  END
$$$$
