SLR.pdb
     RDKit          3D

 26 25  0  0  1  0  0  0  0  0999 V2000
    6.5364  -16.6305   21.4463 O   0  0  0  0  0  0  0  0  0  0  0  0
    7.2991  -15.8560   20.5661 C   0  0  0  0  0  0  0  0  0  0  0  0
    7.2480  -14.4343   21.0935 C   0  0  2  0  0  0  0  0  0  0  0  0
    7.8805  -13.5491   20.1356 N   0  0  0  0  0  0  0  0  0  0  0  0
    7.9397  -14.4194   22.4028 C   0  0  0  0  0  0  0  0  0  0  0  0
    9.1956  -14.4973   22.4227 O   0  0  0  0  0  0  0  0  0  0  0  0
    8.0018  -11.3193   25.6453 C   0  0  0  0  0  0  0  0  0  0  0  0
    6.7137  -12.1568   25.5144 C   0  0  2  0  0  0  0  0  0  0  0  0
    5.6462  -11.6047   26.4180 C   0  0  0  0  0  0  0  0  0  0  0  0
    7.0350  -13.5816   25.8633 C   0  0  0  0  0  0  0  0  0  0  0  0
    7.9997  -14.2692   24.9342 C   0  0  2  0  0  0  0  0  0  0  0  0
    7.2765  -14.3229   23.6406 N   0  0  0  0  0  0  0  0  0  0  0  0
    8.3081  -15.6629   25.2889 C   0  0  0  0  0  0  0  0  0  0  0  0
    7.3334  -16.4564   25.4512 O   0  0  0  0  0  0  0  0  0  0  0  0
   12.8786  -17.9024   21.1071 N   0  0  0  0  0  0  0  0  0  0  0  0
   13.5372  -18.4191   22.2480 C   0  0  0  0  0  0  0  0  0  0  0  0
   14.8369  -18.3223   22.3545 N   0  0  0  0  0  0  0  0  0  0  0  0
   12.7685  -19.0461   23.2797 N   0  0  0  0  0  0  0  0  0  0  0  0
   11.3950  -19.4344   23.0211 C   0  0  0  0  0  0  0  0  0  0  0  0
   10.4946  -18.3953   23.7104 C   0  0  0  0  0  0  0  0  0  0  0  0
   10.8250  -18.3010   25.1705 C   0  0  0  0  0  0  0  0  0  0  0  0
    9.8178  -17.5715   25.9966 C   0  0  2  0  0  0  0  0  0  0  0  0
    9.5869  -16.2189   25.4670 N   0  0  0  0  0  0  0  0  0  0  0  0
   10.0905  -17.5357   27.4354 C   0  0  0  0  0  0  0  0  0  0  0  0
   10.5314  -16.3617   28.0837 O   0  0  0  0  0  0  0  0  0  0  0  0
    9.9593  -18.5217   28.1993 O   0  0  0  0  0  0  0  0  0  0  0  0
  1  2  1  0
  3  2  1  0
  3  5  1  0
  3  4  1  6
  5  6  2  0
  8  7  1  1
  8  9  1  0
 10  8  1  0
 11 10  1  1
 12 11  1  0
 12  5  1  0
 13 11  1  0
 13 14  2  0
 15 16  1  0
 16 17  2  0
 18 16  1  0
 18 19  1  0
 20 19  1  0
 20 21  1  0
 22 21  1  6
 22 23  1  0
 22 24  1  0
 23 13  1  0
 24 26  2  0
 24 25  1  0
M  END
$$$$
