SLR.pdb
     RDKit          3D

 26 25  0  0  1  0  0  0  0  0999 V2000
    8.0945  -16.4672   21.4641 O   0  0  0  0  0  0  0  0  0  0  0  0
    6.9508  -15.7703   21.0609 C   0  0  0  0  0  0  0  0  0  0  0  0
    7.2737  -14.2954   21.2110 C   0  0  2  0  0  0  0  0  0  0  0  0
    8.1017  -13.8745   20.0982 N   0  0  0  0  0  0  0  0  0  0  0  0
    7.9611  -14.1197   22.5109 C   0  0  0  0  0  0  0  0  0  0  0  0
    9.2052  -13.9302   22.5149 O   0  0  0  0  0  0  0  0  0  0  0  0
    7.8094  -11.2039   25.9521 C   0  0  0  0  0  0  0  0  0  0  0  0
    6.5873  -12.1253   25.7645 C   0  0  2  0  0  0  0  0  0  0  0  0
    5.4868  -11.7192   26.7052 C   0  0  0  0  0  0  0  0  0  0  0  0
    7.0171  -13.5425   26.0135 C   0  0  0  0  0  0  0  0  0  0  0  0
    8.0353  -14.0849   25.0461 C   0  0  2  0  0  0  0  0  0  0  0  0
    7.3062  -14.1511   23.7565 N   0  0  0  0  0  0  0  0  0  0  0  0
    8.4866  -15.4554   25.3321 C   0  0  0  0  0  0  0  0  0  0  0  0
    8.1681  -15.9561   26.4518 O   0  0  0  0  0  0  0  0  0  0  0  0
   15.1952  -18.5834   20.7239 N   0  0  0  0  0  0  0  0  0  0  0  0
   14.8146  -19.6944   21.5134 C   0  0  0  0  0  0  0  0  0  0  0  0
   15.2956  -20.8814   21.2496 N   0  0  0  0  0  0  0  0  0  0  0  0
   13.9015  -19.5055   22.5991 N   0  0  0  0  0  0  0  0  0  0  0  0
   13.2637  -18.2165   22.7893 C   0  0  0  0  0  0  0  0  0  0  0  0
   12.2654  -18.3734   23.9488 C   0  0  0  0  0  0  0  0  0  0  0  0
   11.5253  -17.0896   24.1813 C   0  0  0  0  0  0  0  0  0  0  0  0
   10.2623  -17.2259   24.9658 C   0  0  2  0  0  0  0  0  0  0  0  0
    9.2418  -16.2831   24.4832 N   0  0  0  0  0  0  0  0  0  0  0  0
   10.4126  -17.1423   26.4206 C   0  0  0  0  0  0  0  0  0  0  0  0
   11.3398  -16.2675   27.0272 O   0  0  0  0  0  0  0  0  0  0  0  0
    9.7464  -17.8245   27.2353 O   0  0  0  0  0  0  0  0  0  0  0  0
  1  2  1  0
  3  2  1  0
  3  5  1  0
  3  4  1  6
  5  6  2  0
  8  7  1  1
  8  9  1  0
 10  8  1  0
 11 10  1  1
 12 11  1  0
 12  5  1  0
 13 11  1  0
 13 14  2  0
 15 16  1  0
 16 17  2  0
 18 16  1  0
 18 19  1  0
 20 19  1  0
 20 21  1  0
 22 21  1  6
 22 23  1  0
 22 24  1  0
 23 13  1  0
 24 26  2  0
 24 25  1  0
M  END
$$$$
