SLR.pdb
     RDKit          3D

 26 25  0  0  1  0  0  0  0  0999 V2000
    9.2247  -20.2425   17.4535 O   0  0  0  0  0  0  0  0  0  0  0  0
    8.7179  -19.2755   18.3276 C   0  0  0  0  0  0  0  0  0  0  0  0
    9.0496  -17.9282   17.7136 C   0  0  2  0  0  0  0  0  0  0  0  0
   10.0595  -18.1084   16.6896 N   0  0  0  0  0  0  0  0  0  0  0  0
    9.5186  -17.0442   18.8053 C   0  0  0  0  0  0  0  0  0  0  0  0
   10.7541  -16.9693   19.0325 O   0  0  0  0  0  0  0  0  0  0  0  0
    8.7723  -12.6499   19.3778 C   0  0  0  0  0  0  0  0  0  0  0  0
    7.5946  -13.5728   19.7506 C   0  0  2  0  0  0  0  0  0  0  0  0
    6.3805  -12.7500   20.0823 C   0  0  0  0  0  0  0  0  0  0  0  0
    8.0074  -14.4236   20.9171 C   0  0  0  0  0  0  0  0  0  0  0  0
    9.1664  -15.3494   20.6593 C   0  0  2  0  0  0  0  0  0  0  0  0
    8.6628  -16.2734   19.6145 N   0  0  0  0  0  0  0  0  0  0  0  0
    9.5464  -16.1926   21.8030 C   0  0  0  0  0  0  0  0  0  0  0  0
    8.6159  -16.7701   22.4408 O   0  0  0  0  0  0  0  0  0  0  0  0
   15.8491  -21.2875   22.0212 N   0  0  0  0  0  0  0  0  0  0  0  0
   15.2857  -20.8201   20.8102 C   0  0  0  0  0  0  0  0  0  0  0  0
   15.3870  -21.5364   19.7208 N   0  0  0  0  0  0  0  0  0  0  0  0
   14.6067  -19.5604   20.7908 N   0  0  0  0  0  0  0  0  0  0  0  0
   14.3750  -18.8467   22.0323 C   0  0  0  0  0  0  0  0  0  0  0  0
   12.8814  -18.4815   22.0710 C   0  0  0  0  0  0  0  0  0  0  0  0
   12.5385  -17.8113   23.3684 C   0  0  0  0  0  0  0  0  0  0  0  0
   11.1515  -17.2643   23.4455 C   0  0  2  0  0  0  0  0  0  0  0  0
   10.8503  -16.4331   22.2701 N   0  0  0  0  0  0  0  0  0  0  0  0
   10.8197  -16.5622   24.6876 C   0  0  0  0  0  0  0  0  0  0  0  0
   10.4891  -15.1898   24.7051 O   0  0  0  0  0  0  0  0  0  0  0  0
   10.8007  -17.1061   25.8176 O   0  0  0  0  0  0  0  0  0  0  0  0
  1  2  1  0
  3  2  1  0
  3  5  1  0
  3  4  1  6
  5  6  2  0
  8  7  1  1
  8  9  1  0
 10  8  1  0
 11 10  1  1
 12 11  1  0
 12  5  1  0
 13 11  1  0
 13 14  2  0
 15 16  1  0
 16 17  2  0
 18 16  1  0
 18 19  1  0
 20 19  1  0
 20 21  1  0
 22 21  1  1
 22 23  1  0
 22 24  1  0
 23 13  1  0
 24 26  2  0
 24 25  1  0
M  END
$$$$
