SLR.pdb
     RDKit          3D

 26 25  0  0  1  0  0  0  0  0999 V2000
   10.8762  -19.2094   19.0479 O   0  0  0  0  0  0  0  0  0  0  0  0
    9.8299  -18.7316   18.2521 C   0  0  0  0  0  0  0  0  0  0  0  0
   10.2408  -17.3450   17.7931 C   0  0  2  0  0  0  0  0  0  0  0  0
   11.5796  -17.4045   17.2408 N   0  0  0  0  0  0  0  0  0  0  0  0
   10.1649  -16.4460   18.9674 C   0  0  0  0  0  0  0  0  0  0  0  0
   11.2075  -16.2475   19.6437 O   0  0  0  0  0  0  0  0  0  0  0  0
    8.9153  -12.0734   19.6800 C   0  0  0  0  0  0  0  0  0  0  0  0
    7.7663  -13.0361   19.3186 C   0  0  2  0  0  0  0  0  0  0  0  0
    6.4723  -12.2774   19.2140 C   0  0  0  0  0  0  0  0  0  0  0  0
    7.6864  -14.0999   20.3755 C   0  0  0  0  0  0  0  0  0  0  0  0
    8.9419  -14.9075   20.5709 C   0  0  2  0  0  0  0  0  0  0  0  0
    8.9895  -15.7915   19.3812 N   0  0  0  0  0  0  0  0  0  0  0  0
    8.9249  -15.7975   21.7418 C   0  0  0  0  0  0  0  0  0  0  0  0
    8.4386  -16.9579   21.5896 O   0  0  0  0  0  0  0  0  0  0  0  0
   10.5861  -14.2389   28.7866 N   0  0  0  0  0  0  0  0  0  0  0  0
   10.9765  -15.4513   29.4032 C   0  0  0  0  0  0  0  0  0  0  0  0
   10.8606  -15.5952   30.6977 N   0  0  0  0  0  0  0  0  0  0  0  0
   11.4971  -16.5137   28.5978 N   0  0  0  0  0  0  0  0  0  0  0  0
   11.7637  -16.2876   27.1899 C   0  0  0  0  0  0  0  0  0  0  0  0
   10.4371  -16.4963   26.4401 C   0  0  0  0  0  0  0  0  0  0  0  0
   10.6368  -16.3265   24.9632 C   0  0  0  0  0  0  0  0  0  0  0  0
    9.3968  -16.4588   24.1423 C   0  0  2  0  0  0  0  0  0  0  0  0
    9.3998  -15.4964   23.0302 N   0  0  0  0  0  0  0  0  0  0  0  0
    8.1380  -16.3987   24.8891 C   0  0  0  0  0  0  0  0  0  0  0  0
    7.1985  -15.3642   24.6884 O   0  0  0  0  0  0  0  0  0  0  0  0
    7.7928  -17.2411   25.7518 O   0  0  0  0  0  0  0  0  0  0  0  0
  1  2  1  0
  3  2  1  0
  3  5  1  0
  3  4  1  1
  5  6  2  0
  8  7  1  1
  8  9  1  0
 10  8  1  0
 11 10  1  6
 12 11  1  0
 12  5  1  0
 13 11  1  0
 13 14  2  0
 15 16  1  0
 16 17  2  0
 18 16  1  0
 18 19  1  0
 20 19  1  0
 20 21  1  0
 22 21  1  1
 22 23  1  0
 22 24  1  0
 23 13  1  0
 24 26  2  0
 24 25  1  0
M  END
$$$$
