SLR.pdb
     RDKit          3D

 26 25  0  0  1  0  0  0  0  0999 V2000
    9.4077  -18.2567   14.0094 O   0  0  0  0  0  0  0  0  0  0  0  0
    9.9230  -17.7578   15.2102 C   0  0  0  0  0  0  0  0  0  0  0  0
    9.4403  -16.3235   15.3194 C   0  0  2  0  0  0  0  0  0  0  0  0
    9.8901  -15.5810   14.1586 N   0  0  0  0  0  0  0  0  0  0  0  0
    9.9831  -15.7652   16.5790 C   0  0  0  0  0  0  0  0  0  0  0  0
   11.1904  -15.4114   16.6114 O   0  0  0  0  0  0  0  0  0  0  0  0
    8.4914  -12.2827   19.1567 C   0  0  0  0  0  0  0  0  0  0  0  0
    7.7074  -13.6093   19.2114 C   0  0  2  0  0  0  0  0  0  0  0  0
    6.4481  -13.4307   20.0134 C   0  0  0  0  0  0  0  0  0  0  0  0
    8.5918  -14.6601   19.8186 C   0  0  0  0  0  0  0  0  0  0  0  0
    9.7993  -15.0349   19.0012 C   0  0  2  0  0  0  0  0  0  0  0  0
    9.2282  -15.6025   17.7559 N   0  0  0  0  0  0  0  0  0  0  0  0
   10.6350  -16.0935   19.5880 C   0  0  0  0  0  0  0  0  0  0  0  0
   10.5842  -17.2431   19.0569 O   0  0  0  0  0  0  0  0  0  0  0  0
   16.8614  -12.8869   16.2050 N   0  0  0  0  0  0  0  0  0  0  0  0
   17.5883  -13.6595   17.1415 C   0  0  0  0  0  0  0  0  0  0  0  0
   18.8958  -13.6500   17.1249 N   0  0  0  0  0  0  0  0  0  0  0  0
   16.8798  -14.4481   18.1030 N   0  0  0  0  0  0  0  0  0  0  0  0
   15.4363  -14.3419   18.2002 C   0  0  0  0  0  0  0  0  0  0  0  0
   14.9866  -15.3046   19.3123 C   0  0  0  0  0  0  0  0  0  0  0  0
   13.4983  -15.2438   19.4888 C   0  0  0  0  0  0  0  0  0  0  0  0
   12.9615  -16.0933   20.5930 C   0  0  2  0  0  0  0  0  0  0  0  0
   11.4995  -15.9649   20.6891 N   0  0  0  0  0  0  0  0  0  0  0  0
   13.5953  -15.9017   21.8997 C   0  0  0  0  0  0  0  0  0  0  0  0
   12.9429  -15.2288   22.9555 O   0  0  0  0  0  0  0  0  0  0  0  0
   14.7458  -16.3092   22.1882 O   0  0  0  0  0  0  0  0  0  0  0  0
  1  2  1  0
  3  2  1  0
  3  5  1  0
  3  4  1  6
  5  6  2  0
  8  7  1  1
  8  9  1  0
 10  8  1  0
 11 10  1  1
 12 11  1  0
 12  5  1  0
 13 11  1  0
 13 14  2  0
 15 16  1  0
 16 17  2  0
 18 16  1  0
 18 19  1  0
 20 19  1  0
 20 21  1  0
 22 21  1  6
 22 23  1  0
 22 24  1  0
 23 13  1  0
 24 26  2  0
 24 25  1  0
M  END
$$$$
