SLR.pdb
     RDKit          3D

 26 25  0  0  1  0  0  0  0  0999 V2000
   11.8311  -26.7877   15.7558 O   0  0  0  0  0  0  0  0  0  0  0  0
   10.8540  -26.7811   16.7565 C   0  0  0  0  0  0  0  0  0  0  0  0
   10.1978  -25.4140   16.7042 C   0  0  2  0  0  0  0  0  0  0  0  0
    9.9614  -25.0530   15.3204 N   0  0  0  0  0  0  0  0  0  0  0  0
   11.1052  -24.4579   17.3793 C   0  0  0  0  0  0  0  0  0  0  0  0
   11.8853  -23.7661   16.6746 O   0  0  0  0  0  0  0  0  0  0  0  0
   10.8576  -20.3697   19.4417 C   0  0  0  0  0  0  0  0  0  0  0  0
   10.0898  -21.6181   19.9206 C   0  0  2  0  0  0  0  0  0  0  0  0
    9.0926  -21.2351   20.9789 C   0  0  0  0  0  0  0  0  0  0  0  0
   11.0824  -22.6144   20.4471 C   0  0  0  0  0  0  0  0  0  0  0  0
   11.9894  -23.2264   19.4128 C   0  0  2  0  0  0  0  0  0  0  0  0
   11.1525  -24.2704   18.7735 N   0  0  0  0  0  0  0  0  0  0  0  0
   13.1647  -23.9216   19.9593 C   0  0  0  0  0  0  0  0  0  0  0  0
   14.0630  -23.2143   20.5059 O   0  0  0  0  0  0  0  0  0  0  0  0
   20.9113  -24.0718   19.2345 N   0  0  0  0  0  0  0  0  0  0  0  0
   20.8131  -25.3233   19.8877 C   0  0  0  0  0  0  0  0  0  0  0  0
   21.8893  -26.0308   20.1140 N   0  0  0  0  0  0  0  0  0  0  0  0
   19.5284  -25.8041   20.2962 N   0  0  0  0  0  0  0  0  0  0  0  0
   18.3292  -25.1044   19.8758 C   0  0  0  0  0  0  0  0  0  0  0  0
   17.1302  -25.8807   20.4463 C   0  0  0  0  0  0  0  0  0  0  0  0
   15.8412  -25.2762   19.9742 C   0  0  0  0  0  0  0  0  0  0  0  0
   14.6089  -25.9315   20.5043 C   0  0  2  0  0  0  0  0  0  0  0  0
   13.4011  -25.3072   19.9432 N   0  0  0  0  0  0  0  0  0  0  0  0
   14.5245  -26.0269   21.9637 C   0  0  0  0  0  0  0  0  0  0  0  0
   14.2032  -24.9122   22.7683 O   0  0  0  0  0  0  0  0  0  0  0  0
   14.7256  -27.0822   22.6108 O   0  0  0  0  0  0  0  0  0  0  0  0
  1  2  1  0
  3  2  1  0
  3  5  1  0
  3  4  1  6
  5  6  2  0
  8  7  1  1
  8  9  1  0
 10  8  1  0
 11 10  1  1
 12 11  1  0
 12  5  1  0
 13 11  1  0
 13 14  2  0
 15 16  1  0
 16 17  2  0
 18 16  1  0
 18 19  1  0
 20 19  1  0
 20 21  1  0
 22 21  1  1
 22 23  1  0
 22 24  1  0
 23 13  1  0
 24 26  2  0
 24 25  1  0
M  END
$$$$
