SLR.pdb
     RDKit          3D

 26 25  0  0  1  0  0  0  0  0999 V2000
    5.7840  -20.6384   25.3985 O   0  0  0  0  0  0  0  0  0  0  0  0
    6.2996  -19.6487   24.5555 C   0  0  0  0  0  0  0  0  0  0  0  0
    5.3253  -18.4870   24.6143 C   0  0  2  0  0  0  0  0  0  0  0  0
    4.2467  -18.7234   23.6753 N   0  0  0  0  0  0  0  0  0  0  0  0
    6.0809  -17.2548   24.2919 C   0  0  0  0  0  0  0  0  0  0  0  0
    6.1795  -16.9053   23.0869 O   0  0  0  0  0  0  0  0  0  0  0  0
    6.5279  -12.5057   25.1576 C   0  0  0  0  0  0  0  0  0  0  0  0
    6.5203  -13.4825   26.3507 C   0  0  2  0  0  0  0  0  0  0  0  0
    6.6836  -12.7238   27.6386 C   0  0  0  0  0  0  0  0  0  0  0  0
    7.6323  -14.4738   26.1613 C   0  0  0  0  0  0  0  0  0  0  0  0
    7.5612  -15.2855   24.8953 C   0  0  2  0  0  0  0  0  0  0  0  0
    6.7031  -16.4398   25.2562 N   0  0  0  0  0  0  0  0  0  0  0  0
    8.8453  -15.8518   24.4548 C   0  0  0  0  0  0  0  0  0  0  0  0
    9.3092  -16.8327   25.1095 O   0  0  0  0  0  0  0  0  0  0  0  0
    8.5153  -12.2533   18.5118 N   0  0  0  0  0  0  0  0  0  0  0  0
    8.6426  -13.5413   17.9396 C   0  0  0  0  0  0  0  0  0  0  0  0
    8.3640  -13.7274   16.6756 N   0  0  0  0  0  0  0  0  0  0  0  0
    9.0776  -14.6333   18.7561 N   0  0  0  0  0  0  0  0  0  0  0  0
    9.9091  -14.3793   19.9173 C   0  0  0  0  0  0  0  0  0  0  0  0
   10.2915  -15.7475   20.5067 C   0  0  0  0  0  0  0  0  0  0  0  0
   11.3016  -15.5826   21.6033 C   0  0  0  0  0  0  0  0  0  0  0  0
   10.8643  -16.0822   22.9405 C   0  0  2  0  0  0  0  0  0  0  0  0
    9.6234  -15.4179   23.3675 N   0  0  0  0  0  0  0  0  0  0  0  0
   11.8801  -16.0312   23.9948 C   0  0  0  0  0  0  0  0  0  0  0  0
   13.1407  -16.6499   23.8486 O   0  0  0  0  0  0  0  0  0  0  0  0
   11.7226  -15.4474   25.0935 O   0  0  0  0  0  0  0  0  0  0  0  0
  1  2  1  0
  3  2  1  0
  3  5  1  0
  3  4  1  6
  5  6  2  0
  8  7  1  6
  8  9  1  0
 10  8  1  0
 11 10  1  1
 12 11  1  0
 12  5  1  0
 13 11  1  0
 13 14  2  0
 15 16  1  0
 16 17  2  0
 18 16  1  0
 18 19  1  0
 20 19  1  0
 20 21  1  0
 22 21  1  6
 22 23  1  0
 22 24  1  0
 23 13  1  0
 24 26  2  0
 24 25  1  0
M  END
$$$$
