SLR.pdb
     RDKit          3D

 26 25  0  0  1  0  0  0  0  0999 V2000
   10.0072  -19.5087   19.0294 O   0  0  0  0  0  0  0  0  0  0  0  0
    8.9327  -18.9255   18.3502 C   0  0  0  0  0  0  0  0  0  0  0  0
    9.4871  -17.7033   17.6422 C   0  0  2  0  0  0  0  0  0  0  0  0
   10.6510  -18.0891   16.8692 N   0  0  0  0  0  0  0  0  0  0  0  0
    9.8182  -16.6994   18.6793 C   0  0  0  0  0  0  0  0  0  0  0  0
   11.0203  -16.5642   19.0264 O   0  0  0  0  0  0  0  0  0  0  0  0
    8.7735  -12.1334   19.4050 C   0  0  0  0  0  0  0  0  0  0  0  0
    7.6552  -13.1920   19.4845 C   0  0  2  0  0  0  0  0  0  0  0  0
    6.3251  -12.5217   19.6911 C   0  0  0  0  0  0  0  0  0  0  0  0
    7.9691  -14.1319   20.6129 C   0  0  0  0  0  0  0  0  0  0  0  0
    9.2084  -14.9667   20.4285 C   0  0  2  0  0  0  0  0  0  0  0  0
    8.8652  -15.8770   19.3093 N   0  0  0  0  0  0  0  0  0  0  0  0
    9.5439  -15.8305   21.5708 C   0  0  0  0  0  0  0  0  0  0  0  0
    8.6421  -16.6096   22.0018 O   0  0  0  0  0  0  0  0  0  0  0  0
   10.1378  -22.9558   23.9893 N   0  0  0  0  0  0  0  0  0  0  0  0
   10.9049  -22.7965   22.8109 C   0  0  0  0  0  0  0  0  0  0  0  0
   11.5182  -23.8243   22.2841 N   0  0  0  0  0  0  0  0  0  0  0  0
   11.0015  -21.5038   22.2044 N   0  0  0  0  0  0  0  0  0  0  0  0
   11.9972  -20.5592   22.6742 C   0  0  0  0  0  0  0  0  0  0  0  0
   11.2490  -19.4658   23.4554 C   0  0  0  0  0  0  0  0  0  0  0  0
   10.9369  -18.3025   22.5613 C   0  0  0  0  0  0  0  0  0  0  0  0
   11.1396  -16.9603   23.1830 C   0  0  2  0  0  0  0  0  0  0  0  0
   10.7765  -15.8881   22.2440 N   0  0  0  0  0  0  0  0  0  0  0  0
   12.4650  -16.7285   23.7622 C   0  0  0  0  0  0  0  0  0  0  0  0
   13.3021  -15.6819   23.3184 O   0  0  0  0  0  0  0  0  0  0  0  0
   12.9605  -17.4231   24.6814 O   0  0  0  0  0  0  0  0  0  0  0  0
  1  2  1  0
  3  2  1  0
  3  5  1  0
  3  4  1  1
  5  6  2  0
  8  7  1  1
  8  9  1  0
 10  8  1  0
 11 10  1  1
 12 11  1  0
 12  5  1  0
 13 11  1  0
 13 14  2  0
 15 16  1  0
 16 17  2  0
 18 16  1  0
 18 19  1  0
 20 19  1  0
 20 21  1  0
 22 21  1  6
 22 23  1  0
 22 24  1  0
 23 13  1  0
 24 26  2  0
 24 25  1  0
M  END
$$$$
