SLR.pdb
     RDKit          3D

 26 25  0  0  1  0  0  0  0  0999 V2000
    7.3071  -16.2546   20.4998 O   0  0  0  0  0  0  0  0  0  0  0  0
    6.0813  -15.7507   20.9468 C   0  0  0  0  0  0  0  0  0  0  0  0
    6.2743  -14.2570   21.1303 C   0  0  2  0  0  0  0  0  0  0  0  0
    6.7329  -13.6802   19.8820 N   0  0  0  0  0  0  0  0  0  0  0  0
    7.2552  -14.0652   22.2230 C   0  0  0  0  0  0  0  0  0  0  0  0
    8.4569  -13.8421   21.9230 O   0  0  0  0  0  0  0  0  0  0  0  0
    7.4128  -11.2460   25.8754 C   0  0  0  0  0  0  0  0  0  0  0  0
    6.3761  -12.3833   25.9713 C   0  0  2  0  0  0  0  0  0  0  0  0
    5.5955  -12.2623   27.2508 C   0  0  0  0  0  0  0  0  0  0  0  0
    7.1020  -13.6961   25.9019 C   0  0  0  0  0  0  0  0  0  0  0  0
    7.9306  -13.9078   24.6629 C   0  0  2  0  0  0  0  0  0  0  0  0
    6.9275  -14.1167   23.5909 N   0  0  0  0  0  0  0  0  0  0  0  0
    8.7676  -15.1172   24.6817 C   0  0  0  0  0  0  0  0  0  0  0  0
    8.1825  -16.2334   24.8158 O   0  0  0  0  0  0  0  0  0  0  0  0
   15.1979  -14.9025   22.0247 N   0  0  0  0  0  0  0  0  0  0  0  0
   15.7921  -15.7926   22.9505 C   0  0  0  0  0  0  0  0  0  0  0  0
   16.8456  -15.4231   23.6314 N   0  0  0  0  0  0  0  0  0  0  0  0
   15.2298  -17.0961   23.1326 N   0  0  0  0  0  0  0  0  0  0  0  0
   13.9973  -17.4511   22.4550 C   0  0  0  0  0  0  0  0  0  0  0  0
   12.9133  -17.5963   23.5364 C   0  0  0  0  0  0  0  0  0  0  0  0
   12.0096  -16.3992   23.5375 C   0  0  0  0  0  0  0  0  0  0  0  0
   10.9372  -16.4226   24.5761 C   0  0  2  0  0  0  0  0  0  0  0  0
   10.1672  -15.1695   24.5621 N   0  0  0  0  0  0  0  0  0  0  0  0
   11.3811  -16.7545   25.9321 C   0  0  0  0  0  0  0  0  0  0  0  0
   11.8608  -18.0390   26.2681 O   0  0  0  0  0  0  0  0  0  0  0  0
   11.3739  -15.9456   26.8905 O   0  0  0  0  0  0  0  0  0  0  0  0
  1  2  1  0
  3  2  1  0
  3  5  1  0
  3  4  1  6
  5  6  2  0
  8  7  1  1
  8  9  1  0
 10  8  1  0
 11 10  1  1
 12 11  1  0
 12  5  1  0
 13 11  1  0
 13 14  2  0
 15 16  1  0
 16 17  2  0
 18 16  1  0
 18 19  1  0
 20 19  1  0
 20 21  1  0
 22 21  1  6
 22 23  1  0
 22 24  1  0
 23 13  1  0
 24 26  2  0
 24 25  1  0
M  END
$$$$
