SLR.pdb
     RDKit          3D

 26 25  0  0  1  0  0  0  0  0999 V2000
    8.9540  -14.9426   19.5596 O   0  0  0  0  0  0  0  0  0  0  0  0
    7.7447  -15.3244   20.1493 C   0  0  0  0  0  0  0  0  0  0  0  0
    8.1050  -16.1968   21.3373 C   0  0  2  0  0  0  0  0  0  0  0  0
    6.9663  -17.0250   21.6814 N   0  0  0  0  0  0  0  0  0  0  0  0
    8.4930  -15.2983   22.4487 C   0  0  0  0  0  0  0  0  0  0  0  0
    9.5567  -14.6339   22.3442 O   0  0  0  0  0  0  0  0  0  0  0  0
    5.7407  -12.6893   27.2488 C   0  0  0  0  0  0  0  0  0  0  0  0
    7.1303  -13.0232   26.6699 C   0  0  2  0  0  0  0  0  0  0  0  0
    7.8890  -11.7559   26.3882 C   0  0  0  0  0  0  0  0  0  0  0  0
    6.9427  -13.8317   25.4184 C   0  0  0  0  0  0  0  0  0  0  0  0
    8.2119  -14.3193   24.7717 C   0  0  2  0  0  0  0  0  0  0  0  0
    7.7412  -15.1371   23.6277 N   0  0  0  0  0  0  0  0  0  0  0  0
    9.0240  -15.2154   25.6089 C   0  0  0  0  0  0  0  0  0  0  0  0
    9.5512  -14.7258   26.6522 O   0  0  0  0  0  0  0  0  0  0  0  0
   14.0569  -18.9238   20.8740 N   0  0  0  0  0  0  0  0  0  0  0  0
   12.6460  -19.0108   20.8087 C   0  0  0  0  0  0  0  0  0  0  0  0
   12.0398  -18.9712   19.6507 N   0  0  0  0  0  0  0  0  0  0  0  0
   11.8930  -19.1422   22.0187 N   0  0  0  0  0  0  0  0  0  0  0  0
   12.2246  -18.3208   23.1675 C   0  0  0  0  0  0  0  0  0  0  0  0
   11.1850  -18.6293   24.2582 C   0  0  0  0  0  0  0  0  0  0  0  0
   11.4123  -17.7613   25.4602 C   0  0  0  0  0  0  0  0  0  0  0  0
   10.1757  -17.3912   26.2107 C   0  0  2  0  0  0  0  0  0  0  0  0
    9.2797  -16.5777   25.3748 N   0  0  0  0  0  0  0  0  0  0  0  0
   10.3955  -16.7628   27.5156 C   0  0  0  0  0  0  0  0  0  0  0  0
   11.0464  -15.5167   27.6450 O   0  0  0  0  0  0  0  0  0  0  0  0
   10.0332  -17.2649   28.6062 O   0  0  0  0  0  0  0  0  0  0  0  0
  1  2  1  0
  3  2  1  0
  3  5  1  0
  3  4  1  1
  5  6  2  0
  8  7  1  6
  8  9  1  0
 10  8  1  0
 11 10  1  1
 12 11  1  0
 12  5  1  0
 13 11  1  0
 13 14  2  0
 15 16  1  0
 16 17  2  0
 18 16  1  0
 18 19  1  0
 20 19  1  0
 20 21  1  0
 22 21  1  6
 22 23  1  0
 22 24  1  0
 23 13  1  0
 24 26  2  0
 24 25  1  0
M  END
$$$$
