EQR.pdb
     RDKit          3D

 30 29  0  0  1  0  0  0  0  0999 V2000
   19.2122   -8.4855  -15.5879 N   0  0  0  0  0  0  0  0  0  0  0  0
   17.8123   -8.6371  -15.8831 C   0  0  1  0  0  0  0  0  0  0  0  0
   17.6627   -9.9669  -16.6139 C   0  0  0  0  0  0  0  0  0  0  0  0
   18.9828  -10.2575  -17.3084 C   0  0  0  0  0  0  0  0  0  0  0  0
   18.7322  -10.9579  -18.5930 C   0  0  0  0  0  0  0  0  0  0  0  0
   19.0677  -12.1634  -18.7184 O   0  0  0  0  0  0  0  0  0  0  0  0
   17.0134   -8.6123  -14.6385 C   0  0  0  0  0  0  0  0  0  0  0  0
   15.7805   -8.8500  -14.6047 O   0  0  0  0  0  0  0  0  0  0  0  0
   18.1331  -10.2707  -19.6313 O   0  0  0  0  0  0  0  0  0  0  0  0
   14.2752   -9.8668   -9.8262 N   0  0  0  0  0  0  0  0  0  0  0  0
   15.6408  -10.1815   -9.9885 C   0  0  0  0  0  0  0  0  0  0  0  0
   16.0017  -11.3672  -10.1486 O   0  0  0  0  0  0  0  0  0  0  0  0
   16.6506   -9.1158   -9.9704 C   0  0  0  0  0  0  0  0  0  0  0  0
   17.5395   -9.1413  -11.1966 C   0  0  0  0  0  0  0  0  0  0  0  0
   16.9176   -8.1539  -12.1953 C   0  0  2  0  0  0  0  0  0  0  0  0
   17.6514   -8.3074  -13.4129 N   0  0  0  0  0  0  0  0  0  0  0  0
   16.9450   -6.7799  -11.6606 C   0  0  0  0  0  0  0  0  0  0  0  0
   17.9668   -6.0706  -11.7978 O   0  0  0  0  0  0  0  0  0  0  0  0
   11.9234    0.1816  -11.5362 N   0  0  0  0  0  0  0  0  0  0  0  0
   12.1900   -1.0417  -12.2091 C   0  0  0  0  0  0  0  0  0  0  0  0
   11.8117   -1.1557  -13.4358 N   0  0  0  0  0  0  0  0  0  0  0  0
   12.8493   -2.1321  -11.5939 N   0  0  0  0  0  0  0  0  0  0  0  0
   13.3875   -1.9764  -10.2601 C   0  0  0  0  0  0  0  0  0  0  0  0
   14.6982   -2.7255  -10.1586 C   0  0  0  0  0  0  0  0  0  0  0  0
   14.6025   -4.1605  -10.5706 C   0  0  0  0  0  0  0  0  0  0  0  0
   15.9236   -4.8316  -10.5361 C   0  0  2  0  0  0  0  0  0  0  0  0
   15.8434   -6.2192  -10.9856 N   0  0  0  0  0  0  0  0  0  0  0  0
   16.5716   -4.7839   -9.2113 C   0  0  0  0  0  0  0  0  0  0  0  0
   16.9966   -6.0072   -8.6536 O   0  0  0  0  0  0  0  0  0  0  0  0
   16.7718   -3.7620   -8.5519 O   0  0  0  0  0  0  0  0  0  0  0  0
  2  1  1  1
  2  3  1  0
  3  4  1  0
  5  6  2  0
  5  4  1  0
  7  8  2  0
  7  2  1  0
  9  5  1  0
 10 11  1  0
 11 13  1  0
 12 11  2  0
 13 14  1  0
 15 14  1  1
 15 16  1  0
 16  7  1  0
 17 18  2  0
 17 15  1  0
 20 21  2  0
 20 19  1  0
 22 20  1  0
 23 22  1  0
 24 23  1  0
 24 25  1  0
 26 25  1  1
 26 27  1  0
 27 17  1  0
 28 26  1  0
 29 28  1  0
 30 28  2  0
M  END
$$$$
