EQR.pdb
     RDKit          3D

 30 29  0  0  1  0  0  0  0  0999 V2000
   28.3530  -20.7568  -16.8310 N   0  0  0  0  0  0  0  0  0  0  0  0
   28.2345  -20.1493  -15.5323 C   0  0  1  0  0  0  0  0  0  0  0  0
   28.1422  -18.6448  -15.7619 C   0  0  0  0  0  0  0  0  0  0  0  0
   26.9764  -18.3972  -16.7049 C   0  0  0  0  0  0  0  0  0  0  0  0
   26.8094  -16.9390  -16.9269 C   0  0  0  0  0  0  0  0  0  0  0  0
   27.6777  -16.3075  -17.5817 O   0  0  0  0  0  0  0  0  0  0  0  0
   27.0402  -20.6619  -14.8261 C   0  0  0  0  0  0  0  0  0  0  0  0
   26.0399  -21.1383  -15.4177 O   0  0  0  0  0  0  0  0  0  0  0  0
   25.6996  -16.2997  -16.4086 O   0  0  0  0  0  0  0  0  0  0  0  0
   26.7570  -20.9419   -8.4691 N   0  0  0  0  0  0  0  0  0  0  0  0
   25.4250  -21.0120   -8.9285 C   0  0  0  0  0  0  0  0  0  0  0  0
   24.4767  -21.0448   -8.1153 O   0  0  0  0  0  0  0  0  0  0  0  0
   25.1423  -21.0471  -10.3688 C   0  0  0  0  0  0  0  0  0  0  0  0
   26.3970  -21.2207  -11.1997 C   0  0  0  0  0  0  0  0  0  0  0  0
   25.9408  -21.2232  -12.6663 C   0  0  2  0  0  0  0  0  0  0  0  0
   27.0028  -20.6227  -13.4122 N   0  0  0  0  0  0  0  0  0  0  0  0
   24.6496  -20.5266  -12.8152 C   0  0  0  0  0  0  0  0  0  0  0  0
   24.5800  -19.2875  -12.6547 O   0  0  0  0  0  0  0  0  0  0  0  0
   17.4141  -21.0487  -17.0420 N   0  0  0  0  0  0  0  0  0  0  0  0
   17.6558  -19.6504  -16.9615 C   0  0  0  0  0  0  0  0  0  0  0  0
   16.6541  -18.8513  -17.0987 N   0  0  0  0  0  0  0  0  0  0  0  0
   18.9409  -19.1019  -16.7379 N   0  0  0  0  0  0  0  0  0  0  0  0
   20.0657  -19.9879  -16.5312 C   0  0  0  0  0  0  0  0  0  0  0  0
   20.5377  -19.8717  -15.0983 C   0  0  0  0  0  0  0  0  0  0  0  0
   21.7661  -20.6735  -14.8045 C   0  0  0  0  0  0  0  0  0  0  0  0
   22.2571  -20.4415  -13.4253 C   0  0  2  0  0  0  0  0  0  0  0  0
   23.4633  -21.2137  -13.1376 N   0  0  0  0  0  0  0  0  0  0  0  0
   21.2437  -20.7139  -12.3881 C   0  0  0  0  0  0  0  0  0  0  0  0
   20.3662  -19.6639  -12.0480 O   0  0  0  0  0  0  0  0  0  0  0  0
   21.1011  -21.7846  -11.7942 O   0  0  0  0  0  0  0  0  0  0  0  0
  2  1  1  6
  2  3  1  0
  3  4  1  0
  5  6  2  0
  5  4  1  0
  7  8  2  0
  7  2  1  0
  9  5  1  0
 10 11  1  0
 11 13  1  0
 12 11  2  0
 13 14  1  0
 15 14  1  1
 15 16  1  0
 16  7  1  0
 17 18  2  0
 17 15  1  0
 20 21  2  0
 20 19  1  0
 22 20  1  0
 23 22  1  0
 24 23  1  0
 24 25  1  0
 26 25  1  6
 26 27  1  0
 27 17  1  0
 28 26  1  0
 29 28  1  0
 30 28  2  0
M  END
$$$$
