EQR.pdb
     RDKit          3D

 30 29  0  0  1  0  0  0  0  0999 V2000
   20.8464  -28.3084  -12.5227 N   0  0  0  0  0  0  0  0  0  0  0  0
   20.8378  -27.6745  -13.8142 C   0  0  1  0  0  0  0  0  0  0  0  0
   19.8152  -28.4243  -14.6607 C   0  0  0  0  0  0  0  0  0  0  0  0
   20.3810  -29.8063  -14.9430 C   0  0  0  0  0  0  0  0  0  0  0  0
   21.0824  -29.8055  -16.2512 C   0  0  0  0  0  0  0  0  0  0  0  0
   22.2606  -29.3715  -16.3235 O   0  0  0  0  0  0  0  0  0  0  0  0
   20.4882  -26.2428  -13.6877 C   0  0  0  0  0  0  0  0  0  0  0  0
   19.6504  -25.8074  -12.8593 O   0  0  0  0  0  0  0  0  0  0  0  0
   20.4264  -30.2831  -17.3695 O   0  0  0  0  0  0  0  0  0  0  0  0
   23.2679  -22.0077  -13.0196 N   0  0  0  0  0  0  0  0  0  0  0  0
   22.4341  -21.1660  -13.7855 C   0  0  0  0  0  0  0  0  0  0  0  0
   22.2945  -19.9633  -13.4764 O   0  0  0  0  0  0  0  0  0  0  0  0
   21.7224  -21.6982  -14.9542 C   0  0  0  0  0  0  0  0  0  0  0  0
   21.9723  -23.1783  -15.1582 C   0  0  0  0  0  0  0  0  0  0  0  0
   20.8013  -23.9061  -14.4816 C   0  0  2  0  0  0  0  0  0  0  0  0
   21.1182  -25.2995  -14.5333 N   0  0  0  0  0  0  0  0  0  0  0  0
   19.5244  -23.5680  -15.1372 C   0  0  0  0  0  0  0  0  0  0  0  0
   18.9764  -24.3864  -15.9092 O   0  0  0  0  0  0  0  0  0  0  0  0
   12.8691  -25.8181  -11.5190 N   0  0  0  0  0  0  0  0  0  0  0  0
   12.3722  -24.8975  -12.4812 C   0  0  0  0  0  0  0  0  0  0  0  0
   11.0963  -24.8167  -12.6431 N   0  0  0  0  0  0  0  0  0  0  0  0
   13.2132  -24.0707  -13.2632 N   0  0  0  0  0  0  0  0  0  0  0  0
   14.6489  -24.1867  -13.1279 C   0  0  0  0  0  0  0  0  0  0  0  0
   15.3195  -23.1522  -14.0051 C   0  0  0  0  0  0  0  0  0  0  0  0
   16.8124  -23.2489  -14.0124 C   0  0  0  0  0  0  0  0  0  0  0  0
   17.4210  -22.2844  -14.9592 C   0  0  2  0  0  0  0  0  0  0  0  0
   18.8806  -22.3333  -14.9262 N   0  0  0  0  0  0  0  0  0  0  0  0
   16.9739  -20.8941  -14.7489 C   0  0  0  0  0  0  0  0  0  0  0  0
   15.8667  -20.4489  -15.4999 O   0  0  0  0  0  0  0  0  0  0  0  0
   17.4892  -20.0894  -13.9703 O   0  0  0  0  0  0  0  0  0  0  0  0
  2  1  1  1
  2  3  1  0
  3  4  1  0
  5  6  2  0
  5  4  1  0
  7  8  2  0
  7  2  1  0
  9  5  1  0
 10 11  1  0
 11 13  1  0
 12 11  2  0
 13 14  1  0
 15 14  1  6
 15 16  1  0
 16  7  1  0
 17 18  2  0
 17 15  1  0
 20 21  2  0
 20 19  1  0
 22 20  1  0
 23 22  1  0
 24 23  1  0
 24 25  1  0
 26 25  1  1
 26 27  1  0
 27 17  1  0
 28 26  1  0
 29 28  1  0
 30 28  2  0
M  END
$$$$
