EQR.pdb
     RDKit          3D

 30 29  0  0  1  0  0  0  0  0999 V2000
   27.8847  -21.4529  -16.7553 N   0  0  0  0  0  0  0  0  0  0  0  0
   27.7049  -20.6521  -15.5736 C   0  0  1  0  0  0  0  0  0  0  0  0
   27.2482  -19.2760  -16.0452 C   0  0  0  0  0  0  0  0  0  0  0  0
   26.1364  -19.4866  -17.0598 C   0  0  0  0  0  0  0  0  0  0  0  0
   26.6090  -19.0981  -18.4123 C   0  0  0  0  0  0  0  0  0  0  0  0
   27.3970  -19.8546  -19.0354 O   0  0  0  0  0  0  0  0  0  0  0  0
   26.7090  -21.2720  -14.6726 C   0  0  0  0  0  0  0  0  0  0  0  0
   26.0838  -22.3243  -14.9545 O   0  0  0  0  0  0  0  0  0  0  0  0
   26.1733  -17.9087  -18.9642 O   0  0  0  0  0  0  0  0  0  0  0  0
   25.4637  -21.2647   -8.4940 N   0  0  0  0  0  0  0  0  0  0  0  0
   25.6103  -19.9917   -9.0843 C   0  0  0  0  0  0  0  0  0  0  0  0
   25.4355  -18.9566   -8.4063 O   0  0  0  0  0  0  0  0  0  0  0  0
   25.9701  -19.8734  -10.5028 C   0  0  0  0  0  0  0  0  0  0  0  0
   26.3344  -21.2080  -11.1197 C   0  0  0  0  0  0  0  0  0  0  0  0
   25.5803  -21.2807  -12.4558 C   0  0  2  0  0  0  0  0  0  0  0  0
   26.4321  -20.6647  -13.4251 N   0  0  0  0  0  0  0  0  0  0  0  0
   24.2555  -20.6425  -12.3458 C   0  0  0  0  0  0  0  0  0  0  0  0
   23.4876  -20.9430  -11.4045 O   0  0  0  0  0  0  0  0  0  0  0  0
   25.2912  -17.4369  -17.9687 N   0  0  0  0  0  0  0  0  0  0  0  0
   24.0791  -16.6994  -17.8853 C   0  0  0  0  0  0  0  0  0  0  0  0
   23.9075  -15.7174  -18.7020 N   0  0  0  0  0  0  0  0  0  0  0  0
   23.0591  -16.9959  -16.9504 N   0  0  0  0  0  0  0  0  0  0  0  0
   23.2858  -18.0173  -15.9513 C   0  0  0  0  0  0  0  0  0  0  0  0
   22.4316  -19.2255  -16.2680 C   0  0  0  0  0  0  0  0  0  0  0  0
   22.5826  -20.3416  -15.2832 C   0  0  0  0  0  0  0  0  0  0  0  0
   22.4900  -19.8575  -13.8853 C   0  0  2  0  0  0  0  0  0  0  0  0
   23.8075  -19.6866  -13.2780 N   0  0  0  0  0  0  0  0  0  0  0  0
   21.6610  -20.7182  -13.0199 C   0  0  0  0  0  0  0  0  0  0  0  0
   22.3189  -21.4397  -12.0027 O   0  0  0  0  0  0  0  0  0  0  0  0
   20.4400  -20.8586  -13.1133 O   0  0  0  0  0  0  0  0  0  0  0  0
  2  1  1  6
  2  3  1  0
  3  4  1  0
  5  6  2  0
  5  4  1  0
  7  8  2  0
  7  2  1  0
  9  5  1  0
 10 11  1  0
 11 13  1  0
 12 11  2  0
 13 14  1  0
 15 14  1  1
 15 16  1  0
 16  7  1  0
 17 18  2  0
 17 15  1  0
 20 21  2  0
 20 19  1  0
 22 20  1  0
 23 22  1  0
 24 23  1  0
 24 25  1  0
 26 25  1  6
 26 27  1  0
 27 17  1  0
 28 26  1  0
 29 28  1  0
 30 28  2  0
M  END
$$$$
