EQR.pdb
     RDKit          3D

 30 29  0  0  1  0  0  0  0  0999 V2000
   27.3942  -21.4550  -16.4604 N   0  0  0  0  0  0  0  0  0  0  0  0
   26.3505  -20.5353  -16.0935 C   0  0  1  0  0  0  0  0  0  0  0  0
   25.5915  -20.2045  -17.3737 C   0  0  0  0  0  0  0  0  0  0  0  0
   26.5358  -19.4289  -18.2773 C   0  0  0  0  0  0  0  0  0  0  0  0
   26.5290  -17.9935  -17.8989 C   0  0  0  0  0  0  0  0  0  0  0  0
   27.6142  -17.4168  -17.6321 O   0  0  0  0  0  0  0  0  0  0  0  0
   25.4598  -21.1385  -15.0783 C   0  0  0  0  0  0  0  0  0  0  0  0
   25.0015  -22.3046  -15.1676 O   0  0  0  0  0  0  0  0  0  0  0  0
   25.3267  -17.3146  -17.8463 O   0  0  0  0  0  0  0  0  0  0  0  0
   25.9646  -20.3173   -9.0107 N   0  0  0  0  0  0  0  0  0  0  0  0
   24.8144  -21.1195   -9.1656 C   0  0  0  0  0  0  0  0  0  0  0  0
   24.3108  -21.6995   -8.1799 O   0  0  0  0  0  0  0  0  0  0  0  0
   24.1992  -21.2791  -10.4891 C   0  0  0  0  0  0  0  0  0  0  0  0
   24.9966  -20.5989  -11.5827 C   0  0  0  0  0  0  0  0  0  0  0  0
   24.2772  -20.9234  -12.9003 C   0  0  2  0  0  0  0  0  0  0  0  0
   25.0936  -20.3804  -13.9412 N   0  0  0  0  0  0  0  0  0  0  0  0
   22.9021  -20.3908  -12.8922 C   0  0  0  0  0  0  0  0  0  0  0  0
   22.7035  -19.1607  -12.7767 O   0  0  0  0  0  0  0  0  0  0  0  0
   18.8250  -19.3210  -17.7515 N   0  0  0  0  0  0  0  0  0  0  0  0
   19.5395  -20.4139  -18.3130 C   0  0  0  0  0  0  0  0  0  0  0  0
   20.1277  -20.2379  -19.4461 N   0  0  0  0  0  0  0  0  0  0  0  0
   19.6326  -21.6784  -17.6847 N   0  0  0  0  0  0  0  0  0  0  0  0
   19.0888  -21.8534  -16.3556 C   0  0  0  0  0  0  0  0  0  0  0  0
   19.9674  -21.1326  -15.3565 C   0  0  0  0  0  0  0  0  0  0  0  0
   19.5207  -21.2952  -13.9380 C   0  0  0  0  0  0  0  0  0  0  0  0
   20.4449  -20.6276  -12.9908 C   0  0  2  0  0  0  0  0  0  0  0  0
   21.7762  -21.2285  -13.0114 N   0  0  0  0  0  0  0  0  0  0  0  0
   19.9434  -20.5988  -11.6035 C   0  0  0  0  0  0  0  0  0  0  0  0
   18.9050  -19.6915  -11.3087 O   0  0  0  0  0  0  0  0  0  0  0  0
   20.3578  -21.3030  -10.6806 O   0  0  0  0  0  0  0  0  0  0  0  0
  2  1  1  6
  2  3  1  0
  3  4  1  0
  5  6  2  0
  5  4  1  0
  7  8  2  0
  7  2  1  0
  9  5  1  0
 10 11  1  0
 11 13  1  0
 12 11  2  0
 13 14  1  0
 15 14  1  1
 15 16  1  0
 16  7  1  0
 17 18  2  0
 17 15  1  0
 20 21  2  0
 20 19  1  0
 22 20  1  0
 23 22  1  0
 24 23  1  0
 24 25  1  0
 26 25  1  6
 26 27  1  0
 27 17  1  0
 28 26  1  0
 29 28  1  0
 30 28  2  0
M  END
$$$$
