EQR.pdb
     RDKit          3D

 30 29  0  0  1  0  0  0  0  0999 V2000
   25.7638  -22.3961  -13.0664 N   0  0  0  0  0  0  0  0  0  0  0  0
   25.6916  -20.9648  -12.9401 C   0  0  1  0  0  0  0  0  0  0  0  0
   26.5856  -20.3855  -14.0309 C   0  0  0  0  0  0  0  0  0  0  0  0
   26.1404  -20.9869  -15.3537 C   0  0  0  0  0  0  0  0  0  0  0  0
   27.0238  -20.5089  -16.4467 C   0  0  0  0  0  0  0  0  0  0  0  0
   27.9429  -19.6902  -16.1887 O   0  0  0  0  0  0  0  0  0  0  0  0
   24.2946  -20.5005  -13.0839 C   0  0  0  0  0  0  0  0  0  0  0  0
   23.9716  -19.2875  -13.1307 O   0  0  0  0  0  0  0  0  0  0  0  0
   26.8200  -20.9734  -17.7319 O   0  0  0  0  0  0  0  0  0  0  0  0
   21.2547  -19.9926  -17.5280 N   0  0  0  0  0  0  0  0  0  0  0  0
   20.2177  -19.8356  -16.5843 C   0  0  0  0  0  0  0  0  0  0  0  0
   19.1141  -19.3626  -16.9305 O   0  0  0  0  0  0  0  0  0  0  0  0
   20.4281  -20.2276  -15.1852 C   0  0  0  0  0  0  0  0  0  0  0  0
   21.8420  -20.7052  -14.9254 C   0  0  0  0  0  0  0  0  0  0  0  0
   21.9003  -21.0765  -13.4361 C   0  0  2  0  0  0  0  0  0  0  0  0
   23.2543  -21.4551  -13.1753 N   0  0  0  0  0  0  0  0  0  0  0  0
   20.9220  -22.1337  -13.1204 C   0  0  0  0  0  0  0  0  0  0  0  0
   21.3109  -23.2486  -12.7061 O   0  0  0  0  0  0  0  0  0  0  0  0
   18.4898  -25.2209   -6.0607 N   0  0  0  0  0  0  0  0  0  0  0  0
   17.6802  -24.7785   -7.1420 C   0  0  0  0  0  0  0  0  0  0  0  0
   16.4340  -25.1068   -7.1425 N   0  0  0  0  0  0  0  0  0  0  0  0
   18.1808  -23.9974   -8.2105 N   0  0  0  0  0  0  0  0  0  0  0  0
   17.3069  -23.6566   -9.3119 C   0  0  0  0  0  0  0  0  0  0  0  0
   17.9496  -24.0871  -10.6124 C   0  0  0  0  0  0  0  0  0  0  0  0
   18.8453  -23.0492  -11.2112 C   0  0  0  0  0  0  0  0  0  0  0  0
   18.6176  -22.9011  -12.6683 C   0  0  2  0  0  0  0  0  0  0  0  0
   19.5355  -21.9368  -13.2695 N   0  0  0  0  0  0  0  0  0  0  0  0
   17.2302  -22.5342  -13.0111 C   0  0  0  0  0  0  0  0  0  0  0  0
   16.2624  -23.5592  -12.9799 O   0  0  0  0  0  0  0  0  0  0  0  0
   16.8475  -21.4047  -13.3227 O   0  0  0  0  0  0  0  0  0  0  0  0
  2  1  1  6
  2  3  1  0
  3  4  1  0
  5  6  2  0
  5  4  1  0
  7  8  2  0
  7  2  1  0
  9  5  1  0
 10 11  1  0
 11 13  1  0
 12 11  2  0
 13 14  1  0
 15 14  1  6
 15 16  1  0
 16  7  1  0
 17 18  2  0
 17 15  1  0
 20 21  2  0
 20 19  1  0
 22 20  1  0
 23 22  1  0
 24 23  1  0
 24 25  1  0
 26 25  1  1
 26 27  1  0
 27 17  1  0
 28 26  1  0
 29 28  1  0
 30 28  2  0
M  END
$$$$
