EQR.pdb
     RDKit          3D

 30 29  0  0  1  0  0  0  0  0999 V2000
   23.7271  -18.8249  -14.8800 N   0  0  0  0  0  0  0  0  0  0  0  0
   23.4275  -18.1753  -16.1282 C   0  0  1  0  0  0  0  0  0  0  0  0
   24.2872  -18.8530  -17.1894 C   0  0  0  0  0  0  0  0  0  0  0  0
   25.7268  -18.4285  -16.9506 C   0  0  0  0  0  0  0  0  0  0  0  0
   26.5895  -18.9348  -18.0474 C   0  0  0  0  0  0  0  0  0  0  0  0
   26.0665  -19.5299  -19.0240 O   0  0  0  0  0  0  0  0  0  0  0  0
   21.9872  -18.2947  -16.4432 C   0  0  0  0  0  0  0  0  0  0  0  0
   21.4825  -17.9043  -17.5251 O   0  0  0  0  0  0  0  0  0  0  0  0
   27.9559  -18.7425  -17.9755 O   0  0  0  0  0  0  0  0  0  0  0  0
   18.7262  -22.5122  -13.4071 N   0  0  0  0  0  0  0  0  0  0  0  0
   19.9138  -22.5037  -14.1686 C   0  0  0  0  0  0  0  0  0  0  0  0
   20.6676  -23.5003  -14.1754 O   0  0  0  0  0  0  0  0  0  0  0  0
   20.2737  -21.3209  -14.9606 C   0  0  0  0  0  0  0  0  0  0  0  0
   19.2704  -20.1963  -14.8080 C   0  0  0  0  0  0  0  0  0  0  0  0
   19.7282  -19.0835  -15.7625 C   0  0  2  0  0  0  0  0  0  0  0  0
   21.1166  -18.8754  -15.4909 N   0  0  0  0  0  0  0  0  0  0  0  0
   18.9061  -17.8717  -15.5881 C   0  0  0  0  0  0  0  0  0  0  0  0
   19.1278  -17.0917  -14.6350 O   0  0  0  0  0  0  0  0  0  0  0  0
   14.9097  -12.0548  -20.6644 N   0  0  0  0  0  0  0  0  0  0  0  0
   16.1488  -12.0747  -19.9685 C   0  0  0  0  0  0  0  0  0  0  0  0
   17.0880  -11.2924  -20.3765 N   0  0  0  0  0  0  0  0  0  0  0  0
   16.3932  -12.9109  -18.8534 N   0  0  0  0  0  0  0  0  0  0  0  0
   15.3174  -13.7190  -18.3216 C   0  0  0  0  0  0  0  0  0  0  0  0
   15.8026  -14.4496  -17.0887 C   0  0  0  0  0  0  0  0  0  0  0  0
   16.6944  -15.6119  -17.3922 C   0  0  0  0  0  0  0  0  0  0  0  0
   17.0179  -16.3896  -16.1726 C   0  0  2  0  0  0  0  0  0  0  0  0
   17.8568  -17.5480  -16.4699 N   0  0  0  0  0  0  0  0  0  0  0  0
   15.8252  -16.8295  -15.4236 C   0  0  0  0  0  0  0  0  0  0  0  0
   15.0121  -15.8282  -14.8542 O   0  0  0  0  0  0  0  0  0  0  0  0
   15.4813  -18.0010  -15.2546 O   0  0  0  0  0  0  0  0  0  0  0  0
  2  1  1  1
  2  3  1  0
  3  4  1  0
  5  6  2  0
  5  4  1  0
  7  8  2  0
  7  2  1  0
  9  5  1  0
 10 11  1  0
 11 13  1  0
 12 11  2  0
 13 14  1  0
 15 14  1  1
 15 16  1  0
 16  7  1  0
 17 18  2  0
 17 15  1  0
 20 21  2  0
 20 19  1  0
 22 20  1  0
 23 22  1  0
 24 23  1  0
 24 25  1  0
 26 25  1  6
 26 27  1  0
 27 17  1  0
 28 26  1  0
 29 28  1  0
 30 28  2  0
M  END
$$$$
