EQR.pdb
     RDKit          3D

 30 29  0  0  1  0  0  0  0  0999 V2000
   28.4779  -23.1947  -17.1453 N   0  0  0  0  0  0  0  0  0  0  0  0
   29.5447  -22.2305  -17.1019 C   0  0  1  0  0  0  0  0  0  0  0  0
   29.8719  -21.8773  -18.5486 C   0  0  0  0  0  0  0  0  0  0  0  0
   30.0739  -23.1812  -19.3027 C   0  0  0  0  0  0  0  0  0  0  0  0
   31.4401  -23.2212  -19.8820 C   0  0  0  0  0  0  0  0  0  0  0  0
   32.3050  -23.9838  -19.3801 O   0  0  0  0  0  0  0  0  0  0  0  0
   29.1333  -21.0350  -16.3341 C   0  0  0  0  0  0  0  0  0  0  0  0
   29.7003  -19.9190  -16.4380 O   0  0  0  0  0  0  0  0  0  0  0  0
   31.7379  -22.4173  -20.9656 O   0  0  0  0  0  0  0  0  0  0  0  0
   26.6039  -16.6469  -17.1548 N   0  0  0  0  0  0  0  0  0  0  0  0
   26.6194  -16.5156  -15.7502 C   0  0  0  0  0  0  0  0  0  0  0  0
   26.4249  -15.4023  -15.2171 O   0  0  0  0  0  0  0  0  0  0  0  0
   26.8647  -17.6890  -14.9024 C   0  0  0  0  0  0  0  0  0  0  0  0
   27.3003  -18.8991  -15.7027 C   0  0  0  0  0  0  0  0  0  0  0  0
   27.5866  -20.0075  -14.6787 C   0  0  2  0  0  0  0  0  0  0  0  0
   28.0481  -21.1323  -15.4315 N   0  0  0  0  0  0  0  0  0  0  0  0
   26.3893  -20.2936  -13.8669 C   0  0  0  0  0  0  0  0  0  0  0  0
   25.4459  -20.9599  -14.3485 O   0  0  0  0  0  0  0  0  0  0  0  0
   19.5993  -21.4591  -10.5811 N   0  0  0  0  0  0  0  0  0  0  0  0
   19.4198  -21.0548  -11.9318 C   0  0  0  0  0  0  0  0  0  0  0  0
   18.2175  -20.8648  -12.3550 N   0  0  0  0  0  0  0  0  0  0  0  0
   20.4980  -20.8525  -12.8257 N   0  0  0  0  0  0  0  0  0  0  0  0
   21.6762  -21.6851  -12.7180 C   0  0  0  0  0  0  0  0  0  0  0  0
   22.7228  -20.9671  -11.8944 C   0  0  0  0  0  0  0  0  0  0  0  0
   23.9422  -20.5868  -12.6734 C   0  0  0  0  0  0  0  0  0  0  0  0
   25.0628  -20.1976  -11.7848 C   0  0  2  0  0  0  0  0  0  0  0  0
   26.2597  -19.8373  -12.5408 N   0  0  0  0  0  0  0  0  0  0  0  0
   25.4069  -21.2294  -10.7878 C   0  0  0  0  0  0  0  0  0  0  0  0
   25.2305  -20.9008   -9.4280 O   0  0  0  0  0  0  0  0  0  0  0  0
   25.8362  -22.3556  -11.0462 O   0  0  0  0  0  0  0  0  0  0  0  0
  2  1  1  6
  2  3  1  0
  3  4  1  0
  5  6  2  0
  5  4  1  0
  7  8  2  0
  7  2  1  0
  9  5  1  0
 10 11  1  0
 11 13  1  0
 12 11  2  0
 13 14  1  0
 15 14  1  6
 15 16  1  0
 16  7  1  0
 17 18  2  0
 17 15  1  0
 20 21  2  0
 20 19  1  0
 22 20  1  0
 23 22  1  0
 24 23  1  0
 24 25  1  0
 26 25  1  6
 26 27  1  0
 27 17  1  0
 28 26  1  0
 29 28  1  0
 30 28  2  0
M  END
$$$$
