EQR.pdb
     RDKit          3D

 30 29  0  0  1  0  0  0  0  0999 V2000
   22.9833  -25.2481  -16.6434 N   0  0  0  0  0  0  0  0  0  0  0  0
   21.6999  -24.7861  -16.1858 C   0  0  1  0  0  0  0  0  0  0  0  0
   20.6983  -25.8881  -16.5128 C   0  0  0  0  0  0  0  0  0  0  0  0
   20.3872  -25.7969  -17.9976 C   0  0  0  0  0  0  0  0  0  0  0  0
   19.0352  -25.2164  -18.1939 C   0  0  0  0  0  0  0  0  0  0  0  0
   18.1989  -25.8204  -18.9130 O   0  0  0  0  0  0  0  0  0  0  0  0
   21.7370  -24.5035  -14.7343 C   0  0  0  0  0  0  0  0  0  0  0  0
   22.5166  -25.0827  -13.9379 O   0  0  0  0  0  0  0  0  0  0  0  0
   18.7189  -24.0191  -17.5811 O   0  0  0  0  0  0  0  0  0  0  0  0
   20.9531  -18.9054  -13.0710 N   0  0  0  0  0  0  0  0  0  0  0  0
   19.7877  -19.6138  -13.4323 C   0  0  0  0  0  0  0  0  0  0  0  0
   18.7792  -19.0028  -13.8462 O   0  0  0  0  0  0  0  0  0  0  0  0
   19.7511  -21.0776  -13.3243 C   0  0  0  0  0  0  0  0  0  0  0  0
   21.0406  -21.6486  -12.7713 C   0  0  0  0  0  0  0  0  0  0  0  0
   20.8831  -23.1758  -12.8117 C   0  0  2  0  0  0  0  0  0  0  0  0
   20.8576  -23.5348  -14.1956 N   0  0  0  0  0  0  0  0  0  0  0  0
   19.6799  -23.5988  -12.0715 C   0  0  0  0  0  0  0  0  0  0  0  0
   18.5441  -23.2464  -12.4611 O   0  0  0  0  0  0  0  0  0  0  0  0
   17.8806  -26.3160   -3.6362 N   0  0  0  0  0  0  0  0  0  0  0  0
   16.7396  -25.7796   -4.2925 C   0  0  0  0  0  0  0  0  0  0  0  0
   15.6865  -25.5458   -3.5875 N   0  0  0  0  0  0  0  0  0  0  0  0
   16.7112  -25.4924   -5.6778 N   0  0  0  0  0  0  0  0  0  0  0  0
   17.9534  -25.4329   -6.4170 C   0  0  0  0  0  0  0  0  0  0  0  0
   17.6615  -25.0784   -7.8587 C   0  0  0  0  0  0  0  0  0  0  0  0
   18.8905  -24.8579   -8.6828 C   0  0  0  0  0  0  0  0  0  0  0  0
   18.5590  -24.5800  -10.1005 C   0  0  2  0  0  0  0  0  0  0  0  0
   19.7571  -24.4016  -10.9169 N   0  0  0  0  0  0  0  0  0  0  0  0
   17.6693  -23.4164  -10.2779 C   0  0  0  0  0  0  0  0  0  0  0  0
   16.3246  -23.6744  -10.6147 O   0  0  0  0  0  0  0  0  0  0  0  0
   18.0052  -22.2367  -10.1558 O   0  0  0  0  0  0  0  0  0  0  0  0
  2  1  1  1
  2  3  1  0
  3  4  1  0
  5  6  2  0
  5  4  1  0
  7  8  2  0
  7  2  1  0
  9  5  1  0
 10 11  1  0
 11 13  1  0
 12 11  2  0
 13 14  1  0
 15 14  1  6
 15 16  1  0
 16  7  1  0
 17 18  2  0
 17 15  1  0
 20 21  2  0
 20 19  1  0
 22 20  1  0
 23 22  1  0
 24 23  1  0
 24 25  1  0
 26 25  1  1
 26 27  1  0
 27 17  1  0
 28 26  1  0
 29 28  1  0
 30 28  2  0
M  END
$$$$
