EQR.pdb
     RDKit          3D

 30 29  0  0  1  0  0  0  0  0999 V2000
   28.0874  -22.7351  -15.9214 N   0  0  0  0  0  0  0  0  0  0  0  0
   27.2711  -21.5696  -15.7092 C   0  0  1  0  0  0  0  0  0  0  0  0
   26.8788  -21.0552  -17.0898 C   0  0  0  0  0  0  0  0  0  0  0  0
   27.3143  -19.6018  -17.1766 C   0  0  0  0  0  0  0  0  0  0  0  0
   26.3487  -18.8355  -18.0036 C   0  0  0  0  0  0  0  0  0  0  0  0
   26.7707  -17.9466  -18.7866 O   0  0  0  0  0  0  0  0  0  0  0  0
   26.0798  -21.9100  -14.9012 C   0  0  0  0  0  0  0  0  0  0  0  0
   25.3545  -22.9100  -15.1282 O   0  0  0  0  0  0  0  0  0  0  0  0
   24.9994  -19.1135  -17.8979 O   0  0  0  0  0  0  0  0  0  0  0  0
   25.3362  -20.2965   -8.9432 N   0  0  0  0  0  0  0  0  0  0  0  0
   26.1624  -21.2340   -9.5982 C   0  0  0  0  0  0  0  0  0  0  0  0
   27.1320  -21.7482   -9.0007 O   0  0  0  0  0  0  0  0  0  0  0  0
   25.8884  -21.6134  -10.9898 C   0  0  0  0  0  0  0  0  0  0  0  0
   24.8496  -20.7215  -11.6379 C   0  0  0  0  0  0  0  0  0  0  0  0
   24.5616  -21.3339  -13.0167 C   0  0  2  0  0  0  0  0  0  0  0  0
   25.7218  -21.0798  -13.8129 N   0  0  0  0  0  0  0  0  0  0  0  0
   23.3215  -20.7778  -13.5890 C   0  0  0  0  0  0  0  0  0  0  0  0
   23.3758  -19.9510  -14.5268 O   0  0  0  0  0  0  0  0  0  0  0  0
   17.5818  -23.1696  -18.8935 N   0  0  0  0  0  0  0  0  0  0  0  0
   17.8834  -21.7871  -19.0277 C   0  0  0  0  0  0  0  0  0  0  0  0
   17.1403  -21.0752  -19.8033 N   0  0  0  0  0  0  0  0  0  0  0  0
   18.9572  -21.1630  -18.3496 N   0  0  0  0  0  0  0  0  0  0  0  0
   19.7717  -21.9402  -17.4410 C   0  0  0  0  0  0  0  0  0  0  0  0
   19.7143  -21.3198  -16.0621 C   0  0  0  0  0  0  0  0  0  0  0  0
   20.9817  -21.4731  -15.2821 C   0  0  0  0  0  0  0  0  0  0  0  0
   20.8769  -20.8596  -13.9369 C   0  0  2  0  0  0  0  0  0  0  0  0
   22.0484  -21.1466  -13.1128 N   0  0  0  0  0  0  0  0  0  0  0  0
   19.6571  -21.2531  -13.2060 C   0  0  0  0  0  0  0  0  0  0  0  0
   18.4198  -20.8371  -13.7391 O   0  0  0  0  0  0  0  0  0  0  0  0
   19.6309  -21.9158  -12.1670 O   0  0  0  0  0  0  0  0  0  0  0  0
  2  1  1  6
  2  3  1  0
  3  4  1  0
  5  6  2  0
  5  4  1  0
  7  8  2  0
  7  2  1  0
  9  5  1  0
 10 11  1  0
 11 13  1  0
 12 11  2  0
 13 14  1  0
 15 14  1  1
 15 16  1  0
 16  7  1  0
 17 18  2  0
 17 15  1  0
 20 21  2  0
 20 19  1  0
 22 20  1  0
 23 22  1  0
 24 23  1  0
 24 25  1  0
 26 25  1  6
 26 27  1  0
 27 17  1  0
 28 26  1  0
 29 28  1  0
 30 28  2  0
M  END
$$$$
