EQR.pdb
     RDKit          3D

 30 29  0  0  1  0  0  0  0  0999 V2000
   19.4961  -18.2718  -17.5053 N   0  0  0  0  0  0  0  0  0  0  0  0
   20.0036  -19.4905  -16.9335 C   0  0  1  0  0  0  0  0  0  0  0  0
   20.8306  -20.1699  -18.0193 C   0  0  0  0  0  0  0  0  0  0  0  0
   19.8820  -20.5547  -19.1426 C   0  0  0  0  0  0  0  0  0  0  0  0
   19.2293  -21.8504  -18.8285 C   0  0  0  0  0  0  0  0  0  0  0  0
   19.3716  -22.3562  -17.6859 O   0  0  0  0  0  0  0  0  0  0  0  0
   20.8202  -19.2010  -15.7346 C   0  0  0  0  0  0  0  0  0  0  0  0
   21.4833  -18.1442  -15.5897 O   0  0  0  0  0  0  0  0  0  0  0  0
   18.4747  -22.4796  -19.8000 O   0  0  0  0  0  0  0  0  0  0  0  0
   18.9251  -21.2411  -10.4021 N   0  0  0  0  0  0  0  0  0  0  0  0
   18.6894  -20.0121  -11.0536 C   0  0  0  0  0  0  0  0  0  0  0  0
   17.6982  -19.3148  -10.7486 O   0  0  0  0  0  0  0  0  0  0  0  0
   19.6091  -19.5421  -12.0971 C   0  0  0  0  0  0  0  0  0  0  0  0
   20.7443  -20.5135  -12.3470 C   0  0  0  0  0  0  0  0  0  0  0  0
   21.5887  -19.9021  -13.4749 C   0  0  2  0  0  0  0  0  0  0  0  0
   20.8702  -20.1498  -14.6861 N   0  0  0  0  0  0  0  0  0  0  0  0
   22.9519  -20.4646  -13.4735 C   0  0  0  0  0  0  0  0  0  0  0  0
   23.1449  -21.6497  -13.8261 O   0  0  0  0  0  0  0  0  0  0  0  0
   27.9388  -22.4943  -15.7550 N   0  0  0  0  0  0  0  0  0  0  0  0
   28.7565  -21.5495  -16.4324 C   0  0  0  0  0  0  0  0  0  0  0  0
   29.6110  -21.9897  -17.2908 N   0  0  0  0  0  0  0  0  0  0  0  0
   28.6725  -20.1551  -16.2064 N   0  0  0  0  0  0  0  0  0  0  0  0
   27.5107  -19.6125  -15.5365 C   0  0  0  0  0  0  0  0  0  0  0  0
   27.6261  -19.8669  -14.0494 C   0  0  0  0  0  0  0  0  0  0  0  0
   26.4759  -19.3295  -13.2578 C   0  0  0  0  0  0  0  0  0  0  0  0
   25.3924  -20.3306  -13.1137 C   0  0  2  0  0  0  0  0  0  0  0  0
   24.0722  -19.7061  -13.0823 N   0  0  0  0  0  0  0  0  0  0  0  0
   25.5500  -21.1998  -11.9319 C   0  0  0  0  0  0  0  0  0  0  0  0
   26.5592  -22.1833  -11.9809 O   0  0  0  0  0  0  0  0  0  0  0  0
   24.8714  -21.1368  -10.9049 O   0  0  0  0  0  0  0  0  0  0  0  0
  2  1  1  6
  2  3  1  0
  3  4  1  0
  5  6  2  0
  5  4  1  0
  7  8  2  0
  7  2  1  0
  9  5  1  0
 10 11  1  0
 11 13  1  0
 12 11  2  0
 13 14  1  0
 15 14  1  1
 15 16  1  0
 16  7  1  0
 17 18  2  0
 17 15  1  0
 20 21  2  0
 20 19  1  0
 22 20  1  0
 23 22  1  0
 24 23  1  0
 24 25  1  0
 26 25  1  1
 26 27  1  0
 27 17  1  0
 28 26  1  0
 29 28  1  0
 30 28  2  0
M  END
$$$$
