EQR.pdb
     RDKit          3D

 30 29  0  0  1  0  0  0  0  0999 V2000
   27.6204  -17.6715  -18.5548 N   0  0  0  0  0  0  0  0  0  0  0  0
   26.9238  -18.8519  -18.1177 C   0  0  1  0  0  0  0  0  0  0  0  0
   27.9088  -19.6507  -17.2713 C   0  0  0  0  0  0  0  0  0  0  0  0
   27.1957  -20.9098  -16.8067 C   0  0  0  0  0  0  0  0  0  0  0  0
   27.9691  -22.1077  -17.2197 C   0  0  0  0  0  0  0  0  0  0  0  0
   27.7627  -23.2077  -16.6462 O   0  0  0  0  0  0  0  0  0  0  0  0
   25.7183  -18.4864  -17.3423 C   0  0  0  0  0  0  0  0  0  0  0  0
   25.7600  -17.8457  -16.2627 O   0  0  0  0  0  0  0  0  0  0  0  0
   28.9047  -21.9924  -18.2298 O   0  0  0  0  0  0  0  0  0  0  0  0
   19.8446  -18.2293  -19.7031 N   0  0  0  0  0  0  0  0  0  0  0  0
   19.7306  -17.8751  -18.3423 C   0  0  0  0  0  0  0  0  0  0  0  0
   18.6455  -17.4541  -17.8874 O   0  0  0  0  0  0  0  0  0  0  0  0
   20.8887  -17.9990  -17.4483 C   0  0  0  0  0  0  0  0  0  0  0  0
   22.1502  -18.3931  -18.1885 C   0  0  0  0  0  0  0  0  0  0  0  0
   23.2415  -18.5489  -17.1190 C   0  0  2  0  0  0  0  0  0  0  0  0
   24.4439  -18.8683  -17.8239 N   0  0  0  0  0  0  0  0  0  0  0  0
   22.8568  -19.5641  -16.1210 C   0  0  0  0  0  0  0  0  0  0  0  0
   22.8701  -20.7790  -16.4207 O   0  0  0  0  0  0  0  0  0  0  0  0
   26.5395  -21.7662  -10.0029 N   0  0  0  0  0  0  0  0  0  0  0  0
   25.6293  -20.7540   -9.5941 C   0  0  0  0  0  0  0  0  0  0  0  0
   25.9214  -20.0601   -8.5481 N   0  0  0  0  0  0  0  0  0  0  0  0
   24.4245  -20.4770  -10.2824 N   0  0  0  0  0  0  0  0  0  0  0  0
   23.6378  -21.5719  -10.8072 C   0  0  0  0  0  0  0  0  0  0  0  0
   22.4145  -21.0195  -11.5056 C   0  0  0  0  0  0  0  0  0  0  0  0
   22.7252  -19.9471  -12.5014 C   0  0  0  0  0  0  0  0  0  0  0  0
   22.2039  -20.2801  -13.8484 C   0  0  2  0  0  0  0  0  0  0  0  0
   22.4652  -19.2155  -14.8139 N   0  0  0  0  0  0  0  0  0  0  0  0
   20.7646  -20.6048  -13.8568 C   0  0  0  0  0  0  0  0  0  0  0  0
   20.4082  -21.9690  -13.8445 O   0  0  0  0  0  0  0  0  0  0  0  0
   19.8479  -19.7811  -13.8739 O   0  0  0  0  0  0  0  0  0  0  0  0
  2  1  1  1
  2  3  1  0
  3  4  1  0
  5  6  2  0
  5  4  1  0
  7  8  2  0
  7  2  1  0
  9  5  1  0
 10 11  1  0
 11 13  1  0
 12 11  2  0
 13 14  1  0
 15 14  1  6
 15 16  1  0
 16  7  1  0
 17 18  2  0
 17 15  1  0
 20 21  2  0
 20 19  1  0
 22 20  1  0
 23 22  1  0
 24 23  1  0
 24 25  1  0
 26 25  1  1
 26 27  1  0
 27 17  1  0
 28 26  1  0
 29 28  1  0
 30 28  2  0
M  END
$$$$
