EQR.pdb
     RDKit          3D

 30 29  0  0  1  0  0  0  0  0999 V2000
   13.2234   -8.8205   -8.1244 N   0  0  0  0  0  0  0  0  0  0  0  0
   14.4587   -9.0708   -8.8181 C   0  0  1  0  0  0  0  0  0  0  0  0
   14.2017  -10.2456   -9.7553 C   0  0  0  0  0  0  0  0  0  0  0  0
   15.5034  -10.5448  -10.4804 C   0  0  0  0  0  0  0  0  0  0  0  0
   15.3051  -11.6713  -11.4266 C   0  0  0  0  0  0  0  0  0  0  0  0
   14.1651  -12.1889  -11.5451 O   0  0  0  0  0  0  0  0  0  0  0  0
   14.8877   -7.8682   -9.5649 C   0  0  0  0  0  0  0  0  0  0  0  0
   14.0838   -7.0433  -10.0658 O   0  0  0  0  0  0  0  0  0  0  0  0
   16.3798  -12.1324  -12.1624 O   0  0  0  0  0  0  0  0  0  0  0  0
   14.6743   -3.1635   -9.1217 N   0  0  0  0  0  0  0  0  0  0  0  0
   16.0201   -2.9144   -9.4641 C   0  0  0  0  0  0  0  0  0  0  0  0
   16.3978   -1.7560   -9.7415 O   0  0  0  0  0  0  0  0  0  0  0  0
   16.9891   -4.0169   -9.4970 C   0  0  0  0  0  0  0  0  0  0  0  0
   16.3746   -5.3387   -9.0847 C   0  0  0  0  0  0  0  0  0  0  0  0
   16.7585   -6.3473  -10.1776 C   0  0  2  0  0  0  0  0  0  0  0  0
   16.2695   -7.6160   -9.7349 N   0  0  0  0  0  0  0  0  0  0  0  0
   18.2128   -6.3290  -10.4208 C   0  0  0  0  0  0  0  0  0  0  0  0
   19.0116   -6.5359   -9.4801 O   0  0  0  0  0  0  0  0  0  0  0  0
   22.4716  -11.0767  -16.2928 N   0  0  0  0  0  0  0  0  0  0  0  0
   23.3847  -10.5779  -15.3245 C   0  0  0  0  0  0  0  0  0  0  0  0
   24.5683  -11.0860  -15.2865 N   0  0  0  0  0  0  0  0  0  0  0  0
   23.0519   -9.5532  -14.4070 N   0  0  0  0  0  0  0  0  0  0  0  0
   21.6938   -9.0573  -14.3573 C   0  0  0  0  0  0  0  0  0  0  0  0
   21.5826   -8.0108  -13.2702 C   0  0  0  0  0  0  0  0  0  0  0  0
   20.1854   -7.5257  -13.0452 C   0  0  0  0  0  0  0  0  0  0  0  0
   20.1248   -6.5011  -11.9759 C   0  0  2  0  0  0  0  0  0  0  0  0
   18.7533   -6.0822  -11.6977 N   0  0  0  0  0  0  0  0  0  0  0  0
   20.9518   -5.3115  -12.2554 C   0  0  0  0  0  0  0  0  0  0  0  0
   22.3308   -5.4009  -11.9756 O   0  0  0  0  0  0  0  0  0  0  0  0
   20.5358   -4.2455  -12.7136 O   0  0  0  0  0  0  0  0  0  0  0  0
  2  1  1  6
  2  3  1  0
  3  4  1  0
  5  6  2  0
  5  4  1  0
  7  8  2  0
  7  2  1  0
  9  5  1  0
 10 11  1  0
 11 13  1  0
 12 11  2  0
 13 14  1  0
 15 14  1  1
 15 16  1  0
 16  7  1  0
 17 18  2  0
 17 15  1  0
 20 21  2  0
 20 19  1  0
 22 20  1  0
 23 22  1  0
 24 23  1  0
 24 25  1  0
 26 25  1  6
 26 27  1  0
 27 17  1  0
 28 26  1  0
 29 28  1  0
 30 28  2  0
M  END
$$$$
