EQR.pdb
     RDKit          3D

 30 29  0  0  1  0  0  0  0  0999 V2000
   19.6461  -23.3254   -9.1665 N   0  0  0  0  0  0  0  0  0  0  0  0
   19.6634  -23.6739  -10.5622 C   0  0  1  0  0  0  0  0  0  0  0  0
   18.2177  -23.9500  -10.9603 C   0  0  0  0  0  0  0  0  0  0  0  0
   17.8001  -25.2495  -10.2922 C   0  0  0  0  0  0  0  0  0  0  0  0
   16.3727  -25.5310  -10.5869 C   0  0  0  0  0  0  0  0  0  0  0  0
   15.5424  -25.5809   -9.6438 O   0  0  0  0  0  0  0  0  0  0  0  0
   20.2439  -22.5752  -11.3647 C   0  0  0  0  0  0  0  0  0  0  0  0
   19.7716  -21.4116  -11.3857 O   0  0  0  0  0  0  0  0  0  0  0  0
   15.9807  -25.7337  -11.8963 O   0  0  0  0  0  0  0  0  0  0  0  0
   26.0259  -22.8471  -14.0197 N   0  0  0  0  0  0  0  0  0  0  0  0
   25.5105  -21.5797  -14.3638 C   0  0  0  0  0  0  0  0  0  0  0  0
   26.2177  -20.7567  -14.9837 O   0  0  0  0  0  0  0  0  0  0  0  0
   24.1362  -21.2174  -13.9955 C   0  0  0  0  0  0  0  0  0  0  0  0
   23.3993  -22.3566  -13.3217 C   0  0  0  0  0  0  0  0  0  0  0  0
   22.0301  -21.7952  -12.9105 C   0  0  2  0  0  0  0  0  0  0  0  0
   21.3897  -22.8271  -12.1557 N   0  0  0  0  0  0  0  0  0  0  0  0
   21.2613  -21.3681  -14.0942 C   0  0  0  0  0  0  0  0  0  0  0  0
   20.7113  -22.2188  -14.8289 O   0  0  0  0  0  0  0  0  0  0  0  0
   18.7427  -13.3954  -15.8691 N   0  0  0  0  0  0  0  0  0  0  0  0
   18.8323  -14.3672  -14.8357 C   0  0  0  0  0  0  0  0  0  0  0  0
   18.3224  -14.0821  -13.6870 N   0  0  0  0  0  0  0  0  0  0  0  0
   19.4529  -15.6264  -15.0135 N   0  0  0  0  0  0  0  0  0  0  0  0
   20.1945  -15.8881  -16.2277 C   0  0  0  0  0  0  0  0  0  0  0  0
   20.6578  -17.3286  -16.2306 C   0  0  0  0  0  0  0  0  0  0  0  0
   19.7696  -18.2459  -15.4510 C   0  0  0  0  0  0  0  0  0  0  0  0
   20.2217  -19.6547  -15.5389 C   0  0  2  0  0  0  0  0  0  0  0  0
   21.1170  -20.0107  -14.4409 N   0  0  0  0  0  0  0  0  0  0  0  0
   20.8687  -19.9843  -16.8233 C   0  0  0  0  0  0  0  0  0  0  0  0
   20.0275  -20.2917  -17.9124 O   0  0  0  0  0  0  0  0  0  0  0  0
   22.0847  -20.0131  -17.0225 O   0  0  0  0  0  0  0  0  0  0  0  0
  2  1  1  1
  2  3  1  0
  3  4  1  0
  5  6  2  0
  5  4  1  0
  7  8  2  0
  7  2  1  0
  9  5  1  0
 10 11  1  0
 11 13  1  0
 12 11  2  0
 13 14  1  0
 15 14  1  6
 15 16  1  0
 16  7  1  0
 17 18  2  0
 17 15  1  0
 20 21  2  0
 20 19  1  0
 22 20  1  0
 23 22  1  0
 24 23  1  0
 24 25  1  0
 26 25  1  6
 26 27  1  0
 27 17  1  0
 28 26  1  0
 29 28  1  0
 30 28  2  0
M  END
$$$$
