TQP.pdb
     RDKit          3D

 24 24  0  0  1  0  0  0  0  0999 V2000
    8.4351  -12.6322   20.4875 C   0  0  0  0  0  0  0  0  0  0  0  0
    8.0413  -13.6756   19.4529 C   0  0  1  0  0  0  0  0  0  0  0  0
    8.8194  -13.5911   18.3071 O   0  0  0  0  0  0  0  0  0  0  0  0
    8.1624  -15.0310   20.0832 C   0  0  2  0  0  0  0  0  0  0  0  0
    7.7720  -16.0901   19.2059 N   0  0  0  0  0  0  0  0  0  0  0  0
    7.4257  -15.0777   21.3880 C   0  0  0  0  0  0  0  0  0  0  0  0
    6.1651  -15.1208   21.3245 O   0  0  0  0  0  0  0  0  0  0  0  0
    7.9130  -19.5976   25.0073 N   0  0  0  0  0  0  0  0  0  0  0  0
    7.1312  -18.7182   25.7825 C   0  0  0  0  0  0  0  0  0  0  0  0
    6.5937  -19.1754   26.8186 O   0  0  0  0  0  0  0  0  0  0  0  0
    6.9125  -17.2951   25.4425 C   0  0  0  0  0  0  0  0  0  0  0  0
    7.5286  -16.8331   24.1860 C   0  0  0  0  0  0  0  0  0  0  0  0
    7.4057  -15.3691   23.8617 C   0  0  2  0  0  0  0  0  0  0  0  0
    8.1204  -15.0733   22.6226 N   0  0  0  0  0  0  0  0  0  0  0  0
    8.0895  -14.6279   24.9511 C   0  0  0  0  0  0  0  0  0  0  0  0
    9.2781  -15.0214   25.2318 O   0  0  0  0  0  0  0  0  0  0  0  0
    7.5254  -13.5440   25.6750 N   0  0  0  0  0  0  0  0  0  0  0  0
    6.2772  -12.8904   25.4803 C   0  0  0  0  0  0  0  0  0  0  0  0
    5.9366  -12.4028   26.8998 C   0  0  0  0  0  0  0  0  0  0  0  0
    7.2832  -11.8756   27.3685 C   0  0  0  0  0  0  0  0  0  0  0  0
    8.2410  -12.8896   26.7583 C   0  0  1  0  0  0  0  0  0  0  0  0
    8.6162  -13.9219   27.7613 C   0  0  0  0  0  0  0  0  0  0  0  0
    9.5174  -13.6402   28.7502 O   0  0  0  0  0  0  0  0  0  0  0  0
    8.1214  -15.0848   27.7358 O   0  0  0  0  0  0  0  0  0  0  0  0
  2  1  1  1
  2  4  1  0
  3  2  1  0
  4  6  1  0
  4  5  1  6
  6  7  2  0
  8  9  1  0
  9 11  1  0
 10  9  2  0
 11 12  1  0
 13 12  1  1
 13 15  1  0
 14  6  1  0
 14 13  1  0
 15 17  1  0
 15 16  2  0
 17 21  1  0
 18 17  1  0
 19 18  1  0
 19 20  1  0
 20 21  1  0
 21 22  1  1
 22 24  2  0
 22 23  1  0
M  END
$$$$
