TQP.pdb
     RDKit          3D

 24 24  0  0  1  0  0  0  0  0999 V2000
    8.4956  -12.7543   20.4336 C   0  0  0  0  0  0  0  0  0  0  0  0
    8.0032  -13.7219   19.3680 C   0  0  1  0  0  0  0  0  0  0  0  0
    8.7670  -13.6542   18.2115 O   0  0  0  0  0  0  0  0  0  0  0  0
    8.0260  -15.1063   19.9441 C   0  0  2  0  0  0  0  0  0  0  0  0
    7.5403  -16.0963   19.0342 N   0  0  0  0  0  0  0  0  0  0  0  0
    7.3071  -15.1464   21.2591 C   0  0  0  0  0  0  0  0  0  0  0  0
    6.0546  -15.3014   21.2143 O   0  0  0  0  0  0  0  0  0  0  0  0
    8.0729  -19.4925   24.9723 N   0  0  0  0  0  0  0  0  0  0  0  0
    7.1787  -18.6664   25.6818 C   0  0  0  0  0  0  0  0  0  0  0  0
    6.5702  -19.1678   26.6564 O   0  0  0  0  0  0  0  0  0  0  0  0
    6.9215  -17.2498   25.3416 C   0  0  0  0  0  0  0  0  0  0  0  0
    7.5008  -16.7792   24.0709 C   0  0  0  0  0  0  0  0  0  0  0  0
    7.3378  -15.3198   23.7437 C   0  0  2  0  0  0  0  0  0  0  0  0
    8.0091  -15.0157   22.4826 N   0  0  0  0  0  0  0  0  0  0  0  0
    8.0380  -14.5589   24.8089 C   0  0  0  0  0  0  0  0  0  0  0  0
    9.2603  -14.8888   25.0173 O   0  0  0  0  0  0  0  0  0  0  0  0
    7.4549  -13.5209   25.5832 N   0  0  0  0  0  0  0  0  0  0  0  0
    6.1533  -12.9554   25.4870 C   0  0  0  0  0  0  0  0  0  0  0  0
    5.8852  -12.5001   26.9326 C   0  0  0  0  0  0  0  0  0  0  0  0
    7.2228  -11.8823   27.3069 C   0  0  0  0  0  0  0  0  0  0  0  0
    8.2012  -12.8235   26.6178 C   0  0  1  0  0  0  0  0  0  0  0  0
    8.7201  -13.8321   27.5800 C   0  0  0  0  0  0  0  0  0  0  0  0
    9.7003  -13.5043   28.4751 O   0  0  0  0  0  0  0  0  0  0  0  0
    8.2789  -15.0165   27.6046 O   0  0  0  0  0  0  0  0  0  0  0  0
  2  1  1  1
  2  4  1  0
  3  2  1  0
  4  6  1  0
  4  5  1  6
  6  7  2  0
  8  9  1  0
  9 11  1  0
 10  9  2  0
 11 12  1  0
 13 12  1  1
 13 15  1  0
 14  6  1  0
 14 13  1  0
 15 17  1  0
 15 16  2  0
 17 21  1  0
 18 17  1  0
 19 18  1  0
 19 20  1  0
 20 21  1  0
 21 22  1  1
 22 24  2  0
 22 23  1  0
M  END
$$$$
