TQP.pdb
     RDKit          3D

 24 24  0  0  1  0  0  0  0  0999 V2000
    9.9094  -14.4756   18.6764 C   0  0  0  0  0  0  0  0  0  0  0  0
    9.4384  -14.2296   20.1018 C   0  0  1  0  0  0  0  0  0  0  0  0
    9.8654  -13.0013   20.5858 O   0  0  0  0  0  0  0  0  0  0  0  0
    7.9418  -14.3227   20.1245 C   0  0  2  0  0  0  0  0  0  0  0  0
    7.3076  -13.2818   19.3774 N   0  0  0  0  0  0  0  0  0  0  0  0
    7.4355  -14.3956   21.5337 C   0  0  0  0  0  0  0  0  0  0  0  0
    6.7053  -13.4413   21.9224 O   0  0  0  0  0  0  0  0  0  0  0  0
    7.4118  -19.7537   25.1875 N   0  0  0  0  0  0  0  0  0  0  0  0
    6.7769  -18.7431   25.9365 C   0  0  0  0  0  0  0  0  0  0  0  0
    6.3192  -19.0522   27.0620 O   0  0  0  0  0  0  0  0  0  0  0  0
    6.6229  -17.3475   25.4704 C   0  0  0  0  0  0  0  0  0  0  0  0
    7.2195  -17.0392   24.1587 C   0  0  0  0  0  0  0  0  0  0  0  0
    7.1305  -15.6140   23.6847 C   0  0  2  0  0  0  0  0  0  0  0  0
    7.7667  -15.4853   22.3762 N   0  0  0  0  0  0  0  0  0  0  0  0
    7.9178  -14.7931   24.6388 C   0  0  0  0  0  0  0  0  0  0  0  0
    9.1637  -15.0859   24.7294 O   0  0  0  0  0  0  0  0  0  0  0  0
    7.3912  -13.7367   25.4287 N   0  0  0  0  0  0  0  0  0  0  0  0
    6.0876  -13.1681   25.4089 C   0  0  0  0  0  0  0  0  0  0  0  0
    5.9193  -12.6816   26.8594 C   0  0  0  0  0  0  0  0  0  0  0  0
    7.2808  -12.0616   27.1292 C   0  0  0  0  0  0  0  0  0  0  0  0
    8.2077  -13.0209   26.3954 C   0  0  1  0  0  0  0  0  0  0  0  0
    8.7880  -14.0114   27.3414 C   0  0  0  0  0  0  0  0  0  0  0  0
    9.8059  -13.6597   28.1838 O   0  0  0  0  0  0  0  0  0  0  0  0
    8.3662  -15.2016   27.3998 O   0  0  0  0  0  0  0  0  0  0  0  0
  2  1  1  6
  2  4  1  0
  3  2  1  0
  4  6  1  0
  4  5  1  1
  6  7  2  0
  8  9  1  0
  9 11  1  0
 10  9  2  0
 11 12  1  0
 13 12  1  1
 13 15  1  0
 14  6  1  0
 14 13  1  0
 15 17  1  0
 15 16  2  0
 17 21  1  0
 18 17  1  0
 19 18  1  0
 19 20  1  0
 20 21  1  0
 21 22  1  1
 22 24  2  0
 22 23  1  0
M  END
$$$$
