TQP.pdb
     RDKit          3D

 24 24  0  0  1  0  0  0  0  0999 V2000
    9.3960  -15.2093   19.1798 C   0  0  0  0  0  0  0  0  0  0  0  0
    8.1982  -14.9875   20.0909 C   0  0  1  0  0  0  0  0  0  0  0  0
    7.1676  -14.3223   19.4421 O   0  0  0  0  0  0  0  0  0  0  0  0
    7.7387  -16.3227   20.5960 C   0  0  2  0  0  0  0  0  0  0  0  0
    6.7975  -16.9541   19.7247 N   0  0  0  0  0  0  0  0  0  0  0  0
    7.2228  -16.2109   21.9992 C   0  0  0  0  0  0  0  0  0  0  0  0
    5.9734  -16.0843   22.1339 O   0  0  0  0  0  0  0  0  0  0  0  0
    8.8163  -19.7953   26.7390 N   0  0  0  0  0  0  0  0  0  0  0  0
    7.8897  -18.8762   27.2701 C   0  0  0  0  0  0  0  0  0  0  0  0
    7.4645  -19.0823   28.4313 O   0  0  0  0  0  0  0  0  0  0  0  0
    7.3956  -17.6898   26.5373 C   0  0  0  0  0  0  0  0  0  0  0  0
    7.9540  -17.4899   25.1882 C   0  0  0  0  0  0  0  0  0  0  0  0
    7.5641  -16.2288   24.4665 C   0  0  2  0  0  0  0  0  0  0  0  0
    8.1027  -16.2469   23.1088 N   0  0  0  0  0  0  0  0  0  0  0  0
    8.2160  -15.1037   25.1828 C   0  0  0  0  0  0  0  0  0  0  0  0
    9.4936  -15.1710   25.2803 O   0  0  0  0  0  0  0  0  0  0  0  0
    7.5320  -13.9935   25.7456 N   0  0  0  0  0  0  0  0  0  0  0  0
    6.1350  -13.7292   25.7856 C   0  0  0  0  0  0  0  0  0  0  0  0
    5.9958  -12.8907   27.0687 C   0  0  0  0  0  0  0  0  0  0  0  0
    7.1907  -11.9583   26.9504 C   0  0  0  0  0  0  0  0  0  0  0  0
    8.2441  -12.8810   26.3528 C   0  0  1  0  0  0  0  0  0  0  0  0
    9.1307  -13.4196   27.4188 C   0  0  0  0  0  0  0  0  0  0  0  0
    8.9973  -14.7092   27.8530 O   0  0  0  0  0  0  0  0  0  0  0  0
   10.0296  -12.7121   27.9567 O   0  0  0  0  0  0  0  0  0  0  0  0
  2  1  1  6
  2  4  1  0
  3  2  1  0
  4  6  1  0
  4  5  1  6
  6  7  2  0
  8  9  1  0
  9 11  1  0
 10  9  2  0
 11 12  1  0
 13 12  1  1
 13 15  1  0
 14  6  1  0
 14 13  1  0
 15 17  1  0
 15 16  2  0
 17 21  1  0
 18 17  1  0
 19 18  1  0
 19 20  1  0
 20 21  1  0
 21 22  1  1
 22 24  2  0
 22 23  1  0
M  END
$$$$
