TQP.pdb
     RDKit          3D

 24 24  0  0  1  0  0  0  0  0999 V2000
    8.4472  -17.0290   19.0848 C   0  0  0  0  0  0  0  0  0  0  0  0
    7.9115  -16.4206   20.3720 C   0  0  1  0  0  0  0  0  0  0  0  0
    7.2952  -15.1971   20.1516 O   0  0  0  0  0  0  0  0  0  0  0  0
    6.9563  -17.3970   20.9911 C   0  0  2  0  0  0  0  0  0  0  0  0
    5.7752  -17.5924   20.2098 N   0  0  0  0  0  0  0  0  0  0  0  0
    6.6410  -17.0084   22.4043 C   0  0  0  0  0  0  0  0  0  0  0  0
    5.4625  -16.6167   22.6336 O   0  0  0  0  0  0  0  0  0  0  0  0
    8.6985  -19.9116   27.5525 N   0  0  0  0  0  0  0  0  0  0  0  0
    7.9379  -18.8209   28.0188 C   0  0  0  0  0  0  0  0  0  0  0  0
    7.7217  -18.7457   29.2514 O   0  0  0  0  0  0  0  0  0  0  0  0
    7.3853  -17.7676   27.1392 C   0  0  0  0  0  0  0  0  0  0  0  0
    7.6915  -17.9035   25.7041 C   0  0  0  0  0  0  0  0  0  0  0  0
    7.2664  -16.7754   24.8041 C   0  0  2  0  0  0  0  0  0  0  0  0
    7.6244  -17.0813   23.4214 N   0  0  0  0  0  0  0  0  0  0  0  0
    8.0526  -15.5827   25.2080 C   0  0  0  0  0  0  0  0  0  0  0  0
    9.3266  -15.6937   25.1034 O   0  0  0  0  0  0  0  0  0  0  0  0
    7.4962  -14.3661   25.6851 N   0  0  0  0  0  0  0  0  0  0  0  0
    6.1289  -13.9935   25.8056 C   0  0  0  0  0  0  0  0  0  0  0  0
    6.1606  -13.0042   26.9842 C   0  0  0  0  0  0  0  0  0  0  0  0
    7.3989  -12.1853   26.6571 C   0  0  0  0  0  0  0  0  0  0  0  0
    8.3316  -13.2482   26.0928 C   0  0  1  0  0  0  0  0  0  0  0  0
    9.2726  -13.7259   27.1411 C   0  0  0  0  0  0  0  0  0  0  0  0
   10.3066  -12.9374   27.5636 O   0  0  0  0  0  0  0  0  0  0  0  0
    9.1523  -14.8662   27.6732 O   0  0  0  0  0  0  0  0  0  0  0  0
  2  1  1  6
  2  4  1  0
  3  2  1  0
  4  6  1  0
  4  5  1  6
  6  7  2  0
  8  9  1  0
  9 11  1  0
 10  9  2  0
 11 12  1  0
 13 12  1  1
 13 15  1  0
 14  6  1  0
 14 13  1  0
 15 17  1  0
 15 16  2  0
 17 21  1  0
 18 17  1  0
 19 18  1  0
 19 20  1  0
 20 21  1  0
 21 22  1  1
 22 24  2  0
 22 23  1  0
M  END
$$$$
