TQP.pdb
     RDKit          3D

 24 24  0  0  1  0  0  0  0  0999 V2000
    8.5653  -12.8230   20.5905 C   0  0  0  0  0  0  0  0  0  0  0  0
    7.9491  -13.7463   19.5504 C   0  0  1  0  0  0  0  0  0  0  0  0
    8.6356  -13.7032   18.3452 O   0  0  0  0  0  0  0  0  0  0  0  0
    7.9339  -15.1383   20.1081 C   0  0  2  0  0  0  0  0  0  0  0  0
    7.3501  -16.0898   19.2150 N   0  0  0  0  0  0  0  0  0  0  0  0
    7.2869  -15.1617   21.4603 C   0  0  0  0  0  0  0  0  0  0  0  0
    6.0264  -15.0864   21.4854 O   0  0  0  0  0  0  0  0  0  0  0  0
    7.8709  -19.6922   25.2102 N   0  0  0  0  0  0  0  0  0  0  0  0
    7.1934  -18.7513   26.0109 C   0  0  0  0  0  0  0  0  0  0  0  0
    6.7151  -19.1490   27.0993 O   0  0  0  0  0  0  0  0  0  0  0  0
    7.0177  -17.3301   25.6397 C   0  0  0  0  0  0  0  0  0  0  0  0
    7.5716  -16.9347   24.3325 C   0  0  0  0  0  0  0  0  0  0  0  0
    7.4048  -15.4959   23.9258 C   0  0  2  0  0  0  0  0  0  0  0  0
    8.0615  -15.2634   22.6420 N   0  0  0  0  0  0  0  0  0  0  0  0
    8.1172  -14.6769   24.9385 C   0  0  0  0  0  0  0  0  0  0  0  0
    9.3415  -14.9961   25.1520 O   0  0  0  0  0  0  0  0  0  0  0  0
    7.5434  -13.5957   25.6589 N   0  0  0  0  0  0  0  0  0  0  0  0
    6.2578  -13.0050   25.5134 C   0  0  0  0  0  0  0  0  0  0  0  0
    5.9718  -12.4864   26.9341 C   0  0  0  0  0  0  0  0  0  0  0  0
    7.3158  -11.8849   27.3116 C   0  0  0  0  0  0  0  0  0  0  0  0
    8.2852  -12.8749   26.6807 C   0  0  1  0  0  0  0  0  0  0  0  0
    8.7609  -13.8559   27.6925 C   0  0  0  0  0  0  0  0  0  0  0  0
    9.6900  -13.4982   28.6296 O   0  0  0  0  0  0  0  0  0  0  0  0
    8.3286  -15.0434   27.7221 O   0  0  0  0  0  0  0  0  0  0  0  0
  2  1  1  1
  2  4  1  0
  3  2  1  0
  4  6  1  0
  4  5  1  6
  6  7  2  0
  8  9  1  0
  9 11  1  0
 10  9  2  0
 11 12  1  0
 13 12  1  1
 13 15  1  0
 14  6  1  0
 14 13  1  0
 15 17  1  0
 15 16  2  0
 17 21  1  0
 18 17  1  0
 19 18  1  0
 19 20  1  0
 20 21  1  0
 21 22  1  1
 22 24  2  0
 22 23  1  0
M  END
$$$$
