TQP.pdb
     RDKit          3D

 24 24  0  0  1  0  0  0  0  0999 V2000
    7.7125  -12.9645   19.7465 C   0  0  0  0  0  0  0  0  0  0  0  0
    8.7561  -14.0651   19.8631 C   0  0  1  0  0  0  0  0  0  0  0  0
    9.6998  -13.7852   20.8411 O   0  0  0  0  0  0  0  0  0  0  0  0
    8.0482  -15.3544   20.1559 C   0  0  2  0  0  0  0  0  0  0  0  0
    7.2123  -15.7876   19.0801 N   0  0  0  0  0  0  0  0  0  0  0  0
    7.3006  -15.2673   21.4524 C   0  0  0  0  0  0  0  0  0  0  0  0
    6.0681  -15.0021   21.3778 O   0  0  0  0  0  0  0  0  0  0  0  0
    6.6656  -19.6659   25.4271 N   0  0  0  0  0  0  0  0  0  0  0  0
    7.1802  -18.6446   26.2503 C   0  0  0  0  0  0  0  0  0  0  0  0
    7.4509  -18.9353   27.4394 O   0  0  0  0  0  0  0  0  0  0  0  0
    7.4172  -17.2586   25.7906 C   0  0  0  0  0  0  0  0  0  0  0  0
    7.0855  -16.9840   24.3812 C   0  0  0  0  0  0  0  0  0  0  0  0
    7.1748  -15.5536   23.9236 C   0  0  2  0  0  0  0  0  0  0  0  0
    7.9553  -15.4743   22.6915 N   0  0  0  0  0  0  0  0  0  0  0  0
    7.9262  -14.8134   24.9683 C   0  0  0  0  0  0  0  0  0  0  0  0
    9.1250  -15.2169   25.1834 O   0  0  0  0  0  0  0  0  0  0  0  0
    7.4142  -13.7203   25.7167 N   0  0  0  0  0  0  0  0  0  0  0  0
    6.1169  -13.1385   25.6784 C   0  0  0  0  0  0  0  0  0  0  0  0
    5.9594  -12.5922   27.1086 C   0  0  0  0  0  0  0  0  0  0  0  0
    7.3286  -11.9770   27.3487 C   0  0  0  0  0  0  0  0  0  0  0  0
    8.2422  -12.9754   26.6511 C   0  0  1  0  0  0  0  0  0  0  0  0
    8.8151  -13.9333   27.6343 C   0  0  0  0  0  0  0  0  0  0  0  0
    9.8031  -13.5435   28.4954 O   0  0  0  0  0  0  0  0  0  0  0  0
    8.4143  -15.1298   27.7082 O   0  0  0  0  0  0  0  0  0  0  0  0
  2  1  1  1
  2  4  1  0
  3  2  1  0
  4  6  1  0
  4  5  1  6
  6  7  2  0
  8  9  1  0
  9 11  1  0
 10  9  2  0
 11 12  1  0
 13 12  1  1
 13 15  1  0
 14  6  1  0
 14 13  1  0
 15 17  1  0
 15 16  2  0
 17 21  1  0
 18 17  1  0
 19 18  1  0
 19 20  1  0
 20 21  1  0
 21 22  1  1
 22 24  2  0
 22 23  1  0
M  END
$$$$
