TQP.pdb
     RDKit          3D

 24 24  0  0  1  0  0  0  0  0999 V2000
   10.4090  -14.5061   18.6817 C   0  0  0  0  0  0  0  0  0  0  0  0
    9.8612  -14.0954   20.0401 C   0  0  1  0  0  0  0  0  0  0  0  0
   10.3285  -12.8497   20.4341 O   0  0  0  0  0  0  0  0  0  0  0  0
    8.3634  -14.1060   19.9653 C   0  0  2  0  0  0  0  0  0  0  0  0
    7.8337  -12.9876   19.2495 N   0  0  0  0  0  0  0  0  0  0  0  0
    7.7642  -14.2365   21.3333 C   0  0  0  0  0  0  0  0  0  0  0  0
    7.1876  -13.2135   21.7981 O   0  0  0  0  0  0  0  0  0  0  0  0
    7.4130  -19.7121   24.8405 N   0  0  0  0  0  0  0  0  0  0  0  0
    6.8487  -18.6850   25.6228 C   0  0  0  0  0  0  0  0  0  0  0  0
    6.4579  -18.9792   26.7771 O   0  0  0  0  0  0  0  0  0  0  0  0
    6.6942  -17.2886   25.1594 C   0  0  0  0  0  0  0  0  0  0  0  0
    7.1806  -17.0066   23.7972 C   0  0  0  0  0  0  0  0  0  0  0  0
    7.2053  -15.5660   23.3641 C   0  0  2  0  0  0  0  0  0  0  0  0
    7.8475  -15.4513   22.0572 N   0  0  0  0  0  0  0  0  0  0  0  0
    8.0574  -14.8383   24.3379 C   0  0  0  0  0  0  0  0  0  0  0  0
    9.2815  -15.2179   24.3996 O   0  0  0  0  0  0  0  0  0  0  0  0
    7.6129  -13.7807   25.1752 N   0  0  0  0  0  0  0  0  0  0  0  0
    6.3913  -13.0538   25.1272 C   0  0  0  0  0  0  0  0  0  0  0  0
    6.1912  -12.6501   26.5989 C   0  0  0  0  0  0  0  0  0  0  0  0
    7.5976  -12.2246   26.9885 C   0  0  0  0  0  0  0  0  0  0  0  0
    8.4468  -13.2399   26.2363 C   0  0  1  0  0  0  0  0  0  0  0  0
    8.8423  -14.3571   27.1352 C   0  0  0  0  0  0  0  0  0  0  0  0
    9.8306  -14.1893   28.0650 O   0  0  0  0  0  0  0  0  0  0  0  0
    8.2856  -15.4902   27.0724 O   0  0  0  0  0  0  0  0  0  0  0  0
  2  1  1  6
  2  4  1  0
  3  2  1  0
  4  6  1  0
  4  5  1  1
  6  7  2  0
  8  9  1  0
  9 11  1  0
 10  9  2  0
 11 12  1  0
 13 12  1  1
 13 15  1  0
 14  6  1  0
 14 13  1  0
 15 17  1  0
 15 16  2  0
 17 21  1  0
 18 17  1  0
 19 18  1  0
 19 20  1  0
 20 21  1  0
 21 22  1  1
 22 24  2  0
 22 23  1  0
M  END
$$$$
