TQP.pdb
     RDKit          3D

 24 24  0  0  1  0  0  0  0  0999 V2000
    7.4209  -12.3438   19.7642 C   0  0  0  0  0  0  0  0  0  0  0  0
    7.7225  -13.7856   19.3845 C   0  0  1  0  0  0  0  0  0  0  0  0
    8.3038  -13.8817   18.1282 O   0  0  0  0  0  0  0  0  0  0  0  0
    8.6191  -14.3703   20.4349 C   0  0  2  0  0  0  0  0  0  0  0  0
    9.2164  -15.6053   20.0329 N   0  0  0  0  0  0  0  0  0  0  0  0
    7.8961  -14.4918   21.7426 C   0  0  0  0  0  0  0  0  0  0  0  0
    7.1375  -13.5334   22.0607 O   0  0  0  0  0  0  0  0  0  0  0  0
    7.3762  -19.8391   25.4062 N   0  0  0  0  0  0  0  0  0  0  0  0
    6.8088  -18.7799   26.1422 C   0  0  0  0  0  0  0  0  0  0  0  0
    6.3162  -19.0476   27.2634 O   0  0  0  0  0  0  0  0  0  0  0  0
    6.7638  -17.3796   25.6670 C   0  0  0  0  0  0  0  0  0  0  0  0
    7.3681  -17.1300   24.3463 C   0  0  0  0  0  0  0  0  0  0  0  0
    7.3616  -15.7103   23.8483 C   0  0  2  0  0  0  0  0  0  0  0  0
    8.0640  -15.6292   22.5702 N   0  0  0  0  0  0  0  0  0  0  0  0
    8.1363  -14.9071   24.8273 C   0  0  0  0  0  0  0  0  0  0  0  0
    9.3468  -15.2845   25.0237 O   0  0  0  0  0  0  0  0  0  0  0  0
    7.6340  -13.7821   25.5339 N   0  0  0  0  0  0  0  0  0  0  0  0
    6.3825  -13.1214   25.3918 C   0  0  0  0  0  0  0  0  0  0  0  0
    6.1440  -12.5619   26.8057 C   0  0  0  0  0  0  0  0  0  0  0  0
    7.5247  -12.0316   27.1568 C   0  0  0  0  0  0  0  0  0  0  0  0
    8.4282  -13.0867   26.5335 C   0  0  1  0  0  0  0  0  0  0  0  0
    8.8595  -14.0750   27.5581 C   0  0  0  0  0  0  0  0  0  0  0  0
    8.2841  -15.3137   27.6198 O   0  0  0  0  0  0  0  0  0  0  0  0
    9.7636  -13.8082   28.4004 O   0  0  0  0  0  0  0  0  0  0  0  0
  2  1  1  1
  2  4  1  0
  3  2  1  0
  4  6  1  0
  4  5  1  6
  6  7  2  0
  8  9  1  0
  9 11  1  0
 10  9  2  0
 11 12  1  0
 13 12  1  1
 13 15  1  0
 14  6  1  0
 14 13  1  0
 15 17  1  0
 15 16  2  0
 17 21  1  0
 18 17  1  0
 19 18  1  0
 19 20  1  0
 20 21  1  0
 21 22  1  1
 22 24  2  0
 22 23  1  0
M  END
$$$$
