TQP.pdb
     RDKit          3D

 24 24  0  0  1  0  0  0  0  0999 V2000
    6.2329  -20.2963   25.5494 C   0  0  0  0  0  0  0  0  0  0  0  0
    7.0594  -19.0650   25.2106 C   0  0  1  0  0  0  0  0  0  0  0  0
    8.3217  -19.1120   25.7849 O   0  0  0  0  0  0  0  0  0  0  0  0
    7.1544  -18.9593   23.7176 C   0  0  2  0  0  0  0  0  0  0  0  0
    7.8592  -20.0531   23.1256 N   0  0  0  0  0  0  0  0  0  0  0  0
    7.7270  -17.6338   23.3144 C   0  0  0  0  0  0  0  0  0  0  0  0
    8.9572  -17.6122   23.0297 O   0  0  0  0  0  0  0  0  0  0  0  0
    7.2248  -14.1358   19.5311 N   0  0  0  0  0  0  0  0  0  0  0  0
    7.6328  -13.2303   20.5307 C   0  0  0  0  0  0  0  0  0  0  0  0
    8.6891  -12.5840   20.3357 O   0  0  0  0  0  0  0  0  0  0  0  0
    6.8874  -13.0025   21.7880 C   0  0  0  0  0  0  0  0  0  0  0  0
    6.4483  -14.2142   22.5027 C   0  0  0  0  0  0  0  0  0  0  0  0
    7.5182  -15.1815   22.9307 C   0  0  2  0  0  0  0  0  0  0  0  0
    6.9182  -16.4720   23.2595 N   0  0  0  0  0  0  0  0  0  0  0  0
    8.1120  -14.6419   24.1797 C   0  0  0  0  0  0  0  0  0  0  0  0
    9.2488  -15.1340   24.5140 O   0  0  0  0  0  0  0  0  0  0  0  0
    7.5168  -13.6449   24.9976 N   0  0  0  0  0  0  0  0  0  0  0  0
    6.2607  -12.9950   24.8461 C   0  0  0  0  0  0  0  0  0  0  0  0
    5.8880  -12.6573   26.3007 C   0  0  0  0  0  0  0  0  0  0  0  0
    7.2170  -12.1584   26.8443 C   0  0  0  0  0  0  0  0  0  0  0  0
    8.2026  -13.0908   26.1536 C   0  0  1  0  0  0  0  0  0  0  0  0
    8.5792  -14.2122   27.0554 C   0  0  0  0  0  0  0  0  0  0  0  0
    8.1051  -15.4756   26.8348 O   0  0  0  0  0  0  0  0  0  0  0  0
    9.3424  -14.0398   28.0482 O   0  0  0  0  0  0  0  0  0  0  0  0
  2  1  1  6
  2  4  1  0
  3  2  1  0
  4  6  1  0
  4  5  1  1
  6  7  2  0
  8  9  1  0
  9 11  1  0
 10  9  2  0
 11 12  1  0
 13 12  1  1
 13 15  1  0
 14  6  1  0
 14 13  1  0
 15 17  1  0
 15 16  2  0
 17 21  1  0
 18 17  1  0
 19 18  1  0
 19 20  1  0
 20 21  1  0
 21 22  1  1
 22 24  2  0
 22 23  1  0
M  END
$$$$
