TQP.pdb
     RDKit          3D

 24 24  0  0  1  0  0  0  0  0999 V2000
   12.4035  -19.6598   21.7822 C   0  0  0  0  0  0  0  0  0  0  0  0
   12.3745  -18.4003   22.6348 C   0  0  1  0  0  0  0  0  0  0  0  0
   13.6432  -18.0284   23.0561 O   0  0  0  0  0  0  0  0  0  0  0  0
   11.7343  -17.3058   21.8340 C   0  0  2  0  0  0  0  0  0  0  0  0
   12.6113  -16.7478   20.8525 N   0  0  0  0  0  0  0  0  0  0  0  0
   11.1552  -16.2572   22.7355 C   0  0  0  0  0  0  0  0  0  0  0  0
   11.8825  -15.2529   22.9751 O   0  0  0  0  0  0  0  0  0  0  0  0
    6.3469  -16.9470   22.2771 N   0  0  0  0  0  0  0  0  0  0  0  0
    6.5634  -15.5608   22.1470 C   0  0  0  0  0  0  0  0  0  0  0  0
    6.2269  -15.0170   21.0687 O   0  0  0  0  0  0  0  0  0  0  0  0
    7.1612  -14.7186   23.2062 C   0  0  0  0  0  0  0  0  0  0  0  0
    7.8617  -15.4417   24.2825 C   0  0  0  0  0  0  0  0  0  0  0  0
    9.3658  -15.4218   24.2535 C   0  0  2  0  0  0  0  0  0  0  0  0
    9.8568  -16.3979   23.2842 N   0  0  0  0  0  0  0  0  0  0  0  0
    9.8280  -15.8625   25.5937 C   0  0  0  0  0  0  0  0  0  0  0  0
    9.9761  -17.1282   25.7434 O   0  0  0  0  0  0  0  0  0  0  0  0
   10.1087  -14.9947   26.6824 N   0  0  0  0  0  0  0  0  0  0  0  0
    9.9341  -13.5860   26.7724 C   0  0  0  0  0  0  0  0  0  0  0  0
    9.6889  -13.3809   28.2780 C   0  0  0  0  0  0  0  0  0  0  0  0
   10.7355  -14.3031   28.8821 C   0  0  0  0  0  0  0  0  0  0  0  0
   10.7040  -15.4800   27.9168 C   0  0  1  0  0  0  0  0  0  0  0  0
    9.8459  -16.5707   28.4521 C   0  0  0  0  0  0  0  0  0  0  0  0
    8.5963  -16.7906   27.9425 O   0  0  0  0  0  0  0  0  0  0  0  0
   10.2361  -17.3254   29.3881 O   0  0  0  0  0  0  0  0  0  0  0  0
  2  1  1  6
  2  4  1  0
  3  2  1  0
  4  6  1  0
  4  5  1  6
  6  7  2  0
  8  9  1  0
  9 11  1  0
 10  9  2  0
 11 12  1  0
 13 12  1  1
 13 15  1  0
 14  6  1  0
 14 13  1  0
 15 17  1  0
 15 16  2  0
 17 21  1  0
 18 17  1  0
 19 18  1  0
 19 20  1  0
 20 21  1  0
 21 22  1  1
 22 24  2  0
 22 23  1  0
M  END
$$$$
