TQP.pdb
     RDKit          3D

 24 24  0  0  1  0  0  0  0  0999 V2000
    8.4441  -12.5825   20.5837 C   0  0  0  0  0  0  0  0  0  0  0  0
    7.9388  -13.4452   19.4372 C   0  0  1  0  0  0  0  0  0  0  0  0
    8.6628  -13.2373   18.2719 O   0  0  0  0  0  0  0  0  0  0  0  0
    8.0109  -14.8813   19.8630 C   0  0  2  0  0  0  0  0  0  0  0  0
    7.4264  -15.7743   18.9118 N   0  0  0  0  0  0  0  0  0  0  0  0
    7.4316  -15.0585   21.2343 C   0  0  0  0  0  0  0  0  0  0  0  0
    6.1722  -15.1117   21.3137 O   0  0  0  0  0  0  0  0  0  0  0  0
    6.2537  -19.2868   23.8672 N   0  0  0  0  0  0  0  0  0  0  0  0
    6.6892  -18.7333   25.0876 C   0  0  0  0  0  0  0  0  0  0  0  0
    6.2186  -19.2129   26.1460 O   0  0  0  0  0  0  0  0  0  0  0  0
    7.6648  -17.6257   25.1867 C   0  0  0  0  0  0  0  0  0  0  0  0
    8.0968  -17.0341   23.9079 C   0  0  0  0  0  0  0  0  0  0  0  0
    7.7064  -15.6044   23.6490 C   0  0  2  0  0  0  0  0  0  0  0  0
    8.2655  -15.1599   22.3749 N   0  0  0  0  0  0  0  0  0  0  0  0
    8.3370  -14.7861   24.7151 C   0  0  0  0  0  0  0  0  0  0  0  0
    9.5839  -15.0067   24.9225 O   0  0  0  0  0  0  0  0  0  0  0  0
    7.6646  -13.8050   25.4913 N   0  0  0  0  0  0  0  0  0  0  0  0
    6.3264  -13.3366   25.3781 C   0  0  0  0  0  0  0  0  0  0  0  0
    6.0000  -12.9223   26.8241 C   0  0  0  0  0  0  0  0  0  0  0  0
    7.2810  -12.2118   27.2304 C   0  0  0  0  0  0  0  0  0  0  0  0
    8.3387  -13.0682   26.5479 C   0  0  1  0  0  0  0  0  0  0  0  0
    8.9146  -14.0484   27.5070 C   0  0  0  0  0  0  0  0  0  0  0  0
    9.7982  -13.6470   28.4702 O   0  0  0  0  0  0  0  0  0  0  0  0
    8.6120  -15.2750   27.4666 O   0  0  0  0  0  0  0  0  0  0  0  0
  2  1  1  1
  2  4  1  0
  3  2  1  0
  4  6  1  0
  4  5  1  6
  6  7  2  0
  8  9  1  0
  9 11  1  0
 10  9  2  0
 11 12  1  0
 13 12  1  1
 13 15  1  0
 14  6  1  0
 14 13  1  0
 15 17  1  0
 15 16  2  0
 17 21  1  0
 18 17  1  0
 19 18  1  0
 19 20  1  0
 20 21  1  0
 21 22  1  1
 22 24  2  0
 22 23  1  0
M  END
$$$$
