GWV.pdb
     RDKit          3D

 26 27  0  0  1  0  0  0  0  0999 V2000
    5.4785  -19.1259   21.3013 N   0  0  0  0  0  0  0  0  0  0  0  0
    5.9197  -18.9958   22.6560 C   0  0  0  0  0  0  0  0  0  0  0  0
    6.9889  -17.9725   22.7962 C   0  0  0  0  0  0  0  0  0  0  0  0
    7.4526  -17.3981   21.7879 O   0  0  0  0  0  0  0  0  0  0  0  0
    7.4814  -17.6503   24.0791 N   0  0  0  0  0  0  0  0  0  0  0  0
    8.5826  -16.7397   24.3084 C   0  0  1  0  0  0  0  0  0  0  0  0
    8.5653  -16.1739   25.7071 C   0  0  0  0  0  0  0  0  0  0  0  0
    7.4663  -15.2297   25.9295 C   0  0  0  0  0  0  0  0  0  0  0  0
    6.1561  -15.5746   26.1672 C   0  0  0  0  0  0  0  0  0  0  0  0
    5.4367  -14.4448   26.3220 N   0  0  0  0  0  0  0  0  0  0  0  0
    6.2379  -13.3521   26.1929 C   0  0  0  0  0  0  0  0  0  0  0  0
    6.0250  -11.9964   26.2579 C   0  0  0  0  0  0  0  0  0  0  0  0
    7.0647  -11.1067   26.0810 C   0  0  0  0  0  0  0  0  0  0  0  0
    8.3296  -11.5976   25.8364 C   0  0  0  0  0  0  0  0  0  0  0  0
    8.5262  -12.9511   25.7744 C   0  0  0  0  0  0  0  0  0  0  0  0
    7.4972  -13.8543   25.9491 C   0  0  0  0  0  0  0  0  0  0  0  0
    9.8980  -17.4017   24.1081 C   0  0  0  0  0  0  0  0  0  0  0  0
   10.0319  -18.5703   24.5412 O   0  0  0  0  0  0  0  0  0  0  0  0
   13.0408  -15.4529   21.7615 C   0  0  0  0  0  0  0  0  0  0  0  0
   12.7241  -16.9197   21.7480 C   0  0  1  0  0  0  0  0  0  0  0  0
   13.9715  -17.6696   21.3369 C   0  0  0  0  0  0  0  0  0  0  0  0
   12.1957  -17.4258   23.0831 C   0  0  2  0  0  0  0  0  0  0  0  0
   10.9716  -16.7417   23.4502 N   0  0  0  0  0  0  0  0  0  0  0  0
   13.2103  -17.3720   24.1475 C   0  0  0  0  0  0  0  0  0  0  0  0
   13.1515  -16.5984   25.1341 O   0  0  0  0  0  0  0  0  0  0  0  0
   14.3003  -18.2263   24.0608 O   0  0  0  0  0  0  0  0  0  0  0  0
  1  2  1  0
  3  2  1  0
  3  4  2  0
  5  3  1  0
  6  5  1  0
  6  7  1  1
  7  8  1  0
  8  9  2  0
  8 16  1  0
  9 10  1  0
 10 11  1  0
 11 12  2  0
 12 13  1  0
 14 13  2  0
 15 14  1  0
 16 15  2  0
 16 11  1  0
 17  6  1  0
 18 17  2  0
 20 21  1  1
 20 19  1  0
 22 20  1  0
 22 23  1  1
 23 17  1  0
 24 22  1  0
 25 24  2  0
 26 24  1  0
M  END
$$$$
