GWV.pdb
     RDKit          3D

 26 27  0  0  1  0  0  0  0  0999 V2000
    6.9802  -16.1305   19.7965 N   0  0  0  0  0  0  0  0  0  0  0  0
    6.9138  -16.6540   21.1263 C   0  0  0  0  0  0  0  0  0  0  0  0
    8.0124  -16.1354   21.9830 C   0  0  0  0  0  0  0  0  0  0  0  0
    8.8882  -15.3834   21.5045 O   0  0  0  0  0  0  0  0  0  0  0  0
    8.0634  -16.4974   23.3463 N   0  0  0  0  0  0  0  0  0  0  0  0
    9.1157  -16.0785   24.2471 C   0  0  1  0  0  0  0  0  0  0  0  0
    8.6538  -16.0565   25.6834 C   0  0  0  0  0  0  0  0  0  0  0  0
    7.5349  -15.1372   25.9112 C   0  0  0  0  0  0  0  0  0  0  0  0
    6.2137  -15.5032   26.0227 C   0  0  0  0  0  0  0  0  0  0  0  0
    5.4769  -14.3927   26.2272 N   0  0  0  0  0  0  0  0  0  0  0  0
    6.2774  -13.2922   26.2548 C   0  0  0  0  0  0  0  0  0  0  0  0
    6.0505  -11.9482   26.4267 C   0  0  0  0  0  0  0  0  0  0  0  0
    7.0936  -11.0452   26.4056 C   0  0  0  0  0  0  0  0  0  0  0  0
    8.3762  -11.5109   26.2085 C   0  0  0  0  0  0  0  0  0  0  0  0
    8.5866  -12.8530   26.0387 C   0  0  0  0  0  0  0  0  0  0  0  0
    7.5544  -13.7692   26.0571 C   0  0  0  0  0  0  0  0  0  0  0  0
   10.2987  -16.9746   24.1696 C   0  0  0  0  0  0  0  0  0  0  0  0
   10.0894  -18.2090   24.1100 O   0  0  0  0  0  0  0  0  0  0  0  0
   13.3620  -16.2177   21.8337 C   0  0  0  0  0  0  0  0  0  0  0  0
   13.8615  -16.6440   23.1830 C   0  0  1  0  0  0  0  0  0  0  0  0
   14.4284  -15.4293   23.8835 C   0  0  0  0  0  0  0  0  0  0  0  0
   12.7880  -17.3134   24.0299 C   0  0  2  0  0  0  0  0  0  0  0  0
   11.6239  -16.4599   24.1627 N   0  0  0  0  0  0  0  0  0  0  0  0
   13.3007  -17.7709   25.3310 C   0  0  0  0  0  0  0  0  0  0  0  0
   12.8894  -17.3427   26.4368 O   0  0  0  0  0  0  0  0  0  0  0  0
   14.2994  -18.7341   25.3426 O   0  0  0  0  0  0  0  0  0  0  0  0
  1  2  1  0
  3  2  1  0
  3  4  2  0
  5  3  1  0
  6  5  1  0
  6  7  1  1
  7  8  1  0
  8  9  2  0
  8 16  1  0
  9 10  1  0
 10 11  1  0
 11 12  2  0
 12 13  1  0
 14 13  2  0
 15 14  1  0
 16 15  2  0
 16 11  1  0
 17  6  1  0
 18 17  2  0
 20 21  1  1
 20 19  1  0
 22 20  1  0
 22 23  1  1
 23 17  1  0
 24 22  1  0
 25 24  2  0
 26 24  1  0
M  END
$$$$
