GWV.pdb
     RDKit          3D

 26 27  0  0  1  0  0  0  0  0999 V2000
    6.6487  -20.2779   20.0336 N   0  0  0  0  0  0  0  0  0  0  0  0
    6.2352  -19.8664   21.3399 C   0  0  0  0  0  0  0  0  0  0  0  0
    7.1133  -18.8008   21.8907 C   0  0  0  0  0  0  0  0  0  0  0  0
    8.2202  -18.5569   21.3647 O   0  0  0  0  0  0  0  0  0  0  0  0
    6.6901  -18.0614   23.0160 N   0  0  0  0  0  0  0  0  0  0  0  0
    7.4414  -16.9600   23.5790 C   0  0  1  0  0  0  0  0  0  0  0  0
    6.5627  -16.0240   24.3717 C   0  0  0  0  0  0  0  0  0  0  0  0
    7.1298  -14.6785   24.5018 C   0  0  0  0  0  0  0  0  0  0  0  0
    8.0524  -14.1175   23.6497 C   0  0  0  0  0  0  0  0  0  0  0  0
    8.3381  -12.8740   24.0855 N   0  0  0  0  0  0  0  0  0  0  0  0
    7.6261  -12.5917   25.2107 C   0  0  0  0  0  0  0  0  0  0  0  0
    7.5393  -11.4992   26.0391 C   0  0  0  0  0  0  0  0  0  0  0  0
    6.7036  -11.5072   27.1371 C   0  0  0  0  0  0  0  0  0  0  0  0
    5.9508  -12.6331   27.3952 C   0  0  0  0  0  0  0  0  0  0  0  0
    6.0481  -13.7140   26.5607 C   0  0  0  0  0  0  0  0  0  0  0  0
    6.8789  -13.7222   25.4585 C   0  0  0  0  0  0  0  0  0  0  0  0
    8.5229  -17.4332   24.4818 C   0  0  0  0  0  0  0  0  0  0  0  0
    8.2212  -18.2796   25.3557 O   0  0  0  0  0  0  0  0  0  0  0  0
   12.2306  -17.8816   22.9589 C   0  0  0  0  0  0  0  0  0  0  0  0
   12.2722  -17.3438   24.3593 C   0  0  1  0  0  0  0  0  0  0  0  0
   12.6606  -15.8836   24.2943 C   0  0  0  0  0  0  0  0  0  0  0  0
   10.9585  -17.5286   25.1061 C   0  0  2  0  0  0  0  0  0  0  0  0
    9.8547  -16.9491   24.3665 N   0  0  0  0  0  0  0  0  0  0  0  0
   11.0247  -17.0390   26.4921 C   0  0  0  0  0  0  0  0  0  0  0  0
   10.3110  -16.1101   26.9426 O   0  0  0  0  0  0  0  0  0  0  0  0
   11.9289  -17.6369   27.3583 O   0  0  0  0  0  0  0  0  0  0  0  0
  1  2  1  0
  3  2  1  0
  3  4  2  0
  5  3  1  0
  6  5  1  0
  6  7  1  1
  7  8  1  0
  8  9  2  0
  8 16  1  0
  9 10  1  0
 10 11  1  0
 11 12  2  0
 12 13  1  0
 14 13  2  0
 15 14  1  0
 16 15  2  0
 16 11  1  0
 17  6  1  0
 18 17  2  0
 20 21  1  6
 20 19  1  0
 22 20  1  0
 22 23  1  6
 23 17  1  0
 24 22  1  0
 25 24  2  0
 26 24  1  0
M  END
$$$$
