GWV.pdb
     RDKit          3D

 26 27  0  0  1  0  0  0  0  0999 V2000
    6.3387  -15.5091   19.8205 N   0  0  0  0  0  0  0  0  0  0  0  0
    6.4957  -16.2710   21.0212 C   0  0  0  0  0  0  0  0  0  0  0  0
    7.6887  -15.8436   21.7984 C   0  0  0  0  0  0  0  0  0  0  0  0
    8.5038  -15.0307   21.3124 O   0  0  0  0  0  0  0  0  0  0  0  0
    7.8987  -16.3621   23.0942 N   0  0  0  0  0  0  0  0  0  0  0  0
    8.9949  -15.9602   23.9493 C   0  0  1  0  0  0  0  0  0  0  0  0
    8.6221  -16.0189   25.4102 C   0  0  0  0  0  0  0  0  0  0  0  0
    7.5334  -15.1021   25.7609 C   0  0  0  0  0  0  0  0  0  0  0  0
    6.2151  -15.4578   25.9262 C   0  0  0  0  0  0  0  0  0  0  0  0
    5.5095  -14.3535   26.2434 N   0  0  0  0  0  0  0  0  0  0  0  0
    6.3281  -13.2671   26.2935 C   0  0  0  0  0  0  0  0  0  0  0  0
    6.1335  -11.9341   26.5630 C   0  0  0  0  0  0  0  0  0  0  0  0
    7.1882  -11.0449   26.5379 C   0  0  0  0  0  0  0  0  0  0  0  0
    8.4496  -11.5132   26.2370 C   0  0  0  0  0  0  0  0  0  0  0  0
    8.6278  -12.8442   25.9707 C   0  0  0  0  0  0  0  0  0  0  0  0
    7.5836  -13.7466   25.9916 C   0  0  0  0  0  0  0  0  0  0  0  0
   10.1908  -16.8211   23.7561 C   0  0  0  0  0  0  0  0  0  0  0  0
   10.0158  -18.0621   23.7356 O   0  0  0  0  0  0  0  0  0  0  0  0
   14.1160  -15.0384   23.1067 C   0  0  0  0  0  0  0  0  0  0  0  0
   13.6545  -16.3077   22.4524 C   0  0  1  0  0  0  0  0  0  0  0  0
   14.8714  -17.1514   22.1450 C   0  0  0  0  0  0  0  0  0  0  0  0
   12.6510  -17.0807   23.2969 C   0  0  2  0  0  0  0  0  0  0  0  0
   11.4905  -16.2666   23.5994 N   0  0  0  0  0  0  0  0  0  0  0  0
   13.2597  -17.6619   24.5038 C   0  0  0  0  0  0  0  0  0  0  0  0
   14.1088  -18.5861   24.4856 O   0  0  0  0  0  0  0  0  0  0  0  0
   12.8760  -17.1620   25.7400 O   0  0  0  0  0  0  0  0  0  0  0  0
  1  2  1  0
  3  2  1  0
  3  4  2  0
  5  3  1  0
  6  5  1  0
  6  7  1  1
  7  8  1  0
  8  9  2  0
  8 16  1  0
  9 10  1  0
 10 11  1  0
 11 12  2  0
 12 13  1  0
 14 13  2  0
 15 14  1  0
 16 15  2  0
 16 11  1  0
 17  6  1  0
 18 17  2  0
 20 21  1  1
 20 19  1  0
 22 20  1  0
 22 23  1  1
 23 17  1  0
 24 22  1  0
 25 24  2  0
 26 24  1  0
M  END
$$$$
