GWV.pdb
     RDKit          3D

 26 27  0  0  1  0  0  0  0  0999 V2000
    6.6637  -16.1688   19.7182 N   0  0  0  0  0  0  0  0  0  0  0  0
    6.7484  -16.7333   21.0301 C   0  0  0  0  0  0  0  0  0  0  0  0
    7.8765  -16.1595   21.8100 C   0  0  0  0  0  0  0  0  0  0  0  0
    8.6484  -15.3265   21.2887 O   0  0  0  0  0  0  0  0  0  0  0  0
    8.0739  -16.5612   23.1486 N   0  0  0  0  0  0  0  0  0  0  0  0
    9.1552  -16.0759   23.9789 C   0  0  1  0  0  0  0  0  0  0  0  0
    8.7974  -16.1028   25.4445 C   0  0  0  0  0  0  0  0  0  0  0  0
    7.6512  -15.2490   25.7701 C   0  0  0  0  0  0  0  0  0  0  0  0
    6.3512  -15.6781   25.9032 C   0  0  0  0  0  0  0  0  0  0  0  0
    5.5777  -14.6157   26.2047 N   0  0  0  0  0  0  0  0  0  0  0  0
    6.3329  -13.4855   26.2760 C   0  0  0  0  0  0  0  0  0  0  0  0
    6.0578  -12.1662   26.5424 C   0  0  0  0  0  0  0  0  0  0  0  0
    7.0617  -11.2194   26.5439 C   0  0  0  0  0  0  0  0  0  0  0  0
    8.3540  -11.6159   26.2727 C   0  0  0  0  0  0  0  0  0  0  0  0
    8.6125  -12.9342   26.0090 C   0  0  0  0  0  0  0  0  0  0  0  0
    7.6201  -13.8935   26.0037 C   0  0  0  0  0  0  0  0  0  0  0  0
   10.3913  -16.8821   23.8036 C   0  0  0  0  0  0  0  0  0  0  0  0
   10.2798  -18.1301   23.8339 O   0  0  0  0  0  0  0  0  0  0  0  0
   14.1932  -14.9409   22.9020 C   0  0  0  0  0  0  0  0  0  0  0  0
   13.7769  -16.2837   22.3772 C   0  0  1  0  0  0  0  0  0  0  0  0
   15.0254  -17.0841   22.0808 C   0  0  0  0  0  0  0  0  0  0  0  0
   12.8577  -17.0352   23.3301 C   0  0  2  0  0  0  0  0  0  0  0  0
   11.6590  -16.2690   23.6080 N   0  0  0  0  0  0  0  0  0  0  0  0
   13.5474  -17.4642   24.5571 C   0  0  0  0  0  0  0  0  0  0  0  0
   14.4691  -18.3159   24.5823 O   0  0  0  0  0  0  0  0  0  0  0  0
   13.1600  -16.8962   25.7623 O   0  0  0  0  0  0  0  0  0  0  0  0
  1  2  1  0
  3  2  1  0
  3  4  2  0
  5  3  1  0
  6  5  1  0
  6  7  1  1
  7  8  1  0
  8  9  2  0
  8 16  1  0
  9 10  1  0
 10 11  1  0
 11 12  2  0
 12 13  1  0
 14 13  2  0
 15 14  1  0
 16 15  2  0
 16 11  1  0
 17  6  1  0
 18 17  2  0
 20 21  1  1
 20 19  1  0
 22 20  1  0
 22 23  1  1
 23 17  1  0
 24 22  1  0
 25 24  2  0
 26 24  1  0
M  END
$$$$
