GWV.pdb
     RDKit          3D

 26 27  0  0  1  0  0  0  0  0999 V2000
    6.8697  -20.9901   24.3299 N   0  0  0  0  0  0  0  0  0  0  0  0
    6.7634  -19.6262   24.7488 C   0  0  0  0  0  0  0  0  0  0  0  0
    7.7469  -18.7538   24.0548 C   0  0  0  0  0  0  0  0  0  0  0  0
    8.5653  -19.2402   23.2455 O   0  0  0  0  0  0  0  0  0  0  0  0
    7.7532  -17.3665   24.3147 N   0  0  0  0  0  0  0  0  0  0  0  0
    8.7365  -16.4545   23.7709 C   0  0  1  0  0  0  0  0  0  0  0  0
    8.1281  -15.1251   23.3980 C   0  0  0  0  0  0  0  0  0  0  0  0
    7.2260  -14.5992   24.4268 C   0  0  0  0  0  0  0  0  0  0  0  0
    6.3850  -15.3549   25.2101 C   0  0  0  0  0  0  0  0  0  0  0  0
    5.7127  -14.5295   26.0375 N   0  0  0  0  0  0  0  0  0  0  0  0
    6.0863  -13.2382   25.8240 C   0  0  0  0  0  0  0  0  0  0  0  0
    5.7246  -12.0336   26.3768 C   0  0  0  0  0  0  0  0  0  0  0  0
    6.2939  -10.8547   25.9411 C   0  0  0  0  0  0  0  0  0  0  0  0
    7.2373  -10.8998   24.9368 C   0  0  0  0  0  0  0  0  0  0  0  0
    7.5875  -12.1076   24.3957 C   0  0  0  0  0  0  0  0  0  0  0  0
    7.0277  -13.2957   24.8200 C   0  0  0  0  0  0  0  0  0  0  0  0
    9.8372  -16.1904   24.7338 C   0  0  0  0  0  0  0  0  0  0  0  0
   10.9677  -15.9213   24.2640 O   0  0  0  0  0  0  0  0  0  0  0  0
   10.0888  -13.6582   27.3946 C   0  0  0  0  0  0  0  0  0  0  0  0
   10.4096  -14.9574   28.0737 C   0  0  1  0  0  0  0  0  0  0  0  0
    9.2535  -15.3158   28.9806 C   0  0  0  0  0  0  0  0  0  0  0  0
   10.7059  -16.0834   27.0928 C   0  0  2  0  0  0  0  0  0  0  0  0
    9.6256  -16.2389   26.1388 N   0  0  0  0  0  0  0  0  0  0  0  0
   11.0440  -17.3455   27.7693 C   0  0  0  0  0  0  0  0  0  0  0  0
   10.3616  -18.3950   27.6780 O   0  0  0  0  0  0  0  0  0  0  0  0
   12.1855  -17.3841   28.5573 O   0  0  0  0  0  0  0  0  0  0  0  0
  1  2  1  0
  3  2  1  0
  3  4  2  0
  5  3  1  0
  6  5  1  0
  6  7  1  1
  7  8  1  0
  8  9  2  0
  8 16  1  0
  9 10  1  0
 10 11  1  0
 11 12  2  0
 12 13  1  0
 14 13  2  0
 15 14  1  0
 16 15  2  0
 16 11  1  0
 17  6  1  0
 18 17  2  0
 20 21  1  6
 20 19  1  0
 22 20  1  0
 22 23  1  1
 23 17  1  0
 24 22  1  0
 25 24  2  0
 26 24  1  0
M  END
$$$$
