GWV.pdb
     RDKit          3D

 26 27  0  0  1  0  0  0  0  0999 V2000
    6.1559  -15.2486   20.1918 N   0  0  0  0  0  0  0  0  0  0  0  0
    6.6720  -16.3027   21.0099 C   0  0  0  0  0  0  0  0  0  0  0  0
    7.7837  -15.8371   21.8800 C   0  0  0  0  0  0  0  0  0  0  0  0
    8.6039  -14.9918   21.4626 O   0  0  0  0  0  0  0  0  0  0  0  0
    7.9105  -16.3561   23.1865 N   0  0  0  0  0  0  0  0  0  0  0  0
    8.9719  -15.9828   24.0967 C   0  0  1  0  0  0  0  0  0  0  0  0
    8.5067  -15.9710   25.5320 C   0  0  0  0  0  0  0  0  0  0  0  0
    7.4371  -14.9996   25.7794 C   0  0  0  0  0  0  0  0  0  0  0  0
    6.1028  -15.3030   25.9196 C   0  0  0  0  0  0  0  0  0  0  0  0
    5.4232  -14.1586   26.1351 N   0  0  0  0  0  0  0  0  0  0  0  0
    6.2747  -13.0967   26.1420 C   0  0  0  0  0  0  0  0  0  0  0  0
    6.1146  -11.7431   26.3134 C   0  0  0  0  0  0  0  0  0  0  0  0
    7.1982  -10.8900   26.2673 C   0  0  0  0  0  0  0  0  0  0  0  0
    8.4532  -11.4160   26.0454 C   0  0  0  0  0  0  0  0  0  0  0  0
    8.5969  -12.7669   25.8764 C   0  0  0  0  0  0  0  0  0  0  0  0
    7.5236  -13.6337   25.9197 C   0  0  0  0  0  0  0  0  0  0  0  0
   10.1287  -16.9115   24.0072 C   0  0  0  0  0  0  0  0  0  0  0  0
    9.8862  -18.1411   23.9895 O   0  0  0  0  0  0  0  0  0  0  0  0
   13.2971  -16.1967   21.7123 C   0  0  0  0  0  0  0  0  0  0  0  0
   13.7364  -16.6867   23.0610 C   0  0  1  0  0  0  0  0  0  0  0  0
   14.3461  -15.5239   23.8116 C   0  0  0  0  0  0  0  0  0  0  0  0
   12.6067  -17.3222   23.8593 C   0  0  2  0  0  0  0  0  0  0  0  0
   11.4657  -16.4322   23.9437 N   0  0  0  0  0  0  0  0  0  0  0  0
   13.0480  -17.7968   25.1804 C   0  0  0  0  0  0  0  0  0  0  0  0
   12.5968  -17.3628   26.2682 O   0  0  0  0  0  0  0  0  0  0  0  0
   14.0216  -18.7840   25.2331 O   0  0  0  0  0  0  0  0  0  0  0  0
  1  2  1  0
  3  2  1  0
  3  4  2  0
  5  3  1  0
  6  5  1  0
  6  7  1  1
  7  8  1  0
  8  9  2  0
  8 16  1  0
  9 10  1  0
 10 11  1  0
 11 12  2  0
 12 13  1  0
 14 13  2  0
 15 14  1  0
 16 15  2  0
 16 11  1  0
 17  6  1  0
 18 17  2  0
 20 21  1  1
 20 19  1  0
 22 20  1  0
 22 23  1  1
 23 17  1  0
 24 22  1  0
 25 24  2  0
 26 24  1  0
M  END
$$$$
