GWV.pdb
     RDKit          3D

 26 27  0  0  1  0  0  0  0  0999 V2000
    6.7130  -15.7142   19.5759 N   0  0  0  0  0  0  0  0  0  0  0  0
    6.5792  -16.3702   20.8403 C   0  0  0  0  0  0  0  0  0  0  0  0
    7.6804  -16.0108   21.7719 C   0  0  0  0  0  0  0  0  0  0  0  0
    8.6385  -15.3105   21.3806 O   0  0  0  0  0  0  0  0  0  0  0  0
    7.6400  -16.4658   23.1073 N   0  0  0  0  0  0  0  0  0  0  0  0
    8.6712  -16.1806   24.0819 C   0  0  1  0  0  0  0  0  0  0  0  0
    8.1460  -16.2452   25.4949 C   0  0  0  0  0  0  0  0  0  0  0  0
    7.1976  -15.1707   25.8031 C   0  0  0  0  0  0  0  0  0  0  0  0
    5.8455  -15.3332   25.9959 C   0  0  0  0  0  0  0  0  0  0  0  0
    5.3018  -14.1276   26.2581 N   0  0  0  0  0  0  0  0  0  0  0  0
    6.2616  -13.1626   26.2447 C   0  0  0  0  0  0  0  0  0  0  0  0
    6.2546  -11.8033   26.4437 C   0  0  0  0  0  0  0  0  0  0  0  0
    7.4204  -11.0696   26.3641 C   0  0  0  0  0  0  0  0  0  0  0  0
    8.6017  -11.7214   26.0803 C   0  0  0  0  0  0  0  0  0  0  0  0
    8.5929  -13.0764   25.8845 C   0  0  0  0  0  0  0  0  0  0  0  0
    7.4356  -13.8248   25.9605 C   0  0  0  0  0  0  0  0  0  0  0  0
    9.8062  -17.1346   23.9807 C   0  0  0  0  0  0  0  0  0  0  0  0
    9.5338  -18.3560   23.9104 O   0  0  0  0  0  0  0  0  0  0  0  0
   12.8350  -16.7559   21.5527 C   0  0  0  0  0  0  0  0  0  0  0  0
   13.3481  -17.0487   22.9321 C   0  0  1  0  0  0  0  0  0  0  0  0
   13.9503  -15.7796   23.4926 C   0  0  0  0  0  0  0  0  0  0  0  0
   12.2756  -17.6023   23.8600 C   0  0  2  0  0  0  0  0  0  0  0  0
   11.1557  -16.6877   23.9635 N   0  0  0  0  0  0  0  0  0  0  0  0
   12.8117  -17.9853   25.1757 C   0  0  0  0  0  0  0  0  0  0  0  0
   13.6822  -18.8731   25.3469 O   0  0  0  0  0  0  0  0  0  0  0  0
   12.3298  -17.3284   26.2988 O   0  0  0  0  0  0  0  0  0  0  0  0
  1  2  1  0
  3  2  1  0
  3  4  2  0
  5  3  1  0
  6  5  1  0
  6  7  1  1
  7  8  1  0
  8  9  2  0
  8 16  1  0
  9 10  1  0
 10 11  1  0
 11 12  2  0
 12 13  1  0
 14 13  2  0
 15 14  1  0
 16 15  2  0
 16 11  1  0
 17  6  1  0
 18 17  2  0
 20 21  1  1
 20 19  1  0
 22 20  1  0
 22 23  1  1
 23 17  1  0
 24 22  1  0
 25 24  2  0
 26 24  1  0
M  END
$$$$
