GWV.pdb
     RDKit          3D

 26 27  0  0  1  0  0  0  0  0999 V2000
    6.8462  -15.8591   19.5700 N   0  0  0  0  0  0  0  0  0  0  0  0
    6.7677  -16.4277   20.8805 C   0  0  0  0  0  0  0  0  0  0  0  0
    7.8364  -15.9108   21.7752 C   0  0  0  0  0  0  0  0  0  0  0  0
    8.6794  -15.0929   21.3489 O   0  0  0  0  0  0  0  0  0  0  0  0
    7.8961  -16.3497   23.1154 N   0  0  0  0  0  0  0  0  0  0  0  0
    8.9765  -16.0176   24.0192 C   0  0  1  0  0  0  0  0  0  0  0  0
    8.5358  -16.0501   25.4619 C   0  0  0  0  0  0  0  0  0  0  0  0
    7.4641  -15.0939   25.7552 C   0  0  0  0  0  0  0  0  0  0  0  0
    6.1355  -15.4117   25.9157 C   0  0  0  0  0  0  0  0  0  0  0  0
    5.4517  -14.2785   26.1732 N   0  0  0  0  0  0  0  0  0  0  0  0
    6.2948  -13.2101   26.1881 C   0  0  0  0  0  0  0  0  0  0  0  0
    6.1279  -11.8623   26.3957 C   0  0  0  0  0  0  0  0  0  0  0  0
    7.2036  -10.9995   26.3478 C   0  0  0  0  0  0  0  0  0  0  0  0
    8.4577  -11.5095   26.0871 C   0  0  0  0  0  0  0  0  0  0  0  0
    8.6083  -12.8547   25.8823 C   0  0  0  0  0  0  0  0  0  0  0  0
    7.5429  -13.7311   25.9268 C   0  0  0  0  0  0  0  0  0  0  0  0
   10.1222  -16.9537   23.8784 C   0  0  0  0  0  0  0  0  0  0  0  0
    9.8652  -18.1775   23.7940 O   0  0  0  0  0  0  0  0  0  0  0  0
   13.0197  -16.2714   21.3487 C   0  0  0  0  0  0  0  0  0  0  0  0
   13.6032  -16.6975   22.6640 C   0  0  1  0  0  0  0  0  0  0  0  0
   14.2119  -15.4825   23.3278 C   0  0  0  0  0  0  0  0  0  0  0  0
   12.5855  -17.3680   23.5763 C   0  0  2  0  0  0  0  0  0  0  0  0
   11.4647  -16.4874   23.8400 N   0  0  0  0  0  0  0  0  0  0  0  0
   13.1930  -17.8894   24.8109 C   0  0  0  0  0  0  0  0  0  0  0  0
   14.0834  -18.7737   24.8352 O   0  0  0  0  0  0  0  0  0  0  0  0
   12.7595  -17.3760   26.0249 O   0  0  0  0  0  0  0  0  0  0  0  0
  1  2  1  0
  3  2  1  0
  3  4  2  0
  5  3  1  0
  6  5  1  0
  6  7  1  1
  7  8  1  0
  8  9  2  0
  8 16  1  0
  9 10  1  0
 10 11  1  0
 11 12  2  0
 12 13  1  0
 14 13  2  0
 15 14  1  0
 16 15  2  0
 16 11  1  0
 17  6  1  0
 18 17  2  0
 20 21  1  1
 20 19  1  0
 22 20  1  0
 22 23  1  1
 23 17  1  0
 24 22  1  0
 25 24  2  0
 26 24  1  0
M  END
$$$$
