GWV.pdb
     RDKit          3D

 26 27  0  0  1  0  0  0  0  0999 V2000
   12.3023  -15.7758   19.6981 N   0  0  0  0  0  0  0  0  0  0  0  0
   11.7658  -16.6857   20.6631 C   0  0  0  0  0  0  0  0  0  0  0  0
   11.1687  -15.9755   21.8245 C   0  0  0  0  0  0  0  0  0  0  0  0
   11.5895  -14.8486   22.1630 O   0  0  0  0  0  0  0  0  0  0  0  0
   10.1192  -16.5817   22.5478 N   0  0  0  0  0  0  0  0  0  0  0  0
    9.4448  -15.9496   23.6614 C   0  0  1  0  0  0  0  0  0  0  0  0
    7.9525  -16.1671   23.6147 C   0  0  0  0  0  0  0  0  0  0  0  0
    7.2260  -15.3689   24.6068 C   0  0  0  0  0  0  0  0  0  0  0  0
    6.5293  -15.8743   25.6797 C   0  0  0  0  0  0  0  0  0  0  0  0
    5.9946  -14.8449   26.3670 N   0  0  0  0  0  0  0  0  0  0  0  0
    6.3191  -13.6622   25.7765 C   0  0  0  0  0  0  0  0  0  0  0  0
    6.0434  -12.3457   26.0562 C   0  0  0  0  0  0  0  0  0  0  0  0
    6.5256  -11.3343   25.2510 C   0  0  0  0  0  0  0  0  0  0  0  0
    7.2933  -11.6627   24.1539 C   0  0  0  0  0  0  0  0  0  0  0  0
    7.5595  -12.9790   23.8880 C   0  0  0  0  0  0  0  0  0  0  0  0
    7.0849  -14.0025   24.6832 C   0  0  0  0  0  0  0  0  0  0  0  0
    9.9330  -16.4642   24.9673 C   0  0  0  0  0  0  0  0  0  0  0  0
   10.4325  -17.6136   24.9885 O   0  0  0  0  0  0  0  0  0  0  0  0
   10.6985  -13.6036   27.9539 C   0  0  0  0  0  0  0  0  0  0  0  0
   10.3564  -14.9805   28.4429 C   0  0  1  0  0  0  0  0  0  0  0  0
    8.9359  -14.9595   28.9614 C   0  0  0  0  0  0  0  0  0  0  0  0
   10.5342  -16.0513   27.3754 C   0  0  2  0  0  0  0  0  0  0  0  0
    9.8411  -15.6884   26.1551 N   0  0  0  0  0  0  0  0  0  0  0  0
   10.1630  -17.3919   27.8550 C   0  0  0  0  0  0  0  0  0  0  0  0
   10.7453  -17.9870   28.7943 O   0  0  0  0  0  0  0  0  0  0  0  0
    9.1057  -18.0427   27.2354 O   0  0  0  0  0  0  0  0  0  0  0  0
  1  2  1  0
  3  2  1  0
  3  4  2  0
  5  3  1  0
  6  5  1  0
  6  7  1  6
  7  8  1  0
  8  9  2  0
  8 16  1  0
  9 10  1  0
 10 11  1  0
 11 12  2  0
 12 13  1  0
 14 13  2  0
 15 14  1  0
 16 15  2  0
 16 11  1  0
 17  6  1  0
 18 17  2  0
 20 21  1  6
 20 19  1  0
 22 20  1  0
 22 23  1  6
 23 17  1  0
 24 22  1  0
 25 24  2  0
 26 24  1  0
M  END
$$$$
