AVP.pdb
     RDKit          3D

 20 20  0  0  1  0  0  0  0  0999 V2000
    6.9662  -11.0446   26.3480 C   0  0  0  0  0  0  0  0  0  0  0  0
    6.0278  -12.1055   25.8062 C   0  0  2  0  0  0  0  0  0  0  0  0
    4.8876  -12.1527   26.7025 N   0  0  0  0  0  0  0  0  0  0  0  0
    6.6615  -13.4446   25.8011 C   0  0  0  0  0  0  0  0  0  0  0  0
    6.4197  -14.3005   26.7201 O   0  0  0  0  0  0  0  0  0  0  0  0
    9.0320  -14.8963   22.5080 C   0  0  0  0  0  0  0  0  0  0  0  0
    8.1430  -15.7576   23.3800 C   0  0  1  0  0  0  0  0  0  0  0  0
    8.5748  -17.1853   23.3045 C   0  0  0  0  0  0  0  0  0  0  0  0
    8.1176  -15.2311   24.8084 C   0  0  2  0  0  0  0  0  0  0  0  0
    7.5677  -13.8718   24.7956 N   0  0  0  0  0  0  0  0  0  0  0  0
    9.5082  -15.1681   25.3146 C   0  0  0  0  0  0  0  0  0  0  0  0
   10.4178  -15.4011   24.4493 O   0  0  0  0  0  0  0  0  0  0  0  0
    9.8522  -14.8702   26.6618 N   0  0  0  0  0  0  0  0  0  0  0  0
    9.0828  -14.3462   27.7513 C   0  0  0  0  0  0  0  0  0  0  0  0
    9.6213  -15.1663   28.9377 C   0  0  0  0  0  0  0  0  0  0  0  0
   11.1215  -14.9022   28.6931 C   0  0  0  0  0  0  0  0  0  0  0  0
   11.2093  -15.0949   27.1739 C   0  0  1  0  0  0  0  0  0  0  0  0
   11.7050  -16.4538   26.8782 C   0  0  0  0  0  0  0  0  0  0  0  0
   10.8976  -17.3501   26.5500 O   0  0  0  0  0  0  0  0  0  0  0  0
   13.0425  -16.7491   26.9569 O   0  0  0  0  0  0  0  0  0  0  0  0
  2  1  1  1
  2  3  1  0
  4  2  1  0
  4  5  2  0
  7  6  1  6
  7  9  1  0
  8  7  1  0
  9 10  1  6
  9 11  1  0
 10  4  1  0
 11 13  1  0
 12 11  2  0
 13 14  1  0
 13 17  1  0
 14 15  1  0
 15 16  1  0
 17 16  1  0
 18 20  1  0
 17 18  1  1
 19 18  2  0
M  END
$$$$
