AVP.pdb
     RDKit          3D

 20 20  0  0  1  0  0  0  0  0999 V2000
   11.8375  -18.4497   23.3105 C   0  0  0  0  0  0  0  0  0  0  0  0
   11.4397  -17.6010   22.1186 C   0  0  2  0  0  0  0  0  0  0  0  0
   12.6602  -17.2988   21.3941 N   0  0  0  0  0  0  0  0  0  0  0  0
   10.8287  -16.3189   22.5401 C   0  0  0  0  0  0  0  0  0  0  0  0
   11.5476  -15.3149   22.8727 O   0  0  0  0  0  0  0  0  0  0  0  0
    6.8094  -15.4383   21.7448 C   0  0  0  0  0  0  0  0  0  0  0  0
    7.8665  -14.3728   21.9444 C   0  0  1  0  0  0  0  0  0  0  0  0
    7.2243  -13.0656   22.2753 C   0  0  0  0  0  0  0  0  0  0  0  0
    8.8775  -14.8082   22.9962 C   0  0  2  0  0  0  0  0  0  0  0  0
    9.4262  -16.1109   22.6059 N   0  0  0  0  0  0  0  0  0  0  0  0
    8.1757  -14.9655   24.2910 C   0  0  0  0  0  0  0  0  0  0  0  0
    7.6779  -16.1211   24.5081 O   0  0  0  0  0  0  0  0  0  0  0  0
    8.0435  -13.9294   25.2559 N   0  0  0  0  0  0  0  0  0  0  0  0
    8.4520  -12.5558   25.2456 C   0  0  0  0  0  0  0  0  0  0  0  0
    7.2622  -11.8701   25.9415 C   0  0  0  0  0  0  0  0  0  0  0  0
    7.2134  -12.7798   27.1866 C   0  0  0  0  0  0  0  0  0  0  0  0
    7.3838  -14.1630   26.5461 C   0  0  1  0  0  0  0  0  0  0  0  0
    6.0612  -14.8015   26.3948 C   0  0  0  0  0  0  0  0  0  0  0  0
    5.4603  -14.7304   25.3008 O   0  0  0  0  0  0  0  0  0  0  0  0
    5.4797  -15.4749   27.4392 O   0  0  0  0  0  0  0  0  0  0  0  0
  2  1  1  1
  2  3  1  0
  4  2  1  0
  4  5  2  0
  7  6  1  1
  7  9  1  0
  8  7  1  0
  9 10  1  6
  9 11  1  0
 10  4  1  0
 11 13  1  0
 12 11  2  0
 13 14  1  0
 13 17  1  0
 14 15  1  0
 15 16  1  0
 17 16  1  0
 18 20  1  0
 17 18  1  6
 19 18  2  0
M  END
$$$$
