AVP.pdb
     RDKit          3D

 20 20  0  0  1  0  0  0  0  0999 V2000
    8.0282  -20.2087   26.7141 C   0  0  0  0  0  0  0  0  0  0  0  0
    8.9582  -19.4475   27.6389 C   0  0  2  0  0  0  0  0  0  0  0  0
    8.9476  -20.1463   28.9106 N   0  0  0  0  0  0  0  0  0  0  0  0
    8.4835  -18.0639   27.8734 C   0  0  0  0  0  0  0  0  0  0  0  0
    7.4097  -17.8287   28.5268 O   0  0  0  0  0  0  0  0  0  0  0  0
   10.1374  -14.8125   29.3569 C   0  0  0  0  0  0  0  0  0  0  0  0
    9.7025  -14.6056   27.9215 C   0  0  1  0  0  0  0  0  0  0  0  0
   10.8790  -14.7070   27.0071 C   0  0  0  0  0  0  0  0  0  0  0  0
    8.5907  -15.5775   27.5508 C   0  0  2  0  0  0  0  0  0  0  0  0
    9.1709  -16.9157   27.4000 N   0  0  0  0  0  0  0  0  0  0  0  0
    8.0178  -15.1669   26.2481 C   0  0  0  0  0  0  0  0  0  0  0  0
    8.4665  -15.7931   25.2298 O   0  0  0  0  0  0  0  0  0  0  0  0
    7.0329  -14.1524   26.0958 N   0  0  0  0  0  0  0  0  0  0  0  0
    6.2521  -13.4268   27.0537 C   0  0  0  0  0  0  0  0  0  0  0  0
    6.2386  -12.0145   26.4411 C   0  0  0  0  0  0  0  0  0  0  0  0
    5.7712  -12.4189   25.0276 C   0  0  0  0  0  0  0  0  0  0  0  0
    6.6459  -13.6525   24.7712 C   0  0  1  0  0  0  0  0  0  0  0  0
    7.8120  -13.2671   23.9519 C   0  0  0  0  0  0  0  0  0  0  0  0
    8.9324  -13.1368   24.4913 O   0  0  0  0  0  0  0  0  0  0  0  0
    7.6854  -13.0501   22.6031 O   0  0  0  0  0  0  0  0  0  0  0  0
  2  1  1  6
  2  3  1  0
  4  2  1  0
  4  5  2  0
  7  6  1  1
  7  9  1  0
  8  7  1  0
  9 10  1  6
  9 11  1  0
 10  4  1  0
 11 13  1  0
 12 11  2  0
 13 14  1  0
 13 17  1  0
 14 15  1  0
 15 16  1  0
 17 16  1  0
 18 20  1  0
 17 18  1  6
 19 18  2  0
M  END
$$$$
