AVP.pdb
     RDKit          3D

 20 20  0  0  1  0  0  0  0  0999 V2000
    9.5389  -17.4430   21.7846 C   0  0  0  0  0  0  0  0  0  0  0  0
    8.9179  -16.0713   21.6049 C   0  0  2  0  0  0  0  0  0  0  0  0
    9.6595  -15.4118   20.5462 N   0  0  0  0  0  0  0  0  0  0  0  0
    9.0430  -15.2498   22.8313 C   0  0  0  0  0  0  0  0  0  0  0  0
   10.0745  -14.5253   23.0466 O   0  0  0  0  0  0  0  0  0  0  0  0
    6.8879  -13.7610   27.0515 C   0  0  0  0  0  0  0  0  0  0  0  0
    6.8877  -13.9235   25.5462 C   0  0  1  0  0  0  0  0  0  0  0  0
    6.4663  -12.6495   24.8906 C   0  0  0  0  0  0  0  0  0  0  0  0
    8.2454  -14.4092   25.0572 C   0  0  2  0  0  0  0  0  0  0  0  0
    8.0469  -15.2049   23.8416 N   0  0  0  0  0  0  0  0  0  0  0  0
    8.8380  -15.2828   26.0962 C   0  0  0  0  0  0  0  0  0  0  0  0
    8.4539  -16.5003   26.0734 O   0  0  0  0  0  0  0  0  0  0  0  0
    9.7749  -14.8392   27.0696 N   0  0  0  0  0  0  0  0  0  0  0  0
   10.2031  -13.5274   27.4562 C   0  0  0  0  0  0  0  0  0  0  0  0
   10.3303  -13.6769   28.9831 C   0  0  0  0  0  0  0  0  0  0  0  0
   11.2128  -14.9423   28.9828 C   0  0  0  0  0  0  0  0  0  0  0  0
   10.5119  -15.7884   27.9125 C   0  0  1  0  0  0  0  0  0  0  0  0
    9.6229  -16.7697   28.5654 C   0  0  0  0  0  0  0  0  0  0  0  0
    8.3859  -16.5887   28.5544 O   0  0  0  0  0  0  0  0  0  0  0  0
   10.1345  -17.8818   29.1851 O   0  0  0  0  0  0  0  0  0  0  0  0
  2  1  1  1
  2  3  1  0
  4  2  1  0
  4  5  2  0
  7  6  1  1
  7  9  1  0
  8  7  1  0
  9 10  1  6
  9 11  1  0
 10  4  1  0
 11 13  1  0
 12 11  2  0
 13 14  1  0
 13 17  1  0
 14 15  1  0
 15 16  1  0
 17 16  1  0
 18 20  1  0
 17 18  1  1
 19 18  2  0
M  END
$$$$
