AVP.pdb
     RDKit          3D

 20 20  0  0  1  0  0  0  0  0999 V2000
    8.4090  -16.6164   21.2262 C   0  0  0  0  0  0  0  0  0  0  0  0
    7.7875  -15.2550   21.4707 C   0  0  2  0  0  0  0  0  0  0  0  0
    8.1440  -14.4226   20.3368 N   0  0  0  0  0  0  0  0  0  0  0  0
    8.3293  -14.6184   22.6937 C   0  0  0  0  0  0  0  0  0  0  0  0
    9.3906  -13.9057   22.6606 O   0  0  0  0  0  0  0  0  0  0  0  0
    6.4945  -12.2644   25.2633 C   0  0  0  0  0  0  0  0  0  0  0  0
    7.0906  -13.4800   25.9411 C   0  0  1  0  0  0  0  0  0  0  0  0
    6.0318  -14.5048   26.1851 C   0  0  0  0  0  0  0  0  0  0  0  0
    8.2577  -14.0290   25.1320 C   0  0  2  0  0  0  0  0  0  0  0  0
    7.7239  -14.7484   23.9710 N   0  0  0  0  0  0  0  0  0  0  0  0
    9.0067  -14.9903   25.9738 C   0  0  0  0  0  0  0  0  0  0  0  0
    8.8466  -16.2214   25.6753 O   0  0  0  0  0  0  0  0  0  0  0  0
    9.8580  -14.6126   27.0484 N   0  0  0  0  0  0  0  0  0  0  0  0
   10.1206  -13.3430   27.6589 C   0  0  0  0  0  0  0  0  0  0  0  0
   10.2205  -13.7258   29.1468 C   0  0  0  0  0  0  0  0  0  0  0  0
   11.2428  -14.8700   28.9860 C   0  0  0  0  0  0  0  0  0  0  0  0
   10.6751  -15.6008   27.7627 C   0  0  1  0  0  0  0  0  0  0  0  0
    9.8870  -16.7670   28.2082 C   0  0  0  0  0  0  0  0  0  0  0  0
   10.4723  -17.8231   28.5324 O   0  0  0  0  0  0  0  0  0  0  0  0
    8.5178  -16.7093   28.2737 O   0  0  0  0  0  0  0  0  0  0  0  0
  2  1  1  6
  2  3  1  0
  4  2  1  0
  4  5  2  0
  7  6  1  6
  7  9  1  0
  8  7  1  0
  9 10  1  6
  9 11  1  0
 10  4  1  0
 11 13  1  0
 12 11  2  0
 13 14  1  0
 13 17  1  0
 14 15  1  0
 15 16  1  0
 17 16  1  0
 18 20  1  0
 17 18  1  1
 19 18  2  0
M  END
$$$$
