AVP.pdb
     RDKit          3D

 20 20  0  0  1  0  0  0  0  0999 V2000
    8.0755  -14.4879   20.2430 C   0  0  0  0  0  0  0  0  0  0  0  0
    8.5154  -15.4621   21.3186 C   0  0  2  0  0  0  0  0  0  0  0  0
    7.4408  -16.4245   21.4761 N   0  0  0  0  0  0  0  0  0  0  0  0
    8.7169  -14.7844   22.6205 C   0  0  0  0  0  0  0  0  0  0  0  0
    9.6566  -13.9339   22.7914 O   0  0  0  0  0  0  0  0  0  0  0  0
    6.5767  -14.9809   26.8467 C   0  0  0  0  0  0  0  0  0  0  0  0
    6.7610  -14.0504   25.6666 C   0  0  1  0  0  0  0  0  0  0  0  0
    6.5706  -12.6322   26.0942 C   0  0  0  0  0  0  0  0  0  0  0  0
    8.1118  -14.2830   25.0037 C   0  0  2  0  0  0  0  0  0  0  0  0
    7.8986  -15.0225   23.7555 N   0  0  0  0  0  0  0  0  0  0  0  0
    8.9438  -15.1147   25.9036 C   0  0  0  0  0  0  0  0  0  0  0  0
    8.8892  -16.3730   25.6937 O   0  0  0  0  0  0  0  0  0  0  0  0
    9.7633  -14.5905   26.9408 N   0  0  0  0  0  0  0  0  0  0  0  0
    9.9040  -13.2665   27.4709 C   0  0  0  0  0  0  0  0  0  0  0  0
   10.0554  -13.5469   28.9771 C   0  0  0  0  0  0  0  0  0  0  0  0
   11.1849  -14.5922   28.8688 C   0  0  0  0  0  0  0  0  0  0  0  0
   10.6813  -15.4481   27.6998 C   0  0  1  0  0  0  0  0  0  0  0  0
   10.0173  -16.6573   28.2257 C   0  0  0  0  0  0  0  0  0  0  0  0
    8.7695  -16.7332   28.2151 O   0  0  0  0  0  0  0  0  0  0  0  0
   10.7507  -17.7032   28.7264 O   0  0  0  0  0  0  0  0  0  0  0  0
  2  1  1  6
  2  3  1  0
  4  2  1  0
  4  5  2  0
  7  6  1  1
  7  9  1  0
  8  7  1  0
  9 10  1  6
  9 11  1  0
 10  4  1  0
 11 13  1  0
 12 11  2  0
 13 14  1  0
 13 17  1  0
 14 15  1  0
 15 16  1  0
 17 16  1  0
 18 20  1  0
 17 18  1  1
 19 18  2  0
M  END
$$$$
