AVP.pdb
     RDKit          3D

 20 20  0  0  1  0  0  0  0  0999 V2000
   -2.1522  -27.6724   32.1540 C   0  0  0  0  0  0  0  0  0  0  0  0
   -2.1669  -28.0384   30.6825 C   0  0  2  0  0  0  0  0  0  0  0  0
   -0.8252  -28.4776   30.3472 N   0  0  0  0  0  0  0  0  0  0  0  0
   -2.4916  -26.8697   29.8319 C   0  0  0  0  0  0  0  0  0  0  0  0
   -1.5815  -26.0717   29.4191 O   0  0  0  0  0  0  0  0  0  0  0  0
   -3.4270  -26.5236   26.4161 C   0  0  0  0  0  0  0  0  0  0  0  0
   -4.5631  -25.9048   27.2028 C   0  0  1  0  0  0  0  0  0  0  0  0
   -5.6887  -26.8776   27.3340 C   0  0  0  0  0  0  0  0  0  0  0  0
   -4.0704  -25.3982   28.5514 C   0  0  2  0  0  0  0  0  0  0  0  0
   -3.8118  -26.5525   29.4180 N   0  0  0  0  0  0  0  0  0  0  0  0
   -5.1394  -24.5800   29.1691 C   0  0  0  0  0  0  0  0  0  0  0  0
   -6.1144  -25.2371   29.6669 O   0  0  0  0  0  0  0  0  0  0  0  0
   -5.1209  -23.1593   29.2280 N   0  0  0  0  0  0  0  0  0  0  0  0
   -4.1338  -22.1989   28.8319 C   0  0  0  0  0  0  0  0  0  0  0  0
   -5.0073  -21.0794   28.2370 C   0  0  0  0  0  0  0  0  0  0  0  0
   -5.9730  -20.9297   29.4308 C   0  0  0  0  0  0  0  0  0  0  0  0
   -6.2563  -22.3997   29.7650 C   0  0  1  0  0  0  0  0  0  0  0  0
   -7.5408  -22.8032   29.1594 C   0  0  0  0  0  0  0  0  0  0  0  0
   -7.5465  -23.4199   28.0718 O   0  0  0  0  0  0  0  0  0  0  0  0
   -8.7324  -22.5123   29.7740 O   0  0  0  0  0  0  0  0  0  0  0  0
  2  1  1  1
  2  3  1  0
  4  2  1  0
  4  5  2  0
  7  6  1  1
  7  9  1  0
  8  7  1  0
  9 10  1  1
  9 11  1  0
 10  4  1  0
 11 13  1  0
 12 11  2  0
 13 14  1  0
 13 17  1  0
 14 15  1  0
 15 16  1  0
 17 16  1  0
 18 20  1  0
 17 18  1  6
 19 18  2  0
M  END
$$$$
