AVP.pdb
     RDKit          3D

 20 20  0  0  1  0  0  0  0  0999 V2000
   12.4243  -17.6125   22.8106 C   0  0  0  0  0  0  0  0  0  0  0  0
   11.4676  -17.1103   21.7466 C   0  0  2  0  0  0  0  0  0  0  0  0
   12.2784  -16.6966   20.6165 N   0  0  0  0  0  0  0  0  0  0  0  0
   10.6997  -15.9327   22.2141 C   0  0  0  0  0  0  0  0  0  0  0  0
   11.2207  -14.7652   22.2431 O   0  0  0  0  0  0  0  0  0  0  0  0
    7.3817  -14.3528   21.0040 C   0  0  0  0  0  0  0  0  0  0  0  0
    7.2707  -14.7789   22.4527 C   0  0  1  0  0  0  0  0  0  0  0  0
    6.5603  -16.0889   22.5514 C   0  0  0  0  0  0  0  0  0  0  0  0
    8.6431  -14.8090   23.1113 C   0  0  2  0  0  0  0  0  0  0  0  0
    9.3532  -16.0088   22.6568 N   0  0  0  0  0  0  0  0  0  0  0  0
    8.4622  -14.9005   24.5785 C   0  0  0  0  0  0  0  0  0  0  0  0
    8.7209  -16.0401   25.0930 O   0  0  0  0  0  0  0  0  0  0  0  0
    8.0343  -13.8191   25.3968 N   0  0  0  0  0  0  0  0  0  0  0  0
    7.7010  -12.4600   25.0876 C   0  0  0  0  0  0  0  0  0  0  0  0
    6.4964  -12.2146   26.0144 C   0  0  0  0  0  0  0  0  0  0  0  0
    7.1545  -12.6990   27.3229 C   0  0  0  0  0  0  0  0  0  0  0  0
    7.8513  -13.9790   26.8444 C   0  0  1  0  0  0  0  0  0  0  0  0
    7.0160  -15.1489   27.1806 C   0  0  0  0  0  0  0  0  0  0  0  0
    6.1895  -15.5802   26.3475 O   0  0  0  0  0  0  0  0  0  0  0  0
    7.1337  -15.7734   28.3966 O   0  0  0  0  0  0  0  0  0  0  0  0
  2  1  1  1
  2  3  1  0
  4  2  1  0
  4  5  2  0
  7  6  1  6
  7  9  1  0
  8  7  1  0
  9 10  1  6
  9 11  1  0
 10  4  1  0
 11 13  1  0
 12 11  2  0
 13 14  1  0
 13 17  1  0
 14 15  1  0
 15 16  1  0
 17 16  1  0
 18 20  1  0
 17 18  1  6
 19 18  2  0
M  END
$$$$
