AVP.pdb
     RDKit          3D

 20 20  0  0  1  0  0  0  0  0999 V2000
   12.1133  -18.1857   23.2525 C   0  0  0  0  0  0  0  0  0  0  0  0
   11.6658  -17.3378   22.0776 C   0  0  2  0  0  0  0  0  0  0  0  0
   12.8699  -16.8682   21.4179 N   0  0  0  0  0  0  0  0  0  0  0  0
   10.8952  -16.1528   22.5209 C   0  0  0  0  0  0  0  0  0  0  0  0
   11.4760  -15.0541   22.8229 O   0  0  0  0  0  0  0  0  0  0  0  0
    6.6724  -13.6395   22.5807 C   0  0  0  0  0  0  0  0  0  0  0  0
    7.6021  -14.7199   22.0701 C   0  0  1  0  0  0  0  0  0  0  0  0
    8.0545  -14.3974   20.6837 C   0  0  0  0  0  0  0  0  0  0  0  0
    8.7660  -14.9260   23.0298 C   0  0  2  0  0  0  0  0  0  0  0  0
    9.4809  -16.1461   22.6420 N   0  0  0  0  0  0  0  0  0  0  0  0
    8.2255  -15.1150   24.3958 C   0  0  0  0  0  0  0  0  0  0  0  0
    7.8931  -16.3114   24.6934 O   0  0  0  0  0  0  0  0  0  0  0  0
    8.0722  -14.0660   25.3435 N   0  0  0  0  0  0  0  0  0  0  0  0
    8.3074  -12.6551   25.2541 C   0  0  0  0  0  0  0  0  0  0  0  0
    7.1242  -12.0889   26.0602 C   0  0  0  0  0  0  0  0  0  0  0  0
    7.3194  -12.9503   27.3251 C   0  0  0  0  0  0  0  0  0  0  0  0
    7.5872  -14.3270   26.7040 C   0  0  1  0  0  0  0  0  0  0  0  0
    6.3434  -15.1223   26.7157 C   0  0  0  0  0  0  0  0  0  0  0  0
    5.6292  -15.1705   25.6907 O   0  0  0  0  0  0  0  0  0  0  0  0
    5.9584  -15.8128   27.8370 O   0  0  0  0  0  0  0  0  0  0  0  0
  2  1  1  1
  2  3  1  0
  4  2  1  0
  4  5  2  0
  7  6  1  1
  7  9  1  0
  8  7  1  0
  9 10  1  6
  9 11  1  0
 10  4  1  0
 11 13  1  0
 12 11  2  0
 13 14  1  0
 13 17  1  0
 14 15  1  0
 15 16  1  0
 17 16  1  0
 18 20  1  0
 17 18  1  6
 19 18  2  0
M  END
$$$$
