AVP.pdb
     RDKit          3D

 20 20  0  0  1  0  0  0  0  0999 V2000
   11.8758  -18.0590   22.8684 C   0  0  0  0  0  0  0  0  0  0  0  0
   11.3402  -17.1890   21.7478 C   0  0  2  0  0  0  0  0  0  0  0  0
   12.4839  -16.7758   20.9559 N   0  0  0  0  0  0  0  0  0  0  0  0
   10.6810  -15.9694   22.2701 C   0  0  0  0  0  0  0  0  0  0  0  0
   11.3514  -14.9178   22.5531 O   0  0  0  0  0  0  0  0  0  0  0  0
    7.8556  -13.6950   20.8930 C   0  0  0  0  0  0  0  0  0  0  0  0
    7.4565  -14.2999   22.2224 C   0  0  1  0  0  0  0  0  0  0  0  0
    6.5571  -15.4724   22.0057 C   0  0  0  0  0  0  0  0  0  0  0  0
    8.6885  -14.6545   23.0438 C   0  0  2  0  0  0  0  0  0  0  0  0
    9.2821  -15.8766   22.4921 N   0  0  0  0  0  0  0  0  0  0  0  0
    8.2662  -14.9275   24.4369 C   0  0  0  0  0  0  0  0  0  0  0  0
    8.2436  -16.1595   24.7717 O   0  0  0  0  0  0  0  0  0  0  0  0
    7.9047  -13.9185   25.3715 N   0  0  0  0  0  0  0  0  0  0  0  0
    7.8680  -12.4896   25.2690 C   0  0  0  0  0  0  0  0  0  0  0  0
    6.5892  -12.1520   26.0569 C   0  0  0  0  0  0  0  0  0  0  0  0
    6.9298  -12.9491   27.3331 C   0  0  0  0  0  0  0  0  0  0  0  0
    7.4622  -14.2550   26.7299 C   0  0  1  0  0  0  0  0  0  0  0  0
    6.3926  -15.2726   26.7379 C   0  0  0  0  0  0  0  0  0  0  0  0
    5.6748  -15.4251   25.7256 O   0  0  0  0  0  0  0  0  0  0  0  0
    6.1739  -16.0572   27.8420 O   0  0  0  0  0  0  0  0  0  0  0  0
  2  1  1  1
  2  3  1  0
  4  2  1  0
  4  5  2  0
  7  6  1  6
  7  9  1  0
  8  7  1  0
  9 10  1  6
  9 11  1  0
 10  4  1  0
 11 13  1  0
 12 11  2  0
 13 14  1  0
 13 17  1  0
 14 15  1  0
 15 16  1  0
 17 16  1  0
 18 20  1  0
 17 18  1  6
 19 18  2  0
M  END
$$$$
