AVP.pdb
     RDKit          3D

 20 20  0  0  1  0  0  0  0  0999 V2000
   11.6852  -18.1461   23.2586 C   0  0  0  0  0  0  0  0  0  0  0  0
   11.2816  -17.3021   22.0652 C   0  0  2  0  0  0  0  0  0  0  0  0
   12.5002  -16.9916   21.3411 N   0  0  0  0  0  0  0  0  0  0  0  0
   10.6606  -16.0241   22.4846 C   0  0  0  0  0  0  0  0  0  0  0  0
   11.3714  -15.0205   22.8355 O   0  0  0  0  0  0  0  0  0  0  0  0
    8.0443  -13.5763   20.8753 C   0  0  0  0  0  0  0  0  0  0  0  0
    7.5351  -14.1438   22.1834 C   0  0  1  0  0  0  0  0  0  0  0  0
    6.5688  -15.2524   21.9225 C   0  0  0  0  0  0  0  0  0  0  0  0
    8.6948  -14.5780   23.0693 C   0  0  2  0  0  0  0  0  0  0  0  0
    9.2566  -15.8198   22.5283 N   0  0  0  0  0  0  0  0  0  0  0  0
    8.1749  -14.8532   24.4286 C   0  0  0  0  0  0  0  0  0  0  0  0
    8.0067  -16.0868   24.7120 O   0  0  0  0  0  0  0  0  0  0  0  0
    7.8728  -13.8449   25.3847 N   0  0  0  0  0  0  0  0  0  0  0  0
    7.9854  -12.4170   25.3361 C   0  0  0  0  0  0  0  0  0  0  0  0
    6.7110  -11.9771   26.0794 C   0  0  0  0  0  0  0  0  0  0  0  0
    6.9081  -12.8479   27.3375 C   0  0  0  0  0  0  0  0  0  0  0  0
    7.3342  -14.1803   26.7082 C   0  0  1  0  0  0  0  0  0  0  0  0
    6.1682  -15.0825   26.6297 C   0  0  0  0  0  0  0  0  0  0  0  0
    5.5333  -15.1825   25.5573 O   0  0  0  0  0  0  0  0  0  0  0  0
    5.7698  -15.8163   27.7183 O   0  0  0  0  0  0  0  0  0  0  0  0
  2  1  1  1
  2  3  1  0
  4  2  1  0
  4  5  2  0
  7  6  1  6
  7  9  1  0
  8  7  1  0
  9 10  1  6
  9 11  1  0
 10  4  1  0
 11 13  1  0
 12 11  2  0
 13 14  1  0
 13 17  1  0
 14 15  1  0
 15 16  1  0
 17 16  1  0
 18 20  1  0
 17 18  1  6
 19 18  2  0
M  END
$$$$
