AVP.pdb
     RDKit          3D

 20 20  0  0  1  0  0  0  0  0999 V2000
   11.6547  -18.1432   22.7201 C   0  0  0  0  0  0  0  0  0  0  0  0
   11.2006  -17.2577   21.5758 C   0  0  2  0  0  0  0  0  0  0  0  0
   12.3874  -16.9188   20.8127 N   0  0  0  0  0  0  0  0  0  0  0  0
   10.5969  -15.9970   22.0667 C   0  0  0  0  0  0  0  0  0  0  0  0
   11.3093  -14.9585   22.2889 O   0  0  0  0  0  0  0  0  0  0  0  0
    7.9360  -13.5610   20.7471 C   0  0  0  0  0  0  0  0  0  0  0  0
    7.4824  -14.1625   22.0604 C   0  0  1  0  0  0  0  0  0  0  0  0
    6.5168  -15.2744   21.8115 C   0  0  0  0  0  0  0  0  0  0  0  0
    8.6789  -14.6048   22.8915 C   0  0  2  0  0  0  0  0  0  0  0  0
    9.2088  -15.8483   22.3230 N   0  0  0  0  0  0  0  0  0  0  0  0
    8.2202  -14.8803   24.2726 C   0  0  0  0  0  0  0  0  0  0  0  0
    8.1410  -16.1151   24.5881 O   0  0  0  0  0  0  0  0  0  0  0  0
    7.8831  -13.8710   25.2159 N   0  0  0  0  0  0  0  0  0  0  0  0
    7.8834  -12.4407   25.1264 C   0  0  0  0  0  0  0  0  0  0  0  0
    6.6122  -12.0775   25.9154 C   0  0  0  0  0  0  0  0  0  0  0  0
    6.9298  -12.8948   27.1848 C   0  0  0  0  0  0  0  0  0  0  0  0
    7.4296  -14.2084   26.5704 C   0  0  1  0  0  0  0  0  0  0  0  0
    6.3341  -15.1981   26.5673 C   0  0  0  0  0  0  0  0  0  0  0  0
    5.6478  -15.3596   25.5349 O   0  0  0  0  0  0  0  0  0  0  0  0
    6.0572  -15.9471   27.6831 O   0  0  0  0  0  0  0  0  0  0  0  0
  2  1  1  1
  2  3  1  0
  4  2  1  0
  4  5  2  0
  7  6  1  6
  7  9  1  0
  8  7  1  0
  9 10  1  6
  9 11  1  0
 10  4  1  0
 11 13  1  0
 12 11  2  0
 13 14  1  0
 13 17  1  0
 14 15  1  0
 15 16  1  0
 17 16  1  0
 18 20  1  0
 17 18  1  6
 19 18  2  0
M  END
$$$$
