AVP.pdb
     RDKit          3D

 20 20  0  0  1  0  0  0  0  0999 V2000
    9.2476  -12.1483   19.6535 C   0  0  0  0  0  0  0  0  0  0  0  0
    8.8141  -13.6014   19.6412 C   0  0  2  0  0  0  0  0  0  0  0  0
    8.0407  -13.7969   18.4290 N   0  0  0  0  0  0  0  0  0  0  0  0
    7.9434  -13.9218   20.7961 C   0  0  0  0  0  0  0  0  0  0  0  0
    6.6811  -13.7206   20.7559 O   0  0  0  0  0  0  0  0  0  0  0  0
    6.4755  -16.6815   21.9451 C   0  0  0  0  0  0  0  0  0  0  0  0
    7.2568  -16.2468   23.1669 C   0  0  1  0  0  0  0  0  0  0  0  0
    8.5098  -17.0501   23.2899 C   0  0  0  0  0  0  0  0  0  0  0  0
    7.5263  -14.7488   23.1284 C   0  0  2  0  0  0  0  0  0  0  0  0
    8.4339  -14.4659   22.0119 N   0  0  0  0  0  0  0  0  0  0  0  0
    8.1986  -14.3561   24.3884 C   0  0  0  0  0  0  0  0  0  0  0  0
    9.3361  -14.8981   24.5950 O   0  0  0  0  0  0  0  0  0  0  0  0
    7.6530  -13.4409   25.3301 N   0  0  0  0  0  0  0  0  0  0  0  0
    6.4616  -12.6448   25.3095 C   0  0  0  0  0  0  0  0  0  0  0  0
    5.9908  -12.7481   26.7716 C   0  0  0  0  0  0  0  0  0  0  0  0
    7.3242  -12.3462   27.4353 C   0  0  0  0  0  0  0  0  0  0  0  0
    8.3226  -13.1644   26.6067 C   0  0  1  0  0  0  0  0  0  0  0  0
    8.6736  -14.3983   27.3374 C   0  0  0  0  0  0  0  0  0  0  0  0
    8.1090  -15.4743   27.0435 O   0  0  0  0  0  0  0  0  0  0  0  0
    9.6139  -14.3829   28.3364 O   0  0  0  0  0  0  0  0  0  0  0  0
  2  1  1  1
  2  3  1  0
  4  2  1  0
  4  5  2  0
  7  6  1  6
  7  9  1  0
  8  7  1  0
  9 10  1  6
  9 11  1  0
 10  4  1  0
 11 13  1  0
 12 11  2  0
 13 14  1  0
 13 17  1  0
 14 15  1  0
 15 16  1  0
 17 16  1  0
 18 20  1  0
 17 18  1  1
 19 18  2  0
M  END
$$$$
