AVP.pdb
     RDKit          3D

 20 20  0  0  1  0  0  0  0  0999 V2000
   11.7688  -18.3172   23.1691 C   0  0  0  0  0  0  0  0  0  0  0  0
   11.3646  -17.4669   21.9803 C   0  0  2  0  0  0  0  0  0  0  0  0
   12.5889  -17.0995   21.2932 N   0  0  0  0  0  0  0  0  0  0  0  0
   10.6869  -16.2200   22.4054 C   0  0  0  0  0  0  0  0  0  0  0  0
   11.3517  -15.1942   22.7812 O   0  0  0  0  0  0  0  0  0  0  0  0
    6.6582  -13.3641   22.5955 C   0  0  0  0  0  0  0  0  0  0  0  0
    7.4524  -14.5203   22.0255 C   0  0  1  0  0  0  0  0  0  0  0  0
    7.8327  -14.2356   20.6096 C   0  0  0  0  0  0  0  0  0  0  0  0
    8.6584  -14.8286   22.9022 C   0  0  2  0  0  0  0  0  0  0  0  0
    9.2755  -16.0714   22.4277 N   0  0  0  0  0  0  0  0  0  0  0  0
    8.1920  -15.0393   24.2921 C   0  0  0  0  0  0  0  0  0  0  0  0
    7.8453  -16.2342   24.5790 O   0  0  0  0  0  0  0  0  0  0  0  0
    8.1211  -14.0117   25.2724 N   0  0  0  0  0  0  0  0  0  0  0  0
    8.4213  -12.6117   25.2131 C   0  0  0  0  0  0  0  0  0  0  0  0
    7.2942  -12.0131   26.0743 C   0  0  0  0  0  0  0  0  0  0  0  0
    7.4891  -12.9185   27.3081 C   0  0  0  0  0  0  0  0  0  0  0  0
    7.6692  -14.2881   26.6413 C   0  0  1  0  0  0  0  0  0  0  0  0
    6.3894  -15.0234   26.6742 C   0  0  0  0  0  0  0  0  0  0  0  0
    5.5899  -14.9188   25.7188 O   0  0  0  0  0  0  0  0  0  0  0  0
    6.0631  -15.8236   27.7399 O   0  0  0  0  0  0  0  0  0  0  0  0
  2  1  1  1
  2  3  1  0
  4  2  1  0
  4  5  2  0
  7  6  1  1
  7  9  1  0
  8  7  1  0
  9 10  1  6
  9 11  1  0
 10  4  1  0
 11 13  1  0
 12 11  2  0
 13 14  1  0
 13 17  1  0
 14 15  1  0
 15 16  1  0
 17 16  1  0
 18 20  1  0
 17 18  1  6
 19 18  2  0
M  END
$$$$
