AVP.pdb
     RDKit          3D

 20 20  0  0  1  0  0  0  0  0999 V2000
   11.8583  -18.3091   23.1912 C   0  0  0  0  0  0  0  0  0  0  0  0
   11.4647  -17.4550   22.0016 C   0  0  2  0  0  0  0  0  0  0  0  0
   12.6965  -17.0618   21.3430 N   0  0  0  0  0  0  0  0  0  0  0  0
   10.7582  -16.2230   22.4233 C   0  0  0  0  0  0  0  0  0  0  0  0
   11.3989  -15.1699   22.7638 O   0  0  0  0  0  0  0  0  0  0  0  0
    6.6774  -13.4580   22.4783 C   0  0  0  0  0  0  0  0  0  0  0  0
    7.5226  -14.6018   21.9590 C   0  0  1  0  0  0  0  0  0  0  0  0
    7.9543  -14.3277   20.5558 C   0  0  0  0  0  0  0  0  0  0  0  0
    8.6984  -14.8675   22.8892 C   0  0  2  0  0  0  0  0  0  0  0  0
    9.3437  -16.1192   22.4807 N   0  0  0  0  0  0  0  0  0  0  0  0
    8.1830  -15.0353   24.2676 C   0  0  0  0  0  0  0  0  0  0  0  0
    7.7964  -16.2143   24.5688 O   0  0  0  0  0  0  0  0  0  0  0  0
    8.1082  -13.9847   25.2230 N   0  0  0  0  0  0  0  0  0  0  0  0
    8.3984  -12.5844   25.1286 C   0  0  0  0  0  0  0  0  0  0  0  0
    7.2701  -11.9730   25.9790 C   0  0  0  0  0  0  0  0  0  0  0  0
    7.4754  -12.8468   27.2337 C   0  0  0  0  0  0  0  0  0  0  0  0
    7.6629  -14.2309   26.5997 C   0  0  1  0  0  0  0  0  0  0  0  0
    6.3884  -14.9740   26.6550 C   0  0  0  0  0  0  0  0  0  0  0  0
    5.5980  -14.9215   25.6877 O   0  0  0  0  0  0  0  0  0  0  0  0
    6.0571  -15.7250   27.7544 O   0  0  0  0  0  0  0  0  0  0  0  0
  2  1  1  1
  2  3  1  0
  4  2  1  0
  4  5  2  0
  7  6  1  1
  7  9  1  0
  8  7  1  0
  9 10  1  6
  9 11  1  0
 10  4  1  0
 11 13  1  0
 12 11  2  0
 13 14  1  0
 13 17  1  0
 14 15  1  0
 15 16  1  0
 17 16  1  0
 18 20  1  0
 17 18  1  6
 19 18  2  0
M  END
$$$$
