QIR.pdb
     RDKit          3D

 29 28  0  0  1  0  0  0  0  0999 V2000
   20.0686  -26.5362   -2.8805 N   0  0  0  0  0  0  0  0  0  0  0  0
   19.2660  -27.1888   -3.8365 C   0  0  0  0  0  0  0  0  0  0  0  0
   19.8343  -27.6028   -4.8962 O   0  0  0  0  0  0  0  0  0  0  0  0
   17.7894  -27.4011   -3.6363 C   0  0  0  0  0  0  0  0  0  0  0  0
   17.4085  -26.9726   -2.2518 C   0  0  0  0  0  0  0  0  0  0  0  0
   17.5995  -28.0004   -1.1904 C   0  0  2  0  0  0  0  0  0  0  0  0
   16.5097  -28.9746   -1.3608 N   0  0  0  0  0  0  0  0  0  0  0  0
   17.4427  -27.4218    0.1588 C   0  0  0  0  0  0  0  0  0  0  0  0
   16.2888  -27.2835    0.6245 O   0  0  0  0  0  0  0  0  0  0  0  0
   20.8285  -28.4354    4.3048 C   0  0  0  0  0  0  0  0  0  0  0  0
   19.6130  -28.2296    3.4243 C   0  0  0  0  0  0  0  0  0  0  0  0
   19.4495  -26.7425    3.2296 C   0  0  2  0  0  0  0  0  0  0  0  0
   19.1300  -26.0917    4.5604 C   0  0  0  0  0  0  0  0  0  0  0  0
   18.3463  -26.3973    2.2721 C   0  0  2  0  0  0  0  0  0  0  0  0
   18.5309  -27.0074    0.9710 N   0  0  0  0  0  0  0  0  0  0  0  0
   18.1262  -24.9417    2.1481 C   0  0  0  0  0  0  0  0  0  0  0  0
   19.0233  -24.2454    1.6074 O   0  0  0  0  0  0  0  0  0  0  0  0
   12.6959  -23.3351   -0.7218 N   0  0  0  0  0  0  0  0  0  0  0  0
   12.0786  -22.6173    0.3454 C   0  0  0  0  0  0  0  0  0  0  0  0
   10.9334  -22.9869    0.7473 N   0  0  0  0  0  0  0  0  0  0  0  0
   12.7117  -21.5041    0.9665 N   0  0  0  0  0  0  0  0  0  0  0  0
   13.9584  -21.0288    0.4404 C   0  0  0  0  0  0  0  0  0  0  0  0
   15.1240  -21.2485    1.3367 C   0  0  0  0  0  0  0  0  0  0  0  0
   15.6073  -22.6372    1.5024 C   0  0  0  0  0  0  0  0  0  0  0  0
   16.7300  -22.8629    2.4460 C   0  0  2  0  0  0  0  0  0  0  0  0
   16.9674  -24.3038    2.6040 N   0  0  0  0  0  0  0  0  0  0  0  0
   16.7056  -22.1340    3.7067 C   0  0  0  0  0  0  0  0  0  0  0  0
   16.3634  -22.6964    4.8000 O   0  0  0  0  0  0  0  0  0  0  0  0
   17.0536  -20.7956    3.7871 O   0  0  0  0  0  0  0  0  0  0  0  0
  2  1  1  0
  2  3  2  0
  4  2  1  0
  5  4  1  0
  5  6  1  0
  6  7  1  6
  8  6  1  0
  8  9  2  0
 11 10  1  0
 12 11  1  0
 12 14  1  0
 12 13  1  1
 14 15  1  6
 15  8  1  0
 16 26  1  0
 16 14  1  0
 17 16  2  0
 18 19  1  0
 19 21  1  0
 20 19  2  0
 21 22  1  0
 22 23  1  0
 23 24  1  0
 25 24  1  1
 25 26  1  0
 25 27  1  0
 27 29  1  0
 28 27  2  0
M  END
$$$$
