QIR.pdb
     RDKit          3D

 29 28  0  0  1  0  0  0  0  0999 V2000
   23.1471  -25.5490  -18.7160 N   0  0  0  0  0  0  0  0  0  0  0  0
   23.8361  -26.5479  -18.0009 C   0  0  0  0  0  0  0  0  0  0  0  0
   23.2057  -27.6196  -17.7339 O   0  0  0  0  0  0  0  0  0  0  0  0
   25.2645  -26.3788  -17.5574 C   0  0  0  0  0  0  0  0  0  0  0  0
   25.7802  -25.0554  -18.0352 C   0  0  0  0  0  0  0  0  0  0  0  0
   26.9158  -24.4928  -17.2522 C   0  0  2  0  0  0  0  0  0  0  0  0
   27.4849  -25.6150  -16.4890 N   0  0  0  0  0  0  0  0  0  0  0  0
   26.4527  -23.4998  -16.2627 C   0  0  0  0  0  0  0  0  0  0  0  0
   26.2238  -23.8782  -15.0914 O   0  0  0  0  0  0  0  0  0  0  0  0
   28.4946  -18.5185  -16.1854 C   0  0  0  0  0  0  0  0  0  0  0  0
   27.9903  -19.8844  -15.7670 C   0  0  0  0  0  0  0  0  0  0  0  0
   26.4830  -19.8203  -15.7586 C   0  0  2  0  0  0  0  0  0  0  0  0
   26.0231  -18.9124  -14.6356 C   0  0  0  0  0  0  0  0  0  0  0  0
   25.8431  -21.1629  -15.5559 C   0  0  2  0  0  0  0  0  0  0  0  0
   26.2478  -22.1266  -16.5592 N   0  0  0  0  0  0  0  0  0  0  0  0
   24.3710  -21.0897  -15.4552 C   0  0  0  0  0  0  0  0  0  0  0  0
   23.7391  -20.4883  -16.3614 O   0  0  0  0  0  0  0  0  0  0  0  0
   16.9365  -24.7909  -12.3198 N   0  0  0  0  0  0  0  0  0  0  0  0
   18.1440  -25.1219  -13.0037 C   0  0  0  0  0  0  0  0  0  0  0  0
   18.2870  -26.2993  -13.4543 N   0  0  0  0  0  0  0  0  0  0  0  0
   19.1854  -24.1702  -13.1919 N   0  0  0  0  0  0  0  0  0  0  0  0
   19.9906  -23.7873  -12.0685 C   0  0  0  0  0  0  0  0  0  0  0  0
   21.0484  -22.7918  -12.3851 C   0  0  0  0  0  0  0  0  0  0  0  0
   21.6440  -22.8338  -13.7390 C   0  0  0  0  0  0  0  0  0  0  0  0
   22.1876  -21.5665  -14.2869 C   0  0  2  0  0  0  0  0  0  0  0  0
   23.6492  -21.6577  -14.3997 N   0  0  0  0  0  0  0  0  0  0  0  0
   21.7252  -20.3220  -13.6881 C   0  0  0  0  0  0  0  0  0  0  0  0
   22.4854  -19.6091  -12.9516 O   0  0  0  0  0  0  0  0  0  0  0  0
   20.4398  -19.8454  -13.8870 O   0  0  0  0  0  0  0  0  0  0  0  0
  2  1  1  0
  2  3  2  0
  4  2  1  0
  5  4  1  0
  5  6  1  0
  6  7  1  1
  8  6  1  0
  8  9  2  0
 11 10  1  0
 12 11  1  0
 12 14  1  0
 12 13  1  1
 14 15  1  6
 15  8  1  0
 16 26  1  0
 16 14  1  0
 17 16  2  0
 18 19  1  0
 19 21  1  0
 20 19  2  0
 21 22  1  0
 22 23  1  0
 23 24  1  0
 25 24  1  1
 25 26  1  0
 25 27  1  0
 27 29  1  0
 28 27  2  0
M  END
$$$$
