QIR.pdb
     RDKit          3D

 29 28  0  0  1  0  0  0  0  0999 V2000
   28.3874  -17.4216  -15.6989 N   0  0  0  0  0  0  0  0  0  0  0  0
   28.5259  -18.2845  -16.8035 C   0  0  0  0  0  0  0  0  0  0  0  0
   29.4057  -17.9887  -17.6730 O   0  0  0  0  0  0  0  0  0  0  0  0
   27.6778  -19.5163  -16.9728 C   0  0  0  0  0  0  0  0  0  0  0  0
   26.7259  -19.6269  -15.8208 C   0  0  0  0  0  0  0  0  0  0  0  0
   27.1377  -20.5665  -14.7406 C   0  0  2  0  0  0  0  0  0  0  0  0
   27.7068  -21.7442  -15.4152 N   0  0  0  0  0  0  0  0  0  0  0  0
   25.9755  -21.0437  -13.9651 C   0  0  0  0  0  0  0  0  0  0  0  0
   25.4727  -22.1532  -14.2545 O   0  0  0  0  0  0  0  0  0  0  0  0
   26.0695  -20.4353   -8.7633 C   0  0  0  0  0  0  0  0  0  0  0  0
   25.8660  -21.0431  -10.1360 C   0  0  0  0  0  0  0  0  0  0  0  0
   24.5106  -20.5968  -10.6253 C   0  0  2  0  0  0  0  0  0  0  0  0
   23.4303  -21.3461   -9.8714 C   0  0  0  0  0  0  0  0  0  0  0  0
   24.3075  -20.8487  -12.0911 C   0  0  2  0  0  0  0  0  0  0  0  0
   25.3851  -20.3150  -12.8993 N   0  0  0  0  0  0  0  0  0  0  0  0
   22.9954  -20.3774  -12.5798 C   0  0  0  0  0  0  0  0  0  0  0  0
   22.6255  -19.2150  -12.2728 O   0  0  0  0  0  0  0  0  0  0  0  0
   18.8791  -24.5622   -8.6341 N   0  0  0  0  0  0  0  0  0  0  0  0
   17.6361  -24.1907   -9.2278 C   0  0  0  0  0  0  0  0  0  0  0  0
   16.6358  -23.9894   -8.4738 N   0  0  0  0  0  0  0  0  0  0  0  0
   17.4916  -24.0412  -10.6358 N   0  0  0  0  0  0  0  0  0  0  0  0
   18.6671  -23.9997  -11.4563 C   0  0  0  0  0  0  0  0  0  0  0  0
   19.5199  -22.8008  -11.2429 C   0  0  0  0  0  0  0  0  0  0  0  0
   20.7091  -22.6443  -12.1095 C   0  0  0  0  0  0  0  0  0  0  0  0
   20.7557  -21.4578  -12.9994 C   0  0  2  0  0  0  0  0  0  0  0  0
   22.1471  -21.1638  -13.3670 N   0  0  0  0  0  0  0  0  0  0  0  0
   19.9989  -20.2818  -12.5924 C   0  0  0  0  0  0  0  0  0  0  0  0
   20.0791  -19.8089  -11.4099 O   0  0  0  0  0  0  0  0  0  0  0  0
   19.1555  -19.6140  -13.4652 O   0  0  0  0  0  0  0  0  0  0  0  0
  2  1  1  0
  2  3  2  0
  4  2  1  0
  5  4  1  0
  5  6  1  0
  6  7  1  6
  8  6  1  0
  8  9  2  0
 11 10  1  0
 12 11  1  0
 12 14  1  0
 12 13  1  1
 14 15  1  6
 15  8  1  0
 16 26  1  0
 16 14  1  0
 17 16  2  0
 18 19  1  0
 19 21  1  0
 20 19  2  0
 21 22  1  0
 22 23  1  0
 23 24  1  0
 25 24  1  1
 25 26  1  0
 25 27  1  0
 27 29  1  0
 28 27  2  0
M  END
$$$$
