QIR.pdb
     RDKit          3D

 29 28  0  0  1  0  0  0  0  0999 V2000
   28.7689  -21.8436  -15.6729 N   0  0  0  0  0  0  0  0  0  0  0  0
   28.1609  -23.0328  -16.1201 C   0  0  0  0  0  0  0  0  0  0  0  0
   28.9000  -23.8859  -16.7059 O   0  0  0  0  0  0  0  0  0  0  0  0
   26.6941  -23.3084  -15.9250 C   0  0  0  0  0  0  0  0  0  0  0  0
   26.1000  -22.2450  -15.0523 C   0  0  0  0  0  0  0  0  0  0  0  0
   25.5069  -21.0846  -15.7741 C   0  0  2  0  0  0  0  0  0  0  0  0
   26.5947  -20.1087  -15.9474 N   0  0  0  0  0  0  0  0  0  0  0  0
   24.4656  -20.4187  -14.9667 C   0  0  0  0  0  0  0  0  0  0  0  0
   24.7670  -19.3833  -14.3306 O   0  0  0  0  0  0  0  0  0  0  0  0
   21.0265  -16.5062  -15.3710 C   0  0  0  0  0  0  0  0  0  0  0  0
   20.9132  -17.8109  -14.6094 C   0  0  0  0  0  0  0  0  0  0  0  0
   21.9872  -18.7301  -15.1365 C   0  0  2  0  0  0  0  0  0  0  0  0
   21.7276  -19.0215  -16.6009 C   0  0  0  0  0  0  0  0  0  0  0  0
   22.0409  -20.0419  -14.4090 C   0  0  2  0  0  0  0  0  0  0  0  0
   23.1282  -20.8840  -14.8648 N   0  0  0  0  0  0  0  0  0  0  0  0
   20.7565  -20.7713  -14.4416 C   0  0  0  0  0  0  0  0  0  0  0  0
   20.4201  -21.3417  -15.5109 O   0  0  0  0  0  0  0  0  0  0  0  0
   16.8733  -24.7546   -7.8213 N   0  0  0  0  0  0  0  0  0  0  0  0
   18.0894  -24.2013   -8.3216 C   0  0  0  0  0  0  0  0  0  0  0  0
   19.1149  -24.2066   -7.5746 N   0  0  0  0  0  0  0  0  0  0  0  0
   18.1801  -23.6472   -9.6294 N   0  0  0  0  0  0  0  0  0  0  0  0
   17.0586  -23.7655  -10.5155 C   0  0  0  0  0  0  0  0  0  0  0  0
   17.2543  -23.1187  -11.8397 C   0  0  0  0  0  0  0  0  0  0  0  0
   18.4749  -22.3039  -12.0291 C   0  0  0  0  0  0  0  0  0  0  0  0
   18.6601  -21.6448  -13.3456 C   0  0  2  0  0  0  0  0  0  0  0  0
   19.8991  -20.8561  -13.3392 N   0  0  0  0  0  0  0  0  0  0  0  0
   17.5196  -20.9350  -13.9085 C   0  0  0  0  0  0  0  0  0  0  0  0
   17.4001  -19.6687  -13.8049 O   0  0  0  0  0  0  0  0  0  0  0  0
   16.5073  -21.5941  -14.5866 O   0  0  0  0  0  0  0  0  0  0  0  0
  2  1  1  0
  2  3  2  0
  4  2  1  0
  5  4  1  0
  5  6  1  0
  6  7  1  1
  8  6  1  0
  8  9  2  0
 11 10  1  0
 12 11  1  0
 12 14  1  0
 12 13  1  6
 14 15  1  6
 15  8  1  0
 16 26  1  0
 16 14  1  0
 17 16  2  0
 18 19  1  0
 19 21  1  0
 20 19  2  0
 21 22  1  0
 22 23  1  0
 23 24  1  0
 25 24  1  1
 25 26  1  0
 25 27  1  0
 27 29  1  0
 28 27  2  0
M  END
$$$$
