QIR.pdb
     RDKit          3D

 29 28  0  0  1  0  0  0  0  0999 V2000
   27.0683  -27.2140  -15.5900 N   0  0  0  0  0  0  0  0  0  0  0  0
   27.1707  -26.8087  -16.9351 C   0  0  0  0  0  0  0  0  0  0  0  0
   27.7014  -27.6232  -17.7550 O   0  0  0  0  0  0  0  0  0  0  0  0
   26.6789  -25.4679  -17.4103 C   0  0  0  0  0  0  0  0  0  0  0  0
   26.0222  -24.7471  -16.2725 C   0  0  0  0  0  0  0  0  0  0  0  0
   25.7387  -23.3040  -16.5098 C   0  0  2  0  0  0  0  0  0  0  0  0
   27.0253  -22.6037  -16.3679 N   0  0  0  0  0  0  0  0  0  0  0  0
   24.8400  -22.7512  -15.4772 C   0  0  0  0  0  0  0  0  0  0  0  0
   25.2709  -22.6250  -14.3085 O   0  0  0  0  0  0  0  0  0  0  0  0
   22.9672  -18.0542  -15.4010 C   0  0  0  0  0  0  0  0  0  0  0  0
   23.4834  -19.4492  -15.1135 C   0  0  0  0  0  0  0  0  0  0  0  0
   22.2818  -20.3533  -14.9916 C   0  0  2  0  0  0  0  0  0  0  0  0
   21.3964  -19.8659  -13.8622 C   0  0  0  0  0  0  0  0  0  0  0  0
   22.6516  -21.7793  -14.7035 C   0  0  2  0  0  0  0  0  0  0  0  0
   23.5019  -22.3491  -15.7289 N   0  0  0  0  0  0  0  0  0  0  0  0
   21.4768  -22.6390  -14.4515 C   0  0  0  0  0  0  0  0  0  0  0  0
   20.5857  -22.7079  -15.3366 O   0  0  0  0  0  0  0  0  0  0  0  0
   17.3233  -26.1910   -9.2871 N   0  0  0  0  0  0  0  0  0  0  0  0
   17.4020  -27.5463   -9.7255 C   0  0  0  0  0  0  0  0  0  0  0  0
   16.3780  -28.2861   -9.6080 N   0  0  0  0  0  0  0  0  0  0  0  0
   18.5932  -28.0856  -10.2877 N   0  0  0  0  0  0  0  0  0  0  0  0
   19.6839  -27.2036  -10.5864 C   0  0  0  0  0  0  0  0  0  0  0  0
   19.3439  -26.1096  -11.5339 C   0  0  0  0  0  0  0  0  0  0  0  0
   20.4420  -25.2219  -11.9762 C   0  0  0  0  0  0  0  0  0  0  0  0
   20.1249  -24.2026  -13.0069 C   0  0  2  0  0  0  0  0  0  0  0  0
   21.3107  -23.3784  -13.2753 N   0  0  0  0  0  0  0  0  0  0  0  0
   18.9035  -23.4285  -12.8335 C   0  0  0  0  0  0  0  0  0  0  0  0
   18.8807  -22.3582  -12.1389 O   0  0  0  0  0  0  0  0  0  0  0  0
   17.7047  -23.8100  -13.4134 O   0  0  0  0  0  0  0  0  0  0  0  0
  2  1  1  0
  2  3  2  0
  4  2  1  0
  5  4  1  0
  5  6  1  0
  6  7  1  1
  8  6  1  0
  8  9  2  0
 11 10  1  0
 12 11  1  0
 12 14  1  0
 12 13  1  1
 14 15  1  6
 15  8  1  0
 16 26  1  0
 16 14  1  0
 17 16  2  0
 18 19  1  0
 19 21  1  0
 20 19  2  0
 21 22  1  0
 22 23  1  0
 23 24  1  0
 25 24  1  1
 25 26  1  0
 25 27  1  0
 27 29  1  0
 28 27  2  0
M  END
$$$$
