QIR.pdb
     RDKit          3D

 29 28  0  0  1  0  0  0  0  0999 V2000
   28.3430  -17.3633  -14.7568 N   0  0  0  0  0  0  0  0  0  0  0  0
   28.8488  -17.7544  -16.0119 C   0  0  0  0  0  0  0  0  0  0  0  0
   29.8418  -17.1071  -16.4724 O   0  0  0  0  0  0  0  0  0  0  0  0
   28.2550  -18.8917  -16.7990 C   0  0  0  0  0  0  0  0  0  0  0  0
   27.2043  -19.5718  -15.9748 C   0  0  0  0  0  0  0  0  0  0  0  0
   27.7150  -20.5238  -14.9491 C   0  0  2  0  0  0  0  0  0  0  0  0
   28.1885  -21.7066  -15.6857 N   0  0  0  0  0  0  0  0  0  0  0  0
   26.6357  -20.9867  -14.0543 C   0  0  0  0  0  0  0  0  0  0  0  0
   25.8858  -21.9108  -14.4431 O   0  0  0  0  0  0  0  0  0  0  0  0
   27.1695  -20.7681   -8.6266 C   0  0  0  0  0  0  0  0  0  0  0  0
   26.8397  -21.3398   -9.9903 C   0  0  0  0  0  0  0  0  0  0  0  0
   25.5759  -20.6651  -10.4632 C   0  0  2  0  0  0  0  0  0  0  0  0
   24.3944  -21.2018   -9.6804 C   0  0  0  0  0  0  0  0  0  0  0  0
   25.3035  -20.8935  -11.9216 C   0  0  2  0  0  0  0  0  0  0  0  0
   26.3917  -20.4434  -12.7656 N   0  0  0  0  0  0  0  0  0  0  0  0
   24.0169  -20.3173  -12.3639 C   0  0  0  0  0  0  0  0  0  0  0  0
   23.9570  -19.0784  -12.5723 O   0  0  0  0  0  0  0  0  0  0  0  0
   20.7502  -15.7238  -16.9303 N   0  0  0  0  0  0  0  0  0  0  0  0
   19.5946  -16.5319  -16.7136 C   0  0  0  0  0  0  0  0  0  0  0  0
   18.4491  -16.0252  -16.9153 N   0  0  0  0  0  0  0  0  0  0  0  0
   19.6944  -17.8837  -16.2795 N   0  0  0  0  0  0  0  0  0  0  0  0
   20.9768  -18.3999  -15.8976 C   0  0  0  0  0  0  0  0  0  0  0  0
   20.9898  -19.8600  -15.6183 C   0  0  0  0  0  0  0  0  0  0  0  0
   22.0485  -20.3756  -14.7222 C   0  0  0  0  0  0  0  0  0  0  0  0
   21.6919  -20.5983  -13.2991 C   0  0  2  0  0  0  0  0  0  0  0  0
   22.8644  -21.0858  -12.5610 N   0  0  0  0  0  0  0  0  0  0  0  0
   20.4742  -21.3472  -13.0204 C   0  0  0  0  0  0  0  0  0  0  0  0
   20.5054  -22.5805  -12.6938 O   0  0  0  0  0  0  0  0  0  0  0  0
   19.2206  -20.7623  -13.0923 O   0  0  0  0  0  0  0  0  0  0  0  0
  2  1  1  0
  2  3  2  0
  4  2  1  0
  5  4  1  0
  5  6  1  0
  6  7  1  6
  8  6  1  0
  8  9  2  0
 11 10  1  0
 12 11  1  0
 12 14  1  0
 12 13  1  1
 14 15  1  6
 15  8  1  0
 16 26  1  0
 16 14  1  0
 17 16  2  0
 18 19  1  0
 19 21  1  0
 20 19  2  0
 21 22  1  0
 22 23  1  0
 23 24  1  0
 25 24  1  6
 25 26  1  0
 25 27  1  0
 27 29  1  0
 28 27  2  0
M  END
$$$$
