QIR.pdb
     RDKit          3D

 29 28  0  0  1  0  0  0  0  0999 V2000
   25.9988  -19.4923  -18.4979 N   0  0  0  0  0  0  0  0  0  0  0  0
   26.9339  -18.4404  -18.5513 C   0  0  0  0  0  0  0  0  0  0  0  0
   26.8866  -17.6632  -19.5569 O   0  0  0  0  0  0  0  0  0  0  0  0
   27.9609  -18.2221  -17.4728 C   0  0  0  0  0  0  0  0  0  0  0  0
   27.7389  -19.2092  -16.3675 C   0  0  0  0  0  0  0  0  0  0  0  0
   28.9485  -19.9614  -15.9312 C   0  0  2  0  0  0  0  0  0  0  0  0
   29.1856  -20.9894  -16.9573 N   0  0  0  0  0  0  0  0  0  0  0  0
   28.7130  -20.6772  -14.6616 C   0  0  0  0  0  0  0  0  0  0  0  0
   28.1236  -21.7814  -14.6931 O   0  0  0  0  0  0  0  0  0  0  0  0
   32.1236  -21.5950  -10.6809 C   0  0  0  0  0  0  0  0  0  0  0  0
   30.9757  -21.7692  -11.6541 C   0  0  0  0  0  0  0  0  0  0  0  0
   29.8389  -20.9080  -11.1620 C   0  0  2  0  0  0  0  0  0  0  0  0
   29.2828  -21.4917   -9.8787 C   0  0  0  0  0  0  0  0  0  0  0  0
   28.7120  -20.8098  -12.1488 C   0  0  2  0  0  0  0  0  0  0  0  0
   29.1173  -20.1865  -13.3923 N   0  0  0  0  0  0  0  0  0  0  0  0
   27.5142  -20.1490  -11.5908 C   0  0  0  0  0  0  0  0  0  0  0  0
   27.2647  -18.9675  -11.9429 O   0  0  0  0  0  0  0  0  0  0  0  0
   20.7613  -22.7362  -13.4913 N   0  0  0  0  0  0  0  0  0  0  0  0
   20.2781  -21.3943  -13.5236 C   0  0  0  0  0  0  0  0  0  0  0  0
   19.0248  -21.1971  -13.5302 N   0  0  0  0  0  0  0  0  0  0  0  0
   21.1615  -20.2786  -13.5485 N   0  0  0  0  0  0  0  0  0  0  0  0
   22.5761  -20.5087  -13.4955 C   0  0  0  0  0  0  0  0  0  0  0  0
   23.1669  -20.3755  -12.1378 C   0  0  0  0  0  0  0  0  0  0  0  0
   24.6175  -20.6304  -11.9951 C   0  0  0  0  0  0  0  0  0  0  0  0
   25.2052  -20.4983  -10.6390 C   0  0  2  0  0  0  0  0  0  0  0  0
   26.6465  -20.7765  -10.6903 N   0  0  0  0  0  0  0  0  0  0  0  0
   24.5206  -21.1675   -9.5414 C   0  0  0  0  0  0  0  0  0  0  0  0
   24.8902  -22.3139   -9.1198 O   0  0  0  0  0  0  0  0  0  0  0  0
   23.4359  -20.5963   -8.8963 O   0  0  0  0  0  0  0  0  0  0  0  0
  2  1  1  0
  2  3  2  0
  4  2  1  0
  5  4  1  0
  5  6  1  0
  6  7  1  6
  8  6  1  0
  8  9  2  0
 11 10  1  0
 12 11  1  0
 12 14  1  0
 12 13  1  1
 14 15  1  6
 15  8  1  0
 16 26  1  0
 16 14  1  0
 17 16  2  0
 18 19  1  0
 19 21  1  0
 20 19  2  0
 21 22  1  0
 22 23  1  0
 23 24  1  0
 25 24  1  6
 25 26  1  0
 25 27  1  0
 27 29  1  0
 28 27  2  0
M  END
$$$$
