QIR.pdb
     RDKit          3D

 29 28  0  0  1  0  0  0  0  0999 V2000
   15.9726  -28.8300   -1.7603 N   0  0  0  0  0  0  0  0  0  0  0  0
   15.3878  -28.5806   -0.5034 C   0  0  0  0  0  0  0  0  0  0  0  0
   15.5931  -29.4316    0.4191 O   0  0  0  0  0  0  0  0  0  0  0  0
   14.5472  -27.3610   -0.2356 C   0  0  0  0  0  0  0  0  0  0  0  0
   14.4477  -26.5412   -1.4860 C   0  0  0  0  0  0  0  0  0  0  0  0
   15.5603  -25.5753   -1.7061 C   0  0  2  0  0  0  0  0  0  0  0  0
   15.2842  -24.4242   -0.8318 N   0  0  0  0  0  0  0  0  0  0  0  0
   15.5673  -25.0629   -3.0907 C   0  0  0  0  0  0  0  0  0  0  0  0
   15.0206  -23.9619   -3.3283 O   0  0  0  0  0  0  0  0  0  0  0  0
   19.3006  -24.5074   -7.7131 C   0  0  0  0  0  0  0  0  0  0  0  0
   17.8255  -24.5205   -7.3681 C   0  0  0  0  0  0  0  0  0  0  0  0
   17.6914  -25.1542   -6.0056 C   0  0  2  0  0  0  0  0  0  0  0  0
   18.1705  -26.5906   -6.0681 C   0  0  0  0  0  0  0  0  0  0  0  0
   16.2771  -25.1625   -5.5028 C   0  0  2  0  0  0  0  0  0  0  0  0
   16.1619  -25.7482   -4.1826 N   0  0  0  0  0  0  0  0  0  0  0  0
   15.3340  -25.7960   -6.4474 C   0  0  0  0  0  0  0  0  0  0  0  0
   15.1825  -27.0435   -6.3944 O   0  0  0  0  0  0  0  0  0  0  0  0
   12.3388  -21.6397  -12.4535 N   0  0  0  0  0  0  0  0  0  0  0  0
   12.4891  -22.8916  -13.1210 C   0  0  0  0  0  0  0  0  0  0  0  0
   12.9906  -22.9053  -14.2863 N   0  0  0  0  0  0  0  0  0  0  0  0
   12.0929  -24.1174  -12.5159 N   0  0  0  0  0  0  0  0  0  0  0  0
   11.5660  -24.0977  -11.1822 C   0  0  0  0  0  0  0  0  0  0  0  0
   12.1453  -25.1279  -10.2804 C   0  0  0  0  0  0  0  0  0  0  0  0
   13.0950  -24.6715   -9.2415 C   0  0  0  0  0  0  0  0  0  0  0  0
   13.7183  -25.7077   -8.3815 C   0  0  2  0  0  0  0  0  0  0  0  0
   14.6034  -25.0726   -7.3964 N   0  0  0  0  0  0  0  0  0  0  0  0
   14.3135  -26.8610   -9.0425 C   0  0  0  0  0  0  0  0  0  0  0  0
   15.4327  -26.7820   -9.6504 O   0  0  0  0  0  0  0  0  0  0  0  0
   13.6995  -28.1028   -9.0448 O   0  0  0  0  0  0  0  0  0  0  0  0
  2  1  1  0
  2  3  2  0
  4  2  1  0
  5  4  1  0
  5  6  1  0
  6  7  1  1
  8  6  1  0
  8  9  2  0
 11 10  1  0
 12 11  1  0
 12 14  1  0
 12 13  1  6
 14 15  1  1
 15  8  1  0
 16 26  1  0
 16 14  1  0
 17 16  2  0
 18 19  1  0
 19 21  1  0
 20 19  2  0
 21 22  1  0
 22 23  1  0
 23 24  1  0
 25 24  1  6
 25 26  1  0
 25 27  1  0
 27 29  1  0
 28 27  2  0
M  END
$$$$
