QIR.pdb
     RDKit          3D

 29 28  0  0  1  0  0  0  0  0999 V2000
   24.5296  -28.2094  -15.3167 N   0  0  0  0  0  0  0  0  0  0  0  0
   25.5047  -27.9496  -16.2994 C   0  0  0  0  0  0  0  0  0  0  0  0
   26.2270  -28.9238  -16.6820 O   0  0  0  0  0  0  0  0  0  0  0  0
   25.7052  -26.5800  -16.8906 C   0  0  0  0  0  0  0  0  0  0  0  0
   24.6627  -25.6481  -16.3517 C   0  0  0  0  0  0  0  0  0  0  0  0
   24.7420  -24.2459  -16.8483 C   0  0  2  0  0  0  0  0  0  0  0  0
   26.0146  -23.7034  -16.3461 N   0  0  0  0  0  0  0  0  0  0  0  0
   23.6697  -23.4071  -16.2772 C   0  0  0  0  0  0  0  0  0  0  0  0
   23.9028  -22.7623  -15.2295 O   0  0  0  0  0  0  0  0  0  0  0  0
   19.4280  -19.4603  -17.5942 C   0  0  0  0  0  0  0  0  0  0  0  0
   19.7235  -20.5776  -16.6146 C   0  0  0  0  0  0  0  0  0  0  0  0
   20.8723  -21.3751  -17.1806 C   0  0  2  0  0  0  0  0  0  0  0  0
   20.4447  -22.0208  -18.4833 C   0  0  0  0  0  0  0  0  0  0  0  0
   21.3368  -22.4643  -16.2580 C   0  0  2  0  0  0  0  0  0  0  0  0
   22.3755  -23.2843  -16.8477 N   0  0  0  0  0  0  0  0  0  0  0  0
   20.2289  -23.2984  -15.7484 C   0  0  0  0  0  0  0  0  0  0  0  0
   19.8385  -24.2669  -16.4496 O   0  0  0  0  0  0  0  0  0  0  0  0
   21.1424  -27.7285  -12.3510 N   0  0  0  0  0  0  0  0  0  0  0  0
   20.4181  -27.8916  -11.1327 C   0  0  0  0  0  0  0  0  0  0  0  0
   20.9858  -28.4732  -10.1585 N   0  0  0  0  0  0  0  0  0  0  0  0
   19.0831  -27.4209  -10.9841 N   0  0  0  0  0  0  0  0  0  0  0  0
   18.3538  -27.0147  -12.1503 C   0  0  0  0  0  0  0  0  0  0  0  0
   17.9984  -25.5714  -12.1774 C   0  0  0  0  0  0  0  0  0  0  0  0
   18.9600  -24.6419  -12.8106 C   0  0  0  0  0  0  0  0  0  0  0  0
   18.5032  -23.8969  -14.0097 C   0  0  2  0  0  0  0  0  0  0  0  0
   19.5955  -23.0602  -14.5238 N   0  0  0  0  0  0  0  0  0  0  0  0
   17.2266  -23.2011  -13.9231 C   0  0  0  0  0  0  0  0  0  0  0  0
   17.1614  -21.9379  -13.7536 O   0  0  0  0  0  0  0  0  0  0  0  0
   16.0179  -23.8708  -14.0219 O   0  0  0  0  0  0  0  0  0  0  0  0
  2  1  1  0
  2  3  2  0
  4  2  1  0
  5  4  1  0
  5  6  1  0
  6  7  1  1
  8  6  1  0
  8  9  2  0
 11 10  1  0
 12 11  1  0
 12 14  1  0
 12 13  1  6
 14 15  1  6
 15  8  1  0
 16 26  1  0
 16 14  1  0
 17 16  2  0
 18 19  1  0
 19 21  1  0
 20 19  2  0
 21 22  1  0
 22 23  1  0
 23 24  1  0
 25 24  1  1
 25 26  1  0
 25 27  1  0
 27 29  1  0
 28 27  2  0
M  END
$$$$
