QIR.pdb
     RDKit          3D

 29 28  0  0  1  0  0  0  0  0999 V2000
   28.1755  -21.6272  -14.3616 N   0  0  0  0  0  0  0  0  0  0  0  0
   27.9538  -22.5618  -15.3918 C   0  0  0  0  0  0  0  0  0  0  0  0
   28.9652  -23.1823  -15.8494 O   0  0  0  0  0  0  0  0  0  0  0  0
   26.5821  -22.8348  -15.9480 C   0  0  0  0  0  0  0  0  0  0  0  0
   25.5767  -21.9854  -15.2316 C   0  0  0  0  0  0  0  0  0  0  0  0
   24.9600  -20.9018  -16.0469 C   0  0  2  0  0  0  0  0  0  0  0  0
   26.0339  -19.9349  -16.3252 N   0  0  0  0  0  0  0  0  0  0  0  0
   23.9230  -20.1755  -15.2874 C   0  0  0  0  0  0  0  0  0  0  0  0
   24.2306  -19.6616  -14.1880 O   0  0  0  0  0  0  0  0  0  0  0  0
   22.4831  -16.8109  -17.4448 C   0  0  0  0  0  0  0  0  0  0  0  0
   22.3379  -17.0297  -15.9527 C   0  0  0  0  0  0  0  0  0  0  0  0
   21.1979  -17.9974  -15.7524 C   0  0  2  0  0  0  0  0  0  0  0  0
   20.0952  -17.3211  -14.9628 C   0  0  0  0  0  0  0  0  0  0  0  0
   21.6066  -19.2337  -15.0057 C   0  0  2  0  0  0  0  0  0  0  0  0
   22.5831  -20.0213  -15.7305 N   0  0  0  0  0  0  0  0  0  0  0  0
   20.4562  -20.0644  -14.5942 C   0  0  0  0  0  0  0  0  0  0  0  0
   19.7762  -20.6291  -15.4891 O   0  0  0  0  0  0  0  0  0  0  0  0
   19.3068  -25.2283   -9.8444 N   0  0  0  0  0  0  0  0  0  0  0  0
   18.4160  -24.5941   -8.9281 C   0  0  0  0  0  0  0  0  0  0  0  0
   18.4591  -24.9280   -7.7049 N   0  0  0  0  0  0  0  0  0  0  0  0
   17.4860  -23.6025   -9.3496 N   0  0  0  0  0  0  0  0  0  0  0  0
   17.5674  -23.0954  -10.6887 C   0  0  0  0  0  0  0  0  0  0  0  0
   17.5623  -21.6117  -10.7822 C   0  0  0  0  0  0  0  0  0  0  0  0
   18.7520  -20.9595  -11.3727 C   0  0  0  0  0  0  0  0  0  0  0  0
   18.8782  -20.9760  -12.8511 C   0  0  2  0  0  0  0  0  0  0  0  0
   20.0894  -20.2509  -13.2569 N   0  0  0  0  0  0  0  0  0  0  0  0
   17.6992  -20.6244  -13.6306 C   0  0  0  0  0  0  0  0  0  0  0  0
   17.2854  -19.4201  -13.7146 O   0  0  0  0  0  0  0  0  0  0  0  0
   16.9669  -21.5752  -14.3225 O   0  0  0  0  0  0  0  0  0  0  0  0
  2  1  1  0
  2  3  2  0
  4  2  1  0
  5  4  1  0
  5  6  1  0
  6  7  1  1
  8  6  1  0
  8  9  2  0
 11 10  1  0
 12 11  1  0
 12 14  1  0
 12 13  1  1
 14 15  1  6
 15  8  1  0
 16 26  1  0
 16 14  1  0
 17 16  2  0
 18 19  1  0
 19 21  1  0
 20 19  2  0
 21 22  1  0
 22 23  1  0
 23 24  1  0
 25 24  1  1
 25 26  1  0
 25 27  1  0
 27 29  1  0
 28 27  2  0
M  END
$$$$
