QIR.pdb
     RDKit          3D

 29 28  0  0  1  0  0  0  0  0999 V2000
   31.3214  -19.3570  -18.5760 N   0  0  0  0  0  0  0  0  0  0  0  0
   30.0389  -18.9697  -18.1409 C   0  0  0  0  0  0  0  0  0  0  0  0
   29.9384  -17.8643  -17.5202 O   0  0  0  0  0  0  0  0  0  0  0  0
   28.8174  -19.8136  -18.3880 C   0  0  0  0  0  0  0  0  0  0  0  0
   28.3623  -20.4205  -17.0957 C   0  0  0  0  0  0  0  0  0  0  0  0
   29.3519  -21.3092  -16.4247 C   0  0  2  0  0  0  0  0  0  0  0  0
   29.3609  -22.5661  -17.1902 N   0  0  0  0  0  0  0  0  0  0  0  0
   28.9289  -21.6526  -15.0525 C   0  0  0  0  0  0  0  0  0  0  0  0
   27.9466  -22.4132  -14.8975 O   0  0  0  0  0  0  0  0  0  0  0  0
   32.4269  -22.0234  -10.7484 C   0  0  0  0  0  0  0  0  0  0  0  0
   31.3481  -22.3429  -11.7629 C   0  0  0  0  0  0  0  0  0  0  0  0
   30.2122  -21.3789  -11.5251 C   0  0  2  0  0  0  0  0  0  0  0  0
   29.6034  -21.6430  -10.1626 C   0  0  0  0  0  0  0  0  0  0  0  0
   29.1204  -21.5001  -12.5480 C   0  0  2  0  0  0  0  0  0  0  0  0
   29.5735  -21.1687  -13.8837 N   0  0  0  0  0  0  0  0  0  0  0  0
   27.9107  -20.7299  -12.1928 C   0  0  0  0  0  0  0  0  0  0  0  0
   27.8588  -19.5155  -12.5165 O   0  0  0  0  0  0  0  0  0  0  0  0
   21.8938  -19.0831  -15.8426 N   0  0  0  0  0  0  0  0  0  0  0  0
   21.0985  -19.0999  -14.6583 C   0  0  0  0  0  0  0  0  0  0  0  0
   19.8484  -19.2876  -14.7654 N   0  0  0  0  0  0  0  0  0  0  0  0
   21.6693  -18.9126  -13.3680 N   0  0  0  0  0  0  0  0  0  0  0  0
   23.0651  -19.1816  -13.1778 C   0  0  0  0  0  0  0  0  0  0  0  0
   23.3866  -20.6157  -12.9540 C   0  0  0  0  0  0  0  0  0  0  0  0
   24.8136  -20.9843  -12.8229 C   0  0  0  0  0  0  0  0  0  0  0  0
   25.4784  -20.6965  -11.5278 C   0  0  2  0  0  0  0  0  0  0  0  0
   26.8224  -21.2889  -11.5140 N   0  0  0  0  0  0  0  0  0  0  0  0
   24.7179  -20.9471  -10.3113 C   0  0  0  0  0  0  0  0  0  0  0  0
   23.9001  -20.0870   -9.8423 O   0  0  0  0  0  0  0  0  0  0  0  0
   24.8393  -22.1303   -9.6010 O   0  0  0  0  0  0  0  0  0  0  0  0
  2  1  1  0
  2  3  2  0
  4  2  1  0
  5  4  1  0
  5  6  1  0
  6  7  1  6
  8  6  1  0
  8  9  2  0
 11 10  1  0
 12 11  1  0
 12 14  1  0
 12 13  1  1
 14 15  1  6
 15  8  1  0
 16 26  1  0
 16 14  1  0
 17 16  2  0
 18 19  1  0
 19 21  1  0
 20 19  2  0
 21 22  1  0
 22 23  1  0
 23 24  1  0
 25 24  1  6
 25 26  1  0
 25 27  1  0
 27 29  1  0
 28 27  2  0
M  END
$$$$
