QIR.pdb
     RDKit          3D

 29 28  0  0  1  0  0  0  0  0999 V2000
   28.5627  -18.4910  -17.0971 N   0  0  0  0  0  0  0  0  0  0  0  0
   27.5679  -19.2773  -17.7105 C   0  0  0  0  0  0  0  0  0  0  0  0
   27.6113  -19.3970  -18.9759 O   0  0  0  0  0  0  0  0  0  0  0  0
   26.4834  -19.9608  -16.9217 C   0  0  0  0  0  0  0  0  0  0  0  0
   26.5596  -19.5248  -15.4901 C   0  0  0  0  0  0  0  0  0  0  0  0
   27.1816  -20.5051  -14.5566 C   0  0  2  0  0  0  0  0  0  0  0  0
   27.5545  -21.6710  -15.3736 N   0  0  0  0  0  0  0  0  0  0  0  0
   26.2134  -20.9855  -13.5509 C   0  0  0  0  0  0  0  0  0  0  0  0
   25.6944  -22.1143  -13.7055 O   0  0  0  0  0  0  0  0  0  0  0  0
   26.8674  -19.7184   -8.3498 C   0  0  0  0  0  0  0  0  0  0  0  0
   26.5285  -20.6434   -9.5007 C   0  0  0  0  0  0  0  0  0  0  0  0
   25.1866  -20.2127  -10.0392 C   0  0  2  0  0  0  0  0  0  0  0  0
   24.0907  -20.7055   -9.1156 C   0  0  0  0  0  0  0  0  0  0  0  0
   24.9085  -20.7524  -11.4120 C   0  0  2  0  0  0  0  0  0  0  0  0
   25.8291  -20.2391  -12.4060 N   0  0  0  0  0  0  0  0  0  0  0  0
   23.5071  -20.5540  -11.8355 C   0  0  0  0  0  0  0  0  0  0  0  0
   23.1798  -19.4383  -12.3152 O   0  0  0  0  0  0  0  0  0  0  0  0
   16.6110  -25.4696   -9.4967 N   0  0  0  0  0  0  0  0  0  0  0  0
   17.6121  -24.6704   -8.8687 C   0  0  0  0  0  0  0  0  0  0  0  0
   17.7936  -24.7906   -7.6189 N   0  0  0  0  0  0  0  0  0  0  0  0
   18.4070  -23.7474   -9.6050 N   0  0  0  0  0  0  0  0  0  0  0  0
   18.0038  -23.3849  -10.9327 C   0  0  0  0  0  0  0  0  0  0  0  0
   18.8210  -22.3054  -11.5468 C   0  0  0  0  0  0  0  0  0  0  0  0
   20.2929  -22.4216  -11.4480 C   0  0  0  0  0  0  0  0  0  0  0  0
   21.1054  -21.3064  -11.9940 C   0  0  2  0  0  0  0  0  0  0  0  0
   22.5293  -21.5489  -11.7272 N   0  0  0  0  0  0  0  0  0  0  0  0
   20.6770  -19.9489  -11.6860 C   0  0  0  0  0  0  0  0  0  0  0  0
   20.8801  -19.4253  -10.5401 O   0  0  0  0  0  0  0  0  0  0  0  0
   20.0301  -19.1544  -12.6184 O   0  0  0  0  0  0  0  0  0  0  0  0
  2  1  1  0
  2  3  2  0
  4  2  1  0
  5  4  1  0
  5  6  1  0
  6  7  1  6
  8  6  1  0
  8  9  2  0
 11 10  1  0
 12 11  1  0
 12 14  1  0
 12 13  1  1
 14 15  1  6
 15  8  1  0
 16 26  1  0
 16 14  1  0
 17 16  2  0
 18 19  1  0
 19 21  1  0
 20 19  2  0
 21 22  1  0
 22 23  1  0
 23 24  1  0
 25 24  1  1
 25 26  1  0
 25 27  1  0
 27 29  1  0
 28 27  2  0
M  END
$$$$
