QIR.pdb
     RDKit          3D

 29 28  0  0  1  0  0  0  0  0999 V2000
   24.3619  -19.9384  -17.6600 N   0  0  0  0  0  0  0  0  0  0  0  0
   25.3663  -18.9644  -17.4970 C   0  0  0  0  0  0  0  0  0  0  0  0
   25.7756  -18.3628  -18.5400 O   0  0  0  0  0  0  0  0  0  0  0  0
   25.9502  -18.6292  -16.1508 C   0  0  0  0  0  0  0  0  0  0  0  0
   25.2748  -19.4527  -15.0967 C   0  0  0  0  0  0  0  0  0  0  0  0
   26.1751  -20.0130  -14.0504 C   0  0  2  0  0  0  0  0  0  0  0  0
   27.0185  -21.0120  -14.7260 N   0  0  0  0  0  0  0  0  0  0  0  0
   25.4147  -20.7347  -13.0109 C   0  0  0  0  0  0  0  0  0  0  0  0
   25.1463  -21.9442  -13.1914 O   0  0  0  0  0  0  0  0  0  0  0  0
   26.5615  -19.6386   -8.0886 C   0  0  0  0  0  0  0  0  0  0  0  0
   26.1427  -20.6725   -9.1137 C   0  0  0  0  0  0  0  0  0  0  0  0
   24.6754  -20.4574   -9.3908 C   0  0  2  0  0  0  0  0  0  0  0  0
   23.8526  -21.2572   -8.4007 C   0  0  0  0  0  0  0  0  0  0  0  0
   24.2741  -20.8839  -10.7729 C   0  0  2  0  0  0  0  0  0  0  0  0
   24.9631  -20.1365  -11.8052 N   0  0  0  0  0  0  0  0  0  0  0  0
   22.8120  -20.8531  -10.9830 C   0  0  0  0  0  0  0  0  0  0  0  0
   22.2161  -19.7504  -10.8779 O   0  0  0  0  0  0  0  0  0  0  0  0
   17.7000  -24.6692   -5.5499 N   0  0  0  0  0  0  0  0  0  0  0  0
   17.6764  -25.5435   -6.6770 C   0  0  0  0  0  0  0  0  0  0  0  0
   16.8257  -26.4844   -6.7016 N   0  0  0  0  0  0  0  0  0  0  0  0
   18.5776  -25.3873   -7.7674 N   0  0  0  0  0  0  0  0  0  0  0  0
   19.5407  -24.3253   -7.7286 C   0  0  0  0  0  0  0  0  0  0  0  0
   19.4896  -23.4103   -8.8992 C   0  0  0  0  0  0  0  0  0  0  0  0
   20.7584  -23.1375   -9.6101 C   0  0  0  0  0  0  0  0  0  0  0  0
   20.7055  -22.2242  -10.7784 C   0  0  2  0  0  0  0  0  0  0  0  0
   22.0616  -21.9926  -11.2929 N   0  0  0  0  0  0  0  0  0  0  0  0
   19.9163  -21.0074  -10.6454 C   0  0  0  0  0  0  0  0  0  0  0  0
   20.1221  -20.1744   -9.7007 O   0  0  0  0  0  0  0  0  0  0  0  0
   18.9042  -20.6884  -11.5358 O   0  0  0  0  0  0  0  0  0  0  0  0
  2  1  1  0
  2  3  2  0
  4  2  1  0
  5  4  1  0
  5  6  1  0
  6  7  1  6
  8  6  1  0
  8  9  2  0
 11 10  1  0
 12 11  1  0
 12 14  1  0
 12 13  1  1
 14 15  1  6
 15  8  1  0
 16 26  1  0
 16 14  1  0
 17 16  2  0
 18 19  1  0
 19 21  1  0
 20 19  2  0
 21 22  1  0
 22 23  1  0
 23 24  1  0
 25 24  1  1
 25 26  1  0
 25 27  1  0
 27 29  1  0
 28 27  2  0
M  END
$$$$
