QIR.pdb
     RDKit          3D

 29 28  0  0  1  0  0  0  0  0999 V2000
   26.9463  -16.2933  -14.6829 N   0  0  0  0  0  0  0  0  0  0  0  0
   27.5661  -16.6422  -15.8986 C   0  0  0  0  0  0  0  0  0  0  0  0
   28.2463  -15.7448  -16.4896 O   0  0  0  0  0  0  0  0  0  0  0  0
   27.4438  -18.0176  -16.4976 C   0  0  0  0  0  0  0  0  0  0  0  0
   26.7386  -18.9200  -15.5313 C   0  0  0  0  0  0  0  0  0  0  0  0
   27.6092  -19.8956  -14.8175 C   0  0  2  0  0  0  0  0  0  0  0  0
   28.0642  -20.8597  -15.8321 N   0  0  0  0  0  0  0  0  0  0  0  0
   26.8498  -20.6657  -13.8126 C   0  0  0  0  0  0  0  0  0  0  0  0
   26.1613  -21.6393  -14.1941 O   0  0  0  0  0  0  0  0  0  0  0  0
   28.4282  -21.0603   -8.7372 C   0  0  0  0  0  0  0  0  0  0  0  0
   27.7548  -21.6380   -9.9653 C   0  0  0  0  0  0  0  0  0  0  0  0
   26.4065  -20.9728  -10.0894 C   0  0  2  0  0  0  0  0  0  0  0  0
   25.3953  -21.7207   -9.2437 C   0  0  0  0  0  0  0  0  0  0  0  0
   25.8964  -20.9472  -11.5009 C   0  0  2  0  0  0  0  0  0  0  0  0
   26.8509  -20.3682  -12.4244 N   0  0  0  0  0  0  0  0  0  0  0  0
   24.5769  -20.2941  -11.6243 C   0  0  0  0  0  0  0  0  0  0  0  0
   24.5352  -19.0388  -11.6912 O   0  0  0  0  0  0  0  0  0  0  0  0
   23.6584  -21.6281  -17.3448 N   0  0  0  0  0  0  0  0  0  0  0  0
   22.3233  -21.3587  -17.7695 C   0  0  0  0  0  0  0  0  0  0  0  0
   21.7900  -22.1248  -18.6287 N   0  0  0  0  0  0  0  0  0  0  0  0
   21.5797  -20.2588  -17.2565 N   0  0  0  0  0  0  0  0  0  0  0  0
   22.1493  -19.4603  -16.2101 C   0  0  0  0  0  0  0  0  0  0  0  0
   21.6811  -19.8168  -14.8449 C   0  0  0  0  0  0  0  0  0  0  0  0
   22.6964  -20.2776  -13.8722 C   0  0  0  0  0  0  0  0  0  0  0  0
   22.2324  -20.6019  -12.5006 C   0  0  2  0  0  0  0  0  0  0  0  0
   23.3740  -21.0073  -11.6701 N   0  0  0  0  0  0  0  0  0  0  0  0
   21.0766  -21.4788  -12.3716 C   0  0  0  0  0  0  0  0  0  0  0  0
   21.1942  -22.7495  -12.3837 O   0  0  0  0  0  0  0  0  0  0  0  0
   19.7916  -20.9822  -12.2270 O   0  0  0  0  0  0  0  0  0  0  0  0
  2  1  1  0
  2  3  2  0
  4  2  1  0
  5  4  1  0
  5  6  1  0
  6  7  1  6
  8  6  1  0
  8  9  2  0
 11 10  1  0
 12 11  1  0
 12 14  1  0
 12 13  1  1
 14 15  1  6
 15  8  1  0
 16 26  1  0
 16 14  1  0
 17 16  2  0
 18 19  1  0
 19 21  1  0
 20 19  2  0
 21 22  1  0
 22 23  1  0
 23 24  1  0
 25 24  1  6
 25 26  1  0
 25 27  1  0
 27 29  1  0
 28 27  2  0
M  END
$$$$
