QIR.pdb
     RDKit          3D

 29 28  0  0  1  0  0  0  0  0999 V2000
   24.2988  -16.6613  -21.2357 N   0  0  0  0  0  0  0  0  0  0  0  0
   23.9397  -15.7431  -22.2417 C   0  0  0  0  0  0  0  0  0  0  0  0
   24.1895  -16.0646  -23.4465 O   0  0  0  0  0  0  0  0  0  0  0  0
   23.2843  -14.4245  -21.9298 C   0  0  0  0  0  0  0  0  0  0  0  0
   23.0090  -14.3414  -20.4591 C   0  0  0  0  0  0  0  0  0  0  0  0
   24.2128  -14.3675  -19.5820 C   0  0  2  0  0  0  0  0  0  0  0  0
   24.4020  -15.7720  -19.1854 N   0  0  0  0  0  0  0  0  0  0  0  0
   23.9940  -13.6025  -18.3384 C   0  0  0  0  0  0  0  0  0  0  0  0
   23.4078  -14.1605  -17.3832 O   0  0  0  0  0  0  0  0  0  0  0  0
   27.0029  -10.3093  -14.5012 C   0  0  0  0  0  0  0  0  0  0  0  0
   25.5838  -10.5891  -14.9519 C   0  0  0  0  0  0  0  0  0  0  0  0
   25.6683  -11.2697  -16.2956 C   0  0  2  0  0  0  0  0  0  0  0  0
   26.4012  -10.3708  -17.2712 C   0  0  0  0  0  0  0  0  0  0  0  0
   24.3202  -11.5789  -16.8788 C   0  0  2  0  0  0  0  0  0  0  0  0
   24.4112  -12.2579  -18.1554 N   0  0  0  0  0  0  0  0  0  0  0  0
   23.4471  -10.3907  -16.9719 C   0  0  0  0  0  0  0  0  0  0  0  0
   23.6832   -9.5445  -17.8721 O   0  0  0  0  0  0  0  0  0  0  0  0
   14.8760   -9.2598  -15.0581 N   0  0  0  0  0  0  0  0  0  0  0  0
   15.3043   -7.9978  -15.5674 C   0  0  0  0  0  0  0  0  0  0  0  0
   14.4448   -7.0767  -15.7170 N   0  0  0  0  0  0  0  0  0  0  0  0
   16.6632   -7.7483  -15.9095 N   0  0  0  0  0  0  0  0  0  0  0  0
   17.6355   -8.7814  -15.6994 C   0  0  0  0  0  0  0  0  0  0  0  0
   19.0360   -8.3696  -15.9809 C   0  0  0  0  0  0  0  0  0  0  0  0
   20.0820   -9.4142  -15.9176 C   0  0  0  0  0  0  0  0  0  0  0  0
   21.4752   -9.0070  -16.2259 C   0  0  2  0  0  0  0  0  0  0  0  0
   22.3717  -10.1643  -16.1059 N   0  0  0  0  0  0  0  0  0  0  0  0
   21.9835   -7.8057  -15.5780 C   0  0  0  0  0  0  0  0  0  0  0  0
   22.4934   -7.8390  -14.4086 O   0  0  0  0  0  0  0  0  0  0  0  0
   21.9431   -6.5663  -16.1953 O   0  0  0  0  0  0  0  0  0  0  0  0
  2  1  1  0
  2  3  2  0
  4  2  1  0
  5  4  1  0
  5  6  1  0
  6  7  1  1
  8  6  1  0
  8  9  2  0
 11 10  1  0
 12 11  1  0
 12 14  1  0
 12 13  1  6
 14 15  1  6
 15  8  1  0
 16 26  1  0
 16 14  1  0
 17 16  2  0
 18 19  1  0
 19 21  1  0
 20 19  2  0
 21 22  1  0
 22 23  1  0
 23 24  1  0
 25 24  1  1
 25 26  1  0
 25 27  1  0
 27 29  1  0
 28 27  2  0
M  END
$$$$
