RKF.pdb
     RDKit          3D

 32 32  0  0  1  0  0  0  0  0999 V2000
    9.7549  -13.0633   18.3727 N   0  0  0  0  0  0  0  0  0  0  0  0
    8.8652  -13.2401   19.4550 C   0  0  0  0  0  0  0  0  0  0  0  0
    8.9560  -12.5053   20.5139 N   0  0  0  0  0  0  0  0  0  0  0  0
    7.8369  -14.2330   19.4181 N   0  0  0  0  0  0  0  0  0  0  0  0
    6.8671  -14.3688   20.5200 C   0  0  0  0  0  0  0  0  0  0  0  0
    7.5304  -15.1866   21.5675 C   0  0  0  0  0  0  0  0  0  0  0  0
    7.5130  -16.6574   21.3944 C   0  0  0  0  0  0  0  0  0  0  0  0
    6.5558  -17.4299   22.2236 C   0  0  2  0  0  0  0  0  0  0  0  0
    5.2471  -16.8629   22.3150 N   0  0  0  0  0  0  0  0  0  0  0  0
    7.1039  -17.5154   23.6139 C   0  0  0  0  0  0  0  0  0  0  0  0
    6.4478  -17.0605   24.6101 O   0  0  0  0  0  0  0  0  0  0  0  0
    8.4035  -12.6377   21.3650 N   0  0  0  0  0  0  0  0  0  0  0  0
    8.3766  -18.1096   23.8610 C   0  0  2  0  0  0  0  0  0  0  0  0
    8.8657  -18.4884   25.1481 C   0  0  0  0  0  0  0  0  0  0  0  0
    9.7775  -19.6453   25.1571 C   0  0  0  0  0  0  0  0  0  0  0  0
   10.3069  -20.2764   26.3494 C   0  0  0  0  0  0  0  0  0  0  0  0
   11.2190  -21.4120   26.3387 C   0  0  0  0  0  0  0  0  0  0  0  0
   11.6497  -22.0166   27.6220 N   0  0  0  0  0  0  0  0  0  0  0  0
   12.6210  -23.0907   27.3980 C   0  0  0  0  0  0  0  0  0  0  0  0
    9.2329  -17.4170   26.0793 O   0  0  0  0  0  0  0  0  0  0  0  0
    9.5002  -17.7215   27.2911 N   0  0  0  0  0  0  0  0  0  0  0  0
    9.3190  -16.0313   25.7535 C   0  0  2  0  0  0  0  0  0  0  0  0
    9.8616  -15.0997   26.7197 C   0  0  0  0  0  0  0  0  0  0  0  0
    8.8286  -14.5652   27.6569 C   0  0  0  0  0  0  0  0  0  0  0  0
    7.6602  -13.9508   27.0172 C   0  0  0  0  0  0  0  0  0  0  0  0
    7.8299  -13.3308   25.7956 C   0  0  0  0  0  0  0  0  0  0  0  0
    6.7607  -12.7540   25.1886 C   0  0  0  0  0  0  0  0  0  0  0  0
    5.5077  -12.7639   25.7476 C   0  0  0  0  0  0  0  0  0  0  0  0
    5.3346  -13.3806   26.9648 C   0  0  0  0  0  0  0  0  0  0  0  0
    6.3922  -13.9739   27.6074 C   0  0  0  0  0  0  0  0  0  0  0  0
   10.9346  -15.7934   27.4808 O   0  0  0  0  0  0  0  0  0  0  0  0
   11.2116  -16.9860   27.2561 O   0  0  0  0  0  0  0  0  0  0  0  0
  1  2  1  0
  2  3  2  0
  4  2  1  0
  4  5  1  0
  6  5  1  0
  7  8  1  0
  7  6  1  0
  8  9  1  1
 10  8  1  0
 11 10  2  0
 12 10  1  0
 13 19  1  0
 13 12  1  0
 14 15  1  0
 13 14  1  6
 15 16  1  0
 17 16  1  0
 17 18  1  0
 19 21  1  0
 20 19  2  0
 21 22  1  0
 22 30  1  0
 22 23  1  6
 24 23  1  0
 24 29  2  0
 25 24  1  0
 26 25  2  0
 26 27  1  0
 27 28  2  0
 28 29  1  0
 30 31  2  0
 30 32  1  0
M  END
$$$$
