RKF.pdb
     RDKit          3D

 32 32  0  0  1  0  0  0  0  0999 V2000
   10.3831  -13.1670   18.7674 N   0  0  0  0  0  0  0  0  0  0  0  0
    9.1081  -13.0425   18.1732 C   0  0  0  0  0  0  0  0  0  0  0  0
    8.3353  -12.0492   18.4653 N   0  0  0  0  0  0  0  0  0  0  0  0
    8.6291  -14.0059   17.2313 N   0  0  0  0  0  0  0  0  0  0  0  0
    8.2155  -15.3538   17.6617 C   0  0  0  0  0  0  0  0  0  0  0  0
    7.4679  -15.1798   18.9333 C   0  0  0  0  0  0  0  0  0  0  0  0
    6.8900  -16.3940   19.5539 C   0  0  0  0  0  0  0  0  0  0  0  0
    7.7341  -17.6136   19.5803 C   0  0  2  0  0  0  0  0  0  0  0  0
    7.0597  -18.8185   19.2119 N   0  0  0  0  0  0  0  0  0  0  0  0
    8.2477  -17.7971   20.9743 C   0  0  0  0  0  0  0  0  0  0  0  0
    7.4473  -17.9605   21.9554 O   0  0  0  0  0  0  0  0  0  0  0  0
    7.4285  -11.8670   18.0275 N   0  0  0  0  0  0  0  0  0  0  0  0
    9.6486  -17.7946   21.2420 C   0  0  2  0  0  0  0  0  0  0  0  0
   10.2319  -17.7155   22.5430 C   0  0  0  0  0  0  0  0  0  0  0  0
   11.6309  -18.1680   22.6316 C   0  0  0  0  0  0  0  0  0  0  0  0
   12.1852  -19.2987   21.9142 C   0  0  0  0  0  0  0  0  0  0  0  0
   13.4496  -19.2700   21.1918 C   0  0  0  0  0  0  0  0  0  0  0  0
   13.9328  -20.4967   20.5138 N   0  0  0  0  0  0  0  0  0  0  0  0
   15.2059  -20.2535   19.8302 C   0  0  0  0  0  0  0  0  0  0  0  0
    9.9208  -16.5371   23.3581 O   0  0  0  0  0  0  0  0  0  0  0  0
   10.4182  -15.4092   23.0220 N   0  0  0  0  0  0  0  0  0  0  0  0
    9.0974  -16.5307   24.5225 C   0  0  1  0  0  0  0  0  0  0  0  0
    8.8674  -15.2895   25.2315 C   0  0  0  0  0  0  0  0  0  0  0  0
    7.4984  -14.7358   25.0069 C   0  0  0  0  0  0  0  0  0  0  0  0
    7.1511  -13.5709   25.8281 C   0  0  0  0  0  0  0  0  0  0  0  0
    7.4135  -12.3118   25.3268 C   0  0  0  0  0  0  0  0  0  0  0  0
    7.1015  -11.2210   26.0731 C   0  0  0  0  0  0  0  0  0  0  0  0
    6.5307  -11.3230   27.3166 C   0  0  0  0  0  0  0  0  0  0  0  0
    6.2678  -12.5760   27.8195 C   0  0  0  0  0  0  0  0  0  0  0  0
    6.5696  -13.7008   27.0936 C   0  0  0  0  0  0  0  0  0  0  0  0
    9.0896  -15.5355   26.6812 O   0  0  0  0  0  0  0  0  0  0  0  0
    9.0779  -14.5979   27.4999 O   0  0  0  0  0  0  0  0  0  0  0  0
  1  2  1  0
  2  3  2  0
  4  2  1  0
  4  5  1  0
  6  5  1  0
  7  8  1  0
  7  6  1  0
  8  9  1  1
 10  8  1  0
 11 10  2  0
 12 10  1  0
 13 19  1  0
 13 12  1  0
 14 15  1  0
 13 14  1  6
 15 16  1  0
 17 16  1  0
 17 18  1  0
 19 21  1  0
 20 19  2  0
 21 22  1  0
 22 30  1  0
 22 23  1  1
 24 23  1  0
 24 29  2  0
 25 24  1  0
 26 25  2  0
 26 27  1  0
 27 28  2  0
 28 29  1  0
 30 31  2  0
 30 32  1  0
M  END
$$$$
