RKF.pdb
     RDKit          3D

 32 32  0  0  1  0  0  0  0  0999 V2000
    9.4487  -15.0705   17.4403 N   0  0  0  0  0  0  0  0  0  0  0  0
    8.3983  -14.1901   17.0997 C   0  0  0  0  0  0  0  0  0  0  0  0
    8.4401  -13.5003   16.0080 N   0  0  0  0  0  0  0  0  0  0  0  0
    7.2566  -14.0316   17.9458 N   0  0  0  0  0  0  0  0  0  0  0  0
    7.1472  -14.7579   19.2240 C   0  0  0  0  0  0  0  0  0  0  0  0
    6.7961  -16.1603   18.8837 C   0  0  0  0  0  0  0  0  0  0  0  0
    5.8395  -16.8570   19.7741 C   0  0  0  0  0  0  0  0  0  0  0  0
    6.1173  -18.2788   20.0936 C   0  0  2  0  0  0  0  0  0  0  0  0
    5.0410  -19.1775   19.8169 N   0  0  0  0  0  0  0  0  0  0  0  0
    6.4189  -18.3796   21.5562 C   0  0  0  0  0  0  0  0  0  0  0  0
    5.5641  -18.0159   22.4321 O   0  0  0  0  0  0  0  0  0  0  0  0
    7.7066  -12.8591   15.6946 N   0  0  0  0  0  0  0  0  0  0  0  0
    7.6727  -18.8864   22.0094 C   0  0  2  0  0  0  0  0  0  0  0  0
    8.1544  -18.7954   23.3506 C   0  0  0  0  0  0  0  0  0  0  0  0
    9.1763  -19.7903   23.7188 C   0  0  0  0  0  0  0  0  0  0  0  0
    9.7992  -19.8977   25.0230 C   0  0  0  0  0  0  0  0  0  0  0  0
   10.8121  -20.8859   25.3679 C   0  0  0  0  0  0  0  0  0  0  0  0
   11.3897  -20.8957   26.7332 N   0  0  0  0  0  0  0  0  0  0  0  0
   10.9211  -22.0568   27.4946 C   0  0  0  0  0  0  0  0  0  0  0  0
    8.3820  -17.4564   23.9029 O   0  0  0  0  0  0  0  0  0  0  0  0
    9.1279  -16.6445   23.2573 N   0  0  0  0  0  0  0  0  0  0  0  0
    7.8387  -16.9626   25.1255 C   0  0  2  0  0  0  0  0  0  0  0  0
    7.9662  -15.5577   25.4514 C   0  0  0  0  0  0  0  0  0  0  0  0
    6.7651  -15.0111   26.1514 C   0  0  0  0  0  0  0  0  0  0  0  0
    6.8566  -13.6007   26.5441 C   0  0  0  0  0  0  0  0  0  0  0  0
    6.2872  -12.6508   25.7202 C   0  0  0  0  0  0  0  0  0  0  0  0
    6.3636  -11.3396   26.0655 C   0  0  0  0  0  0  0  0  0  0  0  0
    6.9903  -10.9192   27.2113 C   0  0  0  0  0  0  0  0  0  0  0  0
    7.5589  -11.8627   28.0349 C   0  0  0  0  0  0  0  0  0  0  0  0
    7.5013  -13.1968   27.7180 C   0  0  0  0  0  0  0  0  0  0  0  0
    9.1760  -15.3863   26.2991 O   0  0  0  0  0  0  0  0  0  0  0  0
    9.7840  -14.3008   26.3367 O   0  0  0  0  0  0  0  0  0  0  0  0
  1  2  1  0
  2  3  2  0
  4  2  1  0
  4  5  1  0
  6  5  1  0
  7  8  1  0
  7  6  1  0
  8  9  1  1
 10  8  1  0
 11 10  2  0
 12 10  1  0
 13 19  1  0
 13 12  1  0
 14 15  1  0
 13 14  1  6
 15 16  1  0
 17 16  1  0
 17 18  1  0
 19 21  1  0
 20 19  2  0
 21 22  1  0
 22 30  1  0
 22 23  1  1
 24 23  1  0
 24 29  2  0
 25 24  1  0
 26 25  2  0
 26 27  1  0
 27 28  2  0
 28 29  1  0
 30 31  2  0
 30 32  1  0
M  END
$$$$
