RKF.pdb
     RDKit          3D

 32 32  0  0  1  0  0  0  0  0999 V2000
    9.6577  -14.3353   19.2896 N   0  0  0  0  0  0  0  0  0  0  0  0
    8.9169  -13.3648   18.5800 C   0  0  0  0  0  0  0  0  0  0  0  0
    9.4925  -12.5890   17.7219 N   0  0  0  0  0  0  0  0  0  0  0  0
    7.5104  -13.2069   18.7839 N   0  0  0  0  0  0  0  0  0  0  0  0
    6.9467  -13.0666   20.1387 C   0  0  0  0  0  0  0  0  0  0  0  0
    6.4035  -14.3982   20.5098 C   0  0  0  0  0  0  0  0  0  0  0  0
    7.3620  -15.4058   21.0190 C   0  0  0  0  0  0  0  0  0  0  0  0
    6.8276  -16.7504   21.3463 C   0  0  2  0  0  0  0  0  0  0  0  0
    5.4415  -16.9337   21.0507 N   0  0  0  0  0  0  0  0  0  0  0  0
    7.0056  -16.9801   22.8147 C   0  0  0  0  0  0  0  0  0  0  0  0
    6.0910  -16.6629   23.6470 O   0  0  0  0  0  0  0  0  0  0  0  0
    9.0369  -11.8064   17.2454 N   0  0  0  0  0  0  0  0  0  0  0  0
    8.2051  -17.5613   23.3221 C   0  0  2  0  0  0  0  0  0  0  0  0
    8.4435  -17.8769   24.6942 C   0  0  0  0  0  0  0  0  0  0  0  0
    8.9330  -19.2429   24.9477 C   0  0  0  0  0  0  0  0  0  0  0  0
    9.2544  -19.7810   26.2544 C   0  0  0  0  0  0  0  0  0  0  0  0
    9.8620  -21.0860   26.4758 C   0  0  0  0  0  0  0  0  0  0  0  0
   10.1757  -21.5221   27.8576 N   0  0  0  0  0  0  0  0  0  0  0  0
   10.8907  -22.8012   27.8562 C   0  0  0  0  0  0  0  0  0  0  0  0
    9.0596  -16.8443   25.5333 O   0  0  0  0  0  0  0  0  0  0  0  0
   10.1368  -16.2877   25.1304 N   0  0  0  0  0  0  0  0  0  0  0  0
    8.5597  -16.3929   26.7903 C   0  0  1  0  0  0  0  0  0  0  0  0
    9.3669  -15.5132   27.6092 C   0  0  0  0  0  0  0  0  0  0  0  0
    8.6056  -14.3357   28.1241 C   0  0  0  0  0  0  0  0  0  0  0  0
    8.1576  -13.3836   27.1020 C   0  0  0  0  0  0  0  0  0  0  0  0
    8.9895  -12.3321   26.7736 C   0  0  0  0  0  0  0  0  0  0  0  0
    8.5914  -11.4387   25.8315 C   0  0  0  0  0  0  0  0  0  0  0  0
    7.3839  -11.5418   25.1881 C   0  0  0  0  0  0  0  0  0  0  0  0
    6.5522  -12.5881   25.5127 C   0  0  0  0  0  0  0  0  0  0  0  0
    6.9213  -13.5100   26.4599 C   0  0  0  0  0  0  0  0  0  0  0  0
    9.9131  -16.3062   28.7426 O   0  0  0  0  0  0  0  0  0  0  0  0
   10.6555  -15.7818   29.5930 O   0  0  0  0  0  0  0  0  0  0  0  0
  1  2  1  0
  2  3  2  0
  4  2  1  0
  4  5  1  0
  6  5  1  0
  7  8  1  0
  7  6  1  0
  8  9  1  1
 10  8  1  0
 11 10  2  0
 12 10  1  0
 13 19  1  0
 13 12  1  0
 14 15  1  0
 13 14  1  6
 15 16  1  0
 17 16  1  0
 17 18  1  0
 19 21  1  0
 20 19  2  0
 21 22  1  0
 22 30  1  0
 22 23  1  1
 24 23  1  0
 24 29  2  0
 25 24  1  0
 26 25  2  0
 26 27  1  0
 27 28  2  0
 28 29  1  0
 30 31  2  0
 30 32  1  0
M  END
$$$$
