RKF.pdb
     RDKit          3D

 32 32  0  0  1  0  0  0  0  0999 V2000
    7.5507  -13.1594   16.1711 N   0  0  0  0  0  0  0  0  0  0  0  0
    8.3567  -13.1269   17.3302 C   0  0  0  0  0  0  0  0  0  0  0  0
    8.6723  -12.0041   17.8862 N   0  0  0  0  0  0  0  0  0  0  0  0
    8.8496  -14.3290   17.9274 N   0  0  0  0  0  0  0  0  0  0  0  0
    8.6499  -15.6393   17.2822 C   0  0  0  0  0  0  0  0  0  0  0  0
    7.7214  -16.4023   18.1551 C   0  0  0  0  0  0  0  0  0  0  0  0
    8.0040  -16.4069   19.6088 C   0  0  0  0  0  0  0  0  0  0  0  0
    9.3650  -16.8127   20.0372 C   0  0  2  0  0  0  0  0  0  0  0  0
    9.8629  -17.9974   19.4118 N   0  0  0  0  0  0  0  0  0  0  0  0
    9.3357  -17.0648   21.5124 C   0  0  0  0  0  0  0  0  0  0  0  0
    8.7164  -16.2770   22.3035 O   0  0  0  0  0  0  0  0  0  0  0  0
    9.3287  -11.9028   18.6648 N   0  0  0  0  0  0  0  0  0  0  0  0
   10.0006  -18.1953   22.0728 C   0  0  2  0  0  0  0  0  0  0  0  0
   10.1041  -18.4731   23.4697 C   0  0  0  0  0  0  0  0  0  0  0  0
   10.5887  -19.8227   23.8066 C   0  0  0  0  0  0  0  0  0  0  0  0
   10.4544  -20.9895   22.9574 C   0  0  0  0  0  0  0  0  0  0  0  0
   11.0351  -22.2912   23.2568 C   0  0  0  0  0  0  0  0  0  0  0  0
   10.7591  -23.4391   22.3600 N   0  0  0  0  0  0  0  0  0  0  0  0
   11.4276  -24.6525   22.8373 C   0  0  0  0  0  0  0  0  0  0  0  0
   10.6142  -17.4087   24.3395 O   0  0  0  0  0  0  0  0  0  0  0  0
   11.3585  -16.5034   23.8304 N   0  0  0  0  0  0  0  0  0  0  0  0
   10.3549  -17.2865   25.7365 C   0  0  1  0  0  0  0  0  0  0  0  0
    9.8857  -16.0255   26.2713 C   0  0  0  0  0  0  0  0  0  0  0  0
    8.6818  -15.5026   25.5583 C   0  0  0  0  0  0  0  0  0  0  0  0
    8.1621  -14.2257   26.0595 C   0  0  0  0  0  0  0  0  0  0  0  0
    8.9977  -13.4266   26.8137 C   0  0  0  0  0  0  0  0  0  0  0  0
    8.5341  -12.2419   27.2888 C   0  0  0  0  0  0  0  0  0  0  0  0
    7.2564  -11.8049   27.0460 C   0  0  0  0  0  0  0  0  0  0  0  0
    6.4208  -12.5983   26.2950 C   0  0  0  0  0  0  0  0  0  0  0  0
    6.8549  -13.8018   25.7985 C   0  0  0  0  0  0  0  0  0  0  0  0
    9.5836  -16.2177   27.7147 O   0  0  0  0  0  0  0  0  0  0  0  0
    8.7815  -17.0921   28.0910 O   0  0  0  0  0  0  0  0  0  0  0  0
  1  2  1  0
  2  3  2  0
  4  2  1  0
  4  5  1  0
  6  5  1  0
  7  8  1  0
  7  6  1  0
  8  9  1  6
 10  8  1  0
 11 10  2  0
 12 10  1  0
 13 19  1  0
 13 12  1  0
 14 15  1  0
 13 14  1  6
 15 16  1  0
 17 16  1  0
 17 18  1  0
 19 21  1  0
 20 19  2  0
 21 22  1  0
 22 30  1  0
 22 23  1  1
 24 23  1  0
 24 29  2  0
 25 24  1  0
 26 25  2  0
 26 27  1  0
 27 28  2  0
 28 29  1  0
 30 31  2  0
 30 32  1  0
M  END
$$$$
