RKF.pdb
     RDKit          3D

 32 32  0  0  1  0  0  0  0  0999 V2000
    7.8854  -15.9165   14.9940 N   0  0  0  0  0  0  0  0  0  0  0  0
    9.0149  -15.2287   15.4892 C   0  0  0  0  0  0  0  0  0  0  0  0
   10.2104  -15.6387   15.2207 N   0  0  0  0  0  0  0  0  0  0  0  0
    8.8772  -14.0594   16.3007 N   0  0  0  0  0  0  0  0  0  0  0  0
    7.5638  -13.6464   16.8275 C   0  0  0  0  0  0  0  0  0  0  0  0
    7.4104  -14.3108   18.1470 C   0  0  0  0  0  0  0  0  0  0  0  0
    7.4557  -13.4499   19.3512 C   0  0  0  0  0  0  0  0  0  0  0  0
    8.6771  -13.5157   20.1904 C   0  0  2  0  0  0  0  0  0  0  0  0
    9.8772  -13.8293   19.4804 N   0  0  0  0  0  0  0  0  0  0  0  0
    8.4782  -14.5802   21.2238 C   0  0  0  0  0  0  0  0  0  0  0  0
    7.4270  -14.6077   21.9479 O   0  0  0  0  0  0  0  0  0  0  0  0
   11.0687  -15.1995   15.5637 N   0  0  0  0  0  0  0  0  0  0  0  0
    9.4609  -15.5940   21.4256 C   0  0  1  0  0  0  0  0  0  0  0  0
    9.3837  -16.6219   22.4138 C   0  0  0  0  0  0  0  0  0  0  0  0
   10.0766  -17.8756   22.0702 C   0  0  0  0  0  0  0  0  0  0  0  0
   10.0631  -19.0800   22.8762 C   0  0  0  0  0  0  0  0  0  0  0  0
   10.7268  -20.3219   22.5039 C   0  0  0  0  0  0  0  0  0  0  0  0
   10.6394  -21.4965   23.4043 N   0  0  0  0  0  0  0  0  0  0  0  0
   11.5490  -22.5605   22.9711 C   0  0  0  0  0  0  0  0  0  0  0  0
    9.5057  -16.2250   23.8200 O   0  0  0  0  0  0  0  0  0  0  0  0
   10.5989  -15.6952   24.2159 N   0  0  0  0  0  0  0  0  0  0  0  0
    8.4954  -16.3813   24.8143 C   0  0  1  0  0  0  0  0  0  0  0  0
    8.7626  -15.9761   26.1783 C   0  0  0  0  0  0  0  0  0  0  0  0
    7.6101  -15.2673   26.8114 C   0  0  0  0  0  0  0  0  0  0  0  0
    7.5039  -13.8385   26.4968 C   0  0  0  0  0  0  0  0  0  0  0  0
    6.3137  -13.1930   26.7656 C   0  0  0  0  0  0  0  0  0  0  0  0
    6.1951  -11.8709   26.4792 C   0  0  0  0  0  0  0  0  0  0  0  0
    7.2213  -11.1458   25.9282 C   0  0  0  0  0  0  0  0  0  0  0  0
    8.4088  -11.7854   25.6588 C   0  0  0  0  0  0  0  0  0  0  0  0
    8.5649  -13.1206   25.9350 C   0  0  0  0  0  0  0  0  0  0  0  0
    9.1115  -17.1903   26.9629 O   0  0  0  0  0  0  0  0  0  0  0  0
    8.9944  -18.3275   26.4704 O   0  0  0  0  0  0  0  0  0  0  0  0
  1  2  1  0
  2  3  2  0
  4  2  1  0
  4  5  1  0
  6  5  1  0
  7  8  1  0
  7  6  1  0
  8  9  1  6
 10  8  1  0
 11 10  2  0
 12 10  1  0
 13 19  1  0
 13 12  1  0
 14 15  1  0
 13 14  1  6
 15 16  1  0
 17 16  1  0
 17 18  1  0
 19 21  1  0
 20 19  2  0
 21 22  1  0
 22 30  1  0
 22 23  1  1
 24 23  1  0
 24 29  2  0
 25 24  1  0
 26 25  2  0
 26 27  1  0
 27 28  2  0
 28 29  1  0
 30 31  2  0
 30 32  1  0
M  END
$$$$
