RKF.pdb
     RDKit          3D

 32 32  0  0  1  0  0  0  0  0999 V2000
   10.0771  -13.4035   21.3109 N   0  0  0  0  0  0  0  0  0  0  0  0
   10.3330  -12.8113   20.0547 C   0  0  0  0  0  0  0  0  0  0  0  0
   11.5409  -12.5441   19.6821 N   0  0  0  0  0  0  0  0  0  0  0  0
    9.2702  -12.4883   19.1542 N   0  0  0  0  0  0  0  0  0  0  0  0
    7.8609  -12.5560   19.5814 C   0  0  0  0  0  0  0  0  0  0  0  0
    7.4806  -13.9915   19.5554 C   0  0  0  0  0  0  0  0  0  0  0  0
    7.5777  -14.7438   20.8274 C   0  0  0  0  0  0  0  0  0  0  0  0
    7.1480  -16.1636   20.8140 C   0  0  2  0  0  0  0  0  0  0  0  0
    5.7638  -16.3691   20.5236 N   0  0  0  0  0  0  0  0  0  0  0  0
    7.4118  -16.7453   22.1677 C   0  0  0  0  0  0  0  0  0  0  0  0
    6.5199  -16.7206   23.0809 O   0  0  0  0  0  0  0  0  0  0  0  0
   11.7948  -12.1203   18.7859 N   0  0  0  0  0  0  0  0  0  0  0  0
    8.6700  -17.3439   22.4720 C   0  0  2  0  0  0  0  0  0  0  0  0
    9.0582  -17.8200   23.7611 C   0  0  0  0  0  0  0  0  0  0  0  0
    9.8218  -19.0796   23.7608 C   0  0  0  0  0  0  0  0  0  0  0  0
   10.3064  -19.7575   24.9466 C   0  0  0  0  0  0  0  0  0  0  0  0
   11.0867  -20.9871   24.9256 C   0  0  0  0  0  0  0  0  0  0  0  0
   11.3537  -21.7060   26.1944 N   0  0  0  0  0  0  0  0  0  0  0  0
   12.0488  -22.9718   25.9459 C   0  0  0  0  0  0  0  0  0  0  0  0
    9.5156  -16.8313   24.7426 O   0  0  0  0  0  0  0  0  0  0  0  0
   10.4992  -16.0744   24.4392 N   0  0  0  0  0  0  0  0  0  0  0  0
    8.9547  -16.6315   26.0385 C   0  0  1  0  0  0  0  0  0  0  0  0
    9.6091  -15.7410   26.9737 C   0  0  0  0  0  0  0  0  0  0  0  0
    8.7092  -14.6591   27.4746 C   0  0  0  0  0  0  0  0  0  0  0  0
    8.5423  -13.5149   26.5719 C   0  0  0  0  0  0  0  0  0  0  0  0
    9.5354  -12.5568   26.5348 C   0  0  0  0  0  0  0  0  0  0  0  0
    9.3980  -11.4888   25.7073 C   0  0  0  0  0  0  0  0  0  0  0  0
    8.3009  -11.3240   24.9000 C   0  0  0  0  0  0  0  0  0  0  0  0
    7.3092  -12.2765   24.9342 C   0  0  0  0  0  0  0  0  0  0  0  0
    7.4140  -13.3690   25.7582 C   0  0  0  0  0  0  0  0  0  0  0  0
   10.1158  -16.5541   28.1112 O   0  0  0  0  0  0  0  0  0  0  0  0
   10.6934  -16.0185   29.0751 O   0  0  0  0  0  0  0  0  0  0  0  0
  1  2  1  0
  2  3  2  0
  4  2  1  0
  4  5  1  0
  6  5  1  0
  7  8  1  0
  7  6  1  0
  8  9  1  1
 10  8  1  0
 11 10  2  0
 12 10  1  0
 13 19  1  0
 13 12  1  0
 14 15  1  0
 13 14  1  6
 15 16  1  0
 17 16  1  0
 17 18  1  0
 19 21  1  0
 20 19  2  0
 21 22  1  0
 22 30  1  0
 22 23  1  1
 24 23  1  0
 24 29  2  0
 25 24  1  0
 26 25  2  0
 26 27  1  0
 27 28  2  0
 28 29  1  0
 30 31  2  0
 30 32  1  0
M  END
$$$$
