RKF.pdb
     RDKit          3D

 32 32  0  0  1  0  0  0  0  0999 V2000
    9.0183  -13.9397   14.6977 N   0  0  0  0  0  0  0  0  0  0  0  0
    9.5281  -14.6513   15.8059 C   0  0  0  0  0  0  0  0  0  0  0  0
   10.5853  -15.3854   15.6922 N   0  0  0  0  0  0  0  0  0  0  0  0
    8.8965  -14.5850   17.0870 N   0  0  0  0  0  0  0  0  0  0  0  0
    7.4834  -14.1875   17.2216 C   0  0  0  0  0  0  0  0  0  0  0  0
    7.3852  -13.3957   18.4743 C   0  0  0  0  0  0  0  0  0  0  0  0
    7.7638  -14.0708   19.7369 C   0  0  0  0  0  0  0  0  0  0  0  0
    7.4577  -15.5176   19.8545 C   0  0  2  0  0  0  0  0  0  0  0  0
    6.1896  -15.9079   19.3236 N   0  0  0  0  0  0  0  0  0  0  0  0
    7.4654  -15.8811   21.3065 C   0  0  0  0  0  0  0  0  0  0  0  0
    7.2741  -14.9978   22.2082 O   0  0  0  0  0  0  0  0  0  0  0  0
   10.9428  -16.0101   16.4196 N   0  0  0  0  0  0  0  0  0  0  0  0
    7.6869  -17.2279   21.7202 C   0  0  2  0  0  0  0  0  0  0  0  0
    7.8606  -17.6491   23.0736 C   0  0  0  0  0  0  0  0  0  0  0  0
    7.7760  -19.1031   23.2938 C   0  0  0  0  0  0  0  0  0  0  0  0
    7.9817  -19.7638   24.5672 C   0  0  0  0  0  0  0  0  0  0  0  0
    6.9972  -20.6206   25.2136 C   0  0  0  0  0  0  0  0  0  0  0  0
    7.2696  -21.1541   26.5698 N   0  0  0  0  0  0  0  0  0  0  0  0
    6.0915  -21.8347   27.1141 C   0  0  0  0  0  0  0  0  0  0  0  0
    8.8879  -16.9717   23.8709 O   0  0  0  0  0  0  0  0  0  0  0  0
   10.0614  -16.8460   23.3814 N   0  0  0  0  0  0  0  0  0  0  0  0
    8.6978  -16.4290   25.1759 C   0  0  1  0  0  0  0  0  0  0  0  0
    9.8269  -15.8769   25.8946 C   0  0  0  0  0  0  0  0  0  0  0  0
    9.9166  -14.3900   25.7843 C   0  0  0  0  0  0  0  0  0  0  0  0
    8.6747  -13.6643   26.0722 C   0  0  0  0  0  0  0  0  0  0  0  0
    8.4842  -13.1671   27.3458 C   0  0  0  0  0  0  0  0  0  0  0  0
    7.3397  -12.4946   27.6325 C   0  0  0  0  0  0  0  0  0  0  0  0
    6.3573  -12.2884   26.6972 C   0  0  0  0  0  0  0  0  0  0  0  0
    6.5435  -12.7823   25.4270 C   0  0  0  0  0  0  0  0  0  0  0  0
    7.6874  -13.4670   25.1012 C   0  0  0  0  0  0  0  0  0  0  0  0
    9.7099  -16.2791   27.3216 O   0  0  0  0  0  0  0  0  0  0  0  0
    8.7130  -16.9009   27.7327 O   0  0  0  0  0  0  0  0  0  0  0  0
  1  2  1  0
  2  3  2  0
  4  2  1  0
  4  5  1  0
  6  5  1  0
  7  8  1  0
  7  6  1  0
  8  9  1  1
 10  8  1  0
 11 10  2  0
 12 10  1  0
 13 19  1  0
 13 12  1  0
 14 15  1  0
 13 14  1  6
 15 16  1  0
 17 16  1  0
 17 18  1  0
 19 21  1  0
 20 19  2  0
 21 22  1  0
 22 30  1  0
 22 23  1  1
 24 23  1  0
 24 29  2  0
 25 24  1  0
 26 25  2  0
 26 27  1  0
 27 28  2  0
 28 29  1  0
 30 31  2  0
 30 32  1  0
M  END
$$$$
