RKF.pdb
     RDKit          3D

 32 32  0  0  1  0  0  0  0  0999 V2000
    7.7374  -14.7490   13.3943 N   0  0  0  0  0  0  0  0  0  0  0  0
    8.0237  -13.8153   14.4144 C   0  0  0  0  0  0  0  0  0  0  0  0
    8.0185  -12.5463   14.1714 N   0  0  0  0  0  0  0  0  0  0  0  0
    8.3275  -14.2384   15.7461 N   0  0  0  0  0  0  0  0  0  0  0  0
    7.2729  -14.3531   16.7697 C   0  0  0  0  0  0  0  0  0  0  0  0
    7.9438  -14.7946   18.0191 C   0  0  0  0  0  0  0  0  0  0  0  0
    7.9747  -13.8377   19.1490 C   0  0  0  0  0  0  0  0  0  0  0  0
    9.0543  -14.0030   20.1528 C   0  0  2  0  0  0  0  0  0  0  0  0
   10.2618  -14.5762   19.6468 N   0  0  0  0  0  0  0  0  0  0  0  0
    8.5516  -14.9048   21.2366 C   0  0  0  0  0  0  0  0  0  0  0  0
    7.4855  -14.6283   21.8825 O   0  0  0  0  0  0  0  0  0  0  0  0
    8.2397  -11.8200   14.8575 N   0  0  0  0  0  0  0  0  0  0  0  0
    9.2530  -16.0994   21.5757 C   0  0  1  0  0  0  0  0  0  0  0  0
    8.9266  -16.9559   22.6708 C   0  0  0  0  0  0  0  0  0  0  0  0
    9.1356  -18.3934   22.4266 C   0  0  0  0  0  0  0  0  0  0  0  0
    8.8556  -19.4475   23.3811 C   0  0  0  0  0  0  0  0  0  0  0  0
    9.1394  -20.8573   23.1507 C   0  0  0  0  0  0  0  0  0  0  0  0
    8.7419  -21.8594   24.1685 N   0  0  0  0  0  0  0  0  0  0  0  0
    9.1058  -23.2138   23.7438 C   0  0  0  0  0  0  0  0  0  0  0  0
    9.2929  -16.5081   24.0181 O   0  0  0  0  0  0  0  0  0  0  0  0
   10.4706  -16.0535   24.2151 N   0  0  0  0  0  0  0  0  0  0  0  0
    8.4386  -16.5355   25.1596 C   0  0  1  0  0  0  0  0  0  0  0  0
    8.8788  -15.9316   26.3996 C   0  0  0  0  0  0  0  0  0  0  0  0
    7.7911  -15.1883   27.1035 C   0  0  0  0  0  0  0  0  0  0  0  0
    7.4420  -13.8882   26.5209 C   0  0  0  0  0  0  0  0  0  0  0  0
    8.4300  -12.9303   26.4116 C   0  0  0  0  0  0  0  0  0  0  0  0
    8.1258  -11.7196   25.8771 C   0  0  0  0  0  0  0  0  0  0  0  0
    6.8636  -11.4090   25.4378 C   0  0  0  0  0  0  0  0  0  0  0  0
    5.8765  -12.3608   25.5450 C   0  0  0  0  0  0  0  0  0  0  0  0
    6.1472  -13.5952   26.0800 C   0  0  0  0  0  0  0  0  0  0  0  0
    9.4141  -17.0080   27.2752 O   0  0  0  0  0  0  0  0  0  0  0  0
    9.2794  -18.2077   26.9717 O   0  0  0  0  0  0  0  0  0  0  0  0
  1  2  1  0
  2  3  2  0
  4  2  1  0
  4  5  1  0
  6  5  1  0
  7  8  1  0
  7  6  1  0
  8  9  1  6
 10  8  1  0
 11 10  2  0
 12 10  1  0
 13 19  1  0
 13 12  1  0
 14 15  1  0
 13 14  1  1
 15 16  1  0
 17 16  1  0
 17 18  1  0
 19 21  1  0
 20 19  2  0
 21 22  1  0
 22 30  1  0
 22 23  1  1
 24 23  1  0
 24 29  2  0
 25 24  1  0
 26 25  2  0
 26 27  1  0
 27 28  2  0
 28 29  1  0
 30 31  2  0
 30 32  1  0
M  END
$$$$
