RKF.pdb
     RDKit          3D

 32 32  0  0  1  0  0  0  0  0999 V2000
    9.8772  -15.2900   17.7476 N   0  0  0  0  0  0  0  0  0  0  0  0
    9.8155  -13.9253   18.1054 C   0  0  0  0  0  0  0  0  0  0  0  0
   10.8823  -13.1967   18.1248 N   0  0  0  0  0  0  0  0  0  0  0  0
    8.5765  -13.3038   18.4567 N   0  0  0  0  0  0  0  0  0  0  0  0
    7.8836  -13.6396   19.7138 C   0  0  0  0  0  0  0  0  0  0  0  0
    7.5915  -15.0947   19.6588 C   0  0  0  0  0  0  0  0  0  0  0  0
    6.4831  -15.5981   20.5023 C   0  0  0  0  0  0  0  0  0  0  0  0
    6.5235  -15.2693   21.9482 C   0  0  2  0  0  0  0  0  0  0  0  0
    7.7910  -14.8123   22.4247 N   0  0  0  0  0  0  0  0  0  0  0  0
    6.1752  -16.5043   22.7190 C   0  0  0  0  0  0  0  0  0  0  0  0
    5.7708  -17.5597   22.1251 O   0  0  0  0  0  0  0  0  0  0  0  0
   10.8976  -12.1892   18.3036 N   0  0  0  0  0  0  0  0  0  0  0  0
    6.2871  -16.5330   24.1405 C   0  0  2  0  0  0  0  0  0  0  0  0
    7.2239  -17.3258   24.8707 C   0  0  0  0  0  0  0  0  0  0  0  0
    7.6017  -18.5979   24.2315 C   0  0  0  0  0  0  0  0  0  0  0  0
    8.4830  -19.5905   24.8134 C   0  0  0  0  0  0  0  0  0  0  0  0
    8.1047  -20.9741   25.0658 C   0  0  0  0  0  0  0  0  0  0  0  0
    9.1127  -21.9231   25.5962 N   0  0  0  0  0  0  0  0  0  0  0  0
    8.5027  -23.2179   25.9100 C   0  0  0  0  0  0  0  0  0  0  0  0
    8.3270  -16.6308   25.5416 O   0  0  0  0  0  0  0  0  0  0  0  0
    9.3286  -16.2522   24.8445 N   0  0  0  0  0  0  0  0  0  0  0  0
    8.3914  -16.3325   26.9346 C   0  0  1  0  0  0  0  0  0  0  0  0
    9.5107  -15.5762   27.4552 C   0  0  0  0  0  0  0  0  0  0  0  0
    9.0951  -14.3064   28.1232 C   0  0  0  0  0  0  0  0  0  0  0  0
    7.9937  -13.5879   27.4732 C   0  0  0  0  0  0  0  0  0  0  0  0
    8.2766  -12.8153   26.3647 C   0  0  0  0  0  0  0  0  0  0  0  0
    7.2708  -12.1405   25.7505 C   0  0  0  0  0  0  0  0  0  0  0  0
    5.9733  -12.1975   26.1930 C   0  0  0  0  0  0  0  0  0  0  0  0
    5.6875  -12.9663   27.2972 C   0  0  0  0  0  0  0  0  0  0  0  0
    6.6784  -13.6619   27.9434 C   0  0  0  0  0  0  0  0  0  0  0  0
   10.2497  -16.4413   28.4129 O   0  0  0  0  0  0  0  0  0  0  0  0
   11.2996  -16.0480   28.9538 O   0  0  0  0  0  0  0  0  0  0  0  0
  1  2  1  0
  2  3  2  0
  4  2  1  0
  4  5  1  0
  6  5  1  0
  7  8  1  0
  7  6  1  0
  8  9  1  1
 10  8  1  0
 11 10  2  0
 12 10  1  0
 13 19  1  0
 13 12  1  0
 14 15  1  0
 13 14  1  6
 15 16  1  0
 17 16  1  0
 17 18  1  0
 19 21  1  0
 20 19  2  0
 21 22  1  0
 22 30  1  0
 22 23  1  1
 24 23  1  0
 24 29  2  0
 25 24  1  0
 26 25  2  0
 26 27  1  0
 27 28  2  0
 28 29  1  0
 30 31  2  0
 30 32  1  0
M  END
$$$$
