RKF.pdb
     RDKit          3D

 32 32  0  0  1  0  0  0  0  0999 V2000
   12.3282  -20.3575   14.8104 N   0  0  0  0  0  0  0  0  0  0  0  0
   11.6286  -19.2158   14.3617 C   0  0  0  0  0  0  0  0  0  0  0  0
   11.7925  -18.7680   13.1609 N   0  0  0  0  0  0  0  0  0  0  0  0
   10.7179  -18.5183   15.2154 N   0  0  0  0  0  0  0  0  0  0  0  0
   10.4246  -19.0026   16.5765 C   0  0  0  0  0  0  0  0  0  0  0  0
   11.6588  -19.6717   17.0614 C   0  0  0  0  0  0  0  0  0  0  0  0
   12.3607  -19.0541   18.2100 C   0  0  0  0  0  0  0  0  0  0  0  0
   12.0302  -19.5623   19.5639 C   0  0  2  0  0  0  0  0  0  0  0  0
   10.8155  -20.3109   19.6441 N   0  0  0  0  0  0  0  0  0  0  0  0
   11.8938  -18.3893   20.4837 C   0  0  0  0  0  0  0  0  0  0  0  0
   12.7824  -17.4732   20.5199 O   0  0  0  0  0  0  0  0  0  0  0  0
   11.3316  -17.9375   12.7799 N   0  0  0  0  0  0  0  0  0  0  0  0
   10.7638  -18.2650   21.3450 C   0  0  1  0  0  0  0  0  0  0  0  0
   10.6197  -17.2781   22.3670 C   0  0  0  0  0  0  0  0  0  0  0  0
    9.5489  -16.2924   22.1405 C   0  0  0  0  0  0  0  0  0  0  0  0
    9.1666  -15.2519   23.0741 C   0  0  0  0  0  0  0  0  0  0  0  0
    8.0762  -14.3123   22.8516 C   0  0  0  0  0  0  0  0  0  0  0  0
    7.7429  -13.3171   23.8987 N   0  0  0  0  0  0  0  0  0  0  0  0
    6.5842  -12.5098   23.5077 C   0  0  0  0  0  0  0  0  0  0  0  0
   10.7604  -17.7147   23.7597 O   0  0  0  0  0  0  0  0  0  0  0  0
    9.8844  -18.5075   24.2461 N   0  0  0  0  0  0  0  0  0  0  0  0
   11.8070  -17.3257   24.6468 C   0  0  2  0  0  0  0  0  0  0  0  0
   11.4812  -16.8392   25.9709 C   0  0  0  0  0  0  0  0  0  0  0  0
   11.2122  -15.3702   26.0014 C   0  0  0  0  0  0  0  0  0  0  0  0
   10.7116  -14.8513   27.2789 C   0  0  0  0  0  0  0  0  0  0  0  0
   11.5764  -14.8054   28.3539 C   0  0  0  0  0  0  0  0  0  0  0  0
   11.1308  -14.3305   29.5456 C   0  0  0  0  0  0  0  0  0  0  0  0
    9.8434  -13.8910   29.7239 C   0  0  0  0  0  0  0  0  0  0  0  0
    8.9787  -13.9352   28.6551 C   0  0  0  0  0  0  0  0  0  0  0  0
    9.3939  -14.4088   27.4358 C   0  0  0  0  0  0  0  0  0  0  0  0
   10.2935  -17.5882   26.4609 O   0  0  0  0  0  0  0  0  0  0  0  0
    9.2536  -17.6575   25.7804 O   0  0  0  0  0  0  0  0  0  0  0  0
  1  2  1  0
  2  3  2  0
  4  2  1  0
  4  5  1  0
  6  5  1  0
  7  8  1  0
  7  6  1  0
  8  9  1  6
 10  8  1  0
 11 10  2  0
 12 10  1  0
 13 19  1  0
 13 12  1  0
 14 15  1  0
 13 14  1  1
 15 16  1  0
 17 16  1  0
 17 18  1  0
 19 21  1  0
 20 19  2  0
 21 22  1  0
 22 30  1  0
 22 23  1  6
 24 23  1  0
 24 29  2  0
 25 24  1  0
 26 25  2  0
 26 27  1  0
 27 28  2  0
 28 29  1  0
 30 31  2  0
 30 32  1  0
M  END
$$$$
