RKF.pdb
     RDKit          3D

 32 32  0  0  1  0  0  0  0  0999 V2000
    7.2936  -13.8528   16.3174 N   0  0  0  0  0  0  0  0  0  0  0  0
    8.5337  -14.1771   16.9100 C   0  0  0  0  0  0  0  0  0  0  0  0
    9.3546  -14.9871   16.3272 N   0  0  0  0  0  0  0  0  0  0  0  0
    8.9238  -13.6234   18.1693 N   0  0  0  0  0  0  0  0  0  0  0  0
    7.9415  -12.9692   19.0526 C   0  0  0  0  0  0  0  0  0  0  0  0
    7.0651  -14.0462   19.5797 C   0  0  0  0  0  0  0  0  0  0  0  0
    7.3661  -14.5666   20.9332 C   0  0  0  0  0  0  0  0  0  0  0  0
    8.7855  -14.8584   21.2510 C   0  0  2  0  0  0  0  0  0  0  0  0
    9.4213  -15.7822   20.3651 N   0  0  0  0  0  0  0  0  0  0  0  0
    8.8460  -15.4447   22.6269 C   0  0  0  0  0  0  0  0  0  0  0  0
    8.0909  -15.0126   23.5613 O   0  0  0  0  0  0  0  0  0  0  0  0
   10.2674  -15.2608   16.7001 N   0  0  0  0  0  0  0  0  0  0  0  0
    9.7514  -16.5044   22.9292 C   0  0  2  0  0  0  0  0  0  0  0  0
    9.8458  -17.1633   24.1926 C   0  0  0  0  0  0  0  0  0  0  0  0
   10.5333  -18.4659   24.1708 C   0  0  0  0  0  0  0  0  0  0  0  0
   10.3644  -19.4773   23.1466 C   0  0  0  0  0  0  0  0  0  0  0  0
   11.0947  -20.7369   23.1114 C   0  0  0  0  0  0  0  0  0  0  0  0
   10.8272  -21.7076   22.0232 N   0  0  0  0  0  0  0  0  0  0  0  0
   11.6409  -22.9156   22.1836 C   0  0  0  0  0  0  0  0  0  0  0  0
   10.1395  -16.3399   25.3696 O   0  0  0  0  0  0  0  0  0  0  0  0
   11.1049  -15.5050   25.3096 N   0  0  0  0  0  0  0  0  0  0  0  0
    9.4341  -16.3858   26.6082 C   0  0  1  0  0  0  0  0  0  0  0  0
    9.9163  -15.6183   27.7372 C   0  0  0  0  0  0  0  0  0  0  0  0
    8.8594  -14.7601   28.3517 C   0  0  0  0  0  0  0  0  0  0  0  0
    8.2542  -13.7713   27.4530 C   0  0  0  0  0  0  0  0  0  0  0  0
    7.0799  -14.1020   26.8071 C   0  0  0  0  0  0  0  0  0  0  0  0
    6.5056  -13.2007   25.9692 C   0  0  0  0  0  0  0  0  0  0  0  0
    7.0522  -11.9637   25.7378 C   0  0  0  0  0  0  0  0  0  0  0  0
    8.2223  -11.6305   26.3795 C   0  0  0  0  0  0  0  0  0  0  0  0
    8.8310  -12.5160   27.2333 C   0  0  0  0  0  0  0  0  0  0  0  0
   10.4570  -16.5676   28.7462 O   0  0  0  0  0  0  0  0  0  0  0  0
   10.3877  -17.7980   28.5708 O   0  0  0  0  0  0  0  0  0  0  0  0
  1  2  1  0
  2  3  2  0
  4  2  1  0
  4  5  1  0
  6  5  1  0
  7  8  1  0
  7  6  1  0
  8  9  1  6
 10  8  1  0
 11 10  2  0
 12 10  1  0
 13 19  1  0
 13 12  1  0
 14 15  1  0
 13 14  1  6
 15 16  1  0
 17 16  1  0
 17 18  1  0
 19 21  1  0
 20 19  2  0
 21 22  1  0
 22 30  1  0
 22 23  1  1
 24 23  1  0
 24 29  2  0
 25 24  1  0
 26 25  2  0
 26 27  1  0
 27 28  2  0
 28 29  1  0
 30 31  2  0
 30 32  1  0
M  END
$$$$
