RKF.pdb
     RDKit          3D

 32 32  0  0  1  0  0  0  0  0999 V2000
    6.7741  -13.1885   18.8509 N   0  0  0  0  0  0  0  0  0  0  0  0
    7.8916  -13.1783   17.9876 C   0  0  0  0  0  0  0  0  0  0  0  0
    8.1116  -12.1775   17.2006 N   0  0  0  0  0  0  0  0  0  0  0  0
    8.8155  -14.2692   17.9539 N   0  0  0  0  0  0  0  0  0  0  0  0
    8.5286  -15.5342   18.6542 C   0  0  0  0  0  0  0  0  0  0  0  0
    8.9787  -15.3511   20.0577 C   0  0  0  0  0  0  0  0  0  0  0  0
    8.9153  -16.5302   20.9516 C   0  0  0  0  0  0  0  0  0  0  0  0
    7.5697  -17.0266   21.3305 C   0  0  2  0  0  0  0  0  0  0  0  0
    6.4819  -16.2184   20.8766 N   0  0  0  0  0  0  0  0  0  0  0  0
    7.4940  -17.0796   22.8245 C   0  0  0  0  0  0  0  0  0  0  0  0
    6.8400  -16.2027   23.4828 O   0  0  0  0  0  0  0  0  0  0  0  0
    8.8970  -12.1100   16.5481 N   0  0  0  0  0  0  0  0  0  0  0  0
    8.1525  -18.1145   23.5522 C   0  0  1  0  0  0  0  0  0  0  0  0
    8.2877  -18.1557   24.9732 C   0  0  0  0  0  0  0  0  0  0  0  0
    7.8365  -19.4049   25.6101 C   0  0  0  0  0  0  0  0  0  0  0  0
    7.8517  -19.6627   27.0362 C   0  0  0  0  0  0  0  0  0  0  0  0
    7.4457  -20.9220   27.6451 C   0  0  0  0  0  0  0  0  0  0  0  0
    7.3901  -21.0360   29.1222 N   0  0  0  0  0  0  0  0  0  0  0  0
    7.0052  -22.3894   29.5315 C   0  0  0  0  0  0  0  0  0  0  0  0
    9.5016  -17.5781   25.5586 O   0  0  0  0  0  0  0  0  0  0  0  0
   10.4638  -18.3584   25.8714 N   0  0  0  0  0  0  0  0  0  0  0  0
    9.7144  -16.1928   25.8221 C   0  0  2  0  0  0  0  0  0  0  0  0
    9.6375  -15.7012   27.1817 C   0  0  0  0  0  0  0  0  0  0  0  0
    8.2429  -15.3726   27.6039 C   0  0  0  0  0  0  0  0  0  0  0  0
    7.6887  -14.1409   27.0314 C   0  0  0  0  0  0  0  0  0  0  0  0
    6.4411  -14.1931   26.4430 C   0  0  0  0  0  0  0  0  0  0  0  0
    5.9121  -13.0638   25.9052 C   0  0  0  0  0  0  0  0  0  0  0  0
    6.5755  -11.8630   25.9243 C   0  0  0  0  0  0  0  0  0  0  0  0
    7.8189  -11.8071   26.5097 C   0  0  0  0  0  0  0  0  0  0  0  0
    8.3849  -12.9281   27.0632 C   0  0  0  0  0  0  0  0  0  0  0  0
   10.2158  -16.7343   28.0817 O   0  0  0  0  0  0  0  0  0  0  0  0
   11.0997  -16.4425   28.9082 O   0  0  0  0  0  0  0  0  0  0  0  0
  1  2  1  0
  2  3  2  0
  4  2  1  0
  4  5  1  0
  6  5  1  0
  7  8  1  0
  7  6  1  0
  8  9  1  1
 10  8  1  0
 11 10  2  0
 12 10  1  0
 13 19  1  0
 13 12  1  0
 14 15  1  0
 13 14  1  1
 15 16  1  0
 17 16  1  0
 17 18  1  0
 19 21  1  0
 20 19  2  0
 21 22  1  0
 22 30  1  0
 22 23  1  6
 24 23  1  0
 24 29  2  0
 25 24  1  0
 26 25  2  0
 26 27  1  0
 27 28  2  0
 28 29  1  0
 30 31  2  0
 30 32  1  0
M  END
$$$$
