RKF.pdb
     RDKit          3D

 32 32  0  0  1  0  0  0  0  0999 V2000
    8.8572  -15.5400   16.7210 N   0  0  0  0  0  0  0  0  0  0  0  0
    8.5193  -14.2357   16.2983 C   0  0  0  0  0  0  0  0  0  0  0  0
    8.3715  -13.9633   15.0439 N   0  0  0  0  0  0  0  0  0  0  0  0
    8.3289  -13.1750   17.2382 N   0  0  0  0  0  0  0  0  0  0  0  0
    8.4294  -13.4141   18.6894 C   0  0  0  0  0  0  0  0  0  0  0  0
    7.1797  -14.1096   19.0900 C   0  0  0  0  0  0  0  0  0  0  0  0
    7.0835  -14.5826   20.4901 C   0  0  0  0  0  0  0  0  0  0  0  0
    8.2278  -15.3588   21.0274 C   0  0  2  0  0  0  0  0  0  0  0  0
    8.4655  -16.6076   20.3744 N   0  0  0  0  0  0  0  0  0  0  0  0
    7.9577  -15.6531   22.4700 C   0  0  0  0  0  0  0  0  0  0  0  0
    7.4249  -14.7786   23.2325 O   0  0  0  0  0  0  0  0  0  0  0  0
    8.2114  -13.0262   14.6653 N   0  0  0  0  0  0  0  0  0  0  0  0
    8.2894  -16.9220   23.0302 C   0  0  1  0  0  0  0  0  0  0  0  0
    8.2849  -17.2257   24.4256 C   0  0  0  0  0  0  0  0  0  0  0  0
    7.8987  -18.6058   24.7658 C   0  0  0  0  0  0  0  0  0  0  0  0
    7.8113  -19.1361   26.1118 C   0  0  0  0  0  0  0  0  0  0  0  0
    7.4516  -20.5115   26.4283 C   0  0  0  0  0  0  0  0  0  0  0  0
    7.3282  -20.9278   27.8458 N   0  0  0  0  0  0  0  0  0  0  0  0
    7.1548  -22.3788   27.9551 C   0  0  0  0  0  0  0  0  0  0  0  0
    9.3704  -16.6780   25.2450 O   0  0  0  0  0  0  0  0  0  0  0  0
   10.3554  -17.4347   25.5447 N   0  0  0  0  0  0  0  0  0  0  0  0
    9.4313  -15.3478   25.7554 C   0  0  1  0  0  0  0  0  0  0  0  0
    9.7218  -15.1298   27.1569 C   0  0  0  0  0  0  0  0  0  0  0  0
    8.5607  -14.5702   27.9119 C   0  0  0  0  0  0  0  0  0  0  0  0
    7.8291  -13.4966   27.2308 C   0  0  0  0  0  0  0  0  0  0  0  0
    6.4639  -13.4114   27.4160 C   0  0  0  0  0  0  0  0  0  0  0  0
    5.7686  -12.4259   26.7918 C   0  0  0  0  0  0  0  0  0  0  0  0
    6.3760  -11.5037   25.9774 C   0  0  0  0  0  0  0  0  0  0  0  0
    7.7363  -11.5853   25.7904 C   0  0  0  0  0  0  0  0  0  0  0  0
    8.4713  -12.5680   26.4049 C   0  0  0  0  0  0  0  0  0  0  0  0
   10.1422  -16.4270   27.7505 O   0  0  0  0  0  0  0  0  0  0  0  0
   10.1261  -17.4747   27.0786 O   0  0  0  0  0  0  0  0  0  0  0  0
  1  2  1  0
  2  3  2  0
  4  2  1  0
  4  5  1  0
  6  5  1  0
  7  8  1  0
  7  6  1  0
  8  9  1  6
 10  8  1  0
 11 10  2  0
 12 10  1  0
 13 19  1  0
 13 12  1  0
 14 15  1  0
 13 14  1  1
 15 16  1  0
 17 16  1  0
 17 18  1  0
 19 21  1  0
 20 19  2  0
 21 22  1  0
 22 30  1  0
 22 23  1  1
 24 23  1  0
 24 29  2  0
 25 24  1  0
 26 25  2  0
 26 27  1  0
 27 28  2  0
 28 29  1  0
 30 31  2  0
 30 32  1  0
M  END
$$$$
