RKF.pdb
     RDKit          3D

 32 32  0  0  1  0  0  0  0  0999 V2000
    9.7017  -14.5513   15.1503 N   0  0  0  0  0  0  0  0  0  0  0  0
    8.4301  -14.3031   15.7122 C   0  0  0  0  0  0  0  0  0  0  0  0
    7.4485  -15.1200   15.5161 N   0  0  0  0  0  0  0  0  0  0  0  0
    8.1845  -13.1453   16.5146 N   0  0  0  0  0  0  0  0  0  0  0  0
    8.4366  -13.1557   17.9669 C   0  0  0  0  0  0  0  0  0  0  0  0
    7.1515  -13.5210   18.6157 C   0  0  0  0  0  0  0  0  0  0  0  0
    7.2225  -14.2481   19.9039 C   0  0  0  0  0  0  0  0  0  0  0  0
    8.5527  -14.7445   20.3339 C   0  0  2  0  0  0  0  0  0  0  0  0
    9.1337  -15.7267   19.4735 N   0  0  0  0  0  0  0  0  0  0  0  0
    8.4050  -15.3669   21.6871 C   0  0  0  0  0  0  0  0  0  0  0  0
    7.8375  -14.7390   22.6430 O   0  0  0  0  0  0  0  0  0  0  0  0
    6.4874  -14.9635   15.8311 N   0  0  0  0  0  0  0  0  0  0  0  0
    8.8959  -16.6813   21.9432 C   0  0  1  0  0  0  0  0  0  0  0  0
    8.9668  -17.2904   23.2328 C   0  0  0  0  0  0  0  0  0  0  0  0
    9.3386  -18.7157   23.2337 C   0  0  0  0  0  0  0  0  0  0  0  0
    9.3806  -19.5625   24.4091 C   0  0  0  0  0  0  0  0  0  0  0  0
    9.7865  -20.9613   24.3965 C   0  0  0  0  0  0  0  0  0  0  0  0
    9.7278  -21.7514   25.6496 N   0  0  0  0  0  0  0  0  0  0  0  0
   10.2442  -23.1069   25.4418 C   0  0  0  0  0  0  0  0  0  0  0  0
    9.5548  -16.5075   24.3242 O   0  0  0  0  0  0  0  0  0  0  0  0
    9.9407  -15.3132   24.0846 N   0  0  0  0  0  0  0  0  0  0  0  0
    9.7451  -16.9652   25.6614 C   0  0  1  0  0  0  0  0  0  0  0  0
    9.3754  -16.1120   26.7710 C   0  0  0  0  0  0  0  0  0  0  0  0
    7.9355  -15.7152   26.7457 C   0  0  0  0  0  0  0  0  0  0  0  0
    7.6810  -14.2977   26.4665 C   0  0  0  0  0  0  0  0  0  0  0  0
    8.1189  -13.3592   27.3791 C   0  0  0  0  0  0  0  0  0  0  0  0
    7.8906  -12.0421   27.1396 C   0  0  0  0  0  0  0  0  0  0  0  0
    7.2358  -11.6046   26.0160 C   0  0  0  0  0  0  0  0  0  0  0  0
    6.7979  -12.5368   25.1044 C   0  0  0  0  0  0  0  0  0  0  0  0
    7.0109  -13.8764   25.3133 C   0  0  0  0  0  0  0  0  0  0  0  0
    9.6865  -16.8329   28.0340 O   0  0  0  0  0  0  0  0  0  0  0  0
    9.5352  -16.2826   29.1403 O   0  0  0  0  0  0  0  0  0  0  0  0
  1  2  1  0
  2  3  2  0
  4  2  1  0
  4  5  1  0
  6  5  1  0
  7  8  1  0
  7  6  1  0
  8  9  1  6
 10  8  1  0
 11 10  2  0
 12 10  1  0
 13 19  1  0
 13 12  1  0
 14 15  1  0
 13 14  1  1
 15 16  1  0
 17 16  1  0
 17 18  1  0
 19 21  1  0
 20 19  2  0
 21 22  1  0
 22 30  1  0
 22 23  1  1
 24 23  1  0
 24 29  2  0
 25 24  1  0
 26 25  2  0
 26 27  1  0
 27 28  2  0
 28 29  1  0
 30 31  2  0
 30 32  1  0
M  END
$$$$
