DKL.pdb
     RDKit          3D

 26 25  0  0  1  0  0  0  0  0999 V2000
   22.8426  -19.4899  -14.8302 N   0  0  0  0  0  0  0  0  0  0  0  0
   22.9436  -19.2746  -13.4183 C   0  0  1  0  0  0  0  0  0  0  0  0
   21.5827  -19.1804  -12.7755 C   0  0  0  0  0  0  0  0  0  0  0  0
   20.5269  -18.9657  -13.7702 C   0  0  0  0  0  0  0  0  0  0  0  0
   20.7510  -18.2449  -14.7976 O   0  0  0  0  0  0  0  0  0  0  0  0
   23.7877  -20.3310  -12.8180 C   0  0  0  0  0  0  0  0  0  0  0  0
   23.2676  -21.3869  -12.3494 O   0  0  0  0  0  0  0  0  0  0  0  0
   19.2605  -19.5312  -13.6334 O   0  0  0  0  0  0  0  0  0  0  0  0
   25.1925  -20.1489  -12.7711 N   0  0  0  0  0  0  0  0  0  0  0  0
   26.0631  -21.2000  -12.2789 C   0  0  1  0  0  0  0  0  0  0  0  0
   27.3489  -21.0929  -13.0987 C   0  0  0  0  0  0  0  0  0  0  0  0
   27.0918  -21.5816  -14.4878 C   0  0  0  0  0  0  0  0  0  0  0  0
   28.3297  -21.5620  -15.3179 C   0  0  0  0  0  0  0  0  0  0  0  0
   28.0616  -22.0473  -16.7134 C   0  0  0  0  0  0  0  0  0  0  0  0
   29.2762  -21.9902  -17.5230 N   0  0  0  0  0  0  0  0  0  0  0  0
   26.3744  -20.9398  -10.8624 C   0  0  0  0  0  0  0  0  0  0  0  0
   27.4874  -20.4129  -10.5761 O   0  0  0  0  0  0  0  0  0  0  0  0
   27.8872  -18.1075   -7.1650 C   0  0  0  0  0  0  0  0  0  0  0  0
   27.6413  -19.4063   -7.8523 C   0  0  1  0  0  0  0  0  0  0  0  0
   28.2841  -20.5394   -7.0451 C   0  0  0  0  0  0  0  0  0  0  0  0
   26.2734  -19.7269   -8.2775 C   0  0  0  0  0  0  0  0  0  0  0  0
   25.8006  -21.1142   -8.4027 C   0  0  2  0  0  0  0  0  0  0  0  0
   25.4777  -21.2597   -9.8569 N   0  0  0  0  0  0  0  0  0  0  0  0
   24.6631  -21.5756   -7.6438 C   0  0  0  0  0  0  0  0  0  0  0  0
   24.8171  -22.1553   -6.3691 O   0  0  0  0  0  0  0  0  0  0  0  0
   23.4934  -21.4934   -8.0578 O   0  0  0  0  0  0  0  0  0  0  0  0
  2  6  1  0
  2  1  1  6
  3  2  1  0
  4  3  1  0
  5  4  2  0
  6  7  2  0
  8  4  1  0
  9 10  1  0
  9  6  1  0
 11 12  1  0
 10 11  1  6
 12 13  1  0
 13 14  1  0
 14 15  1  0
 16 10  1  0
 16 17  2  0
 19 21  1  0
 19 18  1  1
 20 19  1  0
 22 21  1  6
 22 23  1  0
 22 24  1  0
 23 16  1  0
 24 26  2  0
 24 25  1  0
M  END
$$$$
