DKL.pdb
     RDKit          3D

 26 25  0  0  1  0  0  0  0  0999 V2000
   16.6123  -18.1946  -17.3813 N   0  0  0  0  0  0  0  0  0  0  0  0
   17.6187  -17.3038  -16.8878 C   0  0  1  0  0  0  0  0  0  0  0  0
   18.9899  -17.6928  -17.3802 C   0  0  0  0  0  0  0  0  0  0  0  0
   19.3931  -19.0100  -16.8776 C   0  0  0  0  0  0  0  0  0  0  0  0
   18.6494  -19.6368  -16.0534 O   0  0  0  0  0  0  0  0  0  0  0  0
   17.2591  -15.9119  -17.2376 C   0  0  0  0  0  0  0  0  0  0  0  0
   17.2744  -15.5228  -18.4432 O   0  0  0  0  0  0  0  0  0  0  0  0
   20.5834  -19.6167  -17.2742 O   0  0  0  0  0  0  0  0  0  0  0  0
   16.8957  -15.0122  -16.2045 N   0  0  0  0  0  0  0  0  0  0  0  0
   16.3981  -13.6851  -16.5143 C   0  0  1  0  0  0  0  0  0  0  0  0
   15.0718  -13.5529  -15.7657 C   0  0  0  0  0  0  0  0  0  0  0  0
   14.5005  -12.1930  -16.0082 C   0  0  0  0  0  0  0  0  0  0  0  0
   13.2944  -11.9433  -15.1689 C   0  0  0  0  0  0  0  0  0  0  0  0
   12.6814  -10.6069  -15.4739 C   0  0  0  0  0  0  0  0  0  0  0  0
   11.6360  -10.2843  -14.5059 N   0  0  0  0  0  0  0  0  0  0  0  0
   17.3453  -12.6845  -15.9921 C   0  0  0  0  0  0  0  0  0  0  0  0
   17.7848  -12.8262  -14.8152 O   0  0  0  0  0  0  0  0  0  0  0  0
   20.3822   -9.5418  -19.6291 C   0  0  0  0  0  0  0  0  0  0  0  0
   20.0424  -10.3552  -18.4280 C   0  0  1  0  0  0  0  0  0  0  0  0
   21.3333  -10.8396  -17.7591 C   0  0  0  0  0  0  0  0  0  0  0  0
   19.0801   -9.8116  -17.4620 C   0  0  0  0  0  0  0  0  0  0  0  0
   18.6849  -10.5522  -16.2540 C   0  0  2  0  0  0  0  0  0  0  0  0
   17.7537  -11.6082  -16.7618 N   0  0  0  0  0  0  0  0  0  0  0  0
   18.0380   -9.8766  -15.1549 C   0  0  0  0  0  0  0  0  0  0  0  0
   18.7829   -9.2163  -14.1581 O   0  0  0  0  0  0  0  0  0  0  0  0
   16.8028   -9.8337  -15.0182 O   0  0  0  0  0  0  0  0  0  0  0  0
  2  6  1  0
  2  1  1  6
  3  2  1  0
  4  3  1  0
  5  4  2  0
  6  7  2  0
  8  4  1  0
  9 10  1  0
  9  6  1  0
 11 12  1  0
 10 11  1  1
 12 13  1  0
 13 14  1  0
 14 15  1  0
 16 10  1  0
 16 17  2  0
 19 21  1  0
 19 18  1  6
 20 19  1  0
 22 21  1  6
 22 23  1  0
 22 24  1  0
 23 16  1  0
 24 26  2  0
 24 25  1  0
M  END
$$$$
