DKL.pdb
     RDKit          3D

 26 25  0  0  1  0  0  0  0  0999 V2000
   18.9696  -14.8441  -17.8332 N   0  0  0  0  0  0  0  0  0  0  0  0
   18.3642  -13.7580  -17.1233 C   0  0  1  0  0  0  0  0  0  0  0  0
   18.1818  -14.0865  -15.6628 C   0  0  0  0  0  0  0  0  0  0  0  0
   17.1224  -15.0795  -15.4586 C   0  0  0  0  0  0  0  0  0  0  0  0
   16.9849  -15.6464  -14.3250 O   0  0  0  0  0  0  0  0  0  0  0  0
   19.1562  -12.5269  -17.3379 C   0  0  0  0  0  0  0  0  0  0  0  0
   20.4222  -12.5570  -17.3017 O   0  0  0  0  0  0  0  0  0  0  0  0
   16.2407  -15.4355  -16.4775 O   0  0  0  0  0  0  0  0  0  0  0  0
   18.4806  -11.3057  -17.5853 N   0  0  0  0  0  0  0  0  0  0  0  0
   19.2197  -10.0950  -17.8904 C   0  0  1  0  0  0  0  0  0  0  0  0
   18.2126   -9.1454  -18.5392 C   0  0  0  0  0  0  0  0  0  0  0  0
   18.1437   -9.4247  -20.0062 C   0  0  0  0  0  0  0  0  0  0  0  0
   17.1889   -8.5127  -20.6975 C   0  0  0  0  0  0  0  0  0  0  0  0
   17.0886   -8.8317  -22.1614 C   0  0  0  0  0  0  0  0  0  0  0  0
   16.2819   -7.8304  -22.8548 N   0  0  0  0  0  0  0  0  0  0  0  0
   19.7004   -9.4975  -16.6322 C   0  0  0  0  0  0  0  0  0  0  0  0
   18.9327   -9.5069  -15.6278 O   0  0  0  0  0  0  0  0  0  0  0  0
   24.4887  -10.7032  -14.4855 C   0  0  0  0  0  0  0  0  0  0  0  0
   23.0847  -10.2136  -14.5789 C   0  0  1  0  0  0  0  0  0  0  0  0
   22.3853  -10.4122  -13.2298 C   0  0  0  0  0  0  0  0  0  0  0  0
   22.8426   -8.8812  -15.1453 C   0  0  0  0  0  0  0  0  0  0  0  0
   21.4876   -8.3239  -15.2763 C   0  0  2  0  0  0  0  0  0  0  0  0
   20.9622   -8.9350  -16.5375 N   0  0  0  0  0  0  0  0  0  0  0  0
   21.2823   -6.8974  -15.3513 C   0  0  0  0  0  0  0  0  0  0  0  0
   21.2743   -6.0947  -14.1937 O   0  0  0  0  0  0  0  0  0  0  0  0
   21.1021   -6.2939  -16.4236 O   0  0  0  0  0  0  0  0  0  0  0  0
  2  6  1  0
  2  1  1  6
  3  2  1  0
  4  3  1  0
  5  4  2  0
  6  7  2  0
  8  4  1  0
  9 10  1  0
  9  6  1  0
 11 12  1  0
 10 11  1  1
 12 13  1  0
 13 14  1  0
 14 15  1  0
 16 10  1  0
 16 17  2  0
 19 21  1  0
 19 18  1  1
 20 19  1  0
 22 21  1  6
 22 23  1  0
 22 24  1  0
 23 16  1  0
 24 26  2  0
 24 25  1  0
M  END
$$$$
