DKL.pdb
     RDKit          3D

 26 25  0  0  1  0  0  0  0  0999 V2000
   18.5533  -22.7332  -13.5338 N   0  0  0  0  0  0  0  0  0  0  0  0
   19.4898  -21.7105  -13.8899 C   0  0  1  0  0  0  0  0  0  0  0  0
   19.1556  -20.3996  -13.2234 C   0  0  0  0  0  0  0  0  0  0  0  0
   17.9444  -19.7970  -13.7890 C   0  0  0  0  0  0  0  0  0  0  0  0
   17.5915  -20.0677  -14.9838 O   0  0  0  0  0  0  0  0  0  0  0  0
   20.8624  -22.1723  -13.5874 C   0  0  0  0  0  0  0  0  0  0  0  0
   21.2134  -22.4224  -12.3960 O   0  0  0  0  0  0  0  0  0  0  0  0
   17.1467  -18.9207  -13.0556 O   0  0  0  0  0  0  0  0  0  0  0  0
   21.7869  -22.3326  -14.6497 N   0  0  0  0  0  0  0  0  0  0  0  0
   23.1679  -22.6911  -14.3866 C   0  0  1  0  0  0  0  0  0  0  0  0
   23.6887  -23.3172  -15.6803 C   0  0  0  0  0  0  0  0  0  0  0  0
   25.0312  -23.9251  -15.4299 C   0  0  0  0  0  0  0  0  0  0  0  0
   25.5567  -24.6200  -16.6392 C   0  0  0  0  0  0  0  0  0  0  0  0
   26.8840  -25.2671  -16.3662 C   0  0  0  0  0  0  0  0  0  0  0  0
   27.3808  -25.9509  -17.5577 N   0  0  0  0  0  0  0  0  0  0  0  0
   23.9353  -21.4654  -14.1042 C   0  0  0  0  0  0  0  0  0  0  0  0
   23.3392  -20.4922  -13.5603 O   0  0  0  0  0  0  0  0  0  0  0  0
   25.7643  -21.7048   -9.7826 C   0  0  0  0  0  0  0  0  0  0  0  0
   25.4570  -21.0878  -11.1034 C   0  0  1  0  0  0  0  0  0  0  0  0
   25.4503  -19.5616  -10.9634 C   0  0  0  0  0  0  0  0  0  0  0  0
   26.2086  -21.5396  -12.2806 C   0  0  0  0  0  0  0  0  0  0  0  0
   26.2865  -20.7374  -13.5112 C   0  0  2  0  0  0  0  0  0  0  0  0
   25.2796  -21.3676  -14.4217 N   0  0  0  0  0  0  0  0  0  0  0  0
   27.5298  -20.6172  -14.2341 C   0  0  0  0  0  0  0  0  0  0  0  0
   28.3750  -19.5036  -14.0614 O   0  0  0  0  0  0  0  0  0  0  0  0
   27.9293  -21.4735  -15.0425 O   0  0  0  0  0  0  0  0  0  0  0  0
  2  6  1  0
  2  1  1  1
  3  2  1  0
  4  3  1  0
  5  4  2  0
  6  7  2  0
  8  4  1  0
  9 10  1  0
  9  6  1  0
 11 12  1  0
 10 11  1  6
 12 13  1  0
 13 14  1  0
 14 15  1  0
 16 10  1  0
 16 17  2  0
 19 21  1  0
 19 18  1  1
 20 19  1  0
 22 21  1  1
 22 23  1  0
 22 24  1  0
 23 16  1  0
 24 26  2  0
 24 25  1  0
M  END
$$$$
