DKL.pdb
     RDKit          3D

 26 25  0  0  1  0  0  0  0  0999 V2000
   23.6581  -38.7331   -7.0616 N   0  0  0  0  0  0  0  0  0  0  0  0
   22.9703  -37.9991   -6.0428 C   0  0  1  0  0  0  0  0  0  0  0  0
   22.4741  -38.9084   -4.9469 C   0  0  0  0  0  0  0  0  0  0  0  0
   21.3489  -39.7346   -5.3957 C   0  0  0  0  0  0  0  0  0  0  0  0
   20.8527  -40.6173   -4.6212 O   0  0  0  0  0  0  0  0  0  0  0  0
   23.8462  -36.9192   -5.5371 C   0  0  0  0  0  0  0  0  0  0  0  0
   25.0231  -37.1719   -5.1420 O   0  0  0  0  0  0  0  0  0  0  0  0
   20.7887  -39.5895   -6.6635 O   0  0  0  0  0  0  0  0  0  0  0  0
   23.3528  -35.5912   -5.4981 N   0  0  0  0  0  0  0  0  0  0  0  0
   24.1982  -34.4956   -5.0622 C   0  0  1  0  0  0  0  0  0  0  0  0
   23.5548  -33.2262   -5.6202 C   0  0  0  0  0  0  0  0  0  0  0  0
   23.7715  -33.1708   -7.0983 C   0  0  0  0  0  0  0  0  0  0  0  0
   25.1670  -32.7717   -7.4370 C   0  0  0  0  0  0  0  0  0  0  0  0
   25.3425  -32.5952   -8.9178 C   0  0  0  0  0  0  0  0  0  0  0  0
   26.6612  -32.0443   -9.2203 N   0  0  0  0  0  0  0  0  0  0  0  0
   24.1816  -34.4344   -3.5900 C   0  0  0  0  0  0  0  0  0  0  0  0
   23.0720  -34.5445   -2.9941 O   0  0  0  0  0  0  0  0  0  0  0  0
   23.8265  -37.2074    0.6774 C   0  0  0  0  0  0  0  0  0  0  0  0
   23.9660  -35.8299    0.1272 C   0  0  1  0  0  0  0  0  0  0  0  0
   24.2497  -34.8507    1.2715 C   0  0  0  0  0  0  0  0  0  0  0  0
   24.8536  -35.6206   -1.0230 C   0  0  0  0  0  0  0  0  0  0  0  0
   25.3845  -34.2925   -1.3668 C   0  0  2  0  0  0  0  0  0  0  0  0
   25.3471  -34.2608   -2.8628 N   0  0  0  0  0  0  0  0  0  0  0  0
   26.7061  -33.8958   -0.9441 C   0  0  0  0  0  0  0  0  0  0  0  0
   27.7719  -33.7991   -1.8601 O   0  0  0  0  0  0  0  0  0  0  0  0
   26.9858  -33.6185    0.2354 O   0  0  0  0  0  0  0  0  0  0  0  0
  2  6  1  0
  2  1  1  6
  3  2  1  0
  4  3  1  0
  5  4  2  0
  6  7  2  0
  8  4  1  0
  9 10  1  0
  9  6  1  0
 11 12  1  0
 10 11  1  6
 12 13  1  0
 13 14  1  0
 14 15  1  0
 16 10  1  0
 16 17  2  0
 19 21  1  0
 19 18  1  1
 20 19  1  0
 22 21  1  6
 22 23  1  0
 22 24  1  0
 23 16  1  0
 24 26  2  0
 24 25  1  0
M  END
$$$$
