DKL.pdb
     RDKit          3D

 26 25  0  0  1  0  0  0  0  0999 V2000
   26.7255  -19.8826  -16.3214 N   0  0  0  0  0  0  0  0  0  0  0  0
   26.8957  -20.8060  -15.2406 C   0  0  1  0  0  0  0  0  0  0  0  0
   28.3407  -21.2063  -15.0789 C   0  0  0  0  0  0  0  0  0  0  0  0
   28.7180  -22.2667  -16.0187 C   0  0  0  0  0  0  0  0  0  0  0  0
   29.8538  -22.8370  -15.9194 O   0  0  0  0  0  0  0  0  0  0  0  0
   26.3202  -20.2301  -14.0052 C   0  0  0  0  0  0  0  0  0  0  0  0
   26.5630  -19.0312  -13.6757 O   0  0  0  0  0  0  0  0  0  0  0  0
   27.8649  -22.6844  -17.0385 O   0  0  0  0  0  0  0  0  0  0  0  0
   25.4899  -21.0379  -13.1885 N   0  0  0  0  0  0  0  0  0  0  0  0
   24.7738  -20.4688  -12.0623 C   0  0  1  0  0  0  0  0  0  0  0  0
   23.2993  -20.7950  -12.2993 C   0  0  0  0  0  0  0  0  0  0  0  0
   22.7557  -19.8876  -13.3556 C   0  0  0  0  0  0  0  0  0  0  0  0
   21.3042  -20.1268  -13.5954 C   0  0  0  0  0  0  0  0  0  0  0  0
   20.7982  -19.3127  -14.7512 C   0  0  0  0  0  0  0  0  0  0  0  0
   19.3672  -19.5296  -14.9492 N   0  0  0  0  0  0  0  0  0  0  0  0
   25.2195  -21.1346  -10.8256 C   0  0  0  0  0  0  0  0  0  0  0  0
   25.3981  -22.3860  -10.8448 O   0  0  0  0  0  0  0  0  0  0  0  0
   28.3799  -18.5754   -7.0397 C   0  0  0  0  0  0  0  0  0  0  0  0
   27.7673  -19.6848   -7.8230 C   0  0  1  0  0  0  0  0  0  0  0  0
   28.7062  -20.8961   -7.8105 C   0  0  0  0  0  0  0  0  0  0  0  0
   26.3735  -20.0528   -7.5460 C   0  0  0  0  0  0  0  0  0  0  0  0
   25.6649  -21.0729   -8.3341 C   0  0  2  0  0  0  0  0  0  0  0  0
   25.4418  -20.4184   -9.6615 N   0  0  0  0  0  0  0  0  0  0  0  0
   24.4032  -21.6078   -7.8816 C   0  0  0  0  0  0  0  0  0  0  0  0
   24.3406  -22.5824   -6.8664 O   0  0  0  0  0  0  0  0  0  0  0  0
   23.3082  -21.2498   -8.3497 O   0  0  0  0  0  0  0  0  0  0  0  0
  2  6  1  0
  2  1  1  6
  3  2  1  0
  4  3  1  0
  5  4  2  0
  6  7  2  0
  8  4  1  0
  9 10  1  0
  9  6  1  0
 11 12  1  0
 10 11  1  6
 12 13  1  0
 13 14  1  0
 14 15  1  0
 16 10  1  0
 16 17  2  0
 19 21  1  0
 19 18  1  1
 20 19  1  0
 22 21  1  1
 22 23  1  0
 22 24  1  0
 23 16  1  0
 24 26  2  0
 24 25  1  0
M  END
$$$$
