DKL.pdb
     RDKit          3D

 26 25  0  0  1  0  0  0  0  0999 V2000
   15.3330  -16.6685    4.9128 N   0  0  0  0  0  0  0  0  0  0  0  0
   15.4929  -15.7656    6.0123 C   0  0  1  0  0  0  0  0  0  0  0  0
   14.7343  -16.2360    7.2278 C   0  0  0  0  0  0  0  0  0  0  0  0
   13.2853  -16.2170    7.0035 C   0  0  0  0  0  0  0  0  0  0  0  0
   12.7611  -15.3113    6.2753 O   0  0  0  0  0  0  0  0  0  0  0  0
   16.9342  -15.5655    6.2799 C   0  0  0  0  0  0  0  0  0  0  0  0
   17.7612  -16.5103    6.1113 O   0  0  0  0  0  0  0  0  0  0  0  0
   12.4404  -17.1711    7.5675 O   0  0  0  0  0  0  0  0  0  0  0  0
   17.3836  -14.2989    6.7301 N   0  0  0  0  0  0  0  0  0  0  0  0
   18.7838  -14.0712    7.0345 C   0  0  1  0  0  0  0  0  0  0  0  0
   18.9379  -12.5567    7.1745 C   0  0  0  0  0  0  0  0  0  0  0  0
   20.3555  -12.2340    7.5221 C   0  0  0  0  0  0  0  0  0  0  0  0
   20.5746  -10.7643    7.6382 C   0  0  0  0  0  0  0  0  0  0  0  0
   22.0311  -10.4386    7.8033 C   0  0  0  0  0  0  0  0  0  0  0  0
   22.2345   -8.9931    7.8607 N   0  0  0  0  0  0  0  0  0  0  0  0
   19.1029  -14.7070    8.3249 C   0  0  0  0  0  0  0  0  0  0  0  0
   18.2098  -14.7385    9.2192 O   0  0  0  0  0  0  0  0  0  0  0  0
   22.4450  -18.2795    8.3469 C   0  0  0  0  0  0  0  0  0  0  0  0
   20.9766  -18.0461    8.4399 C   0  0  1  0  0  0  0  0  0  0  0  0
   20.2336  -19.3557    8.1538 C   0  0  0  0  0  0  0  0  0  0  0  0
   20.4504  -17.3491    9.6198 C   0  0  0  0  0  0  0  0  0  0  0  0
   20.7077  -15.9211    9.8612 C   0  0  2  0  0  0  0  0  0  0  0  0
   20.3484  -15.2617    8.5665 N   0  0  0  0  0  0  0  0  0  0  0  0
   22.0216  -15.4645   10.2460 C   0  0  0  0  0  0  0  0  0  0  0  0
   22.8159  -14.6944    9.3740 O   0  0  0  0  0  0  0  0  0  0  0  0
   22.5296  -15.7163   11.3527 O   0  0  0  0  0  0  0  0  0  0  0  0
  2  6  1  0
  2  1  1  6
  3  2  1  0
  4  3  1  0
  5  4  2  0
  6  7  2  0
  8  4  1  0
  9 10  1  0
  9  6  1  0
 11 12  1  0
 10 11  1  1
 12 13  1  0
 13 14  1  0
 14 15  1  0
 16 10  1  0
 16 17  2  0
 19 21  1  0
 19 18  1  1
 20 19  1  0
 22 21  1  6
 22 23  1  0
 22 24  1  0
 23 16  1  0
 24 26  2  0
 24 25  1  0
M  END
$$$$
