DKL.pdb
     RDKit          3D

 26 25  0  0  1  0  0  0  0  0999 V2000
   14.4957  -22.8635    0.9309 N   0  0  0  0  0  0  0  0  0  0  0  0
   14.7542  -22.4760    2.2848 C   0  0  1  0  0  0  0  0  0  0  0  0
   16.0337  -23.0866    2.7991 C   0  0  0  0  0  0  0  0  0  0  0  0
   15.9865  -24.5518    2.7671 C   0  0  0  0  0  0  0  0  0  0  0  0
   16.8598  -25.2071    2.1090 O   0  0  0  0  0  0  0  0  0  0  0  0
   14.7442  -21.0000    2.3852 C   0  0  0  0  0  0  0  0  0  0  0  0
   14.9718  -20.2803    1.3677 O   0  0  0  0  0  0  0  0  0  0  0  0
   15.0028  -25.2716    3.4427 O   0  0  0  0  0  0  0  0  0  0  0  0
   14.4765  -20.3950    3.6387 N   0  0  0  0  0  0  0  0  0  0  0  0
   14.3461  -18.9549    3.7573 C   0  0  1  0  0  0  0  0  0  0  0  0
   13.2411  -18.7208    4.7873 C   0  0  0  0  0  0  0  0  0  0  0  0
   12.9494  -17.2573    4.8757 C   0  0  0  0  0  0  0  0  0  0  0  0
   11.8770  -16.9672    5.8693 C   0  0  0  0  0  0  0  0  0  0  0  0
   11.5409  -15.5040    5.9014 C   0  0  0  0  0  0  0  0  0  0  0  0
   10.4599  -15.2424    6.8486 N   0  0  0  0  0  0  0  0  0  0  0  0
   15.6095  -18.4007    4.2749 C   0  0  0  0  0  0  0  0  0  0  0  0
   16.4054  -19.1751    4.8792 O   0  0  0  0  0  0  0  0  0  0  0  0
   18.3900  -14.6918    1.4092 C   0  0  0  0  0  0  0  0  0  0  0  0
   18.0795  -15.7862    2.3711 C   0  0  1  0  0  0  0  0  0  0  0  0
   19.2727  -16.7443    2.4550 C   0  0  0  0  0  0  0  0  0  0  0  0
   17.5531  -15.4291    3.6940 C   0  0  0  0  0  0  0  0  0  0  0  0
   17.1700  -16.4491    4.6823 C   0  0  2  0  0  0  0  0  0  0  0  0
   15.9310  -17.0639    4.1104 N   0  0  0  0  0  0  0  0  0  0  0  0
   16.8963  -16.0820    6.0509 C   0  0  0  0  0  0  0  0  0  0  0  0
   17.9368  -15.8753    6.9778 O   0  0  0  0  0  0  0  0  0  0  0  0
   15.7448  -15.9269    6.4938 O   0  0  0  0  0  0  0  0  0  0  0  0
  2  6  1  0
  2  1  1  6
  3  2  1  0
  4  3  1  0
  5  4  2  0
  6  7  2  0
  8  4  1  0
  9 10  1  0
  9  6  1  0
 11 12  1  0
 10 11  1  1
 12 13  1  0
 13 14  1  0
 14 15  1  0
 16 10  1  0
 16 17  2  0
 19 21  1  0
 19 18  1  1
 20 19  1  0
 22 21  1  6
 22 23  1  0
 22 24  1  0
 23 16  1  0
 24 26  2  0
 24 25  1  0
M  END
$$$$
