DKL.pdb
     RDKit          3D

 26 25  0  0  1  0  0  0  0  0999 V2000
   22.7936  -18.8263  -18.3077 N   0  0  0  0  0  0  0  0  0  0  0  0
   22.9871  -18.2973  -16.9914 C   0  0  1  0  0  0  0  0  0  0  0  0
   21.7435  -17.6118  -16.4836 C   0  0  0  0  0  0  0  0  0  0  0  0
   21.4517  -16.3892  -17.2387 C   0  0  0  0  0  0  0  0  0  0  0  0
   20.5463  -15.5874  -16.8353 O   0  0  0  0  0  0  0  0  0  0  0  0
   23.4543  -19.3746  -16.0913 C   0  0  0  0  0  0  0  0  0  0  0  0
   22.6452  -20.2407  -15.6439 O   0  0  0  0  0  0  0  0  0  0  0  0
   22.1403  -16.0623  -18.4053 O   0  0  0  0  0  0  0  0  0  0  0  0
   24.8242  -19.4281  -15.7315 N   0  0  0  0  0  0  0  0  0  0  0  0
   25.3086  -20.4225  -14.7926 C   0  0  1  0  0  0  0  0  0  0  0  0
   26.8130  -20.5314  -15.0415 C   0  0  0  0  0  0  0  0  0  0  0  0
   27.0583  -21.4550  -16.1910 C   0  0  0  0  0  0  0  0  0  0  0  0
   28.5146  -21.6398  -16.4495 C   0  0  0  0  0  0  0  0  0  0  0  0
   28.7522  -22.4637  -17.6822 C   0  0  0  0  0  0  0  0  0  0  0  0
   30.1825  -22.5978  -17.9468 N   0  0  0  0  0  0  0  0  0  0  0  0
   25.0836  -19.9351  -13.4204 C   0  0  0  0  0  0  0  0  0  0  0  0
   24.7508  -18.7265  -13.2564 O   0  0  0  0  0  0  0  0  0  0  0  0
   20.6684  -19.8144  -11.6011 C   0  0  0  0  0  0  0  0  0  0  0  0
   22.0842  -19.6191  -11.1804 C   0  0  1  0  0  0  0  0  0  0  0  0
   22.1230  -19.1707   -9.7154 C   0  0  0  0  0  0  0  0  0  0  0  0
   23.0543  -20.6828  -11.4671 C   0  0  0  0  0  0  0  0  0  0  0  0
   24.4627  -20.5860  -11.0538 C   0  0  2  0  0  0  0  0  0  0  0  0
   25.2296  -20.7706  -12.3258 N   0  0  0  0  0  0  0  0  0  0  0  0
   25.0050  -21.4912  -10.0693 C   0  0  0  0  0  0  0  0  0  0  0  0
   25.1005  -21.1281   -8.7116 O   0  0  0  0  0  0  0  0  0  0  0  0
   25.4163  -22.6307  -10.3499 O   0  0  0  0  0  0  0  0  0  0  0  0
  2  6  1  0
  2  1  1  6
  3  2  1  0
  4  3  1  0
  5  4  2  0
  6  7  2  0
  8  4  1  0
  9 10  1  0
  9  6  1  0
 11 12  1  0
 10 11  1  6
 12 13  1  0
 13 14  1  0
 14 15  1  0
 16 10  1  0
 16 17  2  0
 19 21  1  0
 19 18  1  1
 20 19  1  0
 22 21  1  6
 22 23  1  0
 22 24  1  0
 23 16  1  0
 24 26  2  0
 24 25  1  0
M  END
$$$$
