DKL.pdb
     RDKit          3D

 26 25  0  0  1  0  0  0  0  0999 V2000
   27.3384  -20.2135  -16.7176 N   0  0  0  0  0  0  0  0  0  0  0  0
   27.9130  -19.1828  -15.9069 C   0  0  1  0  0  0  0  0  0  0  0  0
   28.0384  -17.8871  -16.6682 C   0  0  0  0  0  0  0  0  0  0  0  0
   28.7530  -18.0697  -17.9355 C   0  0  0  0  0  0  0  0  0  0  0  0
   28.2158  -17.7053  -19.0327 O   0  0  0  0  0  0  0  0  0  0  0  0
   27.1275  -19.0405  -14.6612 C   0  0  0  0  0  0  0  0  0  0  0  0
   27.2343  -18.0018  -13.9436 O   0  0  0  0  0  0  0  0  0  0  0  0
   30.0242  -18.6384  -17.9884 O   0  0  0  0  0  0  0  0  0  0  0  0
   26.2495  -20.0841  -14.2755 N   0  0  0  0  0  0  0  0  0  0  0  0
   25.3231  -19.9078  -13.1729 C   0  0  1  0  0  0  0  0  0  0  0  0
   23.9678  -20.3935  -13.6868 C   0  0  0  0  0  0  0  0  0  0  0  0
   23.1503  -20.8860  -12.5362 C   0  0  0  0  0  0  0  0  0  0  0  0
   21.8479  -20.1682  -12.4371 C   0  0  0  0  0  0  0  0  0  0  0  0
   21.0411  -20.6553  -11.2681 C   0  0  0  0  0  0  0  0  0  0  0  0
   19.8248  -19.8613  -11.1124 N   0  0  0  0  0  0  0  0  0  0  0  0
   25.7456  -20.7644  -12.0509 C   0  0  0  0  0  0  0  0  0  0  0  0
   26.0356  -21.9716  -12.2893 O   0  0  0  0  0  0  0  0  0  0  0  0
   26.6105  -19.2042   -7.0433 C   0  0  0  0  0  0  0  0  0  0  0  0
   27.4136  -19.4236   -8.2789 C   0  0  1  0  0  0  0  0  0  0  0  0
   28.8747  -19.0471   -8.0102 C   0  0  0  0  0  0  0  0  0  0  0  0
   27.2851  -20.7066   -8.9804 C   0  0  0  0  0  0  0  0  0  0  0  0
   26.0101  -21.1526   -9.5631 C   0  0  2  0  0  0  0  0  0  0  0  0
   25.8278  -20.2717  -10.7594 N   0  0  0  0  0  0  0  0  0  0  0  0
   24.7929  -21.1126   -8.7888 C   0  0  0  0  0  0  0  0  0  0  0  0
   24.6155  -21.9320   -7.6567 O   0  0  0  0  0  0  0  0  0  0  0  0
   23.8378  -20.3658   -9.0652 O   0  0  0  0  0  0  0  0  0  0  0  0
  2  6  1  0
  2  1  1  6
  3  2  1  0
  4  3  1  0
  5  4  2  0
  6  7  2  0
  8  4  1  0
  9 10  1  0
  9  6  1  0
 11 12  1  0
 10 11  1  6
 12 13  1  0
 13 14  1  0
 14 15  1  0
 16 10  1  0
 16 17  2  0
 19 21  1  0
 19 18  1  1
 20 19  1  0
 22 21  1  1
 22 23  1  0
 22 24  1  0
 23 16  1  0
 24 26  2  0
 24 25  1  0
M  END
$$$$
