DKL.pdb
     RDKit          3D

 26 25  0  0  1  0  0  0  0  0999 V2000
   19.4051  -14.7519  -18.0487 N   0  0  0  0  0  0  0  0  0  0  0  0
   18.6272  -13.8631  -17.2395 C   0  0  1  0  0  0  0  0  0  0  0  0
   18.5972  -14.3110  -15.7998 C   0  0  0  0  0  0  0  0  0  0  0  0
   17.6072  -15.3706  -15.5822 C   0  0  0  0  0  0  0  0  0  0  0  0
   16.6635  -15.5483  -16.4207 O   0  0  0  0  0  0  0  0  0  0  0  0
   19.1335  -12.4820  -17.3982 C   0  0  0  0  0  0  0  0  0  0  0  0
   20.3437  -12.2673  -17.7051 O   0  0  0  0  0  0  0  0  0  0  0  0
   17.6588  -16.2092  -14.4703 O   0  0  0  0  0  0  0  0  0  0  0  0
   18.2460  -11.3945  -17.2017 N   0  0  0  0  0  0  0  0  0  0  0  0
   18.6659  -10.0327  -17.4743 C   0  0  1  0  0  0  0  0  0  0  0  0
   17.3810   -9.2440  -17.7267 C   0  0  0  0  0  0  0  0  0  0  0  0
   16.8108   -9.6384  -19.0511 C   0  0  0  0  0  0  0  0  0  0  0  0
   15.5737   -8.8708  -19.3701 C   0  0  0  0  0  0  0  0  0  0  0  0
   14.9744   -9.3142  -20.6736 C   0  0  0  0  0  0  0  0  0  0  0  0
   13.8165   -8.4922  -21.0166 N   0  0  0  0  0  0  0  0  0  0  0  0
   19.3350   -9.4896  -16.2791 C   0  0  0  0  0  0  0  0  0  0  0  0
   18.8600   -9.7705  -15.1416 O   0  0  0  0  0  0  0  0  0  0  0  0
   24.3371  -10.5699  -15.0504 C   0  0  0  0  0  0  0  0  0  0  0  0
   22.9288  -10.1085  -14.8970 C   0  0  1  0  0  0  0  0  0  0  0  0
   22.4673  -10.3517  -13.4560 C   0  0  0  0  0  0  0  0  0  0  0  0
   22.5727   -8.7694  -15.3815 C   0  0  0  0  0  0  0  0  0  0  0  0
   21.2274   -8.2045  -15.1941 C   0  0  2  0  0  0  0  0  0  0  0  0
   20.4596   -8.6885  -16.3842 N   0  0  0  0  0  0  0  0  0  0  0  0
   21.0361   -6.7780  -15.0884 C   0  0  0  0  0  0  0  0  0  0  0  0
   21.2331   -6.0990  -13.8700 O   0  0  0  0  0  0  0  0  0  0  0  0
   20.6910   -6.0674  -16.0487 O   0  0  0  0  0  0  0  0  0  0  0  0
  2  6  1  0
  2  1  1  6
  3  2  1  0
  4  3  1  0
  5  4  2  0
  6  7  2  0
  8  4  1  0
  9 10  1  0
  9  6  1  0
 11 12  1  0
 10 11  1  1
 12 13  1  0
 13 14  1  0
 14 15  1  0
 16 10  1  0
 16 17  2  0
 19 21  1  0
 19 18  1  1
 20 19  1  0
 22 21  1  6
 22 23  1  0
 22 24  1  0
 23 16  1  0
 24 26  2  0
 24 25  1  0
M  END
$$$$
