DKL.pdb
     RDKit          3D

 26 25  0  0  1  0  0  0  0  0999 V2000
   20.3669  -15.7398  -17.6787 N   0  0  0  0  0  0  0  0  0  0  0  0
   19.8025  -14.7541  -16.8071 C   0  0  1  0  0  0  0  0  0  0  0  0
   19.9194  -15.1644  -15.3607 C   0  0  0  0  0  0  0  0  0  0  0  0
   19.0158  -16.2729  -15.0367 C   0  0  0  0  0  0  0  0  0  0  0  0
   18.1568  -16.6703  -15.8908 O   0  0  0  0  0  0  0  0  0  0  0  0
   20.4249  -13.4401  -17.0809 C   0  0  0  0  0  0  0  0  0  0  0  0
   21.6608  -13.3516  -17.3450 O   0  0  0  0  0  0  0  0  0  0  0  0
   19.0605  -16.9231  -13.8049 O   0  0  0  0  0  0  0  0  0  0  0  0
   19.6202  -12.2739  -17.0440 N   0  0  0  0  0  0  0  0  0  0  0  0
   20.1696  -10.9791  -17.4002 C   0  0  1  0  0  0  0  0  0  0  0  0
   18.9816  -10.1369  -17.8649 C   0  0  0  0  0  0  0  0  0  0  0  0
   18.4495  -10.6963  -19.1450 C   0  0  0  0  0  0  0  0  0  0  0  0
   17.2005  -10.0045  -19.5727 C   0  0  0  0  0  0  0  0  0  0  0  0
   16.6397  -10.6114  -20.8265 C   0  0  0  0  0  0  0  0  0  0  0  0
   15.3425  -10.0229  -21.1505 N   0  0  0  0  0  0  0  0  0  0  0  0
   20.7552  -10.3603  -16.1980 C   0  0  0  0  0  0  0  0  0  0  0  0
   20.1484  -10.4896  -15.0964 O   0  0  0  0  0  0  0  0  0  0  0  0
   26.1661  -10.4397  -15.5771 C   0  0  0  0  0  0  0  0  0  0  0  0
   24.7138  -10.4045  -15.2464 C   0  0  1  0  0  0  0  0  0  0  0  0
   24.4744  -11.1421  -13.9245 C   0  0  0  0  0  0  0  0  0  0  0  0
   24.0121   -9.1166  -15.3050 C   0  0  0  0  0  0  0  0  0  0  0  0
   22.5658   -9.0046  -15.0607 C   0  0  2  0  0  0  0  0  0  0  0  0
   21.9426   -9.6504  -16.2585 N   0  0  0  0  0  0  0  0  0  0  0  0
   21.9480   -7.7134  -14.8767 C   0  0  0  0  0  0  0  0  0  0  0  0
   21.8847   -7.1038  -13.6083 O   0  0  0  0  0  0  0  0  0  0  0  0
   21.4402   -7.0659  -15.8089 O   0  0  0  0  0  0  0  0  0  0  0  0
  2  6  1  0
  2  1  1  6
  3  2  1  0
  4  3  1  0
  5  4  2  0
  6  7  2  0
  8  4  1  0
  9 10  1  0
  9  6  1  0
 11 12  1  0
 10 11  1  1
 12 13  1  0
 13 14  1  0
 14 15  1  0
 16 10  1  0
 16 17  2  0
 19 21  1  0
 19 18  1  1
 20 19  1  0
 22 21  1  6
 22 23  1  0
 22 24  1  0
 23 16  1  0
 24 26  2  0
 24 25  1  0
M  END
$$$$
