DKL.pdb
     RDKit          3D

 26 25  0  0  1  0  0  0  0  0999 V2000
   29.9858  -13.6625  -18.5440 N   0  0  0  0  0  0  0  0  0  0  0  0
   31.3071  -13.1302  -18.6885 C   0  0  1  0  0  0  0  0  0  0  0  0
   32.0188  -13.7334  -19.8733 C   0  0  0  0  0  0  0  0  0  0  0  0
   32.1533  -15.1877  -19.7422 C   0  0  0  0  0  0  0  0  0  0  0  0
   33.0384  -15.8127  -20.4138 O   0  0  0  0  0  0  0  0  0  0  0  0
   31.2390  -11.6536  -18.7532 C   0  0  0  0  0  0  0  0  0  0  0  0
   32.2494  -10.9736  -19.1020 O   0  0  0  0  0  0  0  0  0  0  0  0
   31.3335  -15.9293  -18.8937 O   0  0  0  0  0  0  0  0  0  0  0  0
   30.0250  -11.0031  -18.4187 N   0  0  0  0  0  0  0  0  0  0  0  0
   29.8849   -9.5667  -18.5675 C   0  0  1  0  0  0  0  0  0  0  0  0
   28.3865   -9.2821  -18.4642 C   0  0  0  0  0  0  0  0  0  0  0  0
   27.7235   -9.6494  -19.7527 C   0  0  0  0  0  0  0  0  0  0  0  0
   26.2675   -9.3312  -19.7346 C   0  0  0  0  0  0  0  0  0  0  0  0
   25.6220   -9.6424  -21.0542 C   0  0  0  0  0  0  0  0  0  0  0  0
   24.1748   -9.4583  -20.9781 N   0  0  0  0  0  0  0  0  0  0  0  0
   30.5778   -8.8998  -17.4511 C   0  0  0  0  0  0  0  0  0  0  0  0
   30.4616   -9.3883  -16.2908 O   0  0  0  0  0  0  0  0  0  0  0  0
   35.2235   -9.4596  -15.2743 C   0  0  0  0  0  0  0  0  0  0  0  0
   34.3808   -8.2522  -15.5012 C   0  0  1  0  0  0  0  0  0  0  0  0
   35.2836   -7.0480  -15.7905 C   0  0  0  0  0  0  0  0  0  0  0  0
   33.2560   -8.3480  -16.4395 C   0  0  0  0  0  0  0  0  0  0  0  0
   32.3077   -7.2407  -16.6358 C   0  0  2  0  0  0  0  0  0  0  0  0
   31.3425   -7.7633  -17.6534 N   0  0  0  0  0  0  0  0  0  0  0  0
   32.7682   -5.9469  -17.0794 C   0  0  0  0  0  0  0  0  0  0  0  0
   32.9484   -4.8819  -16.1750 O   0  0  0  0  0  0  0  0  0  0  0  0
   33.0315   -5.6918  -18.2676 O   0  0  0  0  0  0  0  0  0  0  0  0
  2  6  1  0
  2  1  1  6
  3  2  1  0
  4  3  1  0
  5  4  2  0
  6  7  2  0
  8  4  1  0
  9 10  1  0
  9  6  1  0
 11 12  1  0
 10 11  1  1
 12 13  1  0
 13 14  1  0
 14 15  1  0
 16 10  1  0
 16 17  2  0
 19 21  1  0
 19 18  1  6
 20 19  1  0
 22 21  1  6
 22 23  1  0
 22 24  1  0
 23 16  1  0
 24 26  2  0
 24 25  1  0
M  END
$$$$
