DKL.pdb
     RDKit          3D

 26 25  0  0  1  0  0  0  0  0999 V2000
   17.1672  -15.9444  -15.1292 N   0  0  0  0  0  0  0  0  0  0  0  0
   16.3968  -14.7703  -15.4083 C   0  0  1  0  0  0  0  0  0  0  0  0
   15.1778  -14.6868  -14.5244 C   0  0  0  0  0  0  0  0  0  0  0  0
   14.3250  -15.8715  -14.6636 C   0  0  0  0  0  0  0  0  0  0  0  0
   13.8502  -16.1893  -15.8033 O   0  0  0  0  0  0  0  0  0  0  0  0
   17.2632  -13.5757  -15.3019 C   0  0  0  0  0  0  0  0  0  0  0  0
   17.9098  -13.3376  -14.2387 O   0  0  0  0  0  0  0  0  0  0  0  0
   14.0064  -16.6813  -13.5751 O   0  0  0  0  0  0  0  0  0  0  0  0
   17.3630  -12.6944  -16.4074 N   0  0  0  0  0  0  0  0  0  0  0  0
   18.2353  -11.5360  -16.3593 C   0  0  1  0  0  0  0  0  0  0  0  0
   18.4497  -11.1163  -17.8134 C   0  0  0  0  0  0  0  0  0  0  0  0
   19.4268   -9.9860  -17.8629 C   0  0  0  0  0  0  0  0  0  0  0  0
   19.6634   -9.5215  -19.2592 C   0  0  0  0  0  0  0  0  0  0  0  0
   20.6725   -8.4104  -19.3037 C   0  0  0  0  0  0  0  0  0  0  0  0
   20.9943   -8.0591  -20.6846 N   0  0  0  0  0  0  0  0  0  0  0  0
   17.5472  -10.4479  -15.6425 C   0  0  0  0  0  0  0  0  0  0  0  0
   16.3130  -10.2726  -15.8531 O   0  0  0  0  0  0  0  0  0  0  0  0
   16.7220  -10.0310  -10.5099 C   0  0  0  0  0  0  0  0  0  0  0  0
   16.5934   -9.7190  -11.9610 C   0  0  1  0  0  0  0  0  0  0  0  0
   15.1887   -9.1746  -12.2424 C   0  0  0  0  0  0  0  0  0  0  0  0
   17.6437   -8.9186  -12.6021 C   0  0  0  0  0  0  0  0  0  0  0  0
   17.5614   -8.5104  -14.0129 C   0  0  2  0  0  0  0  0  0  0  0  0
   18.2243   -9.6282  -14.7553 N   0  0  0  0  0  0  0  0  0  0  0  0
   18.1494   -7.2690  -14.4557 C   0  0  0  0  0  0  0  0  0  0  0  0
   17.4792   -6.0405  -14.2945 O   0  0  0  0  0  0  0  0  0  0  0  0
   19.2661   -7.2035  -14.9987 O   0  0  0  0  0  0  0  0  0  0  0  0
  2  6  1  0
  2  1  1  1
  3  2  1  0
  4  3  1  0
  5  4  2  0
  6  7  2  0
  8  4  1  0
  9 10  1  0
  9  6  1  0
 11 12  1  0
 10 11  1  6
 12 13  1  0
 13 14  1  0
 14 15  1  0
 16 10  1  0
 16 17  2  0
 19 21  1  0
 19 18  1  1
 20 19  1  0
 22 21  1  1
 22 23  1  0
 22 24  1  0
 23 16  1  0
 24 26  2  0
 24 25  1  0
M  END
$$$$
