GFC.pdb
     RDKit          3D

 22 22  0  0  1  0  0  0  0  0999 V2000
    9.4815  -17.6479   19.5595 N   0  0  0  0  0  0  0  0  0  0  0  0
    8.4776  -17.6292   20.5777 C   0  0  0  0  0  0  0  0  0  0  0  0
    8.8195  -16.7039   21.6926 C   0  0  0  0  0  0  0  0  0  0  0  0
    9.9963  -16.2517   21.8362 O   0  0  0  0  0  0  0  0  0  0  0  0
    7.8097  -16.3187   22.6148 N   0  0  0  0  0  0  0  0  0  0  0  0
    8.0449  -15.4824   23.7540 C   0  0  1  0  0  0  0  0  0  0  0  0
    6.7373  -14.7437   24.0627 C   0  0  0  0  0  0  0  0  0  0  0  0
    6.9099  -13.7941   25.1677 C   0  0  0  0  0  0  0  0  0  0  0  0
    7.5201  -12.5889   24.9476 C   0  0  0  0  0  0  0  0  0  0  0  0
    7.6713  -11.7058   26.0142 C   0  0  0  0  0  0  0  0  0  0  0  0
    7.2037  -12.0644   27.2662 C   0  0  0  0  0  0  0  0  0  0  0  0
    6.5879  -13.2905   27.4697 C   0  0  0  0  0  0  0  0  0  0  0  0
    6.4389  -14.1614   26.4174 C   0  0  0  0  0  0  0  0  0  0  0  0
    8.4817  -16.2248   24.9514 C   0  0  0  0  0  0  0  0  0  0  0  0
    7.8571  -17.1563   25.4808 O   0  0  0  0  0  0  0  0  0  0  0  0
    9.7152  -15.8450   25.5477 N   0  0  0  0  0  0  0  0  0  0  0  0
   10.3701  -16.5861   26.5847 C   0  0  1  0  0  0  0  0  0  0  0  0
   11.7295  -17.0965   26.1942 C   0  0  0  0  0  0  0  0  0  0  0  0
   11.9476  -17.2256   24.4186 S   0  0  0  0  0  0  0  0  0  0  0  0
   10.3763  -15.8472   27.8585 C   0  0  0  0  0  0  0  0  0  0  0  0
   10.0004  -14.6462   27.8510 O   0  0  0  0  0  0  0  0  0  0  0  0
   10.7655  -16.3775   29.0643 O   0  0  0  0  0  0  0  0  0  0  0  0
  2  1  1  0
  2  3  1  0
  3  5  1  0
  3  4  2  0
  5  6  1  0
  6 14  1  0
  6  7  1  1
  8  7  1  0
  8 13  2  0
  9  8  1  0
 10  9  2  0
 10 11  1  0
 11 12  2  0
 12 13  1  0
 14 15  2  0
 14 16  1  0
 16 17  1  0
 17 20  1  0
 17 18  1  6
 19 18  1  0
 20 22  1  0
 21 20  2  0
M  END
$$$$
