GFC.pdb
     RDKit          3D

 22 22  0  0  1  0  0  0  0  0999 V2000
    9.9938  -18.2671   18.0978 N   0  0  0  0  0  0  0  0  0  0  0  0
    9.2637  -18.1339   19.3202 C   0  0  0  0  0  0  0  0  0  0  0  0
    9.9324  -17.2147   20.2814 C   0  0  0  0  0  0  0  0  0  0  0  0
   11.1249  -16.8225   20.0973 O   0  0  0  0  0  0  0  0  0  0  0  0
    9.2228  -16.7667   21.4279 N   0  0  0  0  0  0  0  0  0  0  0  0
    9.7953  -15.9430   22.4506 C   0  0  1  0  0  0  0  0  0  0  0  0
    8.6700  -15.0790   23.0320 C   0  0  0  0  0  0  0  0  0  0  0  0
    8.0563  -14.2375   21.9985 C   0  0  0  0  0  0  0  0  0  0  0  0
    8.6114  -13.0277   21.6800 C   0  0  0  0  0  0  0  0  0  0  0  0
    8.0087  -12.2486   20.6952 C   0  0  0  0  0  0  0  0  0  0  0  0
    6.8680  -12.7123   20.0638 C   0  0  0  0  0  0  0  0  0  0  0  0
    6.3201  -13.9413   20.4003 C   0  0  0  0  0  0  0  0  0  0  0  0
    6.9149  -14.7097   21.3719 C   0  0  0  0  0  0  0  0  0  0  0  0
   10.4347  -16.7092   23.5369 C   0  0  0  0  0  0  0  0  0  0  0  0
    9.9675  -17.7322   24.0594 O   0  0  0  0  0  0  0  0  0  0  0  0
   11.6849  -16.2404   24.0254 N   0  0  0  0  0  0  0  0  0  0  0  0
   12.8027  -17.0870   24.3207 C   0  0  1  0  0  0  0  0  0  0  0  0
   13.1258  -18.0632   23.2236 C   0  0  0  0  0  0  0  0  0  0  0  0
   14.4178  -19.2229   23.6736 S   0  0  0  0  0  0  0  0  0  0  0  0
   13.9720  -16.3079   24.7614 C   0  0  0  0  0  0  0  0  0  0  0  0
   14.4571  -16.5543   25.8963 O   0  0  0  0  0  0  0  0  0  0  0  0
   14.5770  -15.3238   24.0184 O   0  0  0  0  0  0  0  0  0  0  0  0
  2  1  1  0
  2  3  1  0
  3  5  1  0
  3  4  2  0
  5  6  1  0
  6 14  1  0
  6  7  1  1
  8  7  1  0
  8 13  2  0
  9  8  1  0
 10  9  2  0
 10 11  1  0
 11 12  2  0
 12 13  1  0
 14 15  2  0
 14 16  1  0
 16 17  1  0
 17 20  1  0
 17 18  1  6
 19 18  1  0
 20 22  1  0
 21 20  2  0
M  END
$$$$
