GFC.pdb
     RDKit          3D

 22 22  0  0  1  0  0  0  0  0999 V2000
    5.2145  -19.8324   21.8121 N   0  0  0  0  0  0  0  0  0  0  0  0
    5.6276  -19.5579   23.1533 C   0  0  0  0  0  0  0  0  0  0  0  0
    6.2521  -18.2134   23.2891 C   0  0  0  0  0  0  0  0  0  0  0  0
    6.6491  -17.5656   22.2729 O   0  0  0  0  0  0  0  0  0  0  0  0
    6.4074  -17.6430   24.5810 N   0  0  0  0  0  0  0  0  0  0  0  0
    7.1647  -16.4558   24.8446 C   0  0  1  0  0  0  0  0  0  0  0  0
    6.6986  -15.9009   26.1957 C   0  0  0  0  0  0  0  0  0  0  0  0
    7.1170  -14.5056   26.3716 C   0  0  0  0  0  0  0  0  0  0  0  0
    6.3126  -13.4879   25.9354 C   0  0  0  0  0  0  0  0  0  0  0  0
    6.7338  -12.1723   26.1148 C   0  0  0  0  0  0  0  0  0  0  0  0
    7.9498  -11.9245   26.7268 C   0  0  0  0  0  0  0  0  0  0  0  0
    8.7514  -12.9694   27.1623 C   0  0  0  0  0  0  0  0  0  0  0  0
    8.3357  -14.2670   26.9852 C   0  0  0  0  0  0  0  0  0  0  0  0
    8.6218  -16.6816   24.8849 C   0  0  0  0  0  0  0  0  0  0  0  0
    9.1859  -17.5912   25.5114 O   0  0  0  0  0  0  0  0  0  0  0  0
    9.4470  -15.7880   24.1488 N   0  0  0  0  0  0  0  0  0  0  0  0
   10.8300  -16.0241   23.8574 C   0  0  1  0  0  0  0  0  0  0  0  0
   11.2799  -15.4326   22.5502 C   0  0  0  0  0  0  0  0  0  0  0  0
   10.0862  -15.6562   21.2305 S   0  0  0  0  0  0  0  0  0  0  0  0
   11.6948  -15.6474   24.9882 C   0  0  0  0  0  0  0  0  0  0  0  0
   11.1668  -15.0696   25.9737 O   0  0  0  0  0  0  0  0  0  0  0  0
   13.0468  -15.8825   25.0465 O   0  0  0  0  0  0  0  0  0  0  0  0
  2  1  1  0
  2  3  1  0
  3  5  1  0
  3  4  2  0
  5  6  1  0
  6 14  1  0
  6  7  1  1
  8  7  1  0
  8 13  2  0
  9  8  1  0
 10  9  2  0
 10 11  1  0
 11 12  2  0
 12 13  1  0
 14 15  2  0
 14 16  1  0
 16 17  1  0
 17 20  1  0
 17 18  1  6
 19 18  1  0
 20 22  1  0
 21 20  2  0
M  END
$$$$
