GFC.pdb
     RDKit          3D

 22 22  0  0  1  0  0  0  0  0999 V2000
    3.7189  -18.5015   22.5073 N   0  0  0  0  0  0  0  0  0  0  0  0
    4.6455  -18.4320   23.5943 C   0  0  0  0  0  0  0  0  0  0  0  0
    5.5907  -17.2897   23.4600 C   0  0  0  0  0  0  0  0  0  0  0  0
    5.7018  -16.6511   22.3693 O   0  0  0  0  0  0  0  0  0  0  0  0
    6.3845  -16.9057   24.5741 N   0  0  0  0  0  0  0  0  0  0  0  0
    7.4413  -15.9408   24.5075 C   0  0  1  0  0  0  0  0  0  0  0  0
    7.7876  -15.5350   25.9449 C   0  0  0  0  0  0  0  0  0  0  0  0
    7.2914  -14.1890   26.2527 C   0  0  0  0  0  0  0  0  0  0  0  0
    5.9774  -14.0019   26.5869 C   0  0  0  0  0  0  0  0  0  0  0  0
    5.5325  -12.7136   26.8745 C   0  0  0  0  0  0  0  0  0  0  0  0
    6.4239  -11.6568   26.8163 C   0  0  0  0  0  0  0  0  0  0  0  0
    7.7521  -11.8663   26.4757 C   0  0  0  0  0  0  0  0  0  0  0  0
    8.1907  -13.1373   26.1921 C   0  0  0  0  0  0  0  0  0  0  0  0
    8.6551  -16.4399   23.8342 C   0  0  0  0  0  0  0  0  0  0  0  0
    9.1441  -17.5690   23.9893 O   0  0  0  0  0  0  0  0  0  0  0  0
    9.3188  -15.5597   22.9364 N   0  0  0  0  0  0  0  0  0  0  0  0
   10.3486  -15.9645   22.0257 C   0  0  1  0  0  0  0  0  0  0  0  0
   10.3911  -15.1491   20.7631 C   0  0  0  0  0  0  0  0  0  0  0  0
    8.8482  -14.3001   20.4232 S   0  0  0  0  0  0  0  0  0  0  0  0
   11.6572  -16.0600   22.6941 C   0  0  0  0  0  0  0  0  0  0  0  0
   11.7359  -15.7081   23.8999 O   0  0  0  0  0  0  0  0  0  0  0  0
   12.8077  -16.5088   22.0929 O   0  0  0  0  0  0  0  0  0  0  0  0
  2  1  1  0
  2  3  1  0
  3  5  1  0
  3  4  2  0
  5  6  1  0
  6 14  1  0
  6  7  1  1
  8  7  1  0
  8 13  2  0
  9  8  1  0
 10  9  2  0
 10 11  1  0
 11 12  2  0
 12 13  1  0
 14 15  2  0
 14 16  1  0
 16 17  1  0
 17 20  1  0
 17 18  1  6
 19 18  1  0
 20 22  1  0
 21 20  2  0
M  END
$$$$
