GFC.pdb
     RDKit          3D

 22 22  0  0  1  0  0  0  0  0999 V2000
   10.4212  -17.7398   20.4494 N   0  0  0  0  0  0  0  0  0  0  0  0
    9.2587  -17.5450   21.2589 C   0  0  0  0  0  0  0  0  0  0  0  0
    9.4102  -16.4026   22.2013 C   0  0  0  0  0  0  0  0  0  0  0  0
   10.5280  -15.8237   22.3607 O   0  0  0  0  0  0  0  0  0  0  0  0
    8.2823  -15.9503   22.9373 N   0  0  0  0  0  0  0  0  0  0  0  0
    8.3445  -14.9483   23.9594 C   0  0  1  0  0  0  0  0  0  0  0  0
    6.9789  -14.2531   24.0086 C   0  0  0  0  0  0  0  0  0  0  0  0
    6.9133  -13.2849   25.1090 C   0  0  0  0  0  0  0  0  0  0  0  0
    7.6501  -12.1328   25.0541 C   0  0  0  0  0  0  0  0  0  0  0  0
    7.5694  -11.2306   26.1122 C   0  0  0  0  0  0  0  0  0  0  0  0
    6.7504  -11.5173   27.1901 C   0  0  0  0  0  0  0  0  0  0  0  0
    6.0112  -12.6903   27.2278 C   0  0  0  0  0  0  0  0  0  0  0  0
    6.0910  -13.5801   26.1838 C   0  0  0  0  0  0  0  0  0  0  0  0
    8.6681  -15.4858   25.2944 C   0  0  0  0  0  0  0  0  0  0  0  0
    8.9706  -14.8031   26.2844 O   0  0  0  0  0  0  0  0  0  0  0  0
    8.6312  -16.8972   25.4623 N   0  0  0  0  0  0  0  0  0  0  0  0
    8.8755  -17.5668   26.7054 C   0  0  1  0  0  0  0  0  0  0  0  0
    7.7148  -18.3955   27.1818 C   0  0  0  0  0  0  0  0  0  0  0  0
    7.0039  -19.4165   25.8898 S   0  0  0  0  0  0  0  0  0  0  0  0
   10.1443  -18.3138   26.6792 C   0  0  0  0  0  0  0  0  0  0  0  0
   10.5216  -18.8820   27.7368 O   0  0  0  0  0  0  0  0  0  0  0  0
   10.9528  -18.4368   25.5756 O   0  0  0  0  0  0  0  0  0  0  0  0
  2  1  1  0
  2  3  1  0
  3  5  1  0
  3  4  2  0
  5  6  1  0
  6 14  1  0
  6  7  1  1
  8  7  1  0
  8 13  2  0
  9  8  1  0
 10  9  2  0
 10 11  1  0
 11 12  2  0
 12 13  1  0
 14 15  2  0
 14 16  1  0
 16 17  1  0
 17 20  1  0
 17 18  1  6
 19 18  1  0
 20 22  1  0
 21 20  2  0
M  END
$$$$
