GFC.pdb
     RDKit          3D

 22 22  0  0  1  0  0  0  0  0999 V2000
    8.2131  -18.4530   20.4514 N   0  0  0  0  0  0  0  0  0  0  0  0
    7.5786  -18.3973   21.7317 C   0  0  0  0  0  0  0  0  0  0  0  0
    8.0831  -17.2714   22.5647 C   0  0  0  0  0  0  0  0  0  0  0  0
    9.1128  -16.6115   22.2268 O   0  0  0  0  0  0  0  0  0  0  0  0
    7.3993  -16.9275   23.7617 N   0  0  0  0  0  0  0  0  0  0  0  0
    7.8554  -15.9310   24.6844 C   0  0  1  0  0  0  0  0  0  0  0  0
    6.6227  -15.3628   25.3974 C   0  0  0  0  0  0  0  0  0  0  0  0
    6.9544  -14.1458   26.1467 C   0  0  0  0  0  0  0  0  0  0  0  0
    7.4611  -14.2375   27.4148 C   0  0  0  0  0  0  0  0  0  0  0  0
    7.7675  -13.0665   28.1040 C   0  0  0  0  0  0  0  0  0  0  0  0
    7.5541  -11.8425   27.4948 C   0  0  0  0  0  0  0  0  0  0  0  0
    7.0397  -11.7698   26.2087 C   0  0  0  0  0  0  0  0  0  0  0  0
    6.7375  -12.9252   25.5290 C   0  0  0  0  0  0  0  0  0  0  0  0
    8.8065  -16.4460   25.6873 C   0  0  0  0  0  0  0  0  0  0  0  0
    8.6249  -17.4485   26.3944 O   0  0  0  0  0  0  0  0  0  0  0  0
   10.0284  -15.7397   25.8592 N   0  0  0  0  0  0  0  0  0  0  0  0
   11.1577  -16.2479   26.5802 C   0  0  1  0  0  0  0  0  0  0  0  0
   12.4785  -15.9193   25.9411 C   0  0  0  0  0  0  0  0  0  0  0  0
   12.5012  -16.2326   24.1752 S   0  0  0  0  0  0  0  0  0  0  0  0
   11.1006  -15.8823   28.0056 C   0  0  0  0  0  0  0  0  0  0  0  0
   10.1604  -15.1402   28.3917 O   0  0  0  0  0  0  0  0  0  0  0  0
   12.0060  -16.2955   28.9522 O   0  0  0  0  0  0  0  0  0  0  0  0
  2  1  1  0
  2  3  1  0
  3  5  1  0
  3  4  2  0
  5  6  1  0
  6 14  1  0
  6  7  1  1
  8  7  1  0
  8 13  2  0
  9  8  1  0
 10  9  2  0
 10 11  1  0
 11 12  2  0
 12 13  1  0
 14 15  2  0
 14 16  1  0
 16 17  1  0
 17 20  1  0
 17 18  1  6
 19 18  1  0
 20 22  1  0
 21 20  2  0
M  END
$$$$
