GFC.pdb
     RDKit          3D

 22 22  0  0  1  0  0  0  0  0999 V2000
   10.0247  -18.9421   20.9911 N   0  0  0  0  0  0  0  0  0  0  0  0
    9.1992  -18.6975   22.1329 C   0  0  0  0  0  0  0  0  0  0  0  0
    9.2373  -17.2731   22.5640 C   0  0  0  0  0  0  0  0  0  0  0  0
   10.0783  -16.4588   22.0745 O   0  0  0  0  0  0  0  0  0  0  0  0
    8.3148  -16.8149   23.5426 N   0  0  0  0  0  0  0  0  0  0  0  0
    8.3421  -15.5012   24.1133 C   0  0  1  0  0  0  0  0  0  0  0  0
    7.0486  -15.3192   24.9161 C   0  0  0  0  0  0  0  0  0  0  0  0
    6.9536  -13.9654   25.4738 C   0  0  0  0  0  0  0  0  0  0  0  0
    6.2834  -13.7525   26.6479 C   0  0  0  0  0  0  0  0  0  0  0  0
    6.2083  -12.4574   27.1553 C   0  0  0  0  0  0  0  0  0  0  0  0
    6.8097  -11.4200   26.4647 C   0  0  0  0  0  0  0  0  0  0  0  0
    7.4846  -11.6555   25.2761 C   0  0  0  0  0  0  0  0  0  0  0  0
    7.5586  -12.9332   24.7758 C   0  0  0  0  0  0  0  0  0  0  0  0
    9.5017  -15.2639   24.9937 C   0  0  0  0  0  0  0  0  0  0  0  0
   10.1648  -14.2167   25.0337 O   0  0  0  0  0  0  0  0  0  0  0  0
    9.8921  -16.3165   25.8660 N   0  0  0  0  0  0  0  0  0  0  0  0
   10.4736  -16.1159   27.1602 C   0  0  1  0  0  0  0  0  0  0  0  0
    9.6679  -15.2092   28.0489 C   0  0  0  0  0  0  0  0  0  0  0  0
   10.6351  -13.8698   28.7472 S   0  0  0  0  0  0  0  0  0  0  0  0
   10.8196  -17.3944   27.8037 C   0  0  0  0  0  0  0  0  0  0  0  0
   10.1383  -18.4112   27.5104 O   0  0  0  0  0  0  0  0  0  0  0  0
   11.8400  -17.5599   28.7082 O   0  0  0  0  0  0  0  0  0  0  0  0
  2  1  1  0
  2  3  1  0
  3  5  1  0
  3  4  2  0
  5  6  1  0
  6 14  1  0
  6  7  1  1
  8  7  1  0
  8 13  2  0
  9  8  1  0
 10  9  2  0
 10 11  1  0
 11 12  2  0
 12 13  1  0
 14 15  2  0
 14 16  1  0
 16 17  1  0
 17 20  1  0
 17 18  1  1
 19 18  1  0
 20 22  1  0
 21 20  2  0
M  END
$$$$
