GFC.pdb
     RDKit          3D

 22 22  0  0  1  0  0  0  0  0999 V2000
    6.7176  -19.3093   20.8622 N   0  0  0  0  0  0  0  0  0  0  0  0
    6.4390  -19.1386   22.2544 C   0  0  0  0  0  0  0  0  0  0  0  0
    7.1633  -17.9763   22.8380 C   0  0  0  0  0  0  0  0  0  0  0  0
    8.2766  -17.5900   22.3677 O   0  0  0  0  0  0  0  0  0  0  0  0
    6.5985  -17.2851   23.9434 N   0  0  0  0  0  0  0  0  0  0  0  0
    7.2649  -16.2349   24.6543 C   0  0  1  0  0  0  0  0  0  0  0  0
    6.1861  -15.3537   25.2948 C   0  0  0  0  0  0  0  0  0  0  0  0
    6.7506  -14.0904   25.7828 C   0  0  0  0  0  0  0  0  0  0  0  0
    7.0699  -13.0949   24.8995 C   0  0  0  0  0  0  0  0  0  0  0  0
    7.6044  -11.9056   25.3894 C   0  0  0  0  0  0  0  0  0  0  0  0
    7.7999  -11.7573   26.7512 C   0  0  0  0  0  0  0  0  0  0  0  0
    7.4701  -12.7777   27.6310 C   0  0  0  0  0  0  0  0  0  0  0  0
    6.9428  -13.9508   27.1474 C   0  0  0  0  0  0  0  0  0  0  0  0
    8.1842  -16.7209   25.7005 C   0  0  0  0  0  0  0  0  0  0  0  0
    7.8957  -17.5529   26.5736 O   0  0  0  0  0  0  0  0  0  0  0  0
    9.5056  -16.1962   25.7111 N   0  0  0  0  0  0  0  0  0  0  0  0
   10.5789  -16.7333   26.4940 C   0  0  1  0  0  0  0  0  0  0  0  0
   11.8934  -16.7765   25.7653 C   0  0  0  0  0  0  0  0  0  0  0  0
   11.7653  -16.2533   24.0545 S   0  0  0  0  0  0  0  0  0  0  0  0
   10.6710  -16.0787   27.8099 C   0  0  0  0  0  0  0  0  0  0  0  0
   10.0944  -14.9707   27.9643 O   0  0  0  0  0  0  0  0  0  0  0  0
   11.3457  -16.5931   28.8900 O   0  0  0  0  0  0  0  0  0  0  0  0
  2  1  1  0
  2  3  1  0
  3  5  1  0
  3  4  2  0
  5  6  1  0
  6 14  1  0
  6  7  1  1
  8  7  1  0
  8 13  2  0
  9  8  1  0
 10  9  2  0
 10 11  1  0
 11 12  2  0
 12 13  1  0
 14 15  2  0
 14 16  1  0
 16 17  1  0
 17 20  1  0
 17 18  1  6
 19 18  1  0
 20 22  1  0
 21 20  2  0
M  END
$$$$
