GFC.pdb
     RDKit          3D

 22 22  0  0  1  0  0  0  0  0999 V2000
    7.4461  -13.4469   19.7290 N   0  0  0  0  0  0  0  0  0  0  0  0
    6.8667  -14.2058   20.7936 C   0  0  0  0  0  0  0  0  0  0  0  0
    7.8001  -14.3752   21.9409 C   0  0  0  0  0  0  0  0  0  0  0  0
    9.0169  -14.0257   21.8576 O   0  0  0  0  0  0  0  0  0  0  0  0
    7.3206  -14.9391   23.1536 N   0  0  0  0  0  0  0  0  0  0  0  0
    8.1077  -15.0607   24.3444 C   0  0  1  0  0  0  0  0  0  0  0  0
    7.1505  -14.9898   25.5401 C   0  0  0  0  0  0  0  0  0  0  0  0
    6.9533  -13.6051   25.9833 C   0  0  0  0  0  0  0  0  0  0  0  0
    8.0281  -12.8448   26.3574 C   0  0  0  0  0  0  0  0  0  0  0  0
    7.8129  -11.5332   26.7741 C   0  0  0  0  0  0  0  0  0  0  0  0
    6.5240  -11.0302   26.8006 C   0  0  0  0  0  0  0  0  0  0  0  0
    5.4473  -11.8163   26.4176 C   0  0  0  0  0  0  0  0  0  0  0  0
    5.6599  -13.1101   26.0066 C   0  0  0  0  0  0  0  0  0  0  0  0
    8.8847  -16.3125   24.4135 C   0  0  0  0  0  0  0  0  0  0  0  0
    8.4178  -17.4515   24.2633 O   0  0  0  0  0  0  0  0  0  0  0  0
   10.2788  -16.2084   24.6725 N   0  0  0  0  0  0  0  0  0  0  0  0
   11.1747  -17.3258   24.7199 C   0  0  1  0  0  0  0  0  0  0  0  0
   12.5420  -17.0258   24.1709 C   0  0  0  0  0  0  0  0  0  0  0  0
   12.7052  -17.4324   22.4317 S   0  0  0  0  0  0  0  0  0  0  0  0
   11.2128  -17.9342   26.0604 C   0  0  0  0  0  0  0  0  0  0  0  0
   10.6222  -17.3403   26.9997 O   0  0  0  0  0  0  0  0  0  0  0  0
   11.8512  -19.1121   26.3631 O   0  0  0  0  0  0  0  0  0  0  0  0
  2  1  1  0
  2  3  1  0
  3  5  1  0
  3  4  2  0
  5  6  1  0
  6 14  1  0
  6  7  1  1
  8  7  1  0
  8 13  2  0
  9  8  1  0
 10  9  2  0
 10 11  1  0
 11 12  2  0
 12 13  1  0
 14 15  2  0
 14 16  1  0
 16 17  1  0
 17 20  1  0
 17 18  1  1
 19 18  1  0
 20 22  1  0
 21 20  2  0
M  END
$$$$
