YQD.pdb
     RDKit          3D

 30 30  0  0  1  0  0  0  0  0999 V2000
    7.0109  -12.0516   16.6664 O   0  0  0  0  0  0  0  0  0  0  0  0
    7.3315  -12.6977   17.8592 C   0  0  0  0  0  0  0  0  0  0  0  0
    6.5044  -12.5799   18.9433 C   0  0  0  0  0  0  0  0  0  0  0  0
    6.7951  -13.2122   20.1489 C   0  0  0  0  0  0  0  0  0  0  0  0
    7.9414  -13.9880   20.2918 C   0  0  0  0  0  0  0  0  0  0  0  0
    8.2866  -14.6784   21.5601 C   0  0  0  0  0  0  0  0  0  0  0  0
    8.1025  -16.1462   21.4287 C   0  0  2  0  0  0  0  0  0  0  0  0
    6.6981  -16.4556   21.3430 N   0  0  0  0  0  0  0  0  0  0  0  0
    8.7957  -16.9409   22.4580 C   0  0  0  0  0  0  0  0  0  0  0  0
    8.1688  -17.0987   23.5634 O   0  0  0  0  0  0  0  0  0  0  0  0
    8.7611  -14.0852   19.1651 C   0  0  0  0  0  0  0  0  0  0  0  0
    8.4792  -13.4659   17.9786 C   0  0  0  0  0  0  0  0  0  0  0  0
    9.4398  -22.2799   22.9950 N   0  0  0  0  0  0  0  0  0  0  0  0
   10.2601  -22.0633   24.1240 C   0  0  0  0  0  0  0  0  0  0  0  0
   10.5100  -23.0134   24.8861 O   0  0  0  0  0  0  0  0  0  0  0  0
   10.7777  -20.6634   24.3173 C   0  0  0  0  0  0  0  0  0  0  0  0
   10.2225  -19.7380   23.2983 C   0  0  0  0  0  0  0  0  0  0  0  0
   10.7301  -18.3285   23.3644 C   0  0  2  0  0  0  0  0  0  0  0  0
   10.0593  -17.5331   22.3465 N   0  0  0  0  0  0  0  0  0  0  0  0
   12.1815  -18.2896   23.2446 C   0  0  0  0  0  0  0  0  0  0  0  0
   12.6868  -18.4939   22.1232 O   0  0  0  0  0  0  0  0  0  0  0  0
   13.0764  -18.0351   24.3185 N   0  0  0  0  0  0  0  0  0  0  0  0
   14.5483  -18.0523   24.1259 C   0  0  1  0  0  0  0  0  0  0  0  0
   15.0619  -16.6544   24.0078 C   0  0  0  0  0  0  0  0  0  0  0  0
   16.0776  -16.4246   22.9755 C   0  0  0  0  0  0  0  0  0  0  0  0
   16.4618  -17.3450   22.2134 O   0  0  0  0  0  0  0  0  0  0  0  0
   15.1572  -18.7678   25.2547 C   0  0  0  0  0  0  0  0  0  0  0  0
   16.4384  -19.2637   25.2724 O   0  0  0  0  0  0  0  0  0  0  0  0
   16.6419  -15.1777   22.8186 O   0  0  0  0  0  0  0  0  0  0  0  0
   14.4720  -18.9549   26.2992 O   0  0  0  0  0  0  0  0  0  0  0  0
  2 12  2  0
  2  1  1  0
  3  2  1  0
  4  5  1  0
  4  3  2  0
  5 11  2  0
  6  5  1  0
  7  6  1  0
  7  8  1  1
  9 19  1  0
  9  7  1  0
 10  9  2  0
 11 12  1  0
 14 13  1  0
 14 15  2  0
 16 14  1  0
 17 16  1  0
 18 17  1  6
 18 19  1  0
 20 18  1  0
 20 21  2  0
 22 23  1  0
 22 20  1  0
 23 24  1  1
 25 24  1  0
 25 29  1  0
 26 25  2  0
 27 23  1  0
 28 27  1  0
 30 27  2  0
M  END
$$$$
