YQD.pdb
     RDKit          3D

 30 30  0  0  1  0  0  0  0  0999 V2000
    6.5829  -10.6945   27.5662 O   0  0  0  0  0  0  0  0  0  0  0  0
    6.7588  -11.9948   27.0958 C   0  0  0  0  0  0  0  0  0  0  0  0
    5.8612  -12.9709   27.4346 C   0  0  0  0  0  0  0  0  0  0  0  0
    6.0076  -14.2790   26.9817 C   0  0  0  0  0  0  0  0  0  0  0  0
    7.0762  -14.6385   26.1662 C   0  0  0  0  0  0  0  0  0  0  0  0
    7.2673  -16.0220   25.6623 C   0  0  0  0  0  0  0  0  0  0  0  0
    6.4340  -16.2645   24.4572 C   0  0  2  0  0  0  0  0  0  0  0  0
    5.6262  -17.4413   24.6519 N   0  0  0  0  0  0  0  0  0  0  0  0
    7.1889  -16.2986   23.1922 C   0  0  0  0  0  0  0  0  0  0  0  0
    7.4030  -17.4596   22.6963 O   0  0  0  0  0  0  0  0  0  0  0  0
    7.9713  -13.6168   25.8415 C   0  0  0  0  0  0  0  0  0  0  0  0
    7.8312  -12.3302   26.2840 C   0  0  0  0  0  0  0  0  0  0  0  0
    7.4932  -12.9391   17.9009 N   0  0  0  0  0  0  0  0  0  0  0  0
    8.4583  -13.9284   18.1911 C   0  0  0  0  0  0  0  0  0  0  0  0
    8.5699  -14.9099   17.4360 O   0  0  0  0  0  0  0  0  0  0  0  0
    9.2941  -13.7080   19.4231 C   0  0  0  0  0  0  0  0  0  0  0  0
    8.4823  -13.8496   20.6575 C   0  0  0  0  0  0  0  0  0  0  0  0
    8.3988  -15.2383   21.2171 C   0  0  2  0  0  0  0  0  0  0  0  0
    7.6900  -15.1973   22.4878 N   0  0  0  0  0  0  0  0  0  0  0  0
    9.7222  -15.8371   21.3288 C   0  0  0  0  0  0  0  0  0  0  0  0
   10.2403  -16.3193   20.3025 O   0  0  0  0  0  0  0  0  0  0  0  0
   10.4766  -15.9163   22.5303 N   0  0  0  0  0  0  0  0  0  0  0  0
   11.6603  -16.8044   22.6491 C   0  0  1  0  0  0  0  0  0  0  0  0
   12.7834  -16.0695   23.3053 C   0  0  0  0  0  0  0  0  0  0  0  0
   13.6594  -15.3008   22.4155 C   0  0  0  0  0  0  0  0  0  0  0  0
   14.5756  -14.5695   22.8643 O   0  0  0  0  0  0  0  0  0  0  0  0
   11.2704  -18.0010   23.4058 C   0  0  0  0  0  0  0  0  0  0  0  0
   12.0158  -19.1516   23.4966 O   0  0  0  0  0  0  0  0  0  0  0  0
   13.4929  -15.3631   21.0495 O   0  0  0  0  0  0  0  0  0  0  0  0
   10.1712  -17.9979   24.0280 O   0  0  0  0  0  0  0  0  0  0  0  0
  2 12  2  0
  2  1  1  0
  3  2  1  0
  4  5  1  0
  4  3  2  0
  5 11  2  0
  6  5  1  0
  7  6  1  0
  7  8  1  1
  9 19  1  0
  9  7  1  0
 10  9  2  0
 11 12  1  0
 14 13  1  0
 14 15  2  0
 16 14  1  0
 17 16  1  0
 18 17  1  1
 18 19  1  0
 20 18  1  0
 20 21  2  0
 22 23  1  0
 22 20  1  0
 23 24  1  1
 25 24  1  0
 25 29  1  0
 26 25  2  0
 27 23  1  0
 28 27  1  0
 30 27  2  0
M  END
$$$$
