YQD.pdb
     RDKit          3D

 30 30  0  0  1  0  0  0  0  0999 V2000
    5.4698  -10.7815   28.4580 O   0  0  0  0  0  0  0  0  0  0  0  0
    6.0879  -11.6795   27.5895 C   0  0  0  0  0  0  0  0  0  0  0  0
    5.8558  -11.5972   26.2432 C   0  0  0  0  0  0  0  0  0  0  0  0
    6.4572  -12.4782   25.3487 C   0  0  0  0  0  0  0  0  0  0  0  0
    7.3176  -13.4759   25.7964 C   0  0  0  0  0  0  0  0  0  0  0  0
    7.9786  -14.4343   24.8750 C   0  0  0  0  0  0  0  0  0  0  0  0
    6.9836  -15.0760   23.9785 C   0  0  2  0  0  0  0  0  0  0  0  0
    6.2966  -16.1265   24.6855 N   0  0  0  0  0  0  0  0  0  0  0  0
    7.5300  -15.5264   22.6863 C   0  0  0  0  0  0  0  0  0  0  0  0
    7.8532  -16.7632   22.6128 O   0  0  0  0  0  0  0  0  0  0  0  0
    7.5304  -13.5295   27.1757 C   0  0  0  0  0  0  0  0  0  0  0  0
    6.9419  -12.6658   28.0580 C   0  0  0  0  0  0  0  0  0  0  0  0
    8.9132  -13.9089   16.7625 N   0  0  0  0  0  0  0  0  0  0  0  0
    7.5545  -13.8954   17.1473 C   0  0  0  0  0  0  0  0  0  0  0  0
    6.6733  -13.9406   16.2712 O   0  0  0  0  0  0  0  0  0  0  0  0
    7.2773  -13.8250   18.6248 C   0  0  0  0  0  0  0  0  0  0  0  0
    8.5275  -13.9535   19.4144 C   0  0  0  0  0  0  0  0  0  0  0  0
    8.5550  -15.0868   20.3961 C   0  0  2  0  0  0  0  0  0  0  0  0
    7.7288  -14.7420   21.5438 N   0  0  0  0  0  0  0  0  0  0  0  0
    9.9230  -15.4237   20.7671 C   0  0  0  0  0  0  0  0  0  0  0  0
   10.3540  -15.0177   21.8643 O   0  0  0  0  0  0  0  0  0  0  0  0
   10.8148  -16.1870   19.9664 N   0  0  0  0  0  0  0  0  0  0  0  0
   12.1058  -16.6885   20.5011 C   0  0  1  0  0  0  0  0  0  0  0  0
   11.8646  -17.5053   21.7285 C   0  0  0  0  0  0  0  0  0  0  0  0
   13.0378  -18.1739   22.3002 C   0  0  0  0  0  0  0  0  0  0  0  0
   14.1530  -18.1531   21.7245 O   0  0  0  0  0  0  0  0  0  0  0  0
   12.7761  -17.4629   19.4487 C   0  0  0  0  0  0  0  0  0  0  0  0
   14.0991  -17.3358   19.1005 O   0  0  0  0  0  0  0  0  0  0  0  0
   12.9403  -18.8505   23.4961 O   0  0  0  0  0  0  0  0  0  0  0  0
   12.1079  -18.3160   18.7997 O   0  0  0  0  0  0  0  0  0  0  0  0
  2 12  2  0
  2  1  1  0
  3  2  1  0
  4  5  1  0
  4  3  2  0
  5 11  2  0
  6  5  1  0
  7  6  1  0
  7  8  1  1
  9 19  1  0
  9  7  1  0
 10  9  2  0
 11 12  1  0
 14 13  1  0
 14 15  2  0
 16 14  1  0
 17 16  1  0
 18 17  1  6
 18 19  1  0
 20 18  1  0
 20 21  2  0
 22 23  1  0
 22 20  1  0
 23 24  1  1
 25 24  1  0
 25 29  1  0
 26 25  2  0
 27 23  1  0
 28 27  1  0
 30 27  2  0
M  END
$$$$
