YQD.pdb
     RDKit          3D

 30 30  0  0  1  0  0  0  0  0999 V2000
    8.5466  -12.3845   17.5835 O   0  0  0  0  0  0  0  0  0  0  0  0
    8.1501  -12.8916   18.8199 C   0  0  0  0  0  0  0  0  0  0  0  0
    6.8720  -13.3500   18.9920 C   0  0  0  0  0  0  0  0  0  0  0  0
    6.4441  -13.8627   20.2133 C   0  0  0  0  0  0  0  0  0  0  0  0
    7.3057  -13.9260   21.3041 C   0  0  0  0  0  0  0  0  0  0  0  0
    6.8880  -14.4658   22.6227 C   0  0  0  0  0  0  0  0  0  0  0  0
    7.2810  -15.8917   22.7574 C   0  0  2  0  0  0  0  0  0  0  0  0
    6.5540  -16.6899   21.8037 N   0  0  0  0  0  0  0  0  0  0  0  0
    7.1862  -16.4220   24.1290 C   0  0  0  0  0  0  0  0  0  0  0  0
    6.1057  -16.1542   24.7619 O   0  0  0  0  0  0  0  0  0  0  0  0
    8.6012  -13.4495   21.0914 C   0  0  0  0  0  0  0  0  0  0  0  0
    9.0259  -12.9452   19.8930 C   0  0  0  0  0  0  0  0  0  0  0  0
    6.0333  -21.1422   26.7187 N   0  0  0  0  0  0  0  0  0  0  0  0
    6.0711  -20.8367   25.3404 C   0  0  0  0  0  0  0  0  0  0  0  0
    5.6781  -21.6828   24.5185 O   0  0  0  0  0  0  0  0  0  0  0  0
    6.5982  -19.4766   24.9699 C   0  0  0  0  0  0  0  0  0  0  0  0
    6.8138  -18.6358   26.1739 C   0  0  0  0  0  0  0  0  0  0  0  0
    8.0246  -17.7521   26.1332 C   0  0  2  0  0  0  0  0  0  0  0  0
    8.1521  -17.1811   24.8003 N   0  0  0  0  0  0  0  0  0  0  0  0
    9.2161  -18.4785   26.5517 C   0  0  0  0  0  0  0  0  0  0  0  0
    9.2800  -19.6990   26.3056 O   0  0  0  0  0  0  0  0  0  0  0  0
   10.3233  -17.8979   27.2270 N   0  0  0  0  0  0  0  0  0  0  0  0
   11.4980  -18.7084   27.6356 C   0  0  1  0  0  0  0  0  0  0  0  0
   12.7590  -17.9809   27.3002 C   0  0  0  0  0  0  0  0  0  0  0  0
   12.9800  -17.6926   25.8796 C   0  0  0  0  0  0  0  0  0  0  0  0
   12.1825  -18.0898   24.9954 O   0  0  0  0  0  0  0  0  0  0  0  0
   11.3919  -18.9900   29.0730 C   0  0  0  0  0  0  0  0  0  0  0  0
   12.2319  -19.8195   29.7759 O   0  0  0  0  0  0  0  0  0  0  0  0
   14.0833  -16.9721   25.4783 O   0  0  0  0  0  0  0  0  0  0  0  0
   10.4669  -18.4414   29.7354 O   0  0  0  0  0  0  0  0  0  0  0  0
  2 12  2  0
  2  1  1  0
  3  2  1  0
  4  5  1  0
  4  3  2  0
  5 11  2  0
  6  5  1  0
  7  6  1  0
  7  8  1  6
  9 19  1  0
  9  7  1  0
 10  9  2  0
 11 12  1  0
 14 13  1  0
 14 15  2  0
 16 14  1  0
 17 16  1  0
 18 17  1  6
 18 19  1  0
 20 18  1  0
 20 21  2  0
 22 23  1  0
 22 20  1  0
 23 24  1  1
 25 24  1  0
 25 29  1  0
 26 25  2  0
 27 23  1  0
 28 27  1  0
 30 27  2  0
M  END
$$$$
