YQD.pdb
     RDKit          3D

 30 30  0  0  1  0  0  0  0  0999 V2000
    5.9007  -11.4573   27.8544 O   0  0  0  0  0  0  0  0  0  0  0  0
    6.2637  -12.0744   26.6584 C   0  0  0  0  0  0  0  0  0  0  0  0
    7.3731  -11.6485   25.9794 C   0  0  0  0  0  0  0  0  0  0  0  0
    7.7633  -12.2431   24.7828 C   0  0  0  0  0  0  0  0  0  0  0  0
    7.0346  -13.2946   24.2354 C   0  0  0  0  0  0  0  0  0  0  0  0
    7.4177  -13.9553   22.9621 C   0  0  0  0  0  0  0  0  0  0  0  0
    8.5645  -14.8758   23.1697 C   0  0  2  0  0  0  0  0  0  0  0  0
    8.9558  -15.4584   21.9116 N   0  0  0  0  0  0  0  0  0  0  0  0
    8.3507  -15.8871   24.2199 C   0  0  0  0  0  0  0  0  0  0  0  0
    8.3907  -15.4614   25.4269 O   0  0  0  0  0  0  0  0  0  0  0  0
    5.9094  -13.7020   24.9555 C   0  0  0  0  0  0  0  0  0  0  0  0
    5.5226  -13.1208   26.1317 C   0  0  0  0  0  0  0  0  0  0  0  0
    5.5754  -21.3172   23.4844 N   0  0  0  0  0  0  0  0  0  0  0  0
    5.1185  -20.0288   23.1299 C   0  0  0  0  0  0  0  0  0  0  0  0
    4.1152  -19.9172   22.4040 O   0  0  0  0  0  0  0  0  0  0  0  0
    5.9043  -18.8662   23.6737 C   0  0  0  0  0  0  0  0  0  0  0  0
    7.0065  -19.3259   24.5551 C   0  0  0  0  0  0  0  0  0  0  0  0
    7.9088  -18.2461   25.0735 C   0  0  2  0  0  0  0  0  0  0  0  0
    8.1114  -17.2531   24.0287 N   0  0  0  0  0  0  0  0  0  0  0  0
    9.1593  -18.8041   25.5711 C   0  0  0  0  0  0  0  0  0  0  0  0
    9.3617  -20.0252   25.4209 O   0  0  0  0  0  0  0  0  0  0  0  0
   10.1773  -18.0569   26.2224 N   0  0  0  0  0  0  0  0  0  0  0  0
   11.3645  -18.7167   26.8217 C   0  0  1  0  0  0  0  0  0  0  0  0
   12.6074  -17.9960   26.4120 C   0  0  0  0  0  0  0  0  0  0  0  0
   12.7745  -17.7628   24.9740 C   0  0  0  0  0  0  0  0  0  0  0  0
   12.4083  -18.6095   24.1228 O   0  0  0  0  0  0  0  0  0  0  0  0
   11.1979  -18.7389   28.2806 C   0  0  0  0  0  0  0  0  0  0  0  0
   10.1908  -18.1042   28.9668 O   0  0  0  0  0  0  0  0  0  0  0  0
   13.3469  -16.5952   24.5194 O   0  0  0  0  0  0  0  0  0  0  0  0
   12.0301  -19.3821   28.9798 O   0  0  0  0  0  0  0  0  0  0  0  0
  2 12  2  0
  2  1  1  0
  3  2  1  0
  4  5  1  0
  4  3  2  0
  5 11  2  0
  6  5  1  0
  7  6  1  0
  7  8  1  6
  9 19  1  0
  9  7  1  0
 10  9  2  0
 11 12  1  0
 14 13  1  0
 14 15  2  0
 16 14  1  0
 17 16  1  0
 18 17  1  6
 18 19  1  0
 20 18  1  0
 20 21  2  0
 22 23  1  0
 22 20  1  0
 23 24  1  1
 25 24  1  0
 25 29  1  0
 26 25  2  0
 27 23  1  0
 28 27  1  0
 30 27  2  0
M  END
$$$$
