YQD.pdb
     RDKit          3D

 30 30  0  0  1  0  0  0  0  0999 V2000
    8.5929  -13.0728   17.0579 O   0  0  0  0  0  0  0  0  0  0  0  0
    8.1786  -13.4774   18.3258 C   0  0  0  0  0  0  0  0  0  0  0  0
    8.4417  -14.7496   18.7566 C   0  0  0  0  0  0  0  0  0  0  0  0
    8.0420  -15.1854   20.0168 C   0  0  0  0  0  0  0  0  0  0  0  0
    7.3587  -14.3380   20.8835 C   0  0  0  0  0  0  0  0  0  0  0  0
    6.9159  -14.7644   22.2350 C   0  0  0  0  0  0  0  0  0  0  0  0
    7.1924  -16.2076   22.4498 C   0  0  2  0  0  0  0  0  0  0  0  0
    6.3352  -16.9991   21.6048 N   0  0  0  0  0  0  0  0  0  0  0  0
    7.1466  -16.6327   23.8599 C   0  0  0  0  0  0  0  0  0  0  0  0
    6.1353  -16.2321   24.5354 O   0  0  0  0  0  0  0  0  0  0  0  0
    7.1080  -13.0481   20.4100 C   0  0  0  0  0  0  0  0  0  0  0  0
    7.4991  -12.6157   19.1727 C   0  0  0  0  0  0  0  0  0  0  0  0
    6.3833  -21.1479   26.9971 N   0  0  0  0  0  0  0  0  0  0  0  0
    6.1353  -20.9762   25.6174 C   0  0  0  0  0  0  0  0  0  0  0  0
    5.6941  -21.9314   24.9548 O   0  0  0  0  0  0  0  0  0  0  0  0
    6.4335  -19.6157   25.0474 C   0  0  0  0  0  0  0  0  0  0  0  0
    6.7616  -18.6425   26.1189 C   0  0  0  0  0  0  0  0  0  0  0  0
    8.0238  -17.8596   25.9128 C   0  0  2  0  0  0  0  0  0  0  0  0
    8.0914  -17.4225   24.5260 N   0  0  0  0  0  0  0  0  0  0  0  0
    9.1904  -18.6328   26.3177 C   0  0  0  0  0  0  0  0  0  0  0  0
    9.3528  -19.7625   25.8158 O   0  0  0  0  0  0  0  0  0  0  0  0
   10.1680  -18.1951   27.2512 N   0  0  0  0  0  0  0  0  0  0  0  0
   11.2162  -19.1110   27.7675 C   0  0  1  0  0  0  0  0  0  0  0  0
   12.5693  -18.5855   27.4141 C   0  0  0  0  0  0  0  0  0  0  0  0
   12.8583  -18.4564   25.9823 C   0  0  0  0  0  0  0  0  0  0  0  0
   12.0266  -18.8040   25.1088 O   0  0  0  0  0  0  0  0  0  0  0  0
   11.0416  -19.2469   29.2193 C   0  0  0  0  0  0  0  0  0  0  0  0
   10.1217  -18.5546   29.9690 O   0  0  0  0  0  0  0  0  0  0  0  0
   14.0657  -17.9463   25.5585 O   0  0  0  0  0  0  0  0  0  0  0  0
   11.7811  -20.0540   29.8496 O   0  0  0  0  0  0  0  0  0  0  0  0
  2 12  2  0
  2  1  1  0
  3  2  1  0
  4  5  1  0
  4  3  2  0
  5 11  2  0
  6  5  1  0
  7  6  1  0
  7  8  1  6
  9 19  1  0
  9  7  1  0
 10  9  2  0
 11 12  1  0
 14 13  1  0
 14 15  2  0
 16 14  1  0
 17 16  1  0
 18 17  1  6
 18 19  1  0
 20 18  1  0
 20 21  2  0
 22 23  1  0
 22 20  1  0
 23 24  1  1
 25 24  1  0
 25 29  1  0
 26 25  2  0
 27 23  1  0
 28 27  1  0
 30 27  2  0
M  END
$$$$
