YQD.pdb
     RDKit          3D

 30 30  0  0  1  0  0  0  0  0999 V2000
    7.1982  -13.6820   15.5464 O   0  0  0  0  0  0  0  0  0  0  0  0
    7.3436  -14.0964   16.8693 C   0  0  0  0  0  0  0  0  0  0  0  0
    7.6599  -13.1846   17.8397 C   0  0  0  0  0  0  0  0  0  0  0  0
    7.8122  -13.5652   19.1700 C   0  0  0  0  0  0  0  0  0  0  0  0
    7.6473  -14.8912   19.5582 C   0  0  0  0  0  0  0  0  0  0  0  0
    7.8007  -15.3372   20.9661 C   0  0  0  0  0  0  0  0  0  0  0  0
    9.1755  -15.0665   21.4583 C   0  0  2  0  0  0  0  0  0  0  0  0
   10.0932  -16.0208   20.8905 N   0  0  0  0  0  0  0  0  0  0  0  0
    9.2897  -14.9742   22.9245 C   0  0  0  0  0  0  0  0  0  0  0  0
   10.3006  -15.5605   23.4479 O   0  0  0  0  0  0  0  0  0  0  0  0
    7.3253  -15.7929   18.5414 C   0  0  0  0  0  0  0  0  0  0  0  0
    7.1744  -15.4232   17.2332 C   0  0  0  0  0  0  0  0  0  0  0  0
    5.5141  -11.5802   26.7624 N   0  0  0  0  0  0  0  0  0  0  0  0
    6.3504  -12.2781   27.6613 C   0  0  0  0  0  0  0  0  0  0  0  0
    5.9551  -12.4898   28.8210 O   0  0  0  0  0  0  0  0  0  0  0  0
    7.6867  -12.7195   27.1279 C   0  0  0  0  0  0  0  0  0  0  0  0
    7.6022  -13.0741   25.6892 C   0  0  0  0  0  0  0  0  0  0  0  0
    8.6310  -14.0523   25.2060 C   0  0  2  0  0  0  0  0  0  0  0  0
    8.4096  -14.3159   23.7917 N   0  0  0  0  0  0  0  0  0  0  0  0
    8.6194  -15.2647   26.0140 C   0  0  0  0  0  0  0  0  0  0  0  0
    8.9635  -15.1805   27.2093 O   0  0  0  0  0  0  0  0  0  0  0  0
    8.2433  -16.5503   25.5401 N   0  0  0  0  0  0  0  0  0  0  0  0
    8.3080  -17.7506   26.4113 C   0  0  1  0  0  0  0  0  0  0  0  0
    7.9031  -18.9627   25.6375 C   0  0  0  0  0  0  0  0  0  0  0  0
    7.3479  -20.0722   26.4191 C   0  0  0  0  0  0  0  0  0  0  0  0
    7.3339  -20.0513   27.6740 O   0  0  0  0  0  0  0  0  0  0  0  0
    9.6723  -17.8678   26.9417 C   0  0  0  0  0  0  0  0  0  0  0  0
    9.9940  -17.9411   28.2755 O   0  0  0  0  0  0  0  0  0  0  0  0
    6.8247  -21.1777   25.7853 O   0  0  0  0  0  0  0  0  0  0  0  0
   10.6406  -17.9053   26.1315 O   0  0  0  0  0  0  0  0  0  0  0  0
  2 12  2  0
  2  1  1  0
  3  2  1  0
  4  5  1  0
  4  3  2  0
  5 11  2  0
  6  5  1  0
  7  6  1  0
  7  8  1  1
  9 19  1  0
  9  7  1  0
 10  9  2  0
 11 12  1  0
 14 13  1  0
 14 15  2  0
 16 14  1  0
 17 16  1  0
 18 17  1  1
 18 19  1  0
 20 18  1  0
 20 21  2  0
 22 23  1  0
 22 20  1  0
 23 24  1  6
 25 24  1  0
 25 29  1  0
 26 25  2  0
 27 23  1  0
 28 27  1  0
 30 27  2  0
M  END
$$$$
