YQD.pdb
     RDKit          3D

 30 30  0  0  1  0  0  0  0  0999 V2000
   11.4755  -15.1937   30.0622 O   0  0  0  0  0  0  0  0  0  0  0  0
   10.6073  -14.8007   29.0451 C   0  0  0  0  0  0  0  0  0  0  0  0
   10.6122  -15.4648   27.8484 C   0  0  0  0  0  0  0  0  0  0  0  0
    9.7580  -15.0980   26.8123 C   0  0  0  0  0  0  0  0  0  0  0  0
    8.8673  -14.0392   26.9601 C   0  0  0  0  0  0  0  0  0  0  0  0
    7.9403  -13.6173   25.8798 C   0  0  0  0  0  0  0  0  0  0  0  0
    6.8780  -14.6336   25.6695 C   0  0  2  0  0  0  0  0  0  0  0  0
    6.4208  -15.1311   26.9418 N   0  0  0  0  0  0  0  0  0  0  0  0
    7.2457  -15.7144   24.7378 C   0  0  0  0  0  0  0  0  0  0  0  0
    6.4129  -16.6824   24.6426 O   0  0  0  0  0  0  0  0  0  0  0  0
    8.8906  -13.3853   28.1940 C   0  0  0  0  0  0  0  0  0  0  0  0
    9.7280  -13.7425   29.2148 C   0  0  0  0  0  0  0  0  0  0  0  0
    5.5930  -15.6650   20.1314 N   0  0  0  0  0  0  0  0  0  0  0  0
    6.9644  -15.4659   19.8594 C   0  0  0  0  0  0  0  0  0  0  0  0
    7.5441  -16.2272   19.0654 O   0  0  0  0  0  0  0  0  0  0  0  0
    7.6291  -14.3190   20.5718 C   0  0  0  0  0  0  0  0  0  0  0  0
    7.6525  -14.5372   22.0398 C   0  0  0  0  0  0  0  0  0  0  0  0
    8.4693  -15.7062   22.5036 C   0  0  2  0  0  0  0  0  0  0  0  0
    8.4046  -15.7855   23.9556 N   0  0  0  0  0  0  0  0  0  0  0  0
    9.8352  -15.6204   22.0040 C   0  0  0  0  0  0  0  0  0  0  0  0
   10.0189  -15.6928   20.7730 O   0  0  0  0  0  0  0  0  0  0  0  0
   10.9874  -15.4599   22.8198 N   0  0  0  0  0  0  0  0  0  0  0  0
   12.2055  -16.2840   22.6171 C   0  0  1  0  0  0  0  0  0  0  0  0
   13.4248  -15.4640   22.8870 C   0  0  0  0  0  0  0  0  0  0  0  0
   14.6950  -16.0182   22.4079 C   0  0  0  0  0  0  0  0  0  0  0  0
   14.7429  -17.0966   21.7674 O   0  0  0  0  0  0  0  0  0  0  0  0
   12.1261  -17.4566   23.4976 C   0  0  0  0  0  0  0  0  0  0  0  0
   12.5773  -18.7138   23.1757 O   0  0  0  0  0  0  0  0  0  0  0  0
   15.8797  -15.3602   22.6553 O   0  0  0  0  0  0  0  0  0  0  0  0
   11.6077  -17.3260   24.6420 O   0  0  0  0  0  0  0  0  0  0  0  0
  2 12  2  0
  2  1  1  0
  3  2  1  0
  4  5  1  0
  4  3  2  0
  5 11  2  0
  6  5  1  0
  7  6  1  0
  7  8  1  1
  9 19  1  0
  9  7  1  0
 10  9  2  0
 11 12  1  0
 14 13  1  0
 14 15  2  0
 16 14  1  0
 17 16  1  0
 18 17  1  1
 18 19  1  0
 20 18  1  0
 20 21  2  0
 22 23  1  0
 22 20  1  0
 23 24  1  1
 25 24  1  0
 25 29  1  0
 26 25  2  0
 27 23  1  0
 28 27  1  0
 30 27  2  0
M  END
$$$$
