YQD.pdb
     RDKit          3D

 30 30  0  0  1  0  0  0  0  0999 V2000
    8.0331  -11.4243   17.8199 O   0  0  0  0  0  0  0  0  0  0  0  0
    8.2089  -12.3929   18.8068 C   0  0  0  0  0  0  0  0  0  0  0  0
    7.1194  -13.0061   19.3636 C   0  0  0  0  0  0  0  0  0  0  0  0
    7.2600  -13.9774   20.3509 C   0  0  0  0  0  0  0  0  0  0  0  0
    8.5187  -14.3579   20.8060 C   0  0  0  0  0  0  0  0  0  0  0  0
    8.7108  -15.3894   21.8565 C   0  0  0  0  0  0  0  0  0  0  0  0
    9.2226  -16.6531   21.2677 C   0  0  2  0  0  0  0  0  0  0  0  0
    8.3767  -17.0591   20.1745 N   0  0  0  0  0  0  0  0  0  0  0  0
    9.4435  -17.7340   22.2446 C   0  0  0  0  0  0  0  0  0  0  0  0
    8.4862  -18.5735   22.3803 O   0  0  0  0  0  0  0  0  0  0  0  0
    9.6064  -13.7109   20.2153 C   0  0  0  0  0  0  0  0  0  0  0  0
    9.4728  -12.7564   19.2449 C   0  0  0  0  0  0  0  0  0  0  0  0
    9.8074  -21.9392   21.6937 N   0  0  0  0  0  0  0  0  0  0  0  0
   11.1440  -22.3559   21.8790 C   0  0  0  0  0  0  0  0  0  0  0  0
   11.4532  -23.5353   21.6352 O   0  0  0  0  0  0  0  0  0  0  0  0
   12.1095  -21.3110   22.3697 C   0  0  0  0  0  0  0  0  0  0  0  0
   11.5760  -19.9423   22.1579 C   0  0  0  0  0  0  0  0  0  0  0  0
   11.1655  -19.2121   23.4017 C   0  0  2  0  0  0  0  0  0  0  0  0
   10.5852  -17.9297   23.0308 N   0  0  0  0  0  0  0  0  0  0  0  0
   12.2860  -19.0784   24.3232 C   0  0  0  0  0  0  0  0  0  0  0  0
   13.2720  -18.4075   23.9598 O   0  0  0  0  0  0  0  0  0  0  0  0
   12.3437  -19.6606   25.6180 N   0  0  0  0  0  0  0  0  0  0  0  0
   13.4797  -19.4014   26.5380 C   0  0  1  0  0  0  0  0  0  0  0  0
   13.2314  -20.0668   27.8523 C   0  0  0  0  0  0  0  0  0  0  0  0
   11.9161  -19.8323   28.4566 C   0  0  0  0  0  0  0  0  0  0  0  0
   11.4695  -18.6724   28.6322 O   0  0  0  0  0  0  0  0  0  0  0  0
   14.7127  -19.8836   25.9025 C   0  0  0  0  0  0  0  0  0  0  0  0
   15.9753  -19.4200   26.1832 O   0  0  0  0  0  0  0  0  0  0  0  0
   11.1319  -20.8935   28.8523 O   0  0  0  0  0  0  0  0  0  0  0  0
   14.6334  -20.7918   25.0282 O   0  0  0  0  0  0  0  0  0  0  0  0
  2 12  2  0
  2  1  1  0
  3  2  1  0
  4  5  1  0
  4  3  2  0
  5 11  2  0
  6  5  1  0
  7  6  1  0
  7  8  1  6
  9 19  1  0
  9  7  1  0
 10  9  2  0
 11 12  1  0
 14 13  1  0
 14 15  2  0
 16 14  1  0
 17 16  1  0
 18 17  1  6
 18 19  1  0
 20 18  1  0
 20 21  2  0
 22 23  1  0
 22 20  1  0
 23 24  1  1
 25 24  1  0
 25 29  1  0
 26 25  2  0
 27 23  1  0
 28 27  1  0
 30 27  2  0
M  END
$$$$
