YQD.pdb
     RDKit          3D

 30 30  0  0  1  0  0  0  0  0999 V2000
    8.1859  -12.4422   23.0539 O   0  0  0  0  0  0  0  0  0  0  0  0
    8.0508  -13.0362   21.8002 C   0  0  0  0  0  0  0  0  0  0  0  0
    7.6684  -14.3468   21.7031 C   0  0  0  0  0  0  0  0  0  0  0  0
    7.5238  -14.9700   20.4668 C   0  0  0  0  0  0  0  0  0  0  0  0
    7.7647  -14.2778   19.2841 C   0  0  0  0  0  0  0  0  0  0  0  0
    7.6216  -14.9062   17.9465 C   0  0  0  0  0  0  0  0  0  0  0  0
    8.9386  -15.0079   17.2677 C   0  0  2  0  0  0  0  0  0  0  0  0
    8.8084  -15.7920   16.0663 N   0  0  0  0  0  0  0  0  0  0  0  0
   10.0349  -15.4765   18.1338 C   0  0  0  0  0  0  0  0  0  0  0  0
    9.9857  -16.7061   18.4876 O   0  0  0  0  0  0  0  0  0  0  0  0
    8.1530  -12.9433   19.4222 C   0  0  0  0  0  0  0  0  0  0  0  0
    8.2959  -12.3269   20.6348 C   0  0  0  0  0  0  0  0  0  0  0  0
   15.3571  -15.9095   18.9093 N   0  0  0  0  0  0  0  0  0  0  0  0
   15.0921  -15.0471   17.8228 C   0  0  0  0  0  0  0  0  0  0  0  0
   15.7600  -15.1589   16.7801 O   0  0  0  0  0  0  0  0  0  0  0  0
   13.9946  -14.0367   18.0218 C   0  0  0  0  0  0  0  0  0  0  0  0
   13.3439  -14.2015   19.3455 C   0  0  0  0  0  0  0  0  0  0  0  0
   12.2314  -15.2059   19.3951 C   0  0  2  0  0  0  0  0  0  0  0  0
   11.1128  -14.7162   18.6029 N   0  0  0  0  0  0  0  0  0  0  0  0
   11.8591  -15.5058   20.7714 C   0  0  0  0  0  0  0  0  0  0  0  0
   11.2015  -14.6558   21.4034 O   0  0  0  0  0  0  0  0  0  0  0  0
   12.1916  -16.7048   21.4575 N   0  0  0  0  0  0  0  0  0  0  0  0
   11.8437  -16.9058   22.8867 C   0  0  1  0  0  0  0  0  0  0  0  0
   11.3902  -18.3122   23.1064 C   0  0  0  0  0  0  0  0  0  0  0  0
   11.2117  -18.7225   24.5028 C   0  0  0  0  0  0  0  0  0  0  0  0
   10.8509  -19.8858   24.8063 O   0  0  0  0  0  0  0  0  0  0  0  0
   13.0184  -16.5735   23.7029 C   0  0  0  0  0  0  0  0  0  0  0  0
   13.0138  -16.4414   25.0705 O   0  0  0  0  0  0  0  0  0  0  0  0
   11.4367  -17.8281   25.5260 O   0  0  0  0  0  0  0  0  0  0  0  0
   14.1281  -16.3897   23.1284 O   0  0  0  0  0  0  0  0  0  0  0  0
  2 12  2  0
  2  1  1  0
  3  2  1  0
  4  5  1  0
  4  3  2  0
  5 11  2  0
  6  5  1  0
  7  6  1  0
  7  8  1  6
  9 19  1  0
  9  7  1  0
 10  9  2  0
 11 12  1  0
 14 13  1  0
 14 15  2  0
 16 14  1  0
 17 16  1  0
 18 17  1  1
 18 19  1  0
 20 18  1  0
 20 21  2  0
 22 23  1  0
 22 20  1  0
 23 24  1  6
 25 24  1  0
 25 29  1  0
 26 25  2  0
 27 23  1  0
 28 27  1  0
 30 27  2  0
M  END
$$$$
