YQD.pdb
     RDKit          3D

 30 30  0  0  1  0  0  0  0  0999 V2000
    7.8331  -11.7486   17.8634 O   0  0  0  0  0  0  0  0  0  0  0  0
    7.9864  -12.7026   18.8681 C   0  0  0  0  0  0  0  0  0  0  0  0
    8.5510  -13.9151   18.5780 C   0  0  0  0  0  0  0  0  0  0  0  0
    8.7188  -14.8896   19.5578 C   0  0  0  0  0  0  0  0  0  0  0  0
    8.3158  -14.6617   20.8700 C   0  0  0  0  0  0  0  0  0  0  0  0
    8.4776  -15.6746   21.9434 C   0  0  0  0  0  0  0  0  0  0  0  0
    7.4781  -16.7633   21.7964 C   0  0  2  0  0  0  0  0  0  0  0  0
    6.1590  -16.2545   22.0732 N   0  0  0  0  0  0  0  0  0  0  0  0
    7.7879  -17.9817   22.5650 C   0  0  0  0  0  0  0  0  0  0  0  0
    7.3517  -18.0135   23.7685 O   0  0  0  0  0  0  0  0  0  0  0  0
    7.7441  -13.4140   21.1285 C   0  0  0  0  0  0  0  0  0  0  0  0
    7.5776  -12.4535   20.1690 C   0  0  0  0  0  0  0  0  0  0  0  0
    9.2690  -23.5422   20.4087 N   0  0  0  0  0  0  0  0  0  0  0  0
    9.5958  -23.8257   21.7531 C   0  0  0  0  0  0  0  0  0  0  0  0
    9.9241  -24.9826   22.0687 O   0  0  0  0  0  0  0  0  0  0  0  0
    9.5173  -22.6740   22.7187 C   0  0  0  0  0  0  0  0  0  0  0  0
    9.1384  -21.4163   22.0278 C   0  0  0  0  0  0  0  0  0  0  0  0
    8.9357  -20.2280   22.9197 C   0  0  2  0  0  0  0  0  0  0  0  0
    8.5057  -19.0954   22.1128 N   0  0  0  0  0  0  0  0  0  0  0  0
   10.1369  -19.9448   23.6940 C   0  0  0  0  0  0  0  0  0  0  0  0
   10.5749  -20.8341   24.4501 O   0  0  0  0  0  0  0  0  0  0  0  0
   10.8558  -18.7198   23.6549 N   0  0  0  0  0  0  0  0  0  0  0  0
   12.0822  -18.5108   24.4650 C   0  0  1  0  0  0  0  0  0  0  0  0
   12.7715  -17.2589   24.0299 C   0  0  0  0  0  0  0  0  0  0  0  0
   13.4708  -17.3206   22.7425 C   0  0  0  0  0  0  0  0  0  0  0  0
   13.5650  -18.3918   22.0951 O   0  0  0  0  0  0  0  0  0  0  0  0
   11.7014  -18.4641   25.8825 C   0  0  0  0  0  0  0  0  0  0  0  0
   12.5345  -18.7706   26.9311 O   0  0  0  0  0  0  0  0  0  0  0  0
   14.0494  -16.1901   22.2090 O   0  0  0  0  0  0  0  0  0  0  0  0
   10.5248  -18.1199   26.1870 O   0  0  0  0  0  0  0  0  0  0  0  0
  2 12  2  0
  2  1  1  0
  3  2  1  0
  4  5  1  0
  4  3  2  0
  5 11  2  0
  6  5  1  0
  7  6  1  0
  7  8  1  1
  9 19  1  0
  9  7  1  0
 10  9  2  0
 11 12  1  0
 14 13  1  0
 14 15  2  0
 16 14  1  0
 17 16  1  0
 18 17  1  6
 18 19  1  0
 20 18  1  0
 20 21  2  0
 22 23  1  0
 22 20  1  0
 23 24  1  6
 25 24  1  0
 25 29  1  0
 26 25  2  0
 27 23  1  0
 28 27  1  0
 30 27  2  0
M  END
$$$$
