YQD.pdb
     RDKit          3D

 30 30  0  0  1  0  0  0  0  0999 V2000
   13.2130  -21.5038    7.9759 O   0  0  0  0  0  0  0  0  0  0  0  0
   13.2997  -21.2757    9.3483 C   0  0  0  0  0  0  0  0  0  0  0  0
   13.5478  -22.3183   10.1995 C   0  0  0  0  0  0  0  0  0  0  0  0
   13.6407  -22.1249   11.5749 C   0  0  0  0  0  0  0  0  0  0  0  0
   13.4834  -20.8594   12.1317 C   0  0  0  0  0  0  0  0  0  0  0  0
   13.5754  -20.6116   13.5927 C   0  0  0  0  0  0  0  0  0  0  0  0
   12.2941  -20.9444   14.2659 C   0  0  2  0  0  0  0  0  0  0  0  0
   11.2702  -20.0206   13.8491 N   0  0  0  0  0  0  0  0  0  0  0  0
   12.3892  -21.0607   15.7318 C   0  0  0  0  0  0  0  0  0  0  0  0
   12.2197  -19.9780   16.3940 O   0  0  0  0  0  0  0  0  0  0  0  0
   13.2314  -19.8204   11.2329 C   0  0  0  0  0  0  0  0  0  0  0  0
   13.1397  -20.0060    9.8809 C   0  0  0  0  0  0  0  0  0  0  0  0
   11.7834  -26.2010   19.0716 N   0  0  0  0  0  0  0  0  0  0  0  0
   11.9750  -25.3218   20.1601 C   0  0  0  0  0  0  0  0  0  0  0  0
   11.8083  -25.7418   21.3184 O   0  0  0  0  0  0  0  0  0  0  0  0
   12.3751  -23.9115   19.8196 C   0  0  0  0  0  0  0  0  0  0  0  0
   12.4171  -23.7029   18.3507 C   0  0  0  0  0  0  0  0  0  0  0  0
   12.7964  -22.3215   17.9075 C   0  0  2  0  0  0  0  0  0  0  0  0
   12.6448  -22.2270   16.4629 N   0  0  0  0  0  0  0  0  0  0  0  0
   14.1391  -21.9786   18.3571 C   0  0  0  0  0  0  0  0  0  0  0  0
   15.0817  -22.1053   17.5510 O   0  0  0  0  0  0  0  0  0  0  0  0
   14.4618  -21.5065   19.6579 N   0  0  0  0  0  0  0  0  0  0  0  0
   15.8305  -21.0452   20.0011 C   0  0  1  0  0  0  0  0  0  0  0  0
   15.8497  -19.5561   20.1211 C   0  0  0  0  0  0  0  0  0  0  0  0
   17.1592  -18.9131   19.9727 C   0  0  0  0  0  0  0  0  0  0  0  0
   18.1911  -19.5752   19.7034 O   0  0  0  0  0  0  0  0  0  0  0  0
   16.2443  -21.7022   21.2475 C   0  0  0  0  0  0  0  0  0  0  0  0
   17.5413  -22.0082   21.5821 O   0  0  0  0  0  0  0  0  0  0  0  0
   17.2882  -17.5507   20.1299 O   0  0  0  0  0  0  0  0  0  0  0  0
   15.3604  -22.0207   22.0917 O   0  0  0  0  0  0  0  0  0  0  0  0
  2 12  2  0
  2  1  1  0
  3  2  1  0
  4  5  1  0
  4  3  2  0
  5 11  2  0
  6  5  1  0
  7  6  1  0
  7  8  1  1
  9 19  1  0
  9  7  1  0
 10  9  2  0
 11 12  1  0
 14 13  1  0
 14 15  2  0
 16 14  1  0
 17 16  1  0
 18 17  1  6
 18 19  1  0
 20 18  1  0
 20 21  2  0
 22 23  1  0
 22 20  1  0
 23 24  1  1
 25 24  1  0
 25 29  1  0
 26 25  2  0
 27 23  1  0
 28 27  1  0
 30 27  2  0
M  END
$$$$
