YQD.pdb
     RDKit          3D

 30 30  0  0  1  0  0  0  0  0999 V2000
    6.0426  -12.0402   19.3929 O   0  0  0  0  0  0  0  0  0  0  0  0
    7.0104  -13.0416   19.4511 C   0  0  0  0  0  0  0  0  0  0  0  0
    6.8131  -14.1365   20.2482 C   0  0  0  0  0  0  0  0  0  0  0  0
    7.7594  -15.1543   20.3290 C   0  0  0  0  0  0  0  0  0  0  0  0
    8.9422  -15.0912   19.5987 C   0  0  0  0  0  0  0  0  0  0  0  0
    9.9756  -16.1556   19.6572 C   0  0  0  0  0  0  0  0  0  0  0  0
    9.8818  -17.0475   18.4734 C   0  0  2  0  0  0  0  0  0  0  0  0
    8.6036  -17.7120   18.4640 N   0  0  0  0  0  0  0  0  0  0  0  0
   11.0088  -17.9856   18.3275 C   0  0  0  0  0  0  0  0  0  0  0  0
   10.8687  -19.1254   18.8940 O   0  0  0  0  0  0  0  0  0  0  0  0
    9.1088  -13.9598   18.7970 C   0  0  0  0  0  0  0  0  0  0  0  0
    8.1817  -12.9577   18.7144 C   0  0  0  0  0  0  0  0  0  0  0  0
   13.7192  -17.3133   12.9859 N   0  0  0  0  0  0  0  0  0  0  0  0
   14.2877  -18.2786   13.8457 C   0  0  0  0  0  0  0  0  0  0  0  0
   15.4203  -18.7258   13.5945 O   0  0  0  0  0  0  0  0  0  0  0  0
   13.4540  -18.6981   15.0263 C   0  0  0  0  0  0  0  0  0  0  0  0
   14.1196  -18.3511   16.3068 C   0  0  0  0  0  0  0  0  0  0  0  0
   13.3357  -18.6663   17.5457 C   0  0  2  0  0  0  0  0  0  0  0  0
   12.2051  -17.7541   17.6380 N   0  0  0  0  0  0  0  0  0  0  0  0
   14.1878  -18.6293   18.7268 C   0  0  0  0  0  0  0  0  0  0  0  0
   14.2596  -17.5634   19.3696 O   0  0  0  0  0  0  0  0  0  0  0  0
   14.9529  -19.7255   19.2083 N   0  0  0  0  0  0  0  0  0  0  0  0
   15.7643  -19.6239   20.4473 C   0  0  1  0  0  0  0  0  0  0  0  0
   15.6327  -20.8799   21.2455 C   0  0  0  0  0  0  0  0  0  0  0  0
   16.4585  -20.9666   22.4541 C   0  0  0  0  0  0  0  0  0  0  0  0
   17.3483  -21.8427   22.5820 O   0  0  0  0  0  0  0  0  0  0  0  0
   17.1581  -19.3560   20.0704 C   0  0  0  0  0  0  0  0  0  0  0  0
   18.0349  -18.5861   20.7958 O   0  0  0  0  0  0  0  0  0  0  0  0
   16.2722  -20.0785   23.4904 O   0  0  0  0  0  0  0  0  0  0  0  0
   17.6088  -19.8591   19.0031 O   0  0  0  0  0  0  0  0  0  0  0  0
  2 12  2  0
  2  1  1  0
  3  2  1  0
  4  5  1  0
  4  3  2  0
  5 11  2  0
  6  5  1  0
  7  6  1  0
  7  8  1  1
  9 19  1  0
  9  7  1  0
 10  9  2  0
 11 12  1  0
 14 13  1  0
 14 15  2  0
 16 14  1  0
 17 16  1  0
 18 17  1  6
 18 19  1  0
 20 18  1  0
 20 21  2  0
 22 23  1  0
 22 20  1  0
 23 24  1  6
 25 24  1  0
 25 29  1  0
 26 25  2  0
 27 23  1  0
 28 27  1  0
 30 27  2  0
M  END
$$$$
