MKS.pdb
     RDKit          3D

 24 23  0  0  1  0  0  0  0  0999 V2000
   29.2983  -26.3095  -15.7398 C   0  0  0  0  0  0  0  0  0  0  0  0
   30.3461  -25.6656  -17.0881 S   0  0  0  0  0  0  0  0  0  0  0  0
   29.8280  -23.9586  -17.3926 C   0  0  0  0  0  0  0  0  0  0  0  0
   28.3500  -23.7606  -17.0717 C   0  0  0  0  0  0  0  0  0  0  0  0
   28.0377  -22.3208  -17.4276 C   0  0  2  0  0  0  0  0  0  0  0  0
   28.9079  -21.4930  -16.6132 N   0  0  0  0  0  0  0  0  0  0  0  0
   26.6297  -21.9730  -17.2069 C   0  0  0  0  0  0  0  0  0  0  0  0
   25.7352  -22.5691  -17.8688 O   0  0  0  0  0  0  0  0  0  0  0  0
   26.2204  -20.9991  -16.2856 N   0  0  0  0  0  0  0  0  0  0  0  0
   24.7757  -20.7002  -16.0434 C   0  0  1  0  0  0  0  0  0  0  0  0
   24.6488  -20.0500  -14.7023 C   0  0  0  0  0  0  0  0  0  0  0  0
   23.3096  -19.5853  -14.2874 C   0  0  0  0  0  0  0  0  0  0  0  0
   22.4801  -20.7611  -13.8261 C   0  0  0  0  0  0  0  0  0  0  0  0
   21.0972  -20.2388  -13.4507 C   0  0  0  0  0  0  0  0  0  0  0  0
   20.2846  -21.4098  -13.0849 N   0  0  0  0  0  0  0  0  0  0  0  0
   24.3573  -19.8624  -17.1853 C   0  0  0  0  0  0  0  0  0  0  0  0
   25.0728  -18.8422  -17.4905 O   0  0  0  0  0  0  0  0  0  0  0  0
   21.2636  -20.8344  -19.6960 O   0  0  0  0  0  0  0  0  0  0  0  0
   22.3091  -20.0463  -20.2029 C   0  0  0  0  0  0  0  0  0  0  0  0
   22.8922  -19.1648  -19.1149 C   0  0  2  0  0  0  0  0  0  0  0  0
   23.2402  -20.0487  -18.0082 N   0  0  0  0  0  0  0  0  0  0  0  0
   21.8334  -18.2008  -18.7176 C   0  0  0  0  0  0  0  0  0  0  0  0
   21.3344  -18.3146  -17.5827 O   0  0  0  0  0  0  0  0  0  0  0  0
   21.3996  -17.1966  -19.5712 O   0  0  0  0  0  0  0  0  0  0  0  0
  2  1  1  0
  3  2  1  0
  4  3  1  0
  5  4  1  0
  5  7  1  0
  5  6  1  1
  7  9  1  0
  7  8  2  0
  9 10  1  0
 10 11  1  1
 12 11  1  0
 13 12  1  0
 13 14  1  0
 15 14  1  0
 16 21  1  0
 16 10  1  0
 17 16  2  0
 20 19  1  6
 19 18  1  0
 20 22  1  0
 20 21  1  0
 22 24  1  0
 23 22  2  0
M  END
$$$$
