MKS.pdb
     RDKit          3D

 24 23  0  0  1  0  0  0  0  0999 V2000
   25.5439  -18.9601   -8.2067 C   0  0  0  0  0  0  0  0  0  0  0  0
   26.9624  -20.0321   -8.6179 S   0  0  0  0  0  0  0  0  0  0  0  0
   26.3548  -21.3017   -9.7555 C   0  0  0  0  0  0  0  0  0  0  0  0
   25.7436  -20.6800  -11.0071 C   0  0  0  0  0  0  0  0  0  0  0  0
   25.2422  -21.8402  -11.8437 C   0  0  2  0  0  0  0  0  0  0  0  0
   26.4069  -22.4303  -12.4769 N   0  0  0  0  0  0  0  0  0  0  0  0
   24.2531  -21.4319  -12.8473 C   0  0  0  0  0  0  0  0  0  0  0  0
   24.6012  -21.3446  -14.0576 O   0  0  0  0  0  0  0  0  0  0  0  0
   22.9224  -21.1292  -12.5272 N   0  0  0  0  0  0  0  0  0  0  0  0
   21.8897  -20.8997  -13.5836 C   0  0  1  0  0  0  0  0  0  0  0  0
   20.5408  -20.9384  -12.9383 C   0  0  0  0  0  0  0  0  0  0  0  0
   19.5688  -21.9331  -13.4358 C   0  0  0  0  0  0  0  0  0  0  0  0
   18.2733  -21.8112  -12.6680 C   0  0  0  0  0  0  0  0  0  0  0  0
   17.2601  -22.7544  -13.3081 C   0  0  0  0  0  0  0  0  0  0  0  0
   16.0261  -22.6577  -12.5123 N   0  0  0  0  0  0  0  0  0  0  0  0
   22.2490  -19.6074  -14.2016 C   0  0  0  0  0  0  0  0  0  0  0  0
   23.0540  -18.8311  -13.5728 O   0  0  0  0  0  0  0  0  0  0  0  0
   25.0550  -18.9054  -16.1648 O   0  0  0  0  0  0  0  0  0  0  0  0
   23.9249  -19.7190  -16.3433 C   0  0  0  0  0  0  0  0  0  0  0  0
   22.6866  -18.8737  -16.5735 C   0  0  2  0  0  0  0  0  0  0  0  0
   21.8090  -19.1054  -15.4320 N   0  0  0  0  0  0  0  0  0  0  0  0
   22.0607  -19.3479  -17.8351 C   0  0  0  0  0  0  0  0  0  0  0  0
   21.3538  -20.3716  -17.7887 O   0  0  0  0  0  0  0  0  0  0  0  0
   22.2462  -18.6840  -19.0394 O   0  0  0  0  0  0  0  0  0  0  0  0
  2  1  1  0
  3  2  1  0
  4  3  1  0
  5  4  1  0
  5  7  1  0
  5  6  1  6
  7  9  1  0
  7  8  2  0
  9 10  1  0
 10 11  1  1
 12 11  1  0
 13 12  1  0
 13 14  1  0
 15 14  1  0
 16 21  1  0
 16 10  1  0
 17 16  2  0
 20 19  1  1
 19 18  1  0
 20 22  1  0
 20 21  1  0
 22 24  1  0
 23 22  2  0
M  END
$$$$
