MKS.pdb
     RDKit          3D

 24 23  0  0  1  0  0  0  0  0999 V2000
    9.8626  -12.8169  -12.6977 C   0  0  0  0  0  0  0  0  0  0  0  0
   11.0952  -12.3009  -11.4548 S   0  0  0  0  0  0  0  0  0  0  0  0
   12.6609  -12.0597  -12.3298 C   0  0  0  0  0  0  0  0  0  0  0  0
   13.7502  -11.5520  -11.3905 C   0  0  0  0  0  0  0  0  0  0  0  0
   14.9899  -11.3835  -12.2460 C   0  0  2  0  0  0  0  0  0  0  0  0
   15.5567  -12.7078  -12.4222 N   0  0  0  0  0  0  0  0  0  0  0  0
   15.9718  -10.4705  -11.6507 C   0  0  0  0  0  0  0  0  0  0  0  0
   16.7964  -10.9162  -10.8051 O   0  0  0  0  0  0  0  0  0  0  0  0
   16.0428   -9.1091  -11.9771 N   0  0  0  0  0  0  0  0  0  0  0  0
   17.1451   -8.2338  -11.4733 C   0  0  1  0  0  0  0  0  0  0  0  0
   18.1512   -8.0683  -12.5679 C   0  0  0  0  0  0  0  0  0  0  0  0
   19.2949   -7.1671  -12.3200 C   0  0  0  0  0  0  0  0  0  0  0  0
   20.1013   -7.0032  -13.5872 C   0  0  0  0  0  0  0  0  0  0  0  0
   21.3448   -6.1880  -13.2477 C   0  0  0  0  0  0  0  0  0  0  0  0
   20.9105   -4.7896  -13.1014 N   0  0  0  0  0  0  0  0  0  0  0  0
   16.4822   -6.9869  -11.0412 C   0  0  0  0  0  0  0  0  0  0  0  0
   15.6087   -6.4574  -11.8176 O   0  0  0  0  0  0  0  0  0  0  0  0
   15.0994   -6.0710   -7.4995 O   0  0  0  0  0  0  0  0  0  0  0  0
   15.9106   -5.0298   -7.9780 C   0  0  0  0  0  0  0  0  0  0  0  0
   15.9847   -5.0606   -9.4927 C   0  0  2  0  0  0  0  0  0  0  0  0
   16.6916   -6.2859   -9.8478 N   0  0  0  0  0  0  0  0  0  0  0  0
   16.7486   -3.8592   -9.9185 C   0  0  0  0  0  0  0  0  0  0  0  0
   17.8984   -4.0253  -10.3661 O   0  0  0  0  0  0  0  0  0  0  0  0
   16.2145   -2.5817   -9.8281 O   0  0  0  0  0  0  0  0  0  0  0  0
  2  1  1  0
  3  2  1  0
  4  3  1  0
  5  4  1  0
  5  7  1  0
  5  6  1  1
  7  9  1  0
  7  8  2  0
  9 10  1  0
 10 11  1  6
 12 11  1  0
 13 12  1  0
 13 14  1  0
 15 14  1  0
 16 21  1  0
 16 10  1  0
 17 16  2  0
 20 19  1  1
 19 18  1  0
 20 22  1  0
 20 21  1  0
 22 24  1  0
 23 22  2  0
M  END
$$$$
