MKS.pdb
     RDKit          3D

 24 23  0  0  1  0  0  0  0  0999 V2000
   22.1471  -32.8078  -14.0412 C   0  0  0  0  0  0  0  0  0  0  0  0
   23.1781  -33.1685  -15.5032 S   0  0  0  0  0  0  0  0  0  0  0  0
   24.4401  -31.8745  -15.5937 C   0  0  0  0  0  0  0  0  0  0  0  0
   25.4370  -32.1479  -16.7153 C   0  0  0  0  0  0  0  0  0  0  0  0
   26.5406  -31.1225  -16.5481 C   0  0  2  0  0  0  0  0  0  0  0  0
   25.9149  -29.8174  -16.6529 N   0  0  0  0  0  0  0  0  0  0  0  0
   27.6094  -31.2702  -17.5420 C   0  0  0  0  0  0  0  0  0  0  0  0
   28.0467  -30.2456  -18.1357 O   0  0  0  0  0  0  0  0  0  0  0  0
   28.1785  -32.5082  -17.8713 N   0  0  0  0  0  0  0  0  0  0  0  0
   29.6592  -32.6996  -17.9501 C   0  0  1  0  0  0  0  0  0  0  0  0
   30.2530  -32.3191  -16.6310 C   0  0  0  0  0  0  0  0  0  0  0  0
   31.7060  -32.5129  -16.4495 C   0  0  0  0  0  0  0  0  0  0  0  0
   32.4614  -31.4101  -17.1539 C   0  0  0  0  0  0  0  0  0  0  0  0
   33.9455  -31.7588  -17.1108 C   0  0  0  0  0  0  0  0  0  0  0  0
   34.6660  -30.6305  -17.7217 N   0  0  0  0  0  0  0  0  0  0  0  0
   29.8466  -34.1132  -18.3344 C   0  0  0  0  0  0  0  0  0  0  0  0
   29.3031  -35.0216  -17.6097 O   0  0  0  0  0  0  0  0  0  0  0  0
   32.5212  -35.2164  -21.0543 O   0  0  0  0  0  0  0  0  0  0  0  0
   31.4304  -36.1000  -21.0736 C   0  0  0  0  0  0  0  0  0  0  0  0
   30.6523  -36.0196  -19.7741 C   0  0  2  0  0  0  0  0  0  0  0  0
   30.5656  -34.6049  -19.4302 N   0  0  0  0  0  0  0  0  0  0  0  0
   31.4259  -36.7724  -18.7528 C   0  0  0  0  0  0  0  0  0  0  0  0
   31.8812  -36.1412  -17.7811 O   0  0  0  0  0  0  0  0  0  0  0  0
   31.6457  -38.1382  -18.8605 O   0  0  0  0  0  0  0  0  0  0  0  0
  2  1  1  0
  3  2  1  0
  4  3  1  0
  5  4  1  0
  5  7  1  0
  5  6  1  6
  7  9  1  0
  7  8  2  0
  9 10  1  0
 10 11  1  1
 12 11  1  0
 13 12  1  0
 13 14  1  0
 15 14  1  0
 16 21  1  0
 16 10  1  0
 17 16  2  0
 20 19  1  6
 19 18  1  0
 20 22  1  0
 20 21  1  0
 22 24  1  0
 23 22  2  0
M  END
$$$$
