MKS.pdb
     RDKit          3D

 24 23  0  0  1  0  0  0  0  0999 V2000
   25.5900  -19.5142   -7.7015 C   0  0  0  0  0  0  0  0  0  0  0  0
   26.7869  -20.8090   -8.1719 S   0  0  0  0  0  0  0  0  0  0  0  0
   27.8061  -20.1294   -9.5041 C   0  0  0  0  0  0  0  0  0  0  0  0
   27.0162  -20.0121  -10.8036 C   0  0  0  0  0  0  0  0  0  0  0  0
   26.4988  -21.4052  -11.1015 C   0  0  2  0  0  0  0  0  0  0  0  0
   27.6485  -22.2021  -11.4875 N   0  0  0  0  0  0  0  0  0  0  0  0
   25.4769  -21.4193  -12.1540 C   0  0  0  0  0  0  0  0  0  0  0  0
   25.8122  -21.7069  -13.3366 O   0  0  0  0  0  0  0  0  0  0  0  0
   24.1280  -21.1257  -11.9109 N   0  0  0  0  0  0  0  0  0  0  0  0
   23.0799  -21.3057  -12.9617 C   0  0  1  0  0  0  0  0  0  0  0  0
   21.7536  -21.4430  -12.2838 C   0  0  0  0  0  0  0  0  0  0  0  0
   20.5722  -21.7043  -13.1309 C   0  0  0  0  0  0  0  0  0  0  0  0
   19.3581  -21.9307  -12.2603 C   0  0  0  0  0  0  0  0  0  0  0  0
   18.1843  -22.2678  -13.1738 C   0  0  0  0  0  0  0  0  0  0  0  0
   17.0332  -22.5499  -12.3016 N   0  0  0  0  0  0  0  0  0  0  0  0
   23.2108  -20.1288  -13.8442 C   0  0  0  0  0  0  0  0  0  0  0  0
   23.2548  -18.9640  -13.3084 O   0  0  0  0  0  0  0  0  0  0  0  0
   24.3459  -20.3754  -17.7091 O   0  0  0  0  0  0  0  0  0  0  0  0
   24.5463  -19.1623  -17.0313 C   0  0  0  0  0  0  0  0  0  0  0  0
   23.4257  -18.9101  -16.0407 C   0  0  2  0  0  0  0  0  0  0  0  0
   23.2989  -20.1234  -15.2413 N   0  0  0  0  0  0  0  0  0  0  0  0
   22.1920  -18.6575  -16.8297 C   0  0  0  0  0  0  0  0  0  0  0  0
   22.1727  -17.6675  -17.5845 O   0  0  0  0  0  0  0  0  0  0  0  0
   21.0838  -19.4879  -16.7423 O   0  0  0  0  0  0  0  0  0  0  0  0
  2  1  1  0
  3  2  1  0
  4  3  1  0
  5  4  1  0
  5  7  1  0
  5  6  1  6
  7  9  1  0
  7  8  2  0
  9 10  1  0
 10 11  1  1
 12 11  1  0
 13 12  1  0
 13 14  1  0
 15 14  1  0
 16 21  1  0
 16 10  1  0
 17 16  2  0
 20 19  1  6
 19 18  1  0
 20 22  1  0
 20 21  1  0
 22 24  1  0
 23 22  2  0
M  END
$$$$
