MKS.pdb
     RDKit          3D

 24 23  0  0  1  0  0  0  0  0999 V2000
   16.6622  -30.0161  -12.3861 C   0  0  0  0  0  0  0  0  0  0  0  0
   17.3003  -28.8554  -11.1308 S   0  0  0  0  0  0  0  0  0  0  0  0
   19.0738  -28.6659  -11.4374 C   0  0  0  0  0  0  0  0  0  0  0  0
   19.8009  -30.0031  -11.3385 C   0  0  0  0  0  0  0  0  0  0  0  0
   20.6005  -29.9461  -10.0521 C   0  0  2  0  0  0  0  0  0  0  0  0
   21.4662  -28.7857  -10.1516 N   0  0  0  0  0  0  0  0  0  0  0  0
   21.3843  -31.1633   -9.8153 C   0  0  0  0  0  0  0  0  0  0  0  0
   20.7932  -32.2772   -9.7583 O   0  0  0  0  0  0  0  0  0  0  0  0
   22.7758  -31.1532   -9.6468 N   0  0  0  0  0  0  0  0  0  0  0  0
   23.5492  -32.4082   -9.3973 C   0  0  1  0  0  0  0  0  0  0  0  0
   24.8295  -32.3320  -10.1671 C   0  0  0  0  0  0  0  0  0  0  0  0
   25.6245  -33.5693  -10.3035 C   0  0  0  0  0  0  0  0  0  0  0  0
   26.3396  -33.8638   -9.0054 C   0  0  0  0  0  0  0  0  0  0  0  0
   27.1228  -35.1599   -9.1870 C   0  0  0  0  0  0  0  0  0  0  0  0
   27.7837  -35.4415   -7.9028 N   0  0  0  0  0  0  0  0  0  0  0  0
   23.7061  -32.4809   -7.9307 C   0  0  0  0  0  0  0  0  0  0  0  0
   24.3366  -31.5355   -7.3351 O   0  0  0  0  0  0  0  0  0  0  0  0
   22.2623  -33.8683   -3.6069 O   0  0  0  0  0  0  0  0  0  0  0  0
   22.2466  -34.0894   -4.9933 C   0  0  0  0  0  0  0  0  0  0  0  0
   23.4921  -33.5159   -5.6418 C   0  0  2  0  0  0  0  0  0  0  0  0
   23.2348  -33.4852   -7.0771 N   0  0  0  0  0  0  0  0  0  0  0  0
   24.6161  -34.4327   -5.3188 C   0  0  0  0  0  0  0  0  0  0  0  0
   25.1288  -34.3537   -4.1870 O   0  0  0  0  0  0  0  0  0  0  0  0
   25.0949  -35.3563   -6.2369 O   0  0  0  0  0  0  0  0  0  0  0  0
  2  1  1  0
  3  2  1  0
  4  3  1  0
  5  4  1  0
  5  7  1  0
  5  6  1  6
  7  9  1  0
  7  8  2  0
  9 10  1  0
 10 11  1  6
 12 11  1  0
 13 12  1  0
 13 14  1  0
 15 14  1  0
 16 21  1  0
 16 10  1  0
 17 16  2  0
 20 19  1  1
 19 18  1  0
 20 22  1  0
 20 21  1  0
 22 24  1  0
 23 22  2  0
M  END
$$$$
