MKS.pdb
     RDKit          3D

 24 23  0  0  1  0  0  0  0  0999 V2000
   25.2305  -31.1082  -14.4210 C   0  0  0  0  0  0  0  0  0  0  0  0
   26.5311  -32.2830  -14.9298 S   0  0  0  0  0  0  0  0  0  0  0  0
   25.9708  -33.9350  -14.4478 C   0  0  0  0  0  0  0  0  0  0  0  0
   25.4119  -33.9403  -13.0286 C   0  0  0  0  0  0  0  0  0  0  0  0
   24.9733  -35.3663  -12.7612 C   0  0  2  0  0  0  0  0  0  0  0  0
   23.7313  -35.5622  -13.4857 N   0  0  0  0  0  0  0  0  0  0  0  0
   24.7941  -35.6476  -11.3326 C   0  0  0  0  0  0  0  0  0  0  0  0
   23.7307  -35.2811  -10.7595 O   0  0  0  0  0  0  0  0  0  0  0  0
   25.7566  -36.3120  -10.5598 N   0  0  0  0  0  0  0  0  0  0  0  0
   25.5673  -36.5471   -9.0956 C   0  0  1  0  0  0  0  0  0  0  0  0
   26.4165  -37.7108   -8.6929 C   0  0  0  0  0  0  0  0  0  0  0  0
   26.3799  -38.1316   -7.2775 C   0  0  0  0  0  0  0  0  0  0  0  0
   27.3510  -39.2678   -7.0561 C   0  0  0  0  0  0  0  0  0  0  0  0
   27.2741  -39.6686   -5.5866 C   0  0  0  0  0  0  0  0  0  0  0  0
   28.0594  -40.9045   -5.4406 N   0  0  0  0  0  0  0  0  0  0  0  0
   25.9173  -35.2660   -8.4496 C   0  0  0  0  0  0  0  0  0  0  0  0
   26.9695  -34.6481   -8.8460 O   0  0  0  0  0  0  0  0  0  0  0  0
   23.7920  -31.9725   -7.2994 O   0  0  0  0  0  0  0  0  0  0  0  0
   24.4301  -32.6845   -6.2713 C   0  0  0  0  0  0  0  0  0  0  0  0
   25.6722  -33.3816   -6.7928 C   0  0  2  0  0  0  0  0  0  0  0  0
   25.2198  -34.6158   -7.4248 N   0  0  0  0  0  0  0  0  0  0  0  0
   26.5394  -33.6671   -5.6203 C   0  0  0  0  0  0  0  0  0  0  0  0
   26.7722  -34.8578   -5.3410 O   0  0  0  0  0  0  0  0  0  0  0  0
   27.0831  -32.6515   -4.8469 O   0  0  0  0  0  0  0  0  0  0  0  0
  2  1  1  0
  3  2  1  0
  4  3  1  0
  5  4  1  0
  5  7  1  0
  5  6  1  6
  7  9  1  0
  7  8  2  0
  9 10  1  0
 10 11  1  1
 12 11  1  0
 13 12  1  0
 13 14  1  0
 15 14  1  0
 16 21  1  0
 16 10  1  0
 17 16  2  0
 20 19  1  1
 19 18  1  0
 20 22  1  0
 20 21  1  0
 22 24  1  0
 23 22  2  0
M  END
$$$$
