MKS.pdb
     RDKit          3D

 24 23  0  0  1  0  0  0  0  0999 V2000
   28.3673  -19.6635   -4.5665 C   0  0  0  0  0  0  0  0  0  0  0  0
   28.2769  -19.3497   -6.3620 S   0  0  0  0  0  0  0  0  0  0  0  0
   26.7498  -20.1168   -6.9576 C   0  0  0  0  0  0  0  0  0  0  0  0
   26.5026  -19.7944   -8.4278 C   0  0  0  0  0  0  0  0  0  0  0  0
   26.9288  -21.0271   -9.1999 C   0  0  2  0  0  0  0  0  0  0  0  0
   28.3729  -21.1113   -9.0846 N   0  0  0  0  0  0  0  0  0  0  0  0
   26.5191  -20.9861  -10.6079 C   0  0  0  0  0  0  0  0  0  0  0  0
   27.2860  -20.4561  -11.4591 O   0  0  0  0  0  0  0  0  0  0  0  0
   25.3025  -21.5125  -11.0636 N   0  0  0  0  0  0  0  0  0  0  0  0
   25.0119  -21.6800  -12.5205 C   0  0  1  0  0  0  0  0  0  0  0  0
   24.4588  -23.0532  -12.7345 C   0  0  0  0  0  0  0  0  0  0  0  0
   24.1798  -23.4734  -14.1228 C   0  0  0  0  0  0  0  0  0  0  0  0
   25.4772  -23.7691  -14.8386 C   0  0  0  0  0  0  0  0  0  0  0  0
   25.1514  -24.0395  -16.3038 C   0  0  0  0  0  0  0  0  0  0  0  0
   26.4270  -24.3312  -16.9769 N   0  0  0  0  0  0  0  0  0  0  0  0
   24.0914  -20.5764  -12.8607 C   0  0  0  0  0  0  0  0  0  0  0  0
   23.1154  -20.3266  -12.0663 O   0  0  0  0  0  0  0  0  0  0  0  0
   22.4816  -17.4345  -16.2459 O   0  0  0  0  0  0  0  0  0  0  0  0
   23.4416  -18.3476  -15.7815 C   0  0  0  0  0  0  0  0  0  0  0  0
   23.0453  -18.8987  -14.4251 C   0  0  2  0  0  0  0  0  0  0  0  0
   24.1526  -19.7365  -13.9789 N   0  0  0  0  0  0  0  0  0  0  0  0
   21.8113  -19.7028  -14.6224 C   0  0  0  0  0  0  0  0  0  0  0  0
   21.9225  -20.8255  -15.1488 O   0  0  0  0  0  0  0  0  0  0  0  0
   20.5628  -19.2346  -14.2385 O   0  0  0  0  0  0  0  0  0  0  0  0
  2  1  1  0
  3  2  1  0
  4  3  1  0
  5  4  1  0
  5  7  1  0
  5  6  1  6
  7  9  1  0
  7  8  2  0
  9 10  1  0
 10 11  1  1
 12 11  1  0
 13 12  1  0
 13 14  1  0
 15 14  1  0
 16 21  1  0
 16 10  1  0
 17 16  2  0
 20 19  1  6
 19 18  1  0
 20 22  1  0
 20 21  1  0
 22 24  1  0
 23 22  2  0
M  END
$$$$
