MKS.pdb
     RDKit          3D

 24 23  0  0  1  0  0  0  0  0999 V2000
   19.0153  -18.3756  -13.8896 C   0  0  0  0  0  0  0  0  0  0  0  0
   19.7505  -16.7064  -13.8260 S   0  0  0  0  0  0  0  0  0  0  0  0
   19.8631  -16.1118  -15.5316 C   0  0  0  0  0  0  0  0  0  0  0  0
   20.3719  -14.6750  -15.5868 C   0  0  0  0  0  0  0  0  0  0  0  0
   20.3885  -14.2972  -17.0546 C   0  0  2  0  0  0  0  0  0  0  0  0
   21.6335  -14.8049  -17.6006 N   0  0  0  0  0  0  0  0  0  0  0  0
   20.2751  -12.8507  -17.2708 C   0  0  0  0  0  0  0  0  0  0  0  0
   21.3194  -12.1414  -17.2636 O   0  0  0  0  0  0  0  0  0  0  0  0
   19.0495  -12.2061  -17.4882 N   0  0  0  0  0  0  0  0  0  0  0  0
   18.9691  -10.7415  -17.7773 C   0  0  1  0  0  0  0  0  0  0  0  0
   17.6227  -10.4509  -18.3606 C   0  0  0  0  0  0  0  0  0  0  0  0
   17.2752   -9.0387  -18.6183 C   0  0  0  0  0  0  0  0  0  0  0  0
   17.6043   -8.6836  -20.0496 C   0  0  0  0  0  0  0  0  0  0  0  0
   17.2313   -7.2207  -20.2658 C   0  0  0  0  0  0  0  0  0  0  0  0
   17.4257   -6.9386  -21.6969 N   0  0  0  0  0  0  0  0  0  0  0  0
   19.2474  -10.0768  -16.4882 C   0  0  0  0  0  0  0  0  0  0  0  0
   18.8092  -10.6208  -15.4121 O   0  0  0  0  0  0  0  0  0  0  0  0
   22.0054   -7.3626  -13.6922 O   0  0  0  0  0  0  0  0  0  0  0  0
   21.6824   -7.9874  -14.9072 C   0  0  0  0  0  0  0  0  0  0  0  0
   20.2003   -8.3041  -14.9699 C   0  0  2  0  0  0  0  0  0  0  0  0
   19.9567   -8.8874  -16.2842 N   0  0  0  0  0  0  0  0  0  0  0  0
   19.4706   -7.0194  -14.8106 C   0  0  0  0  0  0  0  0  0  0  0  0
   19.2506   -6.3411  -15.8312 O   0  0  0  0  0  0  0  0  0  0  0  0
   19.0390   -6.5711  -13.5705 O   0  0  0  0  0  0  0  0  0  0  0  0
  2  1  1  0
  3  2  1  0
  4  3  1  0
  5  4  1  0
  5  7  1  0
  5  6  1  1
  7  9  1  0
  7  8  2  0
  9 10  1  0
 10 11  1  1
 12 11  1  0
 13 12  1  0
 13 14  1  0
 15 14  1  0
 16 21  1  0
 16 10  1  0
 17 16  2  0
 20 19  1  6
 19 18  1  0
 20 22  1  0
 20 21  1  0
 22 24  1  0
 23 22  2  0
M  END
$$$$
