MKS.pdb
     RDKit          3D

 24 23  0  0  1  0  0  0  0  0999 V2000
   18.4057   -7.9362  -23.6978 C   0  0  0  0  0  0  0  0  0  0  0  0
   20.1266   -8.2067  -24.2419 S   0  0  0  0  0  0  0  0  0  0  0  0
   21.1736   -8.0770  -22.7715 C   0  0  0  0  0  0  0  0  0  0  0  0
   20.3382   -7.8921  -21.5088 C   0  0  0  0  0  0  0  0  0  0  0  0
   21.3296   -7.7941  -20.3664 C   0  0  2  0  0  0  0  0  0  0  0  0
   21.7931   -9.1434  -20.1012 N   0  0  0  0  0  0  0  0  0  0  0  0
   20.7492   -7.1950  -19.1597 C   0  0  0  0  0  0  0  0  0  0  0  0
   20.3263   -6.0063  -19.2024 O   0  0  0  0  0  0  0  0  0  0  0  0
   20.6384   -7.8841  -17.9441 N   0  0  0  0  0  0  0  0  0  0  0  0
   19.9846   -7.2717  -16.7471 C   0  0  1  0  0  0  0  0  0  0  0  0
   19.4495   -8.3737  -15.8887 C   0  0  0  0  0  0  0  0  0  0  0  0
   18.7950   -7.9998  -14.6185 C   0  0  0  0  0  0  0  0  0  0  0  0
   18.3816   -9.2454  -13.8697 C   0  0  0  0  0  0  0  0  0  0  0  0
   17.6220   -8.8096  -12.6211 C   0  0  0  0  0  0  0  0  0  0  0  0
   17.4031  -10.0191  -11.8120 N   0  0  0  0  0  0  0  0  0  0  0  0
   21.0310   -6.4418  -16.1169 C   0  0  0  0  0  0  0  0  0  0  0  0
   22.2304   -6.8956  -16.0767 O   0  0  0  0  0  0  0  0  0  0  0  0
   20.4871   -2.5300  -14.9353 O   0  0  0  0  0  0  0  0  0  0  0  0
   21.7632   -2.9751  -15.3154 C   0  0  0  0  0  0  0  0  0  0  0  0
   21.9637   -4.4265  -14.9232 C   0  0  2  0  0  0  0  0  0  0  0  0
   20.8750   -5.1761  -15.5396 N   0  0  0  0  0  0  0  0  0  0  0  0
   21.8882   -4.4942  -13.4406 C   0  0  0  0  0  0  0  0  0  0  0  0
   20.9125   -5.0751  -12.9304 O   0  0  0  0  0  0  0  0  0  0  0  0
   22.8656   -3.9331  -12.6312 O   0  0  0  0  0  0  0  0  0  0  0  0
  2  1  1  0
  3  2  1  0
  4  3  1  0
  5  4  1  0
  5  7  1  0
  5  6  1  1
  7  9  1  0
  7  8  2  0
  9 10  1  0
 10 11  1  1
 12 11  1  0
 13 12  1  0
 13 14  1  0
 15 14  1  0
 16 21  1  0
 16 10  1  0
 17 16  2  0
 20 19  1  1
 19 18  1  0
 20 22  1  0
 20 21  1  0
 22 24  1  0
 23 22  2  0
M  END
$$$$
