DAK.pdb
     RDKit          3D

 23 22  0  0  1  0  0  0  0  0999 V2000
   18.2740  -11.9625  -17.1545 N   0  0  0  0  0  0  0  0  0  0  0  0
   19.4887  -11.2945  -17.5691 C   0  0  1  0  0  0  0  0  0  0  0  0
   19.2461  -10.3909  -18.7626 C   0  0  0  0  0  0  0  0  0  0  0  0
   18.8003  -11.1689  -19.9405 C   0  0  0  0  0  0  0  0  0  0  0  0
   17.9251  -10.7059  -20.6955 O   0  0  0  0  0  0  0  0  0  0  0  0
   20.1158  -10.5477  -16.4512 C   0  0  0  0  0  0  0  0  0  0  0  0
   19.4476   -9.7171  -15.7865 O   0  0  0  0  0  0  0  0  0  0  0  0
   19.3454  -12.4103  -20.2161 O   0  0  0  0  0  0  0  0  0  0  0  0
   23.4786  -10.3980  -14.7029 C   0  0  0  0  0  0  0  0  0  0  0  0
   22.0868   -9.9441  -15.0718 C   0  0  2  0  0  0  0  0  0  0  0  0
   21.4772  -10.7343  -16.0870 N   0  0  0  0  0  0  0  0  0  0  0  0
   22.1560   -8.4998  -15.4104 C   0  0  0  0  0  0  0  0  0  0  0  0
   22.1701   -8.1891  -16.6243 O   0  0  0  0  0  0  0  0  0  0  0  0
   22.2058   -7.4746  -14.4632 N   0  0  0  0  0  0  0  0  0  0  0  0
   22.1062   -6.0679  -14.7197 C   0  0  1  0  0  0  0  0  0  0  0  0
   20.9950   -5.6461  -15.5954 C   0  0  0  0  0  0  0  0  0  0  0  0
   20.8179   -4.1663  -15.7904 C   0  0  0  0  0  0  0  0  0  0  0  0
   19.6771   -3.7957  -16.7049 C   0  0  0  0  0  0  0  0  0  0  0  0
   19.6530   -2.2794  -16.8326 C   0  0  0  0  0  0  0  0  0  0  0  0
   18.6738   -1.9676  -17.8669 N   0  0  0  0  0  0  0  0  0  0  0  0
   22.2419   -5.3029  -13.4737 C   0  0  0  0  0  0  0  0  0  0  0  0
   21.8676   -5.7184  -12.3476 O   0  0  0  0  0  0  0  0  0  0  0  0
   22.8175   -4.0314  -13.5104 O   0  0  0  0  0  0  0  0  0  0  0  0
  2  1  1  1
  2  3  1  0
  3  4  1  0
  4  5  2  0
  6 11  1  0
  6  2  1  0
  7  6  2  0
  8  4  1  0
 10  9  1  6
 10 12  1  0
 10 11  1  0
 12 14  1  0
 13 12  2  0
 14 15  1  0
 15 21  1  0
 15 16  1  1
 16 17  1  0
 18 19  1  0
 18 17  1  0
 20 19  1  0
 21 23  1  0
 22 21  2  0
M  END
$$$$
