DAK.pdb
     RDKit          3D

 23 22  0  0  1  0  0  0  0  0999 V2000
   13.7420   -9.5444  -11.0108 N   0  0  0  0  0  0  0  0  0  0  0  0
   15.0685   -9.5899  -10.4345 C   0  0  1  0  0  0  0  0  0  0  0  0
   15.8240  -10.8282  -10.8767 C   0  0  0  0  0  0  0  0  0  0  0  0
   15.1327  -12.0616  -10.4381 C   0  0  0  0  0  0  0  0  0  0  0  0
   14.3396  -12.0214   -9.4790 O   0  0  0  0  0  0  0  0  0  0  0  0
   15.8402   -8.3581  -10.7304 C   0  0  0  0  0  0  0  0  0  0  0  0
   16.0650   -8.0176  -11.9186 O   0  0  0  0  0  0  0  0  0  0  0  0
   15.3563  -13.2653  -11.0825 O   0  0  0  0  0  0  0  0  0  0  0  0
   17.1306   -5.3523   -8.8500 C   0  0  0  0  0  0  0  0  0  0  0  0
   17.0569   -6.3220  -10.0048 C   0  0  2  0  0  0  0  0  0  0  0  0
   16.3517   -7.5209   -9.7015 N   0  0  0  0  0  0  0  0  0  0  0  0
   18.4414   -6.5581  -10.4875 C   0  0  0  0  0  0  0  0  0  0  0  0
   19.2024   -7.2344   -9.7569 O   0  0  0  0  0  0  0  0  0  0  0  0
   18.9420   -6.0748  -11.6985 N   0  0  0  0  0  0  0  0  0  0  0  0
   20.2018   -6.4066  -12.2963 C   0  0  1  0  0  0  0  0  0  0  0  0
   20.1433   -7.2614  -13.4986 C   0  0  0  0  0  0  0  0  0  0  0  0
   21.4490   -7.5391  -14.1894 C   0  0  0  0  0  0  0  0  0  0  0  0
   21.3264   -8.4087  -15.4159 C   0  0  0  0  0  0  0  0  0  0  0  0
   22.7185   -8.5877  -16.0039 C   0  0  0  0  0  0  0  0  0  0  0  0
   23.0772   -7.3119  -16.6117 N   0  0  0  0  0  0  0  0  0  0  0  0
   21.0465   -5.2121  -12.4220 C   0  0  0  0  0  0  0  0  0  0  0  0
   22.2866   -5.2013  -12.2151 O   0  0  0  0  0  0  0  0  0  0  0  0
   20.4646   -3.9980  -12.7916 O   0  0  0  0  0  0  0  0  0  0  0  0
  2  1  1  6
  2  3  1  0
  3  4  1  0
  4  5  2  0
  6 11  1  0
  6  2  1  0
  7  6  2  0
  8  4  1  0
 10  9  1  1
 10 12  1  0
 10 11  1  0
 12 14  1  0
 13 12  2  0
 14 15  1  0
 15 21  1  0
 15 16  1  6
 16 17  1  0
 18 19  1  0
 18 17  1  0
 20 19  1  0
 21 23  1  0
 22 21  2  0
M  END
$$$$
