DAK.pdb
     RDKit          3D

 23 22  0  0  1  0  0  0  0  0999 V2000
   12.0666  -12.2720  -12.3709 N   0  0  0  0  0  0  0  0  0  0  0  0
   12.9172  -12.1603  -11.2056 C   0  0  1  0  0  0  0  0  0  0  0  0
   14.0966  -13.1102  -11.2858 C   0  0  0  0  0  0  0  0  0  0  0  0
   13.6630  -14.5162  -11.1225 C   0  0  0  0  0  0  0  0  0  0  0  0
   12.4716  -14.7730  -10.8670 O   0  0  0  0  0  0  0  0  0  0  0  0
   13.3682  -10.7646  -10.9845 C   0  0  0  0  0  0  0  0  0  0  0  0
   13.8588  -10.0969  -11.9290 O   0  0  0  0  0  0  0  0  0  0  0  0
   14.5677  -15.5551  -11.2505 O   0  0  0  0  0  0  0  0  0  0  0  0
   13.1174   -8.1558   -8.2618 C   0  0  0  0  0  0  0  0  0  0  0  0
   13.6393   -8.7665   -9.5400 C   0  0  2  0  0  0  0  0  0  0  0  0
   13.2680  -10.1294   -9.7166 N   0  0  0  0  0  0  0  0  0  0  0  0
   15.1072   -8.5449   -9.5818 C   0  0  0  0  0  0  0  0  0  0  0  0
   15.8423   -9.4400   -9.1035 O   0  0  0  0  0  0  0  0  0  0  0  0
   15.7127   -7.4065  -10.1187 N   0  0  0  0  0  0  0  0  0  0  0  0
   17.1195   -7.1437  -10.1993 C   0  0  1  0  0  0  0  0  0  0  0  0
   17.7973   -7.6139  -11.4236 C   0  0  0  0  0  0  0  0  0  0  0  0
   19.2583   -7.2846  -11.5512 C   0  0  0  0  0  0  0  0  0  0  0  0
   19.8744   -7.7058  -12.8620 C   0  0  0  0  0  0  0  0  0  0  0  0
   21.3468   -7.3222  -12.8319 C   0  0  0  0  0  0  0  0  0  0  0  0
   21.9515   -7.9120  -14.0203 N   0  0  0  0  0  0  0  0  0  0  0  0
   17.4099   -5.7549   -9.8210 C   0  0  0  0  0  0  0  0  0  0  0  0
   16.8186   -4.7553  -10.3025 O   0  0  0  0  0  0  0  0  0  0  0  0
   18.3999   -5.4970   -8.8709 O   0  0  0  0  0  0  0  0  0  0  0  0
  2  1  1  6
  2  3  1  0
  3  4  1  0
  4  5  2  0
  6 11  1  0
  6  2  1  0
  7  6  2  0
  8  4  1  0
 10  9  1  1
 10 12  1  0
 10 11  1  0
 12 14  1  0
 13 12  2  0
 14 15  1  0
 15 21  1  0
 15 16  1  6
 16 17  1  0
 18 19  1  0
 18 17  1  0
 20 19  1  0
 21 23  1  0
 22 21  2  0
M  END
$$$$
