DAK.pdb
     RDKit          3D

 23 22  0  0  1  0  0  0  0  0999 V2000
   21.7239  -10.5767  -15.8034 N   0  0  0  0  0  0  0  0  0  0  0  0
   21.8120   -9.2565  -16.3892 C   0  0  1  0  0  0  0  0  0  0  0  0
   21.3221   -9.2520  -17.8244 C   0  0  0  0  0  0  0  0  0  0  0  0
   22.1079  -10.1872  -18.6607 C   0  0  0  0  0  0  0  0  0  0  0  0
   23.2952   -9.9292  -18.9328 O   0  0  0  0  0  0  0  0  0  0  0  0
   21.0952   -8.2440  -15.5758 C   0  0  0  0  0  0  0  0  0  0  0  0
   19.8948   -8.4222  -15.2509 O   0  0  0  0  0  0  0  0  0  0  0  0
   21.5386  -11.3506  -19.1470 O   0  0  0  0  0  0  0  0  0  0  0  0
   21.9594   -5.0946  -13.6625 C   0  0  0  0  0  0  0  0  0  0  0  0
   21.0502   -6.1329  -14.2746 C   0  0  2  0  0  0  0  0  0  0  0  0
   21.7223   -7.0470  -15.1344 N   0  0  0  0  0  0  0  0  0  0  0  0
   19.9272   -5.4194  -14.9345 C   0  0  0  0  0  0  0  0  0  0  0  0
   20.0484   -5.1482  -16.1519 O   0  0  0  0  0  0  0  0  0  0  0  0
   18.7526   -5.0356  -14.2836 N   0  0  0  0  0  0  0  0  0  0  0  0
   17.6429   -4.3375  -14.8631 C   0  0  1  0  0  0  0  0  0  0  0  0
   16.3135   -4.6587  -14.3070 C   0  0  0  0  0  0  0  0  0  0  0  0
   15.1411   -3.9361  -14.9090 C   0  0  0  0  0  0  0  0  0  0  0  0
   13.8053   -4.3430  -14.3386 C   0  0  0  0  0  0  0  0  0  0  0  0
   12.7238   -3.5782  -15.0878 C   0  0  0  0  0  0  0  0  0  0  0  0
   11.4534   -3.9603  -14.4828 N   0  0  0  0  0  0  0  0  0  0  0  0
   17.9378   -2.9041  -14.9835 C   0  0  0  0  0  0  0  0  0  0  0  0
   17.4638   -2.1602  -15.8794 O   0  0  0  0  0  0  0  0  0  0  0  0
   18.7955   -2.3019  -14.0609 O   0  0  0  0  0  0  0  0  0  0  0  0
  2  1  1  1
  2  3  1  0
  3  4  1  0
  4  5  2  0
  6 11  1  0
  6  2  1  0
  7  6  2  0
  8  4  1  0
 10  9  1  6
 10 12  1  0
 10 11  1  0
 12 14  1  0
 13 12  2  0
 14 15  1  0
 15 21  1  0
 15 16  1  1
 16 17  1  0
 18 19  1  0
 18 17  1  0
 20 19  1  0
 21 23  1  0
 22 21  2  0
M  END
$$$$
