DAK.pdb
     RDKit          3D

 23 22  0  0  1  0  0  0  0  0999 V2000
   14.9217  -14.0846  -15.7363 N   0  0  0  0  0  0  0  0  0  0  0  0
   16.1397  -13.5183  -15.1981 C   0  0  1  0  0  0  0  0  0  0  0  0
   17.3481  -13.9119  -16.0256 C   0  0  0  0  0  0  0  0  0  0  0  0
   17.5701  -15.3749  -15.9856 C   0  0  0  0  0  0  0  0  0  0  0  0
   17.5962  -16.0283  -17.0453 O   0  0  0  0  0  0  0  0  0  0  0  0
   16.0459  -12.0448  -15.0551 C   0  0  0  0  0  0  0  0  0  0  0  0
   15.7127  -11.3302  -16.0332 O   0  0  0  0  0  0  0  0  0  0  0  0
   17.7503  -16.0306  -14.7807 O   0  0  0  0  0  0  0  0  0  0  0  0
   16.4809   -9.4561  -12.3141 C   0  0  0  0  0  0  0  0  0  0  0  0
   16.2633   -9.9671  -13.7180 C   0  0  2  0  0  0  0  0  0  0  0  0
   16.3238  -11.3852  -13.8268 N   0  0  0  0  0  0  0  0  0  0  0  0
   17.2221   -9.2657  -14.6093 C   0  0  0  0  0  0  0  0  0  0  0  0
   17.9621   -9.9710  -15.3339 O   0  0  0  0  0  0  0  0  0  0  0  0
   17.3469   -7.8768  -14.6873 N   0  0  0  0  0  0  0  0  0  0  0  0
   18.0811   -7.1383  -15.6723 C   0  0  1  0  0  0  0  0  0  0  0  0
   17.9114   -7.5780  -17.0714 C   0  0  0  0  0  0  0  0  0  0  0  0
   18.6354   -6.7795  -18.1189 C   0  0  0  0  0  0  0  0  0  0  0  0
   18.5108   -7.3357  -19.5155 C   0  0  0  0  0  0  0  0  0  0  0  0
   19.2548   -6.4021  -20.4593 C   0  0  0  0  0  0  0  0  0  0  0  0
   19.1625   -6.9976  -21.7870 N   0  0  0  0  0  0  0  0  0  0  0  0
   17.9363   -5.6939  -15.4516 C   0  0  0  0  0  0  0  0  0  0  0  0
   16.8305   -5.1029  -15.3578 O   0  0  0  0  0  0  0  0  0  0  0  0
   19.0798   -4.9011  -15.3359 O   0  0  0  0  0  0  0  0  0  0  0  0
  2  1  1  6
  2  3  1  0
  3  4  1  0
  4  5  2  0
  6 11  1  0
  6  2  1  0
  7  6  2  0
  8  4  1  0
 10  9  1  1
 10 12  1  0
 10 11  1  0
 12 14  1  0
 13 12  2  0
 14 15  1  0
 15 21  1  0
 15 16  1  6
 16 17  1  0
 18 19  1  0
 18 17  1  0
 20 19  1  0
 21 23  1  0
 22 21  2  0
M  END
$$$$
