DAK.pdb
     RDKit          3D

 23 22  0  0  1  0  0  0  0  0999 V2000
   16.9929  -12.7345  -14.3815 N   0  0  0  0  0  0  0  0  0  0  0  0
   16.5371  -11.3719  -14.5526 C   0  0  1  0  0  0  0  0  0  0  0  0
   15.0502  -11.3162  -14.8451 C   0  0  0  0  0  0  0  0  0  0  0  0
   14.7323  -11.9825  -16.1283 C   0  0  0  0  0  0  0  0  0  0  0  0
   14.0474  -13.0223  -16.1352 O   0  0  0  0  0  0  0  0  0  0  0  0
   16.8851  -10.5241  -13.3861 C   0  0  0  0  0  0  0  0  0  0  0  0
   16.4838  -10.8289  -12.2353 O   0  0  0  0  0  0  0  0  0  0  0  0
   15.1879  -11.4632  -17.3271 O   0  0  0  0  0  0  0  0  0  0  0  0
   19.0043   -7.4597  -12.6793 C   0  0  0  0  0  0  0  0  0  0  0  0
   18.0064   -8.5528  -12.3818 C   0  0  2  0  0  0  0  0  0  0  0  0
   17.6746   -9.3489  -13.5143 N   0  0  0  0  0  0  0  0  0  0  0  0
   16.8257   -7.9249  -11.7357 C   0  0  0  0  0  0  0  0  0  0  0  0
   15.9085   -7.5109  -12.4824 O   0  0  0  0  0  0  0  0  0  0  0  0
   16.6779   -7.7698  -10.3556 N   0  0  0  0  0  0  0  0  0  0  0  0
   15.5961   -7.1161   -9.6796 C   0  0  1  0  0  0  0  0  0  0  0  0
   14.6942   -7.9901   -8.9038 C   0  0  0  0  0  0  0  0  0  0  0  0
   13.4521   -7.3507   -8.3492 C   0  0  0  0  0  0  0  0  0  0  0  0
   12.5330   -8.3069   -7.6307 C   0  0  0  0  0  0  0  0  0  0  0  0
   11.3465   -7.5111   -7.1065 C   0  0  0  0  0  0  0  0  0  0  0  0
   10.5043   -8.4548   -6.3812 N   0  0  0  0  0  0  0  0  0  0  0  0
   16.0747   -5.9250   -8.9665 C   0  0  0  0  0  0  0  0  0  0  0  0
   15.3197   -5.0567   -8.4596 O   0  0  0  0  0  0  0  0  0  0  0  0
   17.4481   -5.7161   -8.8276 O   0  0  0  0  0  0  0  0  0  0  0  0
  2  1  1  1
  2  3  1  0
  3  4  1  0
  4  5  2  0
  6 11  1  0
  6  2  1  0
  7  6  2  0
  8  4  1  0
 10  9  1  6
 10 12  1  0
 10 11  1  0
 12 14  1  0
 13 12  2  0
 14 15  1  0
 15 21  1  0
 15 16  1  1
 16 17  1  0
 18 19  1  0
 18 17  1  0
 20 19  1  0
 21 23  1  0
 22 21  2  0
M  END
$$$$
