DAK.pdb
     RDKit          3D

 23 22  0  0  1  0  0  0  0  0999 V2000
   18.5034  -10.3706  -14.1681 N   0  0  0  0  0  0  0  0  0  0  0  0
   17.7009   -9.1685  -14.2348 C   0  0  1  0  0  0  0  0  0  0  0  0
   16.3015   -9.4622  -14.7398 C   0  0  0  0  0  0  0  0  0  0  0  0
   16.3301   -9.9679  -16.1309 C   0  0  0  0  0  0  0  0  0  0  0  0
   17.1581   -9.5109  -16.9408 O   0  0  0  0  0  0  0  0  0  0  0  0
   17.6620   -8.4591  -12.9326 C   0  0  0  0  0  0  0  0  0  0  0  0
   16.9595   -8.8993  -11.9886 O   0  0  0  0  0  0  0  0  0  0  0  0
   15.4449  -10.9468  -16.5462 O   0  0  0  0  0  0  0  0  0  0  0  0
   19.5082   -5.6438  -11.2232 C   0  0  0  0  0  0  0  0  0  0  0  0
   18.3713   -6.6146  -11.4336 C   0  0  2  0  0  0  0  0  0  0  0  0
   18.4044   -7.2699  -12.6970 N   0  0  0  0  0  0  0  0  0  0  0  0
   17.1015   -5.8876  -11.1793 C   0  0  0  0  0  0  0  0  0  0  0  0
   16.4850   -5.4336  -12.1714 O   0  0  0  0  0  0  0  0  0  0  0  0
   16.5576   -5.6813   -9.9096 N   0  0  0  0  0  0  0  0  0  0  0  0
   15.4046   -4.8915   -9.5913 C   0  0  1  0  0  0  0  0  0  0  0  0
   14.7712   -5.1661   -8.2864 C   0  0  0  0  0  0  0  0  0  0  0  0
   13.5987   -4.3026   -7.9139 C   0  0  0  0  0  0  0  0  0  0  0  0
   12.9974   -4.6240   -6.5683 C   0  0  0  0  0  0  0  0  0  0  0  0
   11.8186   -3.6875   -6.3466 C   0  0  0  0  0  0  0  0  0  0  0  0
   11.2759   -4.0107   -5.0324 N   0  0  0  0  0  0  0  0  0  0  0  0
   15.6534   -3.4727   -9.8764 C   0  0  0  0  0  0  0  0  0  0  0  0
   16.7167   -2.8705   -9.5803 O   0  0  0  0  0  0  0  0  0  0  0  0
   14.6659   -2.7192  -10.5140 O   0  0  0  0  0  0  0  0  0  0  0  0
  2  1  1  1
  2  3  1  0
  3  4  1  0
  4  5  2  0
  6 11  1  0
  6  2  1  0
  7  6  2  0
  8  4  1  0
 10  9  1  6
 10 12  1  0
 10 11  1  0
 12 14  1  0
 13 12  2  0
 14 15  1  0
 15 21  1  0
 15 16  1  1
 16 17  1  0
 18 19  1  0
 18 17  1  0
 20 19  1  0
 21 23  1  0
 22 21  2  0
M  END
$$$$
