DAK.pdb
     RDKit          3D

 23 22  0  0  1  0  0  0  0  0999 V2000
   22.4207  -13.0946  -18.1313 N   0  0  0  0  0  0  0  0  0  0  0  0
   21.4354  -12.0496  -18.3067 C   0  0  1  0  0  0  0  0  0  0  0  0
   20.0668  -12.4900  -17.8244 C   0  0  0  0  0  0  0  0  0  0  0  0
   19.6375  -13.7359  -18.4990 C   0  0  0  0  0  0  0  0  0  0  0  0
   19.7100  -13.8276  -19.7386 O   0  0  0  0  0  0  0  0  0  0  0  0
   21.8517  -10.7847  -17.6531 C   0  0  0  0  0  0  0  0  0  0  0  0
   22.1393  -10.7646  -16.4302 O   0  0  0  0  0  0  0  0  0  0  0  0
   19.1541  -14.8061  -17.7674 O   0  0  0  0  0  0  0  0  0  0  0  0
   22.5741   -7.2036  -18.6649 C   0  0  0  0  0  0  0  0  0  0  0  0
   22.3131   -8.3484  -17.7160 C   0  0  2  0  0  0  0  0  0  0  0  0
   21.9428   -9.5589  -18.3673 N   0  0  0  0  0  0  0  0  0  0  0  0
   21.3173   -7.8889  -16.7145 C   0  0  0  0  0  0  0  0  0  0  0  0
   20.1381   -8.2934  -16.8421 O   0  0  0  0  0  0  0  0  0  0  0  0
   21.6148   -7.0391  -15.6468 N   0  0  0  0  0  0  0  0  0  0  0  0
   20.7123   -6.6080  -14.6200 C   0  0  1  0  0  0  0  0  0  0  0  0
   19.9856   -7.6762  -13.9058 C   0  0  0  0  0  0  0  0  0  0  0  0
   19.0727   -7.2402  -12.7942 C   0  0  0  0  0  0  0  0  0  0  0  0
   18.4422   -8.3778  -12.0302 C   0  0  0  0  0  0  0  0  0  0  0  0
   17.5713   -7.7802  -10.9346 C   0  0  0  0  0  0  0  0  0  0  0  0
   16.9635   -8.9036  -10.2314 N   0  0  0  0  0  0  0  0  0  0  0  0
   21.3493   -5.6043  -13.7580 C   0  0  0  0  0  0  0  0  0  0  0  0
   22.5882   -5.3938  -13.7185 O   0  0  0  0  0  0  0  0  0  0  0  0
   20.5557   -4.8207  -12.9181 O   0  0  0  0  0  0  0  0  0  0  0  0
  2  1  1  1
  2  3  1  0
  3  4  1  0
  4  5  2  0
  6 11  1  0
  6  2  1  0
  7  6  2  0
  8  4  1  0
 10  9  1  6
 10 12  1  0
 10 11  1  0
 12 14  1  0
 13 12  2  0
 14 15  1  0
 15 21  1  0
 15 16  1  1
 16 17  1  0
 18 19  1  0
 18 17  1  0
 20 19  1  0
 21 23  1  0
 22 21  2  0
M  END
$$$$
