DAK.pdb
     RDKit          3D

 23 22  0  0  1  0  0  0  0  0999 V2000
   13.4073   -9.7437  -11.2280 N   0  0  0  0  0  0  0  0  0  0  0  0
   14.7539   -9.8451  -10.7083 C   0  0  1  0  0  0  0  0  0  0  0  0
   15.4920  -11.0278  -11.3051 C   0  0  0  0  0  0  0  0  0  0  0  0
   14.8480  -12.3061  -10.9274 C   0  0  0  0  0  0  0  0  0  0  0  0
   14.1142  -12.3587   -9.9228 O   0  0  0  0  0  0  0  0  0  0  0  0
   15.5150   -8.5866  -10.9012 C   0  0  0  0  0  0  0  0  0  0  0  0
   15.6531   -8.0957  -12.0494 O   0  0  0  0  0  0  0  0  0  0  0  0
   15.0509  -13.4498  -11.6790 O   0  0  0  0  0  0  0  0  0  0  0  0
   16.9102   -5.8065   -8.7877 C   0  0  0  0  0  0  0  0  0  0  0  0
   16.8293   -6.6772  -10.0183 C   0  0  2  0  0  0  0  0  0  0  0  0
   16.1125   -7.8903   -9.8153 N   0  0  0  0  0  0  0  0  0  0  0  0
   18.2123   -6.8858  -10.5177 C   0  0  0  0  0  0  0  0  0  0  0  0
   18.8828   -7.8085   -9.9987 O   0  0  0  0  0  0  0  0  0  0  0  0
   18.8057   -6.1203  -11.5240 N   0  0  0  0  0  0  0  0  0  0  0  0
   20.0601   -6.3787  -12.1676 C   0  0  1  0  0  0  0  0  0  0  0  0
   20.0162   -7.2844  -13.3326 C   0  0  0  0  0  0  0  0  0  0  0  0
   21.3184   -7.5302  -14.0418 C   0  0  0  0  0  0  0  0  0  0  0  0
   21.2076   -8.4411  -15.2390 C   0  0  0  0  0  0  0  0  0  0  0  0
   21.1293   -9.8737  -14.7317 C   0  0  0  0  0  0  0  0  0  0  0  0
   21.0470  -10.7258  -15.9119 N   0  0  0  0  0  0  0  0  0  0  0  0
   20.8019   -5.1291  -12.3779 C   0  0  0  0  0  0  0  0  0  0  0  0
   20.2597   -4.0048  -12.5292 O   0  0  0  0  0  0  0  0  0  0  0  0
   22.1972   -5.1598  -12.4183 O   0  0  0  0  0  0  0  0  0  0  0  0
  2  1  1  6
  2  3  1  0
  3  4  1  0
  4  5  2  0
  6 11  1  0
  6  2  1  0
  7  6  2  0
  8  4  1  0
 10  9  1  1
 10 12  1  0
 10 11  1  0
 12 14  1  0
 13 12  2  0
 14 15  1  0
 15 21  1  0
 15 16  1  6
 16 17  1  0
 18 19  1  0
 18 17  1  0
 20 19  1  0
 21 23  1  0
 22 21  2  0
M  END
$$$$
