DAK.pdb
     RDKit          3D

 23 22  0  0  1  0  0  0  0  0999 V2000
   30.6045  -14.2783  -19.8314 N   0  0  0  0  0  0  0  0  0  0  0  0
   29.7565  -15.3060  -20.3956 C   0  0  1  0  0  0  0  0  0  0  0  0
   30.5276  -16.2034  -21.3442 C   0  0  0  0  0  0  0  0  0  0  0  0
   31.0295  -15.4428  -22.5108 C   0  0  0  0  0  0  0  0  0  0  0  0
   32.1331  -15.7297  -23.0111 O   0  0  0  0  0  0  0  0  0  0  0  0
   29.0768  -16.0991  -19.3423 C   0  0  0  0  0  0  0  0  0  0  0  0
   29.7435  -16.8187  -18.5574 O   0  0  0  0  0  0  0  0  0  0  0  0
   30.2856  -14.4118  -23.0565 O   0  0  0  0  0  0  0  0  0  0  0  0
   25.5684  -16.5198  -17.9728 C   0  0  0  0  0  0  0  0  0  0  0  0
   27.0309  -16.8467  -18.1561 C   0  0  2  0  0  0  0  0  0  0  0  0
   27.6652  -16.0817  -19.1753 N   0  0  0  0  0  0  0  0  0  0  0  0
   27.1452  -18.3131  -18.3618 C   0  0  0  0  0  0  0  0  0  0  0  0
   27.2042  -18.7298  -19.5421 O   0  0  0  0  0  0  0  0  0  0  0  0
   27.1905  -19.2484  -17.3255 N   0  0  0  0  0  0  0  0  0  0  0  0
   27.2715  -20.6729  -17.4623 C   0  0  1  0  0  0  0  0  0  0  0  0
   27.8200  -21.4050  -16.3036 C   0  0  0  0  0  0  0  0  0  0  0  0
   27.8651  -22.9032  -16.4157 C   0  0  0  0  0  0  0  0  0  0  0  0
   29.2580  -23.4740  -16.5115 C   0  0  0  0  0  0  0  0  0  0  0  0
   29.1350  -24.9763  -16.7208 C   0  0  0  0  0  0  0  0  0  0  0  0
   30.4933  -25.5062  -16.7187 N   0  0  0  0  0  0  0  0  0  0  0  0
   26.0185  -21.2137  -18.0042 C   0  0  0  0  0  0  0  0  0  0  0  0
   25.9488  -22.2382  -18.7297 O   0  0  0  0  0  0  0  0  0  0  0  0
   24.8134  -20.5710  -17.7140 O   0  0  0  0  0  0  0  0  0  0  0  0
  2  1  1  1
  2  3  1  0
  3  4  1  0
  4  5  2  0
  6 11  1  0
  6  2  1  0
  7  6  2  0
  8  4  1  0
 10  9  1  6
 10 12  1  0
 10 11  1  0
 12 14  1  0
 13 12  2  0
 14 15  1  0
 15 21  1  0
 15 16  1  1
 16 17  1  0
 18 19  1  0
 18 17  1  0
 20 19  1  0
 21 23  1  0
 22 21  2  0
M  END
$$$$
