DAK.pdb
     RDKit          3D

 23 22  0  0  1  0  0  0  0  0999 V2000
   22.8200  -13.8524  -17.6600 N   0  0  0  0  0  0  0  0  0  0  0  0
   23.1880  -12.5602  -18.1972 C   0  0  1  0  0  0  0  0  0  0  0  0
   22.2107  -12.1030  -19.2628 C   0  0  0  0  0  0  0  0  0  0  0  0
   22.1435  -13.0735  -20.3786 C   0  0  0  0  0  0  0  0  0  0  0  0
   23.1798  -13.6413  -20.7711 O   0  0  0  0  0  0  0  0  0  0  0  0
   23.3315  -11.5403  -17.1296 C   0  0  0  0  0  0  0  0  0  0  0  0
   22.3273  -11.1490  -16.4839 O   0  0  0  0  0  0  0  0  0  0  0  0
   20.9386  -13.3604  -20.9952 O   0  0  0  0  0  0  0  0  0  0  0  0
   26.1239   -9.6269  -15.4235 C   0  0  0  0  0  0  0  0  0  0  0  0
   24.6995   -9.9514  -15.8045 C   0  0  2  0  0  0  0  0  0  0  0  0
   24.5892  -10.9690  -16.7939 N   0  0  0  0  0  0  0  0  0  0  0  0
   24.0323   -8.6812  -16.1879 C   0  0  0  0  0  0  0  0  0  0  0  0
   24.0982   -8.3317  -17.3894 O   0  0  0  0  0  0  0  0  0  0  0  0
   23.3409   -7.8590  -15.2953 N   0  0  0  0  0  0  0  0  0  0  0  0
   22.6433   -6.6479  -15.6133 C   0  0  1  0  0  0  0  0  0  0  0  0
   21.1726   -6.6968  -15.4941 C   0  0  0  0  0  0  0  0  0  0  0  0
   20.4234   -5.4628  -15.9123 C   0  0  0  0  0  0  0  0  0  0  0  0
   18.9226   -5.6094  -15.8771 C   0  0  0  0  0  0  0  0  0  0  0  0
   18.3137   -4.3239  -16.4180 C   0  0  0  0  0  0  0  0  0  0  0  0
   16.8670   -4.4877  -16.3407 N   0  0  0  0  0  0  0  0  0  0  0  0
   23.2827   -5.4959  -14.9650 C   0  0  0  0  0  0  0  0  0  0  0  0
   23.8511   -5.5440  -13.8445 O   0  0  0  0  0  0  0  0  0  0  0  0
   23.2738   -4.2566  -15.6079 O   0  0  0  0  0  0  0  0  0  0  0  0
  2  1  1  1
  2  3  1  0
  3  4  1  0
  4  5  2  0
  6 11  1  0
  6  2  1  0
  7  6  2  0
  8  4  1  0
 10  9  1  6
 10 12  1  0
 10 11  1  0
 12 14  1  0
 13 12  2  0
 14 15  1  0
 15 21  1  0
 15 16  1  1
 16 17  1  0
 18 19  1  0
 18 17  1  0
 20 19  1  0
 21 23  1  0
 22 21  2  0
M  END
$$$$
