DAK.pdb
     RDKit          3D

 23 22  0  0  1  0  0  0  0  0999 V2000
   18.9818  -10.0685  -14.0580 N   0  0  0  0  0  0  0  0  0  0  0  0
   19.5449   -9.3573  -15.1853 C   0  0  1  0  0  0  0  0  0  0  0  0
   18.6487   -9.4512  -16.4050 C   0  0  0  0  0  0  0  0  0  0  0  0
   18.4424  -10.8601  -16.8099 C   0  0  0  0  0  0  0  0  0  0  0  0
   19.3966  -11.5241  -17.2560 O   0  0  0  0  0  0  0  0  0  0  0  0
   19.8463   -7.9441  -14.8502 C   0  0  0  0  0  0  0  0  0  0  0  0
   19.0001   -7.2385  -14.2465 O   0  0  0  0  0  0  0  0  0  0  0  0
   17.1973  -11.4531  -16.6990 O   0  0  0  0  0  0  0  0  0  0  0  0
   22.7824   -5.5599  -15.1242 C   0  0  0  0  0  0  0  0  0  0  0  0
   21.3543   -5.9748  -14.8640 C   0  0  2  0  0  0  0  0  0  0  0  0
   21.0844   -7.3338  -15.1905 N   0  0  0  0  0  0  0  0  0  0  0  0
   20.4676   -5.0121  -15.5660 C   0  0  0  0  0  0  0  0  0  0  0  0
   20.0917   -5.3088  -16.7240 O   0  0  0  0  0  0  0  0  0  0  0  0
   20.0310   -3.8048  -15.0162 N   0  0  0  0  0  0  0  0  0  0  0  0
   19.1858   -2.8341  -15.6471 C   0  0  1  0  0  0  0  0  0  0  0  0
   17.7539   -2.8939  -15.2928 C   0  0  0  0  0  0  0  0  0  0  0  0
   16.8576   -1.8790  -15.9453 C   0  0  0  0  0  0  0  0  0  0  0  0
   15.3981   -2.0271  -15.5941 C   0  0  0  0  0  0  0  0  0  0  0  0
   14.6139   -1.0136  -16.4149 C   0  0  0  0  0  0  0  0  0  0  0  0
   13.2032   -1.2730  -16.1531 N   0  0  0  0  0  0  0  0  0  0  0  0
   19.7894   -1.4973  -15.5767 C   0  0  0  0  0  0  0  0  0  0  0  0
   20.5118   -1.0996  -14.6277 O   0  0  0  0  0  0  0  0  0  0  0  0
   19.5639   -0.5891  -16.6129 O   0  0  0  0  0  0  0  0  0  0  0  0
  2  1  1  1
  2  3  1  0
  3  4  1  0
  4  5  2  0
  6 11  1  0
  6  2  1  0
  7  6  2  0
  8  4  1  0
 10  9  1  6
 10 12  1  0
 10 11  1  0
 12 14  1  0
 13 12  2  0
 14 15  1  0
 15 21  1  0
 15 16  1  1
 16 17  1  0
 18 19  1  0
 18 17  1  0
 20 19  1  0
 21 23  1  0
 22 21  2  0
M  END
$$$$
