PDF.pdb
     RDKit          3D

 27 28  0  0  1  0  0  0  0  0999 V2000
    9.1366  -13.9286   19.3928 N   0  0  0  0  0  0  0  0  0  0  0  0
    8.2827  -13.9720   18.2456 C   0  0  0  0  0  0  0  0  0  0  0  0
    7.1348  -13.0649   18.6298 C   0  0  0  0  0  0  0  0  0  0  0  0
    6.9132  -13.4885   20.0881 C   0  0  0  0  0  0  0  0  0  0  0  0
    8.3141  -13.7408   20.5425 C   0  0  1  0  0  0  0  0  0  0  0  0
    8.4722  -14.8250   21.5002 C   0  0  0  0  0  0  0  0  0  0  0  0
    7.5465  -15.0377   22.3257 O   0  0  0  0  0  0  0  0  0  0  0  0
    9.5996  -15.6795   21.5869 N   0  0  0  0  0  0  0  0  0  0  0  0
    9.7589  -16.7599   22.5095 C   0  0  1  0  0  0  0  0  0  0  0  0
   11.0048  -17.5661   22.3055 C   0  0  0  0  0  0  0  0  0  0  0  0
   11.0598  -18.2642   21.0218 C   0  0  0  0  0  0  0  0  0  0  0  0
   12.1092  -18.4771   20.3629 O   0  0  0  0  0  0  0  0  0  0  0  0
    9.7634  -16.2400   23.9122 C   0  0  0  0  0  0  0  0  0  0  0  0
   10.5862  -15.3578   24.2577 O   0  0  0  0  0  0  0  0  0  0  0  0
    9.8717  -18.7327   20.4779 O   0  0  0  0  0  0  0  0  0  0  0  0
    8.8497  -16.7190   24.8899 N   0  0  0  0  0  0  0  0  0  0  0  0
    8.9045  -16.3112   26.2918 C   0  0  1  0  0  0  0  0  0  0  0  0
    7.5676  -15.8665   26.7846 C   0  0  0  0  0  0  0  0  0  0  0  0
    7.3230  -14.4421   26.4788 C   0  0  0  0  0  0  0  0  0  0  0  0
    8.1648  -13.4360   26.9518 C   0  0  0  0  0  0  0  0  0  0  0  0
    7.9598  -12.1175   26.6600 C   0  0  0  0  0  0  0  0  0  0  0  0
    6.8990  -11.7101   25.8745 C   0  0  0  0  0  0  0  0  0  0  0  0
    6.0666  -12.6882   25.4049 C   0  0  0  0  0  0  0  0  0  0  0  0
    6.2577  -14.0155   25.6881 C   0  0  0  0  0  0  0  0  0  0  0  0
    9.5153  -17.3595   27.1283 C   0  0  0  0  0  0  0  0  0  0  0  0
    9.7264  -17.1066   28.3425 O   0  0  0  0  0  0  0  0  0  0  0  0
    9.8723  -18.6085   26.6691 O   0  0  0  0  0  0  0  0  0  0  0  0
  1  2  1  0
  3  2  1  0
  4  3  1  0
  5  4  1  0
  5  1  1  0
  5  6  1  1
  7  6  2  0
  8  6  1  0
  9  8  1  0
  9 10  1  6
 11 10  1  0
 12 11  2  0
 13  9  1  0
 13 14  2  0
 15 11  1  0
 16 17  1  0
 16 13  1  0
 17 18  1  1
 19 18  1  0
 19 20  2  0
 20 21  1  0
 22 21  2  0
 23 24  2  0
 23 22  1  0
 24 19  1  0
 25 17  1  0
 26 25  2  0
 27 25  1  0
M  END
$$$$
