PDF.pdb
     RDKit          3D

 27 28  0  0  1  0  0  0  0  0999 V2000
    9.1309  -13.7567   19.3503 N   0  0  0  0  0  0  0  0  0  0  0  0
    8.5735  -13.8156   18.0340 C   0  0  0  0  0  0  0  0  0  0  0  0
    7.3255  -12.9682   18.1446 C   0  0  0  0  0  0  0  0  0  0  0  0
    6.7879  -13.4296   19.5060 C   0  0  0  0  0  0  0  0  0  0  0  0
    8.0533  -13.6282   20.2755 C   0  0  1  0  0  0  0  0  0  0  0  0
    8.0337  -14.7227   21.2342 C   0  0  0  0  0  0  0  0  0  0  0  0
    7.0110  -14.8754   21.9515 O   0  0  0  0  0  0  0  0  0  0  0  0
    9.0861  -15.6505   21.4354 N   0  0  0  0  0  0  0  0  0  0  0  0
    9.0495  -16.7759   22.3162 C   0  0  1  0  0  0  0  0  0  0  0  0
   10.0664  -17.8322   22.0094 C   0  0  0  0  0  0  0  0  0  0  0  0
    9.9710  -19.0169   22.8610 C   0  0  0  0  0  0  0  0  0  0  0  0
    8.9209  -19.6804   23.0557 O   0  0  0  0  0  0  0  0  0  0  0  0
    9.2527  -16.3283   23.7291 C   0  0  0  0  0  0  0  0  0  0  0  0
   10.2032  -15.5624   24.0199 O   0  0  0  0  0  0  0  0  0  0  0  0
   11.1181  -19.4534   23.5097 O   0  0  0  0  0  0  0  0  0  0  0  0
    8.3896  -16.7477   24.7776 N   0  0  0  0  0  0  0  0  0  0  0  0
    8.6677  -16.4801   26.1868 C   0  0  1  0  0  0  0  0  0  0  0  0
    7.4670  -15.9367   26.8875 C   0  0  0  0  0  0  0  0  0  0  0  0
    7.3557  -14.4735   26.7176 C   0  0  0  0  0  0  0  0  0  0  0  0
    8.4133  -13.6177   27.0233 C   0  0  0  0  0  0  0  0  0  0  0  0
    8.3289  -12.2652   26.8524 C   0  0  0  0  0  0  0  0  0  0  0  0
    7.1814  -11.6712   26.3639 C   0  0  0  0  0  0  0  0  0  0  0  0
    6.1374  -12.5007   26.0606 C   0  0  0  0  0  0  0  0  0  0  0  0
    6.2053  -13.8596   26.2259 C   0  0  0  0  0  0  0  0  0  0  0  0
    9.2446  -17.6628   26.8500 C   0  0  0  0  0  0  0  0  0  0  0  0
    9.6136  -17.5548   28.0479 O   0  0  0  0  0  0  0  0  0  0  0  0
    9.4074  -18.8897   26.2444 O   0  0  0  0  0  0  0  0  0  0  0  0
  1  2  1  0
  3  2  1  0
  4  3  1  0
  5  4  1  0
  5  1  1  0
  5  6  1  6
  7  6  2  0
  8  6  1  0
  9  8  1  0
  9 10  1  6
 11 10  1  0
 12 11  2  0
 13  9  1  0
 13 14  2  0
 15 11  1  0
 16 17  1  0
 16 13  1  0
 17 18  1  1
 19 18  1  0
 19 20  2  0
 20 21  1  0
 22 21  2  0
 23 24  2  0
 23 22  1  0
 24 19  1  0
 25 17  1  0
 26 25  2  0
 27 25  1  0
M  END
$$$$
