PDF.pdb
     RDKit          3D

 27 28  0  0  1  0  0  0  0  0999 V2000
    8.0523  -14.8660   18.4954 N   0  0  0  0  0  0  0  0  0  0  0  0
    7.0786  -13.8711   18.1652 C   0  0  0  0  0  0  0  0  0  0  0  0
    7.7500  -12.5772   18.5692 C   0  0  0  0  0  0  0  0  0  0  0  0
    8.3804  -12.9892   19.9064 C   0  0  0  0  0  0  0  0  0  0  0  0
    8.7898  -14.3980   19.6226 C   0  0  1  0  0  0  0  0  0  0  0  0
    8.6905  -15.3140   20.7488 C   0  0  0  0  0  0  0  0  0  0  0  0
    7.5773  -15.4450   21.3209 O   0  0  0  0  0  0  0  0  0  0  0  0
    9.7585  -16.0872   21.2687 N   0  0  0  0  0  0  0  0  0  0  0  0
    9.6861  -16.9544   22.4030 C   0  0  1  0  0  0  0  0  0  0  0  0
   10.4019  -18.2587   22.2285 C   0  0  0  0  0  0  0  0  0  0  0  0
   10.2469  -19.1790   23.3541 C   0  0  0  0  0  0  0  0  0  0  0  0
    9.7830  -20.3447   23.2718 O   0  0  0  0  0  0  0  0  0  0  0  0
   10.2491  -16.2702   23.6083 C   0  0  0  0  0  0  0  0  0  0  0  0
   11.3356  -15.6470   23.5328 O   0  0  0  0  0  0  0  0  0  0  0  0
   10.6372  -18.7468   24.6142 O   0  0  0  0  0  0  0  0  0  0  0  0
    9.5838  -16.3006   24.8640 N   0  0  0  0  0  0  0  0  0  0  0  0
   10.1444  -15.6989   26.0717 C   0  0  1  0  0  0  0  0  0  0  0  0
   10.0428  -14.2101   26.0385 C   0  0  0  0  0  0  0  0  0  0  0  0
    8.6590  -13.7551   26.2841 C   0  0  0  0  0  0  0  0  0  0  0  0
    8.3414  -12.9188   27.3538 C   0  0  0  0  0  0  0  0  0  0  0  0
    7.0692  -12.4763   27.5799 C   0  0  0  0  0  0  0  0  0  0  0  0
    6.0232  -12.8378   26.7532 C   0  0  0  0  0  0  0  0  0  0  0  0
    6.3227  -13.6579   25.7006 C   0  0  0  0  0  0  0  0  0  0  0  0
    7.5935  -14.1110   25.4593 C   0  0  0  0  0  0  0  0  0  0  0  0
    9.5602  -16.2965   27.2854 C   0  0  0  0  0  0  0  0  0  0  0  0
    9.9972  -15.9228   28.4044 O   0  0  0  0  0  0  0  0  0  0  0  0
    8.5587  -17.2428   27.2794 O   0  0  0  0  0  0  0  0  0  0  0  0
  1  2  1  0
  3  2  1  0
  4  3  1  0
  5  4  1  0
  5  1  1  0
  5  6  1  1
  7  6  2  0
  8  6  1  0
  9  8  1  0
  9 10  1  6
 11 10  1  0
 12 11  2  0
 13  9  1  0
 13 14  2  0
 15 11  1  0
 16 17  1  0
 16 13  1  0
 17 18  1  6
 19 18  1  0
 19 20  2  0
 20 21  1  0
 22 21  2  0
 23 24  2  0
 23 22  1  0
 24 19  1  0
 25 17  1  0
 26 25  2  0
 27 25  1  0
M  END
$$$$
