PDF.pdb
     RDKit          3D

 27 28  0  0  1  0  0  0  0  0999 V2000
    9.3056  -14.1355   18.2891 N   0  0  0  0  0  0  0  0  0  0  0  0
    8.4241  -14.1851   17.1634 C   0  0  0  0  0  0  0  0  0  0  0  0
    7.3048  -13.2457   17.5542 C   0  0  0  0  0  0  0  0  0  0  0  0
    7.1090  -13.6332   19.0262 C   0  0  0  0  0  0  0  0  0  0  0  0
    8.5148  -13.9056   19.4533 C   0  0  1  0  0  0  0  0  0  0  0  0
    8.6730  -14.9721   20.4306 C   0  0  0  0  0  0  0  0  0  0  0  0
    7.9367  -14.9665   21.4510 O   0  0  0  0  0  0  0  0  0  0  0  0
    9.6019  -16.0380   20.3323 N   0  0  0  0  0  0  0  0  0  0  0  0
    9.7936  -17.0702   21.3028 C   0  0  1  0  0  0  0  0  0  0  0  0
   10.7156  -18.1659   20.8634 C   0  0  0  0  0  0  0  0  0  0  0  0
   10.8526  -19.2536   21.8310 C   0  0  0  0  0  0  0  0  0  0  0  0
    9.9403  -19.6532   22.5983 O   0  0  0  0  0  0  0  0  0  0  0  0
   10.3314  -16.4877   22.5714 C   0  0  0  0  0  0  0  0  0  0  0  0
   11.4012  -15.8319   22.5633 O   0  0  0  0  0  0  0  0  0  0  0  0
   12.0763  -19.9030   21.9199 O   0  0  0  0  0  0  0  0  0  0  0  0
    9.6604  -16.6534   23.8134 N   0  0  0  0  0  0  0  0  0  0  0  0
   10.1694  -16.1036   25.0677 C   0  0  1  0  0  0  0  0  0  0  0  0
    9.0650  -15.5725   25.9200 C   0  0  0  0  0  0  0  0  0  0  0  0
    9.5804  -14.9952   27.1783 C   0  0  0  0  0  0  0  0  0  0  0  0
    9.9613  -15.7998   28.2517 C   0  0  0  0  0  0  0  0  0  0  0  0
   10.4570  -15.2788   29.4128 C   0  0  0  0  0  0  0  0  0  0  0  0
   10.6076  -13.9163   29.5844 C   0  0  0  0  0  0  0  0  0  0  0  0
   10.2373  -13.1173   28.5383 C   0  0  0  0  0  0  0  0  0  0  0  0
    9.7382  -13.6235   27.3665 C   0  0  0  0  0  0  0  0  0  0  0  0
   11.0288  -17.0759   25.7659 C   0  0  0  0  0  0  0  0  0  0  0  0
   12.1990  -16.7280   26.0699 O   0  0  0  0  0  0  0  0  0  0  0  0
   10.6354  -18.3499   26.1135 O   0  0  0  0  0  0  0  0  0  0  0  0
  1  2  1  0
  3  2  1  0
  4  3  1  0
  5  4  1  0
  5  1  1  0
  5  6  1  1
  7  6  2  0
  8  6  1  0
  9  8  1  0
  9 10  1  6
 11 10  1  0
 12 11  2  0
 13  9  1  0
 13 14  2  0
 15 11  1  0
 16 17  1  0
 16 13  1  0
 17 18  1  1
 19 18  1  0
 19 20  2  0
 20 21  1  0
 22 21  2  0
 23 24  2  0
 23 22  1  0
 24 19  1  0
 25 17  1  0
 26 25  2  0
 27 25  1  0
M  END
$$$$
