PDF.pdb
     RDKit          3D

 27 28  0  0  1  0  0  0  0  0999 V2000
    9.2809  -14.1624   19.3083 N   0  0  0  0  0  0  0  0  0  0  0  0
    8.5116  -14.0469   18.1076 C   0  0  0  0  0  0  0  0  0  0  0  0
    7.5816  -12.8899   18.3982 C   0  0  0  0  0  0  0  0  0  0  0  0
    7.1799  -13.2043   19.8457 C   0  0  0  0  0  0  0  0  0  0  0  0
    8.4550  -13.7548   20.3970 C   0  0  1  0  0  0  0  0  0  0  0  0
    8.3010  -14.8149   21.3820 C   0  0  0  0  0  0  0  0  0  0  0  0
    7.3056  -14.7809   22.1511 O   0  0  0  0  0  0  0  0  0  0  0  0
    9.1913  -15.9040   21.5548 N   0  0  0  0  0  0  0  0  0  0  0  0
    9.0664  -16.9364   22.5358 C   0  0  1  0  0  0  0  0  0  0  0  0
    9.9461  -18.1248   22.2955 C   0  0  0  0  0  0  0  0  0  0  0  0
    9.8176  -18.7010   20.9578 C   0  0  0  0  0  0  0  0  0  0  0  0
   10.6627  -18.5741   20.0356 O   0  0  0  0  0  0  0  0  0  0  0  0
    9.3764  -16.3929   23.8946 C   0  0  0  0  0  0  0  0  0  0  0  0
   10.3894  -15.6740   24.0729 O   0  0  0  0  0  0  0  0  0  0  0  0
    8.6825  -19.4464   20.6702 O   0  0  0  0  0  0  0  0  0  0  0  0
    8.5474  -16.6667   25.0163 N   0  0  0  0  0  0  0  0  0  0  0  0
    8.8994  -16.2679   26.3771 C   0  0  1  0  0  0  0  0  0  0  0  0
    7.7120  -15.7521   27.1201 C   0  0  0  0  0  0  0  0  0  0  0  0
    7.3034  -14.4191   26.6318 C   0  0  0  0  0  0  0  0  0  0  0  0
    7.9831  -13.2610   27.0075 C   0  0  0  0  0  0  0  0  0  0  0  0
    7.6266  -12.0253   26.5475 C   0  0  0  0  0  0  0  0  0  0  0  0
    6.5652  -11.8586   25.6791 C   0  0  0  0  0  0  0  0  0  0  0  0
    5.8911  -12.9876   25.3036 C   0  0  0  0  0  0  0  0  0  0  0  0
    6.2355  -14.2348   25.7556 C   0  0  0  0  0  0  0  0  0  0  0  0
    9.6046  -17.3513   27.0844 C   0  0  0  0  0  0  0  0  0  0  0  0
    9.6090  -18.4981   26.5669 O   0  0  0  0  0  0  0  0  0  0  0  0
   10.2666  -17.1935   28.2825 O   0  0  0  0  0  0  0  0  0  0  0  0
  1  2  1  0
  3  2  1  0
  4  3  1  0
  5  4  1  0
  5  1  1  0
  5  6  1  1
  7  6  2  0
  8  6  1  0
  9  8  1  0
  9 10  1  6
 11 10  1  0
 12 11  2  0
 13  9  1  0
 13 14  2  0
 15 11  1  0
 16 17  1  0
 16 13  1  0
 17 18  1  1
 19 18  1  0
 19 20  2  0
 20 21  1  0
 22 21  2  0
 23 24  2  0
 23 22  1  0
 24 19  1  0
 25 17  1  0
 26 25  2  0
 27 25  1  0
M  END
$$$$
