PDF.pdb
     RDKit          3D

 27 28  0  0  1  0  0  0  0  0999 V2000
    9.2070  -13.7148   19.5671 N   0  0  0  0  0  0  0  0  0  0  0  0
    8.5089  -13.7203   18.3182 C   0  0  0  0  0  0  0  0  0  0  0  0
    7.2798  -12.8855   18.6012 C   0  0  0  0  0  0  0  0  0  0  0  0
    6.8949  -13.4079   19.9919 C   0  0  0  0  0  0  0  0  0  0  0  0
    8.2371  -13.6322   20.6092 C   0  0  1  0  0  0  0  0  0  0  0  0
    8.3235  -14.7669   21.5161 C   0  0  0  0  0  0  0  0  0  0  0  0
    7.3574  -14.9927   22.2902 O   0  0  0  0  0  0  0  0  0  0  0  0
    9.4220  -15.6580   21.6061 N   0  0  0  0  0  0  0  0  0  0  0  0
    9.5404  -16.7466   22.5252 C   0  0  1  0  0  0  0  0  0  0  0  0
   10.6584  -17.6947   22.2170 C   0  0  0  0  0  0  0  0  0  0  0  0
   10.6274  -18.9282   23.0016 C   0  0  0  0  0  0  0  0  0  0  0  0
    9.5831  -19.4842   23.4271 O   0  0  0  0  0  0  0  0  0  0  0  0
    9.7386  -16.2262   23.9137 C   0  0  0  0  0  0  0  0  0  0  0  0
   10.7067  -15.4717   24.1747 O   0  0  0  0  0  0  0  0  0  0  0  0
   11.8341  -19.5426   23.3072 O   0  0  0  0  0  0  0  0  0  0  0  0
    8.8510  -16.5623   24.9717 N   0  0  0  0  0  0  0  0  0  0  0  0
    9.0790  -16.1545   26.3561 C   0  0  1  0  0  0  0  0  0  0  0  0
    7.8177  -15.6874   27.0033 C   0  0  0  0  0  0  0  0  0  0  0  0
    7.4549  -14.3245   26.5640 C   0  0  0  0  0  0  0  0  0  0  0  0
    8.2985  -13.2356   26.7814 C   0  0  0  0  0  0  0  0  0  0  0  0
    7.9827  -11.9743   26.3630 C   0  0  0  0  0  0  0  0  0  0  0  0
    6.8012  -11.7110   25.6973 C   0  0  0  0  0  0  0  0  0  0  0  0
    5.9659  -12.7713   25.4783 C   0  0  0  0  0  0  0  0  0  0  0  0
    6.2673  -14.0429   25.8914 C   0  0  0  0  0  0  0  0  0  0  0  0
    9.7678  -17.2121   27.1166 C   0  0  0  0  0  0  0  0  0  0  0  0
    9.9035  -18.3416   26.5795 O   0  0  0  0  0  0  0  0  0  0  0  0
   10.2795  -17.0475   28.3853 O   0  0  0  0  0  0  0  0  0  0  0  0
  1  2  1  0
  3  2  1  0
  4  3  1  0
  5  4  1  0
  5  1  1  0
  5  6  1  6
  7  6  2  0
  8  6  1  0
  9  8  1  0
  9 10  1  6
 11 10  1  0
 12 11  2  0
 13  9  1  0
 13 14  2  0
 15 11  1  0
 16 17  1  0
 16 13  1  0
 17 18  1  1
 19 18  1  0
 19 20  2  0
 20 21  1  0
 22 21  2  0
 23 24  2  0
 23 22  1  0
 24 19  1  0
 25 17  1  0
 26 25  2  0
 27 25  1  0
M  END
$$$$
