PDF.pdb
     RDKit          3D

 27 28  0  0  1  0  0  0  0  0999 V2000
    8.6145  -13.6471   20.2610 N   0  0  0  0  0  0  0  0  0  0  0  0
    8.1132  -13.8366   18.9345 C   0  0  0  0  0  0  0  0  0  0  0  0
    6.6131  -13.7627   19.1138 C   0  0  0  0  0  0  0  0  0  0  0  0
    6.4397  -14.5805   20.4008 C   0  0  0  0  0  0  0  0  0  0  0  0
    7.6592  -14.1892   21.1705 C   0  0  1  0  0  0  0  0  0  0  0  0
    8.2374  -15.2385   21.9964 C   0  0  0  0  0  0  0  0  0  0  0  0
    7.4634  -15.9782   22.6577 O   0  0  0  0  0  0  0  0  0  0  0  0
    9.6233  -15.5061   22.1241 N   0  0  0  0  0  0  0  0  0  0  0  0
   10.2000  -16.5904   22.8559 C   0  0  1  0  0  0  0  0  0  0  0  0
   11.6330  -16.8681   22.5196 C   0  0  0  0  0  0  0  0  0  0  0  0
   11.8714  -17.1377   21.1023 C   0  0  0  0  0  0  0  0  0  0  0  0
   11.2329  -17.9717   20.4113 O   0  0  0  0  0  0  0  0  0  0  0  0
   10.1082  -16.3238   24.3251 C   0  0  0  0  0  0  0  0  0  0  0  0
   11.1507  -16.1842   25.0095 O   0  0  0  0  0  0  0  0  0  0  0  0
   12.8749  -16.4268   20.4584 O   0  0  0  0  0  0  0  0  0  0  0  0
    8.8558  -16.2205   24.9893 N   0  0  0  0  0  0  0  0  0  0  0  0
    8.7101  -16.3835   26.4339 C   0  0  1  0  0  0  0  0  0  0  0  0
    7.3998  -15.8539   26.9144 C   0  0  0  0  0  0  0  0  0  0  0  0
    7.3142  -14.3883   26.7509 C   0  0  0  0  0  0  0  0  0  0  0  0
    6.1080  -13.7528   26.4581 C   0  0  0  0  0  0  0  0  0  0  0  0
    6.0126  -12.3970   26.3235 C   0  0  0  0  0  0  0  0  0  0  0  0
    7.1160  -11.5791   26.4720 C   0  0  0  0  0  0  0  0  0  0  0  0
    8.3046  -12.1913   26.7594 C   0  0  0  0  0  0  0  0  0  0  0  0
    8.4177  -13.5501   26.8978 C   0  0  0  0  0  0  0  0  0  0  0  0
    8.9604  -17.7774   26.8409 C   0  0  0  0  0  0  0  0  0  0  0  0
    9.1520  -18.0178   28.0609 O   0  0  0  0  0  0  0  0  0  0  0  0
    8.9975  -18.8451   25.9707 O   0  0  0  0  0  0  0  0  0  0  0  0
  1  2  1  0
  3  2  1  0
  4  3  1  0
  5  4  1  0
  5  1  1  0
  5  6  1  6
  7  6  2  0
  8  6  1  0
  9  8  1  0
  9 10  1  6
 11 10  1  0
 12 11  2  0
 13  9  1  0
 13 14  2  0
 15 11  1  0
 16 17  1  0
 16 13  1  0
 17 18  1  6
 19 18  1  0
 19 20  2  0
 20 21  1  0
 22 21  2  0
 23 24  2  0
 23 22  1  0
 24 19  1  0
 25 17  1  0
 26 25  2  0
 27 25  1  0
M  END
$$$$
