PDF.pdb
     RDKit          3D

 27 28  0  0  1  0  0  0  0  0999 V2000
    8.0240  -15.1887   18.5714 N   0  0  0  0  0  0  0  0  0  0  0  0
    6.8220  -14.4323   18.7442 C   0  0  0  0  0  0  0  0  0  0  0  0
    7.2732  -13.0047   18.5286 C   0  0  0  0  0  0  0  0  0  0  0  0
    8.6014  -13.0069   19.2975 C   0  0  0  0  0  0  0  0  0  0  0  0
    9.1155  -14.3786   19.0024 C   0  0  1  0  0  0  0  0  0  0  0  0
    9.8608  -15.0095   20.0814 C   0  0  0  0  0  0  0  0  0  0  0  0
   10.8124  -14.3749   20.6060 O   0  0  0  0  0  0  0  0  0  0  0  0
    9.6041  -16.3017   20.6038 N   0  0  0  0  0  0  0  0  0  0  0  0
   10.3741  -16.9630   21.6107 C   0  0  1  0  0  0  0  0  0  0  0  0
   11.8547  -16.9082   21.3897 C   0  0  0  0  0  0  0  0  0  0  0  0
   12.4261  -18.1492   20.8686 C   0  0  0  0  0  0  0  0  0  0  0  0
   12.3057  -19.2787   21.4076 O   0  0  0  0  0  0  0  0  0  0  0  0
   10.0799  -16.3711   22.9526 C   0  0  0  0  0  0  0  0  0  0  0  0
   10.6644  -16.8014   23.9763 O   0  0  0  0  0  0  0  0  0  0  0  0
   13.1588  -18.0910   19.6910 O   0  0  0  0  0  0  0  0  0  0  0  0
    9.1419  -15.3155   23.1147 N   0  0  0  0  0  0  0  0  0  0  0  0
    8.7823  -14.7697   24.4214 C   0  0  1  0  0  0  0  0  0  0  0  0
    7.6569  -13.7948   24.3158 C   0  0  0  0  0  0  0  0  0  0  0  0
    7.3903  -13.1318   25.6087 C   0  0  0  0  0  0  0  0  0  0  0  0
    8.2698  -12.1923   26.1456 C   0  0  0  0  0  0  0  0  0  0  0  0
    8.0249  -11.5587   27.3305 C   0  0  0  0  0  0  0  0  0  0  0  0
    6.8833  -11.8187   28.0638 C   0  0  0  0  0  0  0  0  0  0  0  0
    6.0133  -12.7385   27.5470 C   0  0  0  0  0  0  0  0  0  0  0  0
    6.2436  -13.3832   26.3597 C   0  0  0  0  0  0  0  0  0  0  0  0
    8.5329  -15.8448   25.3978 C   0  0  0  0  0  0  0  0  0  0  0  0
    9.1896  -15.8406   26.4709 O   0  0  0  0  0  0  0  0  0  0  0  0
    7.6213  -16.8618   25.2161 O   0  0  0  0  0  0  0  0  0  0  0  0
  1  2  1  0
  3  2  1  0
  4  3  1  0
  5  4  1  0
  5  1  1  0
  5  6  1  1
  7  6  2  0
  8  6  1  0
  9  8  1  0
  9 10  1  6
 11 10  1  0
 12 11  2  0
 13  9  1  0
 13 14  2  0
 15 11  1  0
 16 17  1  0
 16 13  1  0
 17 18  1  6
 19 18  1  0
 19 20  2  0
 20 21  1  0
 22 21  2  0
 23 24  2  0
 23 22  1  0
 24 19  1  0
 25 17  1  0
 26 25  2  0
 27 25  1  0
M  END
$$$$
