KRM.pdb
     RDKit          3D

 29 28  0  0  1  0  0  0  0  0999 V2000
    9.0241  -19.8740   20.8318 N   0  0  0  0  0  0  0  0  0  0  0  0
    8.2137  -19.0277   21.7331 C   0  0  1  0  0  0  0  0  0  0  0  0
    8.2457  -19.6103   23.1220 C   0  0  0  0  0  0  0  0  0  0  0  0
    9.6327  -19.8248   23.6437 C   0  0  0  0  0  0  0  0  0  0  0  0
    9.6435  -20.6231   24.9195 C   0  0  0  0  0  0  0  0  0  0  0  0
   11.0281  -20.7170   25.5201 C   0  0  0  0  0  0  0  0  0  0  0  0
   10.9410  -21.4953   26.7402 N   0  0  0  0  0  0  0  0  0  0  0  0
    8.6873  -17.6375   21.6725 C   0  0  0  0  0  0  0  0  0  0  0  0
    9.8793  -17.3602   21.5081 O   0  0  0  0  0  0  0  0  0  0  0  0
    9.5312  -15.2022   16.9840 N   0  0  0  0  0  0  0  0  0  0  0  0
    8.4905  -14.3423   16.5603 C   0  0  0  0  0  0  0  0  0  0  0  0
    8.2458  -14.1957   15.3105 N   0  0  0  0  0  0  0  0  0  0  0  0
    7.6823  -13.6134   17.4930 N   0  0  0  0  0  0  0  0  0  0  0  0
    7.1130  -14.2957   18.6205 C   0  0  0  0  0  0  0  0  0  0  0  0
    7.5375  -13.5670   19.8799 C   0  0  0  0  0  0  0  0  0  0  0  0
    7.0441  -14.3194   21.0812 C   0  0  0  0  0  0  0  0  0  0  0  0
    8.1508  -15.1896   21.6186 C   0  0  2  0  0  0  0  0  0  0  0  0
    7.7518  -16.5689   21.8065 N   0  0  0  0  0  0  0  0  0  0  0  0
    8.5848  -14.6187   22.9235 C   0  0  0  0  0  0  0  0  0  0  0  0
    8.5677  -13.3813   23.1421 O   0  0  0  0  0  0  0  0  0  0  0  0
    7.4910  -13.5725   14.9550 C   0  0  0  0  0  0  0  0  0  0  0  0
    5.8824  -11.6764   26.4012 S   0  0  0  0  0  0  0  0  0  0  0  0
    7.4198  -12.1756   27.2355 C   0  0  0  0  0  0  0  0  0  0  0  0
    7.6065  -13.9517   27.0843 C   0  0  0  0  0  0  0  0  0  0  0  0
    7.8758  -14.3805   25.7000 C   0  0  1  0  0  0  0  0  0  0  0  0
    9.2177  -14.9258   25.3519 N   0  0  0  0  0  0  0  0  0  0  0  0
    9.0356  -15.4645   23.9704 C   0  0  0  0  0  0  0  0  0  0  0  0
    9.7375  -16.0316   26.1379 O   0  0  0  0  0  0  0  0  0  0  0  0
    9.8899  -15.9735   27.3783 O   0  0  0  0  0  0  0  0  0  0  0  0
  2  3  1  0
  2  1  1  6
  3  4  1  0
  4  5  1  0
  5  6  1  0
  6  7  1  0
  8  2  1  0
  8  9  2  0
 10 11  1  0
 11 12  2  0
 13 11  1  0
 13 14  1  0
 15 16  1  0
 15 14  1  0
 17 16  1  1
 17 19  1  0
 17 18  1  0
 18  8  1  0
 19 26  1  0
 20 19  2  0
 22 23  1  0
 22 21  1  0
 23 24  1  0
 25 24  1  6
 25 27  1  0
 26 25  1  0
 27 28  2  0
 27 29  1  0
M  END
$$$$
