KRM.pdb
     RDKit          3D

 29 28  0  0  1  0  0  0  0  0999 V2000
    7.1095  -17.7336   19.9800 N   0  0  0  0  0  0  0  0  0  0  0  0
    8.1272  -16.7971   20.5022 C   0  0  1  0  0  0  0  0  0  0  0  0
    7.7606  -15.3922   20.1002 C   0  0  0  0  0  0  0  0  0  0  0  0
    8.5682  -14.8741   18.9507 C   0  0  0  0  0  0  0  0  0  0  0  0
    8.0261  -13.5771   18.4134 C   0  0  0  0  0  0  0  0  0  0  0  0
    8.8706  -13.0320   17.2836 C   0  0  0  0  0  0  0  0  0  0  0  0
    8.2750  -11.7900   16.8311 N   0  0  0  0  0  0  0  0  0  0  0  0
    8.2667  -16.9706   21.9551 C   0  0  0  0  0  0  0  0  0  0  0  0
    7.3062  -16.8521   22.7222 O   0  0  0  0  0  0  0  0  0  0  0  0
   15.6869  -19.6012   24.8992 N   0  0  0  0  0  0  0  0  0  0  0  0
   14.3440  -20.0459   24.9285 C   0  0  0  0  0  0  0  0  0  0  0  0
   14.0781  -21.2962   24.8312 N   0  0  0  0  0  0  0  0  0  0  0  0
   13.2464  -19.1344   25.0653 N   0  0  0  0  0  0  0  0  0  0  0  0
   12.2396  -19.3830   26.0580 C   0  0  0  0  0  0  0  0  0  0  0  0
   11.0337  -18.5228   25.7366 C   0  0  0  0  0  0  0  0  0  0  0  0
   10.9000  -18.3886   24.2478 C   0  0  0  0  0  0  0  0  0  0  0  0
    9.7168  -17.5124   23.9265 C   0  0  2  0  0  0  0  0  0  0  0  0
    9.5440  -17.2851   22.5069 N   0  0  0  0  0  0  0  0  0  0  0  0
    9.9174  -16.2074   24.6150 C   0  0  0  0  0  0  0  0  0  0  0  0
   10.6942  -15.3316   24.1581 O   0  0  0  0  0  0  0  0  0  0  0  0
   13.1186  -21.6535   24.6412 C   0  0  0  0  0  0  0  0  0  0  0  0
    5.2248  -12.6929   27.1669 S   0  0  0  0  0  0  0  0  0  0  0  0
    6.6040  -11.6868   26.5389 C   0  0  0  0  0  0  0  0  0  0  0  0
    8.1459  -12.5036   26.9483 C   0  0  0  0  0  0  0  0  0  0  0  0
    8.3020  -13.8010   26.2662 C   0  0  1  0  0  0  0  0  0  0  0  0
    9.5013  -14.6371   26.5522 N   0  0  0  0  0  0  0  0  0  0  0  0
    9.2297  -15.9111   25.8207 C   0  0  0  0  0  0  0  0  0  0  0  0
    9.7600  -15.0235   27.9286 O   0  0  0  0  0  0  0  0  0  0  0  0
    9.4140  -16.1283   28.4027 O   0  0  0  0  0  0  0  0  0  0  0  0
  2  3  1  0
  2  1  1  1
  3  4  1  0
  4  5  1  0
  5  6  1  0
  6  7  1  0
  8  2  1  0
  8  9  2  0
 10 11  1  0
 11 12  2  0
 13 11  1  0
 13 14  1  0
 15 16  1  0
 15 14  1  0
 17 16  1  6
 17 19  1  0
 17 18  1  0
 18  8  1  0
 19 26  1  0
 20 19  2  0
 22 23  1  0
 22 21  1  0
 23 24  1  0
 25 24  1  6
 25 27  1  0
 26 25  1  0
 27 28  2  0
 27 29  1  0
M  END
$$$$
