KRM.pdb
     RDKit          3D

 29 28  0  0  1  0  0  0  0  0999 V2000
    7.8602  -19.2535   19.3218 N   0  0  0  0  0  0  0  0  0  0  0  0
    7.2315  -18.8036   20.5818 C   0  0  1  0  0  0  0  0  0  0  0  0
    7.0807  -19.9817   21.5088 C   0  0  0  0  0  0  0  0  0  0  0  0
    7.9269  -21.1543   21.1206 C   0  0  0  0  0  0  0  0  0  0  0  0
    7.7511  -22.3180   22.0587 C   0  0  0  0  0  0  0  0  0  0  0  0
    8.5296  -23.5339   21.6089 C   0  0  0  0  0  0  0  0  0  0  0  0
    8.4086  -24.5536   22.6324 N   0  0  0  0  0  0  0  0  0  0  0  0
    8.0102  -17.7004   21.1623 C   0  0  0  0  0  0  0  0  0  0  0  0
    9.0345  -17.9006   21.8224 O   0  0  0  0  0  0  0  0  0  0  0  0
    9.7606  -14.5624   17.3856 N   0  0  0  0  0  0  0  0  0  0  0  0
    8.7000  -14.0252   16.6185 C   0  0  0  0  0  0  0  0  0  0  0  0
    8.7055  -14.1428   15.3419 N   0  0  0  0  0  0  0  0  0  0  0  0
    7.5967  -13.3403   17.2251 N   0  0  0  0  0  0  0  0  0  0  0  0
    7.6704  -12.9664   18.6092 C   0  0  0  0  0  0  0  0  0  0  0  0
    8.3161  -14.1044   19.3743 C   0  0  0  0  0  0  0  0  0  0  0  0
    8.0461  -13.9351   20.8410 C   0  0  0  0  0  0  0  0  0  0  0  0
    8.2945  -15.2406   21.5516 C   0  0  2  0  0  0  0  0  0  0  0  0
    7.5800  -16.3548   20.9642 N   0  0  0  0  0  0  0  0  0  0  0  0
    7.8708  -15.0741   22.9693 C   0  0  0  0  0  0  0  0  0  0  0  0
    6.7804  -14.5286   23.2735 O   0  0  0  0  0  0  0  0  0  0  0  0
    7.9330  -13.7864   14.7414 C   0  0  0  0  0  0  0  0  0  0  0  0
    7.1055  -11.4707   27.3080 S   0  0  0  0  0  0  0  0  0  0  0  0
    5.9682  -12.8870   27.2087 C   0  0  0  0  0  0  0  0  0  0  0  0
    6.9325  -14.3954   27.1264 C   0  0  0  0  0  0  0  0  0  0  0  0
    7.2822  -14.7734   25.7451 C   0  0  1  0  0  0  0  0  0  0  0  0
    8.7146  -14.8089   25.3377 N   0  0  0  0  0  0  0  0  0  0  0  0
    8.6950  -15.5316   24.0303 C   0  0  0  0  0  0  0  0  0  0  0  0
    9.6515  -15.5388   26.1745 O   0  0  0  0  0  0  0  0  0  0  0  0
    9.3951  -15.8735   27.3525 O   0  0  0  0  0  0  0  0  0  0  0  0
  2  3  1  0
  2  1  1  6
  3  4  1  0
  4  5  1  0
  5  6  1  0
  6  7  1  0
  8  2  1  0
  8  9  2  0
 10 11  1  0
 11 12  2  0
 13 11  1  0
 13 14  1  0
 15 16  1  0
 15 14  1  0
 17 16  1  6
 17 19  1  0
 17 18  1  0
 18  8  1  0
 19 26  1  0
 20 19  2  0
 22 23  1  0
 22 21  1  0
 23 24  1  0
 25 24  1  6
 25 27  1  0
 26 25  1  0
 27 28  2  0
 27 29  1  0
M  END
$$$$
