KRM.pdb
     RDKit          3D

 29 28  0  0  1  0  0  0  0  0999 V2000
   12.7797  -17.5119   19.2860 N   0  0  0  0  0  0  0  0  0  0  0  0
   13.2322  -16.1347   19.5756 C   0  0  1  0  0  0  0  0  0  0  0  0
   13.3650  -15.3741   18.2819 C   0  0  0  0  0  0  0  0  0  0  0  0
   12.9187  -16.1559   17.0854 C   0  0  0  0  0  0  0  0  0  0  0  0
   11.5122  -15.8129   16.6741 C   0  0  0  0  0  0  0  0  0  0  0  0
   11.1100  -16.5051   15.3911 C   0  0  0  0  0  0  0  0  0  0  0  0
   10.3901  -15.5524   14.5688 N   0  0  0  0  0  0  0  0  0  0  0  0
   12.3169  -15.4996   20.5344 C   0  0  0  0  0  0  0  0  0  0  0  0
   12.4555  -14.3252   20.8901 O   0  0  0  0  0  0  0  0  0  0  0  0
    7.9778  -13.2667   17.3926 N   0  0  0  0  0  0  0  0  0  0  0  0
    8.1846  -13.2875   18.7922 C   0  0  0  0  0  0  0  0  0  0  0  0
    8.4056  -12.1953   19.4261 N   0  0  0  0  0  0  0  0  0  0  0  0
    8.1563  -14.5069   19.5448 N   0  0  0  0  0  0  0  0  0  0  0  0
    7.2484  -14.6359   20.6494 C   0  0  0  0  0  0  0  0  0  0  0  0
    8.0635  -14.7837   21.9187 C   0  0  0  0  0  0  0  0  0  0  0  0
    8.8954  -16.0301   21.8342 C   0  0  0  0  0  0  0  0  0  0  0  0
   10.3433  -15.6846   22.0687 C   0  0  2  0  0  0  0  0  0  0  0  0
   11.2330  -16.2519   21.0769 N   0  0  0  0  0  0  0  0  0  0  0  0
   10.7190  -16.1921   23.4172 C   0  0  0  0  0  0  0  0  0  0  0  0
   11.5938  -17.0814   23.5687 O   0  0  0  0  0  0  0  0  0  0  0  0
    8.4652  -12.1507   20.4647 C   0  0  0  0  0  0  0  0  0  0  0  0
    8.7840  -12.7933   28.7156 S   0  0  0  0  0  0  0  0  0  0  0  0
   10.0795  -13.9505   29.2556 C   0  0  0  0  0  0  0  0  0  0  0  0
    9.9151  -15.4738   28.3258 C   0  0  0  0  0  0  0  0  0  0  0  0
    9.8078  -15.2460   26.8733 C   0  0  1  0  0  0  0  0  0  0  0  0
   10.4883  -16.1817   25.9348 N   0  0  0  0  0  0  0  0  0  0  0  0
   10.0932  -15.6807   24.5840 C   0  0  0  0  0  0  0  0  0  0  0  0
   10.1054  -17.5829   25.9601 O   0  0  0  0  0  0  0  0  0  0  0  0
   10.6183  -18.4154   26.7405 O   0  0  0  0  0  0  0  0  0  0  0  0
  2  3  1  0
  2  1  1  6
  3  4  1  0
  4  5  1  0
  5  6  1  0
  6  7  1  0
  8  2  1  0
  8  9  2  0
 10 11  1  0
 11 12  2  0
 13 11  1  0
 13 14  1  0
 15 16  1  0
 15 14  1  0
 17 16  1  6
 17 19  1  0
 17 18  1  0
 18  8  1  0
 19 26  1  0
 20 19  2  0
 22 23  1  0
 22 21  1  0
 23 24  1  0
 25 24  1  6
 25 27  1  0
 26 25  1  0
 27 28  2  0
 27 29  1  0
M  END
$$$$
