KRM.pdb
     RDKit          3D

 29 28  0  0  1  0  0  0  0  0999 V2000
   10.0102  -15.5239   18.5058 N   0  0  0  0  0  0  0  0  0  0  0  0
    9.0963  -14.5731   19.1737 C   0  0  1  0  0  0  0  0  0  0  0  0
    7.9146  -14.3085   18.2774 C   0  0  0  0  0  0  0  0  0  0  0  0
    8.2226  -14.4828   16.8225 C   0  0  0  0  0  0  0  0  0  0  0  0
    7.2983  -13.6819   15.9455 C   0  0  0  0  0  0  0  0  0  0  0  0
    7.6543  -13.8059   14.4810 C   0  0  0  0  0  0  0  0  0  0  0  0
    6.7094  -13.0153   13.7166 N   0  0  0  0  0  0  0  0  0  0  0  0
    8.7203  -15.0884   20.4979 C   0  0  0  0  0  0  0  0  0  0  0  0
    7.8924  -14.5136   21.2115 O   0  0  0  0  0  0  0  0  0  0  0  0
   11.6889  -21.1645   18.7412 N   0  0  0  0  0  0  0  0  0  0  0  0
   10.3253  -21.4909   18.9306 C   0  0  0  0  0  0  0  0  0  0  0  0
    9.7961  -22.4527   18.2685 N   0  0  0  0  0  0  0  0  0  0  0  0
    9.4949  -20.7735   19.8526 N   0  0  0  0  0  0  0  0  0  0  0  0
   10.0726  -19.7487   20.6755 C   0  0  0  0  0  0  0  0  0  0  0  0
    9.0085  -19.2550   21.6354 C   0  0  0  0  0  0  0  0  0  0  0  0
    9.5920  -18.1954   22.5239 C   0  0  0  0  0  0  0  0  0  0  0  0
    8.9182  -16.8771   22.2428 C   0  0  2  0  0  0  0  0  0  0  0  0
    9.3226  -16.2868   20.9838 N   0  0  0  0  0  0  0  0  0  0  0  0
    9.2567  -15.9474   23.3556 C   0  0  0  0  0  0  0  0  0  0  0  0
   10.4240  -15.5127   23.5219 O   0  0  0  0  0  0  0  0  0  0  0  0
    8.7843  -22.6902   18.3342 C   0  0  0  0  0  0  0  0  0  0  0  0
    6.2858  -10.1444   27.5708 S   0  0  0  0  0  0  0  0  0  0  0  0
    6.1527  -11.4178   26.2787 C   0  0  0  0  0  0  0  0  0  0  0  0
    7.5050  -12.5780   26.4719 C   0  0  0  0  0  0  0  0  0  0  0  0
    7.5411  -13.5938   25.4043 C   0  0  1  0  0  0  0  0  0  0  0  0
    8.6163  -14.6249   25.4130 N   0  0  0  0  0  0  0  0  0  0  0  0
    8.2600  -15.5203   24.2714 C   0  0  0  0  0  0  0  0  0  0  0  0
    8.7286  -15.4939   26.5718 O   0  0  0  0  0  0  0  0  0  0  0  0
    9.2991  -15.1479   27.6302 O   0  0  0  0  0  0  0  0  0  0  0  0
  2  3  1  0
  2  1  1  6
  3  4  1  0
  4  5  1  0
  5  6  1  0
  6  7  1  0
  8  2  1  0
  8  9  2  0
 10 11  1  0
 11 12  2  0
 13 11  1  0
 13 14  1  0
 15 16  1  0
 15 14  1  0
 17 16  1  1
 17 19  1  0
 17 18  1  0
 18  8  1  0
 19 26  1  0
 20 19  2  0
 22 23  1  0
 22 21  1  0
 23 24  1  0
 25 24  1  6
 25 27  1  0
 26 25  1  0
 27 28  2  0
 27 29  1  0
M  END
$$$$
