KRM.pdb
     RDKit          3D

 29 28  0  0  1  0  0  0  0  0999 V2000
    7.1024  -21.3541   24.1871 N   0  0  0  0  0  0  0  0  0  0  0  0
    6.4750  -20.0556   24.5118 C   0  0  1  0  0  0  0  0  0  0  0  0
    6.5147  -19.8449   26.0030 C   0  0  0  0  0  0  0  0  0  0  0  0
    7.5761  -20.6489   26.6879 C   0  0  0  0  0  0  0  0  0  0  0  0
    7.0227  -21.4792   27.8145 C   0  0  0  0  0  0  0  0  0  0  0  0
    8.1165  -22.1049   28.6504 C   0  0  0  0  0  0  0  0  0  0  0  0
    7.4963  -22.8005   29.7611 N   0  0  0  0  0  0  0  0  0  0  0  0
    7.1305  -18.9807   23.7531 C   0  0  0  0  0  0  0  0  0  0  0  0
    8.3570  -18.9304   23.6188 O   0  0  0  0  0  0  0  0  0  0  0  0
    7.7950  -13.9978   17.7928 N   0  0  0  0  0  0  0  0  0  0  0  0
    8.2441  -13.1928   18.8662 C   0  0  0  0  0  0  0  0  0  0  0  0
    8.4237  -11.9350   18.6958 N   0  0  0  0  0  0  0  0  0  0  0  0
    8.5116  -13.7398   20.1637 N   0  0  0  0  0  0  0  0  0  0  0  0
    7.8998  -14.9801   20.5488 C   0  0  0  0  0  0  0  0  0  0  0  0
    6.6571  -14.6652   21.3574 C   0  0  0  0  0  0  0  0  0  0  0  0
    5.9913  -15.9464   21.7670 C   0  0  0  0  0  0  0  0  0  0  0  0
    6.9370  -16.7545   22.6177 C   0  0  2  0  0  0  0  0  0  0  0  0
    6.3371  -17.9602   23.1499 N   0  0  0  0  0  0  0  0  0  0  0  0
    7.3887  -15.8894   23.7423 C   0  0  0  0  0  0  0  0  0  0  0  0
    6.5713  -15.2805   24.4774 O   0  0  0  0  0  0  0  0  0  0  0  0
    8.7034  -11.2973   19.4700 C   0  0  0  0  0  0  0  0  0  0  0  0
    6.5812  -11.8308   26.8799 S   0  0  0  0  0  0  0  0  0  0  0  0
    6.5376  -13.4335   27.7392 C   0  0  0  0  0  0  0  0  0  0  0  0
    8.0726  -14.3011   27.4185 C   0  0  0  0  0  0  0  0  0  0  0  0
    8.0486  -15.0518   26.1501 C   0  0  2  0  0  0  0  0  0  0  0  0
    9.2139  -14.9632   25.2264 N   0  0  0  0  0  0  0  0  0  0  0  0
    8.7708  -15.7253   24.0202 C   0  0  0  0  0  0  0  0  0  0  0  0
   10.4668  -15.5737   25.6368 O   0  0  0  0  0  0  0  0  0  0  0  0
   10.8394  -16.6992   25.2371 O   0  0  0  0  0  0  0  0  0  0  0  0
  2  3  1  0
  2  1  1  1
  3  4  1  0
  4  5  1  0
  5  6  1  0
  6  7  1  0
  8  2  1  0
  8  9  2  0
 10 11  1  0
 11 12  2  0
 13 11  1  0
 13 14  1  0
 15 16  1  0
 15 14  1  0
 17 16  1  1
 17 19  1  0
 17 18  1  0
 18  8  1  0
 19 26  1  0
 20 19  2  0
 22 23  1  0
 22 21  1  0
 23 24  1  0
 25 24  1  6
 25 27  1  0
 26 25  1  0
 27 28  2  0
 27 29  1  0
M  END
$$$$
