KRM.pdb
     RDKit          3D

 29 28  0  0  1  0  0  0  0  0999 V2000
    8.7200  -21.2289   22.5311 N   0  0  0  0  0  0  0  0  0  0  0  0
    8.2216  -20.1778   23.4434 C   0  0  1  0  0  0  0  0  0  0  0  0
    8.6855  -20.4773   24.8451 C   0  0  0  0  0  0  0  0  0  0  0  0
    9.2234  -21.8651   25.0084 C   0  0  0  0  0  0  0  0  0  0  0  0
    9.7389  -22.1152   26.4000 C   0  0  0  0  0  0  0  0  0  0  0  0
   10.3066  -23.5083   26.5544 C   0  0  0  0  0  0  0  0  0  0  0  0
    9.2355  -24.4608   26.3365 N   0  0  0  0  0  0  0  0  0  0  0  0
    8.6432  -18.8555   22.9593 C   0  0  0  0  0  0  0  0  0  0  0  0
    9.8311  -18.5194   22.9290 O   0  0  0  0  0  0  0  0  0  0  0  0
    9.0498  -12.9300   16.9758 N   0  0  0  0  0  0  0  0  0  0  0  0
    8.2920  -12.9988   18.1687 C   0  0  0  0  0  0  0  0  0  0  0  0
    8.5010  -12.1573   19.1130 N   0  0  0  0  0  0  0  0  0  0  0  0
    7.2789  -13.9930   18.3670 N   0  0  0  0  0  0  0  0  0  0  0  0
    6.6018  -14.0712   19.6305 C   0  0  0  0  0  0  0  0  0  0  0  0
    7.5622  -14.6537   20.6482 C   0  0  0  0  0  0  0  0  0  0  0  0
    7.0454  -15.9823   21.1176 C   0  0  0  0  0  0  0  0  0  0  0  0
    8.0248  -16.5873   22.0901 C   0  0  2  0  0  0  0  0  0  0  0  0
    7.6605  -17.9248   22.5089 N   0  0  0  0  0  0  0  0  0  0  0  0
    8.0905  -15.6971   23.2819 C   0  0  0  0  0  0  0  0  0  0  0  0
    7.2167  -14.8211   23.5016 O   0  0  0  0  0  0  0  0  0  0  0  0
    8.0743  -12.2555   20.0577 C   0  0  0  0  0  0  0  0  0  0  0  0
    6.5265  -11.5496   27.7201 S   0  0  0  0  0  0  0  0  0  0  0  0
    7.0688  -12.6741   26.3971 C   0  0  0  0  0  0  0  0  0  0  0  0
    7.3660  -14.2941   27.1039 C   0  0  0  0  0  0  0  0  0  0  0  0
    7.9060  -15.2532   26.1234 C   0  0  2  0  0  0  0  0  0  0  0  0
    9.1892  -14.9466   25.4317 N   0  0  0  0  0  0  0  0  0  0  0  0
    9.1536  -15.8130   24.2151 C   0  0  0  0  0  0  0  0  0  0  0  0
   10.4324  -15.2733   26.1087 O   0  0  0  0  0  0  0  0  0  0  0  0
   10.9959  -16.3850   25.9998 O   0  0  0  0  0  0  0  0  0  0  0  0
  2  3  1  0
  2  1  1  6
  3  4  1  0
  4  5  1  0
  5  6  1  0
  6  7  1  0
  8  2  1  0
  8  9  2  0
 10 11  1  0
 11 12  2  0
 13 11  1  0
 13 14  1  0
 15 16  1  0
 15 14  1  0
 17 16  1  6
 17 19  1  0
 17 18  1  0
 18  8  1  0
 19 26  1  0
 20 19  2  0
 22 23  1  0
 22 21  1  0
 23 24  1  0
 25 24  1  6
 25 27  1  0
 26 25  1  0
 27 28  2  0
 27 29  1  0
M  END
$$$$
