KRM.pdb
     RDKit          3D

 29 28  0  0  1  0  0  0  0  0999 V2000
   12.7396  -18.0348   20.9038 N   0  0  0  0  0  0  0  0  0  0  0  0
   13.2361  -16.7014   21.3047 C   0  0  1  0  0  0  0  0  0  0  0  0
   13.8710  -16.0304   20.1146 C   0  0  0  0  0  0  0  0  0  0  0  0
   14.8456  -16.9060   19.3897 C   0  0  0  0  0  0  0  0  0  0  0  0
   16.1789  -16.2350   19.1969 C   0  0  0  0  0  0  0  0  0  0  0  0
   17.1772  -17.1401   18.5106 C   0  0  0  0  0  0  0  0  0  0  0  0
   18.4362  -16.4288   18.4056 N   0  0  0  0  0  0  0  0  0  0  0  0
   12.1430  -15.9200   21.9006 C   0  0  0  0  0  0  0  0  0  0  0  0
   12.3243  -14.7880   22.3596 O   0  0  0  0  0  0  0  0  0  0  0  0
    6.8354  -12.8122   18.9260 N   0  0  0  0  0  0  0  0  0  0  0  0
    7.4772  -13.7860   18.1249 C   0  0  0  0  0  0  0  0  0  0  0  0
    8.2463  -13.4243   17.1651 N   0  0  0  0  0  0  0  0  0  0  0  0
    7.2976  -15.1902   18.3487 N   0  0  0  0  0  0  0  0  0  0  0  0
    7.1660  -15.6817   19.6912 C   0  0  0  0  0  0  0  0  0  0  0  0
    8.4120  -15.2946   20.4624 C   0  0  0  0  0  0  0  0  0  0  0  0
    8.4154  -15.9971   21.7887 C   0  0  0  0  0  0  0  0  0  0  0  0
    9.7166  -15.7247   22.4983 C   0  0  2  0  0  0  0  0  0  0  0  0
   10.8301  -16.4750   21.9560 N   0  0  0  0  0  0  0  0  0  0  0  0
    9.5345  -16.0785   23.9332 C   0  0  0  0  0  0  0  0  0  0  0  0
   10.0012  -17.1405   24.4165 O   0  0  0  0  0  0  0  0  0  0  0  0
    8.7178  -14.1064   16.5353 C   0  0  0  0  0  0  0  0  0  0  0  0
    6.4837  -11.2937   26.0727 S   0  0  0  0  0  0  0  0  0  0  0  0
    7.3201  -11.9298   27.5574 C   0  0  0  0  0  0  0  0  0  0  0  0
    8.4366  -13.2447   27.0708 C   0  0  0  0  0  0  0  0  0  0  0  0
    7.7343  -14.5033   26.7617 C   0  0  2  0  0  0  0  0  0  0  0  0
    8.5024  -15.6499   26.2010 N   0  0  0  0  0  0  0  0  0  0  0  0
    8.8205  -15.2175   24.8068 C   0  0  0  0  0  0  0  0  0  0  0  0
    7.8305  -16.9314   26.0697 O   0  0  0  0  0  0  0  0  0  0  0  0
    7.1373  -17.2384   25.0745 O   0  0  0  0  0  0  0  0  0  0  0  0
  2  3  1  0
  2  1  1  6
  3  4  1  0
  4  5  1  0
  5  6  1  0
  6  7  1  0
  8  2  1  0
  8  9  2  0
 10 11  1  0
 11 12  2  0
 13 11  1  0
 13 14  1  0
 15 16  1  0
 15 14  1  0
 17 16  1  6
 17 19  1  0
 17 18  1  0
 18  8  1  0
 19 26  1  0
 20 19  2  0
 22 23  1  0
 22 21  1  0
 23 24  1  0
 25 24  1  1
 25 27  1  0
 26 25  1  0
 27 28  2  0
 27 29  1  0
M  END
$$$$
