KRM.pdb
     RDKit          3D

 29 28  0  0  1  0  0  0  0  0999 V2000
    7.4067  -16.5286   18.9479 N   0  0  0  0  0  0  0  0  0  0  0  0
    8.5079  -15.8282   19.6423 C   0  0  1  0  0  0  0  0  0  0  0  0
    8.4346  -14.3563   19.3292 C   0  0  0  0  0  0  0  0  0  0  0  0
    7.7037  -14.0558   18.0575 C   0  0  0  0  0  0  0  0  0  0  0  0
    8.6371  -13.6635   16.9440 C   0  0  0  0  0  0  0  0  0  0  0  0
    7.8966  -13.3630   15.6602 C   0  0  0  0  0  0  0  0  0  0  0  0
    8.8755  -13.1268   14.6171 N   0  0  0  0  0  0  0  0  0  0  0  0
    8.4573  -16.1217   21.0816 C   0  0  0  0  0  0  0  0  0  0  0  0
    7.5253  -15.7364   21.7944 O   0  0  0  0  0  0  0  0  0  0  0  0
    9.4822  -22.4701   21.5652 N   0  0  0  0  0  0  0  0  0  0  0  0
   10.8138  -22.0626   21.3144 C   0  0  0  0  0  0  0  0  0  0  0  0
   11.4304  -22.4848   20.2728 N   0  0  0  0  0  0  0  0  0  0  0  0
   11.5150  -21.1780   22.1976 N   0  0  0  0  0  0  0  0  0  0  0  0
   10.8822  -20.7396   23.4094 C   0  0  0  0  0  0  0  0  0  0  0  0
    9.8887  -19.6500   23.0584 C   0  0  0  0  0  0  0  0  0  0  0  0
   10.4540  -18.3156   23.4489 C   0  0  0  0  0  0  0  0  0  0  0  0
    9.4739  -17.2295   23.0872 C   0  0  2  0  0  0  0  0  0  0  0  0
    9.5098  -16.8729   21.6842 N   0  0  0  0  0  0  0  0  0  0  0  0
    9.7991  -16.0317   23.9099 C   0  0  0  0  0  0  0  0  0  0  0  0
   10.8720  -15.3958   23.7563 O   0  0  0  0  0  0  0  0  0  0  0  0
   12.4146  -22.2218   20.0573 C   0  0  0  0  0  0  0  0  0  0  0  0
    5.1922  -12.4856   27.4425 S   0  0  0  0  0  0  0  0  0  0  0  0
    6.5433  -11.5136   26.7087 C   0  0  0  0  0  0  0  0  0  0  0  0
    8.0608  -12.4607   26.8204 C   0  0  0  0  0  0  0  0  0  0  0  0
    8.1171  -13.5638   25.8442 C   0  0  1  0  0  0  0  0  0  0  0  0
    9.2978  -14.4722   25.8355 N   0  0  0  0  0  0  0  0  0  0  0  0
    8.8969  -15.5680   24.9026 C   0  0  0  0  0  0  0  0  0  0  0  0
    9.6700  -15.1306   27.0760 O   0  0  0  0  0  0  0  0  0  0  0  0
   10.2046  -14.5282   28.0334 O   0  0  0  0  0  0  0  0  0  0  0  0
  2  3  1  0
  2  1  1  6
  3  4  1  0
  4  5  1  0
  5  6  1  0
  6  7  1  0
  8  2  1  0
  8  9  2  0
 10 11  1  0
 11 12  2  0
 13 11  1  0
 13 14  1  0
 15 16  1  0
 15 14  1  0
 17 16  1  6
 17 19  1  0
 17 18  1  0
 18  8  1  0
 19 26  1  0
 20 19  2  0
 22 23  1  0
 22 21  1  0
 23 24  1  0
 25 24  1  6
 25 27  1  0
 26 25  1  0
 27 28  2  0
 27 29  1  0
M  END
$$$$
