KRM.pdb
     RDKit          3D

 29 28  0  0  1  0  0  0  0  0999 V2000
    6.2503  -20.6035   21.0509 N   0  0  0  0  0  0  0  0  0  0  0  0
    6.0082  -19.5469   22.0561 C   0  0  1  0  0  0  0  0  0  0  0  0
    5.6829  -20.1875   23.3803 C   0  0  0  0  0  0  0  0  0  0  0  0
    4.7261  -21.3335   23.2659 C   0  0  0  0  0  0  0  0  0  0  0  0
    4.5073  -22.0256   24.5844 C   0  0  0  0  0  0  0  0  0  0  0  0
    3.6278  -23.2480   24.4461 C   0  0  0  0  0  0  0  0  0  0  0  0
    3.5978  -23.9315   25.7244 N   0  0  0  0  0  0  0  0  0  0  0  0
    7.1632  -18.6397   22.1149 C   0  0  0  0  0  0  0  0  0  0  0  0
    8.3179  -19.0596   22.2378 O   0  0  0  0  0  0  0  0  0  0  0  0
    7.1509  -12.2430   18.6106 N   0  0  0  0  0  0  0  0  0  0  0  0
    7.6769  -13.4766   18.1597 C   0  0  0  0  0  0  0  0  0  0  0  0
    7.1715  -14.0548   17.1332 N   0  0  0  0  0  0  0  0  0  0  0  0
    8.7755  -14.1188   18.8192 N   0  0  0  0  0  0  0  0  0  0  0  0
    9.3880  -13.4860   19.9530 C   0  0  0  0  0  0  0  0  0  0  0  0
    9.3219  -14.4451   21.1248 C   0  0  0  0  0  0  0  0  0  0  0  0
    8.0856  -15.2881   21.0095 C   0  0  0  0  0  0  0  0  0  0  0  0
    8.0610  -16.2994   22.1265 C   0  0  2  0  0  0  0  0  0  0  0  0
    6.9565  -17.2308   22.0287 N   0  0  0  0  0  0  0  0  0  0  0  0
    7.9665  -15.5543   23.4122 C   0  0  0  0  0  0  0  0  0  0  0  0
    7.3340  -14.4722   23.5040 O   0  0  0  0  0  0  0  0  0  0  0  0
    7.5657  -14.9305   16.7306 C   0  0  0  0  0  0  0  0  0  0  0  0
    6.2194  -11.2682   26.2044 S   0  0  0  0  0  0  0  0  0  0  0  0
    6.2376  -12.6231   27.4180 C   0  0  0  0  0  0  0  0  0  0  0  0
    7.7669  -13.5396   27.2351 C   0  0  0  0  0  0  0  0  0  0  0  0
    7.7843  -14.3838   26.0269 C   0  0  1  0  0  0  0  0  0  0  0  0
    9.0321  -15.1110   25.6615 N   0  0  0  0  0  0  0  0  0  0  0  0
    8.5948  -16.0495   24.5845 C   0  0  0  0  0  0  0  0  0  0  0  0
    9.6665  -15.9416   26.6708 O   0  0  0  0  0  0  0  0  0  0  0  0
    9.6515  -17.1920   26.6319 O   0  0  0  0  0  0  0  0  0  0  0  0
  2  3  1  0
  2  1  1  6
  3  4  1  0
  4  5  1  0
  5  6  1  0
  6  7  1  0
  8  2  1  0
  8  9  2  0
 10 11  1  0
 11 12  2  0
 13 11  1  0
 13 14  1  0
 15 16  1  0
 15 14  1  0
 17 16  1  6
 17 19  1  0
 17 18  1  0
 18  8  1  0
 19 26  1  0
 20 19  2  0
 22 23  1  0
 22 21  1  0
 23 24  1  0
 25 24  1  6
 25 27  1  0
 26 25  1  0
 27 28  2  0
 27 29  1  0
M  END
$$$$
