IKE.pdb
     RDKit          3D

 27 26  0  0  1  0  0  0  0  0999 V2000
   17.8722  -18.5712  -15.1110 C   0  0  0  0  0  0  0  0  0  0  0  0
   18.8714  -18.3889  -16.2290 C   0  0  0  0  0  0  0  0  0  0  0  0
   19.5825  -17.0727  -16.0147 C   0  0  2  0  0  0  0  0  0  0  0  0
   18.9719  -16.0398  -16.9363 C   0  0  0  0  0  0  0  0  0  0  0  0
   21.0504  -17.1750  -16.3834 C   0  0  2  0  0  0  0  0  0  0  0  0
   21.7332  -18.1316  -15.5274 N   0  0  0  0  0  0  0  0  0  0  0  0
   21.7631  -15.8940  -16.3490 C   0  0  0  0  0  0  0  0  0  0  0  0
   22.1217  -15.3972  -15.2657 O   0  0  0  0  0  0  0  0  0  0  0  0
   22.0470  -15.2189  -17.5562 N   0  0  0  0  0  0  0  0  0  0  0  0
   22.8130  -13.9631  -17.5659 C   0  0  1  0  0  0  0  0  0  0  0  0
   23.8236  -14.0919  -18.6898 C   0  0  0  0  0  0  0  0  0  0  0  0
   24.6075  -12.8398  -18.8865 C   0  0  0  0  0  0  0  0  0  0  0  0
   25.6185  -13.1491  -20.0015 C   0  0  0  0  0  0  0  0  0  0  0  0
   26.4486  -11.9224  -20.3125 C   0  0  0  0  0  0  0  0  0  0  0  0
   27.4192  -12.3167  -21.3165 N   0  0  0  0  0  0  0  0  0  0  0  0
   21.8700  -12.8583  -17.7240 C   0  0  0  0  0  0  0  0  0  0  0  0
   20.9496  -12.9208  -18.5720 O   0  0  0  0  0  0  0  0  0  0  0  0
   21.9772  -11.7077  -16.9288 N   0  0  0  0  0  0  0  0  0  0  0  0
   21.0154  -10.5850  -17.0881 C   0  0  1  0  0  0  0  0  0  0  0  0
   20.9094   -9.8557  -15.8182 C   0  0  0  0  0  0  0  0  0  0  0  0
   21.5185   -8.5110  -15.7733 C   0  0  0  0  0  0  0  0  0  0  0  0
   21.3671   -7.7270  -14.5371 C   0  0  0  0  0  0  0  0  0  0  0  0
   20.7850   -8.1327  -13.4951 O   0  0  0  0  0  0  0  0  0  0  0  0
   21.4154   -9.8718  -18.2694 C   0  0  0  0  0  0  0  0  0  0  0  0
   22.5821   -9.9053  -18.7144 O   0  0  0  0  0  0  0  0  0  0  0  0
   21.9027   -6.4256  -14.4735 O   0  0  0  0  0  0  0  0  0  0  0  0
   20.5255   -9.0762  -19.0234 O   0  0  0  0  0  0  0  0  0  0  0  0
  1  2  1  0
  3  2  1  0
  3  4  1  6
  5  6  1  1
  5  3  1  0
  7  5  1  0
  8  7  2  0
  9  7  1  0
 10  9  1  0
 10 11  1  6
 11 12  1  0
 12 13  1  0
 13 14  1  0
 15 14  1  0
 16 18  1  0
 16 10  1  0
 17 16  2  0
 19 18  1  0
 20 21  1  0
 19 20  1  1
 21 22  1  0
 22 26  1  0
 22 23  2  0
 24 19  1  0
 24 27  1  0
 25 24  2  0
M  END
$$$$
