IKE.pdb
     RDKit          3D

 27 26  0  0  1  0  0  0  0  0999 V2000
   25.3671  -11.1686  -14.7216 C   0  0  0  0  0  0  0  0  0  0  0  0
   24.1177  -11.8314  -15.2518 C   0  0  0  0  0  0  0  0  0  0  0  0
   23.0737  -10.7608  -15.4708 C   0  0  2  0  0  0  0  0  0  0  0  0
   22.7450  -10.1285  -14.1361 C   0  0  0  0  0  0  0  0  0  0  0  0
   21.7830  -11.3531  -16.0041 C   0  0  2  0  0  0  0  0  0  0  0  0
   22.0232  -12.0973  -17.2299 N   0  0  0  0  0  0  0  0  0  0  0  0
   20.7247  -10.3644  -16.2331 C   0  0  0  0  0  0  0  0  0  0  0  0
   20.8425   -9.5053  -17.1258 O   0  0  0  0  0  0  0  0  0  0  0  0
   19.5602  -10.3886  -15.4348 N   0  0  0  0  0  0  0  0  0  0  0  0
   18.4700   -9.4241  -15.6467 C   0  0  1  0  0  0  0  0  0  0  0  0
   17.1796  -10.1827  -15.4015 C   0  0  0  0  0  0  0  0  0  0  0  0
   16.8391  -11.0922  -16.5319 C   0  0  0  0  0  0  0  0  0  0  0  0
   15.4878  -11.7263  -16.1673 C   0  0  0  0  0  0  0  0  0  0  0  0
   15.0603  -12.7042  -17.2404 C   0  0  0  0  0  0  0  0  0  0  0  0
   13.8632  -13.3640  -16.7533 N   0  0  0  0  0  0  0  0  0  0  0  0
   18.6859   -8.2916  -14.7492 C   0  0  0  0  0  0  0  0  0  0  0  0
   18.9611   -8.4779  -13.5410 O   0  0  0  0  0  0  0  0  0  0  0  0
   18.5900   -6.9750  -15.2236 N   0  0  0  0  0  0  0  0  0  0  0  0
   18.8292   -5.8233  -14.3142 C   0  0  1  0  0  0  0  0  0  0  0  0
   20.1978   -5.3291  -14.5101 C   0  0  0  0  0  0  0  0  0  0  0  0
   20.6044   -4.1640  -13.6986 C   0  0  0  0  0  0  0  0  0  0  0  0
   21.9508   -3.6104  -13.9141 C   0  0  0  0  0  0  0  0  0  0  0  0
   22.2134   -2.3829  -14.0301 O   0  0  0  0  0  0  0  0  0  0  0  0
   17.7286   -4.9196  -14.5049 C   0  0  0  0  0  0  0  0  0  0  0  0
   17.3348   -4.1392  -13.6126 O   0  0  0  0  0  0  0  0  0  0  0  0
   23.0527   -4.4841  -13.9973 O   0  0  0  0  0  0  0  0  0  0  0  0
   17.0030   -4.8386  -15.7133 O   0  0  0  0  0  0  0  0  0  0  0  0
  1  2  1  0
  3  2  1  0
  3  4  1  1
  5  6  1  6
  5  3  1  0
  7  5  1  0
  8  7  2  0
  9  7  1  0
 10  9  1  0
 10 11  1  1
 11 12  1  0
 12 13  1  0
 13 14  1  0
 15 14  1  0
 16 18  1  0
 16 10  1  0
 17 16  2  0
 19 18  1  0
 20 21  1  0
 19 20  1  6
 21 22  1  0
 22 26  1  0
 22 23  2  0
 24 19  1  0
 24 27  1  0
 25 24  2  0
M  END
$$$$
