IKE.pdb
     RDKit          3D

 27 26  0  0  1  0  0  0  0  0999 V2000
   27.6519  -15.4137  -20.2810 C   0  0  0  0  0  0  0  0  0  0  0  0
   26.6682  -15.1660  -19.1619 C   0  0  0  0  0  0  0  0  0  0  0  0
   26.3329  -16.4959  -18.5269 C   0  0  2  0  0  0  0  0  0  0  0  0
   25.7280  -17.3948  -19.5830 C   0  0  0  0  0  0  0  0  0  0  0  0
   25.2894  -16.3369  -17.4375 C   0  0  2  0  0  0  0  0  0  0  0  0
   25.7807  -15.4778  -16.3723 N   0  0  0  0  0  0  0  0  0  0  0  0
   24.8273  -17.6061  -16.8666 C   0  0  0  0  0  0  0  0  0  0  0  0
   24.3004  -18.4714  -17.5894 O   0  0  0  0  0  0  0  0  0  0  0  0
   24.9835  -17.8494  -15.4846 N   0  0  0  0  0  0  0  0  0  0  0  0
   24.4814  -19.0861  -14.8664 C   0  0  1  0  0  0  0  0  0  0  0  0
   25.4000  -19.3774  -13.6949 C   0  0  0  0  0  0  0  0  0  0  0  0
   24.9621  -20.5738  -12.9217 C   0  0  0  0  0  0  0  0  0  0  0  0
   25.9916  -20.7438  -11.7938 C   0  0  0  0  0  0  0  0  0  0  0  0
   25.6437  -21.9456  -10.9423 C   0  0  0  0  0  0  0  0  0  0  0  0
   25.6816  -23.1035  -11.8161 N   0  0  0  0  0  0  0  0  0  0  0  0
   23.0828  -18.8744  -14.5004 C   0  0  0  0  0  0  0  0  0  0  0  0
   22.7499  -17.8989  -13.7878 O   0  0  0  0  0  0  0  0  0  0  0  0
   22.0870  -19.7588  -14.9406 N   0  0  0  0  0  0  0  0  0  0  0  0
   20.6574  -19.5120  -14.6147 C   0  0  1  0  0  0  0  0  0  0  0  0
   19.9344  -19.1650  -15.8446 C   0  0  0  0  0  0  0  0  0  0  0  0
   19.6567  -20.2699  -16.7845 C   0  0  0  0  0  0  0  0  0  0  0  0
   20.2050  -20.1701  -18.1465 C   0  0  0  0  0  0  0  0  0  0  0  0
   20.8282  -19.1723  -18.5995 O   0  0  0  0  0  0  0  0  0  0  0  0
   20.2160  -20.6403  -13.8424 C   0  0  0  0  0  0  0  0  0  0  0  0
   19.1119  -20.6674  -13.2590 O   0  0  0  0  0  0  0  0  0  0  0  0
   20.0461  -21.2502  -19.0369 O   0  0  0  0  0  0  0  0  0  0  0  0
   20.9915  -21.8088  -13.6792 O   0  0  0  0  0  0  0  0  0  0  0  0
  1  2  1  0
  3  2  1  0
  3  4  1  6
  5  6  1  1
  5  3  1  0
  7  5  1  0
  8  7  2  0
  9  7  1  0
 10  9  1  0
 10 11  1  1
 11 12  1  0
 12 13  1  0
 13 14  1  0
 15 14  1  0
 16 18  1  0
 16 10  1  0
 17 16  2  0
 19 18  1  0
 20 21  1  0
 19 20  1  6
 21 22  1  0
 22 26  1  0
 22 23  2  0
 24 19  1  0
 24 27  1  0
 25 24  2  0
M  END
$$$$
