IKE.pdb
     RDKit          3D

 27 26  0  0  1  0  0  0  0  0999 V2000
   29.6290  -21.0967   -9.1696 C   0  0  0  0  0  0  0  0  0  0  0  0
   28.2518  -21.3364   -9.7418 C   0  0  0  0  0  0  0  0  0  0  0  0
   27.3704  -20.1727   -9.3506 C   0  0  2  0  0  0  0  0  0  0  0  0
   27.1921  -20.1875   -7.8483 C   0  0  0  0  0  0  0  0  0  0  0  0
   25.9862  -20.3039   -9.9570 C   0  0  2  0  0  0  0  0  0  0  0  0
   25.3987  -21.5933   -9.6306 N   0  0  0  0  0  0  0  0  0  0  0  0
   25.9516  -20.1057  -11.4094 C   0  0  0  0  0  0  0  0  0  0  0  0
   26.1379  -18.9770  -11.8995 O   0  0  0  0  0  0  0  0  0  0  0  0
   25.7070  -21.2059  -12.2599 N   0  0  0  0  0  0  0  0  0  0  0  0
   25.6720  -21.0469  -13.7218 C   0  0  1  0  0  0  0  0  0  0  0  0
   26.9011  -21.7583  -14.2550 C   0  0  0  0  0  0  0  0  0  0  0  0
   27.0067  -21.6618  -15.7384 C   0  0  0  0  0  0  0  0  0  0  0  0
   28.3335  -22.3421  -16.1092 C   0  0  0  0  0  0  0  0  0  0  0  0
   28.5629  -22.2658  -17.6032 C   0  0  0  0  0  0  0  0  0  0  0  0
   29.7657  -23.0282  -17.8820 N   0  0  0  0  0  0  0  0  0  0  0  0
   24.4032  -21.5859  -14.2061 C   0  0  0  0  0  0  0  0  0  0  0  0
   24.0801  -22.7724  -13.9652 O   0  0  0  0  0  0  0  0  0  0  0  0
   23.5232  -20.7850  -14.9489 N   0  0  0  0  0  0  0  0  0  0  0  0
   22.1920  -21.3037  -15.3607 C   0  0  1  0  0  0  0  0  0  0  0  0
   21.1557  -20.7030  -14.5117 C   0  0  0  0  0  0  0  0  0  0  0  0
   20.0748  -21.5980  -14.0514 C   0  0  0  0  0  0  0  0  0  0  0  0
   18.9324  -20.9935  -13.3478 C   0  0  0  0  0  0  0  0  0  0  0  0
   18.7755  -19.7567  -13.1612 O   0  0  0  0  0  0  0  0  0  0  0  0
   22.1116  -21.1314  -16.7848 C   0  0  0  0  0  0  0  0  0  0  0  0
   21.1675  -21.5837  -17.4663 O   0  0  0  0  0  0  0  0  0  0  0  0
   17.9170  -21.8249  -12.8355 O   0  0  0  0  0  0  0  0  0  0  0  0
   23.0903  -20.4386  -17.5302 O   0  0  0  0  0  0  0  0  0  0  0  0
  1  2  1  0
  3  2  1  0
  3  4  1  1
  5  6  1  6
  5  3  1  0
  7  5  1  0
  8  7  2  0
  9  7  1  0
 10  9  1  0
 10 11  1  6
 11 12  1  0
 12 13  1  0
 13 14  1  0
 15 14  1  0
 16 18  1  0
 16 10  1  0
 17 16  2  0
 19 18  1  0
 20 21  1  0
 19 20  1  1
 21 22  1  0
 22 26  1  0
 22 23  2  0
 24 19  1  0
 24 27  1  0
 25 24  2  0
M  END
$$$$
