IKE.pdb
     RDKit          3D

 27 26  0  0  1  0  0  0  0  0999 V2000
   28.8182  -16.7964  -19.2899 C   0  0  0  0  0  0  0  0  0  0  0  0
   28.5974  -17.4989  -17.9711 C   0  0  0  0  0  0  0  0  0  0  0  0
   27.1994  -18.0731  -17.9720 C   0  0  2  0  0  0  0  0  0  0  0  0
   26.2091  -16.9294  -17.9858 C   0  0  0  0  0  0  0  0  0  0  0  0
   26.9316  -18.8687  -16.7085 C   0  0  2  0  0  0  0  0  0  0  0  0
   27.9923  -19.8342  -16.4707 N   0  0  0  0  0  0  0  0  0  0  0  0
   25.6361  -19.5555  -16.7013 C   0  0  0  0  0  0  0  0  0  0  0  0
   24.8059  -19.3518  -17.6058 O   0  0  0  0  0  0  0  0  0  0  0  0
   25.3286  -20.4580  -15.6598 N   0  0  0  0  0  0  0  0  0  0  0  0
   24.0874  -21.2472  -15.6761 C   0  0  1  0  0  0  0  0  0  0  0  0
   24.3964  -22.5380  -14.9416 C   0  0  0  0  0  0  0  0  0  0  0  0
   23.2293  -23.4645  -14.9189 C   0  0  0  0  0  0  0  0  0  0  0  0
   23.7179  -24.7366  -14.2091 C   0  0  0  0  0  0  0  0  0  0  0  0
   22.8928  -25.9292  -14.6422 C   0  0  0  0  0  0  0  0  0  0  0  0
   23.3723  -27.0687  -13.8826 N   0  0  0  0  0  0  0  0  0  0  0  0
   23.0308  -20.4426  -15.0670 C   0  0  0  0  0  0  0  0  0  0  0  0
   23.2692  -19.7281  -14.0655 O   0  0  0  0  0  0  0  0  0  0  0  0
   21.7303  -20.4545  -15.5925 N   0  0  0  0  0  0  0  0  0  0  0  0
   20.6641  -19.6084  -14.9940 C   0  0  1  0  0  0  0  0  0  0  0  0
   20.5180  -18.3819  -15.7878 C   0  0  0  0  0  0  0  0  0  0  0  0
   19.3640  -17.5180  -15.4666 C   0  0  0  0  0  0  0  0  0  0  0  0
   19.1812  -16.2904  -16.2574 C   0  0  0  0  0  0  0  0  0  0  0  0
   19.4214  -16.1870  -17.4906 O   0  0  0  0  0  0  0  0  0  0  0  0
   19.5220  -20.4612  -14.8135 C   0  0  0  0  0  0  0  0  0  0  0  0
   18.6087  -20.2019  -14.0018 O   0  0  0  0  0  0  0  0  0  0  0  0
   18.6997  -15.1265  -15.6264 O   0  0  0  0  0  0  0  0  0  0  0  0
   19.3376  -21.6597  -15.5367 O   0  0  0  0  0  0  0  0  0  0  0  0
  1  2  1  0
  3  2  1  0
  3  4  1  1
  5  6  1  6
  5  3  1  0
  7  5  1  0
  8  7  2  0
  9  7  1  0
 10  9  1  0
 10 11  1  1
 11 12  1  0
 12 13  1  0
 13 14  1  0
 15 14  1  0
 16 18  1  0
 16 10  1  0
 17 16  2  0
 19 18  1  0
 20 21  1  0
 19 20  1  6
 21 22  1  0
 22 26  1  0
 22 23  2  0
 24 19  1  0
 24 27  1  0
 25 24  2  0
M  END
$$$$
