IKE.pdb
     RDKit          3D

 27 26  0  0  1  0  0  0  0  0999 V2000
   28.7350  -19.1292   -6.4156 C   0  0  0  0  0  0  0  0  0  0  0  0
   28.0899  -20.2859   -7.1418 C   0  0  0  0  0  0  0  0  0  0  0  0
   27.3356  -19.7341   -8.3296 C   0  0  2  0  0  0  0  0  0  0  0  0
   26.2050  -18.8666   -7.8214 C   0  0  0  0  0  0  0  0  0  0  0  0
   26.7020  -20.8468   -9.1430 C   0  0  2  0  0  0  0  0  0  0  0  0
   27.6851  -21.8622   -9.4843 N   0  0  0  0  0  0  0  0  0  0  0  0
   26.0338  -20.3848  -10.3638 C   0  0  0  0  0  0  0  0  0  0  0  0
   25.1726  -19.4878  -10.3141 O   0  0  0  0  0  0  0  0  0  0  0  0
   26.3722  -20.9616  -11.6074 N   0  0  0  0  0  0  0  0  0  0  0  0
   25.7777  -20.4740  -12.8613 C   0  0  1  0  0  0  0  0  0  0  0  0
   26.8083  -20.7264  -13.9453 C   0  0  0  0  0  0  0  0  0  0  0  0
   26.3203  -20.3136  -15.2915 C   0  0  0  0  0  0  0  0  0  0  0  0
   27.4778  -20.5965  -16.2617 C   0  0  0  0  0  0  0  0  0  0  0  0
   27.1423  -20.0792  -17.6439 C   0  0  0  0  0  0  0  0  0  0  0  0
   28.2468  -20.4492  -18.5093 N   0  0  0  0  0  0  0  0  0  0  0  0
   24.5076  -21.1682  -13.0607 C   0  0  0  0  0  0  0  0  0  0  0  0
   24.4021  -22.3912  -12.8092 O   0  0  0  0  0  0  0  0  0  0  0  0
   23.3828  -20.4782  -13.5365 N   0  0  0  0  0  0  0  0  0  0  0  0
   22.0458  -21.1287  -13.5511 C   0  0  1  0  0  0  0  0  0  0  0  0
   21.0273  -20.1486  -13.1540 C   0  0  0  0  0  0  0  0  0  0  0  0
   19.6216  -20.5998  -13.1948 C   0  0  0  0  0  0  0  0  0  0  0  0
   18.5700  -19.6016  -12.9432 C   0  0  0  0  0  0  0  0  0  0  0  0
   18.4047  -18.5467  -13.6133 O   0  0  0  0  0  0  0  0  0  0  0  0
   21.9251  -21.7808  -14.8257 C   0  0  0  0  0  0  0  0  0  0  0  0
   22.4600  -21.3367  -15.8635 O   0  0  0  0  0  0  0  0  0  0  0  0
   17.6593  -19.8073  -11.8882 O   0  0  0  0  0  0  0  0  0  0  0  0
   21.1940  -22.9744  -15.0106 O   0  0  0  0  0  0  0  0  0  0  0  0
  1  2  1  0
  3  2  1  0
  3  4  1  1
  5  6  1  6
  5  3  1  0
  7  5  1  0
  8  7  2  0
  9  7  1  0
 10  9  1  0
 10 11  1  6
 11 12  1  0
 12 13  1  0
 13 14  1  0
 15 14  1  0
 16 18  1  0
 16 10  1  0
 17 16  2  0
 19 18  1  0
 20 21  1  0
 19 20  1  6
 21 22  1  0
 22 26  1  0
 22 23  2  0
 24 19  1  0
 24 27  1  0
 25 24  2  0
M  END
$$$$
