IKE.pdb
     RDKit          3D

 27 26  0  0  1  0  0  0  0  0999 V2000
   28.7731  -12.5254  -16.4155 C   0  0  0  0  0  0  0  0  0  0  0  0
   27.5524  -12.4757  -15.5273 C   0  0  0  0  0  0  0  0  0  0  0  0
   26.5386  -11.5586  -16.1716 C   0  0  2  0  0  0  0  0  0  0  0  0
   27.1238  -10.1650  -16.2385 C   0  0  0  0  0  0  0  0  0  0  0  0
   25.2755  -11.4633  -15.3370 C   0  0  2  0  0  0  0  0  0  0  0  0
   24.7469  -12.7861  -15.0459 N   0  0  0  0  0  0  0  0  0  0  0  0
   24.2236  -10.6398  -15.9416 C   0  0  0  0  0  0  0  0  0  0  0  0
   24.4903   -9.5225  -16.4206 O   0  0  0  0  0  0  0  0  0  0  0  0
   22.8964  -11.1198  -15.9826 N   0  0  0  0  0  0  0  0  0  0  0  0
   21.7983  -10.2838  -16.4915 C   0  0  1  0  0  0  0  0  0  0  0  0
   20.6363  -11.2232  -16.7525 C   0  0  0  0  0  0  0  0  0  0  0  0
   20.8749  -12.0965  -17.9363 C   0  0  0  0  0  0  0  0  0  0  0  0
   19.6581  -13.0309  -18.0199 C   0  0  0  0  0  0  0  0  0  0  0  0
   19.7945  -13.9659  -19.2022 C   0  0  0  0  0  0  0  0  0  0  0  0
   18.6868  -14.9002  -19.1276 N   0  0  0  0  0  0  0  0  0  0  0  0
   21.5249   -9.2435  -15.5026 C   0  0  0  0  0  0  0  0  0  0  0  0
   21.5540   -9.5040  -14.2772 O   0  0  0  0  0  0  0  0  0  0  0  0
   21.2257   -7.9340  -15.9066 N   0  0  0  0  0  0  0  0  0  0  0  0
   21.0752   -6.8476  -14.9026 C   0  0  1  0  0  0  0  0  0  0  0  0
   21.9342   -5.7184  -15.2802 C   0  0  0  0  0  0  0  0  0  0  0  0
   21.9002   -4.5352  -14.3969 C   0  0  0  0  0  0  0  0  0  0  0  0
   22.6387   -3.3358  -14.8230 C   0  0  0  0  0  0  0  0  0  0  0  0
   23.3796   -3.2713  -15.8410 O   0  0  0  0  0  0  0  0  0  0  0  0
   19.6635   -6.6281  -14.7499 C   0  0  0  0  0  0  0  0  0  0  0  0
   18.8447   -6.8428  -15.6685 O   0  0  0  0  0  0  0  0  0  0  0  0
   22.5314   -2.1523  -14.0664 O   0  0  0  0  0  0  0  0  0  0  0  0
   19.0862   -6.1529  -13.5524 O   0  0  0  0  0  0  0  0  0  0  0  0
  1  2  1  0
  3  2  1  0
  3  4  1  1
  5  6  1  6
  5  3  1  0
  7  5  1  0
  8  7  2  0
  9  7  1  0
 10  9  1  0
 10 11  1  1
 11 12  1  0
 12 13  1  0
 13 14  1  0
 15 14  1  0
 16 18  1  0
 16 10  1  0
 17 16  2  0
 19 18  1  0
 20 21  1  0
 19 20  1  6
 21 22  1  0
 22 26  1  0
 22 23  2  0
 24 19  1  0
 24 27  1  0
 25 24  2  0
M  END
$$$$
