IKE.pdb
     RDKit          3D

 27 26  0  0  1  0  0  0  0  0999 V2000
   20.8525  -14.8392  -13.9668 C   0  0  0  0  0  0  0  0  0  0  0  0
   21.9741  -14.6645  -14.9633 C   0  0  0  0  0  0  0  0  0  0  0  0
   22.0802  -13.1949  -15.2997 C   0  0  2  0  0  0  0  0  0  0  0  0
   20.8064  -12.7669  -15.9950 C   0  0  0  0  0  0  0  0  0  0  0  0
   23.2170  -12.9341  -16.2696 C   0  0  2  0  0  0  0  0  0  0  0  0
   24.4897  -13.3409  -15.6960 N   0  0  0  0  0  0  0  0  0  0  0  0
   23.3075  -11.5414  -16.7194 C   0  0  0  0  0  0  0  0  0  0  0  0
   23.7265  -10.6542  -15.9538 O   0  0  0  0  0  0  0  0  0  0  0  0
   22.9176  -11.2043  -18.0340 N   0  0  0  0  0  0  0  0  0  0  0  0
   22.9361   -9.8096  -18.5009 C   0  0  1  0  0  0  0  0  0  0  0  0
   22.6140   -9.8545  -19.9826 C   0  0  0  0  0  0  0  0  0  0  0  0
   23.7006   -9.2608  -20.8119 C   0  0  0  0  0  0  0  0  0  0  0  0
   24.3610  -10.4395  -21.5437 C   0  0  0  0  0  0  0  0  0  0  0  0
   23.7514  -10.6118  -22.9182 C   0  0  0  0  0  0  0  0  0  0  0  0
   24.4588  -11.7065  -23.5561 N   0  0  0  0  0  0  0  0  0  0  0  0
   21.9814   -9.0498  -17.6971 C   0  0  0  0  0  0  0  0  0  0  0  0
   20.8887   -9.5581  -17.3539 O   0  0  0  0  0  0  0  0  0  0  0  0
   22.2709   -7.7378  -17.2940 N   0  0  0  0  0  0  0  0  0  0  0  0
   21.3250   -6.9859  -16.4275 C   0  0  1  0  0  0  0  0  0  0  0  0
   22.0462   -6.4740  -15.2556 C   0  0  0  0  0  0  0  0  0  0  0  0
   21.2758   -5.6304  -14.3195 C   0  0  0  0  0  0  0  0  0  0  0  0
   22.0049   -4.9782  -13.2201 C   0  0  0  0  0  0  0  0  0  0  0  0
   21.6890   -3.8722  -12.7042 O   0  0  0  0  0  0  0  0  0  0  0  0
   20.6398   -6.0576  -17.2837 C   0  0  0  0  0  0  0  0  0  0  0  0
   21.1572   -5.5868  -18.3185 O   0  0  0  0  0  0  0  0  0  0  0  0
   23.1410   -5.6076  -12.6744 O   0  0  0  0  0  0  0  0  0  0  0  0
   19.3283   -5.6019  -17.0273 O   0  0  0  0  0  0  0  0  0  0  0  0
  1  2  1  0
  3  2  1  0
  3  4  1  6
  5  6  1  1
  5  3  1  0
  7  5  1  0
  8  7  2  0
  9  7  1  0
 10  9  1  0
 10 11  1  6
 11 12  1  0
 12 13  1  0
 13 14  1  0
 15 14  1  0
 16 18  1  0
 16 10  1  0
 17 16  2  0
 19 18  1  0
 20 21  1  0
 19 20  1  1
 21 22  1  0
 22 26  1  0
 22 23  2  0
 24 19  1  0
 24 27  1  0
 25 24  2  0
M  END
$$$$
