IKE.pdb
     RDKit          3D

 27 26  0  0  1  0  0  0  0  0999 V2000
   13.6280  -13.8647  -14.6015 C   0  0  0  0  0  0  0  0  0  0  0  0
   14.8762  -14.0373  -15.4343 C   0  0  0  0  0  0  0  0  0  0  0  0
   15.7506  -12.8217  -15.2293 C   0  0  2  0  0  0  0  0  0  0  0  0
   15.1245  -11.6504  -15.9539 C   0  0  0  0  0  0  0  0  0  0  0  0
   17.1263  -13.0262  -15.8347 C   0  0  2  0  0  0  0  0  0  0  0  0
   17.8147  -14.1341  -15.1921 N   0  0  0  0  0  0  0  0  0  0  0  0
   17.9777  -11.8331  -15.7937 C   0  0  0  0  0  0  0  0  0  0  0  0
   18.4212  -11.4080  -14.7113 O   0  0  0  0  0  0  0  0  0  0  0  0
   18.2991  -11.1616  -16.9935 N   0  0  0  0  0  0  0  0  0  0  0  0
   19.0472   -9.8951  -16.9818 C   0  0  1  0  0  0  0  0  0  0  0  0
   20.0229   -9.9687  -18.1410 C   0  0  0  0  0  0  0  0  0  0  0  0
   21.4365  -10.0686  -17.6798 C   0  0  0  0  0  0  0  0  0  0  0  0
   21.7422  -11.5716  -17.5882 C   0  0  0  0  0  0  0  0  0  0  0  0
   22.6441  -11.9942  -18.7278 C   0  0  0  0  0  0  0  0  0  0  0  0
   22.9952  -13.3823  -18.4918 N   0  0  0  0  0  0  0  0  0  0  0  0
   18.0847   -8.7994  -17.0698 C   0  0  0  0  0  0  0  0  0  0  0  0
   17.0445   -8.9170  -17.7586 O   0  0  0  0  0  0  0  0  0  0  0  0
   18.3070   -7.5959  -16.3844 N   0  0  0  0  0  0  0  0  0  0  0  0
   17.3423   -6.4703  -16.4986 C   0  0  1  0  0  0  0  0  0  0  0  0
   17.5357   -5.5517  -15.3697 C   0  0  0  0  0  0  0  0  0  0  0  0
   16.7345   -4.3111  -15.3797 C   0  0  0  0  0  0  0  0  0  0  0  0
   17.0155   -3.3010  -14.3470 C   0  0  0  0  0  0  0  0  0  0  0  0
   16.4226   -2.1932  -14.2445 O   0  0  0  0  0  0  0  0  0  0  0  0
   17.4656   -5.9638  -17.8375 C   0  0  0  0  0  0  0  0  0  0  0  0
   18.5385   -6.0007  -18.4760 O   0  0  0  0  0  0  0  0  0  0  0  0
   18.0095   -3.5565  -13.3820 O   0  0  0  0  0  0  0  0  0  0  0  0
   16.3874   -5.3839  -18.5406 O   0  0  0  0  0  0  0  0  0  0  0  0
  1  2  1  0
  3  2  1  0
  3  4  1  6
  5  6  1  1
  5  3  1  0
  7  5  1  0
  8  7  2  0
  9  7  1  0
 10  9  1  0
 10 11  1  6
 11 12  1  0
 12 13  1  0
 13 14  1  0
 15 14  1  0
 16 18  1  0
 16 10  1  0
 17 16  2  0
 19 18  1  0
 20 21  1  0
 19 20  1  1
 21 22  1  0
 22 26  1  0
 22 23  2  0
 24 19  1  0
 24 27  1  0
 25 24  2  0
M  END
$$$$
