IKE.pdb
     RDKit          3D

 27 26  0  0  1  0  0  0  0  0999 V2000
   28.6582  -11.9625  -15.9990 C   0  0  0  0  0  0  0  0  0  0  0  0
   27.2386  -12.4745  -15.9347 C   0  0  0  0  0  0  0  0  0  0  0  0
   26.3107  -11.3346  -16.2865 C   0  0  2  0  0  0  0  0  0  0  0  0
   26.4001  -10.2874  -15.1980 C   0  0  0  0  0  0  0  0  0  0  0  0
   24.8664  -11.7961  -16.3321 C   0  0  2  0  0  0  0  0  0  0  0  0
   24.7094  -12.9140  -17.2485 N   0  0  0  0  0  0  0  0  0  0  0  0
   23.9147  -10.7381  -16.6857 C   0  0  0  0  0  0  0  0  0  0  0  0
   23.8830  -10.2741  -17.8401 O   0  0  0  0  0  0  0  0  0  0  0  0
   23.0246  -10.2426  -15.7080 N   0  0  0  0  0  0  0  0  0  0  0  0
   21.9972   -9.2460  -16.0469 C   0  0  1  0  0  0  0  0  0  0  0  0
   20.6607   -9.8927  -15.7365 C   0  0  0  0  0  0  0  0  0  0  0  0
   20.1427  -10.6905  -16.8837 C   0  0  0  0  0  0  0  0  0  0  0  0
   18.7551  -11.1911  -16.4536 C   0  0  0  0  0  0  0  0  0  0  0  0
   18.1728  -12.0998  -17.5145 C   0  0  0  0  0  0  0  0  0  0  0  0
   16.9623  -12.6734  -16.9567 N   0  0  0  0  0  0  0  0  0  0  0  0
   22.2739   -8.0319  -15.2825 C   0  0  0  0  0  0  0  0  0  0  0  0
   22.6733   -8.1012  -14.0968 O   0  0  0  0  0  0  0  0  0  0  0  0
   22.0983   -6.7667  -15.8620 N   0  0  0  0  0  0  0  0  0  0  0  0
   22.5113   -5.5371  -15.1351 C   0  0  1  0  0  0  0  0  0  0  0  0
   22.5175   -4.4034  -16.0681 C   0  0  0  0  0  0  0  0  0  0  0  0
   22.8230   -3.0763  -15.4966 C   0  0  0  0  0  0  0  0  0  0  0  0
   22.7875   -1.9133  -16.3977 C   0  0  0  0  0  0  0  0  0  0  0  0
   22.1573   -0.8456  -16.1692 O   0  0  0  0  0  0  0  0  0  0  0  0
   21.6905   -5.4658  -13.9581 C   0  0  0  0  0  0  0  0  0  0  0  0
   22.0857   -4.9511  -12.8908 O   0  0  0  0  0  0  0  0  0  0  0  0
   23.5013   -1.9567  -17.6114 O   0  0  0  0  0  0  0  0  0  0  0  0
   20.3726   -5.9699  -13.9102 O   0  0  0  0  0  0  0  0  0  0  0  0
  1  2  1  0
  3  2  1  0
  3  4  1  1
  5  6  1  6
  5  3  1  0
  7  5  1  0
  8  7  2  0
  9  7  1  0
 10  9  1  0
 10 11  1  1
 11 12  1  0
 12 13  1  0
 13 14  1  0
 15 14  1  0
 16 18  1  0
 16 10  1  0
 17 16  2  0
 19 18  1  0
 20 21  1  0
 19 20  1  6
 21 22  1  0
 22 26  1  0
 22 23  2  0
 24 19  1  0
 24 27  1  0
 25 24  2  0
M  END
$$$$
