IKE.pdb
     RDKit          3D

 27 26  0  0  1  0  0  0  0  0999 V2000
   21.4034  -12.4431  -20.9095 C   0  0  0  0  0  0  0  0  0  0  0  0
   21.7058  -12.4026  -19.4302 C   0  0  0  0  0  0  0  0  0  0  0  0
   21.0415  -11.1765  -18.8474 C   0  0  2  0  0  0  0  0  0  0  0  0
   22.1181  -10.2163  -18.3914 C   0  0  0  0  0  0  0  0  0  0  0  0
   20.2200  -11.5273  -17.6213 C   0  0  2  0  0  0  0  0  0  0  0  0
   19.1881  -12.4974  -17.9504 N   0  0  0  0  0  0  0  0  0  0  0  0
   19.6081  -10.3683  -16.9637 C   0  0  0  0  0  0  0  0  0  0  0  0
   18.7700   -9.6695  -17.5621 O   0  0  0  0  0  0  0  0  0  0  0  0
   19.9716  -10.0435  -15.6385 N   0  0  0  0  0  0  0  0  0  0  0  0
   19.3580   -8.9058  -14.9365 C   0  0  1  0  0  0  0  0  0  0  0  0
   18.7247   -9.4743  -13.6809 C   0  0  0  0  0  0  0  0  0  0  0  0
   18.1632   -8.4089  -12.8030 C   0  0  0  0  0  0  0  0  0  0  0  0
   17.6060   -9.1337  -11.5681 C   0  0  0  0  0  0  0  0  0  0  0  0
   16.9695   -8.1410  -10.6195 C   0  0  0  0  0  0  0  0  0  0  0  0
   16.2485   -8.9141   -9.6255 N   0  0  0  0  0  0  0  0  0  0  0  0
   20.3986   -7.9098  -14.6914 C   0  0  0  0  0  0  0  0  0  0  0  0
   21.5280   -8.2560  -14.2732 O   0  0  0  0  0  0  0  0  0  0  0  0
   20.1529   -6.5480  -14.9207 N   0  0  0  0  0  0  0  0  0  0  0  0
   21.2145   -5.5357  -14.6775 C   0  0  1  0  0  0  0  0  0  0  0  0
   21.0450   -4.4221  -15.6192 C   0  0  0  0  0  0  0  0  0  0  0  0
   21.9834   -3.2898  -15.4826 C   0  0  0  0  0  0  0  0  0  0  0  0
   21.8545   -2.1702  -16.4289 C   0  0  0  0  0  0  0  0  0  0  0  0
   21.0703   -2.1493  -17.4157 O   0  0  0  0  0  0  0  0  0  0  0  0
   21.2006   -5.2631  -13.2669 C   0  0  0  0  0  0  0  0  0  0  0  0
   20.1688   -5.3663  -12.5705 O   0  0  0  0  0  0  0  0  0  0  0  0
   22.6452   -1.0181  -16.2491 O   0  0  0  0  0  0  0  0  0  0  0  0
   22.3488   -4.8571  -12.5527 O   0  0  0  0  0  0  0  0  0  0  0  0
  1  2  1  0
  3  2  1  0
  3  4  1  1
  5  6  1  6
  5  3  1  0
  7  5  1  0
  8  7  2  0
  9  7  1  0
 10  9  1  0
 10 11  1  1
 11 12  1  0
 12 13  1  0
 13 14  1  0
 15 14  1  0
 16 18  1  0
 16 10  1  0
 17 16  2  0
 19 18  1  0
 20 21  1  0
 19 20  1  6
 21 22  1  0
 22 26  1  0
 22 23  2  0
 24 19  1  0
 24 27  1  0
 25 24  2  0
M  END
$$$$
