IKE.pdb
     RDKit          3D

 27 26  0  0  1  0  0  0  0  0999 V2000
   29.3090  -11.9402  -16.4610 C   0  0  0  0  0  0  0  0  0  0  0  0
   28.1319  -12.8805  -16.5693 C   0  0  0  0  0  0  0  0  0  0  0  0
   26.8724  -12.0497  -16.6569 C   0  0  2  0  0  0  0  0  0  0  0  0
   26.6271  -11.4036  -15.3110 C   0  0  0  0  0  0  0  0  0  0  0  0
   25.6627  -12.9156  -16.9537 C   0  0  2  0  0  0  0  0  0  0  0  0
   25.8964  -13.7472  -18.1233 N   0  0  0  0  0  0  0  0  0  0  0  0
   24.4194  -12.1594  -17.1332 C   0  0  0  0  0  0  0  0  0  0  0  0
   24.2849  -11.3800  -18.0941 O   0  0  0  0  0  0  0  0  0  0  0  0
   23.3642  -12.3185  -16.2086 N   0  0  0  0  0  0  0  0  0  0  0  0
   22.0933  -11.5956  -16.3698 C   0  0  1  0  0  0  0  0  0  0  0  0
   20.9953  -12.6333  -16.2334 C   0  0  0  0  0  0  0  0  0  0  0  0
   19.6374  -12.0366  -16.3775 C   0  0  0  0  0  0  0  0  0  0  0  0
   18.6496  -13.2063  -16.2473 C   0  0  0  0  0  0  0  0  0  0  0  0
   17.2318  -12.7226  -16.4632 C   0  0  0  0  0  0  0  0  0  0  0  0
   16.3759  -13.8928  -16.4023 N   0  0  0  0  0  0  0  0  0  0  0  0
   22.0473  -10.5312  -15.3700 C   0  0  0  0  0  0  0  0  0  0  0  0
   22.4593  -10.7324  -14.2038 O   0  0  0  0  0  0  0  0  0  0  0  0
   21.5419   -9.2643  -15.6974 N   0  0  0  0  0  0  0  0  0  0  0  0
   21.5485   -8.1648  -14.6964 C   0  0  1  0  0  0  0  0  0  0  0  0
   22.1343   -6.9628  -15.3028 C   0  0  0  0  0  0  0  0  0  0  0  0
   22.1176   -5.7327  -14.4857 C   0  0  0  0  0  0  0  0  0  0  0  0
   22.7076   -4.5142  -15.0627 C   0  0  0  0  0  0  0  0  0  0  0  0
   23.3039   -4.4598  -16.1721 O   0  0  0  0  0  0  0  0  0  0  0  0
   20.2175   -8.0959  -14.1598 C   0  0  0  0  0  0  0  0  0  0  0  0
   19.2055   -8.3998  -14.8259 O   0  0  0  0  0  0  0  0  0  0  0  0
   22.6154   -3.2994  -14.3554 O   0  0  0  0  0  0  0  0  0  0  0  0
   19.9436   -7.6802  -12.8386 O   0  0  0  0  0  0  0  0  0  0  0  0
  1  2  1  0
  3  2  1  0
  3  4  1  1
  5  6  1  6
  5  3  1  0
  7  5  1  0
  8  7  2  0
  9  7  1  0
 10  9  1  0
 10 11  1  1
 11 12  1  0
 12 13  1  0
 13 14  1  0
 15 14  1  0
 16 18  1  0
 16 10  1  0
 17 16  2  0
 19 18  1  0
 20 21  1  0
 19 20  1  6
 21 22  1  0
 22 26  1  0
 22 23  2  0
 24 19  1  0
 24 27  1  0
 25 24  2  0
M  END
$$$$
