IKE.pdb
     RDKit          3D

 27 26  0  0  1  0  0  0  0  0999 V2000
   30.0256  -20.8630  -18.2400 C   0  0  0  0  0  0  0  0  0  0  0  0
   29.0489  -21.4974  -17.2782 C   0  0  0  0  0  0  0  0  0  0  0  0
   28.0531  -20.4424  -16.8544 C   0  0  2  0  0  0  0  0  0  0  0  0
   28.7632  -19.4347  -15.9771 C   0  0  0  0  0  0  0  0  0  0  0  0
   26.9392  -21.0428  -16.0179 C   0  0  2  0  0  0  0  0  0  0  0  0
   26.4029  -22.2367  -16.6512 N   0  0  0  0  0  0  0  0  0  0  0  0
   25.8449  -20.1111  -15.7276 C   0  0  0  0  0  0  0  0  0  0  0  0
   26.0336  -19.1186  -15.0008 O   0  0  0  0  0  0  0  0  0  0  0  0
   24.5656  -20.3409  -16.2794 N   0  0  0  0  0  0  0  0  0  0  0  0
   23.4745  -19.3698  -16.1060 C   0  0  1  0  0  0  0  0  0  0  0  0
   23.2582  -18.7285  -17.4636 C   0  0  0  0  0  0  0  0  0  0  0  0
   22.1228  -17.7632  -17.4544 C   0  0  0  0  0  0  0  0  0  0  0  0
   21.9659  -17.2870  -18.9068 C   0  0  0  0  0  0  0  0  0  0  0  0
   20.8910  -16.2253  -18.9977 C   0  0  0  0  0  0  0  0  0  0  0  0
   20.7998  -15.8399  -20.3937 N   0  0  0  0  0  0  0  0  0  0  0  0
   22.3120  -20.0831  -15.5818 C   0  0  0  0  0  0  0  0  0  0  0  0
   22.0895  -21.2712  -15.9122 O   0  0  0  0  0  0  0  0  0  0  0  0
   21.4243  -19.4514  -14.6984 N   0  0  0  0  0  0  0  0  0  0  0  0
   20.2929  -20.2042  -14.0949 C   0  0  1  0  0  0  0  0  0  0  0  0
   20.8228  -21.2092  -13.1649 C   0  0  0  0  0  0  0  0  0  0  0  0
   19.8324  -21.9726  -12.3790 C   0  0  0  0  0  0  0  0  0  0  0  0
   19.6123  -23.3840  -12.7324 C   0  0  0  0  0  0  0  0  0  0  0  0
   20.3394  -24.0505  -13.5175 O   0  0  0  0  0  0  0  0  0  0  0  0
   19.3666  -19.2215  -13.6044 C   0  0  0  0  0  0  0  0  0  0  0  0
   19.7174  -18.0675  -13.2793 O   0  0  0  0  0  0  0  0  0  0  0  0
   18.5226  -24.0764  -12.1687 O   0  0  0  0  0  0  0  0  0  0  0  0
   17.9869  -19.4777  -13.4496 O   0  0  0  0  0  0  0  0  0  0  0  0
  1  2  1  0
  3  2  1  0
  3  4  1  1
  5  6  1  6
  5  3  1  0
  7  5  1  0
  8  7  2  0
  9  7  1  0
 10  9  1  0
 10 11  1  6
 11 12  1  0
 12 13  1  0
 13 14  1  0
 15 14  1  0
 16 18  1  0
 16 10  1  0
 17 16  2  0
 19 18  1  0
 20 21  1  0
 19 20  1  1
 21 22  1  0
 22 26  1  0
 22 23  2  0
 24 19  1  0
 24 27  1  0
 25 24  2  0
M  END
$$$$
