IKE.pdb
     RDKit          3D

 27 26  0  0  1  0  0  0  0  0999 V2000
   28.6118  -17.8733  -18.6747 C   0  0  0  0  0  0  0  0  0  0  0  0
   28.9892  -18.7897  -17.5349 C   0  0  0  0  0  0  0  0  0  0  0  0
   27.7162  -19.3063  -16.9050 C   0  0  2  0  0  0  0  0  0  0  0  0
   27.0157  -18.1534  -16.2199 C   0  0  0  0  0  0  0  0  0  0  0  0
   28.0131  -20.3374  -15.8327 C   0  0  2  0  0  0  0  0  0  0  0  0
   28.7647  -21.4539  -16.3828 N   0  0  0  0  0  0  0  0  0  0  0  0
   26.8197  -20.8432  -15.1472 C   0  0  0  0  0  0  0  0  0  0  0  0
   26.0060  -21.5707  -15.7450 O   0  0  0  0  0  0  0  0  0  0  0  0
   26.5928  -20.5035  -13.7955 N   0  0  0  0  0  0  0  0  0  0  0  0
   25.3746  -20.9371  -13.0943 C   0  0  1  0  0  0  0  0  0  0  0  0
   25.6342  -20.7140  -11.6165 C   0  0  0  0  0  0  0  0  0  0  0  0
   24.4522  -21.0648  -10.7794 C   0  0  0  0  0  0  0  0  0  0  0  0
   24.8497  -20.7323   -9.3329 C   0  0  0  0  0  0  0  0  0  0  0  0
   23.7111  -21.0530   -8.3887 C   0  0  0  0  0  0  0  0  0  0  0  0
   24.1891  -20.7770   -7.0467 N   0  0  0  0  0  0  0  0  0  0  0  0
   24.2477  -20.1781  -13.6319 C   0  0  0  0  0  0  0  0  0  0  0  0
   24.2925  -18.9274  -13.6953 O   0  0  0  0  0  0  0  0  0  0  0  0
   23.0955  -20.8355  -14.0877 N   0  0  0  0  0  0  0  0  0  0  0  0
   21.9706  -20.0666  -14.6828 C   0  0  1  0  0  0  0  0  0  0  0  0
   21.8231  -20.4409  -16.0948 C   0  0  0  0  0  0  0  0  0  0  0  0
   20.7165  -19.8043  -16.8373 C   0  0  0  0  0  0  0  0  0  0  0  0
   20.5553  -20.1450  -18.2599 C   0  0  0  0  0  0  0  0  0  0  0  0
   21.5035  -20.2707  -19.0811 O   0  0  0  0  0  0  0  0  0  0  0  0
   20.8512  -20.2333  -13.7977 C   0  0  0  0  0  0  0  0  0  0  0  0
   20.7107  -21.2392  -13.0706 O   0  0  0  0  0  0  0  0  0  0  0  0
   19.2628  -20.3588  -18.7778 O   0  0  0  0  0  0  0  0  0  0  0  0
   19.8201  -19.2766  -13.6763 O   0  0  0  0  0  0  0  0  0  0  0  0
  1  2  1  0
  3  2  1  0
  3  4  1  1
  5  6  1  6
  5  3  1  0
  7  5  1  0
  8  7  2  0
  9  7  1  0
 10  9  1  0
 10 11  1  1
 11 12  1  0
 12 13  1  0
 13 14  1  0
 15 14  1  0
 16 18  1  0
 16 10  1  0
 17 16  2  0
 19 18  1  0
 20 21  1  0
 19 20  1  6
 21 22  1  0
 22 26  1  0
 22 23  2  0
 24 19  1  0
 24 27  1  0
 25 24  2  0
M  END
$$$$
