YEM.pdb
     RDKit          3D

 30 30  0  0  1  0  0  0  0  0999 V2000
    9.0632  -13.5511   16.0076 O   0  0  0  0  0  0  0  0  0  0  0  0
    8.5607  -13.9729   17.2381 C   0  0  0  0  0  0  0  0  0  0  0  0
    9.2639  -14.9041   17.9847 C   0  0  0  0  0  0  0  0  0  0  0  0
    8.7884  -15.3434   19.2143 C   0  0  0  0  0  0  0  0  0  0  0  0
    7.5991  -14.8613   19.7247 C   0  0  0  0  0  0  0  0  0  0  0  0
    7.0758  -15.3200   21.0354 C   0  0  0  0  0  0  0  0  0  0  0  0
    6.7941  -16.8176   20.9557 C   0  0  2  0  0  0  0  0  0  0  0  0
    5.6000  -16.9472   20.1211 N   0  0  0  0  0  0  0  0  0  0  0  0
    6.4712  -17.3362   22.3001 C   0  0  0  0  0  0  0  0  0  0  0  0
    5.4014  -17.0496   22.8591 O   0  0  0  0  0  0  0  0  0  0  0  0
    6.9022  -13.9380   18.9838 C   0  0  0  0  0  0  0  0  0  0  0  0
    7.3736  -13.5019   17.7638 C   0  0  0  0  0  0  0  0  0  0  0  0
    7.3606  -18.1887   23.0293 N   0  0  0  0  0  0  0  0  0  0  0  0
    7.4194  -18.2192   24.4785 C   0  0  1  0  0  0  0  0  0  0  0  0
    7.8433  -19.5261   25.0295 C   0  0  0  0  0  0  0  0  0  0  0  0
    7.9081  -19.5708   26.5261 C   0  0  0  0  0  0  0  0  0  0  0  0
    8.3292  -20.8481   27.0825 C   0  0  0  0  0  0  0  0  0  0  0  0
    7.8185  -21.9163   26.6745 O   0  0  0  0  0  0  0  0  0  0  0  0
    8.1956  -17.0483   25.0018 C   0  0  0  0  0  0  0  0  0  0  0  0
    9.4397  -16.9713   24.8733 O   0  0  0  0  0  0  0  0  0  0  0  0
    9.2912  -20.9134   28.0658 O   0  0  0  0  0  0  0  0  0  0  0  0
    6.8589   -9.6680   27.6779 C   0  0  0  0  0  0  0  0  0  0  0  0
    6.2473  -11.2187   27.0059 S   0  0  0  0  0  0  0  0  0  0  0  0
    7.5577  -12.4614   26.8876 C   0  0  0  0  0  0  0  0  0  0  0  0
    7.0120  -13.7336   26.2681 C   0  0  0  0  0  0  0  0  0  0  0  0
    8.1209  -14.7764   26.1312 C   0  0  2  0  0  0  0  0  0  0  0  0
    7.5169  -15.9900   25.6625 N   0  0  0  0  0  0  0  0  0  0  0  0
    8.7985  -14.9380   27.4371 C   0  0  0  0  0  0  0  0  0  0  0  0
    8.4819  -15.8710   28.2119 O   0  0  0  0  0  0  0  0  0  0  0  0
    9.7968  -14.0676   27.8388 O   0  0  0  0  0  0  0  0  0  0  0  0
  2  3  2  0
  2  1  1  0
  4  3  1  0
  5  4  2  0
  6  5  1  0
  7  9  1  0
  7  6  1  0
  7  8  1  6
  9 10  2  0
 11  5  1  0
 11 12  2  0
 12  2  1  0
 13 14  1  0
 13  9  1  0
 14 15  1  6
 15 16  1  0
 16 17  1  0
 17 21  1  0
 18 17  2  0
 19 20  2  0
 19 14  1  0
 22 23  1  0
 23 24  1  0
 24 25  1  0
 26 25  1  1
 26 27  1  0
 27 19  1  0
 28 26  1  0
 28 30  1  0
 29 28  2  0
M  END
$$$$
