YEM.pdb
     RDKit          3D

 30 30  0  0  1  0  0  0  0  0999 V2000
    7.6259  -12.8655   16.1951 O   0  0  0  0  0  0  0  0  0  0  0  0
    7.8503  -13.3226   17.4932 C   0  0  0  0  0  0  0  0  0  0  0  0
    7.0059  -12.9253   18.5170 C   0  0  0  0  0  0  0  0  0  0  0  0
    7.2042  -13.3643   19.8205 C   0  0  0  0  0  0  0  0  0  0  0  0
    8.2513  -14.2103   20.1292 C   0  0  0  0  0  0  0  0  0  0  0  0
    8.4786  -14.6881   21.5156 C   0  0  0  0  0  0  0  0  0  0  0  0
    8.5954  -16.2095   21.4985 C   0  0  2  0  0  0  0  0  0  0  0  0
    7.2300  -16.7048   21.3258 N   0  0  0  0  0  0  0  0  0  0  0  0
    9.0930  -16.6858   22.8047 C   0  0  0  0  0  0  0  0  0  0  0  0
    8.3286  -16.8228   23.7721 O   0  0  0  0  0  0  0  0  0  0  0  0
    9.0883  -14.6037   19.1135 C   0  0  0  0  0  0  0  0  0  0  0  0
    8.8920  -14.1684   17.8201 C   0  0  0  0  0  0  0  0  0  0  0  0
   10.4683  -17.0134   23.0303 N   0  0  0  0  0  0  0  0  0  0  0  0
   10.9802  -17.4417   24.3184 C   0  0  1  0  0  0  0  0  0  0  0  0
   12.2766  -18.1518   24.2372 C   0  0  0  0  0  0  0  0  0  0  0  0
   12.8146  -18.6031   25.5611 C   0  0  0  0  0  0  0  0  0  0  0  0
   14.0837  -19.3127   25.4963 C   0  0  0  0  0  0  0  0  0  0  0  0
   15.1651  -18.6849   25.5647 O   0  0  0  0  0  0  0  0  0  0  0  0
   10.9580  -16.3091   25.3003 C   0  0  0  0  0  0  0  0  0  0  0  0
   11.5959  -15.2495   25.0994 O   0  0  0  0  0  0  0  0  0  0  0  0
   14.1268  -20.6822   25.3572 O   0  0  0  0  0  0  0  0  0  0  0  0
    6.8808  -11.3498   25.9624 C   0  0  0  0  0  0  0  0  0  0  0  0
    6.9999  -12.9037   26.8577 S   0  0  0  0  0  0  0  0  0  0  0  0
    8.6800  -13.5751   26.8149 C   0  0  0  0  0  0  0  0  0  0  0  0
    8.7373  -14.8797   27.5861 C   0  0  0  0  0  0  0  0  0  0  0  0
   10.1523  -15.4563   27.5512 C   0  0  2  0  0  0  0  0  0  0  0  0
   10.1977  -16.4251   26.4943 N   0  0  0  0  0  0  0  0  0  0  0  0
   10.4734  -16.0341   28.8755 C   0  0  0  0  0  0  0  0  0  0  0  0
   10.4904  -17.2758   29.0455 O   0  0  0  0  0  0  0  0  0  0  0  0
   10.7627  -15.2238   29.9595 O   0  0  0  0  0  0  0  0  0  0  0  0
  2  3  2  0
  2  1  1  0
  4  3  1  0
  5  4  2  0
  6  5  1  0
  7  9  1  0
  7  6  1  0
  7  8  1  1
  9 10  2  0
 11  5  1  0
 11 12  2  0
 12  2  1  0
 13 14  1  0
 13  9  1  0
 14 15  1  6
 15 16  1  0
 16 17  1  0
 17 21  1  0
 18 17  2  0
 19 20  2  0
 19 14  1  0
 22 23  1  0
 23 24  1  0
 24 25  1  0
 26 25  1  1
 26 27  1  0
 27 19  1  0
 28 26  1  0
 28 30  1  0
 29 28  2  0
M  END
$$$$
