YEM.pdb
     RDKit          3D

 30 30  0  0  1  0  0  0  0  0999 V2000
    7.1579  -11.9079   17.0368 O   0  0  0  0  0  0  0  0  0  0  0  0
    7.3660  -12.6757   18.1820 C   0  0  0  0  0  0  0  0  0  0  0  0
    6.3184  -13.4054   18.7198 C   0  0  0  0  0  0  0  0  0  0  0  0
    6.4954  -14.1797   19.8600 C   0  0  0  0  0  0  0  0  0  0  0  0
    7.7239  -14.2416   20.4879 C   0  0  0  0  0  0  0  0  0  0  0  0
    7.9307  -15.0625   21.7067 C   0  0  0  0  0  0  0  0  0  0  0  0
    8.5023  -16.4166   21.2966 C   0  0  2  0  0  0  0  0  0  0  0  0
    7.3433  -17.2512   20.9812 N   0  0  0  0  0  0  0  0  0  0  0  0
    9.2078  -17.0270   22.4413 C   0  0  0  0  0  0  0  0  0  0  0  0
    8.5902  -17.6519   23.3172 O   0  0  0  0  0  0  0  0  0  0  0  0
    8.7623  -13.5178   19.9541 C   0  0  0  0  0  0  0  0  0  0  0  0
    8.5872  -12.7494   18.8229 C   0  0  0  0  0  0  0  0  0  0  0  0
   10.6269  -16.9357   22.6071 N   0  0  0  0  0  0  0  0  0  0  0  0
   11.3319  -17.5130   23.7360 C   0  0  1  0  0  0  0  0  0  0  0  0
   12.6969  -17.9826   23.4079 C   0  0  0  0  0  0  0  0  0  0  0  0
   13.3795  -18.7157   24.5226 C   0  0  0  0  0  0  0  0  0  0  0  0
   14.7611  -19.0872   24.2551 C   0  0  0  0  0  0  0  0  0  0  0  0
   15.1153  -19.4221   23.1015 O   0  0  0  0  0  0  0  0  0  0  0  0
   11.2619  -16.6033   24.9254 C   0  0  0  0  0  0  0  0  0  0  0  0
   11.6751  -15.4213   24.8770 O   0  0  0  0  0  0  0  0  0  0  0  0
   15.7062  -19.0814   25.2567 O   0  0  0  0  0  0  0  0  0  0  0  0
    7.3745  -11.7829   27.0986 C   0  0  0  0  0  0  0  0  0  0  0  0
    7.3995  -13.5794   27.1462 S   0  0  0  0  0  0  0  0  0  0  0  0
    9.0895  -14.2269   27.1420 C   0  0  0  0  0  0  0  0  0  0  0  0
    9.0658  -15.7400   27.2423 C   0  0  0  0  0  0  0  0  0  0  0  0
   10.4895  -16.2898   27.3230 C   0  0  2  0  0  0  0  0  0  0  0  0
   10.7148  -17.0792   26.1467 N   0  0  0  0  0  0  0  0  0  0  0  0
   10.6394  -17.0662   28.5742 C   0  0  0  0  0  0  0  0  0  0  0  0
   10.4517  -18.3054   28.5855 O   0  0  0  0  0  0  0  0  0  0  0  0
   10.9895  -16.4491   29.7625 O   0  0  0  0  0  0  0  0  0  0  0  0
  2  3  2  0
  2  1  1  0
  4  3  1  0
  5  4  2  0
  6  5  1  0
  7  9  1  0
  7  6  1  0
  7  8  1  1
  9 10  2  0
 11  5  1  0
 11 12  2  0
 12  2  1  0
 13 14  1  0
 13  9  1  0
 14 15  1  6
 15 16  1  0
 16 17  1  0
 17 21  1  0
 18 17  2  0
 19 20  2  0
 19 14  1  0
 22 23  1  0
 23 24  1  0
 24 25  1  0
 26 25  1  6
 26 27  1  0
 27 19  1  0
 28 26  1  0
 28 30  1  0
 29 28  2  0
M  END
$$$$
