YEM.pdb
     RDKit          3D

 30 30  0  0  1  0  0  0  0  0999 V2000
    7.0056  -12.0120   17.6664 O   0  0  0  0  0  0  0  0  0  0  0  0
    7.3675  -12.8089   18.7520 C   0  0  0  0  0  0  0  0  0  0  0  0
    8.7020  -12.9234   19.1056 C   0  0  0  0  0  0  0  0  0  0  0  0
    9.0930  -13.7098   20.1825 C   0  0  0  0  0  0  0  0  0  0  0  0
    8.1583  -14.3993   20.9297 C   0  0  0  0  0  0  0  0  0  0  0  0
    8.5581  -15.2444   22.0821 C   0  0  0  0  0  0  0  0  0  0  0  0
    9.2249  -16.5117   21.5548 C   0  0  2  0  0  0  0  0  0  0  0  0
    8.1424  -17.3177   20.9910 N   0  0  0  0  0  0  0  0  0  0  0  0
    9.8201  -17.2654   22.6765 C   0  0  0  0  0  0  0  0  0  0  0  0
    9.1075  -17.8314   23.5198 O   0  0  0  0  0  0  0  0  0  0  0  0
    6.8352  -14.2854   20.5785 C   0  0  0  0  0  0  0  0  0  0  0  0
    6.4468  -13.5052   19.5101 C   0  0  0  0  0  0  0  0  0  0  0  0
   11.2352  -17.3866   22.8562 N   0  0  0  0  0  0  0  0  0  0  0  0
   11.8354  -18.0464   24.0003 C   0  0  1  0  0  0  0  0  0  0  0  0
   13.1675  -18.6284   23.7203 C   0  0  0  0  0  0  0  0  0  0  0  0
   13.2904  -19.2601   22.3669 C   0  0  0  0  0  0  0  0  0  0  0  0
   14.5229  -18.9514   21.6570 C   0  0  0  0  0  0  0  0  0  0  0  0
   15.4627  -18.3673   22.2436 O   0  0  0  0  0  0  0  0  0  0  0  0
   11.7920  -17.1580   25.2070 C   0  0  0  0  0  0  0  0  0  0  0  0
   11.8920  -15.9124   25.1129 O   0  0  0  0  0  0  0  0  0  0  0  0
   14.6847  -19.2895   20.3319 O   0  0  0  0  0  0  0  0  0  0  0  0
    9.6331  -12.0259   27.6992 C   0  0  0  0  0  0  0  0  0  0  0  0
    9.5597  -13.7338   28.2542 S   0  0  0  0  0  0  0  0  0  0  0  0
   10.1871  -14.8748   26.9973 C   0  0  0  0  0  0  0  0  0  0  0  0
    9.9543  -16.3081   27.4350 C   0  0  0  0  0  0  0  0  0  0  0  0
   11.2880  -17.0094   27.6903 C   0  0  2  0  0  0  0  0  0  0  0  0
   11.6330  -17.7283   26.4980 N   0  0  0  0  0  0  0  0  0  0  0  0
   11.1550  -17.8882   28.8738 C   0  0  0  0  0  0  0  0  0  0  0  0
   10.8365  -19.0935   28.7442 O   0  0  0  0  0  0  0  0  0  0  0  0
   11.3775  -17.4068   30.1522 O   0  0  0  0  0  0  0  0  0  0  0  0
  2  3  2  0
  2  1  1  0
  4  3  1  0
  5  4  2  0
  6  5  1  0
  7  9  1  0
  7  6  1  0
  7  8  1  1
  9 10  2  0
 11  5  1  0
 11 12  2  0
 12  2  1  0
 13 14  1  0
 13  9  1  0
 14 15  1  6
 15 16  1  0
 16 17  1  0
 17 21  1  0
 18 17  2  0
 19 20  2  0
 19 14  1  0
 22 23  1  0
 23 24  1  0
 24 25  1  0
 26 25  1  6
 26 27  1  0
 27 19  1  0
 28 26  1  0
 28 30  1  0
 29 28  2  0
M  END
$$$$
