YEM.pdb
     RDKit          3D

 30 30  0  0  1  0  0  0  0  0999 V2000
    6.6281  -12.1927   17.1362 O   0  0  0  0  0  0  0  0  0  0  0  0
    7.0612  -12.8313   18.2977 C   0  0  0  0  0  0  0  0  0  0  0  0
    6.2646  -13.7992   18.8874 C   0  0  0  0  0  0  0  0  0  0  0  0
    6.6695  -14.4527   20.0450 C   0  0  0  0  0  0  0  0  0  0  0  0
    7.8799  -14.1530   20.6386 C   0  0  0  0  0  0  0  0  0  0  0  0
    8.3276  -14.8403   21.8753 C   0  0  0  0  0  0  0  0  0  0  0  0
    8.9834  -16.1639   21.4924 C   0  0  2  0  0  0  0  0  0  0  0  0
    7.8791  -17.0827   21.2178 N   0  0  0  0  0  0  0  0  0  0  0  0
    9.7444  -16.6937   22.6417 C   0  0  0  0  0  0  0  0  0  0  0  0
    9.1676  -17.0921   23.6652 O   0  0  0  0  0  0  0  0  0  0  0  0
    8.6692  -13.1932   20.0534 C   0  0  0  0  0  0  0  0  0  0  0  0
    8.2680  -12.5444   18.9050 C   0  0  0  0  0  0  0  0  0  0  0  0
   11.1736  -16.7784   22.6441 N   0  0  0  0  0  0  0  0  0  0  0  0
   11.9567  -16.9312   23.8558 C   0  0  1  0  0  0  0  0  0  0  0  0
   13.4188  -16.9210   23.6245 C   0  0  0  0  0  0  0  0  0  0  0  0
   14.2395  -17.0611   24.8705 C   0  0  0  0  0  0  0  0  0  0  0  0
   15.6796  -17.0393   24.6605 C   0  0  0  0  0  0  0  0  0  0  0  0
   16.3660  -18.0659   24.8686 O   0  0  0  0  0  0  0  0  0  0  0  0
   11.4925  -15.9727   24.9108 C   0  0  0  0  0  0  0  0  0  0  0  0
   11.5753  -14.7319   24.7570 O   0  0  0  0  0  0  0  0  0  0  0  0
   16.3191  -15.8971   24.2328 O   0  0  0  0  0  0  0  0  0  0  0  0
    7.7109  -11.3105   27.0674 C   0  0  0  0  0  0  0  0  0  0  0  0
    7.3151  -13.0502   27.2847 S   0  0  0  0  0  0  0  0  0  0  0  0
    8.7453  -13.9961   27.8637 C   0  0  0  0  0  0  0  0  0  0  0  0
    9.2770  -14.8703   26.7442 C   0  0  0  0  0  0  0  0  0  0  0  0
   10.4899  -15.6676   27.2226 C   0  0  2  0  0  0  0  0  0  0  0  0
   10.9413  -16.4691   26.1220 N   0  0  0  0  0  0  0  0  0  0  0  0
   10.1053  -16.4746   28.4023 C   0  0  0  0  0  0  0  0  0  0  0  0
   10.0590  -17.7253   28.3353 O   0  0  0  0  0  0  0  0  0  0  0  0
    9.7869  -15.8742   29.6080 O   0  0  0  0  0  0  0  0  0  0  0  0
  2  3  2  0
  2  1  1  0
  4  3  1  0
  5  4  2  0
  6  5  1  0
  7  9  1  0
  7  6  1  0
  7  8  1  1
  9 10  2  0
 11  5  1  0
 11 12  2  0
 12  2  1  0
 13 14  1  0
 13  9  1  0
 14 15  1  6
 15 16  1  0
 16 17  1  0
 17 21  1  0
 18 17  2  0
 19 20  2  0
 19 14  1  0
 22 23  1  0
 23 24  1  0
 24 25  1  0
 26 25  1  6
 26 27  1  0
 27 19  1  0
 28 26  1  0
 28 30  1  0
 29 28  2  0
M  END
$$$$
