YEM.pdb
     RDKit          3D

 30 30  0  0  1  0  0  0  0  0999 V2000
    9.0767  -13.5481   17.1592 O   0  0  0  0  0  0  0  0  0  0  0  0
    8.4727  -13.9347   18.3551 C   0  0  0  0  0  0  0  0  0  0  0  0
    8.2739  -15.2796   18.6210 C   0  0  0  0  0  0  0  0  0  0  0  0
    7.6748  -15.6952   19.8040 C   0  0  0  0  0  0  0  0  0  0  0  0
    7.2611  -14.7752   20.7473 C   0  0  0  0  0  0  0  0  0  0  0  0
    6.6188  -15.2011   22.0154 C   0  0  0  0  0  0  0  0  0  0  0  0
    6.5749  -16.7259   22.0565 C   0  0  2  0  0  0  0  0  0  0  0  0
    5.2608  -17.0937   21.5300 N   0  0  0  0  0  0  0  0  0  0  0  0
    6.6529  -17.1891   23.4565 C   0  0  0  0  0  0  0  0  0  0  0  0
    5.7781  -16.8869   24.2827 O   0  0  0  0  0  0  0  0  0  0  0  0
    7.4585  -13.4418   20.4829 C   0  0  0  0  0  0  0  0  0  0  0  0
    8.0528  -13.0289   19.3094 C   0  0  0  0  0  0  0  0  0  0  0  0
    7.7275  -18.0033   23.9381 N   0  0  0  0  0  0  0  0  0  0  0  0
    8.0696  -18.1144   25.3435 C   0  0  1  0  0  0  0  0  0  0  0  0
    8.5164  -19.4683   25.7419 C   0  0  0  0  0  0  0  0  0  0  0  0
    8.8566  -19.6008   27.1954 C   0  0  0  0  0  0  0  0  0  0  0  0
    9.4360  -20.8811   27.5741 C   0  0  0  0  0  0  0  0  0  0  0  0
    9.7588  -21.1037   28.7635 O   0  0  0  0  0  0  0  0  0  0  0  0
    9.0016  -17.0129   25.7504 C   0  0  0  0  0  0  0  0  0  0  0  0
   10.0522  -16.7687   25.1127 O   0  0  0  0  0  0  0  0  0  0  0  0
    9.6442  -21.8720   26.6406 O   0  0  0  0  0  0  0  0  0  0  0  0
    6.5870  -10.6035   26.4198 C   0  0  0  0  0  0  0  0  0  0  0  0
    6.7616  -12.1239   27.3623 S   0  0  0  0  0  0  0  0  0  0  0  0
    8.3822  -12.8882   27.1078 C   0  0  0  0  0  0  0  0  0  0  0  0
    8.5268  -14.1072   27.9984 C   0  0  0  0  0  0  0  0  0  0  0  0
    9.4850  -15.1165   27.3668 C   0  0  2  0  0  0  0  0  0  0  0  0
    8.6989  -16.2159   26.8864 N   0  0  0  0  0  0  0  0  0  0  0  0
   10.4912  -15.5249   28.3726 C   0  0  0  0  0  0  0  0  0  0  0  0
   11.3067  -14.6940   28.8368 O   0  0  0  0  0  0  0  0  0  0  0  0
   10.5604  -16.8302   28.8275 O   0  0  0  0  0  0  0  0  0  0  0  0
  2  3  2  0
  2  1  1  0
  4  3  1  0
  5  4  2  0
  6  5  1  0
  7  9  1  0
  7  6  1  0
  7  8  1  1
  9 10  2  0
 11  5  1  0
 11 12  2  0
 12  2  1  0
 13 14  1  0
 13  9  1  0
 14 15  1  6
 15 16  1  0
 16 17  1  0
 17 21  1  0
 18 17  2  0
 19 20  2  0
 19 14  1  0
 22 23  1  0
 23 24  1  0
 24 25  1  0
 26 25  1  1
 26 27  1  0
 27 19  1  0
 28 26  1  0
 28 30  1  0
 29 28  2  0
M  END
$$$$
