YEM.pdb
     RDKit          3D

 30 30  0  0  1  0  0  0  0  0999 V2000
    7.2209  -12.2604   16.6540 O   0  0  0  0  0  0  0  0  0  0  0  0
    7.4039  -12.8909   17.8843 C   0  0  0  0  0  0  0  0  0  0  0  0
    8.4015  -12.4523   18.7394 C   0  0  0  0  0  0  0  0  0  0  0  0
    8.6077  -13.0607   19.9716 C   0  0  0  0  0  0  0  0  0  0  0  0
    7.8208  -14.1211   20.3762 C   0  0  0  0  0  0  0  0  0  0  0  0
    8.0276  -14.7832   21.6881 C   0  0  0  0  0  0  0  0  0  0  0  0
    9.2070  -15.7446   21.5733 C   0  0  2  0  0  0  0  0  0  0  0  0
    8.7592  -16.8076   20.6741 N   0  0  0  0  0  0  0  0  0  0  0  0
    9.4879  -16.3482   22.8914 C   0  0  0  0  0  0  0  0  0  0  0  0
    8.5680  -16.6874   23.6516 O   0  0  0  0  0  0  0  0  0  0  0  0
    6.8318  -14.5555   19.5277 C   0  0  0  0  0  0  0  0  0  0  0  0
    6.6268  -13.9523   18.3050 C   0  0  0  0  0  0  0  0  0  0  0  0
   10.8198  -16.5752   23.3650 N   0  0  0  0  0  0  0  0  0  0  0  0
   11.1129  -17.1042   24.6836 C   0  0  1  0  0  0  0  0  0  0  0  0
   12.2816  -18.0123   24.7140 C   0  0  0  0  0  0  0  0  0  0  0  0
   12.5155  -18.7568   23.4345 C   0  0  0  0  0  0  0  0  0  0  0  0
   13.9120  -19.0388   23.1371 C   0  0  0  0  0  0  0  0  0  0  0  0
   14.2217  -19.7079   22.1248 O   0  0  0  0  0  0  0  0  0  0  0  0
   11.1625  -16.0013   25.6977 C   0  0  0  0  0  0  0  0  0  0  0  0
   11.9504  -15.0339   25.5819 O   0  0  0  0  0  0  0  0  0  0  0  0
   14.9204  -18.5821   23.9563 O   0  0  0  0  0  0  0  0  0  0  0  0
    7.1112  -11.5004   25.7431 C   0  0  0  0  0  0  0  0  0  0  0  0
    7.3844  -12.6089   27.1312 S   0  0  0  0  0  0  0  0  0  0  0  0
    8.8950  -13.5837   26.9236 C   0  0  0  0  0  0  0  0  0  0  0  0
    9.1407  -14.4294   28.1584 C   0  0  0  0  0  0  0  0  0  0  0  0
   10.4311  -15.2336   28.0039 C   0  0  2  0  0  0  0  0  0  0  0  0
   10.2990  -16.0396   26.8247 N   0  0  0  0  0  0  0  0  0  0  0  0
   10.6518  -16.0363   29.2277 C   0  0  0  0  0  0  0  0  0  0  0  0
   10.4671  -17.2760   29.2225 O   0  0  0  0  0  0  0  0  0  0  0  0
   11.0664  -15.4440   30.4079 O   0  0  0  0  0  0  0  0  0  0  0  0
  2  3  2  0
  2  1  1  0
  4  3  1  0
  5  4  2  0
  6  5  1  0
  7  9  1  0
  7  6  1  0
  7  8  1  6
  9 10  2  0
 11  5  1  0
 11 12  2  0
 12  2  1  0
 13 14  1  0
 13  9  1  0
 14 15  1  6
 15 16  1  0
 16 17  1  0
 17 21  1  0
 18 17  2  0
 19 20  2  0
 19 14  1  0
 22 23  1  0
 23 24  1  0
 24 25  1  0
 26 25  1  1
 26 27  1  0
 27 19  1  0
 28 26  1  0
 28 30  1  0
 29 28  2  0
M  END
$$$$
