YEM.pdb
     RDKit          3D

 30 30  0  0  1  0  0  0  0  0999 V2000
    7.9984  -11.9381   24.9252 O   0  0  0  0  0  0  0  0  0  0  0  0
    7.5352  -13.1783   24.4874 C   0  0  0  0  0  0  0  0  0  0  0  0
    6.9737  -14.0615   25.3950 C   0  0  0  0  0  0  0  0  0  0  0  0
    6.5034  -15.3042   24.9884 C   0  0  0  0  0  0  0  0  0  0  0  0
    6.5841  -15.6916   23.6653 C   0  0  0  0  0  0  0  0  0  0  0  0
    6.0877  -17.0152   23.2137 C   0  0  0  0  0  0  0  0  0  0  0  0
    7.0193  -17.5453   22.1276 C   0  0  2  0  0  0  0  0  0  0  0  0
    6.4431  -18.8222   21.7069 N   0  0  0  0  0  0  0  0  0  0  0  0
    8.3532  -17.8125   22.7021 C   0  0  0  0  0  0  0  0  0  0  0  0
    8.4806  -18.4349   23.7676 O   0  0  0  0  0  0  0  0  0  0  0  0
    7.1410  -14.8154   22.7658 C   0  0  0  0  0  0  0  0  0  0  0  0
    7.6078  -13.5823   23.1687 C   0  0  0  0  0  0  0  0  0  0  0  0
    9.5627  -17.3754   22.0731 N   0  0  0  0  0  0  0  0  0  0  0  0
   10.8808  -17.6457   22.6154 C   0  0  1  0  0  0  0  0  0  0  0  0
   11.9706  -17.5189   21.6215 C   0  0  0  0  0  0  0  0  0  0  0  0
   13.3272  -17.8786   22.1471 C   0  0  0  0  0  0  0  0  0  0  0  0
   14.4106  -17.7502   21.1837 C   0  0  0  0  0  0  0  0  0  0  0  0
   14.6582  -16.6436   20.6522 O   0  0  0  0  0  0  0  0  0  0  0  0
   11.1038  -16.8684   23.8776 C   0  0  0  0  0  0  0  0  0  0  0  0
   11.1349  -15.6158   23.8840 O   0  0  0  0  0  0  0  0  0  0  0  0
   15.1836  -18.8348   20.8335 O   0  0  0  0  0  0  0  0  0  0  0  0
    9.4494  -13.4662   30.0421 C   0  0  0  0  0  0  0  0  0  0  0  0
    9.2828  -14.2019   28.4107 S   0  0  0  0  0  0  0  0  0  0  0  0
   10.6122  -15.3810   28.0679 C   0  0  0  0  0  0  0  0  0  0  0  0
   10.4462  -15.9601   26.6760 C   0  0  0  0  0  0  0  0  0  0  0  0
   11.5767  -16.9421   26.3704 C   0  0  2  0  0  0  0  0  0  0  0  0
   11.2856  -17.5559   25.1071 N   0  0  0  0  0  0  0  0  0  0  0  0
   11.6804  -17.9213   27.4755 C   0  0  0  0  0  0  0  0  0  0  0  0
   12.5898  -17.8259   28.3327 O   0  0  0  0  0  0  0  0  0  0  0  0
   10.7803  -18.9661   27.5937 O   0  0  0  0  0  0  0  0  0  0  0  0
  2  3  2  0
  2  1  1  0
  4  3  1  0
  5  4  2  0
  6  5  1  0
  7  9  1  0
  7  6  1  0
  7  8  1  1
  9 10  2  0
 11  5  1  0
 11 12  2  0
 12  2  1  0
 13 14  1  0
 13  9  1  0
 14 15  1  6
 15 16  1  0
 16 17  1  0
 17 21  1  0
 18 17  2  0
 19 20  2  0
 19 14  1  0
 22 23  1  0
 23 24  1  0
 24 25  1  0
 26 25  1  1
 26 27  1  0
 27 19  1  0
 28 26  1  0
 28 30  1  0
 29 28  2  0
M  END
$$$$
