YEM.pdb
     RDKit          3D

 30 30  0  0  1  0  0  0  0  0999 V2000
    5.2905  -10.1800   25.7094 O   0  0  0  0  0  0  0  0  0  0  0  0
    6.0068  -11.3716   25.6021 C   0  0  0  0  0  0  0  0  0  0  0  0
    5.6741  -12.4481   26.4080 C   0  0  0  0  0  0  0  0  0  0  0  0
    6.3695  -13.6482   26.3237 C   0  0  0  0  0  0  0  0  0  0  0  0
    7.4131  -13.7986   25.4317 C   0  0  0  0  0  0  0  0  0  0  0  0
    8.1672  -15.0725   25.3290 C   0  0  0  0  0  0  0  0  0  0  0  0
    7.4590  -15.9841   24.3309 C   0  0  2  0  0  0  0  0  0  0  0  0
    6.2800  -16.4911   25.0325 N   0  0  0  0  0  0  0  0  0  0  0  0
    8.3262  -17.1336   24.0036 C   0  0  0  0  0  0  0  0  0  0  0  0
    8.4431  -18.0922   24.7824 O   0  0  0  0  0  0  0  0  0  0  0  0
    7.7425  -12.7307   24.6329 C   0  0  0  0  0  0  0  0  0  0  0  0
    7.0528  -11.5398   24.7162 C   0  0  0  0  0  0  0  0  0  0  0  0
    9.0739  -17.2101   22.7851 N   0  0  0  0  0  0  0  0  0  0  0  0
   10.3335  -17.9209   22.6712 C   0  0  1  0  0  0  0  0  0  0  0  0
   10.8730  -17.9582   21.2931 C   0  0  0  0  0  0  0  0  0  0  0  0
   11.5467  -16.6908   20.8619 C   0  0  0  0  0  0  0  0  0  0  0  0
   12.0634  -16.7047   19.5014 C   0  0  0  0  0  0  0  0  0  0  0  0
   13.2505  -16.3788   19.2710 O   0  0  0  0  0  0  0  0  0  0  0  0
   11.3088  -17.4388   23.7024 C   0  0  0  0  0  0  0  0  0  0  0  0
   11.8711  -16.3230   23.6077 O   0  0  0  0  0  0  0  0  0  0  0  0
   11.2653  -17.0720   18.4408 O   0  0  0  0  0  0  0  0  0  0  0  0
   10.9715  -14.3383   30.1794 C   0  0  0  0  0  0  0  0  0  0  0  0
   10.4449  -14.9997   28.5934 S   0  0  0  0  0  0  0  0  0  0  0  0
   11.5636  -16.2934   28.0016 C   0  0  0  0  0  0  0  0  0  0  0  0
   11.1356  -16.7589   26.6231 C   0  0  0  0  0  0  0  0  0  0  0  0
   12.1225  -17.7922   26.0807 C   0  0  2  0  0  0  0  0  0  0  0  0
   11.6133  -18.2569   24.8228 N   0  0  0  0  0  0  0  0  0  0  0  0
   12.2820  -18.8783   27.0734 C   0  0  0  0  0  0  0  0  0  0  0  0
   11.5796  -19.9143   27.0078 O   0  0  0  0  0  0  0  0  0  0  0  0
   13.2071  -18.7818   28.0984 O   0  0  0  0  0  0  0  0  0  0  0  0
  2  3  2  0
  2  1  1  0
  4  3  1  0
  5  4  2  0
  6  5  1  0
  7  9  1  0
  7  6  1  0
  7  8  1  1
  9 10  2  0
 11  5  1  0
 11 12  2  0
 12  2  1  0
 13 14  1  0
 13  9  1  0
 14 15  1  6
 15 16  1  0
 16 17  1  0
 17 21  1  0
 18 17  2  0
 19 20  2  0
 19 14  1  0
 22 23  1  0
 23 24  1  0
 24 25  1  0
 26 25  1  1
 26 27  1  0
 27 19  1  0
 28 26  1  0
 28 30  1  0
 29 28  2  0
M  END
$$$$
