YEM.pdb
     RDKit          3D

 30 30  0  0  1  0  0  0  0  0999 V2000
    7.2384  -12.8762   15.1488 O   0  0  0  0  0  0  0  0  0  0  0  0
    7.3476  -13.3684   16.4489 C   0  0  0  0  0  0  0  0  0  0  0  0
    8.1346  -14.4808   16.6985 C   0  0  0  0  0  0  0  0  0  0  0  0
    8.2628  -14.9941   17.9834 C   0  0  0  0  0  0  0  0  0  0  0  0
    7.6069  -14.4065   19.0473 C   0  0  0  0  0  0  0  0  0  0  0  0
    7.7316  -14.9418   20.4258 C   0  0  0  0  0  0  0  0  0  0  0  0
    9.1800  -15.3604   20.6616 C   0  0  2  0  0  0  0  0  0  0  0  0
    9.4813  -16.3349   19.6133 N   0  0  0  0  0  0  0  0  0  0  0  0
    9.2957  -16.0417   21.9666 C   0  0  0  0  0  0  0  0  0  0  0  0
    8.6419  -15.6613   22.9499 O   0  0  0  0  0  0  0  0  0  0  0  0
    6.8266  -13.3036   18.7991 C   0  0  0  0  0  0  0  0  0  0  0  0
    6.6991  -12.7939   17.5244 C   0  0  0  0  0  0  0  0  0  0  0  0
   10.1571  -17.1665   22.1729 N   0  0  0  0  0  0  0  0  0  0  0  0
   10.4545  -17.7069   23.4859 C   0  0  1  0  0  0  0  0  0  0  0  0
   11.5196  -18.7350   23.4789 C   0  0  0  0  0  0  0  0  0  0  0  0
   11.8407  -19.2971   24.8305 C   0  0  0  0  0  0  0  0  0  0  0  0
   12.9312  -20.2608   24.8492 C   0  0  0  0  0  0  0  0  0  0  0  0
   12.7284  -21.4402   25.2185 O   0  0  0  0  0  0  0  0  0  0  0  0
   10.6698  -16.6028   24.4768 C   0  0  0  0  0  0  0  0  0  0  0  0
   11.1482  -15.4956   24.1368 O   0  0  0  0  0  0  0  0  0  0  0  0
   14.2045  -19.9022   24.4661 O   0  0  0  0  0  0  0  0  0  0  0  0
    7.3570  -11.3698   26.2822 C   0  0  0  0  0  0  0  0  0  0  0  0
    6.9590  -13.0589   26.7504 S   0  0  0  0  0  0  0  0  0  0  0  0
    8.4198  -13.9555   27.3314 C   0  0  0  0  0  0  0  0  0  0  0  0
    8.8295  -14.9981   26.3089 C   0  0  0  0  0  0  0  0  0  0  0  0
   10.0610  -15.7627   26.7933 C   0  0  2  0  0  0  0  0  0  0  0  0
   10.3266  -16.8015   25.8406 N   0  0  0  0  0  0  0  0  0  0  0  0
    9.8042  -16.2828   28.1550 C   0  0  0  0  0  0  0  0  0  0  0  0
    9.6467  -15.4996   29.1208 O   0  0  0  0  0  0  0  0  0  0  0  0
    9.7309  -17.6430   28.4003 O   0  0  0  0  0  0  0  0  0  0  0  0
  2  3  2  0
  2  1  1  0
  4  3  1  0
  5  4  2  0
  6  5  1  0
  7  9  1  0
  7  6  1  0
  7  8  1  6
  9 10  2  0
 11  5  1  0
 11 12  2  0
 12  2  1  0
 13 14  1  0
 13  9  1  0
 14 15  1  6
 15 16  1  0
 16 17  1  0
 17 21  1  0
 18 17  2  0
 19 20  2  0
 19 14  1  0
 22 23  1  0
 23 24  1  0
 24 25  1  0
 26 25  1  6
 26 27  1  0
 27 19  1  0
 28 26  1  0
 28 30  1  0
 29 28  2  0
M  END
$$$$
