YEM.pdb
     RDKit          3D

 30 30  0  0  1  0  0  0  0  0999 V2000
    8.8475  -12.0342   18.2851 O   0  0  0  0  0  0  0  0  0  0  0  0
    8.2430  -12.9363   19.1600 C   0  0  0  0  0  0  0  0  0  0  0  0
    7.5991  -14.0548   18.6569 C   0  0  0  0  0  0  0  0  0  0  0  0
    6.9878  -14.9713   19.5038 C   0  0  0  0  0  0  0  0  0  0  0  0
    7.0068  -14.7897   20.8728 C   0  0  0  0  0  0  0  0  0  0  0  0
    6.3585  -15.7576   21.7920 C   0  0  0  0  0  0  0  0  0  0  0  0
    6.9326  -17.1467   21.5282 C   0  0  2  0  0  0  0  0  0  0  0  0
    5.8179  -18.0738   21.7206 N   0  0  0  0  0  0  0  0  0  0  0  0
    7.9661  -17.4583   22.5358 C   0  0  0  0  0  0  0  0  0  0  0  0
    7.6591  -17.7456   23.7030 O   0  0  0  0  0  0  0  0  0  0  0  0
    7.6455  -13.6803   21.3710 C   0  0  0  0  0  0  0  0  0  0  0  0
    8.2521  -12.7707   20.5311 C   0  0  0  0  0  0  0  0  0  0  0  0
    9.3649  -17.4476   22.2311 N   0  0  0  0  0  0  0  0  0  0  0  0
   10.3982  -17.4727   23.2490 C   0  0  1  0  0  0  0  0  0  0  0  0
   11.7525  -17.7425   22.7155 C   0  0  0  0  0  0  0  0  0  0  0  0
   12.8118  -17.8789   23.7669 C   0  0  0  0  0  0  0  0  0  0  0  0
   14.1608  -18.0704   23.2553 C   0  0  0  0  0  0  0  0  0  0  0  0
   15.1509  -17.6888   23.9205 O   0  0  0  0  0  0  0  0  0  0  0  0
   10.3104  -16.2579   24.1230 C   0  0  0  0  0  0  0  0  0  0  0  0
   10.1844  -15.1075   23.6424 O   0  0  0  0  0  0  0  0  0  0  0  0
   14.3807  -18.6698   22.0351 O   0  0  0  0  0  0  0  0  0  0  0  0
    6.4534  -11.8471   28.4330 C   0  0  0  0  0  0  0  0  0  0  0  0
    6.8164  -13.1282   27.2257 S   0  0  0  0  0  0  0  0  0  0  0  0
    8.4874  -13.7914   27.4337 C   0  0  0  0  0  0  0  0  0  0  0  0
    8.7825  -14.8053   26.3451 C   0  0  0  0  0  0  0  0  0  0  0  0
   10.2085  -15.3369   26.4861 C   0  0  2  0  0  0  0  0  0  0  0  0
   10.3695  -16.3986   25.5350 N   0  0  0  0  0  0  0  0  0  0  0  0
   10.4260  -15.7774   27.8823 C   0  0  0  0  0  0  0  0  0  0  0  0
   10.5799  -16.9911   28.1545 O   0  0  0  0  0  0  0  0  0  0  0  0
   10.4656  -14.8659   28.9231 O   0  0  0  0  0  0  0  0  0  0  0  0
  2  3  2  0
  2  1  1  0
  4  3  1  0
  5  4  2  0
  6  5  1  0
  7  9  1  0
  7  6  1  0
  7  8  1  1
  9 10  2  0
 11  5  1  0
 11 12  2  0
 12  2  1  0
 13 14  1  0
 13  9  1  0
 14 15  1  6
 15 16  1  0
 16 17  1  0
 17 21  1  0
 18 17  2  0
 19 20  2  0
 19 14  1  0
 22 23  1  0
 23 24  1  0
 24 25  1  0
 26 25  1  1
 26 27  1  0
 27 19  1  0
 28 26  1  0
 28 30  1  0
 29 28  2  0
M  END
$$$$
