YEM.pdb
     RDKit          3D

 30 30  0  0  1  0  0  0  0  0999 V2000
   10.5467  -18.6453   29.8817 O   0  0  0  0  0  0  0  0  0  0  0  0
    9.6079  -18.7310   28.8542 C   0  0  0  0  0  0  0  0  0  0  0  0
    8.9573  -19.9306   28.6163 C   0  0  0  0  0  0  0  0  0  0  0  0
    8.0170  -20.0464   27.5997 C   0  0  0  0  0  0  0  0  0  0  0  0
    7.7063  -18.9653   26.7985 C   0  0  0  0  0  0  0  0  0  0  0  0
    6.7055  -19.0713   25.7079 C   0  0  0  0  0  0  0  0  0  0  0  0
    7.2254  -20.0476   24.6566 C   0  0  2  0  0  0  0  0  0  0  0  0
    7.8868  -21.1147   25.4068 N   0  0  0  0  0  0  0  0  0  0  0  0
    8.2409  -19.3813   23.8168 C   0  0  0  0  0  0  0  0  0  0  0  0
    9.4520  -19.4988   24.0588 O   0  0  0  0  0  0  0  0  0  0  0  0
    8.3518  -17.7761   27.0350 C   0  0  0  0  0  0  0  0  0  0  0  0
    9.2849  -17.6606   28.0434 C   0  0  0  0  0  0  0  0  0  0  0  0
    7.8943  -18.5708   22.6887 N   0  0  0  0  0  0  0  0  0  0  0  0
    8.8695  -17.8143   21.9264 C   0  0  1  0  0  0  0  0  0  0  0  0
    8.4540  -17.5431   20.5317 C   0  0  0  0  0  0  0  0  0  0  0  0
    8.2456  -18.7735   19.7018 C   0  0  0  0  0  0  0  0  0  0  0  0
    7.7776  -18.5253   18.3462 C   0  0  0  0  0  0  0  0  0  0  0  0
    6.5512  -18.5020   18.0935 O   0  0  0  0  0  0  0  0  0  0  0  0
    9.3087  -16.5990   22.6863 C   0  0  0  0  0  0  0  0  0  0  0  0
   10.1496  -15.7966   22.2182 O   0  0  0  0  0  0  0  0  0  0  0  0
    8.6649  -18.3135   17.3146 O   0  0  0  0  0  0  0  0  0  0  0  0
    6.3928  -11.2780   27.6135 C   0  0  0  0  0  0  0  0  0  0  0  0
    6.2341  -12.7951   26.6628 S   0  0  0  0  0  0  0  0  0  0  0  0
    7.8421  -13.4034   26.0974 C   0  0  0  0  0  0  0  0  0  0  0  0
    7.6587  -14.6563   25.2627 C   0  0  0  0  0  0  0  0  0  0  0  0
    9.0097  -15.1598   24.7557 C   0  0  2  0  0  0  0  0  0  0  0  0
    8.7657  -16.3362   23.9721 N   0  0  0  0  0  0  0  0  0  0  0  0
    9.8980  -15.4130   25.9122 C   0  0  0  0  0  0  0  0  0  0  0  0
   10.1050  -16.5809   26.3174 O   0  0  0  0  0  0  0  0  0  0  0  0
   10.5229  -14.3722   26.5769 O   0  0  0  0  0  0  0  0  0  0  0  0
  2  3  2  0
  2  1  1  0
  4  3  1  0
  5  4  2  0
  6  5  1  0
  7  9  1  0
  7  6  1  0
  7  8  1  1
  9 10  2  0
 11  5  1  0
 11 12  2  0
 12  2  1  0
 13 14  1  0
 13  9  1  0
 14 15  1  6
 15 16  1  0
 16 17  1  0
 17 21  1  0
 18 17  2  0
 19 20  2  0
 19 14  1  0
 22 23  1  0
 23 24  1  0
 24 25  1  0
 26 25  1  1
 26 27  1  0
 27 19  1  0
 28 26  1  0
 28 30  1  0
 29 28  2  0
M  END
$$$$
