YEM.pdb
     RDKit          3D

 30 30  0  0  1  0  0  0  0  0999 V2000
    7.0342  -13.0792   15.6431 O   0  0  0  0  0  0  0  0  0  0  0  0
    7.2035  -13.6335   16.9114 C   0  0  0  0  0  0  0  0  0  0  0  0
    7.1149  -15.0058   17.0789 C   0  0  0  0  0  0  0  0  0  0  0  0
    7.2791  -15.5870   18.3304 C   0  0  0  0  0  0  0  0  0  0  0  0
    7.5355  -14.8089   19.4422 C   0  0  0  0  0  0  0  0  0  0  0  0
    7.7125  -15.4126   20.7863 C   0  0  0  0  0  0  0  0  0  0  0  0
    9.0897  -15.0290   21.3201 C   0  0  2  0  0  0  0  0  0  0  0  0
   10.0393  -15.4473   20.2894 N   0  0  0  0  0  0  0  0  0  0  0  0
    9.3796  -15.7963   22.5480 C   0  0  0  0  0  0  0  0  0  0  0  0
    8.5614  -15.8517   23.4790 O   0  0  0  0  0  0  0  0  0  0  0  0
    7.6231  -13.4483   19.2755 C   0  0  0  0  0  0  0  0  0  0  0  0
    7.4603  -12.8711   18.0340 C   0  0  0  0  0  0  0  0  0  0  0  0
   10.6049  -16.5125   22.7357 N   0  0  0  0  0  0  0  0  0  0  0  0
   10.9993  -17.0895   24.0070 C   0  0  1  0  0  0  0  0  0  0  0  0
   12.2201  -17.9232   23.9289 C   0  0  0  0  0  0  0  0  0  0  0  0
   12.0987  -19.1077   23.0188 C   0  0  0  0  0  0  0  0  0  0  0  0
   13.3322  -19.8532   22.8169 C   0  0  0  0  0  0  0  0  0  0  0  0
   14.2499  -19.3801   22.1080 O   0  0  0  0  0  0  0  0  0  0  0  0
   11.0370  -16.0395   25.0762 C   0  0  0  0  0  0  0  0  0  0  0  0
   11.4199  -14.8702   24.8390 O   0  0  0  0  0  0  0  0  0  0  0  0
   13.5193  -21.0894   23.3944 O   0  0  0  0  0  0  0  0  0  0  0  0
    7.3966  -12.3723   25.8324 C   0  0  0  0  0  0  0  0  0  0  0  0
    7.5245  -12.4846   27.6217 S   0  0  0  0  0  0  0  0  0  0  0  0
    8.9080  -13.5345   28.1304 C   0  0  0  0  0  0  0  0  0  0  0  0
    9.2389  -14.5257   27.0312 C   0  0  0  0  0  0  0  0  0  0  0  0
   10.4033  -15.4204   27.4549 C   0  0  2  0  0  0  0  0  0  0  0  0
   10.6302  -16.3632   26.3979 N   0  0  0  0  0  0  0  0  0  0  0  0
   10.0724  -16.0692   28.7434 C   0  0  0  0  0  0  0  0  0  0  0  0
    9.6595  -17.2521   28.7775 O   0  0  0  0  0  0  0  0  0  0  0  0
   10.2088  -15.3917   29.9425 O   0  0  0  0  0  0  0  0  0  0  0  0
  2  3  2  0
  2  1  1  0
  4  3  1  0
  5  4  2  0
  6  5  1  0
  7  9  1  0
  7  6  1  0
  7  8  1  6
  9 10  2  0
 11  5  1  0
 11 12  2  0
 12  2  1  0
 13 14  1  0
 13  9  1  0
 14 15  1  6
 15 16  1  0
 16 17  1  0
 17 21  1  0
 18 17  2  0
 19 20  2  0
 19 14  1  0
 22 23  1  0
 23 24  1  0
 24 25  1  0
 26 25  1  6
 26 27  1  0
 27 19  1  0
 28 26  1  0
 28 30  1  0
 29 28  2  0
M  END
$$$$
