YEM.pdb
     RDKit          3D

 30 30  0  0  1  0  0  0  0  0999 V2000
    6.9083  -12.1966   17.8802 O   0  0  0  0  0  0  0  0  0  0  0  0
    7.3419  -12.9539   18.9679 C   0  0  0  0  0  0  0  0  0  0  0  0
    6.4123  -13.5336   19.8157 C   0  0  0  0  0  0  0  0  0  0  0  0
    6.8141  -14.2936   20.9074 C   0  0  0  0  0  0  0  0  0  0  0  0
    8.1545  -14.4910   21.1756 C   0  0  0  0  0  0  0  0  0  0  0  0
    8.6015  -15.2988   22.3375 C   0  0  0  0  0  0  0  0  0  0  0  0
    9.3232  -16.5414   21.8239 C   0  0  2  0  0  0  0  0  0  0  0  0
    8.2748  -17.4093   21.2881 N   0  0  0  0  0  0  0  0  0  0  0  0
    9.9677  -17.2447   22.9511 C   0  0  0  0  0  0  0  0  0  0  0  0
    9.3034  -17.6616   23.9123 O   0  0  0  0  0  0  0  0  0  0  0  0
    9.0757  -13.9159   20.3345 C   0  0  0  0  0  0  0  0  0  0  0  0
    8.6776  -13.1617   19.2512 C   0  0  0  0  0  0  0  0  0  0  0  0
   11.3783  -17.4846   23.0020 N   0  0  0  0  0  0  0  0  0  0  0  0
   12.0661  -17.9163   24.2040 C   0  0  1  0  0  0  0  0  0  0  0  0
   13.4594  -18.3565   23.9667 C   0  0  0  0  0  0  0  0  0  0  0  0
   13.6355  -19.2096   22.7471 C   0  0  0  0  0  0  0  0  0  0  0  0
   14.8118  -18.8996   21.9480 C   0  0  0  0  0  0  0  0  0  0  0  0
   14.6979  -18.6323   20.7299 O   0  0  0  0  0  0  0  0  0  0  0  0
   11.9186  -16.8973   25.2936 C   0  0  0  0  0  0  0  0  0  0  0  0
   12.2461  -15.6995   25.1251 O   0  0  0  0  0  0  0  0  0  0  0  0
   16.0705  -18.8944   22.5068 O   0  0  0  0  0  0  0  0  0  0  0  0
   10.1991  -11.7559   26.8614 C   0  0  0  0  0  0  0  0  0  0  0  0
    9.0948  -12.8735   27.7342 S   0  0  0  0  0  0  0  0  0  0  0  0
    9.9689  -14.3328   28.3522 C   0  0  0  0  0  0  0  0  0  0  0  0
   10.2462  -15.2933   27.2118 C   0  0  0  0  0  0  0  0  0  0  0  0
   11.1813  -16.4107   27.6732 C   0  0  2  0  0  0  0  0  0  0  0  0
   11.3945  -17.2843   26.5556 N   0  0  0  0  0  0  0  0  0  0  0  0
   10.5767  -17.1001   28.8351 C   0  0  0  0  0  0  0  0  0  0  0  0
   10.5078  -16.5339   29.9512 O   0  0  0  0  0  0  0  0  0  0  0  0
   10.0723  -18.3841   28.7233 O   0  0  0  0  0  0  0  0  0  0  0  0
  2  3  2  0
  2  1  1  0
  4  3  1  0
  5  4  2  0
  6  5  1  0
  7  9  1  0
  7  6  1  0
  7  8  1  1
  9 10  2  0
 11  5  1  0
 11 12  2  0
 12  2  1  0
 13 14  1  0
 13  9  1  0
 14 15  1  6
 15 16  1  0
 16 17  1  0
 17 21  1  0
 18 17  2  0
 19 20  2  0
 19 14  1  0
 22 23  1  0
 23 24  1  0
 24 25  1  0
 26 25  1  6
 26 27  1  0
 27 19  1  0
 28 26  1  0
 28 30  1  0
 29 28  2  0
M  END
$$$$
