WFV.pdb
     RDKit          3D

 33 35  0  0  1  0  0  0  0  0999 V2000
    7.3263  -18.8894   21.5060 N   0  0  0  0  0  0  0  0  0  0  0  0
    8.0390  -17.7298   21.0075 C   0  0  1  0  0  0  0  0  0  0  0  0
    7.1858  -16.9124   20.0637 C   0  0  0  0  0  0  0  0  0  0  0  0
    7.8914  -15.7692   19.4612 C   0  0  0  0  0  0  0  0  0  0  0  0
    8.6356  -15.7603   18.3002 C   0  0  0  0  0  0  0  0  0  0  0  0
    9.0869  -14.5063   18.1451 N   0  0  0  0  0  0  0  0  0  0  0  0
    8.6629  -13.7248   19.1520 C   0  0  0  0  0  0  0  0  0  0  0  0
    8.8694  -12.3741   19.4211 C   0  0  0  0  0  0  0  0  0  0  0  0
    8.2970  -11.8344   20.5531 C   0  0  0  0  0  0  0  0  0  0  0  0
    7.5380  -12.6156   21.3978 C   0  0  0  0  0  0  0  0  0  0  0  0
    7.3235  -13.9504   21.1481 C   0  0  0  0  0  0  0  0  0  0  0  0
    7.8953  -14.4955   20.0149 C   0  0  0  0  0  0  0  0  0  0  0  0
    8.3860  -16.8265   22.1396 C   0  0  0  0  0  0  0  0  0  0  0  0
    9.1612  -15.8585   21.9581 O   0  0  0  0  0  0  0  0  0  0  0  0
    7.8505  -17.0484   23.4196 N   0  0  0  0  0  0  0  0  0  0  0  0
    8.2895  -16.1643   24.5186 C   0  0  1  0  0  0  0  0  0  0  0  0
    7.0444  -15.5862   25.0865 C   0  0  0  0  0  0  0  0  0  0  0  0
    7.1920  -14.4936   26.0481 C   0  0  0  0  0  0  0  0  0  0  0  0
    6.6156  -13.2620   25.8165 C   0  0  0  0  0  0  0  0  0  0  0  0
    6.7147  -12.2210   26.7083 C   0  0  0  0  0  0  0  0  0  0  0  0
    7.4098  -12.3985   27.8772 C   0  0  0  0  0  0  0  0  0  0  0  0
    8.0052  -13.6186   28.1519 C   0  0  0  0  0  0  0  0  0  0  0  0
    7.8823  -14.6500   27.2224 C   0  0  0  0  0  0  0  0  0  0  0  0
    9.1576  -16.9483   25.3668 C   0  0  0  0  0  0  0  0  0  0  0  0
    8.7330  -18.0897   25.7706 O   0  0  0  0  0  0  0  0  0  0  0  0
   13.2787  -16.1021   26.4649 C   0  0  0  0  0  0  0  0  0  0  0  0
   12.7194  -17.4931   26.2711 C   0  0  2  0  0  0  0  0  0  0  0  0
   12.8577  -17.8561   24.8084 C   0  0  0  0  0  0  0  0  0  0  0  0
   11.2468  -17.5547   26.6321 C   0  0  2  0  0  0  0  0  0  0  0  0
   10.4618  -16.6384   25.8365 N   0  0  0  0  0  0  0  0  0  0  0  0
   11.1397  -17.1678   28.0531 C   0  0  0  0  0  0  0  0  0  0  0  0
   11.6238  -17.9318   29.1074 O   0  0  0  0  0  0  0  0  0  0  0  0
   10.5803  -16.0795   28.3997 O   0  0  0  0  0  0  0  0  0  0  0  0
  2  3  1  0
  2  1  1  1
  4  3  1  0
  5  4  2  0
  6  5  1  0
  7 12  2  0
  7  6  1  0
  8  7  1  0
  9  8  2  0
  9 10  1  0
 10 11  2  0
 11 12  1  0
 12  4  1  0
 13  2  1  0
 13 14  2  0
 15 13  1  0
 16 15  1  0
 16 17  1  1
 18 19  2  0
 18 17  1  0
 20 19  1  0
 21 20  2  0
 22 21  1  0
 22 23  2  0
 23 18  1  0
 24 16  1  0
 25 24  2  0
 27 28  1  6
 27 26  1  0
 29 27  1  0
 29 30  1  6
 30 24  1  0
 31 32  1  0
 31 29  1  0
 33 31  2  0
M  END
$$$$
