WFV.pdb
     RDKit          3D

 33 35  0  0  1  0  0  0  0  0999 V2000
    8.6393  -16.4902   20.0323 N   0  0  0  0  0  0  0  0  0  0  0  0
    9.7543  -15.5740   20.1673 C   0  0  1  0  0  0  0  0  0  0  0  0
    9.5676  -14.3372   19.3175 C   0  0  0  0  0  0  0  0  0  0  0  0
    9.2034  -14.6239   17.9199 C   0  0  0  0  0  0  0  0  0  0  0  0
    8.0040  -14.3564   17.2941 C   0  0  0  0  0  0  0  0  0  0  0  0
    8.1276  -14.7891   16.0301 N   0  0  0  0  0  0  0  0  0  0  0  0
    9.3468  -15.3161   15.8294 C   0  0  0  0  0  0  0  0  0  0  0  0
    9.9319  -15.8833   14.7000 C   0  0  0  0  0  0  0  0  0  0  0  0
   11.2262  -16.3486   14.7937 C   0  0  0  0  0  0  0  0  0  0  0  0
   11.9233  -16.2535   15.9790 C   0  0  0  0  0  0  0  0  0  0  0  0
   11.3618  -15.6968   17.1037 C   0  0  0  0  0  0  0  0  0  0  0  0
   10.0651  -15.2293   17.0144 C   0  0  0  0  0  0  0  0  0  0  0  0
    9.8482  -15.0986   21.5755 C   0  0  0  0  0  0  0  0  0  0  0  0
   10.7347  -14.2758   21.9047 O   0  0  0  0  0  0  0  0  0  0  0  0
    8.9476  -15.5652   22.5479 N   0  0  0  0  0  0  0  0  0  0  0  0
    8.7612  -14.7536   23.7680 C   0  0  1  0  0  0  0  0  0  0  0  0
    7.3118  -14.4313   23.8146 C   0  0  0  0  0  0  0  0  0  0  0  0
    6.8517  -13.5743   24.9074 C   0  0  0  0  0  0  0  0  0  0  0  0
    6.1579  -14.1002   25.9774 C   0  0  0  0  0  0  0  0  0  0  0  0
    5.7309  -13.3287   27.0316 C   0  0  0  0  0  0  0  0  0  0  0  0
    5.9975  -11.9833   27.0338 C   0  0  0  0  0  0  0  0  0  0  0  0
    6.6914  -11.4117   25.9801 C   0  0  0  0  0  0  0  0  0  0  0  0
    7.1077  -12.2275   24.9293 C   0  0  0  0  0  0  0  0  0  0  0  0
    9.3585  -15.4907   24.8577 C   0  0  0  0  0  0  0  0  0  0  0  0
    9.8731  -16.6368   24.5976 O   0  0  0  0  0  0  0  0  0  0  0  0
   10.8930  -13.6286   28.2720 C   0  0  0  0  0  0  0  0  0  0  0  0
   10.4579  -15.0627   28.4702 C   0  0  2  0  0  0  0  0  0  0  0  0
   11.5037  -15.7592   29.3137 C   0  0  0  0  0  0  0  0  0  0  0  0
   10.3555  -15.7998   27.1477 C   0  0  2  0  0  0  0  0  0  0  0  0
    9.4714  -15.1241   26.2254 N   0  0  0  0  0  0  0  0  0  0  0  0
    9.8046  -17.1369   27.4464 C   0  0  0  0  0  0  0  0  0  0  0  0
   10.5753  -18.2338   27.8098 O   0  0  0  0  0  0  0  0  0  0  0  0
    8.5547  -17.3637   27.3849 O   0  0  0  0  0  0  0  0  0  0  0  0
  2  3  1  0
  2  1  1  1
  4  3  1  0
  5  4  2  0
  6  5  1  0
  7 12  2  0
  7  6  1  0
  8  7  1  0
  9  8  2  0
  9 10  1  0
 10 11  2  0
 11 12  1  0
 12  4  1  0
 13  2  1  0
 13 14  2  0
 15 13  1  0
 16 15  1  0
 16 17  1  1
 18 19  2  0
 18 17  1  0
 20 19  1  0
 21 20  2  0
 22 21  1  0
 22 23  2  0
 23 18  1  0
 24 16  1  0
 25 24  2  0
 27 28  1  1
 27 26  1  0
 29 27  1  0
 29 30  1  6
 30 24  1  0
 31 32  1  0
 31 29  1  0
 33 31  2  0
M  END
$$$$
