WFV.pdb
     RDKit          3D

 33 35  0  0  1  0  0  0  0  0999 V2000
    6.4443  -20.8097   25.2836 N   0  0  0  0  0  0  0  0  0  0  0  0
    6.9130  -19.7570   26.1629 C   0  0  1  0  0  0  0  0  0  0  0  0
    8.2691  -20.0802   26.7486 C   0  0  0  0  0  0  0  0  0  0  0  0
    8.6238  -19.2601   27.9188 C   0  0  0  0  0  0  0  0  0  0  0  0
    8.2091  -19.4352   29.2223 C   0  0  0  0  0  0  0  0  0  0  0  0
    8.7804  -18.4559   29.9399 N   0  0  0  0  0  0  0  0  0  0  0  0
    9.5349  -17.6725   29.1516 C   0  0  0  0  0  0  0  0  0  0  0  0
   10.3084  -16.5499   29.4359 C   0  0  0  0  0  0  0  0  0  0  0  0
   10.9877  -15.9408   28.4025 C   0  0  0  0  0  0  0  0  0  0  0  0
   10.9018  -16.4334   27.1180 C   0  0  0  0  0  0  0  0  0  0  0  0
   10.1433  -17.5403   26.8189 C   0  0  0  0  0  0  0  0  0  0  0  0
    9.4609  -18.1539   27.8514 C   0  0  0  0  0  0  0  0  0  0  0  0
    7.0852  -18.4951   25.3910 C   0  0  0  0  0  0  0  0  0  0  0  0
    7.4418  -18.5352   24.1900 O   0  0  0  0  0  0  0  0  0  0  0  0
    6.8512  -17.2496   25.9979 N   0  0  0  0  0  0  0  0  0  0  0  0
    6.9902  -16.0357   25.1677 C   0  0  1  0  0  0  0  0  0  0  0  0
    6.3600  -14.9425   25.9517 C   0  0  0  0  0  0  0  0  0  0  0  0
    6.5793  -13.5730   25.4862 C   0  0  0  0  0  0  0  0  0  0  0  0
    7.4025  -13.3127   24.4103 C   0  0  0  0  0  0  0  0  0  0  0  0
    7.6130  -12.0415   23.9323 C   0  0  0  0  0  0  0  0  0  0  0  0
    6.9877  -10.9815   24.5376 C   0  0  0  0  0  0  0  0  0  0  0  0
    6.1522  -11.1955   25.6214 C   0  0  0  0  0  0  0  0  0  0  0  0
    5.9641  -12.4995   26.0768 C   0  0  0  0  0  0  0  0  0  0  0  0
    8.3847  -15.9336   24.8037 C   0  0  0  0  0  0  0  0  0  0  0  0
    9.2614  -16.1560   25.7136 O   0  0  0  0  0  0  0  0  0  0  0  0
    9.7857  -16.5388   20.8175 C   0  0  0  0  0  0  0  0  0  0  0  0
   10.6092  -15.6601   21.7313 C   0  0  2  0  0  0  0  0  0  0  0  0
   12.0712  -15.9583   21.4785 C   0  0  0  0  0  0  0  0  0  0  0  0
   10.3174  -15.9503   23.1919 C   0  0  2  0  0  0  0  0  0  0  0  0
    8.9556  -15.6165   23.5422 N   0  0  0  0  0  0  0  0  0  0  0  0
   11.2357  -15.1090   23.9854 C   0  0  0  0  0  0  0  0  0  0  0  0
   12.3726  -15.5858   24.6253 O   0  0  0  0  0  0  0  0  0  0  0  0
   11.0285  -13.8627   24.1307 O   0  0  0  0  0  0  0  0  0  0  0  0
  2  3  1  0
  2  1  1  6
  4  3  1  0
  5  4  2  0
  6  5  1  0
  7 12  2  0
  7  6  1  0
  8  7  1  0
  9  8  2  0
  9 10  1  0
 10 11  2  0
 11 12  1  0
 12  4  1  0
 13  2  1  0
 13 14  2  0
 15 13  1  0
 16 15  1  0
 16 17  1  1
 18 19  2  0
 18 17  1  0
 20 19  1  0
 21 20  2  0
 22 21  1  0
 22 23  2  0
 23 18  1  0
 24 16  1  0
 25 24  2  0
 27 28  1  1
 27 26  1  0
 29 27  1  0
 29 30  1  1
 30 24  1  0
 31 32  1  0
 31 29  1  0
 33 31  2  0
M  END
$$$$
