WFV.pdb
     RDKit          3D

 33 35  0  0  1  0  0  0  0  0999 V2000
    7.4229  -19.1630   20.9916 N   0  0  0  0  0  0  0  0  0  0  0  0
    7.2072  -18.9663   22.4114 C   0  0  1  0  0  0  0  0  0  0  0  0
    7.9854  -19.9646   23.2386 C   0  0  0  0  0  0  0  0  0  0  0  0
    7.1482  -20.7711   24.1423 C   0  0  0  0  0  0  0  0  0  0  0  0
    6.2482  -21.7567   23.7952 C   0  0  0  0  0  0  0  0  0  0  0  0
    5.7202  -22.2129   24.9412 N   0  0  0  0  0  0  0  0  0  0  0  0
    6.2441  -21.5625   25.9933 C   0  0  0  0  0  0  0  0  0  0  0  0
    6.0133  -21.6846   27.3613 C   0  0  0  0  0  0  0  0  0  0  0  0
    6.7132  -20.8658   28.2216 C   0  0  0  0  0  0  0  0  0  0  0  0
    7.6201  -19.9481   27.7368 C   0  0  0  0  0  0  0  0  0  0  0  0
    7.8607  -19.8136   26.3898 C   0  0  0  0  0  0  0  0  0  0  0  0
    7.1616  -20.6321   25.5241 C   0  0  0  0  0  0  0  0  0  0  0  0
    7.7009  -17.6203   22.8143 C   0  0  0  0  0  0  0  0  0  0  0  0
    8.7507  -17.1574   22.3095 O   0  0  0  0  0  0  0  0  0  0  0  0
    6.9984  -16.8564   23.7616 N   0  0  0  0  0  0  0  0  0  0  0  0
    7.6637  -15.6627   24.3223 C   0  0  1  0  0  0  0  0  0  0  0  0
    6.5768  -14.6814   24.5724 C   0  0  0  0  0  0  0  0  0  0  0  0
    6.9155  -13.4930   25.3556 C   0  0  0  0  0  0  0  0  0  0  0  0
    6.3218  -13.2561   26.5780 C   0  0  0  0  0  0  0  0  0  0  0  0
    6.6328  -12.1627   27.3503 C   0  0  0  0  0  0  0  0  0  0  0  0
    7.5671  -11.2643   26.9017 C   0  0  0  0  0  0  0  0  0  0  0  0
    8.1889  -11.4617   25.6800 C   0  0  0  0  0  0  0  0  0  0  0  0
    7.8465  -12.5828   24.9258 C   0  0  0  0  0  0  0  0  0  0  0  0
    8.4773  -16.1157   25.4271 C   0  0  0  0  0  0  0  0  0  0  0  0
    7.9004  -16.7628   26.3729 O   0  0  0  0  0  0  0  0  0  0  0  0
   12.7946  -15.8086   25.7976 C   0  0  0  0  0  0  0  0  0  0  0  0
   12.0012  -17.0307   26.2005 C   0  0  2  0  0  0  0  0  0  0  0  0
   11.8724  -17.9283   24.9889 C   0  0  0  0  0  0  0  0  0  0  0  0
   10.6033  -16.6590   26.6592 C   0  0  2  0  0  0  0  0  0  0  0  0
    9.8733  -15.9516   25.6319 N   0  0  0  0  0  0  0  0  0  0  0  0
   10.7604  -15.7737   27.8306 C   0  0  0  0  0  0  0  0  0  0  0  0
   11.2293  -16.1950   29.0683 O   0  0  0  0  0  0  0  0  0  0  0  0
   10.4651  -14.5383   27.7676 O   0  0  0  0  0  0  0  0  0  0  0  0
  2  3  1  0
  2  1  1  6
  4  3  1  0
  5  4  2  0
  6  5  1  0
  7 12  2  0
  7  6  1  0
  8  7  1  0
  9  8  2  0
  9 10  1  0
 10 11  2  0
 11 12  1  0
 12  4  1  0
 13  2  1  0
 13 14  2  0
 15 13  1  0
 16 15  1  0
 16 17  1  1
 18 19  2  0
 18 17  1  0
 20 19  1  0
 21 20  2  0
 22 21  1  0
 22 23  2  0
 23 18  1  0
 24 16  1  0
 25 24  2  0
 27 28  1  6
 27 26  1  0
 29 27  1  0
 29 30  1  6
 30 24  1  0
 31 32  1  0
 31 29  1  0
 33 31  2  0
M  END
$$$$
