WFV.pdb
     RDKit          3D

 33 35  0  0  1  0  0  0  0  0999 V2000
   11.1823  -17.0924   19.9018 N   0  0  0  0  0  0  0  0  0  0  0  0
   10.7935  -17.6373   21.1875 C   0  0  1  0  0  0  0  0  0  0  0  0
   11.9102  -18.4410   21.8148 C   0  0  0  0  0  0  0  0  0  0  0  0
   12.1941  -19.7087   21.1217 C   0  0  0  0  0  0  0  0  0  0  0  0
   13.1176  -19.9290   20.1215 C   0  0  0  0  0  0  0  0  0  0  0  0
   13.0259  -21.2274   19.7960 N   0  0  0  0  0  0  0  0  0  0  0  0
   12.0896  -21.8356   20.5427 C   0  0  0  0  0  0  0  0  0  0  0  0
   11.6436  -23.1547   20.5682 C   0  0  0  0  0  0  0  0  0  0  0  0
   10.6492  -23.4953   21.4602 C   0  0  0  0  0  0  0  0  0  0  0  0
   10.1103  -22.5502   22.3066 C   0  0  0  0  0  0  0  0  0  0  0  0
   10.5381  -21.2437   22.2954 C   0  0  0  0  0  0  0  0  0  0  0  0
   11.5343  -20.8980   21.4031 C   0  0  0  0  0  0  0  0  0  0  0  0
   10.4980  -16.5281   22.1363 C   0  0  0  0  0  0  0  0  0  0  0  0
   11.2032  -15.4919   22.1330 O   0  0  0  0  0  0  0  0  0  0  0  0
    9.4293  -16.6300   23.0429 N   0  0  0  0  0  0  0  0  0  0  0  0
    9.1285  -15.4619   23.8956 C   0  0  1  0  0  0  0  0  0  0  0  0
    7.6679  -15.2303   23.7533 C   0  0  0  0  0  0  0  0  0  0  0  0
    7.0701  -14.1922   24.5930 C   0  0  0  0  0  0  0  0  0  0  0  0
    6.1964  -14.5178   25.6095 C   0  0  0  0  0  0  0  0  0  0  0  0
    5.6344  -13.5708   26.4318 C   0  0  0  0  0  0  0  0  0  0  0  0
    5.9447  -12.2476   26.2467 C   0  0  0  0  0  0  0  0  0  0  0  0
    6.8174  -11.8742   25.2381 C   0  0  0  0  0  0  0  0  0  0  0  0
    7.3668  -12.8642   24.4250 C   0  0  0  0  0  0  0  0  0  0  0  0
    9.6772  -15.7434   25.2022 C   0  0  0  0  0  0  0  0  0  0  0  0
    9.7060  -16.9656   25.5915 O   0  0  0  0  0  0  0  0  0  0  0  0
   10.8345  -12.8381   28.1348 C   0  0  0  0  0  0  0  0  0  0  0  0
   10.2700  -14.1864   28.5204 C   0  0  2  0  0  0  0  0  0  0  0  0
   10.8958  -14.5999   29.8348 C   0  0  0  0  0  0  0  0  0  0  0  0
   10.6067  -15.2455   27.4872 C   0  0  2  0  0  0  0  0  0  0  0  0
   10.2146  -14.8392   26.1569 N   0  0  0  0  0  0  0  0  0  0  0  0
    9.8520  -16.4590   27.8592 C   0  0  0  0  0  0  0  0  0  0  0  0
   10.3971  -17.5351   28.5478 O   0  0  0  0  0  0  0  0  0  0  0  0
    8.6230  -16.5888   27.5592 O   0  0  0  0  0  0  0  0  0  0  0  0
  2  3  1  0
  2  1  1  6
  4  3  1  0
  5  4  2  0
  6  5  1  0
  7 12  2  0
  7  6  1  0
  8  7  1  0
  9  8  2  0
  9 10  1  0
 10 11  2  0
 11 12  1  0
 12  4  1  0
 13  2  1  0
 13 14  2  0
 15 13  1  0
 16 15  1  0
 16 17  1  1
 18 19  2  0
 18 17  1  0
 20 19  1  0
 21 20  2  0
 22 21  1  0
 22 23  2  0
 23 18  1  0
 24 16  1  0
 25 24  2  0
 27 28  1  1
 27 26  1  0
 29 27  1  0
 29 30  1  6
 30 24  1  0
 31 32  1  0
 31 29  1  0
 33 31  2  0
M  END
$$$$
