WFV.pdb
     RDKit          3D

 33 35  0  0  1  0  0  0  0  0999 V2000
    7.9280  -16.8089   21.8511 N   0  0  0  0  0  0  0  0  0  0  0  0
    8.7472  -15.6529   22.1569 C   0  0  1  0  0  0  0  0  0  0  0  0
    8.0070  -14.3595   21.8998 C   0  0  0  0  0  0  0  0  0  0  0  0
    7.6825  -14.1303   20.4821 C   0  0  0  0  0  0  0  0  0  0  0  0
    6.5458  -14.5239   19.8077 C   0  0  0  0  0  0  0  0  0  0  0  0
    6.6859  -14.0999   18.5425 N   0  0  0  0  0  0  0  0  0  0  0  0
    7.8556  -13.4582   18.3872 C   0  0  0  0  0  0  0  0  0  0  0  0
    8.4344  -12.8516   17.2752 C   0  0  0  0  0  0  0  0  0  0  0  0
    9.6705  -12.2585   17.4188 C   0  0  0  0  0  0  0  0  0  0  0  0
   10.3169  -12.2668   18.6361 C   0  0  0  0  0  0  0  0  0  0  0  0
    9.7610  -12.8608   19.7444 C   0  0  0  0  0  0  0  0  0  0  0  0
    8.5224  -13.4563   19.6050 C   0  0  0  0  0  0  0  0  0  0  0  0
    9.0946  -15.6504   23.6050 C   0  0  0  0  0  0  0  0  0  0  0  0
    9.9921  -14.8889   24.0361 O   0  0  0  0  0  0  0  0  0  0  0  0
    8.4231  -16.4987   24.5016 N   0  0  0  0  0  0  0  0  0  0  0  0
    8.8252  -16.4652   25.9226 C   0  0  1  0  0  0  0  0  0  0  0  0
    7.6224  -16.0105   26.6665 C   0  0  0  0  0  0  0  0  0  0  0  0
    7.4431  -14.5679   26.8310 C   0  0  0  0  0  0  0  0  0  0  0  0
    6.2835  -13.9455   26.4178 C   0  0  0  0  0  0  0  0  0  0  0  0
    6.0722  -12.5969   26.5775 C   0  0  0  0  0  0  0  0  0  0  0  0
    7.0420  -11.8279   27.1685 C   0  0  0  0  0  0  0  0  0  0  0  0
    8.2227  -12.4102   27.5989 C   0  0  0  0  0  0  0  0  0  0  0  0
    8.3996  -13.7812   27.4192 C   0  0  0  0  0  0  0  0  0  0  0  0
    9.4006  -17.7552   26.2265 C   0  0  0  0  0  0  0  0  0  0  0  0
    8.7647  -18.8022   25.8447 O   0  0  0  0  0  0  0  0  0  0  0  0
   12.9691  -19.1550   25.4839 C   0  0  0  0  0  0  0  0  0  0  0  0
   12.5822  -19.5137   26.9005 C   0  0  2  0  0  0  0  0  0  0  0  0
   12.9849  -20.9514   27.1483 C   0  0  0  0  0  0  0  0  0  0  0  0
   11.0836  -19.4036   27.1118 C   0  0  2  0  0  0  0  0  0  0  0  0
   10.6119  -18.0531   26.9060 N   0  0  0  0  0  0  0  0  0  0  0  0
   10.8205  -19.7945   28.5113 C   0  0  0  0  0  0  0  0  0  0  0  0
   10.5731  -21.0979   28.9228 O   0  0  0  0  0  0  0  0  0  0  0  0
   10.8055  -18.9314   29.4452 O   0  0  0  0  0  0  0  0  0  0  0  0
  2  3  1  0
  2  1  1  1
  4  3  1  0
  5  4  2  0
  6  5  1  0
  7 12  2  0
  7  6  1  0
  8  7  1  0
  9  8  2  0
  9 10  1  0
 10 11  2  0
 11 12  1  0
 12  4  1  0
 13  2  1  0
 13 14  2  0
 15 13  1  0
 16 15  1  0
 16 17  1  1
 18 19  2  0
 18 17  1  0
 20 19  1  0
 21 20  2  0
 22 21  1  0
 22 23  2  0
 23 18  1  0
 24 16  1  0
 25 24  2  0
 27 28  1  6
 27 26  1  0
 29 27  1  0
 29 30  1  1
 30 24  1  0
 31 32  1  0
 31 29  1  0
 33 31  2  0
M  END
$$$$
