WFV.pdb
     RDKit          3D

 33 35  0  0  1  0  0  0  0  0999 V2000
    8.0159  -15.2884   19.5494 N   0  0  0  0  0  0  0  0  0  0  0  0
    8.3576  -16.3362   20.4908 C   0  0  1  0  0  0  0  0  0  0  0  0
    9.3422  -17.3198   19.8993 C   0  0  0  0  0  0  0  0  0  0  0  0
    8.7085  -18.4491   19.1987 C   0  0  0  0  0  0  0  0  0  0  0  0
    7.9284  -18.3998   18.0625 C   0  0  0  0  0  0  0  0  0  0  0  0
    7.5719  -19.6640   17.7886 N   0  0  0  0  0  0  0  0  0  0  0  0
    8.0896  -20.5071   18.6971 C   0  0  0  0  0  0  0  0  0  0  0  0
    7.9989  -21.8906   18.8285 C   0  0  0  0  0  0  0  0  0  0  0  0
    8.6498  -22.4948   19.8828 C   0  0  0  0  0  0  0  0  0  0  0  0
    9.3734  -21.7449   20.7849 C   0  0  0  0  0  0  0  0  0  0  0  0
    9.4740  -20.3785   20.6709 C   0  0  0  0  0  0  0  0  0  0  0  0
    8.8232  -19.7688   19.6160 C   0  0  0  0  0  0  0  0  0  0  0  0
    9.0279  -15.7446   21.6818 C   0  0  0  0  0  0  0  0  0  0  0  0
    9.9686  -14.9293   21.5349 O   0  0  0  0  0  0  0  0  0  0  0  0
    8.6154  -16.0924   22.9792 N   0  0  0  0  0  0  0  0  0  0  0  0
    9.2957  -15.4468   24.1205 C   0  0  1  0  0  0  0  0  0  0  0  0
    8.2304  -15.1825   25.1217 C   0  0  0  0  0  0  0  0  0  0  0  0
    8.6573  -14.8002   26.4677 C   0  0  0  0  0  0  0  0  0  0  0  0
    8.8859  -15.7544   27.4372 C   0  0  0  0  0  0  0  0  0  0  0  0
    9.3094  -15.4326   28.7045 C   0  0  0  0  0  0  0  0  0  0  0  0
    9.5169  -14.1171   29.0322 C   0  0  0  0  0  0  0  0  0  0  0  0
    9.2999  -13.1249   28.0905 C   0  0  0  0  0  0  0  0  0  0  0  0
    8.8706  -13.4913   26.8160 C   0  0  0  0  0  0  0  0  0  0  0  0
   10.4101  -16.2938   24.4785 C   0  0  0  0  0  0  0  0  0  0  0  0
   10.1941  -17.5528   24.5990 O   0  0  0  0  0  0  0  0  0  0  0  0
   14.0310  -16.3010   22.8547 C   0  0  0  0  0  0  0  0  0  0  0  0
   14.1278  -16.4638   24.3545 C   0  0  2  0  0  0  0  0  0  0  0  0
   15.1544  -17.5370   24.6457 C   0  0  0  0  0  0  0  0  0  0  0  0
   12.8048  -16.9062   24.9517 C   0  0  2  0  0  0  0  0  0  0  0  0
   11.7619  -15.9322   24.7228 N   0  0  0  0  0  0  0  0  0  0  0  0
   13.0190  -17.0454   26.4061 C   0  0  0  0  0  0  0  0  0  0  0  0
   13.6092  -18.1513   27.0044 O   0  0  0  0  0  0  0  0  0  0  0  0
   12.6629  -16.1313   27.2154 O   0  0  0  0  0  0  0  0  0  0  0  0
  2  3  1  0
  2  1  1  6
  4  3  1  0
  5  4  2  0
  6  5  1  0
  7 12  2  0
  7  6  1  0
  8  7  1  0
  9  8  2  0
  9 10  1  0
 10 11  2  0
 11 12  1  0
 12  4  1  0
 13  2  1  0
 13 14  2  0
 15 13  1  0
 16 15  1  0
 16 17  1  1
 18 19  2  0
 18 17  1  0
 20 19  1  0
 21 20  2  0
 22 21  1  0
 22 23  2  0
 23 18  1  0
 24 16  1  0
 25 24  2  0
 27 28  1  6
 27 26  1  0
 29 27  1  0
 29 30  1  1
 30 24  1  0
 31 32  1  0
 31 29  1  0
 33 31  2  0
M  END
$$$$
