WFV.pdb
     RDKit          3D

 33 35  0  0  1  0  0  0  0  0999 V2000
   10.7912  -16.5634   19.5006 N   0  0  0  0  0  0  0  0  0  0  0  0
   10.6890  -17.1899   20.8037 C   0  0  1  0  0  0  0  0  0  0  0  0
   12.0001  -17.8113   21.2296 C   0  0  0  0  0  0  0  0  0  0  0  0
   11.8598  -19.1529   21.8198 C   0  0  0  0  0  0  0  0  0  0  0  0
   11.1122  -20.2069   21.3383 C   0  0  0  0  0  0  0  0  0  0  0  0
   11.2845  -21.2222   22.1984 N   0  0  0  0  0  0  0  0  0  0  0  0
   12.1045  -20.8588   23.1984 C   0  0  0  0  0  0  0  0  0  0  0  0
   12.5725  -21.5584   24.3078 C   0  0  0  0  0  0  0  0  0  0  0  0
   13.4214  -20.9133   25.1817 C   0  0  0  0  0  0  0  0  0  0  0  0
   13.7971  -19.6057   24.9603 C   0  0  0  0  0  0  0  0  0  0  0  0
   13.3450  -18.8996   23.8707 C   0  0  0  0  0  0  0  0  0  0  0  0
   12.4942  -19.5422   22.9924 C   0  0  0  0  0  0  0  0  0  0  0  0
   10.3638  -16.1632   21.8323 C   0  0  0  0  0  0  0  0  0  0  0  0
   10.9125  -15.0369   21.7934 O   0  0  0  0  0  0  0  0  0  0  0  0
    9.4418  -16.4442   22.8547 N   0  0  0  0  0  0  0  0  0  0  0  0
    9.1264  -15.3710   23.8195 C   0  0  1  0  0  0  0  0  0  0  0  0
    7.6756  -15.0987   23.6524 C   0  0  0  0  0  0  0  0  0  0  0  0
    7.0782  -14.0926   24.5306 C   0  0  0  0  0  0  0  0  0  0  0  0
    6.2003  -14.4554   25.5308 C   0  0  0  0  0  0  0  0  0  0  0  0
    5.6385  -13.5398   26.3881 C   0  0  0  0  0  0  0  0  0  0  0  0
    5.9532  -12.2114   26.2562 C   0  0  0  0  0  0  0  0  0  0  0  0
    6.8302  -11.8011   25.2658 C   0  0  0  0  0  0  0  0  0  0  0  0
    7.3793  -12.7599   24.4160 C   0  0  0  0  0  0  0  0  0  0  0  0
    9.6226  -15.8036   25.1056 C   0  0  0  0  0  0  0  0  0  0  0  0
    9.7822  -17.0623   25.2961 O   0  0  0  0  0  0  0  0  0  0  0  0
    9.0787  -14.2432   28.9646 C   0  0  0  0  0  0  0  0  0  0  0  0
   10.4997  -14.6024   28.5944 C   0  0  2  0  0  0  0  0  0  0  0  0
   11.2062  -13.3371   28.1583 C   0  0  0  0  0  0  0  0  0  0  0  0
   10.5410  -15.5846   27.4384 C   0  0  2  0  0  0  0  0  0  0  0  0
    9.9787  -15.0175   26.2339 N   0  0  0  0  0  0  0  0  0  0  0  0
    9.7310  -16.7516   27.8415 C   0  0  0  0  0  0  0  0  0  0  0  0
   10.1636  -17.7329   28.7243 O   0  0  0  0  0  0  0  0  0  0  0  0
    8.5562  -16.9272   27.3873 O   0  0  0  0  0  0  0  0  0  0  0  0
  2  3  1  0
  2  1  1  6
  4  3  1  0
  5  4  2  0
  6  5  1  0
  7 12  2  0
  7  6  1  0
  8  7  1  0
  9  8  2  0
  9 10  1  0
 10 11  2  0
 11 12  1  0
 12  4  1  0
 13  2  1  0
 13 14  2  0
 15 13  1  0
 16 15  1  0
 16 17  1  1
 18 19  2  0
 18 17  1  0
 20 19  1  0
 21 20  2  0
 22 21  1  0
 22 23  2  0
 23 18  1  0
 24 16  1  0
 25 24  2  0
 27 28  1  6
 27 26  1  0
 29 27  1  0
 29 30  1  6
 30 24  1  0
 31 32  1  0
 31 29  1  0
 33 31  2  0
M  END
$$$$
