WFV.pdb
     RDKit          3D

 33 35  0  0  1  0  0  0  0  0999 V2000
    9.8544  -16.5707   19.7257 N   0  0  0  0  0  0  0  0  0  0  0  0
    8.9781  -16.9983   20.7981 C   0  0  1  0  0  0  0  0  0  0  0  0
    9.2539  -18.4272   21.2092 C   0  0  0  0  0  0  0  0  0  0  0  0
    8.4328  -19.4211   20.4979 C   0  0  0  0  0  0  0  0  0  0  0  0
    7.0565  -19.4967   20.4564 C   0  0  0  0  0  0  0  0  0  0  0  0
    6.7549  -20.5575   19.6921 N   0  0  0  0  0  0  0  0  0  0  0  0
    7.8746  -21.1535   19.2501 C   0  0  0  0  0  0  0  0  0  0  0  0
    8.0670  -22.2698   18.4399 C   0  0  0  0  0  0  0  0  0  0  0  0
    9.3579  -22.6554   18.1477 C   0  0  0  0  0  0  0  0  0  0  0  0
   10.4320  -21.9506   18.6471 C   0  0  0  0  0  0  0  0  0  0  0  0
   10.2611  -20.8465   19.4483 C   0  0  0  0  0  0  0  0  0  0  0  0
    8.9693  -20.4566   19.7437 C   0  0  0  0  0  0  0  0  0  0  0  0
    9.2194  -16.1651   22.0086 C   0  0  0  0  0  0  0  0  0  0  0  0
   10.3753  -15.7594   22.2737 O   0  0  0  0  0  0  0  0  0  0  0  0
    8.1580  -15.8256   22.8645 N   0  0  0  0  0  0  0  0  0  0  0  0
    8.4630  -15.0141   24.0606 C   0  0  1  0  0  0  0  0  0  0  0  0
    7.2207  -14.2539   24.3536 C   0  0  0  0  0  0  0  0  0  0  0  0
    7.1757  -13.5039   25.6089 C   0  0  0  0  0  0  0  0  0  0  0  0
    7.6672  -14.0470   26.7778 C   0  0  0  0  0  0  0  0  0  0  0  0
    7.6617  -13.3624   27.9695 C   0  0  0  0  0  0  0  0  0  0  0  0
    7.1515  -12.0900   28.0137 C   0  0  0  0  0  0  0  0  0  0  0  0
    6.6470  -11.5045   26.8643 C   0  0  0  0  0  0  0  0  0  0  0  0
    6.6702  -12.2311   25.6750 C   0  0  0  0  0  0  0  0  0  0  0  0
    8.9927  -15.9169   25.0565 C   0  0  0  0  0  0  0  0  0  0  0  0
    8.3058  -16.9604   25.3482 O   0  0  0  0  0  0  0  0  0  0  0  0
   12.4222  -17.6224   24.9945 C   0  0  0  0  0  0  0  0  0  0  0  0
   12.1623  -17.1671   26.4124 C   0  0  2  0  0  0  0  0  0  0  0  0
   12.5765  -18.2823   27.3478 C   0  0  0  0  0  0  0  0  0  0  0  0
   10.6896  -16.8839   26.6436 C   0  0  2  0  0  0  0  0  0  0  0  0
   10.2073  -15.8243   25.7872 N   0  0  0  0  0  0  0  0  0  0  0  0
   10.5528  -16.4610   28.0518 C   0  0  0  0  0  0  0  0  0  0  0  0
   10.3814  -17.3376   29.1156 O   0  0  0  0  0  0  0  0  0  0  0  0
   10.5852  -15.2320   28.3772 O   0  0  0  0  0  0  0  0  0  0  0  0
  2  3  1  0
  2  1  1  6
  4  3  1  0
  5  4  2  0
  6  5  1  0
  7 12  2  0
  7  6  1  0
  8  7  1  0
  9  8  2  0
  9 10  1  0
 10 11  2  0
 11 12  1  0
 12  4  1  0
 13  2  1  0
 13 14  2  0
 15 13  1  0
 16 15  1  0
 16 17  1  1
 18 19  2  0
 18 17  1  0
 20 19  1  0
 21 20  2  0
 22 21  1  0
 22 23  2  0
 23 18  1  0
 24 16  1  0
 25 24  2  0
 27 28  1  1
 27 26  1  0
 29 27  1  0
 29 30  1  6
 30 24  1  0
 31 32  1  0
 31 29  1  0
 33 31  2  0
M  END
$$$$
