WFV.pdb
     RDKit          3D

 33 35  0  0  1  0  0  0  0  0999 V2000
    5.6855  -19.9606   21.9050 N   0  0  0  0  0  0  0  0  0  0  0  0
    6.0296  -19.6069   23.2680 C   0  0  1  0  0  0  0  0  0  0  0  0
    7.1039  -20.5128   23.8264 C   0  0  0  0  0  0  0  0  0  0  0  0
    6.6180  -21.4527   24.8502 C   0  0  0  0  0  0  0  0  0  0  0  0
    5.9620  -22.6486   24.6470 C   0  0  0  0  0  0  0  0  0  0  0  0
    5.7139  -23.1597   25.8625 N   0  0  0  0  0  0  0  0  0  0  0  0
    6.1818  -22.3438   26.8215 C   0  0  0  0  0  0  0  0  0  0  0  0
    6.1615  -22.4459   28.2102 C   0  0  0  0  0  0  0  0  0  0  0  0
    6.7317  -21.4336   28.9522 C   0  0  0  0  0  0  0  0  0  0  0  0
    7.3082  -20.3462   28.3316 C   0  0  0  0  0  0  0  0  0  0  0  0
    7.3374  -20.2286   26.9621 C   0  0  0  0  0  0  0  0  0  0  0  0
    6.7672  -21.2407   26.2147 C   0  0  0  0  0  0  0  0  0  0  0  0
    6.5905  -18.2278   23.3043 C   0  0  0  0  0  0  0  0  0  0  0  0
    7.2353  -17.7842   22.3252 O   0  0  0  0  0  0  0  0  0  0  0  0
    6.4044  -17.4111   24.4324 N   0  0  0  0  0  0  0  0  0  0  0  0
    7.0567  -16.0858   24.4453 C   0  0  1  0  0  0  0  0  0  0  0  0
    6.2253  -15.2412   25.3411 C   0  0  0  0  0  0  0  0  0  0  0  0
    6.7514  -13.9231   25.6962 C   0  0  0  0  0  0  0  0  0  0  0  0
    7.0303  -13.6005   27.0080 C   0  0  0  0  0  0  0  0  0  0  0  0
    7.5465  -12.3807   27.3747 C   0  0  0  0  0  0  0  0  0  0  0  0
    7.7992  -11.4384   26.4107 C   0  0  0  0  0  0  0  0  0  0  0  0
    7.5345  -11.7185   25.0803 C   0  0  0  0  0  0  0  0  0  0  0  0
    7.0112  -12.9671   24.7484 C   0  0  0  0  0  0  0  0  0  0  0  0
    8.4476  -16.3057   24.7686 C   0  0  0  0  0  0  0  0  0  0  0  0
    8.7236  -17.1521   25.6926 O   0  0  0  0  0  0  0  0  0  0  0  0
   11.3745  -16.1944   21.8205 C   0  0  0  0  0  0  0  0  0  0  0  0
   11.8408  -15.7769   23.1966 C   0  0  2  0  0  0  0  0  0  0  0  0
   13.2143  -16.3688   23.4274 C   0  0  0  0  0  0  0  0  0  0  0  0
   10.9162  -16.3019   24.2793 C   0  0  2  0  0  0  0  0  0  0  0  0
    9.6013  -15.7082   24.1945 N   0  0  0  0  0  0  0  0  0  0  0  0
   11.5245  -15.9352   25.5740 C   0  0  0  0  0  0  0  0  0  0  0  0
   12.5970  -16.6053   26.1486 O   0  0  0  0  0  0  0  0  0  0  0  0
   11.0850  -14.9551   26.2548 O   0  0  0  0  0  0  0  0  0  0  0  0
  2  3  1  0
  2  1  1  6
  4  3  1  0
  5  4  2  0
  6  5  1  0
  7 12  2  0
  7  6  1  0
  8  7  1  0
  9  8  2  0
  9 10  1  0
 10 11  2  0
 11 12  1  0
 12  4  1  0
 13  2  1  0
 13 14  2  0
 15 13  1  0
 16 15  1  0
 16 17  1  1
 18 19  2  0
 18 17  1  0
 20 19  1  0
 21 20  2  0
 22 21  1  0
 22 23  2  0
 23 18  1  0
 24 16  1  0
 25 24  2  0
 27 28  1  1
 27 26  1  0
 29 27  1  0
 29 30  1  6
 30 24  1  0
 31 32  1  0
 31 29  1  0
 33 31  2  0
M  END
$$$$
