LKN.pdb
     RDKit          3D

 26 25  0  0  1  0  0  0  0  0999 V2000
   28.3184  -19.0845  -18.3585 C   0  0  0  0  0  0  0  0  0  0  0  0
   27.5647  -18.8784  -17.0637 C   0  0  1  0  0  0  0  0  0  0  0  0
   27.9123  -17.4924  -16.5526 C   0  0  0  0  0  0  0  0  0  0  0  0
   26.0515  -18.9561  -17.3075 C   0  0  0  0  0  0  0  0  0  0  0  0
   25.3993  -18.6916  -15.9757 C   0  0  2  0  0  0  0  0  0  0  0  0
   25.8274  -19.5772  -14.9442 N   0  0  0  0  0  0  0  0  0  0  0  0
   23.9289  -18.6639  -16.0504 C   0  0  0  0  0  0  0  0  0  0  0  0
   23.3884  -18.0149  -16.9781 O   0  0  0  0  0  0  0  0  0  0  0  0
   23.0766  -19.3312  -15.1309 N   0  0  0  0  0  0  0  0  0  0  0  0
   21.6478  -19.3284  -15.1864 C   0  0  1  0  0  0  0  0  0  0  0  0
   21.0495  -20.4057  -14.2673 C   0  0  0  0  0  0  0  0  0  0  0  0
   21.1143  -21.7616  -14.9532 C   0  0  0  0  0  0  0  0  0  0  0  0
   20.5447  -22.8393  -14.0806 C   0  0  0  0  0  0  0  0  0  0  0  0
   20.5090  -24.1801  -14.7838 C   0  0  0  0  0  0  0  0  0  0  0  0
   19.8995  -25.1830  -13.9089 N   0  0  0  0  0  0  0  0  0  0  0  0
   21.0593  -18.0451  -14.7302 C   0  0  0  0  0  0  0  0  0  0  0  0
   21.5854  -17.4049  -13.7918 O   0  0  0  0  0  0  0  0  0  0  0  0
   21.1574  -13.0252  -15.5357 N   0  0  0  0  0  0  0  0  0  0  0  0
   20.4085  -13.9621  -16.3206 C   0  0  0  0  0  0  0  0  0  0  0  0
   19.5298  -13.5499  -17.0972 O   0  0  0  0  0  0  0  0  0  0  0  0
   20.7168  -15.3864  -16.1703 C   0  0  0  0  0  0  0  0  0  0  0  0
   19.6281  -16.0928  -15.4466 C   0  0  2  0  0  0  0  0  0  0  0  0
   19.8890  -17.5036  -15.3372 N   0  0  0  0  0  0  0  0  0  0  0  0
   18.3070  -15.8914  -16.1127 C   0  0  0  0  0  0  0  0  0  0  0  0
   17.4300  -15.1909  -15.5621 O   0  0  0  0  0  0  0  0  0  0  0  0
   18.0538  -16.4769  -17.3332 O   0  0  0  0  0  0  0  0  0  0  0  0
  2  1  1  6
  3  2  1  0
  4  2  1  0
  5  7  1  0
  5  4  1  0
  5  6  1  1
  7  8  2  0
  9 10  1  0
  9  7  1  0
 10 11  1  1
 12 13  1  0
 12 11  1  0
 13 14  1  0
 14 15  1  0
 16 10  1  0
 17 16  2  0
 19 18  1  0
 19 20  2  0
 21 19  1  0
 22 21  1  6
 22 23  1  0
 23 16  1  0
 24 22  1  0
 24 26  1  0
 25 24  2  0
M  END
$$$$
