LKN.pdb
     RDKit          3D

 26 25  0  0  1  0  0  0  0  0999 V2000
   28.5481  -18.1553   -5.2435 C   0  0  0  0  0  0  0  0  0  0  0  0
   28.3698  -19.4684   -5.9722 C   0  0  1  0  0  0  0  0  0  0  0  0
   27.7447  -20.4476   -4.9956 C   0  0  0  0  0  0  0  0  0  0  0  0
   27.4299  -19.2909   -7.1723 C   0  0  0  0  0  0  0  0  0  0  0  0
   27.5081  -20.5736   -7.9581 C   0  0  2  0  0  0  0  0  0  0  0  0
   28.8067  -21.1614   -7.9641 N   0  0  0  0  0  0  0  0  0  0  0  0
   27.0002  -20.4377   -9.3335 C   0  0  0  0  0  0  0  0  0  0  0  0
   27.6814  -19.7871  -10.1621 O   0  0  0  0  0  0  0  0  0  0  0  0
   25.7774  -21.0016   -9.7854 N   0  0  0  0  0  0  0  0  0  0  0  0
   25.3211  -20.9920  -11.1405 C   0  0  1  0  0  0  0  0  0  0  0  0
   25.3796  -22.3973  -11.7611 C   0  0  0  0  0  0  0  0  0  0  0  0
   25.1342  -22.3092  -13.2594 C   0  0  0  0  0  0  0  0  0  0  0  0
   25.1419  -23.6683  -13.8918 C   0  0  0  0  0  0  0  0  0  0  0  0
   24.9109  -23.6005  -15.3870 C   0  0  0  0  0  0  0  0  0  0  0  0
   24.9500  -24.9485  -15.9565 N   0  0  0  0  0  0  0  0  0  0  0  0
   23.9071  -20.5606  -11.2659 C   0  0  0  0  0  0  0  0  0  0  0  0
   23.0905  -20.7909  -10.3454 O   0  0  0  0  0  0  0  0  0  0  0  0
   19.5945  -18.5059  -12.9434 N   0  0  0  0  0  0  0  0  0  0  0  0
   20.5347  -18.1467  -13.9641 C   0  0  0  0  0  0  0  0  0  0  0  0
   20.1666  -17.4393  -14.9176 O   0  0  0  0  0  0  0  0  0  0  0  0
   21.9093  -18.6370  -13.8363 C   0  0  0  0  0  0  0  0  0  0  0  0
   22.0848  -19.4058  -12.5768 C   0  0  2  0  0  0  0  0  0  0  0  0
   23.4356  -19.8774  -12.4244 N   0  0  0  0  0  0  0  0  0  0  0  0
   21.1516  -20.5696  -12.5109 C   0  0  0  0  0  0  0  0  0  0  0  0
   20.1523  -20.5274  -11.7609 O   0  0  0  0  0  0  0  0  0  0  0  0
   21.3910  -21.6896  -13.2757 O   0  0  0  0  0  0  0  0  0  0  0  0
  2  1  1  1
  3  2  1  0
  4  2  1  0
  5  7  1  0
  5  4  1  0
  5  6  1  6
  7  8  2  0
  9 10  1  0
  9  7  1  0
 10 11  1  1
 12 13  1  0
 12 11  1  0
 13 14  1  0
 14 15  1  0
 16 10  1  0
 17 16  2  0
 19 18  1  0
 19 20  2  0
 21 19  1  0
 22 21  1  6
 22 23  1  0
 23 16  1  0
 24 22  1  0
 24 26  1  0
 25 24  2  0
M  END
$$$$
