LKN.pdb
     RDKit          3D

 26 25  0  0  1  0  0  0  0  0999 V2000
   28.6355  -20.3328  -12.3222 C   0  0  0  0  0  0  0  0  0  0  0  0
   27.3477  -20.9796  -12.7810 C   0  0  1  0  0  0  0  0  0  0  0  0
   26.5113  -21.2512  -11.5441 C   0  0  0  0  0  0  0  0  0  0  0  0
   26.5746  -20.0330  -13.7091 C   0  0  0  0  0  0  0  0  0  0  0  0
   25.3794  -20.8092  -14.1966 C   0  0  2  0  0  0  0  0  0  0  0  0
   25.7089  -22.0882  -14.7325 N   0  0  0  0  0  0  0  0  0  0  0  0
   24.5510  -20.0517  -15.1496 C   0  0  0  0  0  0  0  0  0  0  0  0
   24.9911  -19.8652  -16.3095 O   0  0  0  0  0  0  0  0  0  0  0  0
   23.2741  -19.5143  -14.8361 N   0  0  0  0  0  0  0  0  0  0  0  0
   22.4873  -18.7043  -15.7132 C   0  0  1  0  0  0  0  0  0  0  0  0
   21.0023  -18.7282  -15.3162 C   0  0  0  0  0  0  0  0  0  0  0  0
   20.3651  -20.0275  -15.7840 C   0  0  0  0  0  0  0  0  0  0  0  0
   18.9185  -20.0933  -15.3962 C   0  0  0  0  0  0  0  0  0  0  0  0
   18.2789  -21.4027  -15.8081 C   0  0  0  0  0  0  0  0  0  0  0  0
   16.9026  -21.4599  -15.3128 N   0  0  0  0  0  0  0  0  0  0  0  0
   22.8840  -17.2749  -15.6831 C   0  0  0  0  0  0  0  0  0  0  0  0
   23.1327  -16.7093  -14.5943 O   0  0  0  0  0  0  0  0  0  0  0  0
   24.6655  -12.7542  -17.0505 N   0  0  0  0  0  0  0  0  0  0  0  0
   25.5092  -13.7968  -16.5445 C   0  0  0  0  0  0  0  0  0  0  0  0
   26.6825  -13.5381  -16.2259 O   0  0  0  0  0  0  0  0  0  0  0  0
   24.9423  -15.1422  -16.4234 C   0  0  0  0  0  0  0  0  0  0  0  0
   23.5430  -15.1767  -16.9224 C   0  0  2  0  0  0  0  0  0  0  0  0
   22.9942  -16.5060  -16.8780 N   0  0  0  0  0  0  0  0  0  0  0  0
   23.4462  -14.6555  -18.3183 C   0  0  0  0  0  0  0  0  0  0  0  0
   23.7785  -15.3811  -19.2807 O   0  0  0  0  0  0  0  0  0  0  0  0
   22.9913  -13.3758  -18.5465 O   0  0  0  0  0  0  0  0  0  0  0  0
  2  1  1  1
  3  2  1  0
  4  2  1  0
  5  7  1  0
  5  4  1  0
  5  6  1  6
  7  8  2  0
  9 10  1  0
  9  7  1  0
 10 11  1  1
 12 13  1  0
 12 11  1  0
 13 14  1  0
 14 15  1  0
 16 10  1  0
 17 16  2  0
 19 18  1  0
 19 20  2  0
 21 19  1  0
 22 21  1  6
 22 23  1  0
 23 16  1  0
 24 22  1  0
 24 26  1  0
 25 24  2  0
M  END
$$$$
