LKN.pdb
     RDKit          3D

 26 25  0  0  1  0  0  0  0  0999 V2000
   17.6186  -16.7735    0.1078 C   0  0  0  0  0  0  0  0  0  0  0  0
   17.0834  -16.4188    1.4771 C   0  0  1  0  0  0  0  0  0  0  0  0
   16.7459  -17.7194    2.1827 C   0  0  0  0  0  0  0  0  0  0  0  0
   18.1483  -15.6708    2.2905 C   0  0  0  0  0  0  0  0  0  0  0  0
   17.5574  -15.4607    3.6599 C   0  0  2  0  0  0  0  0  0  0  0  0
   16.4922  -14.5139    3.6833 N   0  0  0  0  0  0  0  0  0  0  0  0
   18.5673  -15.1218    4.6766 C   0  0  0  0  0  0  0  0  0  0  0  0
   19.5126  -15.9231    4.8724 O   0  0  0  0  0  0  0  0  0  0  0  0
   18.5387  -13.9350    5.4563 N   0  0  0  0  0  0  0  0  0  0  0  0
   19.5249  -13.5650    6.4233 C   0  0  1  0  0  0  0  0  0  0  0  0
   19.3868  -12.0881    6.8272 C   0  0  0  0  0  0  0  0  0  0  0  0
   20.5326  -11.6967    7.7476 C   0  0  0  0  0  0  0  0  0  0  0  0
   20.4295  -10.2598    8.1622 C   0  0  0  0  0  0  0  0  0  0  0  0
   21.5936   -9.8346    9.0325 C   0  0  0  0  0  0  0  0  0  0  0  0
   21.3683   -8.4781    9.5344 N   0  0  0  0  0  0  0  0  0  0  0  0
   19.4064  -14.3352    7.6859 C   0  0  0  0  0  0  0  0  0  0  0  0
   18.2968  -14.4555    8.2529 O   0  0  0  0  0  0  0  0  0  0  0  0
   21.5583  -19.3945    9.6844 N   0  0  0  0  0  0  0  0  0  0  0  0
   20.7859  -18.1907    9.7788 C   0  0  0  0  0  0  0  0  0  0  0  0
   19.6157  -18.2420   10.1947 O   0  0  0  0  0  0  0  0  0  0  0  0
   21.4200  -16.9334    9.3745 C   0  0  0  0  0  0  0  0  0  0  0  0
   20.4574  -15.8039    9.4497 C   0  0  2  0  0  0  0  0  0  0  0  0
   20.5380  -14.9571    8.2893 N   0  0  0  0  0  0  0  0  0  0  0  0
   20.6779  -14.9769   10.6733 C   0  0  0  0  0  0  0  0  0  0  0  0
   20.4682  -15.4663   11.8044 O   0  0  0  0  0  0  0  0  0  0  0  0
   21.1122  -13.6751   10.5566 O   0  0  0  0  0  0  0  0  0  0  0  0
  2  1  1  6
  3  2  1  0
  4  2  1  0
  5  7  1  0
  5  4  1  0
  5  6  1  6
  7  8  2  0
  9 10  1  0
  9  7  1  0
 10 11  1  1
 12 13  1  0
 12 11  1  0
 13 14  1  0
 14 15  1  0
 16 10  1  0
 17 16  2  0
 19 18  1  0
 19 20  2  0
 21 19  1  0
 22 21  1  6
 22 23  1  0
 23 16  1  0
 24 22  1  0
 24 26  1  0
 25 24  2  0
M  END
$$$$
