LKN.pdb
     RDKit          3D

 26 25  0  0  1  0  0  0  0  0999 V2000
   13.4741  -12.9892  -17.7815 C   0  0  0  0  0  0  0  0  0  0  0  0
   14.8927  -13.4981  -17.9066 C   0  0  1  0  0  0  0  0  0  0  0  0
   15.4158  -13.0543  -19.2603 C   0  0  0  0  0  0  0  0  0  0  0  0
   15.7765  -12.8943  -16.8068 C   0  0  0  0  0  0  0  0  0  0  0  0
   17.1612  -13.4411  -17.0360 C   0  0  2  0  0  0  0  0  0  0  0  0
   17.2807  -14.8322  -16.7491 N   0  0  0  0  0  0  0  0  0  0  0  0
   18.2048  -12.6801  -16.3288 C   0  0  0  0  0  0  0  0  0  0  0  0
   18.0613  -12.4651  -15.1012 O   0  0  0  0  0  0  0  0  0  0  0  0
   19.3736  -12.1698  -16.9540 N   0  0  0  0  0  0  0  0  0  0  0  0
   20.4263  -11.4743  -16.2813 C   0  0  1  0  0  0  0  0  0  0  0  0
   21.8051  -11.8869  -16.8218 C   0  0  0  0  0  0  0  0  0  0  0  0
   22.8995  -11.2895  -15.9509 C   0  0  0  0  0  0  0  0  0  0  0  0
   24.2605  -11.6433  -16.4703 C   0  0  0  0  0  0  0  0  0  0  0  0
   25.3573  -11.2522  -15.5020 C   0  0  0  0  0  0  0  0  0  0  0  0
   26.6662  -11.5104  -16.1046 N   0  0  0  0  0  0  0  0  0  0  0  0
   20.3508  -10.0040  -16.4654 C   0  0  0  0  0  0  0  0  0  0  0  0
   20.3258   -9.5100  -17.6154 O   0  0  0  0  0  0  0  0  0  0  0  0
   18.1913   -5.0248  -16.1458 N   0  0  0  0  0  0  0  0  0  0  0  0
   18.8737   -5.7030  -15.0832 C   0  0  0  0  0  0  0  0  0  0  0  0
   19.4282   -5.0424  -14.1882 O   0  0  0  0  0  0  0  0  0  0  0  0
   18.8874   -7.1679  -15.0995 C   0  0  0  0  0  0  0  0  0  0  0  0
   20.2282   -7.6831  -15.4799 C   0  0  2  0  0  0  0  0  0  0  0  0
   20.3047   -9.1143  -15.3530 N   0  0  0  0  0  0  0  0  0  0  0  0
   21.3077   -7.0620  -14.6562 C   0  0  0  0  0  0  0  0  0  0  0  0
   21.7563   -7.6647  -13.6570 O   0  0  0  0  0  0  0  0  0  0  0  0
   21.8095   -5.8254  -14.9963 O   0  0  0  0  0  0  0  0  0  0  0  0
  2  1  1  1
  3  2  1  0
  4  2  1  0
  5  7  1  0
  5  4  1  0
  5  6  1  1
  7  8  2  0
  9 10  1  0
  9  7  1  0
 10 11  1  6
 12 13  1  0
 12 11  1  0
 13 14  1  0
 14 15  1  0
 16 10  1  0
 17 16  2  0
 19 18  1  0
 19 20  2  0
 21 19  1  0
 22 21  1  1
 22 23  1  0
 23 16  1  0
 24 22  1  0
 24 26  1  0
 25 24  2  0
M  END
$$$$
