LKN.pdb
     RDKit          3D

 26 25  0  0  1  0  0  0  0  0999 V2000
   26.8701  -19.7695   -7.6061 C   0  0  0  0  0  0  0  0  0  0  0  0
   26.2677  -20.6623   -8.6678 C   0  0  1  0  0  0  0  0  0  0  0  0
   24.7599  -20.5109   -8.5853 C   0  0  0  0  0  0  0  0  0  0  0  0
   26.7380  -20.2274  -10.0624 C   0  0  0  0  0  0  0  0  0  0  0  0
   25.9780  -21.0797  -11.0446 C   0  0  2  0  0  0  0  0  0  0  0  0
   26.6825  -22.2508  -11.4494 N   0  0  0  0  0  0  0  0  0  0  0  0
   25.5154  -20.3267  -12.2225 C   0  0  0  0  0  0  0  0  0  0  0  0
   25.2934  -19.0981  -12.0988 O   0  0  0  0  0  0  0  0  0  0  0  0
   25.3028  -20.9083  -13.5007 N   0  0  0  0  0  0  0  0  0  0  0  0
   25.0534  -20.1764  -14.7035 C   0  0  1  0  0  0  0  0  0  0  0  0
   25.9047  -20.7068  -15.8686 C   0  0  0  0  0  0  0  0  0  0  0  0
   25.6999  -19.8322  -17.0959 C   0  0  0  0  0  0  0  0  0  0  0  0
   26.5251  -20.3150  -18.2505 C   0  0  0  0  0  0  0  0  0  0  0  0
   26.4008  -19.4074  -19.4564 C   0  0  0  0  0  0  0  0  0  0  0  0
   27.1025  -19.9989  -20.5969 N   0  0  0  0  0  0  0  0  0  0  0  0
   23.6453  -20.2846  -15.1585 C   0  0  0  0  0  0  0  0  0  0  0  0
   23.0354  -21.3748  -15.0777 O   0  0  0  0  0  0  0  0  0  0  0  0
   18.9182  -18.9368  -16.4836 N   0  0  0  0  0  0  0  0  0  0  0  0
   19.4984  -17.7984  -15.8340 C   0  0  0  0  0  0  0  0  0  0  0  0
   18.7769  -16.8366  -15.5185 O   0  0  0  0  0  0  0  0  0  0  0  0
   20.9386  -17.8192  -15.5665 C   0  0  0  0  0  0  0  0  0  0  0  0
   21.5246  -19.1405  -15.9112 C   0  0  2  0  0  0  0  0  0  0  0  0
   22.9472  -19.1647  -15.6968 N   0  0  0  0  0  0  0  0  0  0  0  0
   21.2386  -19.5136  -17.3285 C   0  0  0  0  0  0  0  0  0  0  0  0
   22.0934  -19.3002  -18.2155 O   0  0  0  0  0  0  0  0  0  0  0  0
   20.0337  -20.0926  -17.6594 O   0  0  0  0  0  0  0  0  0  0  0  0
  2  1  1  1
  3  2  1  0
  4  2  1  0
  5  7  1  0
  5  4  1  0
  5  6  1  6
  7  8  2  0
  9 10  1  0
  9  7  1  0
 10 11  1  6
 12 13  1  0
 12 11  1  0
 13 14  1  0
 14 15  1  0
 16 10  1  0
 17 16  2  0
 19 18  1  0
 19 20  2  0
 21 19  1  0
 22 21  1  6
 22 23  1  0
 23 16  1  0
 24 22  1  0
 24 26  1  0
 25 24  2  0
M  END
$$$$
