LKN.pdb
     RDKit          3D

 26 25  0  0  1  0  0  0  0  0999 V2000
   19.7232  -18.4526  -17.4621 C   0  0  0  0  0  0  0  0  0  0  0  0
   18.9886  -17.1322  -17.4003 C   0  0  1  0  0  0  0  0  0  0  0  0
   17.8561  -17.2898  -16.4024 C   0  0  0  0  0  0  0  0  0  0  0  0
   19.9285  -16.0192  -16.9176 C   0  0  0  0  0  0  0  0  0  0  0  0
   19.1341  -14.7414  -16.9875 C   0  0  2  0  0  0  0  0  0  0  0  0
   18.3016  -14.6488  -18.1408 N   0  0  0  0  0  0  0  0  0  0  0  0
   19.9705  -13.5361  -16.8606 C   0  0  0  0  0  0  0  0  0  0  0  0
   20.7465  -13.4462  -15.8790 O   0  0  0  0  0  0  0  0  0  0  0  0
   19.9542  -12.4598  -17.7872 N   0  0  0  0  0  0  0  0  0  0  0  0
   20.7516  -11.2773  -17.6849 C   0  0  1  0  0  0  0  0  0  0  0  0
   20.9345  -10.6048  -19.0551 C   0  0  0  0  0  0  0  0  0  0  0  0
   21.8864  -11.4275  -19.9096 C   0  0  0  0  0  0  0  0  0  0  0  0
   22.0709  -10.8113  -21.2638 C   0  0  0  0  0  0  0  0  0  0  0  0
   22.9129  -11.6811  -22.1737 C   0  0  0  0  0  0  0  0  0  0  0  0
   22.9272  -11.1176  -23.5246 N   0  0  0  0  0  0  0  0  0  0  0  0
   20.1367  -10.2452  -16.8142 C   0  0  0  0  0  0  0  0  0  0  0  0
   18.9179   -9.9772  -16.9131 O   0  0  0  0  0  0  0  0  0  0  0  0
   19.3262   -6.6316  -13.3959 N   0  0  0  0  0  0  0  0  0  0  0  0
   19.5367   -7.9167  -12.7969 C   0  0  0  0  0  0  0  0  0  0  0  0
   19.2732   -8.0849  -11.5938 O   0  0  0  0  0  0  0  0  0  0  0  0
   20.0613   -8.9919  -13.6424 C   0  0  0  0  0  0  0  0  0  0  0  0
   20.3626   -8.4943  -15.0098 C   0  0  2  0  0  0  0  0  0  0  0  0
   20.9031   -9.5320  -15.8473 N   0  0  0  0  0  0  0  0  0  0  0  0
   21.3176   -7.3469  -14.9771 C   0  0  0  0  0  0  0  0  0  0  0  0
   22.4218   -7.4363  -15.5565 O   0  0  0  0  0  0  0  0  0  0  0  0
   20.9829   -6.1900  -14.3091 O   0  0  0  0  0  0  0  0  0  0  0  0
  2  1  1  1
  3  2  1  0
  4  2  1  0
  5  7  1  0
  5  4  1  0
  5  6  1  6
  7  8  2  0
  9 10  1  0
  9  7  1  0
 10 11  1  6
 12 13  1  0
 12 11  1  0
 13 14  1  0
 14 15  1  0
 16 10  1  0
 17 16  2  0
 19 18  1  0
 19 20  2  0
 21 19  1  0
 22 21  1  1
 22 23  1  0
 23 16  1  0
 24 22  1  0
 24 26  1  0
 25 24  2  0
M  END
$$$$
