LKN.pdb
     RDKit          3D

 26 25  0  0  1  0  0  0  0  0999 V2000
   16.8645  -15.8841  -16.5181 C   0  0  0  0  0  0  0  0  0  0  0  0
   17.1827  -14.6076  -17.2642 C   0  0  1  0  0  0  0  0  0  0  0  0
   15.9376  -13.7406  -17.2307 C   0  0  0  0  0  0  0  0  0  0  0  0
   18.3320  -13.8584  -16.5764 C   0  0  0  0  0  0  0  0  0  0  0  0
   18.5334  -12.5894  -17.3623 C   0  0  2  0  0  0  0  0  0  0  0  0
   18.7801  -12.8093  -18.7489 N   0  0  0  0  0  0  0  0  0  0  0  0
   19.5711  -11.7160  -16.7890 C   0  0  0  0  0  0  0  0  0  0  0  0
   19.4898  -11.4056  -15.5761 O   0  0  0  0  0  0  0  0  0  0  0  0
   20.6677  -11.1983  -17.5285 N   0  0  0  0  0  0  0  0  0  0  0  0
   21.7349  -10.4221  -16.9779 C   0  0  1  0  0  0  0  0  0  0  0  0
   23.0584  -10.6885  -17.7132 C   0  0  0  0  0  0  0  0  0  0  0  0
   24.2067  -10.0354  -16.9595 C   0  0  0  0  0  0  0  0  0  0  0  0
   25.5066  -10.2222  -17.6823 C   0  0  0  0  0  0  0  0  0  0  0  0
   26.6766   -9.6609  -16.9016 C   0  0  0  0  0  0  0  0  0  0  0  0
   27.9323  -10.0217  -17.5618 N   0  0  0  0  0  0  0  0  0  0  0  0
   21.5013   -8.9617  -17.0961 C   0  0  0  0  0  0  0  0  0  0  0  0
   21.3029   -8.4405  -18.2169 O   0  0  0  0  0  0  0  0  0  0  0  0
   17.8307   -6.6099  -17.3240 N   0  0  0  0  0  0  0  0  0  0  0  0
   19.2000   -6.2077  -17.1892 C   0  0  0  0  0  0  0  0  0  0  0  0
   19.8069   -5.7529  -18.1740 O   0  0  0  0  0  0  0  0  0  0  0  0
   19.8333   -6.3530  -15.8762 C   0  0  0  0  0  0  0  0  0  0  0  0
   21.2734   -6.6919  -16.0148 C   0  0  2  0  0  0  0  0  0  0  0  0
   21.4950   -8.1122  -15.9517 N   0  0  0  0  0  0  0  0  0  0  0  0
   22.0972   -6.0227  -14.9645 C   0  0  0  0  0  0  0  0  0  0  0  0
   22.1256   -6.4855  -13.8035 O   0  0  0  0  0  0  0  0  0  0  0  0
   22.8259   -4.8957  -15.2739 O   0  0  0  0  0  0  0  0  0  0  0  0
  2  1  1  1
  3  2  1  0
  4  2  1  0
  5  7  1  0
  5  4  1  0
  5  6  1  6
  7  8  2  0
  9 10  1  0
  9  7  1  0
 10 11  1  6
 12 13  1  0
 12 11  1  0
 13 14  1  0
 14 15  1  0
 16 10  1  0
 17 16  2  0
 19 18  1  0
 19 20  2  0
 21 19  1  0
 22 21  1  1
 22 23  1  0
 23 16  1  0
 24 22  1  0
 24 26  1  0
 25 24  2  0
M  END
$$$$
