LKN.pdb
     RDKit          3D

 26 25  0  0  1  0  0  0  0  0999 V2000
   12.1973  -11.8401   -8.7882 C   0  0  0  0  0  0  0  0  0  0  0  0
   12.3725  -10.5257   -9.5154 C   0  0  1  0  0  0  0  0  0  0  0  0
   11.9070   -9.4247   -8.5802 C   0  0  0  0  0  0  0  0  0  0  0  0
   13.8506  -10.2975   -9.8592 C   0  0  0  0  0  0  0  0  0  0  0  0
   13.9035   -9.0150  -10.6473 C   0  0  2  0  0  0  0  0  0  0  0  0
   12.7140   -8.7494  -11.3865 N   0  0  0  0  0  0  0  0  0  0  0  0
   15.0829   -8.9267  -11.5245 C   0  0  0  0  0  0  0  0  0  0  0  0
   16.2144   -8.8051  -10.9964 O   0  0  0  0  0  0  0  0  0  0  0  0
   15.0201   -8.9710  -12.9427 N   0  0  0  0  0  0  0  0  0  0  0  0
   16.1509   -8.9122  -13.8160 C   0  0  1  0  0  0  0  0  0  0  0  0
   15.9686   -9.8359  -15.0312 C   0  0  0  0  0  0  0  0  0  0  0  0
   16.1751  -11.2836  -14.6133 C   0  0  0  0  0  0  0  0  0  0  0  0
   16.0291  -12.2120  -15.7812 C   0  0  0  0  0  0  0  0  0  0  0  0
   16.1421  -13.6650  -15.3694 C   0  0  0  0  0  0  0  0  0  0  0  0
   17.5057  -13.9483  -14.9189 N   0  0  0  0  0  0  0  0  0  0  0  0
   16.3719   -7.5564  -14.3767 C   0  0  0  0  0  0  0  0  0  0  0  0
   15.4008   -6.8024  -14.6125 O   0  0  0  0  0  0  0  0  0  0  0  0
   18.6397   -3.3780  -16.1822 N   0  0  0  0  0  0  0  0  0  0  0  0
   17.7058   -3.3862  -15.0948 C   0  0  0  0  0  0  0  0  0  0  0  0
   17.2342   -2.3130  -14.6813 O   0  0  0  0  0  0  0  0  0  0  0  0
   17.3429   -4.6793  -14.5098 C   0  0  0  0  0  0  0  0  0  0  0  0
   17.9425   -5.7991  -15.2808 C   0  0  2  0  0  0  0  0  0  0  0  0
   17.6813   -7.0717  -14.6625 N   0  0  0  0  0  0  0  0  0  0  0  0
   19.4174   -5.6272  -15.4390 C   0  0  0  0  0  0  0  0  0  0  0  0
   19.8694   -4.6256  -16.0351 O   0  0  0  0  0  0  0  0  0  0  0  0
   20.2802   -6.5716  -14.9286 O   0  0  0  0  0  0  0  0  0  0  0  0
  2  1  1  1
  3  2  1  0
  4  2  1  0
  5  7  1  0
  5  4  1  0
  5  6  1  6
  7  8  2  0
  9 10  1  0
  9  7  1  0
 10 11  1  6
 12 13  1  0
 12 11  1  0
 13 14  1  0
 14 15  1  0
 16 10  1  0
 17 16  2  0
 19 18  1  0
 19 20  2  0
 21 19  1  0
 22 21  1  1
 22 23  1  0
 23 16  1  0
 24 22  1  0
 24 26  1  0
 25 24  2  0
M  END
$$$$
