LKN.pdb
     RDKit          3D

 26 25  0  0  1  0  0  0  0  0999 V2000
   22.3834  -10.8131  -21.4856 C   0  0  0  0  0  0  0  0  0  0  0  0
   21.4918  -11.4102  -20.4200 C   0  0  1  0  0  0  0  0  0  0  0  0
   22.3850  -12.1639  -19.4518 C   0  0  0  0  0  0  0  0  0  0  0  0
   20.7524  -10.3018  -19.6584 C   0  0  0  0  0  0  0  0  0  0  0  0
   19.8660  -10.9999  -18.6605 C   0  0  2  0  0  0  0  0  0  0  0  0
   18.8389  -11.7855  -19.2603 N   0  0  0  0  0  0  0  0  0  0  0  0
   19.2929  -10.0838  -17.6602 C   0  0  0  0  0  0  0  0  0  0  0  0
   19.0417   -8.9035  -18.0032 O   0  0  0  0  0  0  0  0  0  0  0  0
   19.0039  -10.4551  -16.3201 N   0  0  0  0  0  0  0  0  0  0  0  0
   18.4086   -9.5987  -15.3419 C   0  0  1  0  0  0  0  0  0  0  0  0
   17.7167  -10.4097  -14.2343 C   0  0  0  0  0  0  0  0  0  0  0  0
   17.0686   -9.4657  -13.2332 C   0  0  0  0  0  0  0  0  0  0  0  0
   16.3338  -10.2238  -12.1690 C   0  0  0  0  0  0  0  0  0  0  0  0
   15.7023   -9.3011  -11.1475 C   0  0  0  0  0  0  0  0  0  0  0  0
   14.7982  -10.0622  -10.2837 N   0  0  0  0  0  0  0  0  0  0  0  0
   19.4031   -8.7445  -14.6471 C   0  0  0  0  0  0  0  0  0  0  0  0
   20.5345   -9.1960  -14.3587 O   0  0  0  0  0  0  0  0  0  0  0  0
   21.9011   -4.6109  -13.1394 N   0  0  0  0  0  0  0  0  0  0  0  0
   22.1963   -5.3413  -14.3369 C   0  0  0  0  0  0  0  0  0  0  0  0
   23.2245   -5.0740  -14.9824 O   0  0  0  0  0  0  0  0  0  0  0  0
   21.2585   -6.3867  -14.7536 C   0  0  0  0  0  0  0  0  0  0  0  0
   20.0982   -6.4600  -13.8282 C   0  0  2  0  0  0  0  0  0  0  0  0
   19.1081   -7.3972  -14.2883 N   0  0  0  0  0  0  0  0  0  0  0  0
   19.4574   -5.1236  -13.6461 C   0  0  0  0  0  0  0  0  0  0  0  0
   19.1381   -4.7345  -12.5018 O   0  0  0  0  0  0  0  0  0  0  0  0
   19.2179   -4.3193  -14.7381 O   0  0  0  0  0  0  0  0  0  0  0  0
  2  1  1  6
  3  2  1  0
  4  2  1  0
  5  7  1  0
  5  4  1  0
  5  6  1  6
  7  8  2  0
  9 10  1  0
  9  7  1  0
 10 11  1  1
 12 13  1  0
 12 11  1  0
 13 14  1  0
 14 15  1  0
 16 10  1  0
 17 16  2  0
 19 18  1  0
 19 20  2  0
 21 19  1  0
 22 21  1  6
 22 23  1  0
 23 16  1  0
 24 22  1  0
 24 26  1  0
 25 24  2  0
M  END
$$$$
