LKN.pdb
     RDKit          3D

 26 25  0  0  1  0  0  0  0  0999 V2000
   26.2090  -20.3048   -9.6241 C   0  0  0  0  0  0  0  0  0  0  0  0
   25.8929  -20.8904  -10.9821 C   0  0  1  0  0  0  0  0  0  0  0  0
   26.1214  -22.3882  -10.8943 C   0  0  0  0  0  0  0  0  0  0  0  0
   24.4257  -20.6294  -11.3488 C   0  0  0  0  0  0  0  0  0  0  0  0
   24.2696  -21.0625  -12.7830 C   0  0  2  0  0  0  0  0  0  0  0  0
   25.5077  -21.3299  -13.4367 N   0  0  0  0  0  0  0  0  0  0  0  0
   23.4594  -20.1275  -13.5815 C   0  0  0  0  0  0  0  0  0  0  0  0
   22.3265  -19.8002  -13.1533 O   0  0  0  0  0  0  0  0  0  0  0  0
   23.8830  -19.5679  -14.8163 N   0  0  0  0  0  0  0  0  0  0  0  0
   23.0690  -18.7651  -15.6751 C   0  0  1  0  0  0  0  0  0  0  0  0
   23.9224  -17.9910  -16.6928 C   0  0  0  0  0  0  0  0  0  0  0  0
   23.0524  -16.9927  -17.4409 C   0  0  0  0  0  0  0  0  0  0  0  0
   23.8677  -16.1640  -18.3873 C   0  0  0  0  0  0  0  0  0  0  0  0
   23.0138  -15.1851  -19.1658 C   0  0  0  0  0  0  0  0  0  0  0  0
   23.8303  -14.5073  -20.1740 N   0  0  0  0  0  0  0  0  0  0  0  0
   22.1203  -19.5706  -16.4828 C   0  0  0  0  0  0  0  0  0  0  0  0
   22.4402  -20.7127  -16.8833 O   0  0  0  0  0  0  0  0  0  0  0  0
   17.6626  -21.6843  -14.2615 N   0  0  0  0  0  0  0  0  0  0  0  0
   18.3970  -21.5385  -15.4838 C   0  0  0  0  0  0  0  0  0  0  0  0
   18.0376  -22.1648  -16.4955 O   0  0  0  0  0  0  0  0  0  0  0  0
   19.5570  -20.6437  -15.4865 C   0  0  0  0  0  0  0  0  0  0  0  0
   19.6280  -19.8686  -16.7523 C   0  0  2  0  0  0  0  0  0  0  0  0
   20.8278  -19.0779  -16.8263 N   0  0  0  0  0  0  0  0  0  0  0  0
   18.4435  -18.9739  -16.9140 C   0  0  0  0  0  0  0  0  0  0  0  0
   17.5102  -19.3047  -17.6772 O   0  0  0  0  0  0  0  0  0  0  0  0
   18.3785  -17.7844  -16.2229 O   0  0  0  0  0  0  0  0  0  0  0  0
  2  1  1  1
  3  2  1  0
  4  2  1  0
  5  7  1  0
  5  4  1  0
  5  6  1  6
  7  8  2  0
  9 10  1  0
  9  7  1  0
 10 11  1  6
 12 13  1  0
 12 11  1  0
 13 14  1  0
 14 15  1  0
 16 10  1  0
 17 16  2  0
 19 18  1  0
 19 20  2  0
 21 19  1  0
 22 21  1  1
 22 23  1  0
 23 16  1  0
 24 22  1  0
 24 26  1  0
 25 24  2  0
M  END
$$$$
