LKN.pdb
     RDKit          3D

 26 25  0  0  1  0  0  0  0  0999 V2000
   26.6106  -15.1064  -18.1808 C   0  0  0  0  0  0  0  0  0  0  0  0
   26.2681  -14.1758  -17.0389 C   0  0  1  0  0  0  0  0  0  0  0  0
   27.5140  -13.3690  -16.7225 C   0  0  0  0  0  0  0  0  0  0  0  0
   25.1426  -13.2168  -17.4497 C   0  0  0  0  0  0  0  0  0  0  0  0
   24.8004  -12.4215  -16.2171 C   0  0  2  0  0  0  0  0  0  0  0  0
   24.5481  -13.2277  -15.0690 N   0  0  0  0  0  0  0  0  0  0  0  0
   23.6934  -11.4746  -16.4323 C   0  0  0  0  0  0  0  0  0  0  0  0
   23.8033  -10.6223  -17.3462 O   0  0  0  0  0  0  0  0  0  0  0  0
   22.4988  -11.4652  -15.6640 N   0  0  0  0  0  0  0  0  0  0  0  0
   21.3768  -10.6116  -15.9029 C   0  0  1  0  0  0  0  0  0  0  0  0
   20.0499  -11.3529  -15.6721 C   0  0  0  0  0  0  0  0  0  0  0  0
   18.8833  -10.4394  -16.0151 C   0  0  0  0  0  0  0  0  0  0  0  0
   17.5738  -11.1562  -15.8779 C   0  0  0  0  0  0  0  0  0  0  0  0
   16.3973  -10.2539  -16.1863 C   0  0  0  0  0  0  0  0  0  0  0  0
   15.1468  -10.9988  -16.0303 N   0  0  0  0  0  0  0  0  0  0  0  0
   21.3425   -9.4417  -14.9910 C   0  0  0  0  0  0  0  0  0  0  0  0
   21.3370   -9.6059  -13.7499 O   0  0  0  0  0  0  0  0  0  0  0  0
   21.1148   -4.7281  -13.1568 N   0  0  0  0  0  0  0  0  0  0  0  0
   22.1678   -4.7610  -14.1289 C   0  0  0  0  0  0  0  0  0  0  0  0
   22.9280   -3.7843  -14.2451 O   0  0  0  0  0  0  0  0  0  0  0  0
   22.3036   -5.9630  -14.9552 C   0  0  0  0  0  0  0  0  0  0  0  0
   21.2296   -6.9432  -14.6490 C   0  0  2  0  0  0  0  0  0  0  0  0
   21.3148   -8.1072  -15.4904 N   0  0  0  0  0  0  0  0  0  0  0  0
   19.8741   -6.3340  -14.7950 C   0  0  0  0  0  0  0  0  0  0  0  0
   19.2180   -6.0186  -13.7787 O   0  0  0  0  0  0  0  0  0  0  0  0
   19.3461   -6.1194  -16.0487 O   0  0  0  0  0  0  0  0  0  0  0  0
  2  1  1  6
  3  2  1  0
  4  2  1  0
  5  7  1  0
  5  4  1  0
  5  6  1  1
  7  8  2  0
  9 10  1  0
  9  7  1  0
 10 11  1  1
 12 13  1  0
 12 11  1  0
 13 14  1  0
 14 15  1  0
 16 10  1  0
 17 16  2  0
 19 18  1  0
 19 20  2  0
 21 19  1  0
 22 21  1  6
 22 23  1  0
 23 16  1  0
 24 22  1  0
 24 26  1  0
 25 24  2  0
M  END
$$$$
