LKN.pdb
     RDKit          3D

 26 25  0  0  1  0  0  0  0  0999 V2000
   30.1122  -20.6234  -11.1434 C   0  0  0  0  0  0  0  0  0  0  0  0
   28.7425  -21.2628  -11.1926 C   0  0  1  0  0  0  0  0  0  0  0  0
   28.4911  -21.9006   -9.8386 C   0  0  0  0  0  0  0  0  0  0  0  0
   27.6655  -20.2008  -11.4524 C   0  0  0  0  0  0  0  0  0  0  0  0
   26.3699  -20.9510  -11.6176 C   0  0  2  0  0  0  0  0  0  0  0  0
   26.5344  -22.2669  -12.1402 N   0  0  0  0  0  0  0  0  0  0  0  0
   25.3709  -20.2080  -12.4040 C   0  0  0  0  0  0  0  0  0  0  0  0
   25.0324  -19.0643  -12.0150 O   0  0  0  0  0  0  0  0  0  0  0  0
   24.7612  -20.7084  -13.5851 N   0  0  0  0  0  0  0  0  0  0  0  0
   23.8169  -19.9940  -14.3866 C   0  0  1  0  0  0  0  0  0  0  0  0
   24.2568  -19.9432  -15.8588 C   0  0  0  0  0  0  0  0  0  0  0  0
   23.3645  -18.9829  -16.6300 C   0  0  0  0  0  0  0  0  0  0  0  0
   23.7221  -18.9597  -18.0856 C   0  0  0  0  0  0  0  0  0  0  0  0
   22.8997  -17.9483  -18.8566 C   0  0  0  0  0  0  0  0  0  0  0  0
   23.3168  -17.9360  -20.2597 N   0  0  0  0  0  0  0  0  0  0  0  0
   22.4757  -20.6284  -14.3941 C   0  0  0  0  0  0  0  0  0  0  0  0
   22.3630  -21.8705  -14.5025 O   0  0  0  0  0  0  0  0  0  0  0  0
   19.4695  -22.8595  -13.3331 N   0  0  0  0  0  0  0  0  0  0  0  0
   19.1401  -21.7673  -12.4652 C   0  0  0  0  0  0  0  0  0  0  0  0
   18.7161  -21.9983  -11.3198 O   0  0  0  0  0  0  0  0  0  0  0  0
   19.3204  -20.4056  -12.9748 C   0  0  0  0  0  0  0  0  0  0  0  0
   19.9611  -20.4198  -14.3154 C   0  0  2  0  0  0  0  0  0  0  0  0
   21.2840  -19.8551  -14.2796 N   0  0  0  0  0  0  0  0  0  0  0  0
   19.1423  -19.6806  -15.3217 C   0  0  0  0  0  0  0  0  0  0  0  0
   19.4626  -18.5194  -15.6565 O   0  0  0  0  0  0  0  0  0  0  0  0
   18.0343  -20.2771  -15.8814 O   0  0  0  0  0  0  0  0  0  0  0  0
  2  1  1  1
  3  2  1  0
  4  2  1  0
  5  7  1  0
  5  4  1  0
  5  6  1  6
  7  8  2  0
  9 10  1  0
  9  7  1  0
 10 11  1  6
 12 13  1  0
 12 11  1  0
 13 14  1  0
 14 15  1  0
 16 10  1  0
 17 16  2  0
 19 18  1  0
 19 20  2  0
 21 19  1  0
 22 21  1  1
 22 23  1  0
 23 16  1  0
 24 22  1  0
 24 26  1  0
 25 24  2  0
M  END
$$$$
