LKN.pdb
     RDKit          3D

 26 25  0  0  1  0  0  0  0  0999 V2000
   27.2483  -21.2579   -7.8381 C   0  0  0  0  0  0  0  0  0  0  0  0
   26.0912  -20.6495   -8.5983 C   0  0  1  0  0  0  0  0  0  0  0  0
   26.1762  -19.1442   -8.4248 C   0  0  0  0  0  0  0  0  0  0  0  0
   26.1957  -20.9870  -10.0917 C   0  0  0  0  0  0  0  0  0  0  0  0
   25.1477  -20.1547  -10.7829 C   0  0  2  0  0  0  0  0  0  0  0  0
   23.8123  -20.5373  -10.4636 N   0  0  0  0  0  0  0  0  0  0  0  0
   25.3295  -20.0968  -12.2430 C   0  0  0  0  0  0  0  0  0  0  0  0
   24.4000  -20.5069  -12.9791 O   0  0  0  0  0  0  0  0  0  0  0  0
   26.5006  -19.6019  -12.8762 N   0  0  0  0  0  0  0  0  0  0  0  0
   26.7252  -19.5862  -14.2882 C   0  0  1  0  0  0  0  0  0  0  0  0
   28.0345  -18.8609  -14.6391 C   0  0  0  0  0  0  0  0  0  0  0  0
   28.2665  -18.9149  -16.1412 C   0  0  0  0  0  0  0  0  0  0  0  0
   27.5373  -17.8092  -16.8434 C   0  0  0  0  0  0  0  0  0  0  0  0
   27.8334  -17.7869  -18.3285 C   0  0  0  0  0  0  0  0  0  0  0  0
   26.9709  -16.8074  -18.9914 N   0  0  0  0  0  0  0  0  0  0  0  0
   26.8589  -20.9478  -14.8623 C   0  0  0  0  0  0  0  0  0  0  0  0
   27.6997  -21.7511  -14.3986 O   0  0  0  0  0  0  0  0  0  0  0  0
   25.8032  -25.7887  -15.3337 N   0  0  0  0  0  0  0  0  0  0  0  0
   24.7508  -24.8170  -15.3898 C   0  0  0  0  0  0  0  0  0  0  0  0
   23.6010  -25.1732  -15.6998 O   0  0  0  0  0  0  0  0  0  0  0  0
   25.0823  -23.4253  -15.0742 C   0  0  0  0  0  0  0  0  0  0  0  0
   25.7550  -22.7651  -16.2230 C   0  0  2  0  0  0  0  0  0  0  0  0
   26.0447  -21.3828  -15.9481 N   0  0  0  0  0  0  0  0  0  0  0  0
   24.9306  -22.8531  -17.4649 C   0  0  0  0  0  0  0  0  0  0  0  0
   25.2968  -23.5886  -18.4071 O   0  0  0  0  0  0  0  0  0  0  0  0
   23.7670  -22.1243  -17.5731 O   0  0  0  0  0  0  0  0  0  0  0  0
  2  1  1  1
  3  2  1  0
  4  2  1  0
  5  7  1  0
  5  4  1  0
  5  6  1  6
  7  8  2  0
  9 10  1  0
  9  7  1  0
 10 11  1  1
 12 13  1  0
 12 11  1  0
 13 14  1  0
 14 15  1  0
 16 10  1  0
 17 16  2  0
 19 18  1  0
 19 20  2  0
 21 19  1  0
 22 21  1  1
 22 23  1  0
 23 16  1  0
 24 22  1  0
 24 26  1  0
 25 24  2  0
M  END
$$$$
