YGK.pdb
     RDKit          3D

 26 26  0  0  1  0  0  0  0  0999 V2000
    5.2562  -10.7137   27.8625 O   0  0  0  0  0  0  0  0  0  0  0  0
    5.9755  -11.7585   27.2623 C   0  0  0  0  0  0  0  0  0  0  0  0
    5.8250  -13.0117   27.8109 C   0  0  0  0  0  0  0  0  0  0  0  0
    6.5277  -14.0450   27.2281 C   0  0  0  0  0  0  0  0  0  0  0  0
    7.3505  -13.8342   26.1374 C   0  0  0  0  0  0  0  0  0  0  0  0
    8.0829  -14.9872   25.5845 C   0  0  0  0  0  0  0  0  0  0  0  0
    7.3760  -15.4999   24.3645 C   0  0  2  0  0  0  0  0  0  0  0  0
    6.2132  -16.2547   24.8293 N   0  0  0  0  0  0  0  0  0  0  0  0
    8.2730  -16.3261   23.5597 C   0  0  0  0  0  0  0  0  0  0  0  0
    9.4536  -16.0010   23.2973 O   0  0  0  0  0  0  0  0  0  0  0  0
    7.4689  -12.5722   25.6268 C   0  0  0  0  0  0  0  0  0  0  0  0
    6.7720  -11.4973   26.1902 C   0  0  0  0  0  0  0  0  0  0  0  0
    7.8001  -17.5736   23.0345 N   0  0  0  0  0  0  0  0  0  0  0  0
    8.5314  -18.3305   22.0846 C   0  0  0  0  0  0  0  0  0  0  0  0
    8.8600  -17.6360   20.8159 C   0  0  0  0  0  0  0  0  0  0  0  0
    9.1964  -18.3403   19.7899 O   0  0  0  0  0  0  0  0  0  0  0  0
    8.8439  -16.2519   20.6047 N   0  0  0  0  0  0  0  0  0  0  0  0
    9.0653  -15.6588   19.2873 C   0  0  1  0  0  0  0  0  0  0  0  0
    8.4551  -14.2951   19.2089 C   0  0  0  0  0  0  0  0  0  0  0  0
    8.7244  -13.6547   17.8807 C   0  0  0  0  0  0  0  0  0  0  0  0
    7.7046  -14.0953   16.8335 C   0  0  0  0  0  0  0  0  0  0  0  0
    7.9852  -13.5201   15.4812 C   0  0  0  0  0  0  0  0  0  0  0  0
    7.0619  -13.9302   14.4731 N   0  0  0  0  0  0  0  0  0  0  0  0
   10.4604  -15.6897   18.8987 C   0  0  0  0  0  0  0  0  0  0  0  0
   10.9308  -15.8836   17.6380 O   0  0  0  0  0  0  0  0  0  0  0  0
   11.3387  -15.5243   19.8250 O   0  0  0  0  0  0  0  0  0  0  0  0
  1  2  1  0
  2 12  2  0
  2  3  1  0
  3  4  2  0
  4  5  1  0
  5  6  1  0
  6  7  1  0
  7  8  1  1
  7  9  1  0
  9 10  2  0
 11  5  2  0
 12 11  1  0
 13  9  1  0
 13 14  1  0
 15 14  1  0
 15 17  1  0
 16 15  2  0
 18 17  1  0
 18 24  1  0
 18 19  1  1
 20 19  1  0
 21 20  1  0
 21 22  1  0
 23 22  1  0
 24 26  2  0
 24 25  1  0
M  END
$$$$
