YGK.pdb
     RDKit          3D

 26 26  0  0  1  0  0  0  0  0999 V2000
    6.6066  -12.3214   18.1600 O   0  0  0  0  0  0  0  0  0  0  0  0
    7.1537  -13.0373   19.2359 C   0  0  0  0  0  0  0  0  0  0  0  0
    8.5099  -12.9171   19.4365 C   0  0  0  0  0  0  0  0  0  0  0  0
    9.0569  -13.6168   20.4913 C   0  0  0  0  0  0  0  0  0  0  0  0
    8.2777  -14.4073   21.3153 C   0  0  0  0  0  0  0  0  0  0  0  0
    8.9411  -15.1389   22.4090 C   0  0  0  0  0  0  0  0  0  0  0  0
    9.7584  -16.2636   21.8448 C   0  0  2  0  0  0  0  0  0  0  0  0
    8.8263  -17.1898   21.2036 N   0  0  0  0  0  0  0  0  0  0  0  0
   10.5326  -16.9155   22.8986 C   0  0  0  0  0  0  0  0  0  0  0  0
   10.1074  -17.8921   23.5572 O   0  0  0  0  0  0  0  0  0  0  0  0
    6.9350  -14.4962   21.0774 C   0  0  0  0  0  0  0  0  0  0  0  0
    6.3424  -13.8014   20.0169 C   0  0  0  0  0  0  0  0  0  0  0  0
   11.8452  -16.4305   23.2109 N   0  0  0  0  0  0  0  0  0  0  0  0
   12.6550  -17.0097   24.2202 C   0  0  0  0  0  0  0  0  0  0  0  0
   12.1782  -16.8359   25.6139 C   0  0  0  0  0  0  0  0  0  0  0  0
   13.0396  -16.8512   26.5729 O   0  0  0  0  0  0  0  0  0  0  0  0
   10.8493  -16.6508   26.0143 N   0  0  0  0  0  0  0  0  0  0  0  0
   10.4799  -16.3913   27.4045 C   0  0  1  0  0  0  0  0  0  0  0  0
    9.2134  -15.5985   27.4788 C   0  0  0  0  0  0  0  0  0  0  0  0
    9.3044  -14.3502   26.6541 C   0  0  0  0  0  0  0  0  0  0  0  0
    7.9771  -13.5960   26.6376 C   0  0  0  0  0  0  0  0  0  0  0  0
    8.0199  -12.3773   25.7710 C   0  0  0  0  0  0  0  0  0  0  0  0
    6.8152  -11.6122   25.7855 N   0  0  0  0  0  0  0  0  0  0  0  0
   10.4504  -17.6017   28.1998 C   0  0  0  0  0  0  0  0  0  0  0  0
   10.5679  -17.6675   29.5526 O   0  0  0  0  0  0  0  0  0  0  0  0
   10.3050  -18.7184   27.5765 O   0  0  0  0  0  0  0  0  0  0  0  0
  1  2  1  0
  2 12  2  0
  2  3  1  0
  3  4  2  0
  4  5  1  0
  5  6  1  0
  6  7  1  0
  7  8  1  1
  7  9  1  0
  9 10  2  0
 11  5  2  0
 12 11  1  0
 13  9  1  0
 13 14  1  0
 15 14  1  0
 15 17  1  0
 16 15  2  0
 18 17  1  0
 18 24  1  0
 18 19  1  6
 20 19  1  0
 21 20  1  0
 21 22  1  0
 23 22  1  0
 24 26  2  0
 24 25  1  0
M  END
$$$$
