YGK.pdb
     RDKit          3D

 26 26  0  0  1  0  0  0  0  0999 V2000
    6.9358  -10.5806   26.8847 O   0  0  0  0  0  0  0  0  0  0  0  0
    6.9129  -11.9811   26.8000 C   0  0  0  0  0  0  0  0  0  0  0  0
    5.6750  -12.5823   26.7842 C   0  0  0  0  0  0  0  0  0  0  0  0
    5.6420  -13.9583   26.7011 C   0  0  0  0  0  0  0  0  0  0  0  0
    6.8029  -14.7061   26.6363 C   0  0  0  0  0  0  0  0  0  0  0  0
    6.6831  -16.1733   26.5692 C   0  0  0  0  0  0  0  0  0  0  0  0
    7.7897  -16.7349   25.7259 C   0  0  2  0  0  0  0  0  0  0  0  0
    8.7369  -15.6477   25.4839 N   0  0  0  0  0  0  0  0  0  0  0  0
    7.2593  -17.2803   24.4785 C   0  0  0  0  0  0  0  0  0  0  0  0
    6.6594  -18.3775   24.4104 O   0  0  0  0  0  0  0  0  0  0  0  0
    8.0096  -14.0652   26.6552 C   0  0  0  0  0  0  0  0  0  0  0  0
    8.0848  -12.6703   26.7387 C   0  0  0  0  0  0  0  0  0  0  0  0
    7.4219  -16.5408   23.2610 N   0  0  0  0  0  0  0  0  0  0  0  0
    7.0703  -17.0679   21.9926 C   0  0  0  0  0  0  0  0  0  0  0  0
    8.2015  -17.4507   21.1130 C   0  0  0  0  0  0  0  0  0  0  0  0
    7.9475  -17.8847   19.9260 O   0  0  0  0  0  0  0  0  0  0  0  0
    9.5609  -17.3898   21.4432 N   0  0  0  0  0  0  0  0  0  0  0  0
   10.4066  -16.2575   21.0702 C   0  0  1  0  0  0  0  0  0  0  0  0
    9.6069  -14.9947   21.0075 C   0  0  0  0  0  0  0  0  0  0  0  0
    9.6317  -14.4036   19.6303 C   0  0  0  0  0  0  0  0  0  0  0  0
    8.3111  -13.7138   19.2969 C   0  0  0  0  0  0  0  0  0  0  0  0
    8.2920  -13.1489   17.9117 C   0  0  0  0  0  0  0  0  0  0  0  0
    7.0524  -12.5413   17.5497 N   0  0  0  0  0  0  0  0  0  0  0  0
   11.5848  -16.1533   21.9065 C   0  0  0  0  0  0  0  0  0  0  0  0
   12.8486  -15.9029   21.4725 O   0  0  0  0  0  0  0  0  0  0  0  0
   11.4297  -16.3158   23.1739 O   0  0  0  0  0  0  0  0  0  0  0  0
  1  2  1  0
  2 12  2  0
  2  3  1  0
  3  4  2  0
  4  5  1  0
  5  6  1  0
  6  7  1  0
  7  8  1  6
  7  9  1  0
  9 10  2  0
 11  5  2  0
 12 11  1  0
 13  9  1  0
 13 14  1  0
 15 14  1  0
 15 17  1  0
 16 15  2  0
 18 17  1  0
 18 24  1  0
 18 19  1  1
 20 19  1  0
 21 20  1  0
 21 22  1  0
 23 22  1  0
 24 26  2  0
 24 25  1  0
M  END
$$$$
