YGK.pdb
     RDKit          3D

 26 26  0  0  1  0  0  0  0  0999 V2000
    7.3458  -13.2096   28.2863 O   0  0  0  0  0  0  0  0  0  0  0  0
    7.4381  -13.2188   26.8860 C   0  0  0  0  0  0  0  0  0  0  0  0
    6.2537  -13.2026   26.1853 C   0  0  0  0  0  0  0  0  0  0  0  0
    6.3340  -13.2114   24.8087 C   0  0  0  0  0  0  0  0  0  0  0  0
    7.5526  -13.2356   24.1564 C   0  0  0  0  0  0  0  0  0  0  0  0
    7.5531  -13.2637   22.6830 C   0  0  0  0  0  0  0  0  0  0  0  0
    7.3366  -14.6683   22.2021 C   0  0  2  0  0  0  0  0  0  0  0  0
    6.6510  -15.3869   23.2750 N   0  0  0  0  0  0  0  0  0  0  0  0
    8.6103  -15.2954   21.8564 C   0  0  0  0  0  0  0  0  0  0  0  0
    9.5010  -14.7175   21.1924 O   0  0  0  0  0  0  0  0  0  0  0  0
    8.7026  -13.2512   24.8943 C   0  0  0  0  0  0  0  0  0  0  0  0
    8.6628  -13.2429   26.2931 C   0  0  0  0  0  0  0  0  0  0  0  0
    8.8748  -16.6369   22.2877 N   0  0  0  0  0  0  0  0  0  0  0  0
   10.0534  -17.3381   21.9281 C   0  0  0  0  0  0  0  0  0  0  0  0
   11.1874  -17.2311   22.8781 C   0  0  0  0  0  0  0  0  0  0  0  0
   12.3414  -16.8694   22.4315 O   0  0  0  0  0  0  0  0  0  0  0  0
   11.1387  -17.4889   24.2535 N   0  0  0  0  0  0  0  0  0  0  0  0
   12.3331  -17.4700   25.0958 C   0  0  1  0  0  0  0  0  0  0  0  0
   11.9615  -17.4108   26.5437 C   0  0  0  0  0  0  0  0  0  0  0  0
   11.3896  -16.0728   26.9038 C   0  0  0  0  0  0  0  0  0  0  0  0
   11.0504  -15.9944   28.3903 C   0  0  0  0  0  0  0  0  0  0  0  0
   10.4682  -14.6718   28.7773 C   0  0  0  0  0  0  0  0  0  0  0  0
    9.9764  -14.6237   30.1163 N   0  0  0  0  0  0  0  0  0  0  0  0
   13.2461  -18.5488   24.7781 C   0  0  0  0  0  0  0  0  0  0  0  0
   14.6020  -18.4578   24.7394 O   0  0  0  0  0  0  0  0  0  0  0  0
   12.7350  -19.6975   24.5024 O   0  0  0  0  0  0  0  0  0  0  0  0
  1  2  1  0
  2 12  2  0
  2  3  1  0
  3  4  2  0
  4  5  1  0
  5  6  1  0
  6  7  1  0
  7  8  1  1
  7  9  1  0
  9 10  2  0
 11  5  2  0
 12 11  1  0
 13  9  1  0
 13 14  1  0
 15 14  1  0
 15 17  1  0
 16 15  2  0
 18 17  1  0
 18 24  1  0
 18 19  1  1
 20 19  1  0
 21 20  1  0
 21 22  1  0
 23 22  1  0
 24 26  2  0
 24 25  1  0
M  END
$$$$
