YGK.pdb
     RDKit          3D

 26 26  0  0  1  0  0  0  0  0999 V2000
    9.2248  -20.6631   15.0688 O   0  0  0  0  0  0  0  0  0  0  0  0
    8.8845  -20.0847   16.3012 C   0  0  0  0  0  0  0  0  0  0  0  0
    7.5673  -19.7263   16.4766 C   0  0  0  0  0  0  0  0  0  0  0  0
    7.2230  -19.1572   17.6844 C   0  0  0  0  0  0  0  0  0  0  0  0
    8.1600  -18.9535   18.6803 C   0  0  0  0  0  0  0  0  0  0  0  0
    7.7162  -18.3213   19.9352 C   0  0  0  0  0  0  0  0  0  0  0  0
    7.6615  -16.8320   19.7616 C   0  0  2  0  0  0  0  0  0  0  0  0
    9.0384  -16.3702   19.5923 N   0  0  0  0  0  0  0  0  0  0  0  0
    7.0158  -16.2037   20.9119 C   0  0  0  0  0  0  0  0  0  0  0  0
    5.8567  -16.4910   21.2889 O   0  0  0  0  0  0  0  0  0  0  0  0
    9.4565  -19.3253   18.4606 C   0  0  0  0  0  0  0  0  0  0  0  0
    9.8453  -19.9061   17.2482 C   0  0  0  0  0  0  0  0  0  0  0  0
    7.7248  -15.2072   21.6601 N   0  0  0  0  0  0  0  0  0  0  0  0
    7.1431  -14.5096   22.7488 C   0  0  0  0  0  0  0  0  0  0  0  0
    7.2568  -15.1652   24.0745 C   0  0  0  0  0  0  0  0  0  0  0  0
    6.7344  -14.5870   25.1014 O   0  0  0  0  0  0  0  0  0  0  0  0
    7.8913  -16.3848   24.3402 N   0  0  0  0  0  0  0  0  0  0  0  0
    8.0068  -16.9283   25.6921 C   0  0  1  0  0  0  0  0  0  0  0  0
    7.3219  -18.2546   25.7921 C   0  0  0  0  0  0  0  0  0  0  0  0
    7.4529  -18.8314   27.1694 C   0  0  0  0  0  0  0  0  0  0  0  0
    6.7453  -20.1799   27.2776 C   0  0  0  0  0  0  0  0  0  0  0  0
    6.8098  -20.7530   28.6581 C   0  0  0  0  0  0  0  0  0  0  0  0
    6.2875  -22.0771   28.7617 N   0  0  0  0  0  0  0  0  0  0  0  0
    9.3777  -16.9504   26.1596 C   0  0  0  0  0  0  0  0  0  0  0  0
    9.7759  -16.9023   27.4586 O   0  0  0  0  0  0  0  0  0  0  0  0
   10.3070  -17.0165   25.2715 O   0  0  0  0  0  0  0  0  0  0  0  0
  1  2  1  0
  2 12  2  0
  2  3  1  0
  3  4  2  0
  4  5  1  0
  5  6  1  0
  6  7  1  0
  7  8  1  1
  7  9  1  0
  9 10  2  0
 11  5  2  0
 12 11  1  0
 13  9  1  0
 13 14  1  0
 15 14  1  0
 15 17  1  0
 16 15  2  0
 18 17  1  0
 18 24  1  0
 18 19  1  6
 20 19  1  0
 21 20  1  0
 21 22  1  0
 23 22  1  0
 24 26  2  0
 24 25  1  0
M  END
$$$$
