YGK.pdb
     RDKit          3D

 26 26  0  0  1  0  0  0  0  0999 V2000
    7.6280  -13.5143   14.5048 O   0  0  0  0  0  0  0  0  0  0  0  0
    7.6445  -13.8492   15.8675 C   0  0  0  0  0  0  0  0  0  0  0  0
    7.1677  -15.0948   16.2069 C   0  0  0  0  0  0  0  0  0  0  0  0
    7.1799  -15.4332   17.5436 C   0  0  0  0  0  0  0  0  0  0  0  0
    7.6510  -14.5594   18.5057 C   0  0  0  0  0  0  0  0  0  0  0  0
    7.6120  -14.9884   19.9149 C   0  0  0  0  0  0  0  0  0  0  0  0
    9.0096  -15.1158   20.4455 C   0  0  2  0  0  0  0  0  0  0  0  0
    9.6836  -16.1301   19.6364 N   0  0  0  0  0  0  0  0  0  0  0  0
    8.9911  -15.4754   21.8616 C   0  0  0  0  0  0  0  0  0  0  0  0
    8.3902  -14.8043   22.7315 O   0  0  0  0  0  0  0  0  0  0  0  0
    8.1146  -13.3328   18.1213 C   0  0  0  0  0  0  0  0  0  0  0  0
    8.1188  -12.9524   16.7745 C   0  0  0  0  0  0  0  0  0  0  0  0
    9.6879  -16.6496   22.2992 N   0  0  0  0  0  0  0  0  0  0  0  0
   10.7197  -16.6097   23.2708 C   0  0  0  0  0  0  0  0  0  0  0  0
   10.3872  -15.9226   24.5425 C   0  0  0  0  0  0  0  0  0  0  0  0
   10.9421  -16.3287   25.6329 O   0  0  0  0  0  0  0  0  0  0  0  0
    9.5063  -14.8445   24.6920 N   0  0  0  0  0  0  0  0  0  0  0  0
    9.1948  -14.2638   25.9967 C   0  0  1  0  0  0  0  0  0  0  0  0
    7.8944  -13.5254   25.9530 C   0  0  0  0  0  0  0  0  0  0  0  0
    7.6162  -12.8373   27.2553 C   0  0  0  0  0  0  0  0  0  0  0  0
    6.3112  -12.0469   27.1994 C   0  0  0  0  0  0  0  0  0  0  0  0
    6.0653  -11.2559   28.4452 C   0  0  0  0  0  0  0  0  0  0  0  0
    4.8111  -10.5749   28.4622 N   0  0  0  0  0  0  0  0  0  0  0  0
    9.2679  -15.2406   27.0639 C   0  0  0  0  0  0  0  0  0  0  0  0
    8.5867  -16.4161   27.1142 O   0  0  0  0  0  0  0  0  0  0  0  0
   10.0410  -14.9767   28.0585 O   0  0  0  0  0  0  0  0  0  0  0  0
  1  2  1  0
  2 12  2  0
  2  3  1  0
  3  4  2  0
  4  5  1  0
  5  6  1  0
  6  7  1  0
  7  8  1  6
  7  9  1  0
  9 10  2  0
 11  5  2  0
 12 11  1  0
 13  9  1  0
 13 14  1  0
 15 14  1  0
 15 17  1  0
 16 15  2  0
 18 17  1  0
 18 24  1  0
 18 19  1  6
 20 19  1  0
 21 20  1  0
 21 22  1  0
 23 22  1  0
 24 26  2  0
 24 25  1  0
M  END
$$$$
