YGK.pdb
     RDKit          3D

 26 26  0  0  1  0  0  0  0  0999 V2000
    7.4653  -11.6308   20.2016 O   0  0  0  0  0  0  0  0  0  0  0  0
    7.9997  -12.8835   19.8635 C   0  0  0  0  0  0  0  0  0  0  0  0
    8.9595  -13.3972   20.7054 C   0  0  0  0  0  0  0  0  0  0  0  0
    9.4907  -14.6278   20.3816 C   0  0  0  0  0  0  0  0  0  0  0  0
    9.0782  -15.3196   19.2581 C   0  0  0  0  0  0  0  0  0  0  0  0
    9.7090  -16.6200   18.9705 C   0  0  0  0  0  0  0  0  0  0  0  0
    8.7358  -17.7282   19.2462 C   0  0  2  0  0  0  0  0  0  0  0  0
    7.7842  -17.7477   18.1364 N   0  0  0  0  0  0  0  0  0  0  0  0
    8.0689  -17.5192   20.5294 C   0  0  0  0  0  0  0  0  0  0  0  0
    6.9148  -17.0443   20.6327 O   0  0  0  0  0  0  0  0  0  0  0  0
    8.1223  -14.7696   18.4512 C   0  0  0  0  0  0  0  0  0  0  0  0
    7.5589  -13.5230   18.7460 C   0  0  0  0  0  0  0  0  0  0  0  0
    8.7498  -17.8677   21.7420 N   0  0  0  0  0  0  0  0  0  0  0  0
    8.1409  -17.7651   23.0183 C   0  0  0  0  0  0  0  0  0  0  0  0
    8.7430  -16.7777   23.9470 C   0  0  0  0  0  0  0  0  0  0  0  0
    9.9168  -16.3131   23.6858 O   0  0  0  0  0  0  0  0  0  0  0  0
    8.1550  -16.2789   25.1157 N   0  0  0  0  0  0  0  0  0  0  0  0
    8.8299  -15.3127   25.9802 C   0  0  1  0  0  0  0  0  0  0  0  0
    7.8485  -14.6225   26.8737 C   0  0  0  0  0  0  0  0  0  0  0  0
    7.3796  -13.3322   26.2719 C   0  0  0  0  0  0  0  0  0  0  0  0
    6.4003  -12.6111   27.1948 C   0  0  0  0  0  0  0  0  0  0  0  0
    6.0036  -11.2663   26.6729 C   0  0  0  0  0  0  0  0  0  0  0  0
    5.0370  -10.5931   27.4788 N   0  0  0  0  0  0  0  0  0  0  0  0
    9.9456  -15.8999   26.6935 C   0  0  0  0  0  0  0  0  0  0  0  0
   11.0720  -15.2466   27.0846 O   0  0  0  0  0  0  0  0  0  0  0  0
    9.8732  -17.1522   26.9819 O   0  0  0  0  0  0  0  0  0  0  0  0
  1  2  1  0
  2 12  2  0
  2  3  1  0
  3  4  2  0
  4  5  1  0
  5  6  1  0
  6  7  1  0
  7  8  1  6
  7  9  1  0
  9 10  2  0
 11  5  2  0
 12 11  1  0
 13  9  1  0
 13 14  1  0
 15 14  1  0
 15 17  1  0
 16 15  2  0
 18 17  1  0
 18 24  1  0
 18 19  1  1
 20 19  1  0
 21 20  1  0
 21 22  1  0
 23 22  1  0
 24 26  2  0
 24 25  1  0
M  END
$$$$
