YGK.pdb
     RDKit          3D

 26 26  0  0  1  0  0  0  0  0999 V2000
    5.3172  -11.9559   27.2598 O   0  0  0  0  0  0  0  0  0  0  0  0
    6.1767  -12.3662   26.2292 C   0  0  0  0  0  0  0  0  0  0  0  0
    7.2121  -13.2023   26.5798 C   0  0  0  0  0  0  0  0  0  0  0  0
    8.0622  -13.6112   25.5740 C   0  0  0  0  0  0  0  0  0  0  0  0
    7.8843  -13.1999   24.2662 C   0  0  0  0  0  0  0  0  0  0  0  0
    8.8478  -13.6652   23.2528 C   0  0  0  0  0  0  0  0  0  0  0  0
    8.2638  -14.8164   22.4881 C   0  0  2  0  0  0  0  0  0  0  0  0
    7.2678  -15.4444   23.3548 N   0  0  0  0  0  0  0  0  0  0  0  0
    9.3109  -15.7564   22.0948 C   0  0  0  0  0  0  0  0  0  0  0  0
   10.2700  -15.4432   21.3528 O   0  0  0  0  0  0  0  0  0  0  0  0
    6.8418  -12.3692   23.9654 C   0  0  0  0  0  0  0  0  0  0  0  0
    5.9574  -11.9324   24.9581 C   0  0  0  0  0  0  0  0  0  0  0  0
    9.2584  -17.1083   22.5695 N   0  0  0  0  0  0  0  0  0  0  0  0
   10.2849  -18.0511   22.3097 C   0  0  0  0  0  0  0  0  0  0  0  0
   11.3546  -18.1440   23.3330 C   0  0  0  0  0  0  0  0  0  0  0  0
   12.4852  -17.5680   23.1055 O   0  0  0  0  0  0  0  0  0  0  0  0
   11.2664  -18.8119   24.5605 N   0  0  0  0  0  0  0  0  0  0  0  0
   12.2525  -18.6283   25.6237 C   0  0  1  0  0  0  0  0  0  0  0  0
   11.5799  -18.3399   26.9285 C   0  0  0  0  0  0  0  0  0  0  0  0
   11.5713  -16.8700   27.2223 C   0  0  0  0  0  0  0  0  0  0  0  0
   10.9694  -16.5805   28.5952 C   0  0  0  0  0  0  0  0  0  0  0  0
   10.9175  -15.1172   28.9022 C   0  0  0  0  0  0  0  0  0  0  0  0
   10.3047  -14.8082   30.1536 N   0  0  0  0  0  0  0  0  0  0  0  0
   13.1972  -19.7243   25.6915 C   0  0  0  0  0  0  0  0  0  0  0  0
   14.4214  -19.6838   26.2815 O   0  0  0  0  0  0  0  0  0  0  0  0
   12.8559  -20.8373   25.1424 O   0  0  0  0  0  0  0  0  0  0  0  0
  1  2  1  0
  2 12  2  0
  2  3  1  0
  3  4  2  0
  4  5  1  0
  5  6  1  0
  6  7  1  0
  7  8  1  1
  7  9  1  0
  9 10  2  0
 11  5  2  0
 12 11  1  0
 13  9  1  0
 13 14  1  0
 15 14  1  0
 15 17  1  0
 16 15  2  0
 18 17  1  0
 18 24  1  0
 18 19  1  1
 20 19  1  0
 21 20  1  0
 21 22  1  0
 23 22  1  0
 24 26  2  0
 24 25  1  0
M  END
$$$$
