YGK.pdb
     RDKit          3D

 26 26  0  0  1  0  0  0  0  0999 V2000
    6.9293  -12.0700   17.7736 O   0  0  0  0  0  0  0  0  0  0  0  0
    7.7057  -12.8910   18.6056 C   0  0  0  0  0  0  0  0  0  0  0  0
    7.2173  -13.1344   19.8690 C   0  0  0  0  0  0  0  0  0  0  0  0
    7.9731  -13.9402   20.6941 C   0  0  0  0  0  0  0  0  0  0  0  0
    9.1727  -14.4828   20.2726 C   0  0  0  0  0  0  0  0  0  0  0  0
    9.9309  -15.3176   21.2212 C   0  0  0  0  0  0  0  0  0  0  0  0
    9.3906  -16.7172   21.2098 C   0  0  2  0  0  0  0  0  0  0  0  0
    9.3476  -17.1477   19.8131 N   0  0  0  0  0  0  0  0  0  0  0  0
    8.0698  -16.7635   21.8329 C   0  0  0  0  0  0  0  0  0  0  0  0
    7.0138  -16.9552   21.1876 O   0  0  0  0  0  0  0  0  0  0  0  0
    9.6179  -14.2132   19.0090 C   0  0  0  0  0  0  0  0  0  0  0  0
    8.8795  -13.4001   18.1418 C   0  0  0  0  0  0  0  0  0  0  0  0
    7.9532  -16.5834   23.2505 N   0  0  0  0  0  0  0  0  0  0  0  0
    6.7141  -16.6725   23.9339 C   0  0  0  0  0  0  0  0  0  0  0  0
    6.7641  -16.4500   25.3995 C   0  0  0  0  0  0  0  0  0  0  0  0
    5.6568  -16.3357   26.0497 O   0  0  0  0  0  0  0  0  0  0  0  0
    7.9224  -16.3472   26.1794 N   0  0  0  0  0  0  0  0  0  0  0  0
    8.3247  -17.3879   27.1237 C   0  0  1  0  0  0  0  0  0  0  0  0
    7.8914  -18.7370   26.6442 C   0  0  0  0  0  0  0  0  0  0  0  0
    8.2784  -19.8097   27.6171 C   0  0  0  0  0  0  0  0  0  0  0  0
    7.9109  -21.1956   27.0926 C   0  0  0  0  0  0  0  0  0  0  0  0
    8.2426  -22.2837   28.0644 C   0  0  0  0  0  0  0  0  0  0  0  0
    8.0621  -23.6007   27.5448 N   0  0  0  0  0  0  0  0  0  0  0  0
    9.7340  -17.3171   27.4510 C   0  0  0  0  0  0  0  0  0  0  0  0
   10.2689  -17.4413   28.6947 O   0  0  0  0  0  0  0  0  0  0  0  0
   10.5588  -17.1143   26.4839 O   0  0  0  0  0  0  0  0  0  0  0  0
  1  2  1  0
  2 12  2  0
  2  3  1  0
  3  4  2  0
  4  5  1  0
  5  6  1  0
  6  7  1  0
  7  8  1  6
  7  9  1  0
  9 10  2  0
 11  5  2  0
 12 11  1  0
 13  9  1  0
 13 14  1  0
 15 14  1  0
 15 17  1  0
 16 15  2  0
 18 17  1  0
 18 24  1  0
 18 19  1  6
 20 19  1  0
 21 20  1  0
 21 22  1  0
 23 22  1  0
 24 26  2  0
 24 25  1  0
M  END
$$$$
