YGK.pdb
     RDKit          3D

 26 26  0  0  1  0  0  0  0  0999 V2000
    5.8727  -10.3860   27.5744 O   0  0  0  0  0  0  0  0  0  0  0  0
    6.2214  -11.4068   26.6768 C   0  0  0  0  0  0  0  0  0  0  0  0
    7.5158  -11.8705   26.7357 C   0  0  0  0  0  0  0  0  0  0  0  0
    7.8681  -12.8736   25.8576 C   0  0  0  0  0  0  0  0  0  0  0  0
    6.9606  -13.3942   24.9539 C   0  0  0  0  0  0  0  0  0  0  0  0
    7.4206  -14.4508   24.0355 C   0  0  0  0  0  0  0  0  0  0  0  0
    6.7247  -15.7406   24.3566 C   0  0  2  0  0  0  0  0  0  0  0  0
    7.0505  -16.0688   25.7436 N   0  0  0  0  0  0  0  0  0  0  0  0
    7.1453  -16.7947   23.4363 C   0  0  0  0  0  0  0  0  0  0  0  0
    7.0011  -16.7184   22.1947 O   0  0  0  0  0  0  0  0  0  0  0  0
    5.6860  -12.9021   24.9319 C   0  0  0  0  0  0  0  0  0  0  0  0
    5.2900  -11.8843   25.8070 C   0  0  0  0  0  0  0  0  0  0  0  0
    7.7550  -17.9830   23.9578 N   0  0  0  0  0  0  0  0  0  0  0  0
    7.3054  -18.6168   25.1436 C   0  0  0  0  0  0  0  0  0  0  0  0
    8.0122  -19.8652   25.5202 C   0  0  0  0  0  0  0  0  0  0  0  0
    7.3877  -20.7456   26.2248 O   0  0  0  0  0  0  0  0  0  0  0  0
    9.3285  -20.2022   25.1819 N   0  0  0  0  0  0  0  0  0  0  0  0
   10.3092  -20.6245   26.1801 C   0  0  1  0  0  0  0  0  0  0  0  0
   11.6687  -20.7515   25.5690 C   0  0  0  0  0  0  0  0  0  0  0  0
   11.5843  -21.2235   24.1488 C   0  0  0  0  0  0  0  0  0  0  0  0
   12.9586  -21.2365   23.4841 C   0  0  0  0  0  0  0  0  0  0  0  0
   12.9066  -21.7138   22.0671 C   0  0  0  0  0  0  0  0  0  0  0  0
   14.1693  -21.6965   21.4021 N   0  0  0  0  0  0  0  0  0  0  0  0
   10.2840  -19.7881   27.3625 C   0  0  0  0  0  0  0  0  0  0  0  0
    9.8635  -18.4963   27.4141 O   0  0  0  0  0  0  0  0  0  0  0  0
   10.6997  -20.3059   28.4652 O   0  0  0  0  0  0  0  0  0  0  0  0
  1  2  1  0
  2 12  2  0
  2  3  1  0
  3  4  2  0
  4  5  1  0
  5  6  1  0
  6  7  1  0
  7  8  1  1
  7  9  1  0
  9 10  2  0
 11  5  2  0
 12 11  1  0
 13  9  1  0
 13 14  1  0
 15 14  1  0
 15 17  1  0
 16 15  2  0
 18 17  1  0
 18 24  1  0
 18 19  1  6
 20 19  1  0
 21 20  1  0
 21 22  1  0
 23 22  1  0
 24 26  2  0
 24 25  1  0
M  END
$$$$
