YGK.pdb
     RDKit          3D

 26 26  0  0  1  0  0  0  0  0999 V2000
    4.7849  -10.8692   27.5710 O   0  0  0  0  0  0  0  0  0  0  0  0
    5.6478  -11.7296   26.8750 C   0  0  0  0  0  0  0  0  0  0  0  0
    6.5946  -12.3955   27.6196 C   0  0  0  0  0  0  0  0  0  0  0  0
    7.4471  -13.2435   26.9447 C   0  0  0  0  0  0  0  0  0  0  0  0
    7.3572  -13.4197   25.5765 C   0  0  0  0  0  0  0  0  0  0  0  0
    8.3183  -14.3285   24.9269 C   0  0  0  0  0  0  0  0  0  0  0  0
    7.5901  -15.2644   24.0076 C   0  0  2  0  0  0  0  0  0  0  0  0
    6.7933  -16.1562   24.8487 N   0  0  0  0  0  0  0  0  0  0  0  0
    8.5346  -16.0046   23.1740 C   0  0  0  0  0  0  0  0  0  0  0  0
    8.7431  -17.2330   23.2996 O   0  0  0  0  0  0  0  0  0  0  0  0
    6.4009  -12.7370   24.8787 C   0  0  0  0  0  0  0  0  0  0  0  0
    5.5170  -11.8673   25.5275 C   0  0  0  0  0  0  0  0  0  0  0  0
    9.2695  -15.3114   22.1566 N   0  0  0  0  0  0  0  0  0  0  0  0
   10.3229  -15.9172   21.4262 C   0  0  0  0  0  0  0  0  0  0  0  0
   11.4312  -16.4822   22.2340 C   0  0  0  0  0  0  0  0  0  0  0  0
   11.3809  -17.7237   22.5773 O   0  0  0  0  0  0  0  0  0  0  0  0
   12.5641  -15.7900   22.6789 N   0  0  0  0  0  0  0  0  0  0  0  0
   13.6099  -16.4303   23.4744 C   0  0  1  0  0  0  0  0  0  0  0  0
   13.1817  -17.7938   23.9164 C   0  0  0  0  0  0  0  0  0  0  0  0
   14.2336  -18.4463   24.7619 C   0  0  0  0  0  0  0  0  0  0  0  0
   13.7909  -19.8299   25.2315 C   0  0  0  0  0  0  0  0  0  0  0  0
   14.7913  -20.4762   26.1369 C   0  0  0  0  0  0  0  0  0  0  0  0
   14.3355  -21.6902   26.7329 N   0  0  0  0  0  0  0  0  0  0  0  0
   14.8943  -16.4178   22.8046 C   0  0  0  0  0  0  0  0  0  0  0  0
   16.0177  -15.7952   23.2502 O   0  0  0  0  0  0  0  0  0  0  0  0
   14.9863  -17.0462   21.6851 O   0  0  0  0  0  0  0  0  0  0  0  0
  1  2  1  0
  2 12  2  0
  2  3  1  0
  3  4  2  0
  4  5  1  0
  5  6  1  0
  6  7  1  0
  7  8  1  1
  7  9  1  0
  9 10  2  0
 11  5  2  0
 12 11  1  0
 13  9  1  0
 13 14  1  0
 15 14  1  0
 15 17  1  0
 16 15  2  0
 18 17  1  0
 18 24  1  0
 18 19  1  6
 20 19  1  0
 21 20  1  0
 21 22  1  0
 23 22  1  0
 24 26  2  0
 24 25  1  0
M  END
$$$$
