VQQ.pdb
     RDKit          3D

 26 25  0  0  1  0  0  0  0  0999 V2000
   14.7454  -10.4661  -15.5649 C   0  0  0  0  0  0  0  0  0  0  0  0
   14.7480  -11.8555  -14.9577 C   0  0  1  0  0  0  0  0  0  0  0  0
   13.3865  -12.4627  -15.2579 C   0  0  0  0  0  0  0  0  0  0  0  0
   15.7752  -12.7465  -15.6185 C   0  0  2  0  0  0  0  0  0  0  0  0
   15.7317  -14.0311  -14.9445 N   0  0  0  0  0  0  0  0  0  0  0  0
   17.1357  -12.1587  -15.5682 C   0  0  0  0  0  0  0  0  0  0  0  0
   17.7668  -12.1124  -14.5088 O   0  0  0  0  0  0  0  0  0  0  0  0
   20.5948  -12.1740  -20.4914 N   0  0  0  0  0  0  0  0  0  0  0  0
   21.5271  -11.5338  -19.6360 C   0  0  0  0  0  0  0  0  0  0  0  0
   22.7302  -11.3827  -19.9948 O   0  0  0  0  0  0  0  0  0  0  0  0
   21.0370  -11.0539  -18.3167 C   0  0  0  0  0  0  0  0  0  0  0  0
   19.6057  -11.4751  -18.1712 C   0  0  0  0  0  0  0  0  0  0  0  0
   19.0076  -11.0598  -16.8497 C   0  0  2  0  0  0  0  0  0  0  0  0
   17.6960  -11.6541  -16.7494 N   0  0  0  0  0  0  0  0  0  0  0  0
   18.9799   -9.5946  -16.6799 C   0  0  0  0  0  0  0  0  0  0  0  0
   18.0650   -8.9505  -17.2590 O   0  0  0  0  0  0  0  0  0  0  0  0
   22.1845   -6.1243  -12.4898 N   0  0  0  0  0  0  0  0  0  0  0  0
   21.5339   -5.0885  -13.2136 C   0  0  0  0  0  0  0  0  0  0  0  0
   21.6449   -3.8958  -12.8436 O   0  0  0  0  0  0  0  0  0  0  0  0
   20.7292   -5.4680  -14.4079 C   0  0  0  0  0  0  0  0  0  0  0  0
   20.7708   -6.9578  -14.6446 C   0  0  0  0  0  0  0  0  0  0  0  0
   19.9413   -7.4256  -15.7862 C   0  0  2  0  0  0  0  0  0  0  0  0
   19.9261   -8.8781  -15.9019 N   0  0  0  0  0  0  0  0  0  0  0  0
   20.2248   -6.7880  -17.0839 C   0  0  0  0  0  0  0  0  0  0  0  0
   21.2201   -7.1268  -17.9634 O   0  0  0  0  0  0  0  0  0  0  0  0
   19.4627   -5.8178  -17.4233 O   0  0  0  0  0  0  0  0  0  0  0  0
  2  1  1  6
  2  4  1  0
  3  2  1  0
  4  6  1  0
  4  5  1  1
  6 14  1  0
  7  6  2  0
  9  8  1  0
  9 10  2  0
 11 12  1  0
 11  9  1  0
 13 12  1  6
 13 15  1  0
 14 13  1  0
 15 23  1  0
 15 16  2  0
 17 18  1  0
 18 20  1  0
 18 19  2  0
 20 21  1  0
 22 21  1  1
 22 24  1  0
 23 22  1  0
 24 26  2  0
 24 25  1  0
M  END
$$$$
