VQQ.pdb
     RDKit          3D

 26 25  0  0  1  0  0  0  0  0999 V2000
   28.5876  -20.1193  -13.2220 C   0  0  0  0  0  0  0  0  0  0  0  0
   27.2644  -19.8677  -13.9183 C   0  0  1  0  0  0  0  0  0  0  0  0
   27.1736  -20.8744  -15.0544 C   0  0  0  0  0  0  0  0  0  0  0  0
   26.0948  -20.1429  -13.0007 C   0  0  2  0  0  0  0  0  0  0  0  0
   26.1970  -21.5257  -12.5720 N   0  0  0  0  0  0  0  0  0  0  0  0
   24.7945  -19.8800  -13.6632 C   0  0  0  0  0  0  0  0  0  0  0  0
   24.5165  -18.7555  -14.0886 O   0  0  0  0  0  0  0  0  0  0  0  0
   22.7964  -18.8186  -17.5635 N   0  0  0  0  0  0  0  0  0  0  0  0
   21.5579  -19.5091  -17.5416 C   0  0  0  0  0  0  0  0  0  0  0  0
   20.6079  -19.1488  -18.2943 O   0  0  0  0  0  0  0  0  0  0  0  0
   21.4252  -20.6594  -16.6087 C   0  0  0  0  0  0  0  0  0  0  0  0
   22.7284  -20.8251  -15.8867 C   0  0  0  0  0  0  0  0  0  0  0  0
   22.5685  -20.8159  -14.3863 C   0  0  2  0  0  0  0  0  0  0  0  0
   23.8817  -20.9346  -13.7990 N   0  0  0  0  0  0  0  0  0  0  0  0
   21.6399  -21.8597  -13.9128 C   0  0  0  0  0  0  0  0  0  0  0  0
   21.9547  -23.0636  -14.1102 O   0  0  0  0  0  0  0  0  0  0  0  0
   16.2486  -20.9889  -10.6708 N   0  0  0  0  0  0  0  0  0  0  0  0
   16.2311  -22.4039  -10.8039 C   0  0  0  0  0  0  0  0  0  0  0  0
   15.3188  -23.0758  -10.2674 O   0  0  0  0  0  0  0  0  0  0  0  0
   17.3195  -23.0463  -11.5917 C   0  0  0  0  0  0  0  0  0  0  0  0
   18.3734  -22.0419  -11.9887 C   0  0  0  0  0  0  0  0  0  0  0  0
   19.5003  -22.6074  -12.7766 C   0  0  2  0  0  0  0  0  0  0  0  0
   20.4170  -21.5782  -13.2499 N   0  0  0  0  0  0  0  0  0  0  0  0
   19.1205  -23.5270  -13.8633 C   0  0  0  0  0  0  0  0  0  0  0  0
   18.8745  -23.1943  -15.1701 O   0  0  0  0  0  0  0  0  0  0  0  0
   19.0085  -24.7634  -13.5535 O   0  0  0  0  0  0  0  0  0  0  0  0
  2  1  1  1
  2  4  1  0
  3  2  1  0
  4  6  1  0
  4  5  1  6
  6 14  1  0
  7  6  2  0
  9  8  1  0
  9 10  2  0
 11 12  1  0
 11  9  1  0
 13 12  1  6
 13 15  1  0
 14 13  1  0
 15 23  1  0
 15 16  2  0
 17 18  1  0
 18 20  1  0
 18 19  2  0
 20 21  1  0
 22 21  1  6
 22 24  1  0
 23 22  1  0
 24 26  2  0
 24 25  1  0
M  END
$$$$
