VQQ.pdb
     RDKit          3D

 26 25  0  0  1  0  0  0  0  0999 V2000
   17.9526  -11.9800  -17.6277 C   0  0  0  0  0  0  0  0  0  0  0  0
   17.8880  -11.6401  -16.1514 C   0  0  1  0  0  0  0  0  0  0  0  0
   17.8574  -12.9632  -15.4025 C   0  0  0  0  0  0  0  0  0  0  0  0
   19.1328  -10.9128  -15.6959 C   0  0  2  0  0  0  0  0  0  0  0  0
   19.6586  -11.6310  -14.5495 N   0  0  0  0  0  0  0  0  0  0  0  0
   18.8572   -9.4946  -15.3618 C   0  0  0  0  0  0  0  0  0  0  0  0
   18.5023   -8.6962  -16.2332 O   0  0  0  0  0  0  0  0  0  0  0  0
   17.6868   -8.0448   -9.5992 N   0  0  0  0  0  0  0  0  0  0  0  0
   16.5936   -8.1462  -10.4966 C   0  0  0  0  0  0  0  0  0  0  0  0
   15.4186   -8.3171  -10.0616 O   0  0  0  0  0  0  0  0  0  0  0  0
   16.8831   -8.0447  -11.9516 C   0  0  0  0  0  0  0  0  0  0  0  0
   18.3540   -7.8078  -12.1175 C   0  0  0  0  0  0  0  0  0  0  0  0
   18.7719   -7.7287  -13.5652 C   0  0  2  0  0  0  0  0  0  0  0  0
   19.0073   -9.0735  -14.0336 N   0  0  0  0  0  0  0  0  0  0  0  0
   19.9368   -6.8465  -13.7674 C   0  0  0  0  0  0  0  0  0  0  0  0
   21.0740   -7.2895  -13.4548 O   0  0  0  0  0  0  0  0  0  0  0  0
   23.0093   -1.9575  -18.2869 N   0  0  0  0  0  0  0  0  0  0  0  0
   21.9813   -2.7961  -17.7769 C   0  0  0  0  0  0  0  0  0  0  0  0
   21.0027   -3.1026  -18.4979 O   0  0  0  0  0  0  0  0  0  0  0  0
   22.1095   -3.2882  -16.3771 C   0  0  0  0  0  0  0  0  0  0  0  0
   20.9213   -4.1305  -15.9825 C   0  0  0  0  0  0  0  0  0  0  0  0
   20.9986   -4.7054  -14.6136 C   0  0  2  0  0  0  0  0  0  0  0  0
   19.8419   -5.5317  -14.2932 N   0  0  0  0  0  0  0  0  0  0  0  0
   21.2861   -3.7450  -13.5338 C   0  0  0  0  0  0  0  0  0  0  0  0
   22.4880   -3.1394  -13.2741 O   0  0  0  0  0  0  0  0  0  0  0  0
   20.3123   -3.4470  -12.7590 O   0  0  0  0  0  0  0  0  0  0  0  0
  2  1  1  6
  2  4  1  0
  3  2  1  0
  4  6  1  0
  4  5  1  1
  6 14  1  0
  7  6  2  0
  9  8  1  0
  9 10  2  0
 11 12  1  0
 11  9  1  0
 13 12  1  1
 13 15  1  0
 14 13  1  0
 15 23  1  0
 15 16  2  0
 17 18  1  0
 18 20  1  0
 18 19  2  0
 20 21  1  0
 22 21  1  6
 22 24  1  0
 23 22  1  0
 24 26  2  0
 24 25  1  0
M  END
$$$$
