VQQ.pdb
     RDKit          3D

 26 25  0  0  1  0  0  0  0  0999 V2000
   28.9284  -20.4339  -17.4502 C   0  0  0  0  0  0  0  0  0  0  0  0
   27.7986  -21.1951  -16.7844 C   0  0  1  0  0  0  0  0  0  0  0  0
   28.3792  -21.8199  -15.5254 C   0  0  0  0  0  0  0  0  0  0  0  0
   26.6931  -20.2658  -16.3370 C   0  0  2  0  0  0  0  0  0  0  0  0
   27.3181  -19.1420  -15.6642 N   0  0  0  0  0  0  0  0  0  0  0  0
   25.7177  -20.9476  -15.4524 C   0  0  0  0  0  0  0  0  0  0  0  0
   25.1290  -21.9661  -15.8249 O   0  0  0  0  0  0  0  0  0  0  0  0
   25.9377  -20.2702   -9.4435 N   0  0  0  0  0  0  0  0  0  0  0  0
   24.7320  -21.0161   -9.4744 C   0  0  0  0  0  0  0  0  0  0  0  0
   24.2117  -21.4414   -8.4033 O   0  0  0  0  0  0  0  0  0  0  0  0
   24.1134  -21.2736  -10.8019 C   0  0  0  0  0  0  0  0  0  0  0  0
   25.0240  -20.7176  -11.8548 C   0  0  0  0  0  0  0  0  0  0  0  0
   24.4890  -20.9156  -13.2517 C   0  0  2  0  0  0  0  0  0  0  0  0
   25.4739  -20.4136  -14.1799 N   0  0  0  0  0  0  0  0  0  0  0  0
   23.1644  -20.2944  -13.4405 C   0  0  0  0  0  0  0  0  0  0  0  0
   23.0915  -19.0371  -13.4041 O   0  0  0  0  0  0  0  0  0  0  0  0
   19.0478  -21.7878  -17.5601 N   0  0  0  0  0  0  0  0  0  0  0  0
   18.2305  -20.8715  -16.8442 C   0  0  0  0  0  0  0  0  0  0  0  0
   17.1069  -20.5451  -17.2943 O   0  0  0  0  0  0  0  0  0  0  0  0
   18.7514  -20.3237  -15.5610 C   0  0  0  0  0  0  0  0  0  0  0  0
   20.1180  -20.8794  -15.2437 C   0  0  0  0  0  0  0  0  0  0  0  0
   20.6834  -20.4256  -13.9458 C   0  0  2  0  0  0  0  0  0  0  0  0
   21.9750  -21.0368  -13.6599 N   0  0  0  0  0  0  0  0  0  0  0  0
   19.7779  -20.5209  -12.7874 C   0  0  0  0  0  0  0  0  0  0  0  0
   18.8938  -19.5657  -12.3575 O   0  0  0  0  0  0  0  0  0  0  0  0
   19.8231  -21.6079  -12.1138 O   0  0  0  0  0  0  0  0  0  0  0  0
  2  1  1  1
  2  4  1  0
  3  2  1  0
  4  6  1  0
  4  5  1  1
  6 14  1  0
  7  6  2  0
  9  8  1  0
  9 10  2  0
 11 12  1  0
 11  9  1  0
 13 12  1  1
 13 15  1  0
 14 13  1  0
 15 23  1  0
 15 16  2  0
 17 18  1  0
 18 20  1  0
 18 19  2  0
 20 21  1  0
 22 21  1  6
 22 24  1  0
 23 22  1  0
 24 26  2  0
 24 25  1  0
M  END
$$$$
