VQQ.pdb
     RDKit          3D

 26 25  0  0  1  0  0  0  0  0999 V2000
   16.2899  -26.9242   -5.7584 C   0  0  0  0  0  0  0  0  0  0  0  0
   17.2477  -26.5632   -6.8771 C   0  0  1  0  0  0  0  0  0  0  0  0
   16.7289  -27.2498   -8.1309 C   0  0  0  0  0  0  0  0  0  0  0  0
   17.2347  -25.0780   -7.1593 C   0  0  2  0  0  0  0  0  0  0  0  0
   18.5983  -24.6826   -7.4604 N   0  0  0  0  0  0  0  0  0  0  0  0
   16.6883  -24.3005   -6.0209 C   0  0  0  0  0  0  0  0  0  0  0  0
   17.4123  -23.9583   -5.0821 O   0  0  0  0  0  0  0  0  0  0  0  0
   11.7052  -20.8609   -4.7379 N   0  0  0  0  0  0  0  0  0  0  0  0
   12.4824  -20.4984   -5.8673 C   0  0  0  0  0  0  0  0  0  0  0  0
   12.3752  -19.3467   -6.3783 O   0  0  0  0  0  0  0  0  0  0  0  0
   13.4162  -21.5160   -6.4181 C   0  0  0  0  0  0  0  0  0  0  0  0
   13.3315  -22.7396   -5.5563 C   0  0  0  0  0  0  0  0  0  0  0  0
   14.6743  -23.1658   -5.0159 C   0  0  2  0  0  0  0  0  0  0  0  0
   15.3291  -23.9590   -6.0285 N   0  0  0  0  0  0  0  0  0  0  0  0
   14.5633  -23.8732   -3.7262 C   0  0  0  0  0  0  0  0  0  0  0  0
   14.2519  -25.0939   -3.7474 O   0  0  0  0  0  0  0  0  0  0  0  0
   17.3368  -26.3906   -0.2344 N   0  0  0  0  0  0  0  0  0  0  0  0
   16.5691  -26.0348    0.9076 C   0  0  0  0  0  0  0  0  0  0  0  0
   16.5281  -26.7976    1.9017 O   0  0  0  0  0  0  0  0  0  0  0  0
   15.8282  -24.7432    0.8783 C   0  0  0  0  0  0  0  0  0  0  0  0
   15.9327  -24.0833   -0.4747 C   0  0  0  0  0  0  0  0  0  0  0  0
   14.6391  -23.9378   -1.1928 C   0  0  2  0  0  0  0  0  0  0  0  0
   14.7882  -23.2523   -2.4701 N   0  0  0  0  0  0  0  0  0  0  0  0
   13.5329  -23.3668   -0.4047 C   0  0  0  0  0  0  0  0  0  0  0  0
   13.0270  -22.0966   -0.5028 O   0  0  0  0  0  0  0  0  0  0  0  0
   12.9898  -24.1372    0.4607 O   0  0  0  0  0  0  0  0  0  0  0  0
  2  1  1  1
  2  4  1  0
  3  2  1  0
  4  6  1  0
  4  5  1  1
  6 14  1  0
  7  6  2  0
  9  8  1  0
  9 10  2  0
 11 12  1  0
 11  9  1  0
 13 12  1  6
 13 15  1  0
 14 13  1  0
 15 23  1  0
 15 16  2  0
 17 18  1  0
 18 20  1  0
 18 19  2  0
 20 21  1  0
 22 21  1  1
 22 24  1  0
 23 22  1  0
 24 26  2  0
 24 25  1  0
M  END
$$$$
