VQQ.pdb
     RDKit          3D

 26 25  0  0  1  0  0  0  0  0999 V2000
   29.2892  -20.7362  -17.5738 C   0  0  0  0  0  0  0  0  0  0  0  0
   27.7922  -20.9764  -17.5566 C   0  0  1  0  0  0  0  0  0  0  0  0
   27.5211  -22.0965  -18.5489 C   0  0  0  0  0  0  0  0  0  0  0  0
   27.3264  -21.4716  -16.2062 C   0  0  2  0  0  0  0  0  0  0  0  0
   28.1709  -22.5942  -15.8418 N   0  0  0  0  0  0  0  0  0  0  0  0
   25.8947  -21.8575  -16.2191 C   0  0  0  0  0  0  0  0  0  0  0  0
   25.0276  -21.0618  -16.5902 O   0  0  0  0  0  0  0  0  0  0  0  0
   24.3711  -27.7262  -15.2260 N   0  0  0  0  0  0  0  0  0  0  0  0
   23.0481  -27.2215  -15.3028 C   0  0  0  0  0  0  0  0  0  0  0  0
   22.0565  -27.9961  -15.1776 O   0  0  0  0  0  0  0  0  0  0  0  0
   22.8781  -25.7624  -15.5337 C   0  0  0  0  0  0  0  0  0  0  0  0
   24.2394  -25.1356  -15.5681 C   0  0  0  0  0  0  0  0  0  0  0  0
   24.1858  -23.6323  -15.6868 C   0  0  2  0  0  0  0  0  0  0  0  0
   25.5404  -23.1472  -15.8007 N   0  0  0  0  0  0  0  0  0  0  0  0
   23.4516  -23.0054  -14.5714 C   0  0  0  0  0  0  0  0  0  0  0  0
   24.0684  -22.8211  -13.4884 O   0  0  0  0  0  0  0  0  0  0  0  0
   20.7475  -17.8707  -14.5606 N   0  0  0  0  0  0  0  0  0  0  0  0
   20.3156  -18.2416  -13.2583 C   0  0  0  0  0  0  0  0  0  0  0  0
   19.7477  -17.4024  -12.5202 O   0  0  0  0  0  0  0  0  0  0  0  0
   20.5594  -19.6415  -12.8122 C   0  0  0  0  0  0  0  0  0  0  0  0
   21.3142  -20.4251  -13.8578 C   0  0  0  0  0  0  0  0  0  0  0  0
   21.3971  -21.8860  -13.5948 C   0  0  2  0  0  0  0  0  0  0  0  0
   22.0938  -22.6016  -14.6560 N   0  0  0  0  0  0  0  0  0  0  0  0
   20.1253  -22.5452  -13.2501 C   0  0  0  0  0  0  0  0  0  0  0  0
   19.4902  -22.5166  -12.0357 O   0  0  0  0  0  0  0  0  0  0  0  0
   19.5565  -23.2134  -14.1813 O   0  0  0  0  0  0  0  0  0  0  0  0
  2  1  1  1
  2  4  1  0
  3  2  1  0
  4  6  1  0
  4  5  1  6
  6 14  1  0
  7  6  2  0
  9  8  1  0
  9 10  2  0
 11 12  1  0
 11  9  1  0
 13 12  1  1
 13 15  1  0
 14 13  1  0
 15 23  1  0
 15 16  2  0
 17 18  1  0
 18 20  1  0
 18 19  2  0
 20 21  1  0
 22 21  1  6
 22 24  1  0
 23 22  1  0
 24 26  2  0
 24 25  1  0
M  END
$$$$
