VQQ.pdb
     RDKit          3D

 26 25  0  0  1  0  0  0  0  0999 V2000
   27.4241  -17.6159  -18.1354 C   0  0  0  0  0  0  0  0  0  0  0  0
   26.6738  -17.9064  -16.8502 C   0  0  1  0  0  0  0  0  0  0  0  0
   25.4131  -18.6597  -17.2446 C   0  0  0  0  0  0  0  0  0  0  0  0
   27.4622  -18.8250  -15.9444 C   0  0  2  0  0  0  0  0  0  0  0  0
   28.3747  -19.5808  -16.7825 N   0  0  0  0  0  0  0  0  0  0  0  0
   26.5807  -19.7246  -15.1616 C   0  0  0  0  0  0  0  0  0  0  0  0
   26.2108  -20.8076  -15.6231 O   0  0  0  0  0  0  0  0  0  0  0  0
   25.7138  -22.1238  -11.0539 N   0  0  0  0  0  0  0  0  0  0  0  0
   26.8660  -21.3450  -10.7765 C   0  0  0  0  0  0  0  0  0  0  0  0
   27.8976  -21.8790  -10.2768 O   0  0  0  0  0  0  0  0  0  0  0  0
   26.8109  -19.8933  -11.0937 C   0  0  0  0  0  0  0  0  0  0  0  0
   25.4432  -19.5850  -11.6243 C   0  0  0  0  0  0  0  0  0  0  0  0
   25.2506  -20.0530  -13.0458 C   0  0  2  0  0  0  0  0  0  0  0  0
   26.1725  -19.3228  -13.8826 N   0  0  0  0  0  0  0  0  0  0  0  0
   23.8520  -19.9232  -13.4965 C   0  0  0  0  0  0  0  0  0  0  0  0
   23.4603  -18.7912  -13.8871 O   0  0  0  0  0  0  0  0  0  0  0  0
   22.7830  -21.9031  -17.3999 N   0  0  0  0  0  0  0  0  0  0  0  0
   21.5354  -21.2382  -17.5470 C   0  0  0  0  0  0  0  0  0  0  0  0
   21.1867  -20.7935  -18.6660 O   0  0  0  0  0  0  0  0  0  0  0  0
   20.6733  -21.0928  -16.3413 C   0  0  0  0  0  0  0  0  0  0  0  0
   21.2846  -21.7810  -15.1455 C   0  0  0  0  0  0  0  0  0  0  0  0
   21.5591  -20.8857  -13.9909 C   0  0  2  0  0  0  0  0  0  0  0  0
   22.9307  -21.0026  -13.5126 N   0  0  0  0  0  0  0  0  0  0  0  0
   20.5957  -20.9654  -12.8789 C   0  0  0  0  0  0  0  0  0  0  0  0
   19.2778  -20.5898  -12.9078 O   0  0  0  0  0  0  0  0  0  0  0  0
   21.0366  -21.4333  -11.7725 O   0  0  0  0  0  0  0  0  0  0  0  0
  2  1  1  6
  2  4  1  0
  3  2  1  0
  4  6  1  0
  4  5  1  6
  6 14  1  0
  7  6  2  0
  9  8  1  0
  9 10  2  0
 11 12  1  0
 11  9  1  0
 13 12  1  1
 13 15  1  0
 14 13  1  0
 15 23  1  0
 15 16  2  0
 17 18  1  0
 18 20  1  0
 18 19  2  0
 20 21  1  0
 22 21  1  6
 22 24  1  0
 23 22  1  0
 24 26  2  0
 24 25  1  0
M  END
$$$$
