VQQ.pdb
     RDKit          3D

 26 25  0  0  1  0  0  0  0  0999 V2000
   12.1608  -10.3513   -9.4693 C   0  0  0  0  0  0  0  0  0  0  0  0
   13.6695  -10.3893   -9.6161 C   0  0  1  0  0  0  0  0  0  0  0  0
   13.9743  -10.0198  -11.0594 C   0  0  0  0  0  0  0  0  0  0  0  0
   14.3364   -9.3440   -8.7510 C   0  0  2  0  0  0  0  0  0  0  0  0
   13.3385   -8.3363   -8.4427 N   0  0  0  0  0  0  0  0  0  0  0  0
   15.5187   -8.7444   -9.4153 C   0  0  0  0  0  0  0  0  0  0  0  0
   16.4847   -9.4410   -9.7385 O   0  0  0  0  0  0  0  0  0  0  0  0
   18.4691   -7.0800  -13.6618 N   0  0  0  0  0  0  0  0  0  0  0  0
   18.7374   -8.1757  -12.8025 C   0  0  0  0  0  0  0  0  0  0  0  0
   19.7548   -8.9034  -12.9874 O   0  0  0  0  0  0  0  0  0  0  0  0
   17.7847   -8.4294  -11.6894 C   0  0  0  0  0  0  0  0  0  0  0  0
   16.7257   -7.3693  -11.7331 C   0  0  0  0  0  0  0  0  0  0  0  0
   16.5476   -6.6687  -10.4086 C   0  0  2  0  0  0  0  0  0  0  0  0
   15.5215   -7.3666   -9.6714 N   0  0  0  0  0  0  0  0  0  0  0  0
   16.2533   -5.2319  -10.5670 C   0  0  0  0  0  0  0  0  0  0  0  0
   15.2371   -4.9080  -11.2377 O   0  0  0  0  0  0  0  0  0  0  0  0
   17.8128   -0.9188   -6.3998 N   0  0  0  0  0  0  0  0  0  0  0  0
   17.1431   -0.0760   -7.3279 C   0  0  0  0  0  0  0  0  0  0  0  0
   16.9367    1.1288   -7.0494 O   0  0  0  0  0  0  0  0  0  0  0  0
   16.7038   -0.6690   -8.6214 C   0  0  0  0  0  0  0  0  0  0  0  0
   17.0923   -2.1241   -8.7160 C   0  0  0  0  0  0  0  0  0  0  0  0
   16.6506   -2.8018   -9.9633 C   0  0  2  0  0  0  0  0  0  0  0  0
   17.0519   -4.2020  -10.0053 N   0  0  0  0  0  0  0  0  0  0  0  0
   16.9893   -2.1099  -11.2193 C   0  0  0  0  0  0  0  0  0  0  0  0
   16.5257   -0.8880  -11.6326 O   0  0  0  0  0  0  0  0  0  0  0  0
   17.7994   -2.7136  -12.0045 O   0  0  0  0  0  0  0  0  0  0  0  0
  2  1  1  6
  2  4  1  0
  3  2  1  0
  4  6  1  0
  4  5  1  6
  6 14  1  0
  7  6  2  0
  9  8  1  0
  9 10  2  0
 11 12  1  0
 11  9  1  0
 13 12  1  6
 13 15  1  0
 14 13  1  0
 15 23  1  0
 15 16  2  0
 17 18  1  0
 18 20  1  0
 18 19  2  0
 20 21  1  0
 22 21  1  1
 22 24  1  0
 23 22  1  0
 24 26  2  0
 24 25  1  0
M  END
$$$$
