VQQ.pdb
     RDKit          3D

 26 25  0  0  1  0  0  0  0  0999 V2000
   28.7507  -18.0397  -16.0461 C   0  0  0  0  0  0  0  0  0  0  0  0
   28.2800  -19.3512  -15.4484 C   0  0  1  0  0  0  0  0  0  0  0  0
   28.4508  -19.2277  -13.9424 C   0  0  0  0  0  0  0  0  0  0  0  0
   26.8065  -19.5774  -15.7004 C   0  0  2  0  0  0  0  0  0  0  0  0
   26.1458  -18.2899  -15.5897 N   0  0  0  0  0  0  0  0  0  0  0  0
   26.2259  -20.5628  -14.7567 C   0  0  0  0  0  0  0  0  0  0  0  0
   26.5204  -21.7589  -14.8294 O   0  0  0  0  0  0  0  0  0  0  0  0
   25.3149  -20.1061   -8.9288 N   0  0  0  0  0  0  0  0  0  0  0  0
   26.4156  -20.7080   -9.5898 C   0  0  0  0  0  0  0  0  0  0  0  0
   27.4813  -20.9655   -8.9596 O   0  0  0  0  0  0  0  0  0  0  0  0
   26.2661  -21.0195  -11.0361 C   0  0  0  0  0  0  0  0  0  0  0  0
   24.9053  -20.5655  -11.4711 C   0  0  0  0  0  0  0  0  0  0  0  0
   24.5824  -20.9682  -12.8890 C   0  0  2  0  0  0  0  0  0  0  0  0
   25.3325  -20.1114  -13.7758 N   0  0  0  0  0  0  0  0  0  0  0  0
   23.1337  -20.9406  -13.1659 C   0  0  0  0  0  0  0  0  0  0  0  0
   22.5783  -19.8168  -13.2926 O   0  0  0  0  0  0  0  0  0  0  0  0
   20.3366  -25.4681  -16.3099 N   0  0  0  0  0  0  0  0  0  0  0  0
   19.2799  -24.5176  -16.3038 C   0  0  0  0  0  0  0  0  0  0  0  0
   18.2505  -24.7157  -16.9913 O   0  0  0  0  0  0  0  0  0  0  0  0
   19.4400  -23.2983  -15.4638 C   0  0  0  0  0  0  0  0  0  0  0  0
   20.7878  -23.2745  -14.7855 C   0  0  0  0  0  0  0  0  0  0  0  0
   21.0034  -22.1153  -13.8800 C   0  0  2  0  0  0  0  0  0  0  0  0
   22.3386  -22.1088  -13.2961 N   0  0  0  0  0  0  0  0  0  0  0  0
   19.9685  -21.9078  -12.8519 C   0  0  0  0  0  0  0  0  0  0  0  0
   20.0577  -22.2299  -11.5226 O   0  0  0  0  0  0  0  0  0  0  0  0
   18.8739  -21.3723  -13.2421 O   0  0  0  0  0  0  0  0  0  0  0  0
  2  1  1  6
  2  4  1  0
  3  2  1  0
  4  6  1  0
  4  5  1  1
  6 14  1  0
  7  6  2  0
  9  8  1  0
  9 10  2  0
 11 12  1  0
 11  9  1  0
 13 12  1  1
 13 15  1  0
 14 13  1  0
 15 23  1  0
 15 16  2  0
 17 18  1  0
 18 20  1  0
 18 19  2  0
 20 21  1  0
 22 21  1  1
 22 24  1  0
 23 22  1  0
 24 26  2  0
 24 25  1  0
M  END
$$$$
