VQQ.pdb
     RDKit          3D

 26 25  0  0  1  0  0  0  0  0999 V2000
   14.6978  -13.0749  -15.2517 C   0  0  0  0  0  0  0  0  0  0  0  0
   16.0808  -12.5492  -14.9200 C   0  0  1  0  0  0  0  0  0  0  0  0
   17.0380  -13.7213  -15.0697 C   0  0  0  0  0  0  0  0  0  0  0  0
   16.5255  -11.4971  -15.9105 C   0  0  2  0  0  0  0  0  0  0  0  0
   16.6769  -12.1507  -17.1975 N   0  0  0  0  0  0  0  0  0  0  0  0
   17.7850  -10.8361  -15.4916 C   0  0  0  0  0  0  0  0  0  0  0  0
   17.8590  -10.2396  -14.4139 O   0  0  0  0  0  0  0  0  0  0  0  0
   24.1863  -11.1079  -18.2464 N   0  0  0  0  0  0  0  0  0  0  0  0
   23.6061  -11.4815  -17.0075 C   0  0  0  0  0  0  0  0  0  0  0  0
   23.9288  -12.5688  -16.4486 O   0  0  0  0  0  0  0  0  0  0  0  0
   22.6154  -10.5529  -16.4014 C   0  0  0  0  0  0  0  0  0  0  0  0
   21.2431  -11.0414  -16.7555 C   0  0  0  0  0  0  0  0  0  0  0  0
   20.1497  -10.2237  -16.1133 C   0  0  2  0  0  0  0  0  0  0  0  0
   18.8956  -10.8999  -16.3438 N   0  0  0  0  0  0  0  0  0  0  0  0
   20.1366   -8.8279  -16.5905 C   0  0  0  0  0  0  0  0  0  0  0  0
   19.6706   -8.6010  -17.7388 O   0  0  0  0  0  0  0  0  0  0  0  0
   16.6164   -5.1373  -15.6754 N   0  0  0  0  0  0  0  0  0  0  0  0
   17.3872   -4.1870  -16.3985 C   0  0  0  0  0  0  0  0  0  0  0  0
   16.9372   -3.0347  -16.6018 O   0  0  0  0  0  0  0  0  0  0  0  0
   18.7268   -4.6057  -16.8967 C   0  0  0  0  0  0  0  0  0  0  0  0
   19.0060   -6.0513  -16.5660 C   0  0  0  0  0  0  0  0  0  0  0  0
   20.4169   -6.3391  -16.1960 C   0  0  2  0  0  0  0  0  0  0  0  0
   20.6194   -7.7340  -15.8260 N   0  0  0  0  0  0  0  0  0  0  0  0
   21.0140   -5.4296  -15.2025 C   0  0  0  0  0  0  0  0  0  0  0  0
   21.5175   -5.7735  -13.9748 O   0  0  0  0  0  0  0  0  0  0  0  0
   21.0667   -4.1910  -15.5196 O   0  0  0  0  0  0  0  0  0  0  0  0
  2  1  1  6
  2  4  1  0
  3  2  1  0
  4  6  1  0
  4  5  1  6
  6 14  1  0
  7  6  2  0
  9  8  1  0
  9 10  2  0
 11 12  1  0
 11  9  1  0
 13 12  1  6
 13 15  1  0
 14 13  1  0
 15 23  1  0
 15 16  2  0
 17 18  1  0
 18 20  1  0
 18 19  2  0
 20 21  1  0
 22 21  1  1
 22 24  1  0
 23 22  1  0
 24 26  2  0
 24 25  1  0
M  END
$$$$
