VQQ.pdb
     RDKit          3D

 26 25  0  0  1  0  0  0  0  0999 V2000
   22.9990  -14.2925  -20.3562 C   0  0  0  0  0  0  0  0  0  0  0  0
   21.7231  -13.6310  -19.8727 C   0  0  1  0  0  0  0  0  0  0  0  0
   20.7481  -14.7527  -19.5505 C   0  0  0  0  0  0  0  0  0  0  0  0
   21.9477  -12.8690  -18.5864 C   0  0  2  0  0  0  0  0  0  0  0  0
   21.7801  -13.8077  -17.4922 N   0  0  0  0  0  0  0  0  0  0  0  0
   21.0228  -11.7176  -18.4536 C   0  0  0  0  0  0  0  0  0  0  0  0
   21.0002  -10.8223  -19.3024 O   0  0  0  0  0  0  0  0  0  0  0  0
   16.5060  -12.1761  -14.4121 N   0  0  0  0  0  0  0  0  0  0  0  0
   15.9087  -11.4100  -15.4452 C   0  0  0  0  0  0  0  0  0  0  0  0
   14.6549  -11.2503  -15.4842 O   0  0  0  0  0  0  0  0  0  0  0  0
   16.8069  -10.8103  -16.4673 C   0  0  0  0  0  0  0  0  0  0  0  0
   18.2224  -11.1118  -16.0766 C   0  0  0  0  0  0  0  0  0  0  0  0
   19.2255  -10.6027  -17.0822 C   0  0  2  0  0  0  0  0  0  0  0  0
   20.1704  -11.6624  -17.3426 N   0  0  0  0  0  0  0  0  0  0  0  0
   19.8799   -9.3557  -16.6428 C   0  0  0  0  0  0  0  0  0  0  0  0
   20.8598   -9.4488  -15.8564 O   0  0  0  0  0  0  0  0  0  0  0  0
   20.2285   -4.1287  -19.9381 N   0  0  0  0  0  0  0  0  0  0  0  0
   21.0028   -3.7336  -18.8136 C   0  0  0  0  0  0  0  0  0  0  0  0
   21.6086   -2.6361  -18.8203 O   0  0  0  0  0  0  0  0  0  0  0  0
   21.0655   -4.6577  -17.6473 C   0  0  0  0  0  0  0  0  0  0  0  0
   20.2726   -5.9158  -17.9030 C   0  0  0  0  0  0  0  0  0  0  0  0
   20.1914   -6.8416  -16.7427 C   0  0  2  0  0  0  0  0  0  0  0  0
   19.4641   -8.0642  -17.0588 N   0  0  0  0  0  0  0  0  0  0  0  0
   19.7137   -6.2450  -15.4830 C   0  0  0  0  0  0  0  0  0  0  0  0
   20.4456   -5.4882  -14.6052 O   0  0  0  0  0  0  0  0  0  0  0  0
   18.4892   -6.4568  -15.1779 O   0  0  0  0  0  0  0  0  0  0  0  0
  2  1  1  1
  2  4  1  0
  3  2  1  0
  4  6  1  0
  4  5  1  1
  6 14  1  0
  7  6  2  0
  9  8  1  0
  9 10  2  0
 11 12  1  0
 11  9  1  0
 13 12  1  1
 13 15  1  0
 14 13  1  0
 15 23  1  0
 15 16  2  0
 17 18  1  0
 18 20  1  0
 18 19  2  0
 20 21  1  0
 22 21  1  6
 22 24  1  0
 23 22  1  0
 24 26  2  0
 24 25  1  0
M  END
$$$$
