VQQ.pdb
     RDKit          3D

 26 25  0  0  1  0  0  0  0  0999 V2000
   18.1890  -20.6065    2.9115 C   0  0  0  0  0  0  0  0  0  0  0  0
   16.8294  -19.9357    2.9338 C   0  0  1  0  0  0  0  0  0  0  0  0
   16.3806  -19.9127    4.3866 C   0  0  0  0  0  0  0  0  0  0  0  0
   16.9155  -18.4949    2.4839 C   0  0  2  0  0  0  0  0  0  0  0  0
   17.1431  -18.5017    1.0505 N   0  0  0  0  0  0  0  0  0  0  0  0
   17.9851  -17.7534    3.1947 C   0  0  0  0  0  0  0  0  0  0  0  0
   19.0956  -17.5958    2.6803 O   0  0  0  0  0  0  0  0  0  0  0  0
   17.8353  -12.4090    4.7983 N   0  0  0  0  0  0  0  0  0  0  0  0
   16.6834  -13.1861    5.0814 C   0  0  0  0  0  0  0  0  0  0  0  0
   15.5556  -12.6336    5.2285 O   0  0  0  0  0  0  0  0  0  0  0  0
   16.8552  -14.6587    5.1964 C   0  0  0  0  0  0  0  0  0  0  0  0
   18.3039  -14.9761    4.9783 C   0  0  0  0  0  0  0  0  0  0  0  0
   18.6283  -16.4265    5.2389 C   0  0  2  0  0  0  0  0  0  0  0  0
   17.7129  -17.2321    4.4667 N   0  0  0  0  0  0  0  0  0  0  0  0
   18.6023  -16.7597    6.6758 C   0  0  0  0  0  0  0  0  0  0  0  0
   17.6317  -17.4373    7.1071 O   0  0  0  0  0  0  0  0  0  0  0  0
   23.0379  -15.3500   10.9960 N   0  0  0  0  0  0  0  0  0  0  0  0
   23.2929  -16.0458    9.7831 C   0  0  0  0  0  0  0  0  0  0  0  0
   24.4677  -16.1707    9.3636 O   0  0  0  0  0  0  0  0  0  0  0  0
   22.1309  -16.6109    9.0426 C   0  0  0  0  0  0  0  0  0  0  0  0
   20.8274  -16.2456    9.7094 C   0  0  0  0  0  0  0  0  0  0  0  0
   19.6137  -16.7298    9.0004 C   0  0  2  0  0  0  0  0  0  0  0  0
   19.6094  -16.3580    7.5914 N   0  0  0  0  0  0  0  0  0  0  0  0
   18.3280  -16.4066    9.6433 C   0  0  0  0  0  0  0  0  0  0  0  0
   17.7040  -17.1209   10.6329 O   0  0  0  0  0  0  0  0  0  0  0  0
   17.7334  -15.3500    9.2341 O   0  0  0  0  0  0  0  0  0  0  0  0
  2  1  1  1
  2  4  1  0
  3  2  1  0
  4  6  1  0
  4  5  1  6
  6 14  1  0
  7  6  2  0
  9  8  1  0
  9 10  2  0
 11 12  1  0
 11  9  1  0
 13 12  1  1
 13 15  1  0
 14 13  1  0
 15 23  1  0
 15 16  2  0
 17 18  1  0
 18 20  1  0
 18 19  2  0
 20 21  1  0
 22 21  1  1
 22 24  1  0
 23 22  1  0
 24 26  2  0
 24 25  1  0
M  END
$$$$
