VQQ.pdb
     RDKit          3D

 26 25  0  0  1  0  0  0  0  0999 V2000
   29.5063  -21.7934  -17.8243 C   0  0  0  0  0  0  0  0  0  0  0  0
   27.9935  -21.8913  -17.8572 C   0  0  1  0  0  0  0  0  0  0  0  0
   27.6510  -23.3659  -17.7134 C   0  0  0  0  0  0  0  0  0  0  0  0
   27.3671  -21.1837  -16.6771 C   0  0  2  0  0  0  0  0  0  0  0  0
   28.0846  -21.6061  -15.4883 N   0  0  0  0  0  0  0  0  0  0  0  0
   25.9173  -21.4725  -16.5612 C   0  0  0  0  0  0  0  0  0  0  0  0
   25.1565  -21.2873  -17.5150 O   0  0  0  0  0  0  0  0  0  0  0  0
   23.5470  -25.9139  -13.8528 N   0  0  0  0  0  0  0  0  0  0  0  0
   22.4061  -25.1257  -13.5562 C   0  0  0  0  0  0  0  0  0  0  0  0
   21.3149  -25.6730  -13.2265 O   0  0  0  0  0  0  0  0  0  0  0  0
   22.5450  -23.6481  -13.6479 C   0  0  0  0  0  0  0  0  0  0  0  0
   23.9516  -23.3383  -14.0634 C   0  0  0  0  0  0  0  0  0  0  0  0
   24.0289  -22.2117  -15.0641 C   0  0  2  0  0  0  0  0  0  0  0  0
   25.4225  -21.9617  -15.3448 N   0  0  0  0  0  0  0  0  0  0  0  0
   23.3176  -21.0029  -14.6069 C   0  0  0  0  0  0  0  0  0  0  0  0
   23.7692  -20.3984  -13.5980 O   0  0  0  0  0  0  0  0  0  0  0  0
   20.4393  -16.8848  -18.1417 N   0  0  0  0  0  0  0  0  0  0  0  0
   20.1234  -16.3195  -16.8764 C   0  0  0  0  0  0  0  0  0  0  0  0
   19.5676  -15.1978  -16.8088 O   0  0  0  0  0  0  0  0  0  0  0  0
   20.4721  -17.0976  -15.6554 C   0  0  0  0  0  0  0  0  0  0  0  0
   21.0961  -18.4244  -16.0120 C   0  0  0  0  0  0  0  0  0  0  0  0
   21.5005  -19.2509  -14.8442 C   0  0  2  0  0  0  0  0  0  0  0  0
   22.1572  -20.4893  -15.2423 N   0  0  0  0  0  0  0  0  0  0  0  0
   20.4473  -19.5008  -13.8445 C   0  0  0  0  0  0  0  0  0  0  0  0
   20.0393  -18.6468  -12.8530 O   0  0  0  0  0  0  0  0  0  0  0  0
   19.8538  -20.6325  -13.9095 O   0  0  0  0  0  0  0  0  0  0  0  0
  2  1  1  1
  2  4  1  0
  3  2  1  0
  4  6  1  0
  4  5  1  1
  6 14  1  0
  7  6  2  0
  9  8  1  0
  9 10  2  0
 11 12  1  0
 11  9  1  0
 13 12  1  1
 13 15  1  0
 14 13  1  0
 15 23  1  0
 15 16  2  0
 17 18  1  0
 18 20  1  0
 18 19  2  0
 20 21  1  0
 22 21  1  6
 22 24  1  0
 23 22  1  0
 24 26  2  0
 24 25  1  0
M  END
$$$$
