VQQ.pdb
     RDKit          3D

 26 25  0  0  1  0  0  0  0  0999 V2000
   20.0963  -20.6063  -14.3974 C   0  0  0  0  0  0  0  0  0  0  0  0
   21.0142  -19.3996  -14.3735 C   0  0  1  0  0  0  0  0  0  0  0  0
   22.3725  -19.8781  -14.8621 C   0  0  0  0  0  0  0  0  0  0  0  0
   20.5547  -18.3352  -15.3439 C   0  0  2  0  0  0  0  0  0  0  0  0
   20.2407  -18.9978  -16.5965 N   0  0  0  0  0  0  0  0  0  0  0  0
   21.5777  -17.2790  -15.5359 C   0  0  0  0  0  0  0  0  0  0  0  0
   22.0349  -16.6577  -14.5728 O   0  0  0  0  0  0  0  0  0  0  0  0
   25.8318  -17.8314  -19.6053 N   0  0  0  0  0  0  0  0  0  0  0  0
   25.8452  -18.3146  -18.2721 C   0  0  0  0  0  0  0  0  0  0  0  0
   26.6659  -19.2103  -17.9214 O   0  0  0  0  0  0  0  0  0  0  0  0
   24.8665  -17.7313  -17.3166 C   0  0  0  0  0  0  0  0  0  0  0  0
   24.0541  -16.7073  -18.0503 C   0  0  0  0  0  0  0  0  0  0  0  0
   23.0370  -16.0281  -17.1666 C   0  0  2  0  0  0  0  0  0  0  0  0
   22.0190  -16.9963  -16.8356 N   0  0  0  0  0  0  0  0  0  0  0  0
   22.4801  -14.8092  -17.7833 C   0  0  0  0  0  0  0  0  0  0  0  0
   21.4517  -14.9279  -18.5013 O   0  0  0  0  0  0  0  0  0  0  0  0
   19.2294  -11.2006  -17.2802 N   0  0  0  0  0  0  0  0  0  0  0  0
   19.9030  -10.0798  -17.8371 C   0  0  0  0  0  0  0  0  0  0  0  0
   19.2471   -9.1197  -18.3057 O   0  0  0  0  0  0  0  0  0  0  0  0
   21.3923  -10.0898  -17.8425 C   0  0  0  0  0  0  0  0  0  0  0  0
   21.9328  -11.3670  -17.2476 C   0  0  0  0  0  0  0  0  0  0  0  0
   22.5077  -12.3151  -18.2379 C   0  0  2  0  0  0  0  0  0  0  0  0
   23.0408  -13.5171  -17.6098 N   0  0  0  0  0  0  0  0  0  0  0  0
   23.4716  -11.7361  -19.1901 C   0  0  0  0  0  0  0  0  0  0  0  0
   23.1801  -10.9572  -20.2797 O   0  0  0  0  0  0  0  0  0  0  0  0
   24.7079  -11.9877  -18.9768 O   0  0  0  0  0  0  0  0  0  0  0  0
  2  1  1  6
  2  4  1  0
  3  2  1  0
  4  6  1  0
  4  5  1  6
  6 14  1  0
  7  6  2  0
  9  8  1  0
  9 10  2  0
 11 12  1  0
 11  9  1  0
 13 12  1  6
 13 15  1  0
 14 13  1  0
 15 23  1  0
 15 16  2  0
 17 18  1  0
 18 20  1  0
 18 19  2  0
 20 21  1  0
 22 21  1  1
 22 24  1  0
 23 22  1  0
 24 26  2  0
 24 25  1  0
M  END
$$$$
