VQQ.pdb
     RDKit          3D

 26 25  0  0  1  0  0  0  0  0999 V2000
   25.6805  -14.5096  -17.5075 C   0  0  0  0  0  0  0  0  0  0  0  0
   25.5944  -13.0175  -17.7633 C   0  0  1  0  0  0  0  0  0  0  0  0
   25.7932  -12.8215  -19.2582 C   0  0  0  0  0  0  0  0  0  0  0  0
   24.2211  -12.4777  -17.4342 C   0  0  2  0  0  0  0  0  0  0  0  0
   23.2566  -13.2631  -18.1820 N   0  0  0  0  0  0  0  0  0  0  0  0
   24.1005  -11.0341  -17.7510 C   0  0  0  0  0  0  0  0  0  0  0  0
   24.8182  -10.2008  -17.1913 O   0  0  0  0  0  0  0  0  0  0  0  0
   22.5584  -10.8306  -22.6065 N   0  0  0  0  0  0  0  0  0  0  0  0
   23.6040   -9.8727  -22.5938 C   0  0  0  0  0  0  0  0  0  0  0  0
   24.4325   -9.8129  -23.5471 O   0  0  0  0  0  0  0  0  0  0  0  0
   23.6840   -8.9536  -21.4275 C   0  0  0  0  0  0  0  0  0  0  0  0
   22.5154   -9.2360  -20.5321 C   0  0  0  0  0  0  0  0  0  0  0  0
   22.8928   -9.2588  -19.0714 C   0  0  2  0  0  0  0  0  0  0  0  0
   23.1534  -10.6294  -18.7013 N   0  0  0  0  0  0  0  0  0  0  0  0
   21.8711   -8.6258  -18.2161 C   0  0  0  0  0  0  0  0  0  0  0  0
   20.7774   -9.2306  -18.0569 O   0  0  0  0  0  0  0  0  0  0  0  0
   20.6035   -9.3204  -13.2992 N   0  0  0  0  0  0  0  0  0  0  0  0
   19.9042   -8.0855  -13.2193 C   0  0  0  0  0  0  0  0  0  0  0  0
   19.2239   -7.8116  -12.2025 O   0  0  0  0  0  0  0  0  0  0  0  0
   20.0091   -7.1459  -14.3700 C   0  0  0  0  0  0  0  0  0  0  0  0
   20.8029   -7.7526  -15.5009 C   0  0  0  0  0  0  0  0  0  0  0  0
   21.1093   -6.8151  -16.6133 C   0  0  2  0  0  0  0  0  0  0  0  0
   22.0566   -7.3774  -17.5671 N   0  0  0  0  0  0  0  0  0  0  0  0
   21.5002   -5.4529  -16.2100 C   0  0  0  0  0  0  0  0  0  0  0  0
   20.7443   -4.5614  -15.4941 O   0  0  0  0  0  0  0  0  0  0  0  0
   22.6658   -5.0632  -16.5662 O   0  0  0  0  0  0  0  0  0  0  0  0
  2  1  1  6
  2  4  1  0
  3  2  1  0
  4  6  1  0
  4  5  1  6
  6 14  1  0
  7  6  2  0
  9  8  1  0
  9 10  2  0
 11 12  1  0
 11  9  1  0
 13 12  1  6
 13 15  1  0
 14 13  1  0
 15 23  1  0
 15 16  2  0
 17 18  1  0
 18 20  1  0
 18 19  2  0
 20 21  1  0
 22 21  1  1
 22 24  1  0
 23 22  1  0
 24 26  2  0
 24 25  1  0
M  END
$$$$
