NIN.pdb
     RDKit          3D

 25 24  0  0  1  0  0  0  0  0999 V2000
    8.7142  -18.8669   19.4793 N   0  0  0  0  0  0  0  0  0  0  0  0
    9.4970  -17.7075   19.7193 C   0  0  0  0  0  0  0  0  0  0  0  0
    9.9711  -17.1245   18.7037 O   0  0  0  0  0  0  0  0  0  0  0  0
    9.7540  -17.1960   21.0830 C   0  0  0  0  0  0  0  0  0  0  0  0
    8.5561  -16.4475   21.6332 C   0  0  2  0  0  0  0  0  0  0  0  0
    8.3027  -15.3529   20.6898 N   0  0  0  0  0  0  0  0  0  0  0  0
    8.9360  -15.8547   22.9420 C   0  0  0  0  0  0  0  0  0  0  0  0
   10.1568  -15.9108   23.3062 O   0  0  0  0  0  0  0  0  0  0  0  0
    6.1542  -11.8783   25.6482 C   0  0  0  0  0  0  0  0  0  0  0  0
    7.2472  -12.6952   24.9556 C   0  0  0  0  0  0  0  0  0  0  0  0
    7.4967  -13.8978   25.8073 C   0  0  2  0  0  0  0  0  0  0  0  0
    7.9554  -13.5575   27.2082 C   0  0  0  0  0  0  0  0  0  0  0  0
    8.3970  -14.9265   25.1669 C   0  0  2  0  0  0  0  0  0  0  0  0
    8.0163  -15.2273   23.8137 N   0  0  0  0  0  0  0  0  0  0  0  0
    8.4568  -16.1519   26.0118 C   0  0  0  0  0  0  0  0  0  0  0  0
    7.5198  -17.0215   25.9753 O   0  0  0  0  0  0  0  0  0  0  0  0
   10.2806  -20.8285   26.0399 N   0  0  0  0  0  0  0  0  0  0  0  0
   11.1346  -19.6875   26.0577 C   0  0  0  0  0  0  0  0  0  0  0  0
   12.3584  -19.7676   26.3288 O   0  0  0  0  0  0  0  0  0  0  0  0
   10.5184  -18.3666   25.7377 C   0  0  0  0  0  0  0  0  0  0  0  0
   10.0773  -17.7757   27.0590 C   0  0  2  0  0  0  0  0  0  0  0  0
    9.5259  -16.4455   26.8996 N   0  0  0  0  0  0  0  0  0  0  0  0
   11.1784  -17.8092   28.0561 C   0  0  0  0  0  0  0  0  0  0  0  0
   11.3023  -18.8403   28.7587 O   0  0  0  0  0  0  0  0  0  0  0  0
   12.0366  -16.7548   28.2123 O   0  0  0  0  0  0  0  0  0  0  0  0
  1  2  1  0
  2  3  2  0
  4  5  1  0
  4  2  1  0
  5  6  1  6
  7  5  1  0
  8  7  2  0
  9 10  1  0
 10 11  1  0
 11 12  1  1
 13 11  1  0
 13 14  1  6
 14  7  1  0
 15 22  1  0
 15 13  1  0
 16 15  2  0
 18 17  1  0
 19 18  2  0
 20 18  1  0
 21 20  1  6
 21 22  1  0
 23 25  1  0
 23 21  1  0
 24 23  2  0
M  END
$$$$
