NIN.pdb
     RDKit          3D

 25 24  0  0  1  0  0  0  0  0999 V2000
   12.4817  -17.3072   13.3109 N   0  0  0  0  0  0  0  0  0  0  0  0
   11.8388  -16.0434   13.3753 C   0  0  0  0  0  0  0  0  0  0  0  0
   11.3633  -15.5946   12.2942 O   0  0  0  0  0  0  0  0  0  0  0  0
   11.7238  -15.2787   14.6359 C   0  0  0  0  0  0  0  0  0  0  0  0
   11.3843  -16.1801   15.8065 C   0  0  2  0  0  0  0  0  0  0  0  0
   10.0367  -16.6932   15.5364 N   0  0  0  0  0  0  0  0  0  0  0  0
   11.3271  -15.3478   17.0363 C   0  0  0  0  0  0  0  0  0  0  0  0
   12.3854  -14.7459   17.4158 O   0  0  0  0  0  0  0  0  0  0  0  0
    6.7904  -12.8555   19.0949 C   0  0  0  0  0  0  0  0  0  0  0  0
    8.1915  -13.1330   18.5459 C   0  0  0  0  0  0  0  0  0  0  0  0
    8.8865  -13.9994   19.5459 C   0  0  2  0  0  0  0  0  0  0  0  0
    8.9742  -13.3774   20.9222 C   0  0  0  0  0  0  0  0  0  0  0  0
   10.2300  -14.5109   19.0853 C   0  0  2  0  0  0  0  0  0  0  0  0
   10.1594  -15.1828   17.8163 N   0  0  0  0  0  0  0  0  0  0  0  0
   10.8377  -15.3737   20.1367 C   0  0  0  0  0  0  0  0  0  0  0  0
   10.4893  -16.5976   20.2646 O   0  0  0  0  0  0  0  0  0  0  0  0
   14.6931  -17.5137   22.1886 N   0  0  0  0  0  0  0  0  0  0  0  0
   14.7689  -16.1127   21.9376 C   0  0  0  0  0  0  0  0  0  0  0  0
   15.6658  -15.6058   21.2192 O   0  0  0  0  0  0  0  0  0  0  0  0
   13.7286  -15.2476   22.5670 C   0  0  0  0  0  0  0  0  0  0  0  0
   12.3945  -15.7702   22.0804 C   0  0  2  0  0  0  0  0  0  0  0  0
   11.8226  -14.9218   21.0548 N   0  0  0  0  0  0  0  0  0  0  0  0
   11.4579  -15.9877   23.2132 C   0  0  0  0  0  0  0  0  0  0  0  0
   11.7728  -16.8374   24.0798 O   0  0  0  0  0  0  0  0  0  0  0  0
   10.2859  -15.2893   23.3187 O   0  0  0  0  0  0  0  0  0  0  0  0
  1  2  1  0
  2  3  2  0
  4  5  1  0
  4  2  1  0
  5  6  1  6
  7  5  1  0
  8  7  2  0
  9 10  1  0
 10 11  1  0
 11 12  1  1
 13 11  1  0
 13 14  1  6
 14  7  1  0
 15 22  1  0
 15 13  1  0
 16 15  2  0
 18 17  1  0
 19 18  2  0
 20 18  1  0
 21 20  1  1
 21 22  1  0
 23 25  1  0
 23 21  1  0
 24 23  2  0
M  END
$$$$
