NIN.pdb
     RDKit          3D

 25 24  0  0  1  0  0  0  0  0999 V2000
    6.7420  -20.4895   16.3530 N   0  0  0  0  0  0  0  0  0  0  0  0
    8.0846  -20.6875   16.7685 C   0  0  0  0  0  0  0  0  0  0  0  0
    8.4552  -21.8839   16.9341 O   0  0  0  0  0  0  0  0  0  0  0  0
    9.0143  -19.5610   17.0003 C   0  0  0  0  0  0  0  0  0  0  0  0
    8.3261  -18.2227   16.8176 C   0  0  2  0  0  0  0  0  0  0  0  0
    8.6773  -17.7755   15.4653 N   0  0  0  0  0  0  0  0  0  0  0  0
    8.9072  -17.2614   17.7907 C   0  0  0  0  0  0  0  0  0  0  0  0
   10.1741  -17.2262   17.9317 O   0  0  0  0  0  0  0  0  0  0  0  0
    7.5980  -12.1699   20.9781 C   0  0  0  0  0  0  0  0  0  0  0  0
    8.5917  -13.3115   20.7530 C   0  0  0  0  0  0  0  0  0  0  0  0
    7.9013  -14.3272   19.9014 C   0  0  2  0  0  0  0  0  0  0  0  0
    6.5768  -14.7877   20.4694 C   0  0  0  0  0  0  0  0  0  0  0  0
    8.7727  -15.4980   19.5154 C   0  0  2  0  0  0  0  0  0  0  0  0
    8.1319  -16.3768   18.5754 N   0  0  0  0  0  0  0  0  0  0  0  0
    9.2243  -16.2245   20.7350 C   0  0  0  0  0  0  0  0  0  0  0  0
    8.5025  -17.1411   21.2589 O   0  0  0  0  0  0  0  0  0  0  0  0
   11.7009  -20.0094   22.7545 N   0  0  0  0  0  0  0  0  0  0  0  0
   12.5097  -18.9308   22.2921 C   0  0  0  0  0  0  0  0  0  0  0  0
   13.7034  -18.7823   22.6536 O   0  0  0  0  0  0  0  0  0  0  0  0
   11.8830  -17.9626   21.3451 C   0  0  0  0  0  0  0  0  0  0  0  0
   11.1425  -16.9565   22.1992 C   0  0  2  0  0  0  0  0  0  0  0  0
   10.4550  -15.9665   21.3955 N   0  0  0  0  0  0  0  0  0  0  0  0
   12.0466  -16.3344   23.2008 C   0  0  0  0  0  0  0  0  0  0  0  0
   12.5498  -17.0762   24.0775 O   0  0  0  0  0  0  0  0  0  0  0  0
   12.3290  -14.9956   23.1780 O   0  0  0  0  0  0  0  0  0  0  0  0
  1  2  1  0
  2  3  2  0
  4  5  1  0
  4  2  1  0
  5  6  1  6
  7  5  1  0
  8  7  2  0
  9 10  1  0
 10 11  1  0
 11 12  1  1
 13 11  1  0
 13 14  1  6
 14  7  1  0
 15 22  1  0
 15 13  1  0
 16 15  2  0
 18 17  1  0
 19 18  2  0
 20 18  1  0
 21 20  1  6
 21 22  1  0
 23 25  1  0
 23 21  1  0
 24 23  2  0
M  END
$$$$
