NIN.pdb
     RDKit          3D

 25 24  0  0  1  0  0  0  0  0999 V2000
    7.6154  -17.8944   19.5097 N   0  0  0  0  0  0  0  0  0  0  0  0
    8.0507  -18.4949   20.7199 C   0  0  0  0  0  0  0  0  0  0  0  0
    7.9273  -19.7493   20.8057 O   0  0  0  0  0  0  0  0  0  0  0  0
    8.6214  -17.7058   21.8329 C   0  0  0  0  0  0  0  0  0  0  0  0
    8.4218  -16.2180   21.6220 C   0  0  2  0  0  0  0  0  0  0  0  0
    9.3128  -15.8492   20.5164 N   0  0  0  0  0  0  0  0  0  0  0  0
    8.8787  -15.5070   22.8444 C   0  0  0  0  0  0  0  0  0  0  0  0
   10.1306  -15.3402   23.0215 O   0  0  0  0  0  0  0  0  0  0  0  0
    7.0972  -11.5175   27.1176 C   0  0  0  0  0  0  0  0  0  0  0  0
    8.1563  -12.5434   26.7087 C   0  0  0  0  0  0  0  0  0  0  0  0
    7.5781  -13.3407   25.5845 C   0  0  2  0  0  0  0  0  0  0  0  0
    6.2369  -13.9586   25.9134 C   0  0  0  0  0  0  0  0  0  0  0  0
    8.5278  -14.3607   25.0043 C   0  0  2  0  0  0  0  0  0  0  0  0
    8.0004  -15.0007   23.8300 N   0  0  0  0  0  0  0  0  0  0  0  0
    8.9171  -15.3501   26.0478 C   0  0  0  0  0  0  0  0  0  0  0  0
    8.0731  -16.2014   26.4934 O   0  0  0  0  0  0  0  0  0  0  0  0
   12.3641  -17.0085   24.8644 N   0  0  0  0  0  0  0  0  0  0  0  0
   11.7682  -17.6848   25.9686 C   0  0  0  0  0  0  0  0  0  0  0  0
   11.1426  -18.7658   25.8369 O   0  0  0  0  0  0  0  0  0  0  0  0
   11.9132  -17.0569   27.3146 C   0  0  0  0  0  0  0  0  0  0  0  0
   10.5833  -16.4032   27.6206 C   0  0  2  0  0  0  0  0  0  0  0  0
   10.2167  -15.4262   26.6157 N   0  0  0  0  0  0  0  0  0  0  0  0
   10.5705  -15.8285   28.9907 C   0  0  0  0  0  0  0  0  0  0  0  0
   10.4599  -14.5847   29.1041 O   0  0  0  0  0  0  0  0  0  0  0  0
   10.6753  -16.6208   30.1015 O   0  0  0  0  0  0  0  0  0  0  0  0
  1  2  1  0
  2  3  2  0
  4  5  1  0
  4  2  1  0
  5  6  1  6
  7  5  1  0
  8  7  2  0
  9 10  1  0
 10 11  1  0
 11 12  1  1
 13 11  1  0
 13 14  1  6
 14  7  1  0
 15 22  1  0
 15 13  1  0
 16 15  2  0
 18 17  1  0
 19 18  2  0
 20 18  1  0
 21 20  1  6
 21 22  1  0
 23 25  1  0
 23 21  1  0
 24 23  2  0
M  END
$$$$
