NIN.pdb
     RDKit          3D

 25 24  0  0  1  0  0  0  0  0999 V2000
    5.3368  -16.7953   19.3756 N   0  0  0  0  0  0  0  0  0  0  0  0
    6.6919  -17.1851   19.5381 C   0  0  0  0  0  0  0  0  0  0  0  0
    7.1910  -17.8938   18.6189 O   0  0  0  0  0  0  0  0  0  0  0  0
    7.4917  -16.7903   20.7178 C   0  0  0  0  0  0  0  0  0  0  0  0
    7.3219  -15.3189   21.0401 C   0  0  2  0  0  0  0  0  0  0  0  0
    8.0004  -14.5937   19.9603 N   0  0  0  0  0  0  0  0  0  0  0  0
    8.0357  -15.0334   22.3120 C   0  0  0  0  0  0  0  0  0  0  0  0
    9.3106  -15.0065   22.3037 O   0  0  0  0  0  0  0  0  0  0  0  0
    5.9036  -11.8708   26.3091 C   0  0  0  0  0  0  0  0  0  0  0  0
    6.8075  -12.4451   25.2161 C   0  0  0  0  0  0  0  0  0  0  0  0
    7.3755  -13.7212   25.7477 C   0  0  2  0  0  0  0  0  0  0  0  0
    8.1701  -13.5405   27.0224 C   0  0  0  0  0  0  0  0  0  0  0  0
    8.1466  -14.5216   24.7261 C   0  0  2  0  0  0  0  0  0  0  0  0
    7.3792  -14.7881   23.5400 N   0  0  0  0  0  0  0  0  0  0  0  0
    8.6671  -15.7738   25.3429 C   0  0  0  0  0  0  0  0  0  0  0  0
    7.8718  -16.6304   25.8618 O   0  0  0  0  0  0  0  0  0  0  0  0
   10.8737  -18.2720   23.4579 N   0  0  0  0  0  0  0  0  0  0  0  0
   11.9841  -17.6606   24.1096 C   0  0  0  0  0  0  0  0  0  0  0  0
   12.9481  -17.1663   23.4741 O   0  0  0  0  0  0  0  0  0  0  0  0
   11.9667  -17.6241   25.6013 C   0  0  0  0  0  0  0  0  0  0  0  0
   10.5358  -17.3345   25.9995 C   0  0  2  0  0  0  0  0  0  0  0  0
   10.0461  -16.1081   25.4037 N   0  0  0  0  0  0  0  0  0  0  0  0
   10.3782  -17.3407   27.4769 C   0  0  0  0  0  0  0  0  0  0  0  0
   10.4241  -16.2404   28.0764 O   0  0  0  0  0  0  0  0  0  0  0  0
   10.1886  -18.5037   28.1728 O   0  0  0  0  0  0  0  0  0  0  0  0
  1  2  1  0
  2  3  2  0
  4  5  1  0
  4  2  1  0
  5  6  1  6
  7  5  1  0
  8  7  2  0
  9 10  1  0
 10 11  1  0
 11 12  1  1
 13 11  1  0
 13 14  1  6
 14  7  1  0
 15 22  1  0
 15 13  1  0
 16 15  2  0
 18 17  1  0
 19 18  2  0
 20 18  1  0
 21 20  1  1
 21 22  1  0
 23 25  1  0
 23 21  1  0
 24 23  2  0
M  END
$$$$
