NIN.pdb
     RDKit          3D

 25 24  0  0  1  0  0  0  0  0999 V2000
    8.1105  -17.1013   18.8015 N   0  0  0  0  0  0  0  0  0  0  0  0
    7.8491  -17.8549   19.9754 C   0  0  0  0  0  0  0  0  0  0  0  0
    7.3938  -19.0217   19.8093 O   0  0  0  0  0  0  0  0  0  0  0  0
    8.0916  -17.3157   21.3310 C   0  0  0  0  0  0  0  0  0  0  0  0
    8.4499  -15.8433   21.2901 C   0  0  2  0  0  0  0  0  0  0  0  0
    9.6641  -15.7513   20.4719 N   0  0  0  0  0  0  0  0  0  0  0  0
    8.7848  -15.4050   22.6700 C   0  0  0  0  0  0  0  0  0  0  0  0
    9.9395  -15.6819   23.1351 O   0  0  0  0  0  0  0  0  0  0  0  0
    7.1413  -11.4309   27.0461 C   0  0  0  0  0  0  0  0  0  0  0  0
    8.0247  -12.6223   26.6696 C   0  0  0  0  0  0  0  0  0  0  0  0
    7.5015  -13.1600   25.3770 C   0  0  2  0  0  0  0  0  0  0  0  0
    6.0176  -13.4533   25.4046 C   0  0  0  0  0  0  0  0  0  0  0  0
    8.2854  -14.3325   24.8386 C   0  0  2  0  0  0  0  0  0  0  0  0
    7.8916  -14.6936   23.5040 N   0  0  0  0  0  0  0  0  0  0  0  0
    8.1904  -15.4862   25.7762 C   0  0  0  0  0  0  0  0  0  0  0  0
    7.2095  -16.3044   25.7140 O   0  0  0  0  0  0  0  0  0  0  0  0
   12.0296  -19.2818   26.5690 N   0  0  0  0  0  0  0  0  0  0  0  0
   10.6298  -19.1431   26.3389 C   0  0  0  0  0  0  0  0  0  0  0  0
    9.8219  -20.0879   26.5185 O   0  0  0  0  0  0  0  0  0  0  0  0
   10.1421  -17.8135   25.8686 C   0  0  0  0  0  0  0  0  0  0  0  0
    9.6088  -17.1025   27.0933 C   0  0  2  0  0  0  0  0  0  0  0  0
    9.1513  -15.7630   26.7849 N   0  0  0  0  0  0  0  0  0  0  0  0
   10.6043  -17.1138   28.1963 C   0  0  0  0  0  0  0  0  0  0  0  0
   10.6094  -18.0990   28.9718 O   0  0  0  0  0  0  0  0  0  0  0  0
   11.4926  -16.0875   28.3709 O   0  0  0  0  0  0  0  0  0  0  0  0
  1  2  1  0
  2  3  2  0
  4  5  1  0
  4  2  1  0
  5  6  1  6
  7  5  1  0
  8  7  2  0
  9 10  1  0
 10 11  1  0
 11 12  1  1
 13 11  1  0
 13 14  1  6
 14  7  1  0
 15 22  1  0
 15 13  1  0
 16 15  2  0
 18 17  1  0
 19 18  2  0
 20 18  1  0
 21 20  1  6
 21 22  1  0
 23 25  1  0
 23 21  1  0
 24 23  2  0
M  END
$$$$
