NIN.pdb
     RDKit          3D

 25 24  0  0  1  0  0  0  0  0999 V2000
    7.2770  -17.5458   19.6658 N   0  0  0  0  0  0  0  0  0  0  0  0
    7.5105  -16.1529   19.5243 C   0  0  0  0  0  0  0  0  0  0  0  0
    7.2530  -15.6477   18.3953 O   0  0  0  0  0  0  0  0  0  0  0  0
    8.0288  -15.3221   20.6325 C   0  0  0  0  0  0  0  0  0  0  0  0
    8.3780  -16.1630   21.8445 C   0  0  2  0  0  0  0  0  0  0  0  0
    7.1171  -16.7697   22.2850 N   0  0  0  0  0  0  0  0  0  0  0  0
    8.8586  -15.2567   22.9197 C   0  0  0  0  0  0  0  0  0  0  0  0
    9.9449  -14.6144   22.7365 O   0  0  0  0  0  0  0  0  0  0  0  0
    5.6500  -12.1200   26.0190 C   0  0  0  0  0  0  0  0  0  0  0  0
    6.8111  -12.5604   25.1249 C   0  0  0  0  0  0  0  0  0  0  0  0
    7.6652  -13.4760   25.9409 C   0  0  2  0  0  0  0  0  0  0  0  0
    8.2458  -12.8175   27.1730 C   0  0  0  0  0  0  0  0  0  0  0  0
    8.7292  -14.1932   25.1456 C   0  0  2  0  0  0  0  0  0  0  0  0
    8.1768  -15.0631   24.1433 N   0  0  0  0  0  0  0  0  0  0  0  0
    9.6522  -14.9190   26.0624 C   0  0  0  0  0  0  0  0  0  0  0  0
    9.7580  -14.5807   27.2912 O   0  0  0  0  0  0  0  0  0  0  0  0
   10.0903  -18.9178   28.9753 N   0  0  0  0  0  0  0  0  0  0  0  0
    9.7128  -19.0830   27.6109 C   0  0  0  0  0  0  0  0  0  0  0  0
    9.6747  -20.2088   27.0553 O   0  0  0  0  0  0  0  0  0  0  0  0
    9.3561  -17.8524   26.8458 C   0  0  0  0  0  0  0  0  0  0  0  0
   10.6659  -17.1903   26.4774 C   0  0  2  0  0  0  0  0  0  0  0  0
   10.4651  -16.0117   25.6594 N   0  0  0  0  0  0  0  0  0  0  0  0
   11.5973  -18.1592   25.8437 C   0  0  0  0  0  0  0  0  0  0  0  0
   12.2165  -18.9526   26.5915 O   0  0  0  0  0  0  0  0  0  0  0  0
   11.7823  -18.1945   24.4883 O   0  0  0  0  0  0  0  0  0  0  0  0
  1  2  1  0
  2  3  2  0
  4  5  1  0
  4  2  1  0
  5  6  1  1
  7  5  1  0
  8  7  2  0
  9 10  1  0
 10 11  1  0
 11 12  1  1
 13 11  1  0
 13 14  1  6
 14  7  1  0
 15 22  1  0
 15 13  1  0
 16 15  2  0
 18 17  1  0
 19 18  2  0
 20 18  1  0
 21 20  1  6
 21 22  1  0
 23 25  1  0
 23 21  1  0
 24 23  2  0
M  END
$$$$
