NIN.pdb
     RDKit          3D

 25 24  0  0  1  0  0  0  0  0999 V2000
    8.8236  -13.9078   17.7206 N   0  0  0  0  0  0  0  0  0  0  0  0
    8.0203  -14.4149   18.7751 C   0  0  0  0  0  0  0  0  0  0  0  0
    7.0430  -15.1431   18.4422 O   0  0  0  0  0  0  0  0  0  0  0  0
    8.2999  -14.1146   20.1960 C   0  0  0  0  0  0  0  0  0  0  0  0
    8.2469  -15.3649   21.0515 C   0  0  2  0  0  0  0  0  0  0  0  0
    6.8254  -15.7083   21.1674 N   0  0  0  0  0  0  0  0  0  0  0  0
    8.7554  -15.0263   22.4063 C   0  0  0  0  0  0  0  0  0  0  0  0
   10.0074  -14.8379   22.5589 O   0  0  0  0  0  0  0  0  0  0  0  0
    6.1197  -11.9475   26.0234 C   0  0  0  0  0  0  0  0  0  0  0  0
    7.1750  -12.5523   25.0950 C   0  0  0  0  0  0  0  0  0  0  0  0
    7.6336  -13.8256   25.7292 C   0  0  2  0  0  0  0  0  0  0  0  0
    8.2589  -13.6270   27.0925 C   0  0  0  0  0  0  0  0  0  0  0  0
    8.5097  -14.6732   24.8388 C   0  0  2  0  0  0  0  0  0  0  0  0
    7.9263  -14.8998   23.5446 N   0  0  0  0  0  0  0  0  0  0  0  0
    8.8528  -15.9507   25.5240 C   0  0  0  0  0  0  0  0  0  0  0  0
    7.9652  -16.8505   25.7194 O   0  0  0  0  0  0  0  0  0  0  0  0
   11.5118  -20.6277   26.0727 N   0  0  0  0  0  0  0  0  0  0  0  0
   12.0522  -19.4049   26.5670 C   0  0  0  0  0  0  0  0  0  0  0  0
   12.7905  -19.3577   27.5820 O   0  0  0  0  0  0  0  0  0  0  0  0
   11.7076  -18.1559   25.8267 C   0  0  0  0  0  0  0  0  0  0  0  0
   10.5070  -17.5647   26.5329 C   0  0  2  0  0  0  0  0  0  0  0  0
   10.1531  -16.2642   26.0017 N   0  0  0  0  0  0  0  0  0  0  0  0
   10.7125  -17.5312   28.0041 C   0  0  0  0  0  0  0  0  0  0  0  0
   11.2081  -16.4934   28.5037 O   0  0  0  0  0  0  0  0  0  0  0  0
   10.3759  -18.5927   28.7994 O   0  0  0  0  0  0  0  0  0  0  0  0
  1  2  1  0
  2  3  2  0
  4  5  1  0
  4  2  1  0
  5  6  1  1
  7  5  1  0
  8  7  2  0
  9 10  1  0
 10 11  1  0
 11 12  1  1
 13 11  1  0
 13 14  1  6
 14  7  1  0
 15 22  1  0
 15 13  1  0
 16 15  2  0
 18 17  1  0
 19 18  2  0
 20 18  1  0
 21 20  1  6
 21 22  1  0
 23 25  1  0
 23 21  1  0
 24 23  2  0
M  END
$$$$
