NIN.pdb
     RDKit          3D

 25 24  0  0  1  0  0  0  0  0999 V2000
    7.1295  -12.4047   17.9296 N   0  0  0  0  0  0  0  0  0  0  0  0
    7.8000  -13.4841   18.5620 C   0  0  0  0  0  0  0  0  0  0  0  0
    7.9947  -14.5176   17.8618 O   0  0  0  0  0  0  0  0  0  0  0  0
    8.2533  -13.4177   19.9681 C   0  0  0  0  0  0  0  0  0  0  0  0
    8.0940  -14.7522   20.6695 C   0  0  2  0  0  0  0  0  0  0  0  0
    6.6507  -15.0119   20.7085 N   0  0  0  0  0  0  0  0  0  0  0  0
    8.5783  -14.6067   22.0669 C   0  0  0  0  0  0  0  0  0  0  0  0
    9.8009  -14.3001   22.2605 O   0  0  0  0  0  0  0  0  0  0  0  0
    5.7166  -12.2645   25.9977 C   0  0  0  0  0  0  0  0  0  0  0  0
    6.7732  -12.7044   24.9820 C   0  0  0  0  0  0  0  0  0  0  0  0
    7.3514  -13.9877   25.4845 C   0  0  2  0  0  0  0  0  0  0  0  0
    7.9487  -13.8762   26.8701 C   0  0  0  0  0  0  0  0  0  0  0  0
    8.3100  -14.6466   24.5223 C   0  0  2  0  0  0  0  0  0  0  0  0
    7.7568  -14.7897   23.2031 N   0  0  0  0  0  0  0  0  0  0  0  0
    8.7741  -15.9504   25.0736 C   0  0  0  0  0  0  0  0  0  0  0  0
    7.9582  -16.9210   25.2404 O   0  0  0  0  0  0  0  0  0  0  0  0
   10.6124  -18.6220   23.8079 N   0  0  0  0  0  0  0  0  0  0  0  0
   11.8985  -18.4600   24.4005 C   0  0  0  0  0  0  0  0  0  0  0  0
   12.9532  -18.8375   23.8323 O   0  0  0  0  0  0  0  0  0  0  0  0
   11.9561  -17.8145   25.7447 C   0  0  0  0  0  0  0  0  0  0  0  0
   10.5318  -17.4423   26.0952 C   0  0  2  0  0  0  0  0  0  0  0  0
   10.1187  -16.2140   25.4477 N   0  0  0  0  0  0  0  0  0  0  0  0
   10.3372  -17.3918   27.5674 C   0  0  0  0  0  0  0  0  0  0  0  0
   10.4267  -16.2763   28.1329 O   0  0  0  0  0  0  0  0  0  0  0  0
   10.0684  -18.5196   28.2942 O   0  0  0  0  0  0  0  0  0  0  0  0
  1  2  1  0
  2  3  2  0
  4  5  1  0
  4  2  1  0
  5  6  1  1
  7  5  1  0
  8  7  2  0
  9 10  1  0
 10 11  1  0
 11 12  1  1
 13 11  1  0
 13 14  1  6
 14  7  1  0
 15 22  1  0
 15 13  1  0
 16 15  2  0
 18 17  1  0
 19 18  2  0
 20 18  1  0
 21 20  1  1
 21 22  1  0
 23 25  1  0
 23 21  1  0
 24 23  2  0
M  END
$$$$
