NIN.pdb
     RDKit          3D

 25 24  0  0  1  0  0  0  0  0999 V2000
    6.9289  -16.5779   18.8805 N   0  0  0  0  0  0  0  0  0  0  0  0
    7.5588  -17.4342   19.8209 C   0  0  0  0  0  0  0  0  0  0  0  0
    7.5585  -18.6686   19.5514 O   0  0  0  0  0  0  0  0  0  0  0  0
    8.1873  -16.9229   21.0581 C   0  0  0  0  0  0  0  0  0  0  0  0
    7.8735  -15.4563   21.2786 C   0  0  2  0  0  0  0  0  0  0  0  0
    8.5670  -14.7349   20.2058 N   0  0  0  0  0  0  0  0  0  0  0  0
    8.4662  -15.0413   22.5767 C   0  0  0  0  0  0  0  0  0  0  0  0
    9.7203  -14.8163   22.6310 O   0  0  0  0  0  0  0  0  0  0  0  0
    6.0386  -11.7603   26.1093 C   0  0  0  0  0  0  0  0  0  0  0  0
    7.0746  -12.4079   25.1879 C   0  0  0  0  0  0  0  0  0  0  0  0
    7.5555  -13.6445   25.8759 C   0  0  2  0  0  0  0  0  0  0  0  0
    8.2505  -13.3689   27.1912 C   0  0  0  0  0  0  0  0  0  0  0  0
    8.3794  -14.5541   24.9969 C   0  0  2  0  0  0  0  0  0  0  0  0
    7.7157  -14.8801   23.7641 N   0  0  0  0  0  0  0  0  0  0  0  0
    8.7767  -15.7748   25.7526 C   0  0  0  0  0  0  0  0  0  0  0  0
    7.8964  -16.5968   26.1828 O   0  0  0  0  0  0  0  0  0  0  0  0
   12.6376  -17.4121   23.9941 N   0  0  0  0  0  0  0  0  0  0  0  0
   11.7265  -18.0985   24.8487 C   0  0  0  0  0  0  0  0  0  0  0  0
   10.8544  -18.8871   24.4071 O   0  0  0  0  0  0  0  0  0  0  0  0
   11.8423  -17.8473   26.3151 C   0  0  0  0  0  0  0  0  0  0  0  0
   10.4954  -17.3206   26.7604 C   0  0  2  0  0  0  0  0  0  0  0  0
   10.1236  -16.1150   26.0483 N   0  0  0  0  0  0  0  0  0  0  0  0
   10.4521  -17.1359   28.2342 C   0  0  0  0  0  0  0  0  0  0  0  0
   10.3155  -15.9703   28.6755 O   0  0  0  0  0  0  0  0  0  0  0  0
   10.5568  -18.1962   29.0930 O   0  0  0  0  0  0  0  0  0  0  0  0
  1  2  1  0
  2  3  2  0
  4  5  1  0
  4  2  1  0
  5  6  1  6
  7  5  1  0
  8  7  2  0
  9 10  1  0
 10 11  1  0
 11 12  1  1
 13 11  1  0
 13 14  1  6
 14  7  1  0
 15 22  1  0
 15 13  1  0
 16 15  2  0
 18 17  1  0
 19 18  2  0
 20 18  1  0
 21 20  1  6
 21 22  1  0
 23 25  1  0
 23 21  1  0
 24 23  2  0
M  END
$$$$
