NIN.pdb
     RDKit          3D

 25 24  0  0  1  0  0  0  0  0999 V2000
    8.5851  -21.6513   17.2665 N   0  0  0  0  0  0  0  0  0  0  0  0
    8.4229  -20.3429   17.7920 C   0  0  0  0  0  0  0  0  0  0  0  0
    7.2443  -19.9907   18.0804 O   0  0  0  0  0  0  0  0  0  0  0  0
    9.5655  -19.4265   17.9970 C   0  0  0  0  0  0  0  0  0  0  0  0
    9.2393  -18.0174   17.5432 C   0  0  2  0  0  0  0  0  0  0  0  0
   10.1402  -17.7425   16.4185 N   0  0  0  0  0  0  0  0  0  0  0  0
    9.5747  -17.0811   18.6474 C   0  0  0  0  0  0  0  0  0  0  0  0
   10.8025  -16.8279   18.8812 O   0  0  0  0  0  0  0  0  0  0  0  0
    7.0852  -12.4078   19.6897 C   0  0  0  0  0  0  0  0  0  0  0  0
    8.1019  -13.5217   19.4308 C   0  0  0  0  0  0  0  0  0  0  0  0
    8.1480  -14.3636   20.6649 C   0  0  2  0  0  0  0  0  0  0  0  0
    8.4794  -13.5794   21.9155 C   0  0  0  0  0  0  0  0  0  0  0  0
    9.0170  -15.5914   20.5374 C   0  0  2  0  0  0  0  0  0  0  0  0
    8.6052  -16.4496   19.4601 N   0  0  0  0  0  0  0  0  0  0  0  0
    9.0704  -16.3184   21.8365 C   0  0  0  0  0  0  0  0  0  0  0  0
    8.2551  -17.2705   22.0906 O   0  0  0  0  0  0  0  0  0  0  0  0
   12.8552  -19.4775   24.1518 N   0  0  0  0  0  0  0  0  0  0  0  0
   11.6253  -19.2590   23.4654 C   0  0  0  0  0  0  0  0  0  0  0  0
   10.6898  -20.0970   23.4786 O   0  0  0  0  0  0  0  0  0  0  0  0
   11.4789  -17.9775   22.7149 C   0  0  0  0  0  0  0  0  0  0  0  0
   10.6998  -17.0464   23.6181 C   0  0  2  0  0  0  0  0  0  0  0  0
   10.0018  -16.0228   22.8672 N   0  0  0  0  0  0  0  0  0  0  0  0
   11.5714  -16.4694   24.6741 C   0  0  0  0  0  0  0  0  0  0  0  0
   12.4629  -15.6611   24.3219 O   0  0  0  0  0  0  0  0  0  0  0  0
   11.4163  -16.8017   25.9925 O   0  0  0  0  0  0  0  0  0  0  0  0
  1  2  1  0
  2  3  2  0
  4  5  1  0
  4  2  1  0
  5  6  1  6
  7  5  1  0
  8  7  2  0
  9 10  1  0
 10 11  1  0
 11 12  1  1
 13 11  1  0
 13 14  1  6
 14  7  1  0
 15 22  1  0
 15 13  1  0
 16 15  2  0
 18 17  1  0
 19 18  2  0
 20 18  1  0
 21 20  1  6
 21 22  1  0
 23 25  1  0
 23 21  1  0
 24 23  2  0
M  END
$$$$
