KRK.pdb
     RDKit          3D

 30 29  0  0  1  0  0  0  0  0999 V2000
   22.3998  -21.2075  -19.0557 N   0  0  0  0  0  0  0  0  0  0  0  0
   22.0350  -20.3174  -17.9807 C   0  0  1  0  0  0  0  0  0  0  0  0
   20.7678  -19.5687  -18.4188 C   0  0  0  0  0  0  0  0  0  0  0  0
   21.0955  -18.5557  -19.4730 C   0  0  0  0  0  0  0  0  0  0  0  0
   21.7280  -17.3279  -18.8831 C   0  0  0  0  0  0  0  0  0  0  0  0
   21.9503  -16.3083  -19.9661 C   0  0  0  0  0  0  0  0  0  0  0  0
   22.6550  -15.1437  -19.4365 N   0  0  0  0  0  0  0  0  0  0  0  0
   21.7123  -21.0439  -16.7303 C   0  0  0  0  0  0  0  0  0  0  0  0
   21.2434  -22.2291  -16.7549 O   0  0  0  0  0  0  0  0  0  0  0  0
   26.3231  -22.5978  -11.0838 N   0  0  0  0  0  0  0  0  0  0  0  0
   26.4970  -21.5973  -12.0665 C   0  0  0  0  0  0  0  0  0  0  0  0
   27.2748  -21.7554  -13.0915 N   0  0  0  0  0  0  0  0  0  0  0  0
   25.7821  -20.3540  -11.9234 N   0  0  0  0  0  0  0  0  0  0  0  0
   24.3473  -20.4171  -11.7986 C   0  0  0  0  0  0  0  0  0  0  0  0
   23.7433  -21.0667  -13.0259 C   0  0  0  0  0  0  0  0  0  0  0  0
   22.2647  -20.7432  -13.0126 C   0  0  0  0  0  0  0  0  0  0  0  0
   21.5589  -21.2697  -14.2297 C   0  0  2  0  0  0  0  0  0  0  0  0
   21.8912  -20.5002  -15.4284 N   0  0  0  0  0  0  0  0  0  0  0  0
   20.0857  -21.3172  -14.0287 C   0  0  0  0  0  0  0  0  0  0  0  0
   19.4454  -20.2268  -14.0215 O   0  0  0  0  0  0  0  0  0  0  0  0
   27.3865  -20.9881  -13.7630 N   0  0  0  0  0  0  0  0  0  0  0  0
   19.4006  -22.5390  -13.8487 C   0  0  2  0  0  0  0  0  0  0  0  0
   17.9021  -22.5486  -13.6112 C   0  0  0  0  0  0  0  0  0  0  0  0
   17.5820  -23.9797  -13.4983 C   0  0  0  0  0  0  0  0  0  0  0  0
   16.2764  -24.5366  -13.2289 C   0  0  0  0  0  0  0  0  0  0  0  0
   15.9340  -25.9537  -13.1635 C   0  0  0  0  0  0  0  0  0  0  0  0
   14.4547  -26.2533  -12.9190 N   0  0  0  0  0  0  0  0  0  0  0  0
   14.2183  -27.6525  -12.6993 C   0  0  0  0  0  0  0  0  0  0  0  0
   17.8610  -21.9109  -12.2310 O   0  0  0  0  0  0  0  0  0  0  0  0
   16.6415  -21.2812  -11.8630 O   0  0  0  0  0  0  0  0  0  0  0  0
  2  1  1  6
  3  2  1  0
  4  5  1  0
  4  3  1  0
  6  7  1  0
  6  5  1  0
  8  2  1  0
  9  8  2  0
 10 11  1  0
 11 12  2  0
 11 13  1  0
 13 14  1  0
 14 15  1  0
 15 16  1  0
 17 16  1  1
 17 19  1  0
 17 18  1  0
 18  8  1  0
 19 20  2  0
 21 22  1  0
 21 19  1  0
 22 28  1  0
 22 23  1  6
 24 23  1  0
 25 24  1  0
 26 25  1  0
 27 26  1  0
 28 30  2  0
 28 29  1  0
M  END
$$$$
