KRK.pdb
     RDKit          3D

 30 29  0  0  1  0  0  0  0  0999 V2000
   17.7183  -23.0144  -11.8220 N   0  0  0  0  0  0  0  0  0  0  0  0
   18.2588  -23.8619  -12.8567 C   0  0  1  0  0  0  0  0  0  0  0  0
   17.1295  -24.1312  -13.8617 C   0  0  0  0  0  0  0  0  0  0  0  0
   16.0480  -24.9516  -13.2275 C   0  0  0  0  0  0  0  0  0  0  0  0
   14.9803  -25.3202  -14.2175 C   0  0  0  0  0  0  0  0  0  0  0  0
   13.9693  -26.2152  -13.5551 C   0  0  0  0  0  0  0  0  0  0  0  0
   13.3195  -25.5214  -12.4463 N   0  0  0  0  0  0  0  0  0  0  0  0
   19.3673  -23.2140  -13.5964 C   0  0  0  0  0  0  0  0  0  0  0  0
   19.5455  -21.9524  -13.5513 O   0  0  0  0  0  0  0  0  0  0  0  0
   27.1406  -25.9335  -16.5574 N   0  0  0  0  0  0  0  0  0  0  0  0
   27.1854  -24.5669  -16.9140 C   0  0  0  0  0  0  0  0  0  0  0  0
   28.2309  -24.0214  -17.4525 N   0  0  0  0  0  0  0  0  0  0  0  0
   26.0243  -23.7487  -16.6696 N   0  0  0  0  0  0  0  0  0  0  0  0
   24.8815  -24.3751  -16.0534 C   0  0  0  0  0  0  0  0  0  0  0  0
   23.7355  -23.3903  -15.9533 C   0  0  0  0  0  0  0  0  0  0  0  0
   22.6112  -24.0956  -15.2256 C   0  0  0  0  0  0  0  0  0  0  0  0
   21.3936  -23.2269  -15.0868 C   0  0  2  0  0  0  0  0  0  0  0  0
   20.3043  -23.9204  -14.3998 N   0  0  0  0  0  0  0  0  0  0  0  0
   20.9376  -22.7111  -16.4055 C   0  0  0  0  0  0  0  0  0  0  0  0
   20.3699  -23.5142  -17.2005 O   0  0  0  0  0  0  0  0  0  0  0  0
   28.2283  -23.0154  -17.6530 N   0  0  0  0  0  0  0  0  0  0  0  0
   21.1245  -21.3622  -16.7794 C   0  0  2  0  0  0  0  0  0  0  0  0
   20.7185  -20.8877  -18.1622 C   0  0  0  0  0  0  0  0  0  0  0  0
   20.8536  -19.4256  -18.0764 C   0  0  0  0  0  0  0  0  0  0  0  0
   20.5146  -18.4815  -19.1161 C   0  0  0  0  0  0  0  0  0  0  0  0
   20.5908  -17.0270  -19.0262 C   0  0  0  0  0  0  0  0  0  0  0  0
   20.2688  -16.2790  -20.3203 N   0  0  0  0  0  0  0  0  0  0  0  0
   20.4965  -14.8667  -20.1962 C   0  0  0  0  0  0  0  0  0  0  0  0
   21.8732  -21.4553  -18.9732 O   0  0  0  0  0  0  0  0  0  0  0  0
   21.5805  -21.8268  -20.3131 O   0  0  0  0  0  0  0  0  0  0  0  0
  2  1  1  1
  3  2  1  0
  4  5  1  0
  4  3  1  0
  6  7  1  0
  6  5  1  0
  8  2  1  0
  9  8  2  0
 10 11  1  0
 11 12  2  0
 11 13  1  0
 13 14  1  0
 14 15  1  0
 15 16  1  0
 17 16  1  6
 17 19  1  0
 17 18  1  0
 18  8  1  0
 19 20  2  0
 21 22  1  0
 21 19  1  0
 22 28  1  0
 22 23  1  1
 24 23  1  0
 25 24  1  0
 26 25  1  0
 27 26  1  0
 28 30  2  0
 28 29  1  0
M  END
$$$$
