KRK.pdb
     RDKit          3D

 30 29  0  0  1  0  0  0  0  0999 V2000
   26.9859  -22.4595  -17.0881 N   0  0  0  0  0  0  0  0  0  0  0  0
   26.9783  -21.2653  -16.2789 C   0  0  1  0  0  0  0  0  0  0  0  0
   26.2441  -20.1783  -17.0773 C   0  0  0  0  0  0  0  0  0  0  0  0
   26.6328  -20.2370  -18.5231 C   0  0  0  0  0  0  0  0  0  0  0  0
   25.4294  -20.2106  -19.4213 C   0  0  0  0  0  0  0  0  0  0  0  0
   25.5815  -19.1070  -20.4316 C   0  0  0  0  0  0  0  0  0  0  0  0
   24.4512  -19.0999  -21.3566 N   0  0  0  0  0  0  0  0  0  0  0  0
   26.2468  -21.4511  -15.0038 C   0  0  0  0  0  0  0  0  0  0  0  0
   25.0822  -21.9692  -14.9777 O   0  0  0  0  0  0  0  0  0  0  0  0
   28.0769  -19.8495   -6.5068 N   0  0  0  0  0  0  0  0  0  0  0  0
   26.7116  -20.2057   -6.4294 C   0  0  0  0  0  0  0  0  0  0  0  0
   26.0613  -20.2331   -5.3082 N   0  0  0  0  0  0  0  0  0  0  0  0
   26.0160  -20.5515   -7.6434 N   0  0  0  0  0  0  0  0  0  0  0  0
   26.7578  -20.4989   -8.8784 C   0  0  0  0  0  0  0  0  0  0  0  0
   25.8603  -20.8587  -10.0437 C   0  0  0  0  0  0  0  0  0  0  0  0
   26.7103  -20.7831  -11.2938 C   0  0  0  0  0  0  0  0  0  0  0  0
   25.9250  -21.1055  -12.5331 C   0  0  2  0  0  0  0  0  0  0  0  0
   26.7626  -21.0788  -13.7319 N   0  0  0  0  0  0  0  0  0  0  0  0
   24.7560  -20.1990  -12.6900 C   0  0  0  0  0  0  0  0  0  0  0  0
   24.9709  -18.9866  -12.9779 O   0  0  0  0  0  0  0  0  0  0  0  0
   25.0671  -20.4856   -5.3078 N   0  0  0  0  0  0  0  0  0  0  0  0
   23.4316  -20.6610  -12.5257 C   0  0  2  0  0  0  0  0  0  0  0  0
   22.2649  -19.6980  -12.6416 C   0  0  0  0  0  0  0  0  0  0  0  0
   22.0170  -19.6325  -14.0899 C   0  0  0  0  0  0  0  0  0  0  0  0
   20.8780  -19.0126  -14.7268 C   0  0  0  0  0  0  0  0  0  0  0  0
   20.6237  -18.9310  -16.1615 C   0  0  0  0  0  0  0  0  0  0  0  0
   19.3345  -18.2075  -16.5520 N   0  0  0  0  0  0  0  0  0  0  0  0
   19.1081  -18.2392  -17.9695 C   0  0  0  0  0  0  0  0  0  0  0  0
   21.1803  -20.5345  -11.9804 O   0  0  0  0  0  0  0  0  0  0  0  0
   21.2916  -21.9433  -12.1288 O   0  0  0  0  0  0  0  0  0  0  0  0
  2  1  1  6
  3  2  1  0
  4  5  1  0
  4  3  1  0
  6  7  1  0
  6  5  1  0
  8  2  1  0
  9  8  2  0
 10 11  1  0
 11 12  2  0
 11 13  1  0
 13 14  1  0
 14 15  1  0
 15 16  1  0
 17 16  1  1
 17 19  1  0
 17 18  1  0
 18  8  1  0
 19 20  2  0
 21 22  1  0
 21 19  1  0
 22 28  1  0
 22 23  1  1
 24 23  1  0
 25 24  1  0
 26 25  1  0
 27 26  1  0
 28 30  2  0
 28 29  1  0
M  END
$$$$
