KRK.pdb
     RDKit          3D

 30 29  0  0  1  0  0  0  0  0999 V2000
   24.7964  -21.7470  -18.9666 N   0  0  0  0  0  0  0  0  0  0  0  0
   24.3183  -22.7597  -18.0572 C   0  0  1  0  0  0  0  0  0  0  0  0
   22.7964  -22.8539  -18.2389 C   0  0  0  0  0  0  0  0  0  0  0  0
   22.1366  -21.5818  -17.8016 C   0  0  0  0  0  0  0  0  0  0  0  0
   20.6399  -21.6793  -17.8802 C   0  0  0  0  0  0  0  0  0  0  0  0
   20.0275  -20.3910  -17.4036 C   0  0  0  0  0  0  0  0  0  0  0  0
   18.5744  -20.4314  -17.5450 N   0  0  0  0  0  0  0  0  0  0  0  0
   24.8849  -24.0968  -18.3518 C   0  0  0  0  0  0  0  0  0  0  0  0
   24.6841  -24.6689  -19.4733 O   0  0  0  0  0  0  0  0  0  0  0  0
   31.2133  -27.8215  -18.5042 N   0  0  0  0  0  0  0  0  0  0  0  0
   31.0220  -29.0599  -17.8512 C   0  0  0  0  0  0  0  0  0  0  0  0
   31.7004  -30.1212  -18.1579 N   0  0  0  0  0  0  0  0  0  0  0  0
   30.0350  -29.1461  -16.8044 N   0  0  0  0  0  0  0  0  0  0  0  0
   29.3280  -27.9408  -16.4499 C   0  0  0  0  0  0  0  0  0  0  0  0
   28.1560  -27.7274  -17.3847 C   0  0  0  0  0  0  0  0  0  0  0  0
   27.5040  -26.4220  -16.9825 C   0  0  0  0  0  0  0  0  0  0  0  0
   26.2979  -26.1092  -17.8215 C   0  0  2  0  0  0  0  0  0  0  0  0
   25.6802  -24.8404  -17.4368 N   0  0  0  0  0  0  0  0  0  0  0  0
   25.3009  -27.2124  -17.7771 C   0  0  0  0  0  0  0  0  0  0  0  0
   24.6018  -27.3481  -16.7322 O   0  0  0  0  0  0  0  0  0  0  0  0
   31.5806  -30.9748  -17.6018 N   0  0  0  0  0  0  0  0  0  0  0  0
   25.1243  -28.0969  -18.8639 C   0  0  2  0  0  0  0  0  0  0  0  0
   24.0413  -29.1585  -18.8188 C   0  0  0  0  0  0  0  0  0  0  0  0
   22.8243  -28.4229  -19.1946 C   0  0  0  0  0  0  0  0  0  0  0  0
   21.5883  -29.0110  -19.6568 C   0  0  0  0  0  0  0  0  0  0  0  0
   20.3525  -28.3004  -19.9690 C   0  0  0  0  0  0  0  0  0  0  0  0
   19.1833  -29.1885  -20.3961 N   0  0  0  0  0  0  0  0  0  0  0  0
   17.9850  -28.4296  -20.6195 C   0  0  0  0  0  0  0  0  0  0  0  0
   24.4886  -30.0254  -19.9856 O   0  0  0  0  0  0  0  0  0  0  0  0
   24.1531  -31.4042  -19.9123 O   0  0  0  0  0  0  0  0  0  0  0  0
  2  1  1  6
  3  2  1  0
  4  5  1  0
  4  3  1  0
  6  7  1  0
  6  5  1  0
  8  2  1  0
  9  8  2  0
 10 11  1  0
 11 12  2  0
 11 13  1  0
 13 14  1  0
 14 15  1  0
 15 16  1  0
 17 16  1  1
 17 19  1  0
 17 18  1  0
 18  8  1  0
 19 20  2  0
 21 22  1  0
 21 19  1  0
 22 28  1  0
 22 23  1  6
 24 23  1  0
 25 24  1  0
 26 25  1  0
 27 26  1  0
 28 30  2  0
 28 29  1  0
M  END
$$$$
