KRK.pdb
     RDKit          3D

 30 29  0  0  1  0  0  0  0  0999 V2000
   18.9279  -26.1787  -11.0039 N   0  0  0  0  0  0  0  0  0  0  0  0
   18.4785  -26.1875  -12.3747 C   0  0  1  0  0  0  0  0  0  0  0  0
   16.9846  -25.8324  -12.3670 C   0  0  0  0  0  0  0  0  0  0  0  0
   16.2018  -26.8746  -11.6281 C   0  0  0  0  0  0  0  0  0  0  0  0
   15.7915  -28.0024  -12.5311 C   0  0  0  0  0  0  0  0  0  0  0  0
   14.8749  -28.9335  -11.7863 C   0  0  0  0  0  0  0  0  0  0  0  0
   15.6434  -29.8300  -10.9267 N   0  0  0  0  0  0  0  0  0  0  0  0
   19.1722  -25.1740  -13.2035 C   0  0  0  0  0  0  0  0  0  0  0  0
   19.1629  -23.9394  -12.8857 O   0  0  0  0  0  0  0  0  0  0  0  0
   25.3366  -26.4702  -16.3379 N   0  0  0  0  0  0  0  0  0  0  0  0
   25.7468  -25.1203  -16.2585 C   0  0  0  0  0  0  0  0  0  0  0  0
   26.8831  -24.7665  -15.7443 N   0  0  0  0  0  0  0  0  0  0  0  0
   24.8682  -24.0981  -16.7689 N   0  0  0  0  0  0  0  0  0  0  0  0
   23.6348  -24.5211  -17.3837 C   0  0  0  0  0  0  0  0  0  0  0  0
   22.4553  -23.8689  -16.6934 C   0  0  0  0  0  0  0  0  0  0  0  0
   21.7318  -24.9596  -15.9332 C   0  0  0  0  0  0  0  0  0  0  0  0
   20.5482  -24.4313  -15.1740 C   0  0  2  0  0  0  0  0  0  0  0  0
   19.8895  -25.4783  -14.3932 N   0  0  0  0  0  0  0  0  0  0  0  0
   19.5752  -23.7604  -16.0774 C   0  0  0  0  0  0  0  0  0  0  0  0
   18.6596  -24.4595  -16.5990 O   0  0  0  0  0  0  0  0  0  0  0  0
   27.1481  -23.7756  -15.7397 N   0  0  0  0  0  0  0  0  0  0  0  0
   19.6547  -22.3786  -16.3584 C   0  0  1  0  0  0  0  0  0  0  0  0
   18.5685  -21.6990  -17.1711 C   0  0  0  0  0  0  0  0  0  0  0  0
   17.3671  -22.4915  -16.8683 C   0  0  0  0  0  0  0  0  0  0  0  0
   16.0227  -22.1912  -17.3037 C   0  0  0  0  0  0  0  0  0  0  0  0
   14.8282  -22.9890  -17.0459 C   0  0  0  0  0  0  0  0  0  0  0  0
   13.5408  -22.4505  -17.6707 N   0  0  0  0  0  0  0  0  0  0  0  0
   12.3915  -23.2174  -17.2799 C   0  0  0  0  0  0  0  0  0  0  0  0
   18.4964  -20.3701  -16.4348 O   0  0  0  0  0  0  0  0  0  0  0  0
   19.0408  -19.2444  -17.1099 O   0  0  0  0  0  0  0  0  0  0  0  0
  2  1  1  1
  3  2  1  0
  4  5  1  0
  4  3  1  0
  6  7  1  0
  6  5  1  0
  8  2  1  0
  9  8  2  0
 10 11  1  0
 11 12  2  0
 11 13  1  0
 13 14  1  0
 14 15  1  0
 15 16  1  0
 17 16  1  6
 17 19  1  0
 17 18  1  0
 18  8  1  0
 19 20  2  0
 21 22  1  0
 21 19  1  0
 22 28  1  0
 22 23  1  6
 24 23  1  0
 25 24  1  0
 26 25  1  0
 27 26  1  0
 28 30  2  0
 28 29  1  0
M  END
$$$$
