KRK.pdb
     RDKit          3D

 30 29  0  0  1  0  0  0  0  0999 V2000
   17.8746  -23.8470   -9.3794 N   0  0  0  0  0  0  0  0  0  0  0  0
   17.2620  -22.8415  -10.2129 C   0  0  1  0  0  0  0  0  0  0  0  0
   16.1210  -22.2102   -9.4019 C   0  0  0  0  0  0  0  0  0  0  0  0
   15.1639  -23.2643   -8.9354 C   0  0  0  0  0  0  0  0  0  0  0  0
   13.8169  -23.1144   -9.5826 C   0  0  0  0  0  0  0  0  0  0  0  0
   12.8798  -24.1572   -9.0384 C   0  0  0  0  0  0  0  0  0  0  0  0
   12.8202  -24.0818   -7.5810 N   0  0  0  0  0  0  0  0  0  0  0  0
   18.2040  -21.7563  -10.5743 C   0  0  0  0  0  0  0  0  0  0  0  0
   17.7914  -20.6647  -11.0877 O   0  0  0  0  0  0  0  0  0  0  0  0
   25.3696  -23.4355  -13.2816 N   0  0  0  0  0  0  0  0  0  0  0  0
   25.7164  -22.0877  -13.5268 C   0  0  0  0  0  0  0  0  0  0  0  0
   26.3820  -21.7196  -14.5767 N   0  0  0  0  0  0  0  0  0  0  0  0
   25.3146  -21.0845  -12.5732 N   0  0  0  0  0  0  0  0  0  0  0  0
   24.3327  -21.4552  -11.5850 C   0  0  0  0  0  0  0  0  0  0  0  0
   22.9369  -21.1896  -12.1087 C   0  0  0  0  0  0  0  0  0  0  0  0
   21.9740  -21.5485  -10.9974 C   0  0  0  0  0  0  0  0  0  0  0  0
   20.5426  -21.3243  -11.3940 C   0  0  2  0  0  0  0  0  0  0  0  0
   19.6116  -21.8327  -10.3868 N   0  0  0  0  0  0  0  0  0  0  0  0
   20.2464  -21.9145  -12.7270 C   0  0  0  0  0  0  0  0  0  0  0  0
   20.2277  -23.1743  -12.8351 O   0  0  0  0  0  0  0  0  0  0  0  0
   26.5740  -20.7235  -14.7286 N   0  0  0  0  0  0  0  0  0  0  0  0
   19.9899  -21.1057  -13.8560 C   0  0  2  0  0  0  0  0  0  0  0  0
   19.5717  -21.7369  -15.1708 C   0  0  0  0  0  0  0  0  0  0  0  0
   18.1072  -21.6011  -15.1658 C   0  0  0  0  0  0  0  0  0  0  0  0
   17.2302  -21.8479  -16.2871 C   0  0  0  0  0  0  0  0  0  0  0  0
   15.7965  -21.5809  -16.3428 C   0  0  0  0  0  0  0  0  0  0  0  0
   15.1226  -21.9296  -17.6703 N   0  0  0  0  0  0  0  0  0  0  0  0
   13.7120  -21.6623  -17.6439 C   0  0  0  0  0  0  0  0  0  0  0  0
   20.1699  -20.7265  -16.1375 O   0  0  0  0  0  0  0  0  0  0  0  0
   20.4829  -21.2062  -17.4379 O   0  0  0  0  0  0  0  0  0  0  0  0
  2  1  1  1
  3  2  1  0
  4  5  1  0
  4  3  1  0
  6  7  1  0
  6  5  1  0
  8  2  1  0
  9  8  2  0
 10 11  1  0
 11 12  2  0
 11 13  1  0
 13 14  1  0
 14 15  1  0
 15 16  1  0
 17 16  1  1
 17 19  1  0
 17 18  1  0
 18  8  1  0
 19 20  2  0
 21 22  1  0
 21 19  1  0
 22 28  1  0
 22 23  1  6
 24 23  1  0
 25 24  1  0
 26 25  1  0
 27 26  1  0
 28 30  2  0
 28 29  1  0
M  END
$$$$
