KRK.pdb
     RDKit          3D

 30 29  0  0  1  0  0  0  0  0999 V2000
   28.1566  -23.4188  -17.0477 N   0  0  0  0  0  0  0  0  0  0  0  0
   28.0024  -22.1047  -16.4731 C   0  0  1  0  0  0  0  0  0  0  0  0
   27.6596  -21.1429  -17.6202 C   0  0  0  0  0  0  0  0  0  0  0  0
   28.8954  -20.7763  -18.3839 C   0  0  0  0  0  0  0  0  0  0  0  0
   28.8613  -21.3173  -19.7846 C   0  0  0  0  0  0  0  0  0  0  0  0
   30.0828  -20.8558  -20.5307 C   0  0  0  0  0  0  0  0  0  0  0  0
   30.0702  -21.3655  -21.8993 N   0  0  0  0  0  0  0  0  0  0  0  0
   26.8921  -22.0426  -15.4940 C   0  0  0  0  0  0  0  0  0  0  0  0
   25.7296  -22.4796  -15.7821 O   0  0  0  0  0  0  0  0  0  0  0  0
   22.8165  -20.4679   -9.8083 N   0  0  0  0  0  0  0  0  0  0  0  0
   23.4642  -20.9214   -8.6372 C   0  0  0  0  0  0  0  0  0  0  0  0
   22.8139  -21.3943   -7.6202 N   0  0  0  0  0  0  0  0  0  0  0  0
   24.9025  -20.8556   -8.5712 N   0  0  0  0  0  0  0  0  0  0  0  0
   25.5967  -20.2509   -9.6806 C   0  0  0  0  0  0  0  0  0  0  0  0
   25.0760  -20.8069  -10.9894 C   0  0  0  0  0  0  0  0  0  0  0  0
   26.2681  -20.9538  -11.9105 C   0  0  0  0  0  0  0  0  0  0  0  0
   25.8684  -21.4055  -13.2863 C   0  0  2  0  0  0  0  0  0  0  0  0
   27.0195  -21.5056  -14.1833 N   0  0  0  0  0  0  0  0  0  0  0  0
   24.8244  -20.5208  -13.8697 C   0  0  0  0  0  0  0  0  0  0  0  0
   25.1322  -19.3234  -14.1353 O   0  0  0  0  0  0  0  0  0  0  0  0
   23.3328  -21.7299   -6.8015 N   0  0  0  0  0  0  0  0  0  0  0  0
   23.5166  -20.9870  -14.1280 C   0  0  2  0  0  0  0  0  0  0  0  0
   22.4698  -20.0512  -14.7028 C   0  0  0  0  0  0  0  0  0  0  0  0
   22.1135  -20.6804  -15.9836 C   0  0  0  0  0  0  0  0  0  0  0  0
   21.0337  -20.2763  -16.8541 C   0  0  0  0  0  0  0  0  0  0  0  0
   20.6477  -20.9108  -18.1103 C   0  0  0  0  0  0  0  0  0  0  0  0
   19.4558  -20.2696  -18.8218 N   0  0  0  0  0  0  0  0  0  0  0  0
   19.1573  -20.9221  -20.0656 C   0  0  0  0  0  0  0  0  0  0  0  0
   21.3498  -20.2781  -13.6992 O   0  0  0  0  0  0  0  0  0  0  0  0
   20.2667  -19.3595  -13.7441 O   0  0  0  0  0  0  0  0  0  0  0  0
  2  1  1  6
  3  2  1  0
  4  5  1  0
  4  3  1  0
  6  7  1  0
  6  5  1  0
  8  2  1  0
  9  8  2  0
 10 11  1  0
 11 12  2  0
 11 13  1  0
 13 14  1  0
 14 15  1  0
 15 16  1  0
 17 16  1  1
 17 19  1  0
 17 18  1  0
 18  8  1  0
 19 20  2  0
 21 22  1  0
 21 19  1  0
 22 28  1  0
 22 23  1  6
 24 23  1  0
 25 24  1  0
 26 25  1  0
 27 26  1  0
 28 30  2  0
 28 29  1  0
M  END
$$$$
