KRK.pdb
     RDKit          3D

 30 29  0  0  1  0  0  0  0  0999 V2000
   18.5537  -20.9333  -11.8288 N   0  0  0  0  0  0  0  0  0  0  0  0
   19.3203  -21.5336  -12.8932 C   0  0  1  0  0  0  0  0  0  0  0  0
   18.4795  -21.4316  -14.1741 C   0  0  0  0  0  0  0  0  0  0  0  0
   17.2068  -22.2087  -14.0290 C   0  0  0  0  0  0  0  0  0  0  0  0
   17.4728  -23.6512  -13.7064 C   0  0  0  0  0  0  0  0  0  0  0  0
   16.1684  -24.3948  -13.6198 C   0  0  0  0  0  0  0  0  0  0  0  0
   16.3845  -25.7526  -13.1268 N   0  0  0  0  0  0  0  0  0  0  0  0
   20.5964  -20.8226  -13.1411 C   0  0  0  0  0  0  0  0  0  0  0  0
   20.6175  -19.6694  -13.6844 O   0  0  0  0  0  0  0  0  0  0  0  0
   26.3002  -22.8360  -14.4261 N   0  0  0  0  0  0  0  0  0  0  0  0
   27.5708  -22.2413  -14.2565 C   0  0  0  0  0  0  0  0  0  0  0  0
   28.5113  -22.3428  -15.1430 N   0  0  0  0  0  0  0  0  0  0  0  0
   27.8306  -21.4936  -13.0521 N   0  0  0  0  0  0  0  0  0  0  0  0
   26.7191  -21.2362  -12.1709 C   0  0  0  0  0  0  0  0  0  0  0  0
   25.5948  -20.5628  -12.9295 C   0  0  0  0  0  0  0  0  0  0  0  0
   24.3185  -21.2884  -12.5609 C   0  0  0  0  0  0  0  0  0  0  0  0
   23.1056  -20.6466  -13.1719 C   0  0  2  0  0  0  0  0  0  0  0  0
   21.8750  -21.3473  -12.8056 N   0  0  0  0  0  0  0  0  0  0  0  0
   23.2293  -20.5427  -14.6507 C   0  0  0  0  0  0  0  0  0  0  0  0
   23.0046  -21.5748  -15.3460 O   0  0  0  0  0  0  0  0  0  0  0  0
   29.4318  -21.9330  -14.9510 N   0  0  0  0  0  0  0  0  0  0  0  0
   23.5876  -19.3311  -15.2818 C   0  0  2  0  0  0  0  0  0  0  0  0
   23.7051  -19.2606  -16.7929 C   0  0  0  0  0  0  0  0  0  0  0  0
   22.9815  -18.0268  -17.1358 C   0  0  0  0  0  0  0  0  0  0  0  0
   21.7905  -17.9421  -17.9493 C   0  0  0  0  0  0  0  0  0  0  0  0
   21.0528  -16.7283  -18.2842 C   0  0  0  0  0  0  0  0  0  0  0  0
   19.7995  -16.9439  -19.1330 N   0  0  0  0  0  0  0  0  0  0  0  0
   19.0452  -15.7330  -19.2959 C   0  0  0  0  0  0  0  0  0  0  0  0
   25.2016  -19.0206  -16.9189 O   0  0  0  0  0  0  0  0  0  0  0  0
   25.8248  -19.5242  -18.0924 O   0  0  0  0  0  0  0  0  0  0  0  0
  2  1  1  1
  3  2  1  0
  4  5  1  0
  4  3  1  0
  6  7  1  0
  6  5  1  0
  8  2  1  0
  9  8  2  0
 10 11  1  0
 11 12  2  0
 11 13  1  0
 13 14  1  0
 14 15  1  0
 15 16  1  0
 17 16  1  6
 17 19  1  0
 17 18  1  0
 18  8  1  0
 19 20  2  0
 21 22  1  0
 21 19  1  0
 22 28  1  0
 22 23  1  1
 24 23  1  0
 25 24  1  0
 26 25  1  0
 27 26  1  0
 28 30  2  0
 28 29  1  0
M  END
$$$$
