KRK.pdb
     RDKit          3D

 30 29  0  0  1  0  0  0  0  0999 V2000
   22.2044  -28.7403  -10.2974 N   0  0  0  0  0  0  0  0  0  0  0  0
   21.3347  -28.4478  -11.4106 C   0  0  1  0  0  0  0  0  0  0  0  0
   20.2206  -29.5046  -11.4087 C   0  0  0  0  0  0  0  0  0  0  0  0
   20.7163  -30.7900  -11.9977 C   0  0  0  0  0  0  0  0  0  0  0  0
   21.4329  -30.5630  -13.2979 C   0  0  0  0  0  0  0  0  0  0  0  0
   21.9556  -31.8737  -13.8183 C   0  0  0  0  0  0  0  0  0  0  0  0
   22.6625  -31.6782  -15.0813 N   0  0  0  0  0  0  0  0  0  0  0  0
   20.6883  -27.1201  -11.2892 C   0  0  0  0  0  0  0  0  0  0  0  0
   20.2310  -26.7055  -10.1737 O   0  0  0  0  0  0  0  0  0  0  0  0
   20.7253  -19.0485  -14.5435 N   0  0  0  0  0  0  0  0  0  0  0  0
   21.7677  -19.9580  -14.2555 C   0  0  0  0  0  0  0  0  0  0  0  0
   22.9966  -19.5794  -14.0903 N   0  0  0  0  0  0  0  0  0  0  0  0
   21.4524  -21.3597  -14.1410 N   0  0  0  0  0  0  0  0  0  0  0  0
   20.0763  -21.7527  -14.3148 C   0  0  0  0  0  0  0  0  0  0  0  0
   19.6234  -22.6034  -13.1467 C   0  0  0  0  0  0  0  0  0  0  0  0
   20.3129  -23.9437  -13.2848 C   0  0  0  0  0  0  0  0  0  0  0  0
   19.9410  -24.8886  -12.1778 C   0  0  2  0  0  0  0  0  0  0  0  0
   20.5246  -26.2154  -12.3742 N   0  0  0  0  0  0  0  0  0  0  0  0
   18.4655  -24.9838  -12.0138 C   0  0  0  0  0  0  0  0  0  0  0  0
   17.8085  -25.6488  -12.8654 O   0  0  0  0  0  0  0  0  0  0  0  0
   23.7082  -20.2730  -13.8358 N   0  0  0  0  0  0  0  0  0  0  0  0
   17.7962  -24.3547  -10.9411 C   0  0  2  0  0  0  0  0  0  0  0  0
   16.2941  -24.5006  -10.7848 C   0  0  0  0  0  0  0  0  0  0  0  0
   16.0670  -24.2039   -9.3623 C   0  0  0  0  0  0  0  0  0  0  0  0
   16.2431  -25.1283   -8.2659 C   0  0  0  0  0  0  0  0  0  0  0  0
   17.3273  -25.1198   -7.2892 C   0  0  0  0  0  0  0  0  0  0  0  0
   17.1942  -26.1454   -6.1630 N   0  0  0  0  0  0  0  0  0  0  0  0
   18.2663  -26.0434   -5.2131 C   0  0  0  0  0  0  0  0  0  0  0  0
   15.8366  -23.3197  -11.6269 O   0  0  0  0  0  0  0  0  0  0  0  0
   14.5089  -23.3799  -12.1296 O   0  0  0  0  0  0  0  0  0  0  0  0
  2  1  1  1
  3  2  1  0
  4  5  1  0
  4  3  1  0
  6  7  1  0
  6  5  1  0
  8  2  1  0
  9  8  2  0
 10 11  1  0
 11 12  2  0
 11 13  1  0
 13 14  1  0
 14 15  1  0
 15 16  1  0
 17 16  1  6
 17 19  1  0
 17 18  1  0
 18  8  1  0
 19 20  2  0
 21 22  1  0
 21 19  1  0
 22 28  1  0
 22 23  1  6
 24 23  1  0
 25 24  1  0
 26 25  1  0
 27 26  1  0
 28 30  2  0
 28 29  1  0
M  END
$$$$
