KRK.pdb
     RDKit          3D

 30 29  0  0  1  0  0  0  0  0999 V2000
   28.1528  -23.0954  -17.5257 N   0  0  0  0  0  0  0  0  0  0  0  0
   27.7811  -21.8445  -16.9108 C   0  0  1  0  0  0  0  0  0  0  0  0
   27.1258  -20.9794  -17.9971 C   0  0  0  0  0  0  0  0  0  0  0  0
   28.1349  -20.5834  -19.0314 C   0  0  0  0  0  0  0  0  0  0  0  0
   28.6962  -19.2166  -18.7623 C   0  0  0  0  0  0  0  0  0  0  0  0
   29.6196  -18.8238  -19.8825 C   0  0  0  0  0  0  0  0  0  0  0  0
   30.2296  -17.5246  -19.6119 N   0  0  0  0  0  0  0  0  0  0  0  0
   26.7888  -22.0215  -15.8247 C   0  0  0  0  0  0  0  0  0  0  0  0
   25.7572  -22.7537  -15.9828 O   0  0  0  0  0  0  0  0  0  0  0  0
   22.7155  -20.1496   -9.6654 N   0  0  0  0  0  0  0  0  0  0  0  0
   23.5558  -20.7561   -8.7048 C   0  0  0  0  0  0  0  0  0  0  0  0
   23.0937  -21.3296   -7.6379 N   0  0  0  0  0  0  0  0  0  0  0  0
   24.9809  -20.7362   -8.9197 N   0  0  0  0  0  0  0  0  0  0  0  0
   25.4734  -20.0347  -10.0788 C   0  0  0  0  0  0  0  0  0  0  0  0
   24.9730  -20.6989  -11.3443 C   0  0  0  0  0  0  0  0  0  0  0  0
   26.1581  -20.8150  -12.2788 C   0  0  0  0  0  0  0  0  0  0  0  0
   25.7817  -21.4291  -13.5971 C   0  0  2  0  0  0  0  0  0  0  0  0
   26.8947  -21.4084  -14.5459 N   0  0  0  0  0  0  0  0  0  0  0  0
   24.5816  -20.7731  -14.1822 C   0  0  0  0  0  0  0  0  0  0  0  0
   24.6619  -19.5532  -14.5053 O   0  0  0  0  0  0  0  0  0  0  0  0
   23.7447  -21.7762   -6.9830 N   0  0  0  0  0  0  0  0  0  0  0  0
   23.3736  -21.4774  -14.3802 C   0  0  2  0  0  0  0  0  0  0  0  0
   22.1919  -20.7982  -15.0468 C   0  0  0  0  0  0  0  0  0  0  0  0
   21.2782  -21.9122  -15.3425 C   0  0  0  0  0  0  0  0  0  0  0  0
   19.9580  -21.7948  -15.9173 C   0  0  0  0  0  0  0  0  0  0  0  0
   19.0603  -22.8927  -16.2612 C   0  0  0  0  0  0  0  0  0  0  0  0
   17.6851  -22.4689  -16.7782 N   0  0  0  0  0  0  0  0  0  0  0  0
   16.9332  -23.5834  -17.2826 C   0  0  0  0  0  0  0  0  0  0  0  0
   21.6564  -20.0053  -13.8645 O   0  0  0  0  0  0  0  0  0  0  0  0
   20.9204  -18.8300  -14.1745 O   0  0  0  0  0  0  0  0  0  0  0  0
  2  1  1  6
  3  2  1  0
  4  5  1  0
  4  3  1  0
  6  7  1  0
  6  5  1  0
  8  2  1  0
  9  8  2  0
 10 11  1  0
 11 12  2  0
 11 13  1  0
 13 14  1  0
 14 15  1  0
 15 16  1  0
 17 16  1  1
 17 19  1  0
 17 18  1  0
 18  8  1  0
 19 20  2  0
 21 22  1  0
 21 19  1  0
 22 28  1  0
 22 23  1  6
 24 23  1  0
 25 24  1  0
 26 25  1  0
 27 26  1  0
 28 30  2  0
 28 29  1  0
M  END
$$$$
