KRK.pdb
     RDKit          3D

 30 29  0  0  1  0  0  0  0  0999 V2000
   14.7457  -22.2450   -0.1557 N   0  0  0  0  0  0  0  0  0  0  0  0
   14.4559  -22.0730    1.2470 C   0  0  1  0  0  0  0  0  0  0  0  0
   14.4291  -23.4710    1.8817 C   0  0  0  0  0  0  0  0  0  0  0  0
   13.2313  -24.2379    1.4104 C   0  0  0  0  0  0  0  0  0  0  0  0
   13.1370  -25.5810    2.0758 C   0  0  0  0  0  0  0  0  0  0  0  0
   11.9425  -26.3227    1.5420 C   0  0  0  0  0  0  0  0  0  0  0  0
   11.7957  -27.6101    2.2159 N   0  0  0  0  0  0  0  0  0  0  0  0
   15.4983  -21.2866    1.9473 C   0  0  0  0  0  0  0  0  0  0  0  0
   16.7160  -21.3175    1.5710 O   0  0  0  0  0  0  0  0  0  0  0  0
   16.2873  -13.1060    3.6900 N   0  0  0  0  0  0  0  0  0  0  0  0
   17.5115  -13.5556    4.2342 C   0  0  0  0  0  0  0  0  0  0  0  0
   18.4481  -12.7413    4.6087 N   0  0  0  0  0  0  0  0  0  0  0  0
   17.7266  -14.9735    4.3781 N   0  0  0  0  0  0  0  0  0  0  0  0
   16.6934  -15.8591    3.9021 C   0  0  0  0  0  0  0  0  0  0  0  0
   17.1147  -17.3018    4.0869 C   0  0  0  0  0  0  0  0  0  0  0  0
   15.9975  -18.1609    3.5348 C   0  0  0  0  0  0  0  0  0  0  0  0
   16.2953  -19.6277    3.6621 C   0  0  2  0  0  0  0  0  0  0  0  0
   15.2418  -20.4514    3.0695 N   0  0  0  0  0  0  0  0  0  0  0  0
   16.5301  -20.0163    5.0787 C   0  0  0  0  0  0  0  0  0  0  0  0
   15.5309  -20.3213    5.7911 O   0  0  0  0  0  0  0  0  0  0  0  0
   19.3230  -13.1191    4.9882 N   0  0  0  0  0  0  0  0  0  0  0  0
   17.8286  -20.0500    5.6332 C   0  0  2  0  0  0  0  0  0  0  0  0
   18.0302  -20.4321    7.0876 C   0  0  0  0  0  0  0  0  0  0  0  0
   18.7765  -21.6971    7.0094 C   0  0  0  0  0  0  0  0  0  0  0  0
   18.2155  -23.0211    7.1499 C   0  0  0  0  0  0  0  0  0  0  0  0
   18.9229  -24.2860    6.9787 C   0  0  0  0  0  0  0  0  0  0  0  0
   18.0725  -25.5390    7.1908 N   0  0  0  0  0  0  0  0  0  0  0  0
   18.8646  -26.7364    7.1707 C   0  0  0  0  0  0  0  0  0  0  0  0
   18.9710  -19.3157    7.5140 O   0  0  0  0  0  0  0  0  0  0  0  0
   19.0052  -19.0152    8.9023 O   0  0  0  0  0  0  0  0  0  0  0  0
  2  1  1  6
  3  2  1  0
  4  5  1  0
  4  3  1  0
  6  7  1  0
  6  5  1  0
  8  2  1  0
  9  8  2  0
 10 11  1  0
 11 12  2  0
 11 13  1  0
 13 14  1  0
 14 15  1  0
 15 16  1  0
 17 16  1  1
 17 19  1  0
 17 18  1  0
 18  8  1  0
 19 20  2  0
 21 22  1  0
 21 19  1  0
 22 28  1  0
 22 23  1  6
 24 23  1  0
 25 24  1  0
 26 25  1  0
 27 26  1  0
 28 30  2  0
 28 29  1  0
M  END
$$$$
