KRK.pdb
     RDKit          3D

 30 29  0  0  1  0  0  0  0  0999 V2000
   25.3978  -22.5201  -16.1358 N   0  0  0  0  0  0  0  0  0  0  0  0
   24.6465  -21.2911  -16.0572 C   0  0  1  0  0  0  0  0  0  0  0  0
   24.2512  -20.9060  -17.4902 C   0  0  0  0  0  0  0  0  0  0  0  0
   25.4709  -20.7487  -18.3462 C   0  0  0  0  0  0  0  0  0  0  0  0
   26.1124  -19.4044  -18.1539 C   0  0  0  0  0  0  0  0  0  0  0  0
   27.2771  -19.2650  -19.0951 C   0  0  0  0  0  0  0  0  0  0  0  0
   27.9218  -17.9657  -18.9235 N   0  0  0  0  0  0  0  0  0  0  0  0
   23.3964  -21.4418  -15.2763 C   0  0  0  0  0  0  0  0  0  0  0  0
   22.5684  -22.3786  -15.5258 O   0  0  0  0  0  0  0  0  0  0  0  0
   18.5751  -21.7032   -9.7989 N   0  0  0  0  0  0  0  0  0  0  0  0
   19.7477  -21.7949   -9.0157 C   0  0  0  0  0  0  0  0  0  0  0  0
   19.9337  -22.7399   -8.1479 N   0  0  0  0  0  0  0  0  0  0  0  0
   20.7759  -20.7997   -9.1886 N   0  0  0  0  0  0  0  0  0  0  0  0
   20.5133  -19.7179  -10.1046 C   0  0  0  0  0  0  0  0  0  0  0  0
   20.3568  -20.2512  -11.5132 C   0  0  0  0  0  0  0  0  0  0  0  0
   21.7013  -20.1019  -12.1923 C   0  0  0  0  0  0  0  0  0  0  0  0
   21.7034  -20.6825  -13.5778 C   0  0  2  0  0  0  0  0  0  0  0  0
   23.0185  -20.5801  -14.2099 N   0  0  0  0  0  0  0  0  0  0  0  0
   20.6602  -20.0564  -14.4338 C   0  0  0  0  0  0  0  0  0  0  0  0
   20.8858  -18.9078  -14.9120 O   0  0  0  0  0  0  0  0  0  0  0  0
   20.8077  -22.7675   -7.6117 N   0  0  0  0  0  0  0  0  0  0  0  0
   19.4417  -20.7118  -14.7172 C   0  0  2  0  0  0  0  0  0  0  0  0
   18.3888  -20.0336  -15.5736 C   0  0  0  0  0  0  0  0  0  0  0  0
   17.7197  -21.1565  -16.2478 C   0  0  0  0  0  0  0  0  0  0  0  0
   16.7197  -21.0471  -17.2847 C   0  0  0  0  0  0  0  0  0  0  0  0
   16.0781  -22.1509  -17.9917 C   0  0  0  0  0  0  0  0  0  0  0  0
   15.0843  -21.7360  -19.0771 N   0  0  0  0  0  0  0  0  0  0  0  0
   14.5075  -22.8713  -19.7407 C   0  0  0  0  0  0  0  0  0  0  0  0
   17.4842  -19.4901  -14.4784 O   0  0  0  0  0  0  0  0  0  0  0  0
   16.6770  -18.3727  -14.8234 O   0  0  0  0  0  0  0  0  0  0  0  0
  2  1  1  6
  3  2  1  0
  4  5  1  0
  4  3  1  0
  6  7  1  0
  6  5  1  0
  8  2  1  0
  9  8  2  0
 10 11  1  0
 11 12  2  0
 11 13  1  0
 13 14  1  0
 14 15  1  0
 15 16  1  0
 17 16  1  1
 17 19  1  0
 17 18  1  0
 18  8  1  0
 19 20  2  0
 21 22  1  0
 21 19  1  0
 22 28  1  0
 22 23  1  6
 24 23  1  0
 25 24  1  0
 26 25  1  0
 27 26  1  0
 28 30  2  0
 28 29  1  0
M  END
$$$$
