MYI.pdb
     RDKit          3D

 29 29  0  0  1  0  0  0  0  0999 V2000
   25.8890  -22.0640  -20.2388 C   0  0  0  0  0  0  0  0  0  0  0  0
   26.8199  -20.6032  -19.6792 S   0  0  0  0  0  0  0  0  0  0  0  0
   27.8039  -20.9885  -18.2101 C   0  0  0  0  0  0  0  0  0  0  0  0
   26.9004  -21.2673  -17.0457 C   0  0  0  0  0  0  0  0  0  0  0  0
   27.6731  -21.5529  -15.7844 C   0  0  2  0  0  0  0  0  0  0  0  0
   28.2736  -22.8689  -15.8966 N   0  0  0  0  0  0  0  0  0  0  0  0
   26.7402  -21.5822  -14.6179 C   0  0  0  0  0  0  0  0  0  0  0  0
   26.0528  -22.6185  -14.3396 O   0  0  0  0  0  0  0  0  0  0  0  0
   27.2953  -21.3922   -6.5935 O   0  0  0  0  0  0  0  0  0  0  0  0
   26.9332  -20.9046   -7.8365 C   0  0  0  0  0  0  0  0  0  0  0  0
   25.6177  -20.8258   -8.1916 C   0  0  0  0  0  0  0  0  0  0  0  0
   25.2744  -20.3280   -9.4574 C   0  0  0  0  0  0  0  0  0  0  0  0
   26.2335  -19.9179  -10.3475 C   0  0  0  0  0  0  0  0  0  0  0  0
   25.8863  -19.3960  -11.6605 C   0  0  0  0  0  0  0  0  0  0  0  0
   25.5762  -20.4214  -12.6946 C   0  0  2  0  0  0  0  0  0  0  0  0
   26.5630  -20.4674  -13.7553 N   0  0  0  0  0  0  0  0  0  0  0  0
   24.2109  -20.3567  -13.2640 C   0  0  0  0  0  0  0  0  0  0  0  0
   23.9457  -19.5003  -14.1782 O   0  0  0  0  0  0  0  0  0  0  0  0
   27.5503  -20.0100   -9.9598 C   0  0  0  0  0  0  0  0  0  0  0  0
   27.9056  -20.5038   -8.7026 C   0  0  0  0  0  0  0  0  0  0  0  0
   22.0661  -23.5351  -16.2299 C   0  0  0  0  0  0  0  0  0  0  0  0
   22.3401  -22.2910  -15.4005 C   0  0  0  0  0  0  0  0  0  0  0  0
   21.3825  -22.1569  -14.2680 C   0  0  2  0  0  0  0  0  0  0  0  0
   19.9488  -22.1266  -14.6822 C   0  0  0  0  0  0  0  0  0  0  0  0
   21.7610  -20.9923  -13.3918 C   0  0  2  0  0  0  0  0  0  0  0  0
   23.1348  -21.1760  -12.8889 N   0  0  0  0  0  0  0  0  0  0  0  0
   20.8293  -20.6907  -12.3109 C   0  0  0  0  0  0  0  0  0  0  0  0
   20.9959  -21.1469  -11.1594 O   0  0  0  0  0  0  0  0  0  0  0  0
   19.6997  -19.8828  -12.4758 O   0  0  0  0  0  0  0  0  0  0  0  0
  2  1  1  0
  3  2  1  0
  4  3  1  0
  4  5  1  0
  5  7  1  0
  5  6  1  6
  7  8  2  0
  9 10  1  0
 10 20  2  0
 10 11  1  0
 11 12  2  0
 12 13  1  0
 13 14  1  0
 15 14  1  1
 16 15  1  0
 16  7  1  0
 17 15  1  0
 18 17  2  0
 19 13  2  0
 20 19  1  0
 22 21  1  0
 23 24  1  6
 23 22  1  0
 25 23  1  0
 25 26  1  1
 26 17  1  0
 27 29  1  0
 27 25  1  0
 28 27  2  0
M  END
$$$$
