MYI.pdb
     RDKit          3D

 29 29  0  0  1  0  0  0  0  0999 V2000
   30.4733  -22.5153  -22.2508 C   0  0  0  0  0  0  0  0  0  0  0  0
   29.3911  -23.0522  -20.8890 S   0  0  0  0  0  0  0  0  0  0  0  0
   28.9575  -21.6574  -19.8206 C   0  0  0  0  0  0  0  0  0  0  0  0
   27.9082  -22.0739  -18.8331 C   0  0  0  0  0  0  0  0  0  0  0  0
   28.4904  -22.8509  -17.6813 C   0  0  2  0  0  0  0  0  0  0  0  0
   28.5282  -24.2557  -18.0418 N   0  0  0  0  0  0  0  0  0  0  0  0
   27.6057  -22.7172  -16.4849 C   0  0  0  0  0  0  0  0  0  0  0  0
   26.6294  -23.5115  -16.2854 O   0  0  0  0  0  0  0  0  0  0  0  0
   24.3830  -19.8406   -8.7214 O   0  0  0  0  0  0  0  0  0  0  0  0
   25.1668  -20.0629   -9.8395 C   0  0  0  0  0  0  0  0  0  0  0  0
   25.2095  -19.1437  -10.8475 C   0  0  0  0  0  0  0  0  0  0  0  0
   26.0116  -19.3908  -11.9716 C   0  0  0  0  0  0  0  0  0  0  0  0
   26.7551  -20.5379  -12.0800 C   0  0  0  0  0  0  0  0  0  0  0  0
   27.5932  -20.8000  -13.2400 C   0  0  0  0  0  0  0  0  0  0  0  0
   26.9295  -21.5270  -14.3571 C   0  0  2  0  0  0  0  0  0  0  0  0
   27.7957  -21.7059  -15.5054 N   0  0  0  0  0  0  0  0  0  0  0  0
   25.6195  -20.9819  -14.7803 C   0  0  0  0  0  0  0  0  0  0  0  0
   25.5759  -19.9185  -15.4921 O   0  0  0  0  0  0  0  0  0  0  0  0
   26.6905  -21.4445  -11.0472 C   0  0  0  0  0  0  0  0  0  0  0  0
   25.8960  -21.2107   -9.9227 C   0  0  0  0  0  0  0  0  0  0  0  0
   21.0632  -20.5872  -17.8213 C   0  0  0  0  0  0  0  0  0  0  0  0
   21.1849  -20.8055  -16.3218 C   0  0  0  0  0  0  0  0  0  0  0  0
   22.4461  -21.5121  -15.9645 C   0  0  2  0  0  0  0  0  0  0  0  0
   22.2971  -22.9902  -15.8207 C   0  0  0  0  0  0  0  0  0  0  0  0
   23.0877  -20.8711  -14.7624 C   0  0  2  0  0  0  0  0  0  0  0  0
   24.3693  -21.5388  -14.4693 N   0  0  0  0  0  0  0  0  0  0  0  0
   22.2458  -20.7800  -13.5749 C   0  0  0  0  0  0  0  0  0  0  0  0
   21.2345  -20.0463  -13.5466 O   0  0  0  0  0  0  0  0  0  0  0  0
   22.4994  -21.4934  -12.3991 O   0  0  0  0  0  0  0  0  0  0  0  0
  2  1  1  0
  3  2  1  0
  4  3  1  0
  4  5  1  0
  5  7  1  0
  5  6  1  6
  7  8  2  0
  9 10  1  0
 10 20  2  0
 10 11  1  0
 11 12  2  0
 12 13  1  0
 13 14  1  0
 15 14  1  1
 16 15  1  0
 16  7  1  0
 17 15  1  0
 18 17  2  0
 19 13  2  0
 20 19  1  0
 22 21  1  0
 23 24  1  1
 23 22  1  0
 25 23  1  0
 25 26  1  1
 26 17  1  0
 27 29  1  0
 27 25  1  0
 28 27  2  0
M  END
$$$$
