MYI.pdb
     RDKit          3D

 29 29  0  0  1  0  0  0  0  0999 V2000
   23.1556  -31.4561  -14.7952 C   0  0  0  0  0  0  0  0  0  0  0  0
   21.8223  -31.6026  -16.0258 S   0  0  0  0  0  0  0  0  0  0  0  0
   21.8367  -30.1958  -17.1640 C   0  0  0  0  0  0  0  0  0  0  0  0
   22.4521  -29.0018  -16.4967 C   0  0  0  0  0  0  0  0  0  0  0  0
   22.4962  -27.8031  -17.4080 C   0  0  2  0  0  0  0  0  0  0  0  0
   23.8771  -27.5493  -17.7737 N   0  0  0  0  0  0  0  0  0  0  0  0
   21.9948  -26.5984  -16.6805 C   0  0  0  0  0  0  0  0  0  0  0  0
   22.7603  -25.9019  -15.9370 O   0  0  0  0  0  0  0  0  0  0  0  0
   23.8611  -21.8446  -20.3698 O   0  0  0  0  0  0  0  0  0  0  0  0
   22.8535  -22.3452  -19.5648 C   0  0  0  0  0  0  0  0  0  0  0  0
   22.6997  -21.8909  -18.2869 C   0  0  0  0  0  0  0  0  0  0  0  0
   21.6707  -22.4132  -17.4893 C   0  0  0  0  0  0  0  0  0  0  0  0
   20.8142  -23.3720  -17.9662 C   0  0  0  0  0  0  0  0  0  0  0  0
   19.7416  -23.9158  -17.1475 C   0  0  0  0  0  0  0  0  0  0  0  0
   20.1547  -24.9440  -16.1530 C   0  0  2  0  0  0  0  0  0  0  0  0
   20.6469  -26.1592  -16.7712 N   0  0  0  0  0  0  0  0  0  0  0  0
   19.1479  -25.2653  -15.1159 C   0  0  0  0  0  0  0  0  0  0  0  0
   18.2129  -26.0999  -15.3776 O   0  0  0  0  0  0  0  0  0  0  0  0
   20.9955  -23.8090  -19.2580 C   0  0  0  0  0  0  0  0  0  0  0  0
   22.0159  -23.2974  -20.0627 C   0  0  0  0  0  0  0  0  0  0  0  0
   20.4726  -26.7937  -10.3763 C   0  0  0  0  0  0  0  0  0  0  0  0
   19.7971  -26.4337  -11.6897 C   0  0  0  0  0  0  0  0  0  0  0  0
   18.7461  -25.3948  -11.5067 C   0  0  2  0  0  0  0  0  0  0  0  0
   17.7618  -25.7064  -10.4288 C   0  0  0  0  0  0  0  0  0  0  0  0
   18.0877  -25.0728  -12.8221 C   0  0  2  0  0  0  0  0  0  0  0  0
   19.1165  -24.7269  -13.8201 N   0  0  0  0  0  0  0  0  0  0  0  0
   17.0334  -24.0665  -12.7669 C   0  0  0  0  0  0  0  0  0  0  0  0
   17.2876  -22.8480  -12.8793 O   0  0  0  0  0  0  0  0  0  0  0  0
   15.6824  -24.3809  -12.5884 O   0  0  0  0  0  0  0  0  0  0  0  0
  2  1  1  0
  3  2  1  0
  4  3  1  0
  4  5  1  0
  5  7  1  0
  5  6  1  1
  7  8  2  0
  9 10  1  0
 10 20  2  0
 10 11  1  0
 11 12  2  0
 12 13  1  0
 13 14  1  0
 15 14  1  6
 16 15  1  0
 16  7  1  0
 17 15  1  0
 18 17  2  0
 19 13  2  0
 20 19  1  0
 22 21  1  0
 23 24  1  1
 23 22  1  0
 25 23  1  0
 25 26  1  6
 26 17  1  0
 27 29  1  0
 27 25  1  0
 28 27  2  0
M  END
$$$$
