MYI.pdb
     RDKit          3D

 29 29  0  0  1  0  0  0  0  0999 V2000
   20.5252  -29.4429  -12.6144 C   0  0  0  0  0  0  0  0  0  0  0  0
   20.7466  -30.8786  -11.5174 S   0  0  0  0  0  0  0  0  0  0  0  0
   21.9728  -30.5273  -10.2337 C   0  0  0  0  0  0  0  0  0  0  0  0
   22.1119  -31.7084   -9.3197 C   0  0  0  0  0  0  0  0  0  0  0  0
   22.3686  -32.9847  -10.0777 C   0  0  2  0  0  0  0  0  0  0  0  0
   21.1131  -33.4547  -10.6326 N   0  0  0  0  0  0  0  0  0  0  0  0
   22.8676  -34.0356   -9.1404 C   0  0  0  0  0  0  0  0  0  0  0  0
   22.0702  -34.7153   -8.4151 O   0  0  0  0  0  0  0  0  0  0  0  0
   21.4135  -39.6499  -11.6618 O   0  0  0  0  0  0  0  0  0  0  0  0
   22.3704  -38.8815  -11.0231 C   0  0  0  0  0  0  0  0  0  0  0  0
   23.0439  -37.9094  -11.7046 C   0  0  0  0  0  0  0  0  0  0  0  0
   24.0099  -37.1427  -11.0360 C   0  0  0  0  0  0  0  0  0  0  0  0
   24.2927  -37.3488   -9.7101 C   0  0  0  0  0  0  0  0  0  0  0  0
   25.2894  -36.5552   -9.0078 C   0  0  0  0  0  0  0  0  0  0  0  0
   24.7529  -35.4311   -8.1919 C   0  0  2  0  0  0  0  0  0  0  0  0
   24.2483  -34.3393   -9.0009 N   0  0  0  0  0  0  0  0  0  0  0  0
   25.6624  -34.9169   -7.1428 C   0  0  0  0  0  0  0  0  0  0  0  0
   26.6647  -34.1918   -7.4730 O   0  0  0  0  0  0  0  0  0  0  0  0
   23.5967  -38.3358   -9.0514 C   0  0  0  0  0  0  0  0  0  0  0  0
   22.6326  -39.1063   -9.7052 C   0  0  0  0  0  0  0  0  0  0  0  0
   24.2830  -32.0333   -3.2000 C   0  0  0  0  0  0  0  0  0  0  0  0
   25.0348  -32.8134   -4.2663 C   0  0  0  0  0  0  0  0  0  0  0  0
   25.8308  -33.9276   -3.6811 C   0  0  2  0  0  0  0  0  0  0  0  0
   26.7615  -33.5061   -2.5930 C   0  0  0  0  0  0  0  0  0  0  0  0
   26.5199  -34.7110   -4.7669 C   0  0  2  0  0  0  0  0  0  0  0  0
   25.5287  -35.1518   -5.7655 N   0  0  0  0  0  0  0  0  0  0  0  0
   27.3517  -35.8187   -4.3106 C   0  0  0  0  0  0  0  0  0  0  0  0
   28.4525  -35.6216   -3.7528 O   0  0  0  0  0  0  0  0  0  0  0  0
   26.9888  -37.1612   -4.4583 O   0  0  0  0  0  0  0  0  0  0  0  0
  2  1  1  0
  3  2  1  0
  4  3  1  0
  4  5  1  0
  5  7  1  0
  5  6  1  1
  7  8  2  0
  9 10  1  0
 10 20  2  0
 10 11  1  0
 11 12  2  0
 12 13  1  0
 13 14  1  0
 15 14  1  6
 16 15  1  0
 16  7  1  0
 17 15  1  0
 18 17  2  0
 19 13  2  0
 20 19  1  0
 22 21  1  0
 23 24  1  1
 23 22  1  0
 25 23  1  0
 25 26  1  6
 26 17  1  0
 27 29  1  0
 27 25  1  0
 28 27  2  0
M  END
$$$$
