MYI.pdb
     RDKit          3D

 29 29  0  0  1  0  0  0  0  0999 V2000
   16.3830  -13.9163  -17.2837 C   0  0  0  0  0  0  0  0  0  0  0  0
   17.1823  -13.7220  -18.9076 S   0  0  0  0  0  0  0  0  0  0  0  0
   18.9444  -13.3551  -18.7201 C   0  0  0  0  0  0  0  0  0  0  0  0
   19.1619  -12.4801  -17.5214 C   0  0  0  0  0  0  0  0  0  0  0  0
   20.6016  -12.0600  -17.3799 C   0  0  2  0  0  0  0  0  0  0  0  0
   21.3578  -13.1723  -16.8360 N   0  0  0  0  0  0  0  0  0  0  0  0
   20.7034  -10.9292  -16.4089 C   0  0  0  0  0  0  0  0  0  0  0  0
   20.5957  -11.1169  -15.1531 O   0  0  0  0  0  0  0  0  0  0  0  0
   26.6976  -11.2706  -15.0505 O   0  0  0  0  0  0  0  0  0  0  0  0
   25.6227  -10.4207  -15.2406 C   0  0  0  0  0  0  0  0  0  0  0  0
   24.9818   -9.8667  -14.1704 C   0  0  0  0  0  0  0  0  0  0  0  0
   23.8942   -9.0077  -14.3877 C   0  0  0  0  0  0  0  0  0  0  0  0
   23.4601   -8.7117  -15.6543 C   0  0  0  0  0  0  0  0  0  0  0  0
   22.3361   -7.8183  -15.8888 C   0  0  0  0  0  0  0  0  0  0  0  0
   20.9960   -8.4672  -15.9046 C   0  0  2  0  0  0  0  0  0  0  0  0
   20.9241   -9.5877  -16.8213 N   0  0  0  0  0  0  0  0  0  0  0  0
   19.8503   -7.5537  -16.1173 C   0  0  0  0  0  0  0  0  0  0  0  0
   19.5115   -7.2292  -17.3087 O   0  0  0  0  0  0  0  0  0  0  0  0
   24.1269   -9.2859  -16.7117 C   0  0  0  0  0  0  0  0  0  0  0  0
   25.2110  -10.1428  -16.5093 C   0  0  0  0  0  0  0  0  0  0  0  0
   14.1793   -6.5882  -15.5756 C   0  0  0  0  0  0  0  0  0  0  0  0
   15.5110   -5.8553  -15.5541 C   0  0  0  0  0  0  0  0  0  0  0  0
   16.6409   -6.7670  -15.2229 C   0  0  2  0  0  0  0  0  0  0  0  0
   16.4980   -7.4632  -13.9104 C   0  0  0  0  0  0  0  0  0  0  0  0
   17.9569   -6.0484  -15.3614 C   0  0  2  0  0  0  0  0  0  0  0  0
   19.0641   -6.9870  -15.1022 N   0  0  0  0  0  0  0  0  0  0  0  0
   18.0919   -4.8281  -14.5741 C   0  0  0  0  0  0  0  0  0  0  0  0
   17.4104   -3.8110  -14.8247 O   0  0  0  0  0  0  0  0  0  0  0  0
   18.9766   -4.7042  -13.4981 O   0  0  0  0  0  0  0  0  0  0  0  0
  2  1  1  0
  3  2  1  0
  4  3  1  0
  4  5  1  0
  5  7  1  0
  5  6  1  1
  7  8  2  0
  9 10  1  0
 10 20  2  0
 10 11  1  0
 11 12  2  0
 12 13  1  0
 13 14  1  0
 15 14  1  6
 16 15  1  0
 16  7  1  0
 17 15  1  0
 18 17  2  0
 19 13  2  0
 20 19  1  0
 22 21  1  0
 23 24  1  1
 23 22  1  0
 25 23  1  0
 25 26  1  1
 26 17  1  0
 27 29  1  0
 27 25  1  0
 28 27  2  0
M  END
$$$$
