MYI.pdb
     RDKit          3D

 29 29  0  0  1  0  0  0  0  0999 V2000
   32.2828  -22.4057  -10.6202 C   0  0  0  0  0  0  0  0  0  0  0  0
   32.5842  -22.6974  -12.3915 S   0  0  0  0  0  0  0  0  0  0  0  0
   31.1039  -22.3334  -13.3668 C   0  0  0  0  0  0  0  0  0  0  0  0
   30.1278  -21.5460  -12.5440 C   0  0  0  0  0  0  0  0  0  0  0  0
   28.8782  -21.2096  -13.3152 C   0  0  2  0  0  0  0  0  0  0  0  0
   29.2076  -20.2185  -14.3221 N   0  0  0  0  0  0  0  0  0  0  0  0
   27.8687  -20.6004  -12.3977 C   0  0  0  0  0  0  0  0  0  0  0  0
   27.7902  -19.3388  -12.2360 O   0  0  0  0  0  0  0  0  0  0  0  0
   23.0133  -18.8628  -16.0464 O   0  0  0  0  0  0  0  0  0  0  0  0
   23.3997  -19.4228  -14.8419 C   0  0  0  0  0  0  0  0  0  0  0  0
   23.8727  -20.7022  -14.7947 C   0  0  0  0  0  0  0  0  0  0  0  0
   24.2586  -21.2489  -13.5617 C   0  0  0  0  0  0  0  0  0  0  0  0
   24.1710  -20.5246  -12.4007 C   0  0  0  0  0  0  0  0  0  0  0  0
   24.5734  -21.0821  -11.1185 C   0  0  0  0  0  0  0  0  0  0  0  0
   25.9851  -20.8221  -10.7231 C   0  0  2  0  0  0  0  0  0  0  0  0
   26.9431  -21.3820  -11.6557 N   0  0  0  0  0  0  0  0  0  0  0  0
   26.3361  -21.2006   -9.3353 C   0  0  0  0  0  0  0  0  0  0  0  0
   26.4976  -22.4352   -9.0369 O   0  0  0  0  0  0  0  0  0  0  0  0
   23.6903  -19.2381  -12.4817 C   0  0  0  0  0  0  0  0  0  0  0  0
   23.3026  -18.6819  -13.7027 C   0  0  0  0  0  0  0  0  0  0  0  0
   28.7726  -19.1716   -4.0389 C   0  0  0  0  0  0  0  0  0  0  0  0
   27.9161  -20.1795   -4.7881 C   0  0  0  0  0  0  0  0  0  0  0  0
   27.5611  -19.7006   -6.1527 C   0  0  2  0  0  0  0  0  0  0  0  0
   26.9397  -18.3438   -6.1802 C   0  0  0  0  0  0  0  0  0  0  0  0
   26.7388  -20.7332   -6.8772 C   0  0  2  0  0  0  0  0  0  0  0  0
   26.5202  -20.3044   -8.2709 N   0  0  0  0  0  0  0  0  0  0  0  0
   25.4877  -21.1080   -6.2282 C   0  0  0  0  0  0  0  0  0  0  0  0
   24.3879  -20.6694   -6.6282 O   0  0  0  0  0  0  0  0  0  0  0  0
   25.4227  -21.9712   -5.1297 O   0  0  0  0  0  0  0  0  0  0  0  0
  2  1  1  0
  3  2  1  0
  4  3  1  0
  4  5  1  0
  5  7  1  0
  5  6  1  6
  7  8  2  0
  9 10  1  0
 10 20  2  0
 10 11  1  0
 11 12  2  0
 12 13  1  0
 13 14  1  0
 15 14  1  6
 16 15  1  0
 16  7  1  0
 17 15  1  0
 18 17  2  0
 19 13  2  0
 20 19  1  0
 22 21  1  0
 23 24  1  1
 23 22  1  0
 25 23  1  0
 25 26  1  6
 26 17  1  0
 27 29  1  0
 27 25  1  0
 28 27  2  0
M  END
$$$$
