MYI.pdb
     RDKit          3D

 29 29  0  0  1  0  0  0  0  0999 V2000
   28.6648  -13.2717  -21.2876 C   0  0  0  0  0  0  0  0  0  0  0  0
   28.6251  -15.0508  -20.9041 S   0  0  0  0  0  0  0  0  0  0  0  0
   26.9245  -15.6224  -20.6676 C   0  0  0  0  0  0  0  0  0  0  0  0
   26.8972  -17.1174  -20.5488 C   0  0  0  0  0  0  0  0  0  0  0  0
   27.4304  -17.5904  -19.2216 C   0  0  2  0  0  0  0  0  0  0  0  0
   28.7593  -18.1362  -19.4239 N   0  0  0  0  0  0  0  0  0  0  0  0
   26.5676  -18.6905  -18.6952 C   0  0  0  0  0  0  0  0  0  0  0  0
   26.3475  -19.7474  -19.3723 O   0  0  0  0  0  0  0  0  0  0  0  0
   30.1830  -23.6218  -17.2571 O   0  0  0  0  0  0  0  0  0  0  0  0
   29.0969  -22.8467  -16.8916 C   0  0  0  0  0  0  0  0  0  0  0  0
   27.8437  -23.3863  -16.8553 C   0  0  0  0  0  0  0  0  0  0  0  0
   26.7576  -22.5809  -16.4816 C   0  0  0  0  0  0  0  0  0  0  0  0
   26.9277  -21.2610  -16.1513 C   0  0  0  0  0  0  0  0  0  0  0  0
   25.8077  -20.4198  -15.7581 C   0  0  0  0  0  0  0  0  0  0  0  0
   25.1325  -19.6937  -16.8689 C   0  0  2  0  0  0  0  0  0  0  0  0
   25.9448  -18.6272  -17.4200 N   0  0  0  0  0  0  0  0  0  0  0  0
   23.7691  -19.2000  -16.5691 C   0  0  0  0  0  0  0  0  0  0  0  0
   23.6197  -18.1278  -15.8854 O   0  0  0  0  0  0  0  0  0  0  0  0
   28.2030  -20.7471  -16.1977 C   0  0  0  0  0  0  0  0  0  0  0  0
   29.2930  -21.5379  -16.5681 C   0  0  0  0  0  0  0  0  0  0  0  0
   18.5437  -17.7983  -18.9689 C   0  0  0  0  0  0  0  0  0  0  0  0
   19.2255  -18.2709  -17.6950 C   0  0  0  0  0  0  0  0  0  0  0  0
   20.5502  -18.8922  -17.9722 C   0  0  2  0  0  0  0  0  0  0  0  0
   20.5023  -20.0200  -18.9487 C   0  0  0  0  0  0  0  0  0  0  0  0
   21.2384  -19.2640  -16.6855 C   0  0  2  0  0  0  0  0  0  0  0  0
   22.5750  -19.8132  -16.9788 N   0  0  0  0  0  0  0  0  0  0  0  0
   20.4809  -20.1395  -15.7985 C   0  0  0  0  0  0  0  0  0  0  0  0
   20.6462  -21.3782  -15.8067 O   0  0  0  0  0  0  0  0  0  0  0  0
   19.5299  -19.6699  -14.8869 O   0  0  0  0  0  0  0  0  0  0  0  0
  2  1  1  0
  3  2  1  0
  4  3  1  0
  4  5  1  0
  5  7  1  0
  5  6  1  6
  7  8  2  0
  9 10  1  0
 10 20  2  0
 10 11  1  0
 11 12  2  0
 12 13  1  0
 13 14  1  0
 15 14  1  1
 16 15  1  0
 16  7  1  0
 17 15  1  0
 18 17  2  0
 19 13  2  0
 20 19  1  0
 22 21  1  0
 23 24  1  6
 23 22  1  0
 25 23  1  0
 25 26  1  6
 26 17  1  0
 27 29  1  0
 27 25  1  0
 28 27  2  0
M  END
$$$$
