MYI.pdb
     RDKit          3D

 29 29  0  0  1  0  0  0  0  0999 V2000
   19.9409  -23.2681  -18.1497 C   0  0  0  0  0  0  0  0  0  0  0  0
   18.6730  -22.1417  -18.8110 S   0  0  0  0  0  0  0  0  0  0  0  0
   18.5922  -20.6180  -17.8379 C   0  0  0  0  0  0  0  0  0  0  0  0
   19.8566  -20.4445  -17.0499 C   0  0  0  0  0  0  0  0  0  0  0  0
   19.5940  -20.3561  -15.5691 C   0  0  2  0  0  0  0  0  0  0  0  0
   18.6871  -19.2503  -15.3244 N   0  0  0  0  0  0  0  0  0  0  0  0
   20.8686  -20.0605  -14.8482 C   0  0  0  0  0  0  0  0  0  0  0  0
   21.3075  -18.8699  -14.7305 O   0  0  0  0  0  0  0  0  0  0  0  0
   27.3375  -20.6282   -8.9065 O   0  0  0  0  0  0  0  0  0  0  0  0
   26.2680  -20.8994   -9.7411 C   0  0  0  0  0  0  0  0  0  0  0  0
   25.0234  -20.4229   -9.4467 C   0  0  0  0  0  0  0  0  0  0  0  0
   23.9540  -20.7107  -10.3079 C   0  0  0  0  0  0  0  0  0  0  0  0
   24.1323  -21.4616  -11.4413 C   0  0  0  0  0  0  0  0  0  0  0  0
   23.0299  -21.7609  -12.3423 C   0  0  0  0  0  0  0  0  0  0  0  0
   22.8581  -20.8144  -13.4789 C   0  0  2  0  0  0  0  0  0  0  0  0
   21.6628  -21.0782  -14.2552 N   0  0  0  0  0  0  0  0  0  0  0  0
   24.0311  -20.6739  -14.3714 C   0  0  0  0  0  0  0  0  0  0  0  0
   24.2559  -21.5612  -15.2667 O   0  0  0  0  0  0  0  0  0  0  0  0
   25.3986  -21.9271  -11.7101 C   0  0  0  0  0  0  0  0  0  0  0  0
   26.4718  -21.6479  -10.8611 C   0  0  0  0  0  0  0  0  0  0  0  0
   26.4242  -15.7051  -14.9112 C   0  0  0  0  0  0  0  0  0  0  0  0
   25.7929  -17.0515  -15.2268 C   0  0  0  0  0  0  0  0  0  0  0  0
   26.7665  -18.1688  -15.0809 C   0  0  2  0  0  0  0  0  0  0  0  0
   27.9944  -18.0206  -15.9164 C   0  0  0  0  0  0  0  0  0  0  0  0
   26.0818  -19.4950  -15.2810 C   0  0  2  0  0  0  0  0  0  0  0  0
   24.9577  -19.6203  -14.3351 N   0  0  0  0  0  0  0  0  0  0  0  0
   26.9526  -20.6641  -15.2382 C   0  0  0  0  0  0  0  0  0  0  0  0
   27.3069  -21.2527  -16.2822 O   0  0  0  0  0  0  0  0  0  0  0  0
   27.4500  -21.2062  -14.0488 O   0  0  0  0  0  0  0  0  0  0  0  0
  2  1  1  0
  3  2  1  0
  4  3  1  0
  4  5  1  0
  5  7  1  0
  5  6  1  6
  7  8  2  0
  9 10  1  0
 10 20  2  0
 10 11  1  0
 11 12  2  0
 12 13  1  0
 13 14  1  0
 15 14  1  1
 16 15  1  0
 16  7  1  0
 17 15  1  0
 18 17  2  0
 19 13  2  0
 20 19  1  0
 22 21  1  0
 23 24  1  6
 23 22  1  0
 25 23  1  0
 25 26  1  1
 26 17  1  0
 27 29  1  0
 27 25  1  0
 28 27  2  0
M  END
$$$$
