MYI.pdb
     RDKit          3D

 29 29  0  0  1  0  0  0  0  0999 V2000
   30.1150  -17.1279  -17.4602 C   0  0  0  0  0  0  0  0  0  0  0  0
   28.7254  -16.7010  -18.5558 S   0  0  0  0  0  0  0  0  0  0  0  0
   28.0238  -18.1854  -19.3169 C   0  0  0  0  0  0  0  0  0  0  0  0
   27.2794  -18.9860  -18.2900 C   0  0  0  0  0  0  0  0  0  0  0  0
   28.2033  -19.8263  -17.4475 C   0  0  2  0  0  0  0  0  0  0  0  0
   28.6625  -20.9496  -18.2426 N   0  0  0  0  0  0  0  0  0  0  0  0
   27.4557  -20.3788  -16.2780 C   0  0  0  0  0  0  0  0  0  0  0  0
   26.7196  -21.4134  -16.3854 O   0  0  0  0  0  0  0  0  0  0  0  0
   24.3362  -21.3190   -8.0169 O   0  0  0  0  0  0  0  0  0  0  0  0
   25.0848  -20.9725   -9.1275 C   0  0  0  0  0  0  0  0  0  0  0  0
   26.1608  -21.7259   -9.4983 C   0  0  0  0  0  0  0  0  0  0  0  0
   26.9049  -21.3551  -10.6282 C   0  0  0  0  0  0  0  0  0  0  0  0
   26.5742  -20.2502  -11.3699 C   0  0  0  0  0  0  0  0  0  0  0  0
   27.3375  -19.8611  -12.5457 C   0  0  0  0  0  0  0  0  0  0  0  0
   26.7448  -20.2577  -13.8528 C   0  0  2  0  0  0  0  0  0  0  0  0
   27.5182  -19.7907  -14.9863 N   0  0  0  0  0  0  0  0  0  0  0  0
   25.3145  -19.9187  -14.0307 C   0  0  0  0  0  0  0  0  0  0  0  0
   24.9841  -18.7361  -14.3935 O   0  0  0  0  0  0  0  0  0  0  0  0
   25.4844  -19.5118  -10.9702 C   0  0  0  0  0  0  0  0  0  0  0  0
   24.7352  -19.8698   -9.8473 C   0  0  0  0  0  0  0  0  0  0  0  0
   20.4218  -20.7982  -16.9511 C   0  0  0  0  0  0  0  0  0  0  0  0
   20.9309  -20.4146  -15.5710 C   0  0  0  0  0  0  0  0  0  0  0  0
   22.3365  -20.8568  -15.3553 C   0  0  2  0  0  0  0  0  0  0  0  0
   22.5626  -22.3115  -15.6012 C   0  0  0  0  0  0  0  0  0  0  0  0
   22.8286  -20.4106  -14.0039 C   0  0  2  0  0  0  0  0  0  0  0  0
   24.2405  -20.8012  -13.8367 N   0  0  0  0  0  0  0  0  0  0  0  0
   22.0163  -20.8334  -12.8688 C   0  0  0  0  0  0  0  0  0  0  0  0
   22.2672  -21.8854  -12.2425 O   0  0  0  0  0  0  0  0  0  0  0  0
   20.9156  -20.1081  -12.4015 O   0  0  0  0  0  0  0  0  0  0  0  0
  2  1  1  0
  3  2  1  0
  4  3  1  0
  4  5  1  0
  5  7  1  0
  5  6  1  6
  7  8  2  0
  9 10  1  0
 10 20  2  0
 10 11  1  0
 11 12  2  0
 12 13  1  0
 13 14  1  0
 15 14  1  1
 16 15  1  0
 16  7  1  0
 17 15  1  0
 18 17  2  0
 19 13  2  0
 20 19  1  0
 22 21  1  0
 23 24  1  1
 23 22  1  0
 25 23  1  0
 25 26  1  1
 26 17  1  0
 27 29  1  0
 27 25  1  0
 28 27  2  0
M  END
$$$$
