MYI.pdb
     RDKit          3D

 29 29  0  0  1  0  0  0  0  0999 V2000
   29.3677  -18.5753  -21.6784 C   0  0  0  0  0  0  0  0  0  0  0  0
   27.9743  -19.4046  -22.5057 S   0  0  0  0  0  0  0  0  0  0  0  0
   26.4256  -19.1041  -21.6190 C   0  0  0  0  0  0  0  0  0  0  0  0
   26.7014  -18.8995  -20.1589 C   0  0  0  0  0  0  0  0  0  0  0  0
   26.0022  -19.9218  -19.3012 C   0  0  2  0  0  0  0  0  0  0  0  0
   24.6086  -19.9857  -19.6994 N   0  0  0  0  0  0  0  0  0  0  0  0
   26.0422  -19.4917  -17.8711 C   0  0  0  0  0  0  0  0  0  0  0  0
   27.1435  -19.2456  -17.2792 O   0  0  0  0  0  0  0  0  0  0  0  0
   26.7811  -12.9125  -17.4988 O   0  0  0  0  0  0  0  0  0  0  0  0
   26.1077  -14.0395  -17.0627 C   0  0  0  0  0  0  0  0  0  0  0  0
   25.1432  -14.6125  -17.8401 C   0  0  0  0  0  0  0  0  0  0  0  0
   24.4737  -15.7550  -17.3770 C   0  0  0  0  0  0  0  0  0  0  0  0
   24.7677  -16.3098  -16.1579 C   0  0  0  0  0  0  0  0  0  0  0  0
   24.0817  -17.4971  -15.6719 C   0  0  0  0  0  0  0  0  0  0  0  0
   24.8590  -18.7643  -15.7563 C   0  0  2  0  0  0  0  0  0  0  0  0
   24.8664  -19.3323  -17.0898 N   0  0  0  0  0  0  0  0  0  0  0  0
   24.4997  -19.7976  -14.7586 C   0  0  0  0  0  0  0  0  0  0  0  0
   23.8199  -20.8199  -15.1220 O   0  0  0  0  0  0  0  0  0  0  0  0
   25.7446  -15.7088  -15.3982 C   0  0  0  0  0  0  0  0  0  0  0  0
   26.4186  -14.5711  -15.8474 C   0  0  0  0  0  0  0  0  0  0  0  0
   26.4439  -22.2648   -9.4653 C   0  0  0  0  0  0  0  0  0  0  0  0
   25.3697  -22.1347  -10.5331 C   0  0  0  0  0  0  0  0  0  0  0  0
   25.5819  -20.9359  -11.3906 C   0  0  2  0  0  0  0  0  0  0  0  0
   25.7369  -19.6614  -10.6293 C   0  0  0  0  0  0  0  0  0  0  0  0
   24.5198  -20.8537  -12.4549 C   0  0  2  0  0  0  0  0  0  0  0  0
   24.8467  -19.7692  -13.3989 N   0  0  0  0  0  0  0  0  0  0  0  0
   23.1494  -20.7464  -11.9675 C   0  0  0  0  0  0  0  0  0  0  0  0
   22.5625  -21.7209  -11.4501 O   0  0  0  0  0  0  0  0  0  0  0  0
   22.4005  -19.5674  -12.0391 O   0  0  0  0  0  0  0  0  0  0  0  0
  2  1  1  0
  3  2  1  0
  4  3  1  0
  4  5  1  0
  5  7  1  0
  5  6  1  6
  7  8  2  0
  9 10  1  0
 10 20  2  0
 10 11  1  0
 11 12  2  0
 12 13  1  0
 13 14  1  0
 15 14  1  6
 16 15  1  0
 16  7  1  0
 17 15  1  0
 18 17  2  0
 19 13  2  0
 20 19  1  0
 22 21  1  0
 23 24  1  1
 23 22  1  0
 25 23  1  0
 25 26  1  6
 26 17  1  0
 27 29  1  0
 27 25  1  0
 28 27  2  0
M  END
$$$$
