NGF.pdb
     RDKit          3D

 24 24  0  0  1  0  0  0  0  0999 V2000
    9.5943  -16.3402   14.2062 N   0  0  0  0  0  0  0  0  0  0  0  0
    8.2315  -16.2978   14.5488 C   0  0  0  0  0  0  0  0  0  0  0  0
    7.3637  -16.5307   13.6495 O   0  0  0  0  0  0  0  0  0  0  0  0
    7.7637  -15.9910   15.9227 C   0  0  0  0  0  0  0  0  0  0  0  0
    8.9510  -15.8428   16.8254 C   0  0  2  0  0  0  0  0  0  0  0  0
   10.0790  -16.4761   16.1811 N   0  0  0  0  0  0  0  0  0  0  0  0
    8.6775  -16.4460   18.1709 C   0  0  0  0  0  0  0  0  0  0  0  0
    7.8730  -15.8916   18.9706 O   0  0  0  0  0  0  0  0  0  0  0  0
    9.3177  -17.6379   18.5530 N   0  0  0  0  0  0  0  0  0  0  0  0
   10.6484  -17.6535   19.1039 C   0  0  0  0  0  0  0  0  0  0  0  0
   10.8345  -16.8596   20.3165 C   0  0  0  0  0  0  0  0  0  0  0  0
   11.9696  -16.3165   20.5574 O   0  0  0  0  0  0  0  0  0  0  0  0
    9.8540  -16.6024   21.3123 N   0  0  0  0  0  0  0  0  0  0  0  0
   10.0958  -15.7440   22.4567 C   0  0  1  0  0  0  0  0  0  0  0  0
    8.8500  -14.9405   22.6748 C   0  0  0  0  0  0  0  0  0  0  0  0
    8.4212  -14.1461   21.5062 C   0  0  0  0  0  0  0  0  0  0  0  0
    9.2095  -13.1453   20.9763 C   0  0  0  0  0  0  0  0  0  0  0  0
    8.7840  -12.4211   19.8829 C   0  0  0  0  0  0  0  0  0  0  0  0
    7.5668  -12.6595   19.2752 C   0  0  0  0  0  0  0  0  0  0  0  0
    6.7975  -13.6650   19.8237 C   0  0  0  0  0  0  0  0  0  0  0  0
    7.2000  -14.4010   20.9135 C   0  0  0  0  0  0  0  0  0  0  0  0
   10.5283  -16.5136   23.6371 C   0  0  0  0  0  0  0  0  0  0  0  0
   10.8884  -15.9095   24.6772 O   0  0  0  0  0  0  0  0  0  0  0  0
   10.5572  -17.8968   23.6552 O   0  0  0  0  0  0  0  0  0  0  0  0
  1  2  1  0
  2  3  2  0
  4  2  1  0
  5  4  1  0
  5  6  1  6
  7  9  1  0
  7  5  1  0
  8  7  2  0
 10  9  1  0
 10 11  1  0
 11 13  1  0
 12 11  2  0
 13 14  1  0
 14 22  1  0
 14 15  1  1
 15 16  1  0
 16 17  2  0
 17 18  1  0
 19 18  2  0
 20 19  1  0
 21 16  1  0
 21 20  2  0
 22 23  2  0
 22 24  1  0
M  END
$$$$
