NGF.pdb
     RDKit          3D

 24 24  0  0  1  0  0  0  0  0999 V2000
    8.7238  -18.4248   15.8495 N   0  0  0  0  0  0  0  0  0  0  0  0
    9.2853  -18.6950   17.1097 C   0  0  0  0  0  0  0  0  0  0  0  0
   10.5027  -19.0547   17.1763 O   0  0  0  0  0  0  0  0  0  0  0  0
    8.5112  -18.5767   18.3697 C   0  0  0  0  0  0  0  0  0  0  0  0
    8.5081  -17.1448   18.8128 C   0  0  2  0  0  0  0  0  0  0  0  0
    9.8827  -16.7243   18.9620 N   0  0  0  0  0  0  0  0  0  0  0  0
    7.7428  -16.9835   20.0924 C   0  0  0  0  0  0  0  0  0  0  0  0
    6.4873  -17.1161   20.1097 O   0  0  0  0  0  0  0  0  0  0  0  0
    8.4206  -16.6823   21.2867 N   0  0  0  0  0  0  0  0  0  0  0  0
    7.7372  -16.5580   22.5483 C   0  0  0  0  0  0  0  0  0  0  0  0
    8.5904  -16.2635   23.6974 C   0  0  0  0  0  0  0  0  0  0  0  0
    9.8552  -16.1351   23.5388 O   0  0  0  0  0  0  0  0  0  0  0  0
    8.1616  -16.0910   25.0412 N   0  0  0  0  0  0  0  0  0  0  0  0
    9.0731  -15.7913   26.1296 C   0  0  1  0  0  0  0  0  0  0  0  0
    8.2773  -15.0936   27.1902 C   0  0  0  0  0  0  0  0  0  0  0  0
    7.6735  -13.8159   26.7618 C   0  0  0  0  0  0  0  0  0  0  0  0
    8.4445  -12.7351   26.3862 C   0  0  0  0  0  0  0  0  0  0  0  0
    7.8530  -11.5549   25.9886 C   0  0  0  0  0  0  0  0  0  0  0  0
    6.4810  -11.4008   25.9480 C   0  0  0  0  0  0  0  0  0  0  0  0
    5.7324  -12.4957   26.3281 C   0  0  0  0  0  0  0  0  0  0  0  0
    6.2991  -13.6832   26.7284 C   0  0  0  0  0  0  0  0  0  0  0  0
    9.7768  -16.9971   26.6024 C   0  0  0  0  0  0  0  0  0  0  0  0
    9.2928  -18.1322   26.3707 O   0  0  0  0  0  0  0  0  0  0  0  0
   10.9686  -16.9378   27.3028 O   0  0  0  0  0  0  0  0  0  0  0  0
  1  2  1  0
  2  3  2  0
  4  2  1  0
  5  4  1  0
  5  6  1  1
  7  9  1  0
  7  5  1  0
  8  7  2  0
 10  9  1  0
 10 11  1  0
 11 13  1  0
 12 11  2  0
 13 14  1  0
 14 22  1  0
 14 15  1  1
 15 16  1  0
 16 17  2  0
 17 18  1  0
 19 18  2  0
 20 19  1  0
 21 16  1  0
 21 20  2  0
 22 23  2  0
 22 24  1  0
M  END
$$$$
