NGF.pdb
     RDKit          3D

 24 24  0  0  1  0  0  0  0  0999 V2000
    8.1665  -20.6483   17.2486 N   0  0  0  0  0  0  0  0  0  0  0  0
    8.4386  -19.2697   17.2947 C   0  0  0  0  0  0  0  0  0  0  0  0
    9.3963  -18.8083   16.5976 O   0  0  0  0  0  0  0  0  0  0  0  0
    7.6502  -18.3285   18.1271 C   0  0  0  0  0  0  0  0  0  0  0  0
    8.5335  -17.1992   18.5641 C   0  0  2  0  0  0  0  0  0  0  0  0
    9.7769  -17.7660   19.0347 N   0  0  0  0  0  0  0  0  0  0  0  0
    7.8660  -16.3800   19.6283 C   0  0  0  0  0  0  0  0  0  0  0  0
    6.7498  -15.8320   19.4099 O   0  0  0  0  0  0  0  0  0  0  0  0
    8.4810  -16.2158   20.8818 N   0  0  0  0  0  0  0  0  0  0  0  0
    7.8354  -15.5294   21.9710 C   0  0  0  0  0  0  0  0  0  0  0  0
    8.5893  -15.4894   23.2220 C   0  0  0  0  0  0  0  0  0  0  0  0
    9.8477  -15.2494   23.2031 O   0  0  0  0  0  0  0  0  0  0  0  0
    8.0651  -15.6935   24.5269 N   0  0  0  0  0  0  0  0  0  0  0  0
    8.8760  -15.6074   25.7270 C   0  0  1  0  0  0  0  0  0  0  0  0
    7.9841  -15.1156   26.8260 C   0  0  0  0  0  0  0  0  0  0  0  0
    7.4698  -13.7453   26.6305 C   0  0  0  0  0  0  0  0  0  0  0  0
    8.2970  -12.6422   26.6806 C   0  0  0  0  0  0  0  0  0  0  0  0
    7.7891  -11.3744   26.4922 C   0  0  0  0  0  0  0  0  0  0  0  0
    6.4480  -11.1517   26.2479 C   0  0  0  0  0  0  0  0  0  0  0  0
    5.6420  -12.2706   26.2025 C   0  0  0  0  0  0  0  0  0  0  0  0
    6.1250  -13.5449   26.3873 C   0  0  0  0  0  0  0  0  0  0  0  0
    9.5493  -16.8840   26.0259 C   0  0  0  0  0  0  0  0  0  0  0  0
   10.3360  -16.9602   27.0015 O   0  0  0  0  0  0  0  0  0  0  0  0
    9.3525  -18.0254   25.2690 O   0  0  0  0  0  0  0  0  0  0  0  0
  1  2  1  0
  2  3  2  0
  4  2  1  0
  5  4  1  0
  5  6  1  1
  7  9  1  0
  7  5  1  0
  8  7  2  0
 10  9  1  0
 10 11  1  0
 11 13  1  0
 12 11  2  0
 13 14  1  0
 14 22  1  0
 14 15  1  1
 15 16  1  0
 16 17  2  0
 17 18  1  0
 19 18  2  0
 20 19  1  0
 21 16  1  0
 21 20  2  0
 22 23  2  0
 22 24  1  0
M  END
$$$$
