NGF.pdb
     RDKit          3D

 24 24  0  0  1  0  0  0  0  0999 V2000
    3.8539  -20.5211   21.0773 N   0  0  0  0  0  0  0  0  0  0  0  0
    3.5109  -19.2091   20.7062 C   0  0  0  0  0  0  0  0  0  0  0  0
    2.4016  -19.0060   20.1196 O   0  0  0  0  0  0  0  0  0  0  0  0
    4.3949  -18.0480   20.9726 C   0  0  0  0  0  0  0  0  0  0  0  0
    5.6197  -18.5180   21.6976 C   0  0  2  0  0  0  0  0  0  0  0  0
    5.2904  -18.6243   23.1007 N   0  0  0  0  0  0  0  0  0  0  0  0
    6.7669  -17.5786   21.4725 C   0  0  0  0  0  0  0  0  0  0  0  0
    7.8154  -17.9747   20.8914 O   0  0  0  0  0  0  0  0  0  0  0  0
    6.6826  -16.2448   21.9088 N   0  0  0  0  0  0  0  0  0  0  0  0
    7.8199  -15.3613   21.9051 C   0  0  0  0  0  0  0  0  0  0  0  0
    8.5379  -15.2578   23.1736 C   0  0  0  0  0  0  0  0  0  0  0  0
    9.6070  -14.5557   23.2480 O   0  0  0  0  0  0  0  0  0  0  0  0
    8.1711  -15.8739   24.4004 N   0  0  0  0  0  0  0  0  0  0  0  0
    8.9511  -15.7399   25.6165 C   0  0  1  0  0  0  0  0  0  0  0  0
    8.0058  -15.3218   26.7013 C   0  0  0  0  0  0  0  0  0  0  0  0
    7.5155  -13.9338   26.5850 C   0  0  0  0  0  0  0  0  0  0  0  0
    6.1791  -13.6461   26.3979 C   0  0  0  0  0  0  0  0  0  0  0  0
    5.7497  -12.3400   26.2948 C   0  0  0  0  0  0  0  0  0  0  0  0
    6.6239  -11.2735   26.3728 C   0  0  0  0  0  0  0  0  0  0  0  0
    7.9543  -11.5874   26.5600 C   0  0  0  0  0  0  0  0  0  0  0  0
    8.4068  -12.8818   26.6658 C   0  0  0  0  0  0  0  0  0  0  0  0
    9.7080  -16.9677   25.9199 C   0  0  0  0  0  0  0  0  0  0  0  0
   10.4464  -17.0099   26.9346 O   0  0  0  0  0  0  0  0  0  0  0  0
    9.6431  -18.0987   25.1254 O   0  0  0  0  0  0  0  0  0  0  0  0
  1  2  1  0
  2  3  2  0
  4  2  1  0
  5  4  1  0
  5  6  1  1
  7  9  1  0
  7  5  1  0
  8  7  2  0
 10  9  1  0
 10 11  1  0
 11 13  1  0
 12 11  2  0
 13 14  1  0
 14 22  1  0
 14 15  1  1
 15 16  1  0
 16 17  2  0
 17 18  1  0
 19 18  2  0
 20 19  1  0
 21 16  1  0
 21 20  2  0
 22 23  2  0
 22 24  1  0
M  END
$$$$
