NGF.pdb
     RDKit          3D

 24 24  0  0  1  0  0  0  0  0999 V2000
    6.3672  -19.1115   15.5437 N   0  0  0  0  0  0  0  0  0  0  0  0
    7.3333  -18.2902   16.1508 C   0  0  0  0  0  0  0  0  0  0  0  0
    8.4984  -18.2343   15.6454 O   0  0  0  0  0  0  0  0  0  0  0  0
    7.0466  -17.4831   17.3620 C   0  0  0  0  0  0  0  0  0  0  0  0
    8.1620  -17.6610   18.3474 C   0  0  2  0  0  0  0  0  0  0  0  0
    8.2697  -19.0711   18.6448 N   0  0  0  0  0  0  0  0  0  0  0  0
    7.9124  -16.8558   19.5877 C   0  0  0  0  0  0  0  0  0  0  0  0
    8.0282  -15.5987   19.5702 O   0  0  0  0  0  0  0  0  0  0  0  0
    7.5461  -17.4977   20.7836 N   0  0  0  0  0  0  0  0  0  0  0  0
    7.1908  -16.7653   21.9718 C   0  0  0  0  0  0  0  0  0  0  0  0
    8.3149  -16.2882   22.7741 C   0  0  0  0  0  0  0  0  0  0  0  0
    9.4860  -16.2215   22.2587 O   0  0  0  0  0  0  0  0  0  0  0  0
    8.2611  -15.8646   24.1294 N   0  0  0  0  0  0  0  0  0  0  0  0
    9.4035  -15.3080   24.8297 C   0  0  1  0  0  0  0  0  0  0  0  0
    9.3318  -13.8194   24.6745 C   0  0  0  0  0  0  0  0  0  0  0  0
    8.2333  -13.1777   25.4244 C   0  0  0  0  0  0  0  0  0  0  0  0
    8.4074  -12.7021   26.7078 C   0  0  0  0  0  0  0  0  0  0  0  0
    7.3640  -12.1054   27.3831 C   0  0  0  0  0  0  0  0  0  0  0  0
    6.1135  -11.9576   26.8153 C   0  0  0  0  0  0  0  0  0  0  0  0
    5.9652  -12.4411   25.5316 C   0  0  0  0  0  0  0  0  0  0  0  0
    6.9905  -13.0399   24.8378 C   0  0  0  0  0  0  0  0  0  0  0  0
    9.4628  -15.7637   26.2302 C   0  0  0  0  0  0  0  0  0  0  0  0
    8.4711  -16.3404   26.7403 O   0  0  0  0  0  0  0  0  0  0  0  0
   10.5804  -15.5835   27.0258 O   0  0  0  0  0  0  0  0  0  0  0  0
  1  2  1  0
  2  3  2  0
  4  2  1  0
  5  4  1  0
  5  6  1  1
  7  9  1  0
  7  5  1  0
  8  7  2  0
 10  9  1  0
 10 11  1  0
 11 13  1  0
 12 11  2  0
 13 14  1  0
 14 22  1  0
 14 15  1  1
 15 16  1  0
 16 17  2  0
 17 18  1  0
 19 18  2  0
 20 19  1  0
 21 16  1  0
 21 20  2  0
 22 23  2  0
 22 24  1  0
M  END
$$$$
