NGF.pdb
     RDKit          3D

 24 24  0  0  1  0  0  0  0  0999 V2000
   10.8184  -18.7488   20.5683 N   0  0  0  0  0  0  0  0  0  0  0  0
   10.5181  -18.3215   19.2630 C   0  0  0  0  0  0  0  0  0  0  0  0
   11.4321  -17.7739   18.5697 O   0  0  0  0  0  0  0  0  0  0  0  0
    9.1726  -18.4845   18.6601 C   0  0  0  0  0  0  0  0  0  0  0  0
    8.4365  -17.1813   18.7393 C   0  0  2  0  0  0  0  0  0  0  0  0
    9.4112  -16.1168   18.6653 N   0  0  0  0  0  0  0  0  0  0  0  0
    7.6291  -17.0997   20.0005 C   0  0  0  0  0  0  0  0  0  0  0  0
    6.8440  -18.0351   20.3208 O   0  0  0  0  0  0  0  0  0  0  0  0
    7.7412  -15.9764   20.8384 N   0  0  0  0  0  0  0  0  0  0  0  0
    7.0825  -15.9022   22.1171 C   0  0  0  0  0  0  0  0  0  0  0  0
    7.9693  -15.8515   23.2773 C   0  0  0  0  0  0  0  0  0  0  0  0
    9.2388  -15.8056   23.1107 O   0  0  0  0  0  0  0  0  0  0  0  0
    7.5704  -15.8444   24.6412 N   0  0  0  0  0  0  0  0  0  0  0  0
    8.5150  -15.7824   25.7408 C   0  0  1  0  0  0  0  0  0  0  0  0
    7.8577  -15.0072   26.8418 C   0  0  0  0  0  0  0  0  0  0  0  0
    7.4936  -13.6219   26.4826 C   0  0  0  0  0  0  0  0  0  0  0  0
    8.4391  -12.6217   26.3851 C   0  0  0  0  0  0  0  0  0  0  0  0
    8.0701  -11.3374   26.0457 C   0  0  0  0  0  0  0  0  0  0  0  0
    6.7562  -10.9962   25.7909 C   0  0  0  0  0  0  0  0  0  0  0  0
    5.8302  -12.0137   25.8949 C   0  0  0  0  0  0  0  0  0  0  0  0
    6.1736  -13.3021   26.2318 C   0  0  0  0  0  0  0  0  0  0  0  0
    8.9762  -17.1233   26.1430 C   0  0  0  0  0  0  0  0  0  0  0  0
    9.8699  -17.2387   27.0174 O   0  0  0  0  0  0  0  0  0  0  0  0
    8.4620  -18.2842   25.5932 O   0  0  0  0  0  0  0  0  0  0  0  0
  1  2  1  0
  2  3  2  0
  4  2  1  0
  5  4  1  0
  5  6  1  1
  7  9  1  0
  7  5  1  0
  8  7  2  0
 10  9  1  0
 10 11  1  0
 11 13  1  0
 12 11  2  0
 13 14  1  0
 14 22  1  0
 14 15  1  1
 15 16  1  0
 16 17  2  0
 17 18  1  0
 19 18  2  0
 20 19  1  0
 21 16  1  0
 21 20  2  0
 22 23  2  0
 22 24  1  0
M  END
$$$$
