NGF.pdb
     RDKit          3D

 24 24  0  0  1  0  0  0  0  0999 V2000
    7.3573  -12.6016   17.7458 N   0  0  0  0  0  0  0  0  0  0  0  0
    8.5085  -13.3138   18.1255 C   0  0  0  0  0  0  0  0  0  0  0  0
    9.3231  -13.6910   17.2255 O   0  0  0  0  0  0  0  0  0  0  0  0
    8.8119  -13.6439   19.5396 C   0  0  0  0  0  0  0  0  0  0  0  0
    8.4204  -15.0655   19.8081 C   0  0  2  0  0  0  0  0  0  0  0  0
    6.9792  -15.1487   19.7391 N   0  0  0  0  0  0  0  0  0  0  0  0
    8.9331  -15.5177   21.1429 C   0  0  0  0  0  0  0  0  0  0  0  0
   10.1743  -15.5809   21.3651 O   0  0  0  0  0  0  0  0  0  0  0  0
    8.0315  -15.8758   22.1605 N   0  0  0  0  0  0  0  0  0  0  0  0
    8.3897  -16.7817   23.2213 C   0  0  0  0  0  0  0  0  0  0  0  0
    9.0547  -16.1708   24.3700 C   0  0  0  0  0  0  0  0  0  0  0  0
   10.1448  -15.5182   24.2055 O   0  0  0  0  0  0  0  0  0  0  0  0
    8.6118  -16.2145   25.7196 N   0  0  0  0  0  0  0  0  0  0  0  0
    9.3605  -15.6305   26.8166 C   0  0  1  0  0  0  0  0  0  0  0  0
    8.3825  -14.8738   27.6628 C   0  0  0  0  0  0  0  0  0  0  0  0
    7.6841  -13.7785   26.9606 C   0  0  0  0  0  0  0  0  0  0  0  0
    8.2694  -12.5434   26.7721 C   0  0  0  0  0  0  0  0  0  0  0  0
    7.5940  -11.5399   26.1106 C   0  0  0  0  0  0  0  0  0  0  0  0
    6.3183  -11.7206   25.6128 C   0  0  0  0  0  0  0  0  0  0  0  0
    5.7552  -12.9639   25.8142 C   0  0  0  0  0  0  0  0  0  0  0  0
    6.4086  -13.9805   26.4706 C   0  0  0  0  0  0  0  0  0  0  0  0
   10.1332  -16.6460   27.5543 C   0  0  0  0  0  0  0  0  0  0  0  0
   10.8908  -16.2933   28.4915 O   0  0  0  0  0  0  0  0  0  0  0  0
   10.0628  -17.9959   27.2588 O   0  0  0  0  0  0  0  0  0  0  0  0
  1  2  1  0
  2  3  2  0
  4  2  1  0
  5  4  1  0
  5  6  1  1
  7  9  1  0
  7  5  1  0
  8  7  2  0
 10  9  1  0
 10 11  1  0
 11 13  1  0
 12 11  2  0
 13 14  1  0
 14 22  1  0
 14 15  1  1
 15 16  1  0
 16 17  2  0
 17 18  1  0
 19 18  2  0
 20 19  1  0
 21 16  1  0
 21 20  2  0
 22 23  2  0
 22 24  1  0
M  END
$$$$
