NGF.pdb
     RDKit          3D

 24 24  0  0  1  0  0  0  0  0999 V2000
    8.4131  -13.2468   16.2291 N   0  0  0  0  0  0  0  0  0  0  0  0
    7.9998  -13.9783   17.3563 C   0  0  0  0  0  0  0  0  0  0  0  0
    8.4203  -15.1687   17.5050 O   0  0  0  0  0  0  0  0  0  0  0  0
    7.0894  -13.4147   18.3830 C   0  0  0  0  0  0  0  0  0  0  0  0
    7.8699  -13.1314   19.6308 C   0  0  2  0  0  0  0  0  0  0  0  0
    9.2746  -13.1702   19.2930 N   0  0  0  0  0  0  0  0  0  0  0  0
    7.5362  -14.1222   20.7060 C   0  0  0  0  0  0  0  0  0  0  0  0
    6.3850  -14.1429   21.2239 O   0  0  0  0  0  0  0  0  0  0  0  0
    8.5069  -15.0386   21.1467 N   0  0  0  0  0  0  0  0  0  0  0  0
    8.2122  -16.0663   22.1117 C   0  0  0  0  0  0  0  0  0  0  0  0
    8.7631  -15.8489   23.4475 C   0  0  0  0  0  0  0  0  0  0  0  0
    9.7735  -15.0770   23.6049 O   0  0  0  0  0  0  0  0  0  0  0  0
    8.2852  -16.4201   24.6577 N   0  0  0  0  0  0  0  0  0  0  0  0
    8.9274  -16.2052   25.9410 C   0  0  1  0  0  0  0  0  0  0  0  0
    7.8702  -15.7212   26.8861 C   0  0  0  0  0  0  0  0  0  0  0  0
    7.4457  -14.3239   26.6666 C   0  0  0  0  0  0  0  0  0  0  0  0
    8.2362  -13.2553   27.0368 C   0  0  0  0  0  0  0  0  0  0  0  0
    7.8148  -11.9610   26.8175 C   0  0  0  0  0  0  0  0  0  0  0  0
    6.5995  -11.6769   26.2258 C   0  0  0  0  0  0  0  0  0  0  0  0
    5.8279  -12.7623   25.8649 C   0  0  0  0  0  0  0  0  0  0  0  0
    6.2264  -14.0620   26.0731 C   0  0  0  0  0  0  0  0  0  0  0  0
    9.6419  -17.4083   26.4043 C   0  0  0  0  0  0  0  0  0  0  0  0
    9.4416  -18.5096   25.8356 O   0  0  0  0  0  0  0  0  0  0  0  0
   10.5406  -17.3825   27.4559 O   0  0  0  0  0  0  0  0  0  0  0  0
  1  2  1  0
  2  3  2  0
  4  2  1  0
  5  4  1  0
  5  6  1  6
  7  9  1  0
  7  5  1  0
  8  7  2  0
 10  9  1  0
 10 11  1  0
 11 13  1  0
 12 11  2  0
 13 14  1  0
 14 22  1  0
 14 15  1  1
 15 16  1  0
 16 17  2  0
 17 18  1  0
 19 18  2  0
 20 19  1  0
 21 16  1  0
 21 20  2  0
 22 23  2  0
 22 24  1  0
M  END
$$$$
