NGF.pdb
     RDKit          3D

 24 24  0  0  1  0  0  0  0  0999 V2000
    7.1017  -13.8395   15.2458 N   0  0  0  0  0  0  0  0  0  0  0  0
    8.1749  -14.1128   16.1118 C   0  0  0  0  0  0  0  0  0  0  0  0
    9.3604  -14.0684   15.6551 O   0  0  0  0  0  0  0  0  0  0  0  0
    7.9788  -14.4521   17.5426 C   0  0  0  0  0  0  0  0  0  0  0  0
    8.2065  -15.9209   17.7357 C   0  0  2  0  0  0  0  0  0  0  0  0
    7.1990  -16.6286   16.9790 N   0  0  0  0  0  0  0  0  0  0  0  0
    8.1555  -16.2824   19.1903 C   0  0  0  0  0  0  0  0  0  0  0  0
    8.8998  -17.1921   19.6514 O   0  0  0  0  0  0  0  0  0  0  0  0
    7.2749  -15.6083   20.0543 N   0  0  0  0  0  0  0  0  0  0  0  0
    7.1208  -15.9789   21.4375 C   0  0  0  0  0  0  0  0  0  0  0  0
    8.1701  -15.5016   22.3354 C   0  0  0  0  0  0  0  0  0  0  0  0
    8.6965  -14.3486   22.1482 O   0  0  0  0  0  0  0  0  0  0  0  0
    8.7033  -16.1998   23.4523 N   0  0  0  0  0  0  0  0  0  0  0  0
    8.6592  -15.6779   24.8054 C   0  0  1  0  0  0  0  0  0  0  0  0
    7.2607  -15.1968   25.0457 C   0  0  0  0  0  0  0  0  0  0  0  0
    7.1708  -13.8537   25.6527 C   0  0  0  0  0  0  0  0  0  0  0  0
    7.8053  -12.7602   25.1001 C   0  0  0  0  0  0  0  0  0  0  0  0
    7.7019  -11.5173   25.6877 C   0  0  0  0  0  0  0  0  0  0  0  0
    6.9692  -11.3108   26.8402 C   0  0  0  0  0  0  0  0  0  0  0  0
    6.3445  -12.4197   27.3730 C   0  0  0  0  0  0  0  0  0  0  0  0
    6.4326  -13.6692   26.8054 C   0  0  0  0  0  0  0  0  0  0  0  0
    9.1313  -16.6679   25.7900 C   0  0  0  0  0  0  0  0  0  0  0  0
    8.6784  -17.8386   25.7629 O   0  0  0  0  0  0  0  0  0  0  0  0
   10.0681  -16.3641   26.7619 O   0  0  0  0  0  0  0  0  0  0  0  0
  1  2  1  0
  2  3  2  0
  4  2  1  0
  5  4  1  0
  5  6  1  6
  7  9  1  0
  7  5  1  0
  8  7  2  0
 10  9  1  0
 10 11  1  0
 11 13  1  0
 12 11  2  0
 13 14  1  0
 14 22  1  0
 14 15  1  1
 15 16  1  0
 16 17  2  0
 17 18  1  0
 19 18  2  0
 20 19  1  0
 21 16  1  0
 21 20  2  0
 22 23  2  0
 22 24  1  0
M  END
$$$$
