NGF.pdb
     RDKit          3D

 24 24  0  0  1  0  0  0  0  0999 V2000
   13.6554  -19.5993   19.2005 N   0  0  0  0  0  0  0  0  0  0  0  0
   12.9591  -18.3782   19.2234 C   0  0  0  0  0  0  0  0  0  0  0  0
   12.9675  -17.6458   18.1844 O   0  0  0  0  0  0  0  0  0  0  0  0
   12.2121  -17.9082   20.4158 C   0  0  0  0  0  0  0  0  0  0  0  0
   10.7411  -18.0115   20.1473 C   0  0  2  0  0  0  0  0  0  0  0  0
   10.3817  -16.9495   19.2354 N   0  0  0  0  0  0  0  0  0  0  0  0
    9.9581  -17.9276   21.4236 C   0  0  0  0  0  0  0  0  0  0  0  0
   10.0395  -18.8450   22.2872 O   0  0  0  0  0  0  0  0  0  0  0  0
    9.1245  -16.8224   21.6685 N   0  0  0  0  0  0  0  0  0  0  0  0
    8.2951  -16.7300   22.8423 C   0  0  0  0  0  0  0  0  0  0  0  0
    8.9901  -16.3634   24.0742 C   0  0  0  0  0  0  0  0  0  0  0  0
   10.2022  -15.9510   24.0263 O   0  0  0  0  0  0  0  0  0  0  0  0
    8.4529  -16.4099   25.3889 N   0  0  0  0  0  0  0  0  0  0  0  0
    9.1924  -15.9796   26.5607 C   0  0  1  0  0  0  0  0  0  0  0  0
    8.2567  -15.1574   27.3936 C   0  0  0  0  0  0  0  0  0  0  0  0
    7.7456  -13.9446   26.7240 C   0  0  0  0  0  0  0  0  0  0  0  0
    6.5515  -13.9420   26.0328 C   0  0  0  0  0  0  0  0  0  0  0  0
    6.0980  -12.7937   25.4190 C   0  0  0  0  0  0  0  0  0  0  0  0
    6.8069  -11.6093   25.4662 C   0  0  0  0  0  0  0  0  0  0  0  0
    7.9973  -11.6379   26.1633 C   0  0  0  0  0  0  0  0  0  0  0  0
    8.4705  -12.7703   26.7837 C   0  0  0  0  0  0  0  0  0  0  0  0
    9.7923  -17.1186   27.2787 C   0  0  0  0  0  0  0  0  0  0  0  0
    9.3618  -18.2803   27.0748 O   0  0  0  0  0  0  0  0  0  0  0  0
   10.8275  -16.9670   28.1841 O   0  0  0  0  0  0  0  0  0  0  0  0
  1  2  1  0
  2  3  2  0
  4  2  1  0
  5  4  1  0
  5  6  1  6
  7  9  1  0
  7  5  1  0
  8  7  2  0
 10  9  1  0
 10 11  1  0
 11 13  1  0
 12 11  2  0
 13 14  1  0
 14 22  1  0
 14 15  1  1
 15 16  1  0
 16 17  2  0
 17 18  1  0
 19 18  2  0
 20 19  1  0
 21 16  1  0
 21 20  2  0
 22 23  2  0
 22 24  1  0
M  END
$$$$
