NGF.pdb
     RDKit          3D

 24 24  0  0  1  0  0  0  0  0999 V2000
    7.7569  -20.0722   17.5395 N   0  0  0  0  0  0  0  0  0  0  0  0
    6.9221  -19.3489   18.4092 C   0  0  0  0  0  0  0  0  0  0  0  0
    5.7909  -19.8366   18.7232 O   0  0  0  0  0  0  0  0  0  0  0  0
    7.3096  -18.0345   18.9773 C   0  0  0  0  0  0  0  0  0  0  0  0
    7.6337  -18.2028   20.4310 C   0  0  2  0  0  0  0  0  0  0  0  0
    6.4218  -17.9743   21.1844 N   0  0  0  0  0  0  0  0  0  0  0  0
    8.7247  -17.2618   20.8474 C   0  0  0  0  0  0  0  0  0  0  0  0
    9.9245  -17.4890   20.5266 O   0  0  0  0  0  0  0  0  0  0  0  0
    8.4179  -16.1154   21.6011 N   0  0  0  0  0  0  0  0  0  0  0  0
    9.4352  -15.2166   22.0822 C   0  0  0  0  0  0  0  0  0  0  0  0
    9.6686  -15.2478   23.5243 C   0  0  0  0  0  0  0  0  0  0  0  0
   10.6349  -14.5758   24.0306 O   0  0  0  0  0  0  0  0  0  0  0  0
    8.9100  -15.9711   24.4838 N   0  0  0  0  0  0  0  0  0  0  0  0
    9.2775  -16.0506   25.8852 C   0  0  1  0  0  0  0  0  0  0  0  0
    8.0432  -15.7533   26.6809 C   0  0  0  0  0  0  0  0  0  0  0  0
    7.5248  -14.3804   26.5169 C   0  0  0  0  0  0  0  0  0  0  0  0
    6.4204  -14.1067   25.7364 C   0  0  0  0  0  0  0  0  0  0  0  0
    5.9574  -12.8149   25.6033 C   0  0  0  0  0  0  0  0  0  0  0  0
    6.5679  -11.7494   26.2355 C   0  0  0  0  0  0  0  0  0  0  0  0
    7.6697  -12.0491   27.0100 C   0  0  0  0  0  0  0  0  0  0  0  0
    8.1503  -13.3291   27.1582 C   0  0  0  0  0  0  0  0  0  0  0  0
    9.9073  -17.3421   26.2139 C   0  0  0  0  0  0  0  0  0  0  0  0
    9.9079  -18.2687   25.3666 O   0  0  0  0  0  0  0  0  0  0  0  0
   10.5101  -17.5879   27.4348 O   0  0  0  0  0  0  0  0  0  0  0  0
  1  2  1  0
  2  3  2  0
  4  2  1  0
  5  4  1  0
  5  6  1  1
  7  9  1  0
  7  5  1  0
  8  7  2  0
 10  9  1  0
 10 11  1  0
 11 13  1  0
 12 11  2  0
 13 14  1  0
 14 22  1  0
 14 15  1  1
 15 16  1  0
 16 17  2  0
 17 18  1  0
 19 18  2  0
 20 19  1  0
 21 16  1  0
 21 20  2  0
 22 23  2  0
 22 24  1  0
M  END
$$$$
