NGF.pdb
     RDKit          3D

 24 24  0  0  1  0  0  0  0  0999 V2000
    7.2012  -13.1330   17.2080 N   0  0  0  0  0  0  0  0  0  0  0  0
    8.3898  -13.4319   17.8969 C   0  0  0  0  0  0  0  0  0  0  0  0
    9.4789  -13.4969   17.2446 O   0  0  0  0  0  0  0  0  0  0  0  0
    8.4241  -13.6753   19.3599 C   0  0  0  0  0  0  0  0  0  0  0  0
    8.4081  -15.1524   19.6136 C   0  0  2  0  0  0  0  0  0  0  0  0
    7.1114  -15.6552   19.2209 N   0  0  0  0  0  0  0  0  0  0  0  0
    8.6989  -15.4499   21.0544 C   0  0  0  0  0  0  0  0  0  0  0  0
    9.8580  -15.2758   21.5238 O   0  0  0  0  0  0  0  0  0  0  0  0
    7.6789  -15.9268   21.8961 N   0  0  0  0  0  0  0  0  0  0  0  0
    7.9407  -16.8339   22.9837 C   0  0  0  0  0  0  0  0  0  0  0  0
    8.6605  -16.2609   24.1189 C   0  0  0  0  0  0  0  0  0  0  0  0
    9.7522  -15.6188   23.9259 O   0  0  0  0  0  0  0  0  0  0  0  0
    8.2723  -16.3326   25.4840 N   0  0  0  0  0  0  0  0  0  0  0  0
    9.1224  -15.8870   26.5721 C   0  0  1  0  0  0  0  0  0  0  0  0
    8.2550  -15.1170   27.5207 C   0  0  0  0  0  0  0  0  0  0  0  0
    7.6290  -13.9130   26.9385 C   0  0  0  0  0  0  0  0  0  0  0  0
    6.3235  -13.9138   26.4918 C   0  0  0  0  0  0  0  0  0  0  0  0
    5.7646  -12.7737   25.9545 C   0  0  0  0  0  0  0  0  0  0  0  0
    6.4743  -11.5944   25.8394 C   0  0  0  0  0  0  0  0  0  0  0  0
    7.7771  -11.6195   26.2931 C   0  0  0  0  0  0  0  0  0  0  0  0
    8.3567  -12.7438   26.8328 C   0  0  0  0  0  0  0  0  0  0  0  0
    9.8465  -17.0089   27.1962 C   0  0  0  0  0  0  0  0  0  0  0  0
    9.5329  -18.1901   26.9085 O   0  0  0  0  0  0  0  0  0  0  0  0
   10.8756  -16.8200   28.1016 O   0  0  0  0  0  0  0  0  0  0  0  0
  1  2  1  0
  2  3  2  0
  4  2  1  0
  5  4  1  0
  5  6  1  1
  7  9  1  0
  7  5  1  0
  8  7  2  0
 10  9  1  0
 10 11  1  0
 11 13  1  0
 12 11  2  0
 13 14  1  0
 14 22  1  0
 14 15  1  1
 15 16  1  0
 16 17  2  0
 17 18  1  0
 19 18  2  0
 20 19  1  0
 21 16  1  0
 21 20  2  0
 22 23  2  0
 22 24  1  0
M  END
$$$$
