NGF.pdb
     RDKit          3D

 24 24  0  0  1  0  0  0  0  0999 V2000
    6.2270  -18.2173   24.7681 N   0  0  0  0  0  0  0  0  0  0  0  0
    6.3938  -19.4042   24.0332 C   0  0  0  0  0  0  0  0  0  0  0  0
    7.0831  -20.3468   24.5355 O   0  0  0  0  0  0  0  0  0  0  0  0
    5.7955  -19.6014   22.6902 C   0  0  0  0  0  0  0  0  0  0  0  0
    6.8255  -19.3014   21.6435 C   0  0  2  0  0  0  0  0  0  0  0  0
    7.9366  -20.2036   21.8439 N   0  0  0  0  0  0  0  0  0  0  0  0
    7.2615  -17.8684   21.7187 C   0  0  0  0  0  0  0  0  0  0  0  0
    6.5725  -16.9593   21.1775 O   0  0  0  0  0  0  0  0  0  0  0  0
    8.4454  -17.5258   22.3951 N   0  0  0  0  0  0  0  0  0  0  0  0
    8.8389  -16.1573   22.6114 C   0  0  0  0  0  0  0  0  0  0  0  0
    9.3340  -15.8514   23.9516 C   0  0  0  0  0  0  0  0  0  0  0  0
   10.4936  -15.3273   24.1010 O   0  0  0  0  0  0  0  0  0  0  0  0
    8.6454  -16.0755   25.1742 N   0  0  0  0  0  0  0  0  0  0  0  0
    9.2596  -15.8820   26.4745 C   0  0  1  0  0  0  0  0  0  0  0  0
    8.2300  -15.2440   27.3565 C   0  0  0  0  0  0  0  0  0  0  0  0
    7.6502  -13.9972   26.8182 C   0  0  0  0  0  0  0  0  0  0  0  0
    6.4319  -13.9800   26.1708 C   0  0  0  0  0  0  0  0  0  0  0  0
    5.9140  -12.8002   25.6802 C   0  0  0  0  0  0  0  0  0  0  0  0
    6.5802  -11.5975   25.8116 C   0  0  0  0  0  0  0  0  0  0  0  0
    7.7959  -11.6412   26.4625 C   0  0  0  0  0  0  0  0  0  0  0  0
    8.3331  -12.8051   26.9605 C   0  0  0  0  0  0  0  0  0  0  0  0
    9.8146  -17.1379   27.0105 C   0  0  0  0  0  0  0  0  0  0  0  0
    9.6482  -18.2115   26.3810 O   0  0  0  0  0  0  0  0  0  0  0  0
   10.5243  -17.1925   28.1970 O   0  0  0  0  0  0  0  0  0  0  0  0
  1  2  1  0
  2  3  2  0
  4  2  1  0
  5  4  1  0
  5  6  1  1
  7  9  1  0
  7  5  1  0
  8  7  2  0
 10  9  1  0
 10 11  1  0
 11 13  1  0
 12 11  2  0
 13 14  1  0
 14 22  1  0
 14 15  1  1
 15 16  1  0
 16 17  2  0
 17 18  1  0
 19 18  2  0
 20 19  1  0
 21 16  1  0
 21 20  2  0
 22 23  2  0
 22 24  1  0
M  END
$$$$
