NGF.pdb
     RDKit          3D

 24 24  0  0  1  0  0  0  0  0999 V2000
    5.4374  -18.5084   18.1935 N   0  0  0  0  0  0  0  0  0  0  0  0
    6.6548  -17.8354   17.9896 C   0  0  0  0  0  0  0  0  0  0  0  0
    7.2888  -18.0262   16.9044 O   0  0  0  0  0  0  0  0  0  0  0  0
    7.2315  -16.9082   18.9938 C   0  0  0  0  0  0  0  0  0  0  0  0
    8.3368  -17.6042   19.7288 C   0  0  2  0  0  0  0  0  0  0  0  0
    7.7349  -18.4758   20.7120 N   0  0  0  0  0  0  0  0  0  0  0  0
    9.2611  -16.6112   20.3681 C   0  0  0  0  0  0  0  0  0  0  0  0
   10.1261  -16.0035   19.6777 O   0  0  0  0  0  0  0  0  0  0  0  0
    9.1707  -16.3488   21.7463 N   0  0  0  0  0  0  0  0  0  0  0  0
   10.0514  -15.4242   22.4124 C   0  0  0  0  0  0  0  0  0  0  0  0
    9.8970  -15.3454   23.8633 C   0  0  0  0  0  0  0  0  0  0  0  0
   10.6799  -14.5993   24.5503 O   0  0  0  0  0  0  0  0  0  0  0  0
    8.9292  -16.0324   24.6447 N   0  0  0  0  0  0  0  0  0  0  0  0
    9.0016  -16.1245   26.0910 C   0  0  1  0  0  0  0  0  0  0  0  0
    7.6636  -15.7130   26.6253 C   0  0  0  0  0  0  0  0  0  0  0  0
    7.3236  -14.2940   26.3985 C   0  0  0  0  0  0  0  0  0  0  0  0
    6.7637  -13.8589   25.2149 C   0  0  0  0  0  0  0  0  0  0  0  0
    6.4546  -12.5278   25.0320 C   0  0  0  0  0  0  0  0  0  0  0  0
    6.6873  -11.5808   26.0103 C   0  0  0  0  0  0  0  0  0  0  0  0
    7.2476  -12.0411   27.1841 C   0  0  0  0  0  0  0  0  0  0  0  0
    7.5646  -13.3633   27.3902 C   0  0  0  0  0  0  0  0  0  0  0  0
    9.4400  -17.4604   26.5335 C   0  0  0  0  0  0  0  0  0  0  0  0
    9.4647  -18.4113   25.7140 O   0  0  0  0  0  0  0  0  0  0  0  0
    9.8338  -17.7227   27.8337 O   0  0  0  0  0  0  0  0  0  0  0  0
  1  2  1  0
  2  3  2  0
  4  2  1  0
  5  4  1  0
  5  6  1  1
  7  9  1  0
  7  5  1  0
  8  7  2  0
 10  9  1  0
 10 11  1  0
 11 13  1  0
 12 11  2  0
 13 14  1  0
 14 22  1  0
 14 15  1  1
 15 16  1  0
 16 17  2  0
 17 18  1  0
 19 18  2  0
 20 19  1  0
 21 16  1  0
 21 20  2  0
 22 23  2  0
 22 24  1  0
M  END
$$$$
