NGF.pdb
     RDKit          3D

 24 24  0  0  1  0  0  0  0  0999 V2000
    8.4150  -12.7801   16.5000 N   0  0  0  0  0  0  0  0  0  0  0  0
    7.8229  -14.0381   16.7085 C   0  0  0  0  0  0  0  0  0  0  0  0
    7.7548  -14.8544   15.7365 O   0  0  0  0  0  0  0  0  0  0  0  0
    7.2725  -14.4526   18.0222 C   0  0  0  0  0  0  0  0  0  0  0  0
    8.3627  -15.0808   18.8366 C   0  0  2  0  0  0  0  0  0  0  0  0
    8.7077  -16.3406   18.2182 N   0  0  0  0  0  0  0  0  0  0  0  0
    7.9260  -15.2688   20.2589 C   0  0  0  0  0  0  0  0  0  0  0  0
    7.8085  -14.2761   21.0302 O   0  0  0  0  0  0  0  0  0  0  0  0
    7.6433  -16.5570   20.7457 N   0  0  0  0  0  0  0  0  0  0  0  0
    7.3029  -16.8008   22.1237 C   0  0  0  0  0  0  0  0  0  0  0  0
    8.3416  -16.4653   23.0951 C   0  0  0  0  0  0  0  0  0  0  0  0
    9.5610  -16.3592   22.7168 O   0  0  0  0  0  0  0  0  0  0  0  0
    8.1502  -16.2278   24.4830 N   0  0  0  0  0  0  0  0  0  0  0  0
    9.2326  -15.8696   25.3804 C   0  0  1  0  0  0  0  0  0  0  0  0
    9.4197  -14.3868   25.2737 C   0  0  0  0  0  0  0  0  0  0  0  0
    8.2962  -13.5880   25.8032 C   0  0  0  0  0  0  0  0  0  0  0  0
    7.1610  -13.3434   25.0581 C   0  0  0  0  0  0  0  0  0  0  0  0
    6.1266  -12.5957   25.5794 C   0  0  0  0  0  0  0  0  0  0  0  0
    6.1768  -12.0640   26.8531 C   0  0  0  0  0  0  0  0  0  0  0  0
    7.3221  -12.3227   27.5777 C   0  0  0  0  0  0  0  0  0  0  0  0
    8.3670  -13.0655   27.0798 C   0  0  0  0  0  0  0  0  0  0  0  0
    8.9866  -16.3466   26.7532 C   0  0  0  0  0  0  0  0  0  0  0  0
    7.8914  -16.8912   27.0368 O   0  0  0  0  0  0  0  0  0  0  0  0
    9.9225  -16.2213   27.7645 O   0  0  0  0  0  0  0  0  0  0  0  0
  1  2  1  0
  2  3  2  0
  4  2  1  0
  5  4  1  0
  5  6  1  6
  7  9  1  0
  7  5  1  0
  8  7  2  0
 10  9  1  0
 10 11  1  0
 11 13  1  0
 12 11  2  0
 13 14  1  0
 14 22  1  0
 14 15  1  1
 15 16  1  0
 16 17  2  0
 17 18  1  0
 19 18  2  0
 20 19  1  0
 21 16  1  0
 21 20  2  0
 22 23  2  0
 22 24  1  0
M  END
$$$$
