HYP.pdb
     RDKit          3D

 30 32  0  0  1  0  0  0  0  0999 V2000
   25.9574  -20.5485  -16.7262 N   0  0  0  0  0  0  0  0  0  0  0  0
   26.8770  -20.4553  -15.6283 C   0  0  1  0  0  0  0  0  0  0  0  0
   27.9885  -19.5079  -15.9761 C   0  0  0  0  0  0  0  0  0  0  0  0
   28.7325  -20.1081  -17.1258 C   0  0  0  0  0  0  0  0  0  0  0  0
   29.3906  -21.3428  -17.1351 C   0  0  0  0  0  0  0  0  0  0  0  0
   29.9423  -21.5374  -18.3463 N   0  0  0  0  0  0  0  0  0  0  0  0
   29.6571  -20.4699  -19.1048 C   0  0  0  0  0  0  0  0  0  0  0  0
   28.9260  -19.6118  -18.3592 N   0  0  0  0  0  0  0  0  0  0  0  0
   26.1408  -20.0675  -14.4068 C   0  0  0  0  0  0  0  0  0  0  0  0
   25.9255  -18.8377  -14.2150 O   0  0  0  0  0  0  0  0  0  0  0  0
   20.6426  -18.3382  -16.6429 O   0  0  0  0  0  0  0  0  0  0  0  0
   21.3271  -19.0116  -15.6503 C   0  0  0  0  0  0  0  0  0  0  0  0
   21.9002  -20.2459  -15.8882 C   0  0  0  0  0  0  0  0  0  0  0  0
   22.5761  -20.8842  -14.8656 C   0  0  0  0  0  0  0  0  0  0  0  0
   22.7123  -20.3554  -13.6116 C   0  0  0  0  0  0  0  0  0  0  0  0
   23.4377  -21.0242  -12.4990 C   0  0  0  0  0  0  0  0  0  0  0  0
   24.8418  -20.4429  -12.3439 C   0  0  2  0  0  0  0  0  0  0  0  0
   25.6677  -20.9678  -13.4516 N   0  0  0  0  0  0  0  0  0  0  0  0
   25.4158  -21.0059  -11.0999 C   0  0  0  0  0  0  0  0  0  0  0  0
   25.7511  -22.2547  -11.1190 O   0  0  0  0  0  0  0  0  0  0  0  0
   22.1425  -19.1258  -13.3714 C   0  0  0  0  0  0  0  0  0  0  0  0
   21.4568  -18.4648  -14.3873 C   0  0  0  0  0  0  0  0  0  0  0  0
   25.6442  -20.3319   -9.8861 N   0  0  0  0  0  0  0  0  0  0  0  0
   25.5003  -18.8739   -9.7213 C   0  0  0  0  0  0  0  0  0  0  0  0
   26.5591  -18.6113   -8.6542 C   0  0  0  0  0  0  0  0  0  0  0  0
   26.1965  -19.7016   -7.6675 C   0  0  0  0  0  0  0  0  0  0  0  0
   26.0426  -20.9033   -8.6308 C   0  0  1  0  0  0  0  0  0  0  0  0
   24.9892  -21.7423   -8.0228 C   0  0  0  0  0  0  0  0  0  0  0  0
   25.2802  -22.6189   -7.0011 O   0  0  0  0  0  0  0  0  0  0  0  0
   23.8186  -21.6558   -8.4408 O   0  0  0  0  0  0  0  0  0  0  0  0
  2  1  1  6
  2  3  1  0
  3  4  1  0
  4  8  1  0
  5  4  2  0
  5  6  1  0
  6  7  1  0
  8  7  2  0
  9 18  1  0
  9  2  1  0
 10  9  2  0
 12 11  1  0
 13 12  2  0
 14 13  1  0
 15 14  2  0
 15 21  1  0
 17 16  1  6
 16 15  1  0
 17 18  1  0
 19 17  1  0
 20 19  2  0
 21 22  2  0
 22 12  1  0
 23 27  1  0
 23 19  1  0
 24 23  1  0
 25 26  1  0
 25 24  1  0
 26 27  1  0
 27 28  1  1
 28 30  2  0
 28 29  1  0
M  END
$$$$
