HYP.pdb
     RDKit          3D

 30 32  0  0  1  0  0  0  0  0999 V2000
   28.7079  -23.9095  -17.5183 N   0  0  0  0  0  0  0  0  0  0  0  0
   28.3930  -22.5238  -17.3176 C   0  0  1  0  0  0  0  0  0  0  0  0
   27.8645  -21.9334  -18.5928 C   0  0  0  0  0  0  0  0  0  0  0  0
   29.0457  -21.6304  -19.4581 C   0  0  0  0  0  0  0  0  0  0  0  0
   29.7975  -20.4504  -19.4533 C   0  0  0  0  0  0  0  0  0  0  0  0
   30.7776  -20.5504  -20.3692 N   0  0  0  0  0  0  0  0  0  0  0  0
   30.6735  -21.7517  -20.9540 C   0  0  0  0  0  0  0  0  0  0  0  0
   29.6245  -22.3972  -20.3973 N   0  0  0  0  0  0  0  0  0  0  0  0
   27.4546  -22.3961  -16.1829 C   0  0  0  0  0  0  0  0  0  0  0  0
   26.5870  -23.3018  -16.0320 O   0  0  0  0  0  0  0  0  0  0  0  0
   23.4996  -20.2850   -8.6311 O   0  0  0  0  0  0  0  0  0  0  0  0
   24.3832  -20.3494   -9.6906 C   0  0  0  0  0  0  0  0  0  0  0  0
   25.4601  -21.2145   -9.6719 C   0  0  0  0  0  0  0  0  0  0  0  0
   26.3191  -21.2458  -10.7540 C   0  0  0  0  0  0  0  0  0  0  0  0
   26.1616  -20.4568  -11.8600 C   0  0  0  0  0  0  0  0  0  0  0  0
   27.0724  -20.4773  -13.0354 C   0  0  0  0  0  0  0  0  0  0  0  0
   26.5314  -21.4059  -14.1210 C   0  0  2  0  0  0  0  0  0  0  0  0
   27.4623  -21.3432  -15.2674 N   0  0  0  0  0  0  0  0  0  0  0  0
   25.2530  -20.8284  -14.5967 C   0  0  0  0  0  0  0  0  0  0  0  0
   25.3229  -19.7523  -15.3104 O   0  0  0  0  0  0  0  0  0  0  0  0
   25.0897  -19.5938  -11.8818 C   0  0  0  0  0  0  0  0  0  0  0  0
   24.2115  -19.5457  -10.8022 C   0  0  0  0  0  0  0  0  0  0  0  0
   23.9562  -21.3213  -14.3622 N   0  0  0  0  0  0  0  0  0  0  0  0
   23.6742  -22.5433  -13.5870 C   0  0  0  0  0  0  0  0  0  0  0  0
   22.4104  -23.0302  -14.2902 C   0  0  0  0  0  0  0  0  0  0  0  0
   21.6219  -21.7374  -14.3128 C   0  0  0  0  0  0  0  0  0  0  0  0
   22.7134  -20.7590  -14.8097 C   0  0  1  0  0  0  0  0  0  0  0  0
   22.3962  -19.4740  -14.1529 C   0  0  0  0  0  0  0  0  0  0  0  0
   21.4109  -18.6478  -14.6462 O   0  0  0  0  0  0  0  0  0  0  0  0
   23.0301  -19.1318  -13.1362 O   0  0  0  0  0  0  0  0  0  0  0  0
  2  1  1  6
  2  3  1  0
  3  4  1  0
  4  8  1  0
  5  4  2  0
  5  6  1  0
  6  7  1  0
  8  7  2  0
  9 18  1  0
  9  2  1  0
 10  9  2  0
 12 11  1  0
 13 12  2  0
 14 13  1  0
 15 14  2  0
 15 21  1  0
 17 16  1  1
 16 15  1  0
 17 18  1  0
 19 17  1  0
 20 19  2  0
 21 22  2  0
 22 12  1  0
 23 27  1  0
 23 19  1  0
 24 23  1  0
 25 26  1  0
 25 24  1  0
 26 27  1  0
 27 28  1  1
 28 30  2  0
 28 29  1  0
M  END
$$$$
