HYP.pdb
     RDKit          3D

 30 32  0  0  1  0  0  0  0  0999 V2000
   24.2815  -19.2465  -12.9497 N   0  0  0  0  0  0  0  0  0  0  0  0
   24.4561  -20.4262  -12.1513 C   0  0  1  0  0  0  0  0  0  0  0  0
   24.7291  -21.6049  -13.0402 C   0  0  0  0  0  0  0  0  0  0  0  0
   23.4700  -21.8844  -13.7966 C   0  0  0  0  0  0  0  0  0  0  0  0
   23.2685  -21.7033  -15.1693 C   0  0  0  0  0  0  0  0  0  0  0  0
   22.0101  -22.0630  -15.4798 N   0  0  0  0  0  0  0  0  0  0  0  0
   21.4072  -22.4656  -14.3527 C   0  0  0  0  0  0  0  0  0  0  0  0
   22.2966  -22.3543  -13.3411 N   0  0  0  0  0  0  0  0  0  0  0  0
   25.5215  -20.1879  -11.1550 C   0  0  0  0  0  0  0  0  0  0  0  0
   26.6195  -19.7196  -11.5683 O   0  0  0  0  0  0  0  0  0  0  0  0
   30.2332  -18.7173   -3.9209 O   0  0  0  0  0  0  0  0  0  0  0  0
   29.2202  -19.1002   -4.7780 C   0  0  0  0  0  0  0  0  0  0  0  0
   28.8376  -20.4233   -4.8867 C   0  0  0  0  0  0  0  0  0  0  0  0
   27.8189  -20.7616   -5.7572 C   0  0  0  0  0  0  0  0  0  0  0  0
   27.1573  -19.8469   -6.5294 C   0  0  0  0  0  0  0  0  0  0  0  0
   26.0571  -20.1897   -7.4695 C   0  0  0  0  0  0  0  0  0  0  0  0
   26.5521  -20.1565   -8.9143 C   0  0  2  0  0  0  0  0  0  0  0  0
   25.3964  -20.4450   -9.7894 N   0  0  0  0  0  0  0  0  0  0  0  0
   27.4901  -21.2903   -9.0839 C   0  0  0  0  0  0  0  0  0  0  0  0
   26.9859  -22.4807   -9.0541 O   0  0  0  0  0  0  0  0  0  0  0  0
   27.5361  -18.5280   -6.4234 C   0  0  0  0  0  0  0  0  0  0  0  0
   28.5602  -18.1648   -5.5526 C   0  0  0  0  0  0  0  0  0  0  0  0
   28.8819  -21.2225   -9.2789 N   0  0  0  0  0  0  0  0  0  0  0  0
   29.6277  -19.9577   -9.4122 C   0  0  0  0  0  0  0  0  0  0  0  0
   30.7494  -20.3966  -10.3491 C   0  0  0  0  0  0  0  0  0  0  0  0
   31.1830  -21.6651   -9.6443 C   0  0  0  0  0  0  0  0  0  0  0  0
   29.8044  -22.3177   -9.3812 C   0  0  1  0  0  0  0  0  0  0  0  0
   29.9694  -23.0490   -8.1080 C   0  0  0  0  0  0  0  0  0  0  0  0
   30.6708  -24.2331   -8.0543 O   0  0  0  0  0  0  0  0  0  0  0  0
   29.4662  -22.5875   -7.0657 O   0  0  0  0  0  0  0  0  0  0  0  0
  2  1  1  6
  2  3  1  0
  3  4  1  0
  4  8  1  0
  5  4  2  0
  5  6  1  0
  6  7  1  0
  8  7  2  0
  9 18  1  0
  9  2  1  0
 10  9  2  0
 12 11  1  0
 13 12  2  0
 14 13  1  0
 15 14  2  0
 15 21  1  0
 17 16  1  1
 16 15  1  0
 17 18  1  0
 19 17  1  0
 20 19  2  0
 21 22  2  0
 22 12  1  0
 23 27  1  0
 23 19  1  0
 24 23  1  0
 25 26  1  0
 25 24  1  0
 26 27  1  0
 27 28  1  1
 28 30  2  0
 28 29  1  0
M  END
$$$$
