HYP.pdb
     RDKit          3D

 30 32  0  0  1  0  0  0  0  0999 V2000
   21.2013  -12.2635  -18.3864 N   0  0  0  0  0  0  0  0  0  0  0  0
   20.6334  -11.5243  -17.2951 C   0  0  1  0  0  0  0  0  0  0  0  0
   20.7354  -12.3272  -16.0306 C   0  0  0  0  0  0  0  0  0  0  0  0
   19.6985  -13.4016  -16.1086 C   0  0  0  0  0  0  0  0  0  0  0  0
   18.3141  -13.2151  -16.1895 C   0  0  0  0  0  0  0  0  0  0  0  0
   17.7115  -14.4164  -16.2431 N   0  0  0  0  0  0  0  0  0  0  0  0
   18.6647  -15.3574  -16.1992 C   0  0  0  0  0  0  0  0  0  0  0  0
   19.8618  -14.7351  -16.1180 N   0  0  0  0  0  0  0  0  0  0  0  0
   21.2937  -10.2052  -17.2033 C   0  0  0  0  0  0  0  0  0  0  0  0
   22.4983  -10.1752  -16.8245 O   0  0  0  0  0  0  0  0  0  0  0  0
   25.0252   -9.7700  -22.3021 O   0  0  0  0  0  0  0  0  0  0  0  0
   24.1400   -9.1296  -21.4573 C   0  0  0  0  0  0  0  0  0  0  0  0
   22.7845   -9.3907  -21.5111 C   0  0  0  0  0  0  0  0  0  0  0  0
   21.9348   -8.7267  -20.6466 C   0  0  0  0  0  0  0  0  0  0  0  0
   22.3661   -7.8115  -19.7263 C   0  0  0  0  0  0  0  0  0  0  0  0
   21.4692   -7.0887  -18.7857 C   0  0  0  0  0  0  0  0  0  0  0  0
   21.4801   -7.7545  -17.4108 C   0  0  2  0  0  0  0  0  0  0  0  0
   20.6765   -8.9913  -17.5068 N   0  0  0  0  0  0  0  0  0  0  0  0
   20.7497   -6.8599  -16.4834 C   0  0  0  0  0  0  0  0  0  0  0  0
   19.4584   -6.9288  -16.4939 O   0  0  0  0  0  0  0  0  0  0  0  0
   23.7161   -7.5492  -19.6702 C   0  0  0  0  0  0  0  0  0  0  0  0
   24.5902   -8.2068  -20.5319 C   0  0  0  0  0  0  0  0  0  0  0  0
   21.3034   -5.9347  -15.5794 N   0  0  0  0  0  0  0  0  0  0  0  0
   22.7531   -5.7530  -15.3814 C   0  0  0  0  0  0  0  0  0  0  0  0
   22.7826   -5.3579  -13.9077 C   0  0  0  0  0  0  0  0  0  0  0  0
   21.7016   -4.2972  -13.9107 C   0  0  0  0  0  0  0  0  0  0  0  0
   20.6004   -5.0300  -14.7144 C   0  0  1  0  0  0  0  0  0  0  0  0
   19.8970   -3.9609  -15.4530 C   0  0  0  0  0  0  0  0  0  0  0  0
   18.9731   -3.1539  -14.8268 O   0  0  0  0  0  0  0  0  0  0  0  0
   20.1433   -3.7861  -16.6619 O   0  0  0  0  0  0  0  0  0  0  0  0
  2  1  1  6
  2  3  1  0
  3  4  1  0
  4  8  1  0
  5  4  2  0
  5  6  1  0
  6  7  1  0
  8  7  2  0
  9 18  1  0
  9  2  1  0
 10  9  2  0
 12 11  1  0
 13 12  2  0
 14 13  1  0
 15 14  2  0
 15 21  1  0
 17 16  1  6
 16 15  1  0
 17 18  1  0
 19 17  1  0
 20 19  2  0
 21 22  2  0
 22 12  1  0
 23 27  1  0
 23 19  1  0
 24 23  1  0
 25 26  1  0
 25 24  1  0
 26 27  1  0
 27 28  1  6
 28 30  2  0
 28 29  1  0
M  END
$$$$
