HYP.pdb
     RDKit          3D

 30 32  0  0  1  0  0  0  0  0999 V2000
   26.8774  -22.1990  -17.6104 N   0  0  0  0  0  0  0  0  0  0  0  0
   26.3692  -22.7249  -16.3755 C   0  0  1  0  0  0  0  0  0  0  0  0
   27.4630  -23.4464  -15.6427 C   0  0  0  0  0  0  0  0  0  0  0  0
   27.5747  -24.8076  -16.2516 C   0  0  0  0  0  0  0  0  0  0  0  0
   26.8421  -25.9426  -15.8874 C   0  0  0  0  0  0  0  0  0  0  0  0
   27.2208  -26.9764  -16.6602 N   0  0  0  0  0  0  0  0  0  0  0  0
   28.1674  -26.5367  -17.5009 C   0  0  0  0  0  0  0  0  0  0  0  0
   28.3746  -25.2255  -17.2468 N   0  0  0  0  0  0  0  0  0  0  0  0
   25.7658  -21.6281  -15.5899 C   0  0  0  0  0  0  0  0  0  0  0  0
   26.4697  -20.6014  -15.3755 O   0  0  0  0  0  0  0  0  0  0  0  0
   25.1658  -16.7066  -19.2642 O   0  0  0  0  0  0  0  0  0  0  0  0
   24.6229  -17.4345  -18.2237 C   0  0  0  0  0  0  0  0  0  0  0  0
   24.4145  -16.8624  -16.9835 C   0  0  0  0  0  0  0  0  0  0  0  0
   23.8687  -17.6281  -15.9707 C   0  0  0  0  0  0  0  0  0  0  0  0
   23.5175  -18.9405  -16.1283 C   0  0  0  0  0  0  0  0  0  0  0  0
   22.9265  -19.7805  -15.0528 C   0  0  0  0  0  0  0  0  0  0  0  0
   24.0216  -20.4956  -14.2635 C   0  0  2  0  0  0  0  0  0  0  0  0
   24.4716  -21.6502  -15.0690 N   0  0  0  0  0  0  0  0  0  0  0  0
   23.3900  -21.0618  -13.0492 C   0  0  0  0  0  0  0  0  0  0  0  0
   22.5219  -22.0044  -13.2225 O   0  0  0  0  0  0  0  0  0  0  0  0
   23.7239  -19.5133  -17.3627 C   0  0  0  0  0  0  0  0  0  0  0  0
   24.2726  -18.7603  -18.3975 C   0  0  0  0  0  0  0  0  0  0  0  0
   23.6292  -20.6913  -11.7132 N   0  0  0  0  0  0  0  0  0  0  0  0
   24.7088  -19.7764  -11.2995 C   0  0  0  0  0  0  0  0  0  0  0  0
   25.0332  -20.3392   -9.9187 C   0  0  0  0  0  0  0  0  0  0  0  0
   23.6315  -20.4431   -9.3546 C   0  0  0  0  0  0  0  0  0  0  0  0
   22.9046  -21.1106  -10.5469 C   0  0  1  0  0  0  0  0  0  0  0  0
   21.5299  -20.5710  -10.5014 C   0  0  0  0  0  0  0  0  0  0  0  0
   20.6010  -21.0664   -9.6134 O   0  0  0  0  0  0  0  0  0  0  0  0
   21.2052  -19.6528  -11.2787 O   0  0  0  0  0  0  0  0  0  0  0  0
  2  1  1  6
  2  3  1  0
  3  4  1  0
  4  8  1  0
  5  4  2  0
  5  6  1  0
  6  7  1  0
  8  7  2  0
  9 18  1  0
  9  2  1  0
 10  9  2  0
 12 11  1  0
 13 12  2  0
 14 13  1  0
 15 14  2  0
 15 21  1  0
 17 16  1  6
 16 15  1  0
 17 18  1  0
 19 17  1  0
 20 19  2  0
 21 22  2  0
 22 12  1  0
 23 27  1  0
 23 19  1  0
 24 23  1  0
 25 26  1  0
 25 24  1  0
 26 27  1  0
 27 28  1  6
 28 30  2  0
 28 29  1  0
M  END
$$$$
