HYP.pdb
     RDKit          3D

 30 32  0  0  1  0  0  0  0  0999 V2000
   20.0884  -17.6659  -16.8990 N   0  0  0  0  0  0  0  0  0  0  0  0
   21.2590  -18.1088  -17.6013 C   0  0  1  0  0  0  0  0  0  0  0  0
   21.6768  -17.0676  -18.5990 C   0  0  0  0  0  0  0  0  0  0  0  0
   20.9137  -17.3347  -19.8568 C   0  0  0  0  0  0  0  0  0  0  0  0
   19.9480  -16.5031  -20.4345 C   0  0  0  0  0  0  0  0  0  0  0  0
   19.4857  -17.0812  -21.5576 N   0  0  0  0  0  0  0  0  0  0  0  0
   20.1241  -18.2494  -21.7120 C   0  0  0  0  0  0  0  0  0  0  0  0
   20.9847  -18.3941  -20.6799 N   0  0  0  0  0  0  0  0  0  0  0  0
   22.3181  -18.4389  -16.6246 C   0  0  0  0  0  0  0  0  0  0  0  0
   22.5503  -17.6055  -15.7042 O   0  0  0  0  0  0  0  0  0  0  0  0
   18.6841  -20.5845  -11.9808 O   0  0  0  0  0  0  0  0  0  0  0  0
   19.8727  -20.7301  -12.6688 C   0  0  0  0  0  0  0  0  0  0  0  0
   21.0827  -20.4194  -12.0791 C   0  0  0  0  0  0  0  0  0  0  0  0
   22.2478  -20.5803  -12.8048 C   0  0  0  0  0  0  0  0  0  0  0  0
   22.2718  -21.0368  -14.0938 C   0  0  0  0  0  0  0  0  0  0  0  0
   23.5141  -21.2197  -14.8906 C   0  0  0  0  0  0  0  0  0  0  0  0
   23.9633  -19.8936  -15.5016 C   0  0  2  0  0  0  0  0  0  0  0  0
   23.0785  -19.6085  -16.6507 N   0  0  0  0  0  0  0  0  0  0  0  0
   25.3161  -20.1056  -16.0663 C   0  0  0  0  0  0  0  0  0  0  0  0
   25.3850  -20.5983  -17.2599 O   0  0  0  0  0  0  0  0  0  0  0  0
   21.0679  -21.3472  -14.6842 C   0  0  0  0  0  0  0  0  0  0  0  0
   19.8817  -21.1926  -13.9714 C   0  0  0  0  0  0  0  0  0  0  0  0
   26.5497  -19.8275  -15.4494 N   0  0  0  0  0  0  0  0  0  0  0  0
   26.6763  -19.1985  -14.1221 C   0  0  0  0  0  0  0  0  0  0  0  0
   27.9838  -18.4329  -14.3034 C   0  0  0  0  0  0  0  0  0  0  0  0
   28.8378  -19.5325  -14.8995 C   0  0  0  0  0  0  0  0  0  0  0  0
   27.8636  -20.0889  -15.9658 C   0  0  1  0  0  0  0  0  0  0  0  0
   28.1724  -21.5317  -16.0434 C   0  0  0  0  0  0  0  0  0  0  0  0
   29.2730  -21.9868  -16.7351 O   0  0  0  0  0  0  0  0  0  0  0  0
   27.4253  -22.3505  -15.4741 O   0  0  0  0  0  0  0  0  0  0  0  0
  2  1  1  1
  2  3  1  0
  3  4  1  0
  4  8  1  0
  5  4  2  0
  5  6  1  0
  6  7  1  0
  8  7  2  0
  9 18  1  0
  9  2  1  0
 10  9  2  0
 12 11  1  0
 13 12  2  0
 14 13  1  0
 15 14  2  0
 15 21  1  0
 17 16  1  6
 16 15  1  0
 17 18  1  0
 19 17  1  0
 20 19  2  0
 21 22  2  0
 22 12  1  0
 23 27  1  0
 23 19  1  0
 24 23  1  0
 25 26  1  0
 25 24  1  0
 26 27  1  0
 27 28  1  1
 28 30  2  0
 28 29  1  0
M  END
$$$$
