HYP.pdb
     RDKit          3D

 30 32  0  0  1  0  0  0  0  0999 V2000
   28.3462  -18.9864  -22.9434 N   0  0  0  0  0  0  0  0  0  0  0  0
   28.6103  -18.6924  -21.5637 C   0  0  1  0  0  0  0  0  0  0  0  0
   30.0732  -18.8715  -21.2775 C   0  0  0  0  0  0  0  0  0  0  0  0
   30.3680  -20.3324  -21.3996 C   0  0  0  0  0  0  0  0  0  0  0  0
   30.3479  -21.2727  -20.3638 C   0  0  0  0  0  0  0  0  0  0  0  0
   30.6665  -22.4812  -20.8614 N   0  0  0  0  0  0  0  0  0  0  0  0
   30.8877  -22.3398  -22.1756 C   0  0  0  0  0  0  0  0  0  0  0  0
   30.7051  -21.0384  -22.4918 N   0  0  0  0  0  0  0  0  0  0  0  0
   28.1169  -17.3347  -21.2510 C   0  0  0  0  0  0  0  0  0  0  0  0
   28.4400  -16.3966  -22.0328 O   0  0  0  0  0  0  0  0  0  0  0  0
   23.5970  -10.1862  -20.7871 O   0  0  0  0  0  0  0  0  0  0  0  0
   24.1181  -11.4631  -20.8606 C   0  0  0  0  0  0  0  0  0  0  0  0
   23.4770  -12.5321  -20.2651 C   0  0  0  0  0  0  0  0  0  0  0  0
   24.0343  -13.7930  -20.3638 C   0  0  0  0  0  0  0  0  0  0  0  0
   25.2027  -14.0469  -21.0278 C   0  0  0  0  0  0  0  0  0  0  0  0
   25.8172  -15.3958  -21.1480 C   0  0  0  0  0  0  0  0  0  0  0  0
   26.8214  -15.6335  -20.0216 C   0  0  2  0  0  0  0  0  0  0  0  0
   27.3185  -17.0194  -20.1511 N   0  0  0  0  0  0  0  0  0  0  0  0
   26.0710  -15.5828  -18.7456 C   0  0  0  0  0  0  0  0  0  0  0  0
   25.2662  -16.5639  -18.4967 O   0  0  0  0  0  0  0  0  0  0  0  0
   25.8438  -12.9839  -21.6221 C   0  0  0  0  0  0  0  0  0  0  0  0
   25.3001  -11.7049  -21.5352 C   0  0  0  0  0  0  0  0  0  0  0  0
   26.1344  -14.5812  -17.7594 N   0  0  0  0  0  0  0  0  0  0  0  0
   26.9912  -13.3858  -17.8626 C   0  0  0  0  0  0  0  0  0  0  0  0
   27.3072  -13.1452  -16.3892 C   0  0  0  0  0  0  0  0  0  0  0  0
   25.9099  -13.2442  -15.8135 C   0  0  0  0  0  0  0  0  0  0  0  0
   25.4127  -14.5286  -16.5195 C   0  0  1  0  0  0  0  0  0  0  0  0
   23.9625  -14.3183  -16.7089 C   0  0  0  0  0  0  0  0  0  0  0  0
   23.0683  -14.5767  -15.6937 O   0  0  0  0  0  0  0  0  0  0  0  0
   23.5411  -13.9005  -17.8046 O   0  0  0  0  0  0  0  0  0  0  0  0
  2  1  1  6
  2  3  1  0
  3  4  1  0
  4  8  1  0
  5  4  2  0
  5  6  1  0
  6  7  1  0
  8  7  2  0
  9 18  1  0
  9  2  1  0
 10  9  2  0
 12 11  1  0
 13 12  2  0
 14 13  1  0
 15 14  2  0
 15 21  1  0
 17 16  1  6
 16 15  1  0
 17 18  1  0
 19 17  1  0
 20 19  2  0
 21 22  2  0
 22 12  1  0
 23 27  1  0
 23 19  1  0
 24 23  1  0
 25 26  1  0
 25 24  1  0
 26 27  1  0
 27 28  1  6
 28 30  2  0
 28 29  1  0
M  END
$$$$
