HYP.pdb
     RDKit          3D

 30 32  0  0  1  0  0  0  0  0999 V2000
   23.4403  -30.3966  -17.7426 N   0  0  0  0  0  0  0  0  0  0  0  0
   23.9383  -31.3470  -16.7894 C   0  0  1  0  0  0  0  0  0  0  0  0
   25.4134  -31.5417  -16.9898 C   0  0  0  0  0  0  0  0  0  0  0  0
   25.5825  -32.3746  -18.2200 C   0  0  0  0  0  0  0  0  0  0  0  0
   25.5435  -31.9196  -19.5425 C   0  0  0  0  0  0  0  0  0  0  0  0
   25.7360  -32.9614  -20.3713 N   0  0  0  0  0  0  0  0  0  0  0  0
   25.8955  -34.0603  -19.6209 C   0  0  0  0  0  0  0  0  0  0  0  0
   25.8012  -33.6962  -18.3227 N   0  0  0  0  0  0  0  0  0  0  0  0
   23.5891  -30.8983  -15.4252 C   0  0  0  0  0  0  0  0  0  0  0  0
   23.4743  -29.6563  -15.2255 O   0  0  0  0  0  0  0  0  0  0  0  0
   19.3486  -28.4364   -8.5399 O   0  0  0  0  0  0  0  0  0  0  0  0
   19.8541  -29.0025   -9.6937 C   0  0  0  0  0  0  0  0  0  0  0  0
   19.5575  -30.3068  -10.0393 C   0  0  0  0  0  0  0  0  0  0  0  0
   20.0852  -30.8329  -11.2033 C   0  0  0  0  0  0  0  0  0  0  0  0
   20.8970  -30.1248  -12.0460 C   0  0  0  0  0  0  0  0  0  0  0  0
   21.4723  -30.6711  -13.3038 C   0  0  0  0  0  0  0  0  0  0  0  0
   22.8977  -31.1699  -13.0731 C   0  0  2  0  0  0  0  0  0  0  0  0
   23.3779  -31.7536  -14.3432 N   0  0  0  0  0  0  0  0  0  0  0  0
   22.8204  -32.2909  -12.1080 C   0  0  0  0  0  0  0  0  0  0  0  0
   22.3485  -33.4126  -12.5455 O   0  0  0  0  0  0  0  0  0  0  0  0
   21.1944  -28.8251  -11.7045 C   0  0  0  0  0  0  0  0  0  0  0  0
   20.6735  -28.2748  -10.5362 C   0  0  0  0  0  0  0  0  0  0  0  0
   23.2077  -32.2786  -10.7555 N   0  0  0  0  0  0  0  0  0  0  0  0
   23.6507  -31.0660  -10.0433 C   0  0  0  0  0  0  0  0  0  0  0  0
   24.6412  -31.6737   -9.0542 C   0  0  0  0  0  0  0  0  0  0  0  0
   23.7968  -32.8123   -8.5210 C   0  0  0  0  0  0  0  0  0  0  0  0
   23.2460  -33.3897   -9.8472 C   0  0  1  0  0  0  0  0  0  0  0  0
   21.9013  -33.8991   -9.5078 C   0  0  0  0  0  0  0  0  0  0  0  0
   21.7422  -35.0771   -8.8121 O   0  0  0  0  0  0  0  0  0  0  0  0
   20.8944  -33.2530   -9.8562 O   0  0  0  0  0  0  0  0  0  0  0  0
  2  1  1  6
  2  3  1  0
  3  4  1  0
  4  8  1  0
  5  4  2  0
  5  6  1  0
  6  7  1  0
  8  7  2  0
  9 18  1  0
  9  2  1  0
 10  9  2  0
 12 11  1  0
 13 12  2  0
 14 13  1  0
 15 14  2  0
 15 21  1  0
 17 16  1  6
 16 15  1  0
 17 18  1  0
 19 17  1  0
 20 19  2  0
 21 22  2  0
 22 12  1  0
 23 27  1  0
 23 19  1  0
 24 23  1  0
 25 26  1  0
 25 24  1  0
 26 27  1  0
 27 28  1  1
 28 30  2  0
 28 29  1  0
M  END
$$$$
