HYP.pdb
     RDKit          3D

 30 32  0  0  1  0  0  0  0  0999 V2000
   28.4227  -19.4718  -19.4800 N   0  0  0  0  0  0  0  0  0  0  0  0
   27.2593  -18.9467  -18.8238 C   0  0  1  0  0  0  0  0  0  0  0  0
   26.0575  -19.1180  -19.7071 C   0  0  0  0  0  0  0  0  0  0  0  0
   25.8301  -17.8106  -20.3962 C   0  0  0  0  0  0  0  0  0  0  0  0
   24.8611  -16.8563  -20.0675 C   0  0  0  0  0  0  0  0  0  0  0  0
   24.9658  -15.8150  -20.9125 N   0  0  0  0  0  0  0  0  0  0  0  0
   25.9666  -16.0756  -21.7649 C   0  0  0  0  0  0  0  0  0  0  0  0
   26.4828  -17.2833  -21.4454 N   0  0  0  0  0  0  0  0  0  0  0  0
   27.1100  -19.5942  -17.5036 C   0  0  0  0  0  0  0  0  0  0  0  0
   27.0917  -20.8566  -17.4660 O   0  0  0  0  0  0  0  0  0  0  0  0
   25.9038  -21.3379   -8.9706 O   0  0  0  0  0  0  0  0  0  0  0  0
   26.2078  -20.7127  -10.1640 C   0  0  0  0  0  0  0  0  0  0  0  0
   25.4462  -19.6601  -10.6338 C   0  0  0  0  0  0  0  0  0  0  0  0
   25.7868  -19.0638  -11.8332 C   0  0  0  0  0  0  0  0  0  0  0  0
   26.8515  -19.4624  -12.5936 C   0  0  0  0  0  0  0  0  0  0  0  0
   27.2362  -18.8325  -13.8846 C   0  0  0  0  0  0  0  0  0  0  0  0
   26.7742  -19.6894  -15.0618 C   0  0  2  0  0  0  0  0  0  0  0  0
   26.9878  -18.9053  -16.2964 N   0  0  0  0  0  0  0  0  0  0  0  0
   25.3087  -19.8616  -14.9319 C   0  0  0  0  0  0  0  0  0  0  0  0
   24.5674  -18.8485  -15.2421 O   0  0  0  0  0  0  0  0  0  0  0  0
   27.6121  -20.5108  -12.1282 C   0  0  0  0  0  0  0  0  0  0  0  0
   27.2871  -21.1263  -10.9222 C   0  0  0  0  0  0  0  0  0  0  0  0
   24.6207  -21.0133  -14.5080 N   0  0  0  0  0  0  0  0  0  0  0  0
   25.2911  -22.2561  -14.0841 C   0  0  0  0  0  0  0  0  0  0  0  0
   24.2592  -23.2902  -14.5251 C   0  0  0  0  0  0  0  0  0  0  0  0
   23.0096  -22.6604  -13.9459 C   0  0  0  0  0  0  0  0  0  0  0  0
   23.2002  -21.1961  -14.4095 C   0  0  1  0  0  0  0  0  0  0  0  0
   22.5899  -20.3789  -13.3405 C   0  0  0  0  0  0  0  0  0  0  0  0
   23.3319  -19.9501  -12.2623 O   0  0  0  0  0  0  0  0  0  0  0  0
   21.3843  -20.0725  -13.4149 O   0  0  0  0  0  0  0  0  0  0  0  0
  2  1  1  6
  2  3  1  0
  3  4  1  0
  4  8  1  0
  5  4  2  0
  5  6  1  0
  6  7  1  0
  8  7  2  0
  9 18  1  0
  9  2  1  0
 10  9  2  0
 12 11  1  0
 13 12  2  0
 14 13  1  0
 15 14  2  0
 15 21  1  0
 17 16  1  1
 16 15  1  0
 17 18  1  0
 19 17  1  0
 20 19  2  0
 21 22  2  0
 22 12  1  0
 23 27  1  0
 23 19  1  0
 24 23  1  0
 25 26  1  0
 25 24  1  0
 26 27  1  0
 27 28  1  1
 28 30  2  0
 28 29  1  0
M  END
$$$$
