HYP.pdb
     RDKit          3D

 30 32  0  0  1  0  0  0  0  0999 V2000
   22.4233  -11.1556  -20.3215 N   0  0  0  0  0  0  0  0  0  0  0  0
   22.8668   -9.8412  -19.9536 C   0  0  1  0  0  0  0  0  0  0  0  0
   23.1270   -9.0289  -21.1891 C   0  0  0  0  0  0  0  0  0  0  0  0
   24.3498   -9.5955  -21.8368 C   0  0  0  0  0  0  0  0  0  0  0  0
   24.3911  -10.3533  -23.0122 C   0  0  0  0  0  0  0  0  0  0  0  0
   25.6681  -10.6821  -23.2781 N   0  0  0  0  0  0  0  0  0  0  0  0
   26.4371  -10.1596  -22.3130 C   0  0  0  0  0  0  0  0  0  0  0  0
   25.6322   -9.5049  -21.4467 N   0  0  0  0  0  0  0  0  0  0  0  0
   21.8724   -9.2260  -19.0497 C   0  0  0  0  0  0  0  0  0  0  0  0
   20.6505   -9.3600  -19.3407 O   0  0  0  0  0  0  0  0  0  0  0  0
   19.0849  -13.9756  -15.9445 O   0  0  0  0  0  0  0  0  0  0  0  0
   19.6287  -12.7077  -15.8815 C   0  0  0  0  0  0  0  0  0  0  0  0
   20.9967  -12.5152  -15.8917 C   0  0  0  0  0  0  0  0  0  0  0  0
   21.4974  -11.2287  -15.8269 C   0  0  0  0  0  0  0  0  0  0  0  0
   20.7034  -10.1175  -15.7521 C   0  0  0  0  0  0  0  0  0  0  0  0
   21.2219   -8.7254  -15.6846 C   0  0  0  0  0  0  0  0  0  0  0  0
   21.0859   -8.0327  -17.0394 C   0  0  2  0  0  0  0  0  0  0  0  0
   22.1919   -8.5076  -17.8971 N   0  0  0  0  0  0  0  0  0  0  0  0
   21.3259   -6.5876  -16.8204 C   0  0  0  0  0  0  0  0  0  0  0  0
   22.5575   -6.1993  -16.7521 O   0  0  0  0  0  0  0  0  0  0  0  0
   19.3401  -10.3060  -15.7417 C   0  0  0  0  0  0  0  0  0  0  0  0
   18.8139  -11.5936  -15.8061 C   0  0  0  0  0  0  0  0  0  0  0  0
   20.3589   -5.5754  -16.6792 N   0  0  0  0  0  0  0  0  0  0  0  0
   18.9096   -5.8038  -16.8237 C   0  0  0  0  0  0  0  0  0  0  0  0
   18.4714   -4.4517  -17.3789 C   0  0  0  0  0  0  0  0  0  0  0  0
   19.1783   -3.5375  -16.4000 C   0  0  0  0  0  0  0  0  0  0  0  0
   20.5822   -4.1889  -16.3810 C   0  0  1  0  0  0  0  0  0  0  0  0
   21.0812   -3.9711  -15.0075 C   0  0  0  0  0  0  0  0  0  0  0  0
   21.5102   -2.7287  -14.5958 O   0  0  0  0  0  0  0  0  0  0  0  0
   21.1148   -4.9264  -14.2082 O   0  0  0  0  0  0  0  0  0  0  0  0
  2  1  1  6
  2  3  1  0
  3  4  1  0
  4  8  1  0
  5  4  2  0
  5  6  1  0
  6  7  1  0
  8  7  2  0
  9 18  1  0
  9  2  1  0
 10  9  2  0
 12 11  1  0
 13 12  2  0
 14 13  1  0
 15 14  2  0
 15 21  1  0
 17 16  1  1
 16 15  1  0
 17 18  1  0
 19 17  1  0
 20 19  2  0
 21 22  2  0
 22 12  1  0
 23 27  1  0
 23 19  1  0
 24 23  1  0
 25 26  1  0
 25 24  1  0
 26 27  1  0
 27 28  1  1
 28 30  2  0
 28 29  1  0
M  END
$$$$
