HYP.pdb
     RDKit          3D

 30 32  0  0  1  0  0  0  0  0999 V2000
   25.7609  -20.2903  -13.7486 N   0  0  0  0  0  0  0  0  0  0  0  0
   26.9492  -20.4723  -12.9647 C   0  0  1  0  0  0  0  0  0  0  0  0
   28.0921  -19.7311  -13.5958 C   0  0  0  0  0  0  0  0  0  0  0  0
   28.3305  -20.3512  -14.9353 C   0  0  0  0  0  0  0  0  0  0  0  0
   28.8616  -21.6226  -15.1789 C   0  0  0  0  0  0  0  0  0  0  0  0
   28.9244  -21.8252  -16.5073 N   0  0  0  0  0  0  0  0  0  0  0  0
   28.4520  -20.7275  -17.1138 C   0  0  0  0  0  0  0  0  0  0  0  0
   28.0956  -19.8424  -16.1564 N   0  0  0  0  0  0  0  0  0  0  0  0
   26.6829  -20.0570  -11.5715 C   0  0  0  0  0  0  0  0  0  0  0  0
   26.3479  -18.8559  -11.3693 O   0  0  0  0  0  0  0  0  0  0  0  0
   20.4929  -19.9512  -11.9335 O   0  0  0  0  0  0  0  0  0  0  0  0
   21.6043  -20.3081  -11.1955 C   0  0  0  0  0  0  0  0  0  0  0  0
   22.4395  -21.3280  -11.6088 C   0  0  0  0  0  0  0  0  0  0  0  0
   23.5407  -21.6518  -10.8390 C   0  0  0  0  0  0  0  0  0  0  0  0
   23.8560  -21.0101   -9.6731 C   0  0  0  0  0  0  0  0  0  0  0  0
   25.0372  -21.3410   -8.8323 C   0  0  0  0  0  0  0  0  0  0  0  0
   26.2171  -20.4348   -9.1790 C   0  0  2  0  0  0  0  0  0  0  0  0
   26.7765  -20.9016  -10.4649 N   0  0  0  0  0  0  0  0  0  0  0  0
   27.2677  -20.6727   -8.1623 C   0  0  0  0  0  0  0  0  0  0  0  0
   27.9495  -21.7667   -8.2655 O   0  0  0  0  0  0  0  0  0  0  0  0
   23.0259  -19.9935   -9.2587 C   0  0  0  0  0  0  0  0  0  0  0  0
   21.9107  -19.6506  -10.0188 C   0  0  0  0  0  0  0  0  0  0  0  0
   27.6167  -19.8362   -7.0862 N   0  0  0  0  0  0  0  0  0  0  0  0
   27.0458  -18.4931   -6.8766 C   0  0  0  0  0  0  0  0  0  0  0  0
   28.2271  -17.7921   -6.2119 C   0  0  0  0  0  0  0  0  0  0  0  0
   28.5783  -18.8297   -5.1661 C   0  0  0  0  0  0  0  0  0  0  0  0
   28.5515  -20.1122   -6.0321 C   0  0  1  0  0  0  0  0  0  0  0  0
   28.0868  -21.1758   -5.1179 C   0  0  0  0  0  0  0  0  0  0  0  0
   28.9028  -21.6627   -4.1209 O   0  0  0  0  0  0  0  0  0  0  0  0
   26.9381  -21.6402   -5.2505 O   0  0  0  0  0  0  0  0  0  0  0  0
  2  1  1  6
  2  3  1  0
  3  4  1  0
  4  8  1  0
  5  4  2  0
  5  6  1  0
  6  7  1  0
  8  7  2  0
  9 18  1  0
  9  2  1  0
 10  9  2  0
 12 11  1  0
 13 12  2  0
 14 13  1  0
 15 14  2  0
 15 21  1  0
 17 16  1  1
 16 15  1  0
 17 18  1  0
 19 17  1  0
 20 19  2  0
 21 22  2  0
 22 12  1  0
 23 27  1  0
 23 19  1  0
 24 23  1  0
 25 26  1  0
 25 24  1  0
 26 27  1  0
 27 28  1  1
 28 30  2  0
 28 29  1  0
M  END
$$$$
