HYP.pdb
     RDKit          3D

 30 32  0  0  1  0  0  0  0  0999 V2000
   25.7935  -35.2894  -16.8058 N   0  0  0  0  0  0  0  0  0  0  0  0
   25.3720  -35.9117  -15.5831 C   0  0  1  0  0  0  0  0  0  0  0  0
   26.3561  -36.9747  -15.1890 C   0  0  0  0  0  0  0  0  0  0  0  0
   26.1601  -38.1229  -16.1267 C   0  0  0  0  0  0  0  0  0  0  0  0
   25.1096  -39.0467  -16.0999 C   0  0  0  0  0  0  0  0  0  0  0  0
   25.2765  -39.9307  -17.1000 N   0  0  0  0  0  0  0  0  0  0  0  0
   26.3954  -39.5998  -17.7593 C   0  0  0  0  0  0  0  0  0  0  0  0
   26.9224  -38.5066  -17.1643 N   0  0  0  0  0  0  0  0  0  0  0  0
   25.1872  -34.8746  -14.5464 C   0  0  0  0  0  0  0  0  0  0  0  0
   25.9763  -33.8883  -14.5534 O   0  0  0  0  0  0  0  0  0  0  0  0
   21.9215  -28.5569   -9.6340 O   0  0  0  0  0  0  0  0  0  0  0  0
   22.0948  -29.6982  -10.3921 C   0  0  0  0  0  0  0  0  0  0  0  0
   21.8643  -30.9519   -9.8596 C   0  0  0  0  0  0  0  0  0  0  0  0
   22.0503  -32.0670  -10.6546 C   0  0  0  0  0  0  0  0  0  0  0  0
   22.4560  -31.9993  -11.9590 C   0  0  0  0  0  0  0  0  0  0  0  0
   22.6591  -33.1862  -12.8317 C   0  0  0  0  0  0  0  0  0  0  0  0
   24.0689  -33.7484  -12.6583 C   0  0  2  0  0  0  0  0  0  0  0  0
   24.2003  -34.9115  -13.5608 N   0  0  0  0  0  0  0  0  0  0  0  0
   24.1624  -34.2838  -11.2804 C   0  0  0  0  0  0  0  0  0  0  0  0
   23.5439  -35.3931  -11.0369 O   0  0  0  0  0  0  0  0  0  0  0  0
   22.6865  -30.7516  -12.4924 C   0  0  0  0  0  0  0  0  0  0  0  0
   22.5053  -29.6145  -11.7094 C   0  0  0  0  0  0  0  0  0  0  0  0
   24.8560  -33.7212  -10.1932 N   0  0  0  0  0  0  0  0  0  0  0  0
   25.5452  -32.4190  -10.2492 C   0  0  0  0  0  0  0  0  0  0  0  0
   26.6906  -32.6712   -9.2730 C   0  0  0  0  0  0  0  0  0  0  0  0
   25.9103  -33.2645   -8.1185 C   0  0  0  0  0  0  0  0  0  0  0  0
   25.0212  -34.2770   -8.8799 C   0  0  1  0  0  0  0  0  0  0  0  0
   23.7587  -34.3221   -8.1137 C   0  0  0  0  0  0  0  0  0  0  0  0
   23.6807  -34.9885   -6.9108 O   0  0  0  0  0  0  0  0  0  0  0  0
   22.7478  -33.7482   -8.5624 O   0  0  0  0  0  0  0  0  0  0  0  0
  2  1  1  6
  2  3  1  0
  3  4  1  0
  4  8  1  0
  5  4  2  0
  5  6  1  0
  6  7  1  0
  8  7  2  0
  9 18  1  0
  9  2  1  0
 10  9  2  0
 12 11  1  0
 13 12  2  0
 14 13  1  0
 15 14  2  0
 15 21  1  0
 17 16  1  1
 16 15  1  0
 17 18  1  0
 19 17  1  0
 20 19  2  0
 21 22  2  0
 22 12  1  0
 23 27  1  0
 23 19  1  0
 24 23  1  0
 25 26  1  0
 25 24  1  0
 26 27  1  0
 27 28  1  1
 28 30  2  0
 28 29  1  0
M  END
$$$$
