HYP.pdb
     RDKit          3D

 30 32  0  0  1  0  0  0  0  0999 V2000
   20.7964  -20.4573  -13.4622 N   0  0  0  0  0  0  0  0  0  0  0  0
   21.5373  -20.6020  -14.6828 C   0  0  1  0  0  0  0  0  0  0  0  0
   20.7934  -19.9448  -15.8092 C   0  0  0  0  0  0  0  0  0  0  0  0
   19.8184  -20.9490  -16.3354 C   0  0  0  0  0  0  0  0  0  0  0  0
   20.0834  -21.9487  -17.2777 C   0  0  0  0  0  0  0  0  0  0  0  0
   18.9592  -22.6537  -17.4982 N   0  0  0  0  0  0  0  0  0  0  0  0
   17.9915  -22.1362  -16.7290 C   0  0  0  0  0  0  0  0  0  0  0  0
   18.5196  -21.1069  -16.0301 N   0  0  0  0  0  0  0  0  0  0  0  0
   22.9009  -20.0645  -14.4924 C   0  0  0  0  0  0  0  0  0  0  0  0
   23.0134  -18.9029  -14.0091 O   0  0  0  0  0  0  0  0  0  0  0  0
   24.4333  -20.4153   -8.1440 O   0  0  0  0  0  0  0  0  0  0  0  0
   24.8561  -20.5663   -9.4500 C   0  0  0  0  0  0  0  0  0  0  0  0
   25.9129  -19.8295   -9.9490 C   0  0  0  0  0  0  0  0  0  0  0  0
   26.3024  -20.0129  -11.2623 C   0  0  0  0  0  0  0  0  0  0  0  0
   25.6918  -20.8959  -12.1097 C   0  0  0  0  0  0  0  0  0  0  0  0
   26.0973  -21.1101  -13.5243 C   0  0  0  0  0  0  0  0  0  0  0  0
   25.3659  -20.1379  -14.4482 C   0  0  2  0  0  0  0  0  0  0  0  0
   24.0718  -20.7533  -14.8104 N   0  0  0  0  0  0  0  0  0  0  0  0
   26.1471  -20.0528  -15.7039 C   0  0  0  0  0  0  0  0  0  0  0  0
   25.8641  -20.9075  -16.6321 O   0  0  0  0  0  0  0  0  0  0  0  0
   24.6386  -21.6314  -11.6155 C   0  0  0  0  0  0  0  0  0  0  0  0
   24.2294  -21.4627  -10.2953 C   0  0  0  0  0  0  0  0  0  0  0  0
   27.1713  -19.1378  -16.0094 N   0  0  0  0  0  0  0  0  0  0  0  0
   27.6242  -18.0802  -15.0874 C   0  0  0  0  0  0  0  0  0  0  0  0
   28.0370  -17.0024  -16.0856 C   0  0  0  0  0  0  0  0  0  0  0  0
   28.8760  -17.8407  -17.0274 C   0  0  0  0  0  0  0  0  0  0  0  0
   27.9393  -19.0578  -17.2197 C   0  0  1  0  0  0  0  0  0  0  0  0
   28.8478  -20.2091  -17.3992 C   0  0  0  0  0  0  0  0  0  0  0  0
   29.1053  -21.0795  -16.3633 O   0  0  0  0  0  0  0  0  0  0  0  0
   29.3901  -20.3960  -18.5054 O   0  0  0  0  0  0  0  0  0  0  0  0
  2  1  1  1
  2  3  1  0
  3  4  1  0
  4  8  1  0
  5  4  2  0
  5  6  1  0
  6  7  1  0
  8  7  2  0
  9 18  1  0
  9  2  1  0
 10  9  2  0
 12 11  1  0
 13 12  2  0
 14 13  1  0
 15 14  2  0
 15 21  1  0
 17 16  1  1
 16 15  1  0
 17 18  1  0
 19 17  1  0
 20 19  2  0
 21 22  2  0
 22 12  1  0
 23 27  1  0
 23 19  1  0
 24 23  1  0
 25 26  1  0
 25 24  1  0
 26 27  1  0
 27 28  1  1
 28 30  2  0
 28 29  1  0
M  END
$$$$
