HYP.pdb
     RDKit          3D

 30 32  0  0  1  0  0  0  0  0999 V2000
   32.3973  -28.6668  -20.2972 N   0  0  0  0  0  0  0  0  0  0  0  0
   32.3900  -29.4875  -19.1198 C   0  0  1  0  0  0  0  0  0  0  0  0
   33.1204  -28.7889  -18.0096 C   0  0  0  0  0  0  0  0  0  0  0  0
   34.5801  -28.8784  -18.3209 C   0  0  0  0  0  0  0  0  0  0  0  0
   35.3692  -27.8767  -18.8966 C   0  0  0  0  0  0  0  0  0  0  0  0
   36.6304  -28.3278  -19.0205 N   0  0  0  0  0  0  0  0  0  0  0  0
   36.6683  -29.5797  -18.5438 C   0  0  0  0  0  0  0  0  0  0  0  0
   35.4254  -29.9039  -18.1233 N   0  0  0  0  0  0  0  0  0  0  0  0
   30.9950  -29.8320  -18.7739 C   0  0  0  0  0  0  0  0  0  0  0  0
   30.1639  -28.8865  -18.6694 O   0  0  0  0  0  0  0  0  0  0  0  0
   22.8934  -32.7149  -18.8689 O   0  0  0  0  0  0  0  0  0  0  0  0
   24.2275  -32.4062  -19.0486 C   0  0  0  0  0  0  0  0  0  0  0  0
   24.6781  -31.1033  -18.9595 C   0  0  0  0  0  0  0  0  0  0  0  0
   26.0219  -30.8401  -19.1465 C   0  0  0  0  0  0  0  0  0  0  0  0
   26.9457  -31.8110  -19.4192 C   0  0  0  0  0  0  0  0  0  0  0  0
   28.3957  -31.5492  -19.6207 C   0  0  0  0  0  0  0  0  0  0  0  0
   29.0949  -31.3256  -18.2811 C   0  0  2  0  0  0  0  0  0  0  0  0
   30.5341  -31.1307  -18.5552 N   0  0  0  0  0  0  0  0  0  0  0  0
   28.9892  -32.5882  -17.5138 C   0  0  0  0  0  0  0  0  0  0  0  0
   29.7328  -33.5741  -17.8976 O   0  0  0  0  0  0  0  0  0  0  0  0
   26.4999  -33.1101  -19.5086 C   0  0  0  0  0  0  0  0  0  0  0  0
   25.1502  -33.3981  -19.3237 C   0  0  0  0  0  0  0  0  0  0  0  0
   28.1665  -32.8423  -16.4010 N   0  0  0  0  0  0  0  0  0  0  0  0
   27.2626  -31.8403  -15.8072 C   0  0  0  0  0  0  0  0  0  0  0  0
   27.2916  -32.2753  -14.3448 C   0  0  0  0  0  0  0  0  0  0  0  0
   27.0514  -33.7604  -14.5200 C   0  0  0  0  0  0  0  0  0  0  0  0
   28.0510  -34.0672  -15.6612 C   0  0  1  0  0  0  0  0  0  0  0  0
   27.4144  -35.1494  -16.4401 C   0  0  0  0  0  0  0  0  0  0  0  0
   26.8568  -34.9029  -17.6751 O   0  0  0  0  0  0  0  0  0  0  0  0
   27.3812  -36.3040  -15.9726 O   0  0  0  0  0  0  0  0  0  0  0  0
  2  1  1  6
  2  3  1  0
  3  4  1  0
  4  8  1  0
  5  4  2  0
  5  6  1  0
  6  7  1  0
  8  7  2  0
  9 18  1  0
  9  2  1  0
 10  9  2  0
 12 11  1  0
 13 12  2  0
 14 13  1  0
 15 14  2  0
 15 21  1  0
 17 16  1  6
 16 15  1  0
 17 18  1  0
 19 17  1  0
 20 19  2  0
 21 22  2  0
 22 12  1  0
 23 27  1  0
 23 19  1  0
 24 23  1  0
 25 26  1  0
 25 24  1  0
 26 27  1  0
 27 28  1  6
 28 30  2  0
 28 29  1  0
M  END
$$$$
