QWP.pdb
     RDKit          3D

 31 33  0  0  1  0  0  0  0  0999 V2000
   14.6320  -18.0301   18.4500 N   0  0  0  0  0  0  0  0  0  0  0  0
   14.3681  -18.9743   19.5007 C   0  0  0  0  0  0  0  0  0  0  0  0
   15.3639  -19.5973   19.9248 O   0  0  0  0  0  0  0  0  0  0  0  0
   13.0270  -19.1980   20.0381 C   0  0  0  0  0  0  0  0  0  0  0  0
   12.6224  -18.3402   21.1951 C   0  0  0  0  0  0  0  0  0  0  0  0
   11.1502  -18.1690   21.2586 C   0  0  2  0  0  0  0  0  0  0  0  0
   10.4615  -17.9888   20.0345 N   0  0  0  0  0  0  0  0  0  0  0  0
   10.7495  -17.0990   22.2184 C   0  0  0  0  0  0  0  0  0  0  0  0
   11.2530  -15.9626   22.0642 O   0  0  0  0  0  0  0  0  0  0  0  0
    9.8382  -17.3385   23.2680 N   0  0  0  0  0  0  0  0  0  0  0  0
    9.5531  -16.2102   24.2202 C   0  0  1  0  0  0  0  0  0  0  0  0
    8.0591  -16.0069   24.1788 C   0  0  0  0  0  0  0  0  0  0  0  0
    7.5981  -14.6392   24.0019 C   0  0  0  0  0  0  0  0  0  0  0  0
    7.5607  -13.8615   22.8534 C   0  0  0  0  0  0  0  0  0  0  0  0
    7.0731  -12.6493   23.1449 N   0  0  0  0  0  0  0  0  0  0  0  0
    6.7699  -12.5627   24.4647 C   0  0  0  0  0  0  0  0  0  0  0  0
    6.2525  -11.5466   25.2347 C   0  0  0  0  0  0  0  0  0  0  0  0
    6.0602  -11.7854   26.5738 C   0  0  0  0  0  0  0  0  0  0  0  0
    6.3723  -13.0100   27.1537 C   0  0  0  0  0  0  0  0  0  0  0  0
    6.8872  -14.0054   26.3607 C   0  0  0  0  0  0  0  0  0  0  0  0
    7.0947  -13.8005   25.0058 C   0  0  0  0  0  0  0  0  0  0  0  0
    9.9722  -16.6811   25.5509 C   0  0  0  0  0  0  0  0  0  0  0  0
   10.2810  -17.9429   25.6522 O   0  0  0  0  0  0  0  0  0  0  0  0
   10.0961  -15.9647   26.7414 N   0  0  0  0  0  0  0  0  0  0  0  0
    9.3907  -14.7082   27.0586 C   0  0  0  0  0  0  0  0  0  0  0  0
   10.1743  -14.0366   28.1461 C   0  0  0  0  0  0  0  0  0  0  0  0
   11.3617  -14.9348   28.4205 C   0  0  0  0  0  0  0  0  0  0  0  0
   10.8368  -16.2676   27.9215 C   0  0  1  0  0  0  0  0  0  0  0  0
    9.9410  -16.7666   29.0193 C   0  0  0  0  0  0  0  0  0  0  0  0
   10.3761  -17.0975   30.1413 O   0  0  0  0  0  0  0  0  0  0  0  0
    8.5853  -16.8544   28.7535 O   0  0  0  0  0  0  0  0  0  0  0  0
  2  1  1  0
  3  2  2  0
  4  2  1  0
  5  4  1  0
  6  5  1  0
  6  7  1  6
  8  6  1  0
  8  9  2  0
 10  8  1  0
 11 10  1  0
 11 12  1  1
 13 12  1  0
 13 14  2  0
 15 14  1  0
 16 21  2  0
 16 15  1  0
 17 16  1  0
 18 19  1  0
 18 17  2  0
 19 20  2  0
 20 21  1  0
 21 13  1  0
 22 11  1  0
 23 22  2  0
 24 22  1  0
 24 25  1  0
 26 25  1  0
 27 28  1  0
 27 26  1  0
 28 24  1  0
 28 29  1  1
 30 29  2  0
 31 29  1  0
M  END
$$$$
