QWP.pdb
     RDKit          3D

 31 33  0  0  1  0  0  0  0  0999 V2000
   14.0082  -20.2138   22.3817 N   0  0  0  0  0  0  0  0  0  0  0  0
   14.5973  -18.9345   22.0959 C   0  0  0  0  0  0  0  0  0  0  0  0
   15.8192  -18.8408   22.3364 O   0  0  0  0  0  0  0  0  0  0  0  0
   13.8237  -17.8140   21.5637 C   0  0  0  0  0  0  0  0  0  0  0  0
   12.4031  -18.1028   21.1937 C   0  0  0  0  0  0  0  0  0  0  0  0
   11.7014  -16.8811   20.7288 C   0  0  2  0  0  0  0  0  0  0  0  0
   12.3953  -16.0318   19.8331 N   0  0  0  0  0  0  0  0  0  0  0  0
   11.1631  -16.0757   21.8638 C   0  0  0  0  0  0  0  0  0  0  0  0
   11.7669  -15.0204   22.1646 O   0  0  0  0  0  0  0  0  0  0  0  0
   10.0170  -16.4715   22.5846 N   0  0  0  0  0  0  0  0  0  0  0  0
    9.5463  -15.5783   23.6989 C   0  0  1  0  0  0  0  0  0  0  0  0
    8.0442  -15.5240   23.5735 C   0  0  0  0  0  0  0  0  0  0  0  0
    7.3245  -14.9244   24.6857 C   0  0  0  0  0  0  0  0  0  0  0  0
    6.6828  -15.5345   25.7539 C   0  0  0  0  0  0  0  0  0  0  0  0
    6.1331  -14.6025   26.5422 N   0  0  0  0  0  0  0  0  0  0  0  0
    6.3752  -13.3607   26.0517 C   0  0  0  0  0  0  0  0  0  0  0  0
    6.0283  -12.1039   26.4911 C   0  0  0  0  0  0  0  0  0  0  0  0
    6.4391  -11.0241   25.7477 C   0  0  0  0  0  0  0  0  0  0  0  0
    7.1837  -11.1747   24.5832 C   0  0  0  0  0  0  0  0  0  0  0  0
    7.5151  -12.4408   24.1690 C   0  0  0  0  0  0  0  0  0  0  0  0
    7.1181  -13.5536   24.8935 C   0  0  0  0  0  0  0  0  0  0  0  0
    9.9348  -16.2468   24.9520 C   0  0  0  0  0  0  0  0  0  0  0  0
   10.2732  -17.5019   24.8625 O   0  0  0  0  0  0  0  0  0  0  0  0
   10.0019  -15.7272   26.2448 N   0  0  0  0  0  0  0  0  0  0  0  0
    9.2653  -14.5437   26.7281 C   0  0  0  0  0  0  0  0  0  0  0  0
    9.9961  -14.0458   27.9387 C   0  0  0  0  0  0  0  0  0  0  0  0
   11.1860  -14.9650   28.1152 C   0  0  0  0  0  0  0  0  0  0  0  0
   10.7015  -16.2066   27.3910 C   0  0  1  0  0  0  0  0  0  0  0  0
    9.7723  -16.8818   28.3591 C   0  0  0  0  0  0  0  0  0  0  0  0
   10.0975  -17.1305   29.5381 O   0  0  0  0  0  0  0  0  0  0  0  0
    8.5128  -17.2324   27.9039 O   0  0  0  0  0  0  0  0  0  0  0  0
  2  1  1  0
  3  2  2  0
  4  2  1  0
  5  4  1  0
  6  5  1  0
  6  7  1  1
  8  6  1  0
  8  9  2  0
 10  8  1  0
 11 10  1  0
 11 12  1  1
 13 12  1  0
 13 14  2  0
 15 14  1  0
 16 21  2  0
 16 15  1  0
 17 16  1  0
 18 19  1  0
 18 17  2  0
 19 20  2  0
 20 21  1  0
 21 13  1  0
 22 11  1  0
 23 22  2  0
 24 22  1  0
 24 25  1  0
 26 25  1  0
 27 28  1  0
 27 26  1  0
 28 24  1  0
 28 29  1  1
 30 29  2  0
 31 29  1  0
M  END
$$$$
