QWP.pdb
     RDKit          3D

 31 33  0  0  1  0  0  0  0  0999 V2000
    8.8446  -12.4548   18.2064 N   0  0  0  0  0  0  0  0  0  0  0  0
    8.6522  -13.8177   17.7932 C   0  0  0  0  0  0  0  0  0  0  0  0
    8.7952  -14.0332   16.5714 O   0  0  0  0  0  0  0  0  0  0  0  0
    8.3084  -14.8831   18.7334 C   0  0  0  0  0  0  0  0  0  0  0  0
    8.3476  -14.5266   20.1859 C   0  0  0  0  0  0  0  0  0  0  0  0
    9.2472  -15.4297   20.9450 C   0  0  2  0  0  0  0  0  0  0  0  0
    9.0260  -16.8230   20.8236 N   0  0  0  0  0  0  0  0  0  0  0  0
    9.3257  -15.0612   22.3889 C   0  0  0  0  0  0  0  0  0  0  0  0
    9.7720  -13.9266   22.6751 O   0  0  0  0  0  0  0  0  0  0  0  0
    8.9171  -15.9448   23.4097 N   0  0  0  0  0  0  0  0  0  0  0  0
    8.9493  -15.4422   24.8265 C   0  0  1  0  0  0  0  0  0  0  0  0
    7.7157  -16.0038   25.4884 C   0  0  0  0  0  0  0  0  0  0  0  0
    6.6091  -15.0804   25.6811 C   0  0  0  0  0  0  0  0  0  0  0  0
    5.2461  -15.3342   25.7342 C   0  0  0  0  0  0  0  0  0  0  0  0
    4.5799  -14.1868   25.9127 N   0  0  0  0  0  0  0  0  0  0  0  0
    5.4423  -13.1418   25.9856 C   0  0  0  0  0  0  0  0  0  0  0  0
    5.2522  -11.7903   26.1595 C   0  0  0  0  0  0  0  0  0  0  0  0
    6.3619  -10.9809   26.1889 C   0  0  0  0  0  0  0  0  0  0  0  0
    7.6474  -11.4919   26.0489 C   0  0  0  0  0  0  0  0  0  0  0  0
    7.8066  -12.8445   25.8767 C   0  0  0  0  0  0  0  0  0  0  0  0
    6.7102  -13.6916   25.8420 C   0  0  0  0  0  0  0  0  0  0  0  0
   10.1640  -16.0097   25.4352 C   0  0  0  0  0  0  0  0  0  0  0  0
   10.9392  -16.7041   24.6511 O   0  0  0  0  0  0  0  0  0  0  0  0
   10.6218  -15.9093   26.7490 N   0  0  0  0  0  0  0  0  0  0  0  0
    9.9213  -15.2143   27.8460 C   0  0  0  0  0  0  0  0  0  0  0  0
   10.9533  -14.9037   28.8881 C   0  0  0  0  0  0  0  0  0  0  0  0
   12.2675  -15.4187   28.3405 C   0  0  0  0  0  0  0  0  0  0  0  0
   11.7802  -16.4706   27.3623 C   0  0  1  0  0  0  0  0  0  0  0  0
   11.4303  -17.6582   28.2132 C   0  0  0  0  0  0  0  0  0  0  0  0
   12.2935  -18.3298   28.8144 O   0  0  0  0  0  0  0  0  0  0  0  0
   10.0935  -18.0019   28.3197 O   0  0  0  0  0  0  0  0  0  0  0  0
  2  1  1  0
  3  2  2  0
  4  2  1  0
  5  4  1  0
  6  5  1  0
  6  7  1  1
  8  6  1  0
  8  9  2  0
 10  8  1  0
 11 10  1  0
 11 12  1  1
 13 12  1  0
 13 14  2  0
 15 14  1  0
 16 21  2  0
 16 15  1  0
 17 16  1  0
 18 19  1  0
 18 17  2  0
 19 20  2  0
 20 21  1  0
 21 13  1  0
 22 11  1  0
 23 22  2  0
 24 22  1  0
 24 25  1  0
 26 25  1  0
 27 28  1  0
 27 26  1  0
 28 24  1  0
 28 29  1  1
 30 29  2  0
 31 29  1  0
M  END
$$$$
