QWP.pdb
     RDKit          3D

 31 33  0  0  1  0  0  0  0  0999 V2000
   15.3135  -18.4384   20.9750 N   0  0  0  0  0  0  0  0  0  0  0  0
   14.2345  -18.7192   21.8817 C   0  0  0  0  0  0  0  0  0  0  0  0
   14.5370  -19.4077   22.8787 O   0  0  0  0  0  0  0  0  0  0  0  0
   12.8726  -18.2381   21.6560 C   0  0  0  0  0  0  0  0  0  0  0  0
   12.6799  -17.3025   20.5045 C   0  0  0  0  0  0  0  0  0  0  0  0
   11.2708  -16.8507   20.3987 C   0  0  2  0  0  0  0  0  0  0  0  0
   10.8967  -16.1521   19.2253 N   0  0  0  0  0  0  0  0  0  0  0  0
   10.8367  -16.0778   21.5990 C   0  0  0  0  0  0  0  0  0  0  0  0
   11.3888  -14.9735   21.8094 O   0  0  0  0  0  0  0  0  0  0  0  0
    9.8420  -16.5564   22.4774 N   0  0  0  0  0  0  0  0  0  0  0  0
    9.4144  -15.6609   23.6070 C   0  0  1  0  0  0  0  0  0  0  0  0
    7.9072  -15.6277   23.5553 C   0  0  0  0  0  0  0  0  0  0  0  0
    7.2345  -15.0397   24.7026 C   0  0  0  0  0  0  0  0  0  0  0  0
    6.6005  -15.6615   25.7687 C   0  0  0  0  0  0  0  0  0  0  0  0
    6.1000  -14.7370   26.5975 N   0  0  0  0  0  0  0  0  0  0  0  0
    6.3687  -13.4891   26.1372 C   0  0  0  0  0  0  0  0  0  0  0  0
    6.0724  -12.2360   26.6217 C   0  0  0  0  0  0  0  0  0  0  0  0
    6.4983  -11.1476   25.8997 C   0  0  0  0  0  0  0  0  0  0  0  0
    7.2089  -11.2861   24.7127 C   0  0  0  0  0  0  0  0  0  0  0  0
    7.4901  -12.5489   24.2535 C   0  0  0  0  0  0  0  0  0  0  0  0
    7.0764  -13.6701   24.9553 C   0  0  0  0  0  0  0  0  0  0  0  0
    9.8730  -16.3144   24.8442 C   0  0  0  0  0  0  0  0  0  0  0  0
   10.2524  -17.5567   24.7412 O   0  0  0  0  0  0  0  0  0  0  0  0
    9.9696  -15.7921   26.1341 N   0  0  0  0  0  0  0  0  0  0  0  0
    9.2324  -14.6168   26.6363 C   0  0  0  0  0  0  0  0  0  0  0  0
    9.9905  -14.1082   27.8255 C   0  0  0  0  0  0  0  0  0  0  0  0
   11.1960  -15.0126   27.9699 C   0  0  0  0  0  0  0  0  0  0  0  0
   10.7067  -16.2611   27.2609 C   0  0  1  0  0  0  0  0  0  0  0  0
    9.8130  -16.9461   28.2553 C   0  0  0  0  0  0  0  0  0  0  0  0
   10.2293  -17.3615   29.3561 O   0  0  0  0  0  0  0  0  0  0  0  0
    8.4811  -17.1118   27.9161 O   0  0  0  0  0  0  0  0  0  0  0  0
  2  1  1  0
  3  2  2  0
  4  2  1  0
  5  4  1  0
  6  5  1  0
  6  7  1  6
  8  6  1  0
  8  9  2  0
 10  8  1  0
 11 10  1  0
 11 12  1  1
 13 12  1  0
 13 14  2  0
 15 14  1  0
 16 21  2  0
 16 15  1  0
 17 16  1  0
 18 19  1  0
 18 17  2  0
 19 20  2  0
 20 21  1  0
 21 13  1  0
 22 11  1  0
 23 22  2  0
 24 22  1  0
 24 25  1  0
 26 25  1  0
 27 28  1  0
 27 26  1  0
 28 24  1  0
 28 29  1  1
 30 29  2  0
 31 29  1  0
M  END
$$$$
