QWP.pdb
     RDKit          3D

 31 33  0  0  1  0  0  0  0  0999 V2000
    8.1230  -12.9627   17.1955 N   0  0  0  0  0  0  0  0  0  0  0  0
    8.5064  -14.3215   16.9274 C   0  0  0  0  0  0  0  0  0  0  0  0
    8.1787  -14.7599   15.8049 O   0  0  0  0  0  0  0  0  0  0  0  0
    9.2272  -15.1414   17.8998 C   0  0  0  0  0  0  0  0  0  0  0  0
    9.6478  -14.4592   19.1632 C   0  0  0  0  0  0  0  0  0  0  0  0
   10.2725  -15.4106   20.1148 C   0  0  2  0  0  0  0  0  0  0  0  0
    9.9144  -16.7759   20.0011 N   0  0  0  0  0  0  0  0  0  0  0  0
   10.1179  -14.9709   21.5323 C   0  0  0  0  0  0  0  0  0  0  0  0
   10.4265  -13.7893   21.8105 O   0  0  0  0  0  0  0  0  0  0  0  0
    9.6433  -15.8393   22.5374 N   0  0  0  0  0  0  0  0  0  0  0  0
    9.2413  -15.2345   23.8541 C   0  0  1  0  0  0  0  0  0  0  0  0
    7.7338  -15.2794   23.8822 C   0  0  0  0  0  0  0  0  0  0  0  0
    7.0987  -14.8731   25.1256 C   0  0  0  0  0  0  0  0  0  0  0  0
    6.5256  -15.6524   26.1202 C   0  0  0  0  0  0  0  0  0  0  0  0
    6.0413  -14.8645   27.0880 N   0  0  0  0  0  0  0  0  0  0  0  0
    6.2619  -13.5584   26.7940 C   0  0  0  0  0  0  0  0  0  0  0  0
    5.9592  -12.3921   27.4582 C   0  0  0  0  0  0  0  0  0  0  0  0
    6.3291  -11.2036   26.8768 C   0  0  0  0  0  0  0  0  0  0  0  0
    6.9903  -11.1583   25.6545 C   0  0  0  0  0  0  0  0  0  0  0  0
    7.2792  -12.3380   25.0146 C   0  0  0  0  0  0  0  0  0  0  0  0
    6.9214  -13.5559   25.5710 C   0  0  0  0  0  0  0  0  0  0  0  0
    9.8022  -16.1109   24.8959 C   0  0  0  0  0  0  0  0  0  0  0  0
   10.1225  -17.3199   24.5304 O   0  0  0  0  0  0  0  0  0  0  0  0
   10.0523  -15.8347   26.2402 N   0  0  0  0  0  0  0  0  0  0  0  0
    9.3967  -14.7749   27.0300 C   0  0  0  0  0  0  0  0  0  0  0  0
   10.2924  -14.4912   28.1982 C   0  0  0  0  0  0  0  0  0  0  0  0
   11.4907  -15.4021   28.0362 C   0  0  0  0  0  0  0  0  0  0  0  0
   10.9034  -16.5005   27.1705 C   0  0  1  0  0  0  0  0  0  0  0  0
   10.1156  -17.3604   28.1175 C   0  0  0  0  0  0  0  0  0  0  0  0
    8.8707  -17.4381   28.0749 O   0  0  0  0  0  0  0  0  0  0  0  0
   10.8185  -18.0850   29.0648 O   0  0  0  0  0  0  0  0  0  0  0  0
  2  1  1  0
  3  2  2  0
  4  2  1  0
  5  4  1  0
  6  5  1  0
  6  7  1  1
  8  6  1  0
  8  9  2  0
 10  8  1  0
 11 10  1  0
 11 12  1  6
 13 12  1  0
 13 14  2  0
 15 14  1  0
 16 21  2  0
 16 15  1  0
 17 16  1  0
 18 19  1  0
 18 17  2  0
 19 20  2  0
 20 21  1  0
 21 13  1  0
 22 11  1  0
 23 22  2  0
 24 22  1  0
 24 25  1  0
 26 25  1  0
 27 28  1  0
 27 26  1  0
 28 24  1  0
 28 29  1  1
 30 29  2  0
 31 29  1  0
M  END
$$$$
