QWP.pdb
     RDKit          3D

 31 33  0  0  1  0  0  0  0  0999 V2000
   12.0887  -20.3217   21.9467 N   0  0  0  0  0  0  0  0  0  0  0  0
   12.9559  -20.1028   20.8218 C   0  0  0  0  0  0  0  0  0  0  0  0
   13.2365  -21.1206   20.1547 O   0  0  0  0  0  0  0  0  0  0  0  0
   13.4805  -18.7820   20.4789 C   0  0  0  0  0  0  0  0  0  0  0  0
   13.0228  -17.6423   21.3332 C   0  0  0  0  0  0  0  0  0  0  0  0
   11.7203  -17.1030   20.8709 C   0  0  2  0  0  0  0  0  0  0  0  0
   11.6927  -16.4558   19.6118 N   0  0  0  0  0  0  0  0  0  0  0  0
   11.0786  -16.2282   21.8954 C   0  0  0  0  0  0  0  0  0  0  0  0
   11.5021  -15.0546   22.0042 O   0  0  0  0  0  0  0  0  0  0  0  0
   10.0315  -16.6877   22.7214 N   0  0  0  0  0  0  0  0  0  0  0  0
    9.5343  -15.7666   23.8009 C   0  0  1  0  0  0  0  0  0  0  0  0
    8.0402  -15.6830   23.6120 C   0  0  0  0  0  0  0  0  0  0  0  0
    7.2756  -15.1614   24.7335 C   0  0  0  0  0  0  0  0  0  0  0  0
    6.4851  -15.8355   25.6531 C   0  0  0  0  0  0  0  0  0  0  0  0
    5.9489  -14.9616   26.5138 N   0  0  0  0  0  0  0  0  0  0  0  0
    6.3450  -13.6979   26.2182 C   0  0  0  0  0  0  0  0  0  0  0  0
    6.0714  -12.4791   26.7952 C   0  0  0  0  0  0  0  0  0  0  0  0
    6.6441  -11.3599   26.2415 C   0  0  0  0  0  0  0  0  0  0  0  0
    7.4782  -11.4343   25.1316 C   0  0  0  0  0  0  0  0  0  0  0  0
    7.7333  -12.6639   24.5771 C   0  0  0  0  0  0  0  0  0  0  0  0
    7.1731  -13.8147   25.1086 C   0  0  0  0  0  0  0  0  0  0  0  0
    9.8560  -16.4224   25.0794 C   0  0  0  0  0  0  0  0  0  0  0  0
   10.2092  -17.6751   25.0194 O   0  0  0  0  0  0  0  0  0  0  0  0
    9.8447  -15.8927   26.3698 N   0  0  0  0  0  0  0  0  0  0  0  0
    9.0284  -14.7470   26.8149 C   0  0  0  0  0  0  0  0  0  0  0  0
    9.6838  -14.2043   28.0492 C   0  0  0  0  0  0  0  0  0  0  0  0
   10.9126  -15.0582   28.2791 C   0  0  0  0  0  0  0  0  0  0  0  0
   10.5230  -16.3278   27.5461 C   0  0  1  0  0  0  0  0  0  0  0  0
    9.5933  -17.0458   28.4824 C   0  0  0  0  0  0  0  0  0  0  0  0
    8.3890  -17.2365   28.2161 O   0  0  0  0  0  0  0  0  0  0  0  0
   10.1143  -17.5045   29.6802 O   0  0  0  0  0  0  0  0  0  0  0  0
  2  1  1  0
  3  2  2  0
  4  2  1  0
  5  4  1  0
  6  5  1  0
  6  7  1  6
  8  6  1  0
  8  9  2  0
 10  8  1  0
 11 10  1  0
 11 12  1  6
 13 12  1  0
 13 14  2  0
 15 14  1  0
 16 21  2  0
 16 15  1  0
 17 16  1  0
 18 19  1  0
 18 17  2  0
 19 20  2  0
 20 21  1  0
 21 13  1  0
 22 11  1  0
 23 22  2  0
 24 22  1  0
 24 25  1  0
 26 25  1  0
 27 28  1  0
 27 26  1  0
 28 24  1  0
 28 29  1  1
 30 29  2  0
 31 29  1  0
M  END
$$$$
