QWP.pdb
     RDKit          3D

 31 33  0  0  1  0  0  0  0  0999 V2000
   14.1494  -19.7917   22.3435 N   0  0  0  0  0  0  0  0  0  0  0  0
   14.0845  -19.5042   20.9370 C   0  0  0  0  0  0  0  0  0  0  0  0
   14.7186  -20.2875   20.1995 O   0  0  0  0  0  0  0  0  0  0  0  0
   13.3326  -18.3712   20.4001 C   0  0  0  0  0  0  0  0  0  0  0  0
   12.6940  -17.4620   21.4020 C   0  0  0  0  0  0  0  0  0  0  0  0
   11.3499  -17.0186   20.9573 C   0  0  2  0  0  0  0  0  0  0  0  0
   11.2577  -16.3823   19.6956 N   0  0  0  0  0  0  0  0  0  0  0  0
   10.6634  -16.1853   21.9874 C   0  0  0  0  0  0  0  0  0  0  0  0
   10.9804  -14.9760   22.0613 O   0  0  0  0  0  0  0  0  0  0  0  0
    9.6900  -16.7216   22.8560 N   0  0  0  0  0  0  0  0  0  0  0  0
    9.1952  -15.8508   23.9777 C   0  0  1  0  0  0  0  0  0  0  0  0
    7.8033  -16.3395   24.2921 C   0  0  0  0  0  0  0  0  0  0  0  0
    6.9355  -15.4085   24.9956 C   0  0  0  0  0  0  0  0  0  0  0  0
    5.8049  -15.6602   25.7594 C   0  0  0  0  0  0  0  0  0  0  0  0
    5.3006  -14.5061   26.2129 N   0  0  0  0  0  0  0  0  0  0  0  0
    6.0497  -13.4584   25.7857 C   0  0  0  0  0  0  0  0  0  0  0  0
    5.9447  -12.1004   25.9799 C   0  0  0  0  0  0  0  0  0  0  0  0
    6.8882  -11.2901   25.3963 C   0  0  0  0  0  0  0  0  0  0  0  0
    7.9261  -11.8065   24.6286 C   0  0  0  0  0  0  0  0  0  0  0  0
    8.0056  -13.1656   24.4521 C   0  0  0  0  0  0  0  0  0  0  0  0
    7.0717  -14.0138   25.0257 C   0  0  0  0  0  0  0  0  0  0  0  0
   10.0968  -16.0967   25.1156 C   0  0  0  0  0  0  0  0  0  0  0  0
   11.0975  -16.9036   24.9028 O   0  0  0  0  0  0  0  0  0  0  0  0
   10.0431  -15.5816   26.4108 N   0  0  0  0  0  0  0  0  0  0  0  0
    8.9097  -14.8309   26.9843 C   0  0  0  0  0  0  0  0  0  0  0  0
    9.4530  -14.0470   28.1410 C   0  0  0  0  0  0  0  0  0  0  0  0
   10.9348  -14.3528   28.1932 C   0  0  0  0  0  0  0  0  0  0  0  0
   10.9784  -15.6916   27.4813 C   0  0  1  0  0  0  0  0  0  0  0  0
   10.5242  -16.6906   28.5072 C   0  0  0  0  0  0  0  0  0  0  0  0
   11.1665  -16.9168   29.5531 O   0  0  0  0  0  0  0  0  0  0  0  0
    9.3457  -17.3742   28.2617 O   0  0  0  0  0  0  0  0  0  0  0  0
  2  1  1  0
  3  2  2  0
  4  2  1  0
  5  4  1  0
  6  5  1  0
  6  7  1  6
  8  6  1  0
  8  9  2  0
 10  8  1  0
 11 10  1  0
 11 12  1  1
 13 12  1  0
 13 14  2  0
 15 14  1  0
 16 21  2  0
 16 15  1  0
 17 16  1  0
 18 19  1  0
 18 17  2  0
 19 20  2  0
 20 21  1  0
 21 13  1  0
 22 11  1  0
 23 22  2  0
 24 22  1  0
 24 25  1  0
 26 25  1  0
 27 28  1  0
 27 26  1  0
 28 24  1  0
 28 29  1  1
 30 29  2  0
 31 29  1  0
M  END
$$$$
