QWP.pdb
     RDKit          3D

 31 33  0  0  1  0  0  0  0  0999 V2000
   12.5096  -16.3234   16.6566 N   0  0  0  0  0  0  0  0  0  0  0  0
   11.1243  -16.2508   17.0322 C   0  0  0  0  0  0  0  0  0  0  0  0
   10.3133  -16.2006   16.0838 O   0  0  0  0  0  0  0  0  0  0  0  0
   10.6880  -16.2325   18.4273 C   0  0  0  0  0  0  0  0  0  0  0  0
   11.7678  -16.2637   19.4624 C   0  0  0  0  0  0  0  0  0  0  0  0
   11.3778  -17.0879   20.6327 C   0  0  2  0  0  0  0  0  0  0  0  0
   10.4847  -18.1628   20.4044 N   0  0  0  0  0  0  0  0  0  0  0  0
   10.8769  -16.2552   21.7650 C   0  0  0  0  0  0  0  0  0  0  0  0
   11.3696  -15.1126   21.9078 O   0  0  0  0  0  0  0  0  0  0  0  0
    9.8848  -16.7198   22.6536 N   0  0  0  0  0  0  0  0  0  0  0  0
    9.4588  -15.8058   23.7690 C   0  0  1  0  0  0  0  0  0  0  0  0
    7.9524  -15.7590   23.7076 C   0  0  0  0  0  0  0  0  0  0  0  0
    7.2787  -15.1435   24.8397 C   0  0  0  0  0  0  0  0  0  0  0  0
    6.6425  -15.7392   25.9192 C   0  0  0  0  0  0  0  0  0  0  0  0
    6.1419  -14.7949   26.7254 N   0  0  0  0  0  0  0  0  0  0  0  0
    6.4128  -13.5586   26.2363 C   0  0  0  0  0  0  0  0  0  0  0  0
    6.1173  -12.2940   26.6907 C   0  0  0  0  0  0  0  0  0  0  0  0
    6.5456  -11.2234   25.9440 C   0  0  0  0  0  0  0  0  0  0  0  0
    7.2577  -11.3906   24.7615 C   0  0  0  0  0  0  0  0  0  0  0  0
    7.5380  -12.6642   24.3326 C   0  0  0  0  0  0  0  0  0  0  0  0
    7.1220  -13.7681   25.0599 C   0  0  0  0  0  0  0  0  0  0  0  0
    9.9038  -16.4476   25.0173 C   0  0  0  0  0  0  0  0  0  0  0  0
   10.3491  -17.6682   24.9187 O   0  0  0  0  0  0  0  0  0  0  0  0
    9.9260  -15.9339   26.3140 N   0  0  0  0  0  0  0  0  0  0  0  0
    9.0949  -14.8176   26.8040 C   0  0  0  0  0  0  0  0  0  0  0  0
    9.7806  -14.2710   28.0199 C   0  0  0  0  0  0  0  0  0  0  0  0
   11.0409  -15.0917   28.1927 C   0  0  0  0  0  0  0  0  0  0  0  0
   10.6602  -16.3632   27.4583 C   0  0  1  0  0  0  0  0  0  0  0  0
    9.7871  -17.1188   28.4193 C   0  0  0  0  0  0  0  0  0  0  0  0
    8.5886  -17.3714   28.1799 O   0  0  0  0  0  0  0  0  0  0  0  0
   10.3551  -17.5411   29.6091 O   0  0  0  0  0  0  0  0  0  0  0  0
  2  1  1  0
  3  2  2  0
  4  2  1  0
  5  4  1  0
  6  5  1  0
  6  7  1  6
  8  6  1  0
  8  9  2  0
 10  8  1  0
 11 10  1  0
 11 12  1  1
 13 12  1  0
 13 14  2  0
 15 14  1  0
 16 21  2  0
 16 15  1  0
 17 16  1  0
 18 19  1  0
 18 17  2  0
 19 20  2  0
 20 21  1  0
 21 13  1  0
 22 11  1  0
 23 22  2  0
 24 22  1  0
 24 25  1  0
 26 25  1  0
 27 28  1  0
 27 26  1  0
 28 24  1  0
 28 29  1  1
 30 29  2  0
 31 29  1  0
M  END
$$$$
