QWP.pdb
     RDKit          3D

 31 33  0  0  1  0  0  0  0  0999 V2000
   12.7822  -20.9469   21.5688 N   0  0  0  0  0  0  0  0  0  0  0  0
   13.6937  -19.8801   21.2582 C   0  0  0  0  0  0  0  0  0  0  0  0
   14.8972  -20.2061   21.1879 O   0  0  0  0  0  0  0  0  0  0  0  0
   13.2492  -18.5042   21.0422 C   0  0  0  0  0  0  0  0  0  0  0  0
   11.7730  -18.2665   21.0925 C   0  0  0  0  0  0  0  0  0  0  0  0
   11.4308  -16.8766   20.7027 C   0  0  2  0  0  0  0  0  0  0  0  0
   12.4122  -16.1362   20.0000 N   0  0  0  0  0  0  0  0  0  0  0  0
   10.9342  -16.0746   21.8590 C   0  0  0  0  0  0  0  0  0  0  0  0
   11.6805  -15.1718   22.3026 O   0  0  0  0  0  0  0  0  0  0  0  0
    9.6730  -16.3092   22.4454 N   0  0  0  0  0  0  0  0  0  0  0  0
    9.2979  -15.4934   23.6515 C   0  0  1  0  0  0  0  0  0  0  0  0
    7.7914  -15.4175   23.6423 C   0  0  0  0  0  0  0  0  0  0  0  0
    7.1660  -14.8518   24.8270 C   0  0  0  0  0  0  0  0  0  0  0  0
    6.5275  -15.4919   25.8795 C   0  0  0  0  0  0  0  0  0  0  0  0
    6.0820  -14.5838   26.7564 N   0  0  0  0  0  0  0  0  0  0  0  0
    6.3935  -13.3295   26.3429 C   0  0  0  0  0  0  0  0  0  0  0  0
    6.1590  -12.0870   26.8852 C   0  0  0  0  0  0  0  0  0  0  0  0
    6.6159  -10.9872   26.2003 C   0  0  0  0  0  0  0  0  0  0  0  0
    7.2969  -11.1041   24.9938 C   0  0  0  0  0  0  0  0  0  0  0  0
    7.5164  -12.3567   24.4767 C   0  0  0  0  0  0  0  0  0  0  0  0
    7.0701  -13.4889   25.1398 C   0  0  0  0  0  0  0  0  0  0  0  0
    9.7683  -16.2526   24.8222 C   0  0  0  0  0  0  0  0  0  0  0  0
   10.1084  -17.4931   24.6144 O   0  0  0  0  0  0  0  0  0  0  0  0
    9.9126  -15.8340   26.1450 N   0  0  0  0  0  0  0  0  0  0  0  0
    9.2446  -14.6648   26.7479 C   0  0  0  0  0  0  0  0  0  0  0  0
   10.0471  -14.2851   27.9559 C   0  0  0  0  0  0  0  0  0  0  0  0
   11.2072  -15.2562   28.0084 C   0  0  0  0  0  0  0  0  0  0  0  0
   10.6435  -16.4222   27.2188 C   0  0  1  0  0  0  0  0  0  0  0  0
    9.7327  -17.1350   28.1776 C   0  0  0  0  0  0  0  0  0  0  0  0
    8.4994  -17.2091   28.0014 O   0  0  0  0  0  0  0  0  0  0  0  0
   10.3055  -17.7244   29.2915 O   0  0  0  0  0  0  0  0  0  0  0  0
  2  1  1  0
  3  2  2  0
  4  2  1  0
  5  4  1  0
  6  5  1  0
  6  7  1  1
  8  6  1  0
  8  9  2  0
 10  8  1  0
 11 10  1  0
 11 12  1  1
 13 12  1  0
 13 14  2  0
 15 14  1  0
 16 21  2  0
 16 15  1  0
 17 16  1  0
 18 19  1  0
 18 17  2  0
 19 20  2  0
 20 21  1  0
 21 13  1  0
 22 11  1  0
 23 22  2  0
 24 22  1  0
 24 25  1  0
 26 25  1  0
 27 28  1  0
 27 26  1  0
 28 24  1  0
 28 29  1  1
 30 29  2  0
 31 29  1  0
M  END
$$$$
