QWP.pdb
     RDKit          3D

 31 33  0  0  1  0  0  0  0  0999 V2000
   10.8287  -21.8962   22.0366 N   0  0  0  0  0  0  0  0  0  0  0  0
    9.6032  -21.6802   21.3177 C   0  0  0  0  0  0  0  0  0  0  0  0
    9.6770  -21.8165   20.0785 O   0  0  0  0  0  0  0  0  0  0  0  0
    8.3531  -21.3211   21.9851 C   0  0  0  0  0  0  0  0  0  0  0  0
    8.4006  -21.2211   23.4771 C   0  0  0  0  0  0  0  0  0  0  0  0
    7.1231  -20.7082   24.0303 C   0  0  2  0  0  0  0  0  0  0  0  0
    5.9353  -21.3867   23.6645 N   0  0  0  0  0  0  0  0  0  0  0  0
    6.9549  -19.2447   23.7925 C   0  0  0  0  0  0  0  0  0  0  0  0
    6.1326  -18.8895   22.9172 O   0  0  0  0  0  0  0  0  0  0  0  0
    7.6863  -18.2802   24.5169 N   0  0  0  0  0  0  0  0  0  0  0  0
    7.5629  -16.8429   24.0929 C   0  0  1  0  0  0  0  0  0  0  0  0
    8.0206  -16.0263   25.2757 C   0  0  0  0  0  0  0  0  0  0  0  0
    7.0931  -15.0173   25.7616 C   0  0  0  0  0  0  0  0  0  0  0  0
    5.7525  -15.1389   26.0979 C   0  0  0  0  0  0  0  0  0  0  0  0
    5.2751  -13.9501   26.4864 N   0  0  0  0  0  0  0  0  0  0  0  0
    6.2470  -13.0049   26.4298 C   0  0  0  0  0  0  0  0  0  0  0  0
    6.2539  -11.6602   26.7212 C   0  0  0  0  0  0  0  0  0  0  0  0
    7.4296  -10.9696   26.5539 C   0  0  0  0  0  0  0  0  0  0  0  0
    8.5891  -11.5916   26.1045 C   0  0  0  0  0  0  0  0  0  0  0  0
    8.5524  -12.9344   25.8215 C   0  0  0  0  0  0  0  0  0  0  0  0
    7.3842  -13.6634   25.9785 C   0  0  0  0  0  0  0  0  0  0  0  0
    8.4860  -16.6693   22.9590 C   0  0  0  0  0  0  0  0  0  0  0  0
    9.3579  -17.6184   22.7665 O   0  0  0  0  0  0  0  0  0  0  0  0
    8.5657  -15.6243   22.0385 N   0  0  0  0  0  0  0  0  0  0  0  0
    7.9245  -14.3040   22.1886 C   0  0  0  0  0  0  0  0  0  0  0  0
    7.8225  -13.7154   20.8136 C   0  0  0  0  0  0  0  0  0  0  0  0
    8.4006  -14.7508   19.8725 C   0  0  0  0  0  0  0  0  0  0  0  0
    9.2948  -15.5317   20.8166 C   0  0  1  0  0  0  0  0  0  0  0  0
   10.5253  -14.6845   20.9741 C   0  0  0  0  0  0  0  0  0  0  0  0
   11.3040  -14.4507   20.0272 O   0  0  0  0  0  0  0  0  0  0  0  0
   10.7850  -14.1536   22.2260 O   0  0  0  0  0  0  0  0  0  0  0  0
  2  1  1  0
  3  2  2  0
  4  2  1  0
  5  4  1  0
  6  5  1  0
  6  7  1  6
  8  6  1  0
  8  9  2  0
 10  8  1  0
 11 10  1  0
 11 12  1  1
 13 12  1  0
 13 14  2  0
 15 14  1  0
 16 21  2  0
 16 15  1  0
 17 16  1  0
 18 19  1  0
 18 17  2  0
 19 20  2  0
 20 21  1  0
 21 13  1  0
 22 11  1  0
 23 22  2  0
 24 22  1  0
 24 25  1  0
 26 25  1  0
 27 28  1  0
 27 26  1  0
 28 24  1  0
 28 29  1  1
 30 29  2  0
 31 29  1  0
M  END
$$$$
