CRK.pdb
     RDKit          3D

 27 26  0  0  1  0  0  0  0  0999 V2000
    5.6505  -18.0093   24.6970 N   0  0  0  0  0  0  0  0  0  0  0  0
    6.4333  -16.8557   24.3117 C   0  0  1  0  0  0  0  0  0  0  0  0
    6.5866  -15.9736   25.5401 C   0  0  0  0  0  0  0  0  0  0  0  0
    7.1837  -14.3423   25.0094 S   0  0  0  0  0  0  0  0  0  0  0  0
    7.7680  -17.2663   23.8381 C   0  0  0  0  0  0  0  0  0  0  0  0
    8.4500  -18.0642   24.5119 O   0  0  0  0  0  0  0  0  0  0  0  0
    8.7741  -12.7448   20.3129 N   0  0  0  0  0  0  0  0  0  0  0  0
    7.9363  -13.2490   19.2934 C   0  0  0  0  0  0  0  0  0  0  0  0
    6.7790  -12.7191   18.9975 N   0  0  0  0  0  0  0  0  0  0  0  0
    8.3516  -14.3926   18.5345 N   0  0  0  0  0  0  0  0  0  0  0  0
    9.5200  -15.1578   18.8695 C   0  0  0  0  0  0  0  0  0  0  0  0
    9.4791  -15.4824   20.3394 C   0  0  0  0  0  0  0  0  0  0  0  0
    9.5235  -16.9729   20.6017 C   0  0  0  0  0  0  0  0  0  0  0  0
    9.5600  -17.1302   22.1261 C   0  0  2  0  0  0  0  0  0  0  0  0
    8.2635  -16.7462   22.6152 N   0  0  0  0  0  0  0  0  0  0  0  0
   10.5961  -16.2584   22.7066 C   0  0  0  0  0  0  0  0  0  0  0  0
   10.2171  -15.2766   23.4091 O   0  0  0  0  0  0  0  0  0  0  0  0
    6.1939  -13.1436   18.2437 N   0  0  0  0  0  0  0  0  0  0  0  0
   11.9658  -16.4329   22.5406 C   0  0  1  0  0  0  0  0  0  0  0  0
   12.9340  -16.4241   23.7069 C   0  0  0  0  0  0  0  0  0  0  0  0
   12.4108  -17.3615   24.7031 C   0  0  0  0  0  0  0  0  0  0  0  0
   13.1395  -17.8061   25.8664 C   0  0  0  0  0  0  0  0  0  0  0  0
   12.6131  -18.8129   26.8229 C   0  0  0  0  0  0  0  0  0  0  0  0
   13.5925  -19.2659   27.8769 N   0  0  0  0  0  0  0  0  0  0  0  0
   13.0065  -20.2222   28.7613 C   0  0  0  0  0  0  0  0  0  0  0  0
   14.2683  -16.5501   23.1494 O   0  0  0  0  0  0  0  0  0  0  0  0
   15.2006  -15.7197   23.5151 O   0  0  0  0  0  0  0  0  0  0  0  0
  2  5  1  0
  2  1  1  1
  3  2  1  0
  4  3  1  0
  5  6  2  0
  8 10  1  0
  8  7  1  0
  9  8  2  0
 11 10  1  0
 11 12  1  0
 13 12  1  0
 14 13  1  6
 15 14  1  0
 15  5  1  0
 16 17  2  0
 16 14  1  0
 18 16  1  0
 19 18  1  0
 19 25  1  0
 19 20  1  1
 21 20  1  0
 22 21  1  0
 23 22  1  0
 23 24  1  0
 25 27  1  0
 26 25  2  0
M  END
$$$$
