CRK.pdb
     RDKit          3D

 27 26  0  0  1  0  0  0  0  0999 V2000
   15.0699  -14.0455   17.6420 N   0  0  0  0  0  0  0  0  0  0  0  0
   13.7171  -14.5572   17.6537 C   0  0  1  0  0  0  0  0  0  0  0  0
   13.7818  -16.0341   17.3001 C   0  0  0  0  0  0  0  0  0  0  0  0
   14.1444  -16.1886   15.5269 S   0  0  0  0  0  0  0  0  0  0  0  0
   13.1132  -14.4031   18.9900 C   0  0  0  0  0  0  0  0  0  0  0  0
   13.8176  -14.5343   20.0110 O   0  0  0  0  0  0  0  0  0  0  0  0
    8.1449  -13.3970   15.8551 N   0  0  0  0  0  0  0  0  0  0  0  0
    7.3978  -14.4645   16.4010 C   0  0  0  0  0  0  0  0  0  0  0  0
    6.9597  -15.4652   15.6838 N   0  0  0  0  0  0  0  0  0  0  0  0
    7.0933  -14.4738   17.8022 N   0  0  0  0  0  0  0  0  0  0  0  0
    7.7080  -13.5673   18.7312 C   0  0  0  0  0  0  0  0  0  0  0  0
    9.1003  -14.0557   19.0326 C   0  0  0  0  0  0  0  0  0  0  0  0
    9.7570  -13.2713   20.1487 C   0  0  0  0  0  0  0  0  0  0  0  0
   11.1157  -13.9395   20.3885 C   0  0  2  0  0  0  0  0  0  0  0  0
   11.7308  -14.1058   19.0994 N   0  0  0  0  0  0  0  0  0  0  0  0
   10.9349  -15.2514   21.0337 C   0  0  0  0  0  0  0  0  0  0  0  0
   10.7360  -16.2544   20.2884 O   0  0  0  0  0  0  0  0  0  0  0  0
    6.5651  -16.3075   16.1587 N   0  0  0  0  0  0  0  0  0  0  0  0
   10.9661  -15.4730   22.4063 C   0  0  1  0  0  0  0  0  0  0  0  0
   10.9607  -16.8653   23.0057 C   0  0  0  0  0  0  0  0  0  0  0  0
   12.2689  -17.4583   22.7195 C   0  0  0  0  0  0  0  0  0  0  0  0
   12.5014  -18.4811   21.7287 C   0  0  0  0  0  0  0  0  0  0  0  0
   13.8450  -19.0416   21.4350 C   0  0  0  0  0  0  0  0  0  0  0  0
   13.8682  -20.1332   20.3942 N   0  0  0  0  0  0  0  0  0  0  0  0
   15.1932  -20.6183   20.1721 C   0  0  0  0  0  0  0  0  0  0  0  0
   10.4445  -16.7417   24.3567 O   0  0  0  0  0  0  0  0  0  0  0  0
   10.3979  -17.7890   25.1271 O   0  0  0  0  0  0  0  0  0  0  0  0
  2  5  1  0
  2  1  1  1
  3  2  1  0
  4  3  1  0
  5  6  2  0
  8 10  1  0
  8  7  1  0
  9  8  2  0
 11 10  1  0
 11 12  1  0
 13 12  1  0
 14 13  1  6
 15 14  1  0
 15  5  1  0
 16 17  2  0
 16 14  1  0
 18 16  1  0
 19 18  1  0
 19 25  1  0
 19 20  1  1
 21 20  1  0
 22 21  1  0
 23 22  1  0
 23 24  1  0
 25 27  1  0
 26 25  2  0
M  END
$$$$
