CRK.pdb
     RDKit          3D

 27 26  0  0  1  0  0  0  0  0999 V2000
    6.9484  -20.4716   21.4839 N   0  0  0  0  0  0  0  0  0  0  0  0
    6.7241  -19.2781   22.2697 C   0  0  1  0  0  0  0  0  0  0  0  0
    6.5735  -19.7053   23.7206 C   0  0  0  0  0  0  0  0  0  0  0  0
    5.0070  -20.6076   23.8979 S   0  0  0  0  0  0  0  0  0  0  0  0
    7.8668  -18.3537   22.1510 C   0  0  0  0  0  0  0  0  0  0  0  0
    9.0193  -18.8044   21.9952 O   0  0  0  0  0  0  0  0  0  0  0  0
    9.5901  -13.5232   18.0747 N   0  0  0  0  0  0  0  0  0  0  0  0
    8.2632  -13.5466   17.5908 C   0  0  0  0  0  0  0  0  0  0  0  0
    7.9689  -13.7396   16.3323 N   0  0  0  0  0  0  0  0  0  0  0  0
    7.1724  -13.3525   18.5011 N   0  0  0  0  0  0  0  0  0  0  0  0
    7.3563  -13.2961   19.9245 C   0  0  0  0  0  0  0  0  0  0  0  0
    8.0207  -14.5697   20.3761 C   0  0  0  0  0  0  0  0  0  0  0  0
    8.1518  -14.6484   21.8824 C   0  0  0  0  0  0  0  0  0  0  0  0
    8.7421  -16.0313   22.1809 C   0  0  2  0  0  0  0  0  0  0  0  0
    7.6407  -16.9551   22.2156 N   0  0  0  0  0  0  0  0  0  0  0  0
    9.4343  -16.0232   23.4813 C   0  0  0  0  0  0  0  0  0  0  0  0
    8.7715  -16.3575   24.5060 O   0  0  0  0  0  0  0  0  0  0  0  0
    6.9682  -13.7899   16.0375 N   0  0  0  0  0  0  0  0  0  0  0  0
   10.7674  -15.6746   23.6698 C   0  0  1  0  0  0  0  0  0  0  0  0
   11.4429  -15.7460   25.0249 C   0  0  0  0  0  0  0  0  0  0  0  0
   10.5105  -15.1717   25.9974 C   0  0  0  0  0  0  0  0  0  0  0  0
   10.6724  -15.2531   27.4289 C   0  0  0  0  0  0  0  0  0  0  0  0
    9.7493  -14.6011   28.3924 C   0  0  0  0  0  0  0  0  0  0  0  0
   10.1217  -14.7654   29.8449 N   0  0  0  0  0  0  0  0  0  0  0  0
    9.2212  -14.0603   30.7004 C   0  0  0  0  0  0  0  0  0  0  0  0
   11.9755  -17.0893   25.1613 O   0  0  0  0  0  0  0  0  0  0  0  0
   13.2350  -17.2580   25.4401 O   0  0  0  0  0  0  0  0  0  0  0  0
  2  5  1  0
  2  1  1  6
  3  2  1  0
  4  3  1  0
  5  6  2  0
  8 10  1  0
  8  7  1  0
  9  8  2  0
 11 10  1  0
 11 12  1  0
 13 12  1  0
 14 13  1  1
 15 14  1  0
 15  5  1  0
 16 17  2  0
 16 14  1  0
 18 16  1  0
 19 18  1  0
 19 25  1  0
 19 20  1  6
 21 20  1  0
 22 21  1  0
 23 22  1  0
 23 24  1  0
 25 27  1  0
 26 25  2  0
M  END
$$$$
