CRK.pdb
     RDKit          3D

 27 26  0  0  1  0  0  0  0  0999 V2000
    5.9263  -17.7730   26.3135 N   0  0  0  0  0  0  0  0  0  0  0  0
    6.1819  -16.4358   25.8249 C   0  0  1  0  0  0  0  0  0  0  0  0
    6.7412  -15.6234   26.9814 C   0  0  0  0  0  0  0  0  0  0  0  0
    6.8408  -13.8831   26.4705 S   0  0  0  0  0  0  0  0  0  0  0  0
    7.1664  -16.4613   24.7275 C   0  0  0  0  0  0  0  0  0  0  0  0
    8.0766  -17.3141   24.7267 O   0  0  0  0  0  0  0  0  0  0  0  0
    7.6513  -12.7689   16.5326 N   0  0  0  0  0  0  0  0  0  0  0  0
    8.2818  -14.0164   16.7365 C   0  0  0  0  0  0  0  0  0  0  0  0
    8.7135  -14.7634   15.7549 N   0  0  0  0  0  0  0  0  0  0  0  0
    8.4685  -14.5076   18.0707 N   0  0  0  0  0  0  0  0  0  0  0  0
    8.0618  -13.7641   19.2303 C   0  0  0  0  0  0  0  0  0  0  0  0
    8.5471  -14.4847   20.4603 C   0  0  0  0  0  0  0  0  0  0  0  0
    7.5126  -14.4984   21.5658 C   0  0  0  0  0  0  0  0  0  0  0  0
    8.0328  -15.4871   22.6154 C   0  0  2  0  0  0  0  0  0  0  0  0
    7.0663  -15.5107   23.6799 N   0  0  0  0  0  0  0  0  0  0  0  0
    9.3403  -15.0459   23.1314 C   0  0  0  0  0  0  0  0  0  0  0  0
    9.3582  -14.0781   23.9463 O   0  0  0  0  0  0  0  0  0  0  0  0
    9.1174  -15.7043   15.9607 N   0  0  0  0  0  0  0  0  0  0  0  0
   10.5625  -15.6147   22.7897 C   0  0  2  0  0  0  0  0  0  0  0  0
   11.7567  -15.5979   23.7231 C   0  0  0  0  0  0  0  0  0  0  0  0
   11.2914  -16.0931   25.0205 C   0  0  0  0  0  0  0  0  0  0  0  0
   11.5704  -15.4557   26.2846 C   0  0  0  0  0  0  0  0  0  0  0  0
   11.0306  -15.9419   27.5798 C   0  0  0  0  0  0  0  0  0  0  0  0
   11.3824  -15.0943   28.7770 N   0  0  0  0  0  0  0  0  0  0  0  0
   10.8240  -15.6266   29.9791 C   0  0  0  0  0  0  0  0  0  0  0  0
   12.8601  -16.2136   23.0088 O   0  0  0  0  0  0  0  0  0  0  0  0
   14.0835  -15.8883   23.3087 O   0  0  0  0  0  0  0  0  0  0  0  0
  2  5  1  0
  2  1  1  1
  3  2  1  0
  4  3  1  0
  5  6  2  0
  8 10  1  0
  8  7  1  0
  9  8  2  0
 11 10  1  0
 11 12  1  0
 13 12  1  0
 14 13  1  6
 15 14  1  0
 15  5  1  0
 16 17  2  0
 16 14  1  0
 18 16  1  0
 19 18  1  0
 19 25  1  0
 19 20  1  1
 21 20  1  0
 22 21  1  0
 23 22  1  0
 23 24  1  0
 25 27  1  0
 26 25  2  0
M  END
$$$$
