CRK.pdb
     RDKit          3D

 27 26  0  0  1  0  0  0  0  0999 V2000
    8.1500  -12.3537   18.8217 N   0  0  0  0  0  0  0  0  0  0  0  0
    7.3237  -13.2091   19.6448 C   0  0  1  0  0  0  0  0  0  0  0  0
    6.9486  -14.4243   18.8123 C   0  0  0  0  0  0  0  0  0  0  0  0
    8.4501  -15.3985   18.5026 S   0  0  0  0  0  0  0  0  0  0  0  0
    8.0613  -13.6495   20.8432 C   0  0  0  0  0  0  0  0  0  0  0  0
    9.2964  -13.4883   20.9090 O   0  0  0  0  0  0  0  0  0  0  0  0
    7.2564  -20.3434   26.6821 N   0  0  0  0  0  0  0  0  0  0  0  0
    8.0427  -19.1703   26.6490 C   0  0  0  0  0  0  0  0  0  0  0  0
    9.3212  -19.1637   26.9191 N   0  0  0  0  0  0  0  0  0  0  0  0
    7.4344  -17.9177   26.3065 N   0  0  0  0  0  0  0  0  0  0  0  0
    7.6317  -17.2876   25.0310 C   0  0  0  0  0  0  0  0  0  0  0  0
    7.6914  -15.7966   25.2335 C   0  0  0  0  0  0  0  0  0  0  0  0
    6.9771  -15.0370   24.1356 C   0  0  0  0  0  0  0  0  0  0  0  0
    8.0473  -14.7059   23.0893 C   0  0  2  0  0  0  0  0  0  0  0  0
    7.3539  -14.2546   21.9131 N   0  0  0  0  0  0  0  0  0  0  0  0
    8.8453  -15.9038   22.7754 C   0  0  0  0  0  0  0  0  0  0  0  0
    8.2719  -16.8531   22.1661 O   0  0  0  0  0  0  0  0  0  0  0  0
    9.8572  -18.2692   26.8606 N   0  0  0  0  0  0  0  0  0  0  0  0
   10.1872  -16.0721   23.0993 C   0  0  1  0  0  0  0  0  0  0  0  0
   10.9342  -17.3626   22.8263 C   0  0  0  0  0  0  0  0  0  0  0  0
   11.8176  -17.1112   21.6855 C   0  0  0  0  0  0  0  0  0  0  0  0
   11.6063  -17.6378   20.3588 C   0  0  0  0  0  0  0  0  0  0  0  0
   12.4571  -17.2813   19.1949 C   0  0  0  0  0  0  0  0  0  0  0  0
   11.9734  -17.8055   17.8657 N   0  0  0  0  0  0  0  0  0  0  0  0
   12.8619  -17.4483   16.8060 C   0  0  0  0  0  0  0  0  0  0  0  0
   11.4334  -17.8401   24.1028 O   0  0  0  0  0  0  0  0  0  0  0  0
   12.5022  -17.3059   24.6174 O   0  0  0  0  0  0  0  0  0  0  0  0
  2  5  1  0
  2  1  1  6
  3  2  1  0
  4  3  1  0
  5  6  2  0
  8 10  1  0
  8  7  1  0
  9  8  2  0
 11 10  1  0
 11 12  1  0
 13 12  1  0
 14 13  1  1
 15 14  1  0
 15  5  1  0
 16 17  2  0
 16 14  1  0
 18 16  1  0
 19 18  1  0
 19 25  1  0
 19 20  1  1
 21 20  1  0
 22 21  1  0
 23 22  1  0
 23 24  1  0
 25 27  1  0
 26 25  2  0
M  END
$$$$
