CRK.pdb
     RDKit          3D

 27 26  0  0  1  0  0  0  0  0999 V2000
    7.6575  -12.5021   18.5456 N   0  0  0  0  0  0  0  0  0  0  0  0
    7.7998  -13.9255   18.3316 C   0  0  1  0  0  0  0  0  0  0  0  0
    9.0353  -14.1395   17.4724 C   0  0  0  0  0  0  0  0  0  0  0  0
   10.4946  -13.6129   18.4171 S   0  0  0  0  0  0  0  0  0  0  0  0
    7.9720  -14.6307   19.6151 C   0  0  0  0  0  0  0  0  0  0  0  0
    8.5042  -14.0468   20.5803 O   0  0  0  0  0  0  0  0  0  0  0  0
    6.9705  -19.2256   16.6997 N   0  0  0  0  0  0  0  0  0  0  0  0
    7.5468  -20.4189   17.1892 C   0  0  0  0  0  0  0  0  0  0  0  0
    8.2788  -21.2100   16.4502 N   0  0  0  0  0  0  0  0  0  0  0  0
    7.3339  -20.8017   18.5546 N   0  0  0  0  0  0  0  0  0  0  0  0
    6.5847  -19.9924   19.4747 C   0  0  0  0  0  0  0  0  0  0  0  0
    7.3954  -18.7690   19.8120 C   0  0  0  0  0  0  0  0  0  0  0  0
    6.7350  -17.9148   20.8735 C   0  0  0  0  0  0  0  0  0  0  0  0
    7.6021  -16.6571   20.9999 C   0  0  2  0  0  0  0  0  0  0  0  0
    7.5281  -15.9720   19.7378 N   0  0  0  0  0  0  0  0  0  0  0  0
    8.9984  -17.0246   21.2928 C   0  0  0  0  0  0  0  0  0  0  0  0
    9.7085  -17.4567   20.3388 O   0  0  0  0  0  0  0  0  0  0  0  0
    8.7106  -22.0608   16.8749 N   0  0  0  0  0  0  0  0  0  0  0  0
    9.5987  -16.9324   22.5438 C   0  0  1  0  0  0  0  0  0  0  0  0
   11.1036  -16.9281   22.7255 C   0  0  0  0  0  0  0  0  0  0  0  0
   11.6376  -15.8916   21.8392 C   0  0  0  0  0  0  0  0  0  0  0  0
   12.9011  -15.9810   21.1483 C   0  0  0  0  0  0  0  0  0  0  0  0
   13.3103  -15.0428   20.0722 C   0  0  0  0  0  0  0  0  0  0  0  0
   14.6439  -15.3444   19.4349 N   0  0  0  0  0  0  0  0  0  0  0  0
   14.9263  -14.4475   18.3597 C   0  0  0  0  0  0  0  0  0  0  0  0
   11.3567  -16.9317   24.1548 O   0  0  0  0  0  0  0  0  0  0  0  0
   10.3850  -16.6784   24.9819 O   0  0  0  0  0  0  0  0  0  0  0  0
  2  5  1  0
  2  1  1  1
  3  2  1  0
  4  3  1  0
  5  6  2  0
  8 10  1  0
  8  7  1  0
  9  8  2  0
 11 10  1  0
 11 12  1  0
 13 12  1  0
 14 13  1  6
 15 14  1  0
 15  5  1  0
 16 17  2  0
 16 14  1  0
 18 16  1  0
 19 18  1  0
 19 25  1  0
 19 20  1  1
 21 20  1  0
 22 21  1  0
 23 22  1  0
 23 24  1  0
 25 27  1  0
 26 25  2  0
M  END
$$$$
