CRK.pdb
     RDKit          3D

 27 26  0  0  1  0  0  0  0  0999 V2000
    7.7979  -14.4161   17.5888 N   0  0  0  0  0  0  0  0  0  0  0  0
    8.6635  -14.1135   18.7074 C   0  0  1  0  0  0  0  0  0  0  0  0
    8.1140  -12.8718   19.3904 C   0  0  0  0  0  0  0  0  0  0  0  0
    8.8943  -11.4098   18.6467 S   0  0  0  0  0  0  0  0  0  0  0  0
    8.6809  -15.2305   19.6698 C   0  0  0  0  0  0  0  0  0  0  0  0
    7.6387  -15.8794   19.8903 O   0  0  0  0  0  0  0  0  0  0  0  0
    9.6800  -19.1927   17.3114 N   0  0  0  0  0  0  0  0  0  0  0  0
   10.8783  -19.9202   17.4860 C   0  0  0  0  0  0  0  0  0  0  0  0
   10.9654  -21.2072   17.2769 N   0  0  0  0  0  0  0  0  0  0  0  0
   12.0664  -19.2391   17.9112 N   0  0  0  0  0  0  0  0  0  0  0  0
   12.2564  -18.7900   19.2622 C   0  0  0  0  0  0  0  0  0  0  0  0
   11.0695  -17.9552   19.6647 C   0  0  0  0  0  0  0  0  0  0  0  0
   11.1987  -17.4105   21.0714 C   0  0  0  0  0  0  0  0  0  0  0  0
    9.9233  -16.5991   21.3264 C   0  0  2  0  0  0  0  0  0  0  0  0
    9.8891  -15.5559   20.3373 N   0  0  0  0  0  0  0  0  0  0  0  0
    9.9507  -16.0122   22.6773 C   0  0  0  0  0  0  0  0  0  0  0  0
   11.0060  -15.4169   23.0420 O   0  0  0  0  0  0  0  0  0  0  0  0
   11.8575  -21.7063   17.4908 N   0  0  0  0  0  0  0  0  0  0  0  0
    8.9001  -16.0627   23.5871 C   0  0  1  0  0  0  0  0  0  0  0  0
    8.9480  -15.3520   24.9252 C   0  0  0  0  0  0  0  0  0  0  0  0
    7.7507  -14.5125   25.0057 C   0  0  0  0  0  0  0  0  0  0  0  0
    7.4630  -13.6040   26.0892 C   0  0  0  0  0  0  0  0  0  0  0  0
    6.2554  -12.7406   26.1307 C   0  0  0  0  0  0  0  0  0  0  0  0
    6.1882  -11.7922   27.3018 N   0  0  0  0  0  0  0  0  0  0  0  0
    5.0913  -10.8854   27.1803 C   0  0  0  0  0  0  0  0  0  0  0  0
    9.2595  -16.3561   25.9260 O   0  0  0  0  0  0  0  0  0  0  0  0
    8.9603  -17.6025   25.7033 O   0  0  0  0  0  0  0  0  0  0  0  0
  2  5  1  0
  2  1  1  6
  3  2  1  0
  4  3  1  0
  5  6  2  0
  8 10  1  0
  8  7  1  0
  9  8  2  0
 11 10  1  0
 11 12  1  0
 13 12  1  0
 14 13  1  6
 15 14  1  0
 15  5  1  0
 16 17  2  0
 16 14  1  0
 18 16  1  0
 19 18  1  0
 19 25  1  0
 19 20  1  6
 21 20  1  0
 22 21  1  0
 23 22  1  0
 23 24  1  0
 25 27  1  0
 26 25  2  0
M  END
$$$$
