CRK.pdb
     RDKit          3D

 27 26  0  0  1  0  0  0  0  0999 V2000
   16.3645  -16.0537   14.7015 N   0  0  0  0  0  0  0  0  0  0  0  0
   15.6402  -16.9520   15.5736 C   0  0  1  0  0  0  0  0  0  0  0  0
   16.6204  -18.0046   16.0651 C   0  0  0  0  0  0  0  0  0  0  0  0
   15.8226  -18.9668   17.3830 S   0  0  0  0  0  0  0  0  0  0  0  0
   15.0887  -16.2230   16.7306 C   0  0  0  0  0  0  0  0  0  0  0  0
   15.8259  -15.4780   17.4067 O   0  0  0  0  0  0  0  0  0  0  0  0
    6.7539  -13.7324   19.0149 N   0  0  0  0  0  0  0  0  0  0  0  0
    7.7336  -13.0040   19.7256 C   0  0  0  0  0  0  0  0  0  0  0  0
    7.4412  -12.0119   20.5244 N   0  0  0  0  0  0  0  0  0  0  0  0
    9.1179  -13.3489   19.5814 N   0  0  0  0  0  0  0  0  0  0  0  0
    9.5875  -14.2439   18.5610 C   0  0  0  0  0  0  0  0  0  0  0  0
   11.0411  -14.5448   18.8146 C   0  0  0  0  0  0  0  0  0  0  0  0
   11.6288  -15.4699   17.7700 C   0  0  0  0  0  0  0  0  0  0  0  0
   13.1210  -15.5840   18.1019 C   0  0  2  0  0  0  0  0  0  0  0  0
   13.7188  -16.3785   17.0631 N   0  0  0  0  0  0  0  0  0  0  0  0
   13.3067  -16.2398   19.4080 C   0  0  0  0  0  0  0  0  0  0  0  0
   13.0208  -17.4691   19.4983 O   0  0  0  0  0  0  0  0  0  0  0  0
    8.2101  -11.4734   20.9823 N   0  0  0  0  0  0  0  0  0  0  0  0
   13.7747  -15.6080   20.5551 C   0  0  2  0  0  0  0  0  0  0  0  0
   13.9202  -16.3304   21.8797 C   0  0  0  0  0  0  0  0  0  0  0  0
   15.0958  -15.7664   22.5466 C   0  0  0  0  0  0  0  0  0  0  0  0
   16.1797  -16.5493   23.0891 C   0  0  0  0  0  0  0  0  0  0  0  0
   17.3826  -15.9495   23.7205 C   0  0  0  0  0  0  0  0  0  0  0  0
   18.4048  -16.9412   24.2175 N   0  0  0  0  0  0  0  0  0  0  0  0
   19.5816  -16.2872   24.6947 C   0  0  0  0  0  0  0  0  0  0  0  0
   12.6082  -16.3428   22.5006 O   0  0  0  0  0  0  0  0  0  0  0  0
   11.7907  -15.3510   22.2995 O   0  0  0  0  0  0  0  0  0  0  0  0
  2  5  1  0
  2  1  1  6
  3  2  1  0
  4  3  1  0
  5  6  2  0
  8 10  1  0
  8  7  1  0
  9  8  2  0
 11 10  1  0
 11 12  1  0
 13 12  1  0
 14 13  1  6
 15 14  1  0
 15  5  1  0
 16 17  2  0
 16 14  1  0
 18 16  1  0
 19 18  1  0
 19 25  1  0
 19 20  1  6
 21 20  1  0
 22 21  1  0
 23 22  1  0
 23 24  1  0
 25 27  1  0
 26 25  2  0
M  END
$$$$
