CRK.pdb
     RDKit          3D

 27 26  0  0  1  0  0  0  0  0999 V2000
   11.2518  -18.8378   18.7038 N   0  0  0  0  0  0  0  0  0  0  0  0
   10.2336  -19.0110   19.7165 C   0  0  1  0  0  0  0  0  0  0  0  0
   10.3108  -20.4486   20.2042 C   0  0  0  0  0  0  0  0  0  0  0  0
    9.1587  -21.4541   19.2239 S   0  0  0  0  0  0  0  0  0  0  0  0
   10.4673  -18.0992   20.8516 C   0  0  0  0  0  0  0  0  0  0  0  0
   11.6126  -17.9825   21.3315 O   0  0  0  0  0  0  0  0  0  0  0  0
    8.6001  -11.7381   19.9542 N   0  0  0  0  0  0  0  0  0  0  0  0
    8.1484  -12.7394   19.0660 C   0  0  0  0  0  0  0  0  0  0  0  0
    8.4331  -12.7393   17.7906 N   0  0  0  0  0  0  0  0  0  0  0  0
    7.3397  -13.8150   19.5613 N   0  0  0  0  0  0  0  0  0  0  0  0
    7.1760  -14.0740   20.9645 C   0  0  0  0  0  0  0  0  0  0  0  0
    8.4944  -14.5356   21.5271 C   0  0  0  0  0  0  0  0  0  0  0  0
    8.3257  -15.5951   22.5954 C   0  0  0  0  0  0  0  0  0  0  0  0
    9.5732  -16.4816   22.5083 C   0  0  2  0  0  0  0  0  0  0  0  0
    9.3810  -17.3615   21.3873 N   0  0  0  0  0  0  0  0  0  0  0  0
    9.7309  -17.2673   23.7445 C   0  0  0  0  0  0  0  0  0  0  0  0
    8.7306  -17.9204   24.1616 O   0  0  0  0  0  0  0  0  0  0  0  0
    8.1160  -13.5330   17.1903 N   0  0  0  0  0  0  0  0  0  0  0  0
   10.9010  -17.3465   24.4920 C   0  0  1  0  0  0  0  0  0  0  0  0
   11.0221  -18.2230   25.7227 C   0  0  0  0  0  0  0  0  0  0  0  0
   11.9534  -19.3026   25.3878 C   0  0  0  0  0  0  0  0  0  0  0  0
   12.3075  -20.3802   26.2797 C   0  0  0  0  0  0  0  0  0  0  0  0
   13.2440  -21.4715   25.9088 C   0  0  0  0  0  0  0  0  0  0  0  0
   13.5061  -22.4850   26.9948 N   0  0  0  0  0  0  0  0  0  0  0  0
   14.3552  -23.5379   26.5360 C   0  0  0  0  0  0  0  0  0  0  0  0
   11.2360  -17.3375   26.8527 O   0  0  0  0  0  0  0  0  0  0  0  0
   11.5292  -16.0871   26.6452 O   0  0  0  0  0  0  0  0  0  0  0  0
  2  5  1  0
  2  1  1  6
  3  2  1  0
  4  3  1  0
  5  6  2  0
  8 10  1  0
  8  7  1  0
  9  8  2  0
 11 10  1  0
 11 12  1  0
 13 12  1  0
 14 13  1  1
 15 14  1  0
 15  5  1  0
 16 17  2  0
 16 14  1  0
 18 16  1  0
 19 18  1  0
 19 25  1  0
 19 20  1  1
 21 20  1  0
 22 21  1  0
 23 22  1  0
 23 24  1  0
 25 27  1  0
 26 25  2  0
M  END
$$$$
