CRK.pdb
     RDKit          3D

 27 26  0  0  1  0  0  0  0  0999 V2000
   12.0235  -19.2404   16.8172 N   0  0  0  0  0  0  0  0  0  0  0  0
   13.1243  -20.1711   16.9367 C   0  0  1  0  0  0  0  0  0  0  0  0
   14.4012  -19.3575   17.0700 C   0  0  0  0  0  0  0  0  0  0  0  0
   14.2697  -18.3140   18.5510 S   0  0  0  0  0  0  0  0  0  0  0  0
   12.9615  -21.0200   18.1313 C   0  0  0  0  0  0  0  0  0  0  0  0
   11.9921  -20.8412   18.8954 O   0  0  0  0  0  0  0  0  0  0  0  0
   16.1041  -26.7405   15.9434 N   0  0  0  0  0  0  0  0  0  0  0  0
   14.7145  -26.8669   15.7228 C   0  0  0  0  0  0  0  0  0  0  0  0
   14.1961  -27.0395   14.5358 N   0  0  0  0  0  0  0  0  0  0  0  0
   13.8112  -26.8065   16.8348 N   0  0  0  0  0  0  0  0  0  0  0  0
   14.2452  -26.4791   18.1643 C   0  0  0  0  0  0  0  0  0  0  0  0
   13.5718  -25.2015   18.5909 C   0  0  0  0  0  0  0  0  0  0  0  0
   14.5487  -24.2018   19.1728 C   0  0  0  0  0  0  0  0  0  0  0  0
   13.7261  -22.9488   19.4937 C   0  0  2  0  0  0  0  0  0  0  0  0
   13.9145  -22.0356   18.3990 N   0  0  0  0  0  0  0  0  0  0  0  0
   14.1951  -22.3352   20.7483 C   0  0  0  0  0  0  0  0  0  0  0  0
   15.1412  -21.4979   20.6793 O   0  0  0  0  0  0  0  0  0  0  0  0
   13.1621  -27.1458   14.4340 N   0  0  0  0  0  0  0  0  0  0  0  0
   13.6748  -22.6073   22.0090 C   0  0  2  0  0  0  0  0  0  0  0  0
   14.1774  -21.9185   23.2622 C   0  0  0  0  0  0  0  0  0  0  0  0
   13.0172  -21.7168   24.1330 C   0  0  0  0  0  0  0  0  0  0  0  0
   13.0783  -21.1319   25.4506 C   0  0  0  0  0  0  0  0  0  0  0  0
   11.8851  -20.9404   26.3139 C   0  0  0  0  0  0  0  0  0  0  0  0
   12.1788  -20.4494   27.7097 N   0  0  0  0  0  0  0  0  0  0  0  0
   10.9945  -20.3933   28.5062 C   0  0  0  0  0  0  0  0  0  0  0  0
   15.3573  -22.6428   23.6983 O   0  0  0  0  0  0  0  0  0  0  0  0
   15.5189  -23.8842   23.3440 O   0  0  0  0  0  0  0  0  0  0  0  0
  2  5  1  0
  2  1  1  1
  3  2  1  0
  4  3  1  0
  5  6  2  0
  8 10  1  0
  8  7  1  0
  9  8  2  0
 11 10  1  0
 11 12  1  0
 13 12  1  0
 14 13  1  6
 15 14  1  0
 15  5  1  0
 16 17  2  0
 16 14  1  0
 18 16  1  0
 19 18  1  0
 19 25  1  0
 19 20  1  6
 21 20  1  0
 22 21  1  0
 23 22  1  0
 23 24  1  0
 25 27  1  0
 26 25  2  0
M  END
$$$$
