CRK.pdb
     RDKit          3D

 27 26  0  0  1  0  0  0  0  0999 V2000
    7.7103  -16.8412   27.7706 N   0  0  0  0  0  0  0  0  0  0  0  0
    7.7758  -15.6403   26.9672 C   0  0  1  0  0  0  0  0  0  0  0  0
    8.9496  -14.8154   27.4692 C   0  0  0  0  0  0  0  0  0  0  0  0
    8.3907  -13.8110   28.8757 S   0  0  0  0  0  0  0  0  0  0  0  0
    7.9883  -15.9745   25.5469 C   0  0  0  0  0  0  0  0  0  0  0  0
    8.3304  -17.1294   25.2230 O   0  0  0  0  0  0  0  0  0  0  0  0
   10.1378  -13.7097   19.0469 N   0  0  0  0  0  0  0  0  0  0  0  0
    9.0551  -13.6825   18.1400 C   0  0  0  0  0  0  0  0  0  0  0  0
    9.2146  -13.6354   16.8438 N   0  0  0  0  0  0  0  0  0  0  0  0
    7.7109  -13.7067   18.6388 N   0  0  0  0  0  0  0  0  0  0  0  0
    7.3788  -13.3157   19.9803 C   0  0  0  0  0  0  0  0  0  0  0  0
    7.9847  -14.3089   20.9365 C   0  0  0  0  0  0  0  0  0  0  0  0
    7.5765  -14.0502   22.3713 C   0  0  0  0  0  0  0  0  0  0  0  0
    8.1216  -15.2312   23.1824 C   0  0  2  0  0  0  0  0  0  0  0  0
    7.8003  -14.9733   24.5602 N   0  0  0  0  0  0  0  0  0  0  0  0
    9.5816  -15.3365   23.0166 C   0  0  0  0  0  0  0  0  0  0  0  0
   10.3069  -14.4862   23.6099 O   0  0  0  0  0  0  0  0  0  0  0  0
    8.3830  -13.5074   16.2252 N   0  0  0  0  0  0  0  0  0  0  0  0
   10.2270  -16.3039   22.2539 C   0  0  2  0  0  0  0  0  0  0  0  0
   11.7375  -16.4110   22.1850 C   0  0  0  0  0  0  0  0  0  0  0  0
   12.0984  -17.7181   22.7382 C   0  0  0  0  0  0  0  0  0  0  0  0
   13.4427  -18.1167   23.0785 C   0  0  0  0  0  0  0  0  0  0  0  0
   13.7830  -19.4553   23.6244 C   0  0  0  0  0  0  0  0  0  0  0  0
   15.2542  -19.6963   23.8542 N   0  0  0  0  0  0  0  0  0  0  0  0
   15.4914  -20.9803   24.4333 C   0  0  0  0  0  0  0  0  0  0  0  0
   12.1298  -15.9994   20.8495 O   0  0  0  0  0  0  0  0  0  0  0  0
   11.2935  -16.1338   19.8620 O   0  0  0  0  0  0  0  0  0  0  0  0
  2  5  1  0
  2  1  1  1
  3  2  1  0
  4  3  1  0
  5  6  2  0
  8 10  1  0
  8  7  1  0
  9  8  2  0
 11 10  1  0
 11 12  1  0
 13 12  1  0
 14 13  1  6
 15 14  1  0
 15  5  1  0
 16 17  2  0
 16 14  1  0
 18 16  1  0
 19 18  1  0
 19 25  1  0
 19 20  1  6
 21 20  1  0
 22 21  1  0
 23 22  1  0
 23 24  1  0
 25 27  1  0
 26 25  2  0
M  END
$$$$
