CRK.pdb
     RDKit          3D

 27 26  0  0  1  0  0  0  0  0999 V2000
    7.3164  -14.4348   18.9152 N   0  0  0  0  0  0  0  0  0  0  0  0
    8.3779  -14.1155   19.8445 C   0  0  1  0  0  0  0  0  0  0  0  0
    8.1482  -12.6947   20.3335 C   0  0  0  0  0  0  0  0  0  0  0  0
    8.6226  -11.5443   19.0103 S   0  0  0  0  0  0  0  0  0  0  0  0
    8.3564  -15.0358   20.9964 C   0  0  0  0  0  0  0  0  0  0  0  0
    7.2683  -15.4579   21.4364 O   0  0  0  0  0  0  0  0  0  0  0  0
   13.7032  -19.5938   20.9640 N   0  0  0  0  0  0  0  0  0  0  0  0
   12.5014  -20.3360   20.9437 C   0  0  0  0  0  0  0  0  0  0  0  0
   12.1698  -21.1248   19.9560 N   0  0  0  0  0  0  0  0  0  0  0  0
   11.5875  -20.2369   22.0443 N   0  0  0  0  0  0  0  0  0  0  0  0
   11.8652  -19.4429   23.2084 C   0  0  0  0  0  0  0  0  0  0  0  0
   10.7582  -18.4367   23.3816 C   0  0  0  0  0  0  0  0  0  0  0  0
   10.7671  -17.3783   22.2990 C   0  0  0  0  0  0  0  0  0  0  0  0
    9.6025  -16.4359   22.6235 C   0  0  2  0  0  0  0  0  0  0  0  0
    9.5799  -15.4324   21.5939 N   0  0  0  0  0  0  0  0  0  0  0  0
    9.8057  -15.8041   23.9387 C   0  0  0  0  0  0  0  0  0  0  0  0
   10.8651  -15.1353   24.1159 O   0  0  0  0  0  0  0  0  0  0  0  0
   11.2577  -21.6327   19.9842 N   0  0  0  0  0  0  0  0  0  0  0  0
    8.9178  -15.8869   25.0059 C   0  0  2  0  0  0  0  0  0  0  0  0
    9.2622  -15.3789   26.3919 C   0  0  0  0  0  0  0  0  0  0  0  0
    8.0764  -14.6851   26.8991 C   0  0  0  0  0  0  0  0  0  0  0  0
    7.6410  -13.3830   26.4550 C   0  0  0  0  0  0  0  0  0  0  0  0
    6.4685  -12.6754   27.0295 C   0  0  0  0  0  0  0  0  0  0  0  0
    6.1818  -11.3220   26.4283 N   0  0  0  0  0  0  0  0  0  0  0  0
    5.0125  -10.7318   26.9980 C   0  0  0  0  0  0  0  0  0  0  0  0
    9.8790  -16.4824   27.1052 O   0  0  0  0  0  0  0  0  0  0  0  0
   10.4135  -16.2763   28.2732 O   0  0  0  0  0  0  0  0  0  0  0  0
  2  5  1  0
  2  1  1  6
  3  2  1  0
  4  3  1  0
  5  6  2  0
  8 10  1  0
  8  7  1  0
  9  8  2  0
 11 10  1  0
 11 12  1  0
 13 12  1  0
 14 13  1  6
 15 14  1  0
 15  5  1  0
 16 17  2  0
 16 14  1  0
 18 16  1  0
 19 18  1  0
 19 25  1  0
 19 20  1  6
 21 20  1  0
 22 21  1  0
 23 22  1  0
 23 24  1  0
 25 27  1  0
 26 25  2  0
M  END
$$$$
