CRK.pdb
     RDKit          3D

 27 26  0  0  1  0  0  0  0  0999 V2000
    5.3058  -13.6760   26.9608 N   0  0  0  0  0  0  0  0  0  0  0  0
    6.3473  -13.0427   26.1821 C   0  0  1  0  0  0  0  0  0  0  0  0
    7.5215  -12.7822   27.1115 C   0  0  0  0  0  0  0  0  0  0  0  0
    7.3904  -11.0856   27.7471 S   0  0  0  0  0  0  0  0  0  0  0  0
    6.7835  -13.9224   25.0821 C   0  0  0  0  0  0  0  0  0  0  0  0
    6.5226  -15.1416   25.1185 O   0  0  0  0  0  0  0  0  0  0  0  0
    9.8738  -14.9425   17.6958 N   0  0  0  0  0  0  0  0  0  0  0  0
    8.5678  -14.4523   17.4728 C   0  0  0  0  0  0  0  0  0  0  0  0
    8.2722  -13.6357   16.4963 N   0  0  0  0  0  0  0  0  0  0  0  0
    7.5010  -14.8539   18.3428 N   0  0  0  0  0  0  0  0  0  0  0  0
    7.0896  -14.0680   19.4724 C   0  0  0  0  0  0  0  0  0  0  0  0
    8.2490  -13.9503   20.4263 C   0  0  0  0  0  0  0  0  0  0  0  0
    7.9063  -13.1286   21.6509 C   0  0  0  0  0  0  0  0  0  0  0  0
    7.7170  -14.1345   22.7921 C   0  0  2  0  0  0  0  0  0  0  0  0
    7.4986  -13.3690   23.9896 N   0  0  0  0  0  0  0  0  0  0  0  0
    8.9196  -14.9722   22.9416 C   0  0  0  0  0  0  0  0  0  0  0  0
    9.2700  -15.6846   21.9563 O   0  0  0  0  0  0  0  0  0  0  0  0
    7.3221  -13.2043   16.4532 N   0  0  0  0  0  0  0  0  0  0  0  0
    9.7031  -15.0402   24.0885 C   0  0  2  0  0  0  0  0  0  0  0  0
   10.8521  -16.0185   24.2318 C   0  0  0  0  0  0  0  0  0  0  0  0
   10.4651  -16.9832   25.2635 C   0  0  0  0  0  0  0  0  0  0  0  0
   11.1506  -18.2278   25.5146 C   0  0  0  0  0  0  0  0  0  0  0  0
   10.7169  -19.2041   26.5463 C   0  0  0  0  0  0  0  0  0  0  0  0
   11.6111  -20.4089   26.7016 N   0  0  0  0  0  0  0  0  0  0  0  0
   11.2253  -21.2078   27.8210 C   0  0  0  0  0  0  0  0  0  0  0  0
   11.2289  -16.4270   22.8909 O   0  0  0  0  0  0  0  0  0  0  0  0
   10.3087  -16.7843   22.0435 O   0  0  0  0  0  0  0  0  0  0  0  0
  2  5  1  0
  2  1  1  1
  3  2  1  0
  4  3  1  0
  5  6  2  0
  8 10  1  0
  8  7  1  0
  9  8  2  0
 11 10  1  0
 11 12  1  0
 13 12  1  0
 14 13  1  6
 15 14  1  0
 15  5  1  0
 16 17  2  0
 16 14  1  0
 18 16  1  0
 19 18  1  0
 19 25  1  0
 19 20  1  1
 21 20  1  0
 22 21  1  0
 23 22  1  0
 23 24  1  0
 25 27  1  0
 26 25  2  0
M  END
$$$$
