RDT.pdb
     RDKit          3D

 27 26  0  0  1  0  0  0  0  0999 V2000
   10.5295  -24.9160   -5.6186 N   0  0  0  0  0  0  0  0  0  0  0  0
   10.2528  -25.7014   -4.4598 C   0  0  0  0  0  0  0  0  0  0  0  0
    9.9347  -26.9286   -4.6157 N   0  0  0  0  0  0  0  0  0  0  0  0
   10.3289  -25.1589   -3.1516 N   0  0  0  0  0  0  0  0  0  0  0  0
   10.7453  -23.8135   -2.8593 C   0  0  0  0  0  0  0  0  0  0  0  0
   12.2198  -23.6159   -2.8696 C   0  0  0  0  0  0  0  0  0  0  0  0
   12.7344  -22.2713   -2.5166 C   0  0  0  0  0  0  0  0  0  0  0  0
   14.2261  -22.1160   -2.5615 C   0  0  2  0  0  0  0  0  0  0  0  0
   14.6994  -23.0648   -3.5968 N   0  0  0  0  0  0  0  0  0  0  0  0
   14.7706  -22.5911   -1.2347 C   0  0  0  0  0  0  0  0  0  0  0  0
   15.5984  -23.5244   -1.2514 O   0  0  0  0  0  0  0  0  0  0  0  0
   14.3737  -22.0160   -0.0010 N   0  0  0  0  0  0  0  0  0  0  0  0
   14.9585  -22.3459    1.2744 C   0  0  1  0  0  0  0  0  0  0  0  0
   14.6540  -21.2389    2.2498 C   0  0  0  0  0  0  0  0  0  0  0  0
   15.3147  -21.4765    3.5297 C   0  0  0  0  0  0  0  0  0  0  0  0
   16.0445  -22.4856    3.6749 O   0  0  0  0  0  0  0  0  0  0  0  0
   14.4314  -23.6600    1.7787 C   0  0  0  0  0  0  0  0  0  0  0  0
   13.1899  -23.8895    1.8843 O   0  0  0  0  0  0  0  0  0  0  0  0
   15.1575  -20.6079    4.6049 O   0  0  0  0  0  0  0  0  0  0  0  0
   17.0500  -26.9336    1.9167 C   0  0  0  0  0  0  0  0  0  0  0  0
   15.5643  -27.0718    1.6686 C   0  0  1  0  0  0  0  0  0  0  0  0
   15.1336  -28.3397    2.0307 O   0  0  0  0  0  0  0  0  0  0  0  0
   14.8390  -26.0277    2.5273 C   0  0  2  0  0  0  0  0  0  0  0  0
   15.3029  -24.7132    2.1630 N   0  0  0  0  0  0  0  0  0  0  0  0
   15.0072  -26.3312    3.9584 C   0  0  0  0  0  0  0  0  0  0  0  0
   15.7421  -25.4838    4.7574 O   0  0  0  0  0  0  0  0  0  0  0  0
   14.4846  -27.3530    4.4412 O   0  0  0  0  0  0  0  0  0  0  0  0
  2  3  2  0
  2  1  1  0
  4  2  1  0
  5  4  1  0
  6  5  1  0
  7  6  1  0
  8  7  1  0
  8  9  1  6
 10 12  1  0
 10  8  1  0
 11 10  2  0
 13 12  1  0
 13 14  1  1
 15 19  1  0
 15 14  1  0
 16 15  2  0
 17 24  1  0
 17 13  1  0
 18 17  2  0
 21 20  1  1
 22 21  1  0
 23 25  1  0
 23 21  1  0
 23 24  1  1
 25 26  1  0
 27 25  2  0
M  END
$$$$
