RDT.pdb
     RDKit          3D

 27 26  0  0  1  0  0  0  0  0999 V2000
   13.5285  -12.9667  -17.8738 N   0  0  0  0  0  0  0  0  0  0  0  0
   13.2931  -13.7183  -16.6837 C   0  0  0  0  0  0  0  0  0  0  0  0
   12.8257  -14.9021  -16.7918 N   0  0  0  0  0  0  0  0  0  0  0  0
   13.5699  -13.1898  -15.3970 N   0  0  0  0  0  0  0  0  0  0  0  0
   14.1619  -11.8996  -15.1653 C   0  0  0  0  0  0  0  0  0  0  0  0
   15.5810  -11.7931  -15.5989 C   0  0  0  0  0  0  0  0  0  0  0  0
   16.3060  -10.5418  -15.2733 C   0  0  0  0  0  0  0  0  0  0  0  0
   17.7460  -10.4995  -15.6924 C   0  0  2  0  0  0  0  0  0  0  0  0
   18.3871  -11.6722  -15.0522 N   0  0  0  0  0  0  0  0  0  0  0  0
   18.3596   -9.2623  -15.0796 C   0  0  0  0  0  0  0  0  0  0  0  0
   18.3137   -9.1498  -13.8379 O   0  0  0  0  0  0  0  0  0  0  0  0
   18.9716   -8.2507  -15.8622 N   0  0  0  0  0  0  0  0  0  0  0  0
   19.6099   -7.0782  -15.3189 C   0  0  1  0  0  0  0  0  0  0  0  0
   21.1007   -7.2133  -15.4888 C   0  0  0  0  0  0  0  0  0  0  0  0
   21.6535   -8.1470  -14.5122 C   0  0  0  0  0  0  0  0  0  0  0  0
   21.4413   -7.9662  -13.2899 O   0  0  0  0  0  0  0  0  0  0  0  0
   19.1071   -5.8348  -15.9973 C   0  0  0  0  0  0  0  0  0  0  0  0
   19.1978   -5.6700  -17.2501 O   0  0  0  0  0  0  0  0  0  0  0  0
   22.4170   -9.2431  -14.9008 O   0  0  0  0  0  0  0  0  0  0  0  0
   15.6335   -4.3658  -15.4657 C   0  0  0  0  0  0  0  0  0  0  0  0
   16.6211   -3.2537  -15.1903 C   0  0  1  0  0  0  0  0  0  0  0  0
   16.8409   -3.1346  -13.8259 O   0  0  0  0  0  0  0  0  0  0  0  0
   17.9422   -3.6070  -15.8857 C   0  0  2  0  0  0  0  0  0  0  0  0
   18.5033   -4.7794  -15.2639 N   0  0  0  0  0  0  0  0  0  0  0  0
   18.8527   -2.4498  -15.8800 C   0  0  0  0  0  0  0  0  0  0  0  0
   18.5289   -1.3187  -16.5957 O   0  0  0  0  0  0  0  0  0  0  0  0
   19.9125   -2.4980  -15.2280 O   0  0  0  0  0  0  0  0  0  0  0  0
  2  3  2  0
  2  1  1  0
  4  2  1  0
  5  4  1  0
  6  5  1  0
  7  6  1  0
  8  7  1  0
  8  9  1  1
 10 12  1  0
 10  8  1  0
 11 10  2  0
 13 12  1  0
 13 14  1  6
 15 19  1  0
 15 14  1  0
 16 15  2  0
 17 24  1  0
 17 13  1  0
 18 17  2  0
 21 20  1  1
 22 21  1  0
 23 25  1  0
 23 21  1  0
 23 24  1  1
 25 26  1  0
 27 25  2  0
M  END
$$$$
