RDT.pdb
     RDKit          3D

 27 26  0  0  1  0  0  0  0  0999 V2000
   25.1113  -12.8870  -21.4192 N   0  0  0  0  0  0  0  0  0  0  0  0
   23.8385  -12.4639  -21.9063 C   0  0  0  0  0  0  0  0  0  0  0  0
   23.3690  -13.0234  -22.9542 N   0  0  0  0  0  0  0  0  0  0  0  0
   23.0866  -11.4519  -21.2567 N   0  0  0  0  0  0  0  0  0  0  0  0
   23.4843  -10.8127  -20.0312 C   0  0  0  0  0  0  0  0  0  0  0  0
   22.9067  -11.4291  -18.8066 C   0  0  0  0  0  0  0  0  0  0  0  0
   21.7392  -10.7587  -18.1861 C   0  0  0  0  0  0  0  0  0  0  0  0
   21.2964  -11.3184  -16.8664 C   0  0  2  0  0  0  0  0  0  0  0  0
   20.6064  -12.5920  -17.1794 N   0  0  0  0  0  0  0  0  0  0  0  0
   20.2616  -10.3751  -16.2990 C   0  0  0  0  0  0  0  0  0  0  0  0
   19.1810  -10.2667  -16.9131 O   0  0  0  0  0  0  0  0  0  0  0  0
   20.4832   -9.6283  -15.1143 N   0  0  0  0  0  0  0  0  0  0  0  0
   19.5646   -8.6511  -14.5865 C   0  0  1  0  0  0  0  0  0  0  0  0
   19.2297   -9.0170  -13.1640 C   0  0  0  0  0  0  0  0  0  0  0  0
   18.1677   -8.1617  -12.6427 C   0  0  0  0  0  0  0  0  0  0  0  0
   17.8584   -8.2240  -11.4293 O   0  0  0  0  0  0  0  0  0  0  0  0
   20.1563   -7.2711  -14.6562 C   0  0  0  0  0  0  0  0  0  0  0  0
   21.1890   -6.9492  -13.9968 O   0  0  0  0  0  0  0  0  0  0  0  0
   17.4809   -7.2699  -13.4602 O   0  0  0  0  0  0  0  0  0  0  0  0
   21.5903   -5.5314  -17.4613 C   0  0  0  0  0  0  0  0  0  0  0  0
   20.4537   -4.6274  -17.0385 C   0  0  1  0  0  0  0  0  0  0  0  0
   19.3305   -4.8747  -17.8140 O   0  0  0  0  0  0  0  0  0  0  0  0
   20.1288   -4.9263  -15.5692 C   0  0  2  0  0  0  0  0  0  0  0  0
   19.5841   -6.2564  -15.4681 N   0  0  0  0  0  0  0  0  0  0  0  0
   19.2428   -3.8882  -15.0162 C   0  0  0  0  0  0  0  0  0  0  0  0
   19.7211   -2.6120  -14.8192 O   0  0  0  0  0  0  0  0  0  0  0  0
   18.0641   -4.1680  -14.7286 O   0  0  0  0  0  0  0  0  0  0  0  0
  2  3  2  0
  2  1  1  0
  4  2  1  0
  5  4  1  0
  6  5  1  0
  7  6  1  0
  8  7  1  0
  8  9  1  6
 10 12  1  0
 10  8  1  0
 11 10  2  0
 13 12  1  0
 13 14  1  1
 15 19  1  0
 15 14  1  0
 16 15  2  0
 17 24  1  0
 17 13  1  0
 18 17  2  0
 21 20  1  6
 22 21  1  0
 23 25  1  0
 23 21  1  0
 23 24  1  6
 25 26  1  0
 27 25  2  0
M  END
$$$$
