RDT.pdb
     RDKit          3D

 27 26  0  0  1  0  0  0  0  0999 V2000
   16.5018  -17.6629  -16.1420 N   0  0  0  0  0  0  0  0  0  0  0  0
   15.5784  -16.8441  -15.4255 C   0  0  0  0  0  0  0  0  0  0  0  0
   14.3730  -17.2480  -15.3017 N   0  0  0  0  0  0  0  0  0  0  0  0
   15.9654  -15.6082  -14.8474 N   0  0  0  0  0  0  0  0  0  0  0  0
   16.9606  -14.7329  -15.4062 C   0  0  0  0  0  0  0  0  0  0  0  0
   16.4169  -13.7057  -16.3349 C   0  0  0  0  0  0  0  0  0  0  0  0
   17.3797  -12.7694  -16.9624 C   0  0  0  0  0  0  0  0  0  0  0  0
   18.4218  -12.2004  -16.0451 C   0  0  2  0  0  0  0  0  0  0  0  0
   17.9027  -12.4003  -14.6715 N   0  0  0  0  0  0  0  0  0  0  0  0
   18.4771  -10.7109  -16.2916 C   0  0  0  0  0  0  0  0  0  0  0  0
   18.8111  -10.3264  -17.4305 O   0  0  0  0  0  0  0  0  0  0  0  0
   18.1659   -9.7624  -15.2847 N   0  0  0  0  0  0  0  0  0  0  0  0
   18.2687   -8.3347  -15.4542 C   0  0  1  0  0  0  0  0  0  0  0  0
   17.1238   -7.6755  -14.7302 C   0  0  0  0  0  0  0  0  0  0  0  0
   17.1235   -6.2339  -14.9601 C   0  0  0  0  0  0  0  0  0  0  0  0
   17.5661   -5.4632  -14.0759 O   0  0  0  0  0  0  0  0  0  0  0  0
   19.5868   -7.8301  -14.9373 C   0  0  0  0  0  0  0  0  0  0  0  0
   20.1433   -8.3305  -13.9151 O   0  0  0  0  0  0  0  0  0  0  0  0
   16.6416   -5.6833  -16.1433 O   0  0  0  0  0  0  0  0  0  0  0  0
   23.8432   -5.7224  -15.9604 C   0  0  0  0  0  0  0  0  0  0  0  0
   22.4887   -6.2281  -16.4046 C   0  0  1  0  0  0  0  0  0  0  0  0
   22.6100   -7.4872  -16.9739 O   0  0  0  0  0  0  0  0  0  0  0  0
   21.5851   -6.3181  -15.1680 C   0  0  2  0  0  0  0  0  0  0  0  0
   20.2757   -6.7630  -15.5723 N   0  0  0  0  0  0  0  0  0  0  0  0
   21.5693   -5.0341  -14.4471 C   0  0  0  0  0  0  0  0  0  0  0  0
   20.9198   -3.9493  -14.9926 O   0  0  0  0  0  0  0  0  0  0  0  0
   22.1434   -4.9338  -13.3468 O   0  0  0  0  0  0  0  0  0  0  0  0
  2  3  2  0
  2  1  1  0
  4  2  1  0
  5  4  1  0
  6  5  1  0
  7  6  1  0
  8  7  1  0
  8  9  1  1
 10 12  1  0
 10  8  1  0
 11 10  2  0
 13 12  1  0
 13 14  1  1
 15 19  1  0
 15 14  1  0
 16 15  2  0
 17 24  1  0
 17 13  1  0
 18 17  2  0
 21 20  1  1
 22 21  1  0
 23 25  1  0
 23 21  1  0
 23 24  1  6
 25 26  1  0
 27 25  2  0
M  END
$$$$
