RDT.pdb
     RDKit          3D

 27 26  0  0  1  0  0  0  0  0999 V2000
   28.8275  -26.7290  -16.2140 N   0  0  0  0  0  0  0  0  0  0  0  0
   28.6894  -25.7557  -17.2484 C   0  0  0  0  0  0  0  0  0  0  0  0
   28.9706  -26.0949  -18.4473 N   0  0  0  0  0  0  0  0  0  0  0  0
   28.2449  -24.4358  -16.9804 N   0  0  0  0  0  0  0  0  0  0  0  0
   27.2732  -24.1007  -15.9743 C   0  0  0  0  0  0  0  0  0  0  0  0
   25.8651  -24.3675  -16.3738 C   0  0  0  0  0  0  0  0  0  0  0  0
   24.7950  -23.9472  -15.4381 C   0  0  0  0  0  0  0  0  0  0  0  0
   24.8784  -22.5301  -14.9526 C   0  0  2  0  0  0  0  0  0  0  0  0
   25.1368  -22.6173  -13.4960 N   0  0  0  0  0  0  0  0  0  0  0  0
   23.5122  -21.9097  -15.1297 C   0  0  0  0  0  0  0  0  0  0  0  0
   23.0669  -21.8165  -16.2914 O   0  0  0  0  0  0  0  0  0  0  0  0
   22.7426  -21.4425  -14.0344 N   0  0  0  0  0  0  0  0  0  0  0  0
   21.4242  -20.8722  -14.1528 C   0  0  1  0  0  0  0  0  0  0  0  0
   20.6638  -21.1367  -12.8795 C   0  0  0  0  0  0  0  0  0  0  0  0
   19.8046  -22.3085  -13.0201 C   0  0  0  0  0  0  0  0  0  0  0  0
   19.7232  -22.8906  -14.1275 O   0  0  0  0  0  0  0  0  0  0  0  0
   21.5044  -19.3968  -14.4284 C   0  0  0  0  0  0  0  0  0  0  0  0
   22.0406  -18.5894  -13.6126 O   0  0  0  0  0  0  0  0  0  0  0  0
   19.0652  -22.8042  -11.9510 O   0  0  0  0  0  0  0  0  0  0  0  0
   20.2370  -17.8395  -18.2214 C   0  0  0  0  0  0  0  0  0  0  0  0
   21.3894  -17.2670  -17.4263 C   0  0  1  0  0  0  0  0  0  0  0  0
   21.5484  -15.9195  -17.7148 O   0  0  0  0  0  0  0  0  0  0  0  0
   21.0665  -17.4296  -15.9354 C   0  0  2  0  0  0  0  0  0  0  0  0
   20.9807  -18.8333  -15.6220 N   0  0  0  0  0  0  0  0  0  0  0  0
   19.8494  -16.6775  -15.5871 C   0  0  0  0  0  0  0  0  0  0  0  0
   19.8309  -15.3063  -15.7131 O   0  0  0  0  0  0  0  0  0  0  0  0
   18.8411  -17.2839  -15.1797 O   0  0  0  0  0  0  0  0  0  0  0  0
  2  3  2  0
  2  1  1  0
  4  2  1  0
  5  4  1  0
  6  5  1  0
  7  6  1  0
  8  7  1  0
  8  9  1  1
 10 12  1  0
 10  8  1  0
 11 10  2  0
 13 12  1  0
 13 14  1  1
 15 19  1  0
 15 14  1  0
 16 15  2  0
 17 24  1  0
 17 13  1  0
 18 17  2  0
 21 20  1  6
 22 21  1  0
 23 25  1  0
 23 21  1  0
 23 24  1  6
 25 26  1  0
 27 25  2  0
M  END
$$$$
