RDT.pdb
     RDKit          3D

 27 26  0  0  1  0  0  0  0  0999 V2000
   19.6119  -15.6915  -15.1167 N   0  0  0  0  0  0  0  0  0  0  0  0
   19.7232  -16.1350  -16.4684 C   0  0  0  0  0  0  0  0  0  0  0  0
   19.5898  -17.3812  -16.7150 N   0  0  0  0  0  0  0  0  0  0  0  0
   19.9690  -15.2328  -17.5349 N   0  0  0  0  0  0  0  0  0  0  0  0
   19.6331  -13.8347  -17.5022 C   0  0  0  0  0  0  0  0  0  0  0  0
   18.1721  -13.5574  -17.5461 C   0  0  0  0  0  0  0  0  0  0  0  0
   17.7448  -12.1408  -17.6348 C   0  0  0  0  0  0  0  0  0  0  0  0
   18.6241  -11.1531  -16.9261 C   0  0  2  0  0  0  0  0  0  0  0  0
   18.6145  -11.5553  -15.4998 N   0  0  0  0  0  0  0  0  0  0  0  0
   17.9524   -9.8028  -17.0162 C   0  0  0  0  0  0  0  0  0  0  0  0
   17.7538   -9.3318  -18.1543 O   0  0  0  0  0  0  0  0  0  0  0  0
   17.5517   -9.0757  -15.8668 N   0  0  0  0  0  0  0  0  0  0  0  0
   16.9100   -7.7856  -15.9048 C   0  0  1  0  0  0  0  0  0  0  0  0
   15.9938   -7.6631  -14.7153 C   0  0  0  0  0  0  0  0  0  0  0  0
   14.8801   -8.6015  -14.8171 C   0  0  0  0  0  0  0  0  0  0  0  0
   14.1855   -8.6312  -15.8603 O   0  0  0  0  0  0  0  0  0  0  0  0
   17.9308   -6.6824  -15.9066 C   0  0  0  0  0  0  0  0  0  0  0  0
   18.8790   -6.6435  -15.0673 O   0  0  0  0  0  0  0  0  0  0  0  0
   14.5627   -9.4732  -13.7804 O   0  0  0  0  0  0  0  0  0  0  0  0
   19.5624   -5.1560  -19.1404 C   0  0  0  0  0  0  0  0  0  0  0  0
   18.9849   -4.0317  -18.3095 C   0  0  1  0  0  0  0  0  0  0  0  0
   17.7427   -3.6603  -18.8027 O   0  0  0  0  0  0  0  0  0  0  0  0
   18.8261   -4.5368  -16.8696 C   0  0  2  0  0  0  0  0  0  0  0  0
   17.8820   -5.6251  -16.8533 N   0  0  0  0  0  0  0  0  0  0  0  0
   18.4563   -3.4287  -15.9731 C   0  0  0  0  0  0  0  0  0  0  0  0
   19.3291   -2.3809  -15.7816 O   0  0  0  0  0  0  0  0  0  0  0  0
   17.3556   -3.4430  -15.3911 O   0  0  0  0  0  0  0  0  0  0  0  0
  2  3  2  0
  2  1  1  0
  4  2  1  0
  5  4  1  0
  6  5  1  0
  7  6  1  0
  8  7  1  0
  8  9  1  1
 10 12  1  0
 10  8  1  0
 11 10  2  0
 13 12  1  0
 13 14  1  1
 15 19  1  0
 15 14  1  0
 16 15  2  0
 17 24  1  0
 17 13  1  0
 18 17  2  0
 21 20  1  6
 22 21  1  0
 23 25  1  0
 23 21  1  0
 23 24  1  6
 25 26  1  0
 27 25  2  0
M  END
$$$$
