RDT.pdb
     RDKit          3D

 27 26  0  0  1  0  0  0  0  0999 V2000
   12.0409  -14.5619  -11.7673 N   0  0  0  0  0  0  0  0  0  0  0  0
   11.5847  -13.4003  -11.0752 C   0  0  0  0  0  0  0  0  0  0  0  0
   11.2065  -13.5221   -9.8613 N   0  0  0  0  0  0  0  0  0  0  0  0
   11.5485  -12.1251  -11.6950 N   0  0  0  0  0  0  0  0  0  0  0  0
   12.0205  -11.8626  -13.0281 C   0  0  0  0  0  0  0  0  0  0  0  0
   13.4866  -12.0451  -13.2027 C   0  0  0  0  0  0  0  0  0  0  0  0
   14.0688  -11.7003  -14.5217 C   0  0  0  0  0  0  0  0  0  0  0  0
   15.5444  -11.9337  -14.6596 C   0  0  2  0  0  0  0  0  0  0  0  0
   15.8086  -13.2396  -14.0108 N   0  0  0  0  0  0  0  0  0  0  0  0
   16.2483  -10.8759  -13.8421 C   0  0  0  0  0  0  0  0  0  0  0  0
   16.6701  -11.2036  -12.7146 O   0  0  0  0  0  0  0  0  0  0  0  0
   16.4369   -9.5522  -14.3138 N   0  0  0  0  0  0  0  0  0  0  0  0
   17.1983   -8.5437  -13.6205 C   0  0  1  0  0  0  0  0  0  0  0  0
   17.7726   -7.5868  -14.6325 C   0  0  0  0  0  0  0  0  0  0  0  0
   18.6429   -6.6079  -13.9879 C   0  0  0  0  0  0  0  0  0  0  0  0
   18.5550   -5.3969  -14.3001 O   0  0  0  0  0  0  0  0  0  0  0  0
   16.3376   -7.8149  -12.6270 C   0  0  0  0  0  0  0  0  0  0  0  0
   15.1154   -7.5681  -12.8510 O   0  0  0  0  0  0  0  0  0  0  0  0
   19.5771   -6.9821  -13.0274 O   0  0  0  0  0  0  0  0  0  0  0  0
   16.0034   -5.8570   -8.0723 C   0  0  0  0  0  0  0  0  0  0  0  0
   16.8731   -6.5406   -9.1039 C   0  0  1  0  0  0  0  0  0  0  0  0
   17.2584   -7.7940   -8.6515 O   0  0  0  0  0  0  0  0  0  0  0  0
   16.0517   -6.6983  -10.3900 C   0  0  2  0  0  0  0  0  0  0  0  0
   16.8546   -7.3654  -11.3832 N   0  0  0  0  0  0  0  0  0  0  0  0
   15.5365   -5.3928  -10.8355 C   0  0  0  0  0  0  0  0  0  0  0  0
   14.3398   -4.9231  -10.3420 O   0  0  0  0  0  0  0  0  0  0  0  0
   16.1848   -4.7180  -11.6569 O   0  0  0  0  0  0  0  0  0  0  0  0
  2  3  2  0
  2  1  1  0
  4  2  1  0
  5  4  1  0
  6  5  1  0
  7  6  1  0
  8  7  1  0
  8  9  1  1
 10 12  1  0
 10  8  1  0
 11 10  2  0
 13 12  1  0
 13 14  1  6
 15 19  1  0
 15 14  1  0
 16 15  2  0
 17 24  1  0
 17 13  1  0
 18 17  2  0
 21 20  1  1
 22 21  1  0
 23 25  1  0
 23 21  1  0
 23 24  1  6
 25 26  1  0
 27 25  2  0
M  END
$$$$
