RDT.pdb
     RDKit          3D

 27 26  0  0  1  0  0  0  0  0999 V2000
   15.6142  -14.9227  -13.2420 N   0  0  0  0  0  0  0  0  0  0  0  0
   14.4417  -14.3938  -13.8599 C   0  0  0  0  0  0  0  0  0  0  0  0
   13.4317  -15.1611  -14.0099 N   0  0  0  0  0  0  0  0  0  0  0  0
   14.3695  -13.0475  -14.3005 N   0  0  0  0  0  0  0  0  0  0  0  0
   15.5077  -12.1766  -14.4220 C   0  0  0  0  0  0  0  0  0  0  0  0
   15.7401  -11.6657  -15.7998 C   0  0  0  0  0  0  0  0  0  0  0  0
   16.7679  -10.6123  -15.9768 C   0  0  0  0  0  0  0  0  0  0  0  0
   17.9029  -10.9619  -16.8937 C   0  0  2  0  0  0  0  0  0  0  0  0
   18.1159  -12.4198  -16.7342 N   0  0  0  0  0  0  0  0  0  0  0  0
   19.1383  -10.2678  -16.3697 C   0  0  0  0  0  0  0  0  0  0  0  0
   19.4828  -10.5113  -15.1955 O   0  0  0  0  0  0  0  0  0  0  0  0
   19.8974   -9.3686  -17.1606 N   0  0  0  0  0  0  0  0  0  0  0  0
   21.0802   -8.6840  -16.7029 C   0  0  1  0  0  0  0  0  0  0  0  0
   21.9369   -8.3437  -17.8945 C   0  0  0  0  0  0  0  0  0  0  0  0
   22.4869   -9.5518  -18.5022 C   0  0  0  0  0  0  0  0  0  0  0  0
   22.4822   -9.6778  -19.7495 O   0  0  0  0  0  0  0  0  0  0  0  0
   20.7153   -7.4428  -15.9377 C   0  0  0  0  0  0  0  0  0  0  0  0
   19.8193   -6.6437  -16.3421 O   0  0  0  0  0  0  0  0  0  0  0  0
   23.0218  -10.5786  -17.7309 O   0  0  0  0  0  0  0  0  0  0  0  0
   19.6060   -7.4543  -12.4325 C   0  0  0  0  0  0  0  0  0  0  0  0
   20.7660   -6.4838  -12.4517 C   0  0  1  0  0  0  0  0  0  0  0  0
   21.9265   -7.1153  -12.0290 O   0  0  0  0  0  0  0  0  0  0  0  0
   20.9538   -5.9946  -13.8936 C   0  0  2  0  0  0  0  0  0  0  0  0
   21.3598   -7.1039  -14.7186 N   0  0  0  0  0  0  0  0  0  0  0  0
   21.8930   -4.8611  -13.9347 C   0  0  0  0  0  0  0  0  0  0  0  0
   21.5618   -3.6734  -13.3215 O   0  0  0  0  0  0  0  0  0  0  0  0
   22.9834   -4.9806  -14.5238 O   0  0  0  0  0  0  0  0  0  0  0  0
  2  3  2  0
  2  1  1  0
  4  2  1  0
  5  4  1  0
  6  5  1  0
  7  6  1  0
  8  7  1  0
  8  9  1  1
 10 12  1  0
 10  8  1  0
 11 10  2  0
 13 12  1  0
 13 14  1  6
 15 19  1  0
 15 14  1  0
 16 15  2  0
 17 24  1  0
 17 13  1  0
 18 17  2  0
 21 20  1  6
 22 21  1  0
 23 25  1  0
 23 21  1  0
 23 24  1  6
 25 26  1  0
 27 25  2  0
M  END
$$$$
