RDT.pdb
     RDKit          3D

 27 26  0  0  1  0  0  0  0  0999 V2000
   19.6109  -15.4547  -16.8763 N   0  0  0  0  0  0  0  0  0  0  0  0
   18.2122  -15.3560  -17.1412 C   0  0  0  0  0  0  0  0  0  0  0  0
   17.6969  -16.1454  -18.0031 N   0  0  0  0  0  0  0  0  0  0  0  0
   17.3875  -14.4163  -16.4716 N   0  0  0  0  0  0  0  0  0  0  0  0
   17.8661  -13.1864  -15.8997 C   0  0  0  0  0  0  0  0  0  0  0  0
   17.5882  -11.9810  -16.7261 C   0  0  0  0  0  0  0  0  0  0  0  0
   17.9131  -10.6582  -16.1413 C   0  0  0  0  0  0  0  0  0  0  0  0
   19.3754  -10.3468  -16.0157 C   0  0  2  0  0  0  0  0  0  0  0  0
   19.9005  -11.2817  -14.9927 N   0  0  0  0  0  0  0  0  0  0  0  0
   19.4939   -8.9506  -15.4506 C   0  0  0  0  0  0  0  0  0  0  0  0
   18.5650   -8.5406  -14.7257 O   0  0  0  0  0  0  0  0  0  0  0  0
   20.6081   -8.1154  -15.7174 N   0  0  0  0  0  0  0  0  0  0  0  0
   20.7853   -6.7963  -15.1642 C   0  0  1  0  0  0  0  0  0  0  0  0
   21.8754   -6.8470  -14.1256 C   0  0  0  0  0  0  0  0  0  0  0  0
   22.0719   -5.5366  -13.5128 C   0  0  0  0  0  0  0  0  0  0  0  0
   23.0967   -4.8690  -13.7880 O   0  0  0  0  0  0  0  0  0  0  0  0
   21.1237   -5.8065  -16.2436 C   0  0  0  0  0  0  0  0  0  0  0  0
   22.1917   -5.8897  -16.9200 O   0  0  0  0  0  0  0  0  0  0  0  0
   21.1466   -5.0006  -12.6230 O   0  0  0  0  0  0  0  0  0  0  0  0
   18.4222   -2.5956  -17.1238 C   0  0  0  0  0  0  0  0  0  0  0  0
   19.1557   -3.3420  -18.2160 C   0  0  1  0  0  0  0  0  0  0  0  0
   19.3849   -2.5048  -19.2981 O   0  0  0  0  0  0  0  0  0  0  0  0
   20.5008   -3.8145  -17.6493 C   0  0  2  0  0  0  0  0  0  0  0  0
   20.2592   -4.7252  -16.5593 N   0  0  0  0  0  0  0  0  0  0  0  0
   21.3349   -2.6607  -17.2730 C   0  0  0  0  0  0  0  0  0  0  0  0
   21.8676   -1.8514  -18.2516 O   0  0  0  0  0  0  0  0  0  0  0  0
   21.5557   -2.4210  -16.0713 O   0  0  0  0  0  0  0  0  0  0  0  0
  2  3  2  0
  2  1  1  0
  4  2  1  0
  5  4  1  0
  6  5  1  0
  7  6  1  0
  8  7  1  0
  8  9  1  1
 10 12  1  0
 10  8  1  0
 11 10  2  0
 13 12  1  0
 13 14  1  1
 15 19  1  0
 15 14  1  0
 16 15  2  0
 17 24  1  0
 17 13  1  0
 18 17  2  0
 21 20  1  1
 22 21  1  0
 23 25  1  0
 23 21  1  0
 23 24  1  1
 25 26  1  0
 27 25  2  0
M  END
$$$$
