RDT.pdb
     RDKit          3D

 27 26  0  0  1  0  0  0  0  0999 V2000
   11.9664  -11.9087  -18.2083 N   0  0  0  0  0  0  0  0  0  0  0  0
   11.7063  -12.7097  -17.0563 C   0  0  0  0  0  0  0  0  0  0  0  0
   10.7717  -13.5783  -17.1151 N   0  0  0  0  0  0  0  0  0  0  0  0
   12.4583  -12.5704  -15.8618 N   0  0  0  0  0  0  0  0  0  0  0  0
   13.6763  -11.8124  -15.7593 C   0  0  0  0  0  0  0  0  0  0  0  0
   14.8787  -12.5174  -16.2794 C   0  0  0  0  0  0  0  0  0  0  0  0
   16.1417  -11.7464  -16.3676 C   0  0  0  0  0  0  0  0  0  0  0  0
   17.3227  -12.4971  -16.9088 C   0  0  2  0  0  0  0  0  0  0  0  0
   17.2884  -13.8274  -16.2566 N   0  0  0  0  0  0  0  0  0  0  0  0
   18.5679  -11.7918  -16.4246 C   0  0  0  0  0  0  0  0  0  0  0  0
   18.6270  -11.4899  -15.2155 O   0  0  0  0  0  0  0  0  0  0  0  0
   19.6449  -11.4725  -17.2898 N   0  0  0  0  0  0  0  0  0  0  0  0
   20.8665  -10.8363  -16.8652 C   0  0  1  0  0  0  0  0  0  0  0  0
   21.9794  -11.2541  -17.7906 C   0  0  0  0  0  0  0  0  0  0  0  0
   23.2505  -10.6700  -17.3733 C   0  0  0  0  0  0  0  0  0  0  0  0
   23.3563   -9.4257  -17.2619 O   0  0  0  0  0  0  0  0  0  0  0  0
   20.7139   -9.3410  -16.8570 C   0  0  0  0  0  0  0  0  0  0  0  0
   20.2724   -8.7055  -17.8600 O   0  0  0  0  0  0  0  0  0  0  0  0
   24.3602  -11.4606  -17.0924 O   0  0  0  0  0  0  0  0  0  0  0  0
   20.7845   -7.4141  -13.2175 C   0  0  0  0  0  0  0  0  0  0  0  0
   20.1099   -6.7625  -14.4042 C   0  0  1  0  0  0  0  0  0  0  0  0
   20.1063   -5.3833  -14.2561 O   0  0  0  0  0  0  0  0  0  0  0  0
   20.9021   -7.1329  -15.6648 C   0  0  2  0  0  0  0  0  0  0  0  0
   21.0588   -8.5641  -15.7194 N   0  0  0  0  0  0  0  0  0  0  0  0
   22.1806   -6.4031  -15.7025 C   0  0  0  0  0  0  0  0  0  0  0  0
   23.3668   -7.0907  -15.5744 O   0  0  0  0  0  0  0  0  0  0  0  0
   22.1846   -5.1668  -15.8500 O   0  0  0  0  0  0  0  0  0  0  0  0
  2  3  2  0
  2  1  1  0
  4  2  1  0
  5  4  1  0
  6  5  1  0
  7  6  1  0
  8  7  1  0
  8  9  1  1
 10 12  1  0
 10  8  1  0
 11 10  2  0
 13 12  1  0
 13 14  1  6
 15 19  1  0
 15 14  1  0
 16 15  2  0
 17 24  1  0
 17 13  1  0
 18 17  2  0
 21 20  1  1
 22 21  1  0
 23 25  1  0
 23 21  1  0
 23 24  1  1
 25 26  1  0
 27 25  2  0
M  END
$$$$
