RDT.pdb
     RDKit          3D

 27 26  0  0  1  0  0  0  0  0999 V2000
   10.9096   -7.3656   -8.9734 N   0  0  0  0  0  0  0  0  0  0  0  0
   11.3843   -7.5811   -7.6451 C   0  0  0  0  0  0  0  0  0  0  0  0
   10.5293   -7.7366   -6.7089 N   0  0  0  0  0  0  0  0  0  0  0  0
   12.7693   -7.6334   -7.3439 N   0  0  0  0  0  0  0  0  0  0  0  0
   13.8131   -7.5341   -8.3284 C   0  0  0  0  0  0  0  0  0  0  0  0
   14.4968   -8.8219   -8.6240 C   0  0  0  0  0  0  0  0  0  0  0  0
   15.5347   -8.8207   -9.6824 C   0  0  0  0  0  0  0  0  0  0  0  0
   15.0566   -9.1768  -11.0592 C   0  0  2  0  0  0  0  0  0  0  0  0
   14.7197  -10.6190  -11.0087 N   0  0  0  0  0  0  0  0  0  0  0  0
   16.2291   -9.0225  -11.9994 C   0  0  0  0  0  0  0  0  0  0  0  0
   17.0038   -9.9930  -12.1201 O   0  0  0  0  0  0  0  0  0  0  0  0
   16.4647   -7.8306  -12.7304 N   0  0  0  0  0  0  0  0  0  0  0  0
   17.5143   -7.6696  -13.7050 C   0  0  1  0  0  0  0  0  0  0  0  0
   16.8924   -7.3758  -15.0453 C   0  0  0  0  0  0  0  0  0  0  0  0
   17.9189   -7.2017  -16.0686 C   0  0  0  0  0  0  0  0  0  0  0  0
   18.8550   -8.0309  -16.1577 O   0  0  0  0  0  0  0  0  0  0  0  0
   18.4529   -6.5675  -13.3005 C   0  0  0  0  0  0  0  0  0  0  0  0
   18.0341   -5.4637  -12.8408 O   0  0  0  0  0  0  0  0  0  0  0  0
   17.8897   -6.1320  -16.9575 O   0  0  0  0  0  0  0  0  0  0  0  0
   21.0962   -6.3636  -10.7653 C   0  0  0  0  0  0  0  0  0  0  0  0
   21.8113   -6.1621  -12.0829 C   0  0  1  0  0  0  0  0  0  0  0  0
   22.3428   -7.3633  -12.5286 O   0  0  0  0  0  0  0  0  0  0  0  0
   20.7887   -5.6516  -13.1064 C   0  0  2  0  0  0  0  0  0  0  0  0
   19.8611   -6.7103  -13.4141 N   0  0  0  0  0  0  0  0  0  0  0  0
   21.4734   -5.1112  -14.2928 C   0  0  0  0  0  0  0  0  0  0  0  0
   21.2925   -5.7083  -15.5205 O   0  0  0  0  0  0  0  0  0  0  0  0
   22.2135   -4.1161  -14.1819 O   0  0  0  0  0  0  0  0  0  0  0  0
  2  3  2  0
  2  1  1  0
  4  2  1  0
  5  4  1  0
  6  5  1  0
  7  6  1  0
  8  7  1  0
  8  9  1  1
 10 12  1  0
 10  8  1  0
 11 10  2  0
 13 12  1  0
 13 14  1  6
 15 19  1  0
 15 14  1  0
 16 15  2  0
 17 24  1  0
 17 13  1  0
 18 17  2  0
 21 20  1  1
 22 21  1  0
 23 25  1  0
 23 21  1  0
 23 24  1  6
 25 26  1  0
 27 25  2  0
M  END
$$$$
