RDT.pdb
     RDKit          3D

 27 26  0  0  1  0  0  0  0  0999 V2000
   29.8044  -25.6022  -15.7470 N   0  0  0  0  0  0  0  0  0  0  0  0
   29.5112  -25.5311  -17.1418 C   0  0  0  0  0  0  0  0  0  0  0  0
   29.2434  -26.6133  -17.7653 N   0  0  0  0  0  0  0  0  0  0  0  0
   29.5033  -24.2986  -17.8436 N   0  0  0  0  0  0  0  0  0  0  0  0
   29.2852  -23.0191  -17.2241 C   0  0  0  0  0  0  0  0  0  0  0  0
   27.8623  -22.7358  -16.8947 C   0  0  0  0  0  0  0  0  0  0  0  0
   27.5298  -21.3792  -16.3984 C   0  0  0  0  0  0  0  0  0  0  0  0
   26.4963  -21.3218  -15.3123 C   0  0  2  0  0  0  0  0  0  0  0  0
   26.0153  -22.7128  -15.1393 N   0  0  0  0  0  0  0  0  0  0  0  0
   25.3358  -20.5073  -15.8343 C   0  0  0  0  0  0  0  0  0  0  0  0
   25.5491  -19.3092  -16.1092 O   0  0  0  0  0  0  0  0  0  0  0  0
   24.0418  -21.0580  -16.0151 N   0  0  0  0  0  0  0  0  0  0  0  0
   22.9023  -20.3151  -16.4913 C   0  0  1  0  0  0  0  0  0  0  0  0
   22.1461  -21.1648  -17.4790 C   0  0  0  0  0  0  0  0  0  0  0  0
   22.6674  -20.9811  -18.8302 C   0  0  0  0  0  0  0  0  0  0  0  0
   23.1243  -21.9645  -19.4594 O   0  0  0  0  0  0  0  0  0  0  0  0
   22.0145  -19.9099  -15.3481 C   0  0  0  0  0  0  0  0  0  0  0  0
   21.9140  -20.6080  -14.2958 O   0  0  0  0  0  0  0  0  0  0  0  0
   22.6726  -19.7344  -19.4475 O   0  0  0  0  0  0  0  0  0  0  0  0
   19.0473  -16.4620  -13.3803 C   0  0  0  0  0  0  0  0  0  0  0  0
   19.9568  -16.8568  -14.5226 C   0  0  1  0  0  0  0  0  0  0  0  0
   21.1154  -16.0942  -14.4985 O   0  0  0  0  0  0  0  0  0  0  0  0
   20.3227  -18.3367  -14.3503 C   0  0  2  0  0  0  0  0  0  0  0  0
   21.2417  -18.7194  -15.3920 N   0  0  0  0  0  0  0  0  0  0  0  0
   19.1069  -19.1664  -14.3096 C   0  0  0  0  0  0  0  0  0  0  0  0
   18.7524  -19.9180  -15.4077 O   0  0  0  0  0  0  0  0  0  0  0  0
   18.4034  -19.1856  -13.2824 O   0  0  0  0  0  0  0  0  0  0  0  0
  2  3  2  0
  2  1  1  0
  4  2  1  0
  5  4  1  0
  6  5  1  0
  7  6  1  0
  8  7  1  0
  8  9  1  6
 10 12  1  0
 10  8  1  0
 11 10  2  0
 13 12  1  0
 13 14  1  6
 15 19  1  0
 15 14  1  0
 16 15  2  0
 17 24  1  0
 17 13  1  0
 18 17  2  0
 21 20  1  1
 22 21  1  0
 23 25  1  0
 23 21  1  0
 23 24  1  6
 25 26  1  0
 27 25  2  0
M  END
$$$$
