RDT.pdb
     RDKit          3D

 27 26  0  0  1  0  0  0  0  0999 V2000
   14.9258  -15.0742  -16.2865 N   0  0  0  0  0  0  0  0  0  0  0  0
   16.0884  -15.8914  -16.4165 C   0  0  0  0  0  0  0  0  0  0  0  0
   15.9989  -16.9791  -17.0801 N   0  0  0  0  0  0  0  0  0  0  0  0
   17.3303  -15.5247  -15.8379 N   0  0  0  0  0  0  0  0  0  0  0  0
   17.5216  -14.3680  -15.0047 C   0  0  0  0  0  0  0  0  0  0  0  0
   17.6519  -13.0904  -15.7556 C   0  0  0  0  0  0  0  0  0  0  0  0
   17.6961  -11.8341  -14.9701 C   0  0  0  0  0  0  0  0  0  0  0  0
   17.8675  -10.5759  -15.7693 C   0  0  2  0  0  0  0  0  0  0  0  0
   18.1619  -11.0143  -17.1539 N   0  0  0  0  0  0  0  0  0  0  0  0
   19.1000   -9.8737  -15.2492 C   0  0  0  0  0  0  0  0  0  0  0  0
   19.0933   -9.5024  -14.0581 O   0  0  0  0  0  0  0  0  0  0  0  0
   20.2364   -9.6324  -16.0619 N   0  0  0  0  0  0  0  0  0  0  0  0
   21.4216   -8.9433  -15.6170 C   0  0  1  0  0  0  0  0  0  0  0  0
   22.6049   -9.4605  -16.3927 C   0  0  0  0  0  0  0  0  0  0  0  0
   22.4282   -9.2342  -17.8241 C   0  0  0  0  0  0  0  0  0  0  0  0
   21.8172  -10.0819  -18.5168 O   0  0  0  0  0  0  0  0  0  0  0  0
   21.2743   -7.4584  -15.7976 C   0  0  0  0  0  0  0  0  0  0  0  0
   20.9916   -6.9432  -16.9199 O   0  0  0  0  0  0  0  0  0  0  0  0
   22.9228   -8.0942  -18.4495 O   0  0  0  0  0  0  0  0  0  0  0  0
   19.9149   -5.2245  -12.7285 C   0  0  0  0  0  0  0  0  0  0  0  0
   19.8621   -4.8008  -14.1796 C   0  0  1  0  0  0  0  0  0  0  0  0
   19.6411   -3.4345  -14.2724 O   0  0  0  0  0  0  0  0  0  0  0  0
   21.2128   -5.1388  -14.8238 C   0  0  2  0  0  0  0  0  0  0  0  0
   21.4456   -6.5565  -14.7142 N   0  0  0  0  0  0  0  0  0  0  0  0
   22.2851   -4.3228  -14.2300 C   0  0  0  0  0  0  0  0  0  0  0  0
   22.3883   -2.9875  -14.5505 O   0  0  0  0  0  0  0  0  0  0  0  0
   23.0950   -4.8430  -13.4401 O   0  0  0  0  0  0  0  0  0  0  0  0
  2  3  2  0
  2  1  1  0
  4  2  1  0
  5  4  1  0
  6  5  1  0
  7  6  1  0
  8  7  1  0
  8  9  1  6
 10 12  1  0
 10  8  1  0
 11 10  2  0
 13 12  1  0
 13 14  1  6
 15 19  1  0
 15 14  1  0
 16 15  2  0
 17 24  1  0
 17 13  1  0
 18 17  2  0
 21 20  1  1
 22 21  1  0
 23 25  1  0
 23 21  1  0
 23 24  1  1
 25 26  1  0
 27 25  2  0
M  END
$$$$
