RDT.pdb
     RDKit          3D

 27 26  0  0  1  0  0  0  0  0999 V2000
   12.9513  -12.5296  -11.0664 N   0  0  0  0  0  0  0  0  0  0  0  0
   11.9329  -11.5415  -10.9150 C   0  0  0  0  0  0  0  0  0  0  0  0
   10.7597  -11.9202  -10.5806 N   0  0  0  0  0  0  0  0  0  0  0  0
   12.1917  -10.1619  -11.1181 N   0  0  0  0  0  0  0  0  0  0  0  0
   13.4824   -9.6246  -11.4560 C   0  0  0  0  0  0  0  0  0  0  0  0
   14.0160  -10.0959  -12.7622 C   0  0  0  0  0  0  0  0  0  0  0  0
   15.3280   -9.5628  -13.2003 C   0  0  0  0  0  0  0  0  0  0  0  0
   15.8441  -10.1009  -14.5022 C   0  0  2  0  0  0  0  0  0  0  0  0
   16.0929  -11.5436  -14.2723 N   0  0  0  0  0  0  0  0  0  0  0  0
   17.1828   -9.4504  -14.7620 C   0  0  0  0  0  0  0  0  0  0  0  0
   18.1544   -9.8381  -14.0820 O   0  0  0  0  0  0  0  0  0  0  0  0
   17.3576   -8.4350  -15.7360 N   0  0  0  0  0  0  0  0  0  0  0  0
   18.6341   -7.8810  -16.1116 C   0  0  1  0  0  0  0  0  0  0  0  0
   18.4902   -7.1849  -17.4399 C   0  0  0  0  0  0  0  0  0  0  0  0
   18.1598   -8.1388  -18.4944 C   0  0  0  0  0  0  0  0  0  0  0  0
   18.6830   -9.2781  -18.4885 O   0  0  0  0  0  0  0  0  0  0  0  0
   19.1309   -6.9271  -15.0616 C   0  0  0  0  0  0  0  0  0  0  0  0
   18.3788   -6.0509  -14.5404 O   0  0  0  0  0  0  0  0  0  0  0  0
   17.2724   -7.8186  -19.5168 O   0  0  0  0  0  0  0  0  0  0  0  0
   20.4874   -7.7465  -11.8366 C   0  0  0  0  0  0  0  0  0  0  0  0
   21.5901   -6.9120  -12.4495 C   0  0  1  0  0  0  0  0  0  0  0  0
   22.5805   -7.7329  -12.9686 O   0  0  0  0  0  0  0  0  0  0  0  0
   20.9811   -6.0766  -13.5830 C   0  0  2  0  0  0  0  0  0  0  0  0
   20.4735   -6.9616  -14.6005 N   0  0  0  0  0  0  0  0  0  0  0  0
   21.9632   -5.1041  -14.0910 C   0  0  0  0  0  0  0  0  0  0  0  0
   22.4304   -4.1060  -13.2653 O   0  0  0  0  0  0  0  0  0  0  0  0
   22.3680   -5.1877  -15.2656 O   0  0  0  0  0  0  0  0  0  0  0  0
  2  3  2  0
  2  1  1  0
  4  2  1  0
  5  4  1  0
  6  5  1  0
  7  6  1  0
  8  7  1  0
  8  9  1  1
 10 12  1  0
 10  8  1  0
 11 10  2  0
 13 12  1  0
 13 14  1  6
 15 19  1  0
 15 14  1  0
 16 15  2  0
 17 24  1  0
 17 13  1  0
 18 17  2  0
 21 20  1  6
 22 21  1  0
 23 25  1  0
 23 21  1  0
 23 24  1  6
 25 26  1  0
 27 25  2  0
M  END
$$$$
