EGA.pdb
     RDKit          3D

 19 18  0  0  1  0  0  0  0  0999 V2000
   18.1117  -10.4084  -16.9017 N   0  0  0  0  0  0  0  0  0  0  0  0
   17.6169  -10.1239  -15.5416 C   0  0  1  0  0  0  0  0  0  0  0  0
   17.4237  -11.4450  -14.8066 C   0  0  0  0  0  0  0  0  0  0  0  0
   16.2904  -12.2723  -15.2930 C   0  0  0  0  0  0  0  0  0  0  0  0
   16.2332  -13.4793  -14.3855 C   0  0  0  0  0  0  0  0  0  0  0  0
   17.1432  -13.6753  -13.5247 O   0  0  0  0  0  0  0  0  0  0  0  0
   18.7441   -9.4656  -14.8009 C   0  0  0  0  0  0  0  0  0  0  0  0
   18.5228   -9.0827  -13.6289 O   0  0  0  0  0  0  0  0  0  0  0  0
   15.2088  -14.3999  -14.4552 O   0  0  0  0  0  0  0  0  0  0  0  0
   20.0255   -9.2463  -15.3232 N   0  0  0  0  0  0  0  0  0  0  0  0
   21.1128   -8.6541  -14.5862 C   0  0  0  0  0  0  0  0  0  0  0  0
   21.2542   -7.2377  -14.9896 C   0  0  0  0  0  0  0  0  0  0  0  0
   22.1236   -6.5012  -14.3945 O   0  0  0  0  0  0  0  0  0  0  0  0
   20.2789   -4.9726  -17.7995 C   0  0  0  0  0  0  0  0  0  0  0  0
   20.6550   -5.2384  -16.3629 C   0  0  2  0  0  0  0  0  0  0  0  0
   20.5081   -6.6128  -15.9893 N   0  0  0  0  0  0  0  0  0  0  0  0
   19.8451   -4.3751  -15.4869 C   0  0  0  0  0  0  0  0  0  0  0  0
   18.8150   -4.8347  -14.9506 O   0  0  0  0  0  0  0  0  0  0  0  0
   20.1818   -3.0646  -15.2342 O   0  0  0  0  0  0  0  0  0  0  0  0
  2  1  1  6
  2  7  1  0
  3  2  1  0
  4  3  1  0
  5  4  1  0
  5  6  2  0
  7  8  2  0
  9  5  1  0
 10 11  1  0
 10  7  1  0
 12 13  2  0
 12 11  1  0
 15 14  1  6
 15 16  1  0
 15 17  1  0
 16 12  1  0
 17 19  1  0
 18 17  2  0
M  END
$$$$
