EGA.pdb
     RDKit          3D

 19 18  0  0  1  0  0  0  0  0999 V2000
   14.4949  -21.8321    1.3221 N   0  0  0  0  0  0  0  0  0  0  0  0
   15.0568  -21.9432    2.6814 C   0  0  1  0  0  0  0  0  0  0  0  0
   15.8326  -23.2510    2.7832 C   0  0  0  0  0  0  0  0  0  0  0  0
   15.4511  -24.2845    1.7873 C   0  0  0  0  0  0  0  0  0  0  0  0
   16.4655  -25.3958    1.9274 C   0  0  0  0  0  0  0  0  0  0  0  0
   17.3882  -25.3134    2.7931 O   0  0  0  0  0  0  0  0  0  0  0  0
   16.1189  -20.8890    2.7970 C   0  0  0  0  0  0  0  0  0  0  0  0
   16.2080  -20.0513    1.8699 O   0  0  0  0  0  0  0  0  0  0  0  0
   16.4304  -26.5235    1.1344 O   0  0  0  0  0  0  0  0  0  0  0  0
   17.0191  -20.7727    3.8642 N   0  0  0  0  0  0  0  0  0  0  0  0
   17.9623  -19.6943    4.0177 C   0  0  0  0  0  0  0  0  0  0  0  0
   18.7721  -19.9309    5.2331 C   0  0  0  0  0  0  0  0  0  0  0  0
   18.3628  -20.7860    6.1013 O   0  0  0  0  0  0  0  0  0  0  0  0
   21.9979  -18.6949    6.7845 C   0  0  0  0  0  0  0  0  0  0  0  0
   20.7008  -19.4647    6.7512 C   0  0  2  0  0  0  0  0  0  0  0  0
   19.9768  -19.2920    5.5281 N   0  0  0  0  0  0  0  0  0  0  0  0
   19.8746  -19.0631    7.9023 C   0  0  0  0  0  0  0  0  0  0  0  0
   20.1623  -19.4822    9.0431 O   0  0  0  0  0  0  0  0  0  0  0  0
   18.7831  -18.2353    7.7683 O   0  0  0  0  0  0  0  0  0  0  0  0
  2  1  1  6
  2  7  1  0
  3  2  1  0
  4  3  1  0
  5  4  1  0
  5  6  2  0
  7  8  2  0
  9  5  1  0
 10 11  1  0
 10  7  1  0
 12 13  2  0
 12 11  1  0
 15 14  1  6
 15 16  1  0
 15 17  1  0
 16 12  1  0
 17 19  1  0
 18 17  2  0
M  END
$$$$
