EGA.pdb
     RDKit          3D

 19 18  0  0  1  0  0  0  0  0999 V2000
   19.3023  -13.3419  -15.2601 N   0  0  0  0  0  0  0  0  0  0  0  0
   20.2006  -13.9805  -16.2404 C   0  0  1  0  0  0  0  0  0  0  0  0
   19.3574  -14.5578  -17.3710 C   0  0  0  0  0  0  0  0  0  0  0  0
   17.8907  -14.3944  -17.2047 C   0  0  0  0  0  0  0  0  0  0  0  0
   17.2605  -14.9801  -18.4471 C   0  0  0  0  0  0  0  0  0  0  0  0
   17.3543  -14.3749  -19.5572 O   0  0  0  0  0  0  0  0  0  0  0  0
   20.9739  -12.8765  -16.9007 C   0  0  0  0  0  0  0  0  0  0  0  0
   21.8397  -13.1999  -17.7462 O   0  0  0  0  0  0  0  0  0  0  0  0
   16.5701  -16.1737  -18.4249 O   0  0  0  0  0  0  0  0  0  0  0  0
   20.8003  -11.5108  -16.6408 N   0  0  0  0  0  0  0  0  0  0  0  0
   21.5378  -10.4593  -17.2940 C   0  0  0  0  0  0  0  0  0  0  0  0
   21.4545   -9.2305  -16.4742 C   0  0  0  0  0  0  0  0  0  0  0  0
   20.8208   -9.2656  -15.3562 O   0  0  0  0  0  0  0  0  0  0  0  0
   22.8302   -5.7086  -16.4899 C   0  0  0  0  0  0  0  0  0  0  0  0
   21.9408   -6.8256  -16.0028 C   0  0  2  0  0  0  0  0  0  0  0  0
   22.0211   -8.0019  -16.8152 N   0  0  0  0  0  0  0  0  0  0  0  0
   20.5526   -6.3386  -15.9339 C   0  0  0  0  0  0  0  0  0  0  0  0
   19.7452   -6.6496  -16.8346 O   0  0  0  0  0  0  0  0  0  0  0  0
   20.1049   -5.5428  -14.9039 O   0  0  0  0  0  0  0  0  0  0  0  0
  2  1  1  1
  2  7  1  0
  3  2  1  0
  4  3  1  0
  5  4  1  0
  5  6  2  0
  7  8  2  0
  9  5  1  0
 10 11  1  0
 10  7  1  0
 12 13  2  0
 12 11  1  0
 15 14  1  6
 15 16  1  0
 15 17  1  0
 16 12  1  0
 17 19  1  0
 18 17  2  0
M  END
$$$$
