EGA.pdb
     RDKit          3D

 19 18  0  0  1  0  0  0  0  0999 V2000
   28.7863  -22.3349  -16.9475 N   0  0  0  0  0  0  0  0  0  0  0  0
   27.4295  -21.8178  -17.2069 C   0  0  1  0  0  0  0  0  0  0  0  0
   26.4471  -22.9821  -17.1631 C   0  0  0  0  0  0  0  0  0  0  0  0
   26.5995  -23.8863  -15.9949 C   0  0  0  0  0  0  0  0  0  0  0  0
   25.5276  -24.9417  -16.1395 C   0  0  0  0  0  0  0  0  0  0  0  0
   24.7660  -24.9443  -17.1531 O   0  0  0  0  0  0  0  0  0  0  0  0
   27.0495  -20.9860  -16.0168 C   0  0  0  0  0  0  0  0  0  0  0  0
   25.9472  -20.3920  -16.0523 O   0  0  0  0  0  0  0  0  0  0  0  0
   25.3371  -25.9263  -15.1929 O   0  0  0  0  0  0  0  0  0  0  0  0
   27.8366  -20.8235  -14.8692 N   0  0  0  0  0  0  0  0  0  0  0  0
   27.4826  -19.9831  -13.7536 C   0  0  0  0  0  0  0  0  0  0  0  0
   26.4770  -20.6817  -12.9232 C   0  0  0  0  0  0  0  0  0  0  0  0
   25.8288  -21.6716  -13.4258 O   0  0  0  0  0  0  0  0  0  0  0  0
   25.3069  -20.7502   -9.3388 C   0  0  0  0  0  0  0  0  0  0  0  0
   25.1885  -21.0449  -10.8137 C   0  0  2  0  0  0  0  0  0  0  0  0
   26.1623  -20.3541  -11.6040 N   0  0  0  0  0  0  0  0  0  0  0  0
   23.8264  -20.7100  -11.2624 C   0  0  0  0  0  0  0  0  0  0  0  0
   23.6428  -19.6988  -11.9721 O   0  0  0  0  0  0  0  0  0  0  0  0
   22.7339  -21.4761  -10.9247 O   0  0  0  0  0  0  0  0  0  0  0  0
  2  1  1  1
  2  7  1  0
  3  2  1  0
  4  3  1  0
  5  4  1  0
  5  6  2  0
  7  8  2  0
  9  5  1  0
 10 11  1  0
 10  7  1  0
 12 13  2  0
 12 11  1  0
 15 14  1  1
 15 16  1  0
 15 17  1  0
 16 12  1  0
 17 19  1  0
 18 17  2  0
M  END
$$$$
