EGA.pdb
     RDKit          3D

 19 18  0  0  1  0  0  0  0  0999 V2000
   20.3401  -12.8563  -17.0877 N   0  0  0  0  0  0  0  0  0  0  0  0
   19.3688  -11.7890  -17.3933 C   0  0  1  0  0  0  0  0  0  0  0  0
   17.9652  -12.3813  -17.3548 C   0  0  0  0  0  0  0  0  0  0  0  0
   17.6800  -13.3854  -18.4112 C   0  0  0  0  0  0  0  0  0  0  0  0
   16.2661  -13.8600  -18.1672 C   0  0  0  0  0  0  0  0  0  0  0  0
   15.3013  -13.3536  -18.8153 O   0  0  0  0  0  0  0  0  0  0  0  0
   19.3879  -10.8416  -16.2294 C   0  0  0  0  0  0  0  0  0  0  0  0
   18.8012  -11.1982  -15.1816 O   0  0  0  0  0  0  0  0  0  0  0  0
   15.9727  -14.8442  -17.2468 O   0  0  0  0  0  0  0  0  0  0  0  0
   20.0120   -9.5873  -16.2279 N   0  0  0  0  0  0  0  0  0  0  0  0
   20.1363   -8.7431  -15.0668 C   0  0  0  0  0  0  0  0  0  0  0  0
   20.8810   -7.5196  -15.4374 C   0  0  0  0  0  0  0  0  0  0  0  0
   21.0064   -7.2154  -16.6801 O   0  0  0  0  0  0  0  0  0  0  0  0
   21.2517   -4.5182  -15.7442 C   0  0  0  0  0  0  0  0  0  0  0  0
   22.1230   -5.4184  -14.9036 C   0  0  2  0  0  0  0  0  0  0  0  0
   21.4743   -6.6395  -14.5318 N   0  0  0  0  0  0  0  0  0  0  0  0
   22.5619   -4.6808  -13.7069 C   0  0  0  0  0  0  0  0  0  0  0  0
   22.1913   -5.0633  -12.5772 O   0  0  0  0  0  0  0  0  0  0  0  0
   23.3731   -3.5716  -13.7856 O   0  0  0  0  0  0  0  0  0  0  0  0
  2  1  1  1
  2  7  1  0
  3  2  1  0
  4  3  1  0
  5  4  1  0
  5  6  2  0
  7  8  2  0
  9  5  1  0
 10 11  1  0
 10  7  1  0
 12 13  2  0
 12 11  1  0
 15 14  1  1
 15 16  1  0
 15 17  1  0
 16 12  1  0
 17 19  1  0
 18 17  2  0
M  END
$$$$
