EGA.pdb
     RDKit          3D

 19 18  0  0  1  0  0  0  0  0999 V2000
   14.7366   -6.6376   -8.2708 N   0  0  0  0  0  0  0  0  0  0  0  0
   15.5691   -7.6244   -8.9842 C   0  0  1  0  0  0  0  0  0  0  0  0
   14.6525   -8.6227   -9.6814 C   0  0  0  0  0  0  0  0  0  0  0  0
   13.8485   -9.4767   -8.7705 C   0  0  0  0  0  0  0  0  0  0  0  0
   13.0258  -10.3796   -9.6603 C   0  0  0  0  0  0  0  0  0  0  0  0
   12.2222  -11.2181   -9.1517 O   0  0  0  0  0  0  0  0  0  0  0  0
   16.2283   -6.8942  -10.1177 C   0  0  0  0  0  0  0  0  0  0  0  0
   15.7203   -5.8087  -10.4819 O   0  0  0  0  0  0  0  0  0  0  0  0
   13.1140  -10.3301  -11.0356 O   0  0  0  0  0  0  0  0  0  0  0  0
   17.3693   -7.3369  -10.7996 N   0  0  0  0  0  0  0  0  0  0  0  0
   17.9831   -6.6344  -11.8978 C   0  0  0  0  0  0  0  0  0  0  0  0
   19.2360   -7.3260  -12.2730 C   0  0  0  0  0  0  0  0  0  0  0  0
   19.6986   -8.2450  -11.5023 O   0  0  0  0  0  0  0  0  0  0  0  0
   20.5933   -9.3491  -14.0728 C   0  0  0  0  0  0  0  0  0  0  0  0
   21.0232   -7.9113  -13.9178 C   0  0  2  0  0  0  0  0  0  0  0  0
   19.9803   -7.0638  -13.4236 N   0  0  0  0  0  0  0  0  0  0  0  0
   21.5215   -7.4168  -15.2124 C   0  0  0  0  0  0  0  0  0  0  0  0
   22.5581   -7.9113  -15.7030 O   0  0  0  0  0  0  0  0  0  0  0  0
   20.8826   -6.4175  -15.9108 O   0  0  0  0  0  0  0  0  0  0  0  0
  2  1  1  1
  2  7  1  0
  3  2  1  0
  4  3  1  0
  5  4  1  0
  5  6  2  0
  7  8  2  0
  9  5  1  0
 10 11  1  0
 10  7  1  0
 12 13  2  0
 12 11  1  0
 15 14  1  6
 15 16  1  0
 15 17  1  0
 16 12  1  0
 17 19  1  0
 18 17  2  0
M  END
$$$$
