EGA.pdb
     RDKit          3D

 19 18  0  0  1  0  0  0  0  0999 V2000
   20.4493  -11.9818  -17.2855 N   0  0  0  0  0  0  0  0  0  0  0  0
   19.5301  -10.8318  -17.3773 C   0  0  1  0  0  0  0  0  0  0  0  0
   18.0990  -11.3398  -17.2488 C   0  0  0  0  0  0  0  0  0  0  0  0
   17.9216  -12.4832  -16.3178 C   0  0  0  0  0  0  0  0  0  0  0  0
   17.1606  -11.9417  -15.1297 C   0  0  0  0  0  0  0  0  0  0  0  0
   17.3772  -10.7633  -14.7153 O   0  0  0  0  0  0  0  0  0  0  0  0
   19.7320  -10.0171  -16.1331 C   0  0  0  0  0  0  0  0  0  0  0  0
   20.3131  -10.5658  -15.1685 O   0  0  0  0  0  0  0  0  0  0  0  0
   16.2179  -12.6930  -14.4599 O   0  0  0  0  0  0  0  0  0  0  0  0
   19.3180   -8.6887  -15.9697 N   0  0  0  0  0  0  0  0  0  0  0  0
   19.5114   -7.9196  -14.7667 C   0  0  0  0  0  0  0  0  0  0  0  0
   20.1994   -6.6550  -15.1079 C   0  0  0  0  0  0  0  0  0  0  0  0
   20.5591   -6.4466  -16.3243 O   0  0  0  0  0  0  0  0  0  0  0  0
   20.8279   -3.2763  -13.6226 C   0  0  0  0  0  0  0  0  0  0  0  0
   21.1620   -4.4179  -14.5505 C   0  0  2  0  0  0  0  0  0  0  0  0
   20.4989   -5.6378  -14.2011 N   0  0  0  0  0  0  0  0  0  0  0  0
   22.6220   -4.6099  -14.5690 C   0  0  0  0  0  0  0  0  0  0  0  0
   23.1429   -5.4478  -13.8031 O   0  0  0  0  0  0  0  0  0  0  0  0
   23.4456   -3.8922  -15.4064 O   0  0  0  0  0  0  0  0  0  0  0  0
  2  1  1  1
  2  7  1  0
  3  2  1  0
  4  3  1  0
  5  4  1  0
  5  6  2  0
  7  8  2  0
  9  5  1  0
 10 11  1  0
 10  7  1  0
 12 13  2  0
 12 11  1  0
 15 14  1  1
 15 16  1  0
 15 17  1  0
 16 12  1  0
 17 19  1  0
 18 17  2  0
M  END
$$$$
