EGA.pdb
     RDKit          3D

 19 18  0  0  1  0  0  0  0  0999 V2000
   32.5329  -36.0873   -5.7610 N   0  0  0  0  0  0  0  0  0  0  0  0
   32.4553  -34.8146   -5.0192 C   0  0  1  0  0  0  0  0  0  0  0  0
   30.9906  -34.5045   -4.7345 C   0  0  0  0  0  0  0  0  0  0  0  0
   30.2040  -34.0602   -5.9132 C   0  0  0  0  0  0  0  0  0  0  0  0
   28.8027  -33.8033   -5.4090 C   0  0  0  0  0  0  0  0  0  0  0  0
   27.9206  -33.3295   -6.1867 O   0  0  0  0  0  0  0  0  0  0  0  0
   33.0360  -35.0714   -3.6593 C   0  0  0  0  0  0  0  0  0  0  0  0
   33.2189  -34.0838   -2.9107 O   0  0  0  0  0  0  0  0  0  0  0  0
   28.4331  -34.0679   -4.1070 O   0  0  0  0  0  0  0  0  0  0  0  0
   33.3900  -36.3336   -3.1650 N   0  0  0  0  0  0  0  0  0  0  0  0
   33.9533  -36.5661   -1.8592 C   0  0  0  0  0  0  0  0  0  0  0  0
   32.8546  -36.7380   -0.8834 C   0  0  0  0  0  0  0  0  0  0  0  0
   31.6379  -36.6471   -1.2883 O   0  0  0  0  0  0  0  0  0  0  0  0
   32.3993  -37.9124    2.6657 C   0  0  0  0  0  0  0  0  0  0  0  0
   31.9518  -37.2400    1.3915 C   0  0  2  0  0  0  0  0  0  0  0  0
   33.0264  -37.0002    0.4761 N   0  0  0  0  0  0  0  0  0  0  0  0
   31.2683  -35.9798    1.7281 C   0  0  0  0  0  0  0  0  0  0  0  0
   31.8176  -34.8905    1.4604 O   0  0  0  0  0  0  0  0  0  0  0  0
   30.0333  -35.9548    2.3353 O   0  0  0  0  0  0  0  0  0  0  0  0
  2  1  1  6
  2  7  1  0
  3  2  1  0
  4  3  1  0
  5  4  1  0
  5  6  2  0
  7  8  2  0
  9  5  1  0
 10 11  1  0
 10  7  1  0
 12 13  2  0
 12 11  1  0
 15 14  1  1
 15 16  1  0
 15 17  1  0
 16 12  1  0
 17 19  1  0
 18 17  2  0
M  END
$$$$
