EGA.pdb
     RDKit          3D

 19 18  0  0  1  0  0  0  0  0999 V2000
   16.6457  -10.0498  -16.5229 N   0  0  0  0  0  0  0  0  0  0  0  0
   17.0224  -10.2008  -15.1047 C   0  0  1  0  0  0  0  0  0  0  0  0
   17.1224  -11.6869  -14.7822 C   0  0  0  0  0  0  0  0  0  0  0  0
   16.2522  -12.5660  -15.6040 C   0  0  0  0  0  0  0  0  0  0  0  0
   16.4495  -13.9665  -15.0716 C   0  0  0  0  0  0  0  0  0  0  0  0
   15.5287  -14.5344  -14.4104 O   0  0  0  0  0  0  0  0  0  0  0  0
   18.4362   -9.7130  -14.9792 C   0  0  0  0  0  0  0  0  0  0  0  0
   18.9818   -9.7988  -13.8549 O   0  0  0  0  0  0  0  0  0  0  0  0
   17.6169  -14.6709  -15.2786 O   0  0  0  0  0  0  0  0  0  0  0  0
   19.1911   -9.1675  -16.0260 N   0  0  0  0  0  0  0  0  0  0  0  0
   20.5263   -8.6463  -15.8789 C   0  0  0  0  0  0  0  0  0  0  0  0
   20.4570   -7.3172  -15.2328 C   0  0  0  0  0  0  0  0  0  0  0  0
   19.3953   -6.6065  -15.3754 O   0  0  0  0  0  0  0  0  0  0  0  0
   22.2207   -5.3462  -12.5917 C   0  0  0  0  0  0  0  0  0  0  0  0
   21.3868   -5.4602  -13.8438 C   0  0  2  0  0  0  0  0  0  0  0  0
   21.4696   -6.7511  -14.4577 N   0  0  0  0  0  0  0  0  0  0  0  0
   21.7969   -4.4099  -14.7912 C   0  0  0  0  0  0  0  0  0  0  0  0
   21.6624   -3.2090  -14.4756 O   0  0  0  0  0  0  0  0  0  0  0  0
   22.3276   -4.7034  -16.0268 O   0  0  0  0  0  0  0  0  0  0  0  0
  2  1  1  6
  2  7  1  0
  3  2  1  0
  4  3  1  0
  5  4  1  0
  5  6  2  0
  7  8  2  0
  9  5  1  0
 10 11  1  0
 10  7  1  0
 12 13  2  0
 12 11  1  0
 15 14  1  1
 15 16  1  0
 15 17  1  0
 16 12  1  0
 17 19  1  0
 18 17  2  0
M  END
$$$$
