EGA.pdb
     RDKit          3D

 19 18  0  0  1  0  0  0  0  0999 V2000
   26.5938  -20.6238  -17.2894 N   0  0  0  0  0  0  0  0  0  0  0  0
   27.7118  -19.7048  -17.0038 C   0  0  1  0  0  0  0  0  0  0  0  0
   27.6171  -18.5131  -17.9490 C   0  0  0  0  0  0  0  0  0  0  0  0
   26.2812  -17.8673  -18.0107 C   0  0  0  0  0  0  0  0  0  0  0  0
   26.3796  -16.8026  -19.0786 C   0  0  0  0  0  0  0  0  0  0  0  0
   26.5641  -15.5901  -18.7571 O   0  0  0  0  0  0  0  0  0  0  0  0
   27.4466  -19.1093  -15.6519 C   0  0  0  0  0  0  0  0  0  0  0  0
   28.3692  -18.4529  -15.1161 O   0  0  0  0  0  0  0  0  0  0  0  0
   26.2742  -17.1001  -20.4211 O   0  0  0  0  0  0  0  0  0  0  0  0
   26.2441  -19.2340  -14.9438 N   0  0  0  0  0  0  0  0  0  0  0  0
   26.0286  -18.7256  -13.6129 C   0  0  0  0  0  0  0  0  0  0  0  0
   25.5397  -19.8237  -12.7502 C   0  0  0  0  0  0  0  0  0  0  0  0
   24.9226  -20.8148  -13.2881 O   0  0  0  0  0  0  0  0  0  0  0  0
   25.6671  -20.8749   -9.1215 C   0  0  0  0  0  0  0  0  0  0  0  0
   25.1428  -20.9101  -10.5357 C   0  0  2  0  0  0  0  0  0  0  0  0
   25.6958  -19.8822  -11.3650 N   0  0  0  0  0  0  0  0  0  0  0  0
   23.6735  -20.8155  -10.5055 C   0  0  0  0  0  0  0  0  0  0  0  0
   23.1143  -19.7779  -10.9186 O   0  0  0  0  0  0  0  0  0  0  0  0
   22.8823  -21.8377  -10.0324 O   0  0  0  0  0  0  0  0  0  0  0  0
  2  1  1  6
  2  7  1  0
  3  2  1  0
  4  3  1  0
  5  4  1  0
  5  6  2  0
  7  8  2  0
  9  5  1  0
 10 11  1  0
 10  7  1  0
 12 13  2  0
 12 11  1  0
 15 14  1  1
 15 16  1  0
 15 17  1  0
 16 12  1  0
 17 19  1  0
 18 17  2  0
M  END
$$$$
