EGA.pdb
     RDKit          3D

 19 18  0  0  1  0  0  0  0  0999 V2000
   25.5596   -9.4534  -18.2420 N   0  0  0  0  0  0  0  0  0  0  0  0
   24.1947   -9.9776  -18.0468 C   0  0  1  0  0  0  0  0  0  0  0  0
   24.2901  -11.3722  -17.4397 C   0  0  0  0  0  0  0  0  0  0  0  0
   24.8726  -12.4056  -18.3332 C   0  0  0  0  0  0  0  0  0  0  0  0
   24.8329  -13.7014  -17.5566 C   0  0  0  0  0  0  0  0  0  0  0  0
   23.9220  -14.5539  -17.7822 O   0  0  0  0  0  0  0  0  0  0  0  0
   23.5687   -9.1568  -16.9572 C   0  0  0  0  0  0  0  0  0  0  0  0
   24.3153   -8.7447  -16.0397 O   0  0  0  0  0  0  0  0  0  0  0  0
   25.7676  -14.0039  -16.5888 O   0  0  0  0  0  0  0  0  0  0  0  0
   22.2109   -8.8182  -16.8893 N   0  0  0  0  0  0  0  0  0  0  0  0
   21.6320   -7.9833  -15.8675 C   0  0  0  0  0  0  0  0  0  0  0  0
   20.1920   -7.7995  -16.1533 C   0  0  0  0  0  0  0  0  0  0  0  0
   19.6944   -8.3174  -17.2194 O   0  0  0  0  0  0  0  0  0  0  0  0
   17.1172   -6.4486  -14.4285 C   0  0  0  0  0  0  0  0  0  0  0  0
   17.8976   -6.9752  -15.6075 C   0  0  2  0  0  0  0  0  0  0  0  0
   19.2997   -7.0959  -15.3437 N   0  0  0  0  0  0  0  0  0  0  0  0
   17.6632   -6.0994  -16.7680 C   0  0  0  0  0  0  0  0  0  0  0  0
   18.5236   -5.2505  -17.0829 O   0  0  0  0  0  0  0  0  0  0  0  0
   16.5183   -6.1794  -17.5278 O   0  0  0  0  0  0  0  0  0  0  0  0
  2  1  1  1
  2  7  1  0
  3  2  1  0
  4  3  1  0
  5  4  1  0
  5  6  2  0
  7  8  2  0
  9  5  1  0
 10 11  1  0
 10  7  1  0
 12 13  2  0
 12 11  1  0
 15 14  1  1
 15 16  1  0
 15 17  1  0
 16 12  1  0
 17 19  1  0
 18 17  2  0
M  END
$$$$
