EGA.pdb
     RDKit          3D

 19 18  0  0  1  0  0  0  0  0999 V2000
   19.0424  -11.2313  -16.3458 N   0  0  0  0  0  0  0  0  0  0  0  0
   17.7462  -10.7650  -16.8733 C   0  0  1  0  0  0  0  0  0  0  0  0
   16.6688  -11.7665  -16.4749 C   0  0  0  0  0  0  0  0  0  0  0  0
   17.1761  -13.0256  -15.8726 C   0  0  0  0  0  0  0  0  0  0  0  0
   15.9603  -13.8840  -15.6102 C   0  0  0  0  0  0  0  0  0  0  0  0
   14.9704  -13.8489  -16.4017 O   0  0  0  0  0  0  0  0  0  0  0  0
   17.3859   -9.5286  -16.1024 C   0  0  0  0  0  0  0  0  0  0  0  0
   16.3432   -8.9200  -16.4364 O   0  0  0  0  0  0  0  0  0  0  0  0
   15.8787  -14.7242  -14.5197 O   0  0  0  0  0  0  0  0  0  0  0  0
   18.1298   -9.0036  -15.0376 N   0  0  0  0  0  0  0  0  0  0  0  0
   17.8020   -7.7863  -14.3399 C   0  0  0  0  0  0  0  0  0  0  0  0
   19.0495   -7.0460  -14.0491 C   0  0  0  0  0  0  0  0  0  0  0  0
   18.9874   -5.9585  -13.3664 O   0  0  0  0  0  0  0  0  0  0  0  0
   22.7403   -7.6901  -14.1132 C   0  0  0  0  0  0  0  0  0  0  0  0
   21.5343   -6.7856  -14.0542 C   0  0  2  0  0  0  0  0  0  0  0  0
   20.3247   -7.4358  -14.4595 N   0  0  0  0  0  0  0  0  0  0  0  0
   21.7853   -5.5959  -14.8851 C   0  0  0  0  0  0  0  0  0  0  0  0
   21.1593   -5.4490  -15.9559 O   0  0  0  0  0  0  0  0  0  0  0  0
   22.6954   -4.6282  -14.5245 O   0  0  0  0  0  0  0  0  0  0  0  0
  2  1  1  1
  2  7  1  0
  3  2  1  0
  4  3  1  0
  5  4  1  0
  5  6  2  0
  7  8  2  0
  9  5  1  0
 10 11  1  0
 10  7  1  0
 12 13  2  0
 12 11  1  0
 15 14  1  6
 15 16  1  0
 15 17  1  0
 16 12  1  0
 17 19  1  0
 18 17  2  0
M  END
$$$$
