EGA.pdb
     RDKit          3D

 19 18  0  0  1  0  0  0  0  0999 V2000
   17.6359  -11.0398  -15.1359 N   0  0  0  0  0  0  0  0  0  0  0  0
   18.6814  -11.7115  -15.9306 C   0  0  1  0  0  0  0  0  0  0  0  0
   18.0245  -12.3897  -17.1269 C   0  0  0  0  0  0  0  0  0  0  0  0
   16.9048  -11.6308  -17.7400 C   0  0  0  0  0  0  0  0  0  0  0  0
   16.3640  -12.5045  -18.8482 C   0  0  0  0  0  0  0  0  0  0  0  0
   15.5638  -13.4514  -18.5826 O   0  0  0  0  0  0  0  0  0  0  0  0
   19.5162  -10.6284  -16.5492 C   0  0  0  0  0  0  0  0  0  0  0  0
   20.5093  -10.9778  -17.2281 O   0  0  0  0  0  0  0  0  0  0  0  0
   16.7122  -12.3118  -20.1685 O   0  0  0  0  0  0  0  0  0  0  0  0
   19.2682   -9.2553  -16.4228 N   0  0  0  0  0  0  0  0  0  0  0  0
   20.1110   -8.2236  -16.9719 C   0  0  0  0  0  0  0  0  0  0  0  0
   20.7674   -7.4961  -15.8635 C   0  0  0  0  0  0  0  0  0  0  0  0
   20.3871   -7.7197  -14.6560 O   0  0  0  0  0  0  0  0  0  0  0  0
   23.7081   -5.1870  -15.3372 C   0  0  0  0  0  0  0  0  0  0  0  0
   22.4366   -5.8890  -14.9290 C   0  0  2  0  0  0  0  0  0  0  0  0
   21.7942   -6.5638  -16.0162 N   0  0  0  0  0  0  0  0  0  0  0  0
   21.5231   -4.9098  -14.3161 C   0  0  0  0  0  0  0  0  0  0  0  0
   21.8003   -4.4236  -13.1996 O   0  0  0  0  0  0  0  0  0  0  0  0
   20.3604   -4.5058  -14.9321 O   0  0  0  0  0  0  0  0  0  0  0  0
  2  1  1  1
  2  7  1  0
  3  2  1  0
  4  3  1  0
  5  4  1  0
  5  6  2  0
  7  8  2  0
  9  5  1  0
 10 11  1  0
 10  7  1  0
 12 13  2  0
 12 11  1  0
 15 14  1  6
 15 16  1  0
 15 17  1  0
 16 12  1  0
 17 19  1  0
 18 17  2  0
M  END
$$$$
