EGA.pdb
     RDKit          3D

 19 18  0  0  1  0  0  0  0  0999 V2000
   19.6601   -8.7163  -15.9691 N   0  0  0  0  0  0  0  0  0  0  0  0
   20.6924   -8.4696  -14.9448 C   0  0  1  0  0  0  0  0  0  0  0  0
   21.8429   -9.4440  -15.1672 C   0  0  0  0  0  0  0  0  0  0  0  0
   22.0095   -9.9069  -16.5684 C   0  0  0  0  0  0  0  0  0  0  0  0
   23.2806  -10.7240  -16.5912 C   0  0  0  0  0  0  0  0  0  0  0  0
   23.8779  -11.0070  -15.5093 O   0  0  0  0  0  0  0  0  0  0  0  0
   21.2953   -7.1302  -15.2534 C   0  0  0  0  0  0  0  0  0  0  0  0
   21.0166   -6.6092  -16.3580 O   0  0  0  0  0  0  0  0  0  0  0  0
   23.8330  -11.1861  -17.7673 O   0  0  0  0  0  0  0  0  0  0  0  0
   22.1478   -6.4195  -14.3983 N   0  0  0  0  0  0  0  0  0  0  0  0
   22.7157   -5.1310  -14.7042 C   0  0  0  0  0  0  0  0  0  0  0  0
   21.8449   -4.0745  -14.1435 C   0  0  0  0  0  0  0  0  0  0  0  0
   20.8829   -4.4076  -13.3586 O   0  0  0  0  0  0  0  0  0  0  0  0
   21.6415   -0.2975  -14.0978 C   0  0  0  0  0  0  0  0  0  0  0  0
   21.1561   -1.6964  -13.8088 C   0  0  2  0  0  0  0  0  0  0  0  0
   21.9805   -2.7091  -14.3961 N   0  0  0  0  0  0  0  0  0  0  0  0
   19.7651   -1.8277  -14.2742 C   0  0  0  0  0  0  0  0  0  0  0  0
   18.8369   -1.3611  -13.5809 O   0  0  0  0  0  0  0  0  0  0  0  0
   19.4435   -2.4539  -15.4570 O   0  0  0  0  0  0  0  0  0  0  0  0
  2  1  1  6
  2  7  1  0
  3  2  1  0
  4  3  1  0
  5  4  1  0
  5  6  2  0
  7  8  2  0
  9  5  1  0
 10 11  1  0
 10  7  1  0
 12 13  2  0
 12 11  1  0
 15 14  1  6
 15 16  1  0
 15 17  1  0
 16 12  1  0
 17 19  1  0
 18 17  2  0
M  END
$$$$
