VSR.pdb
     RDKit          3D

 25 24  0  0  1  0  0  0  0  0999 V2000
    8.2410  -12.0487   18.0816 C   0  0  0  0  0  0  0  0  0  0  0  0
    7.7793  -13.2804   18.8766 C   0  0  2  0  0  0  0  0  0  0  0  0
    7.2954  -12.7314   20.2010 C   0  0  0  0  0  0  0  0  0  0  0  0
    9.0281  -14.1013   19.1306 C   0  0  2  0  0  0  0  0  0  0  0  0
    9.3240  -14.7354   17.8245 N   0  0  0  0  0  0  0  0  0  0  0  0
    8.8281  -15.2001   20.0965 C   0  0  0  0  0  0  0  0  0  0  0  0
    8.5982  -14.9082   21.3041 O   0  0  0  0  0  0  0  0  0  0  0  0
   10.1128  -19.0656   19.4322 O   0  0  0  0  0  0  0  0  0  0  0  0
    8.8746  -18.9419   20.0603 C   0  0  0  0  0  0  0  0  0  0  0  0
    8.7745  -17.6078   20.8259 C   0  0  2  0  0  0  0  0  0  0  0  0
    8.8649  -16.5832   19.8083 N   0  0  0  0  0  0  0  0  0  0  0  0
    9.7795  -17.5275   21.8814 C   0  0  0  0  0  0  0  0  0  0  0  0
   10.9483  -17.1158   21.5630 O   0  0  0  0  0  0  0  0  0  0  0  0
   11.2293  -14.8084   31.0147 N   0  0  0  0  0  0  0  0  0  0  0  0
   10.5377  -14.7532   29.7532 C   0  0  0  0  0  0  0  0  0  0  0  0
    9.5534  -13.9439   29.6611 N   0  0  0  0  0  0  0  0  0  0  0  0
   10.9138  -15.5455   28.6688 N   0  0  0  0  0  0  0  0  0  0  0  0
   10.0847  -15.5605   27.4445 C   0  0  0  0  0  0  0  0  0  0  0  0
   10.7936  -16.4794   26.5074 C   0  0  0  0  0  0  0  0  0  0  0  0
   10.1480  -16.8562   25.2630 C   0  0  0  0  0  0  0  0  0  0  0  0
   10.7201  -17.7400   24.2355 C   0  0  2  0  0  0  0  0  0  0  0  0
    9.5844  -17.8638   23.2382 N   0  0  0  0  0  0  0  0  0  0  0  0
   11.2022  -19.0643   24.5338 C   0  0  0  0  0  0  0  0  0  0  0  0
   10.4707  -20.1206   24.3525 O   0  0  0  0  0  0  0  0  0  0  0  0
   12.4583  -19.3606   25.0203 O   0  0  0  0  0  0  0  0  0  0  0  0
  2  1  1  6
  2  3  1  0
  4  2  1  0
  4  5  1  6
  4  6  1  0
  6  7  2  0
 10  9  1  6
  9  8  1  0
 10 12  1  0
 11  6  1  0
 11 10  1  0
 12 13  2  0
 15 14  1  0
 16 15  2  0
 17 15  1  0
 18 17  1  0
 19 18  1  0
 20 19  1  0
 21 20  1  1
 21 23  1  0
 22 21  1  0
 22 12  1  0
 23 25  1  0
 24 23  2  0
M  END
$$$$
