VSR.pdb
     RDKit          3D

 25 24  0  0  1  0  0  0  0  0999 V2000
    9.1154  -16.6831   16.8463 C   0  0  0  0  0  0  0  0  0  0  0  0
    7.6787  -16.1616   16.6842 C   0  0  2  0  0  0  0  0  0  0  0  0
    7.3958  -16.2511   15.2005 C   0  0  0  0  0  0  0  0  0  0  0  0
    7.7238  -14.6967   17.0715 C   0  0  2  0  0  0  0  0  0  0  0  0
    8.5985  -14.0727   16.0513 N   0  0  0  0  0  0  0  0  0  0  0  0
    8.3609  -14.4497   18.3805 C   0  0  0  0  0  0  0  0  0  0  0  0
    9.6225  -14.4417   18.4461 O   0  0  0  0  0  0  0  0  0  0  0  0
    6.2302  -14.3435   21.9961 O   0  0  0  0  0  0  0  0  0  0  0  0
    7.3545  -13.5325   21.8505 C   0  0  0  0  0  0  0  0  0  0  0  0
    8.3711  -14.1666   20.8808 C   0  0  2  0  0  0  0  0  0  0  0  0
    7.6932  -14.2123   19.6033 N   0  0  0  0  0  0  0  0  0  0  0  0
    8.8463  -15.4531   21.3801 C   0  0  0  0  0  0  0  0  0  0  0  0
    8.1254  -16.4853   21.1521 O   0  0  0  0  0  0  0  0  0  0  0  0
   13.4706  -18.3417   17.7060 N   0  0  0  0  0  0  0  0  0  0  0  0
   13.4128  -19.2273   18.8396 C   0  0  0  0  0  0  0  0  0  0  0  0
   13.0940  -20.4440   18.6152 N   0  0  0  0  0  0  0  0  0  0  0  0
   13.6888  -18.7892   20.1346 N   0  0  0  0  0  0  0  0  0  0  0  0
   13.5890  -17.3508   20.4629 C   0  0  0  0  0  0  0  0  0  0  0  0
   12.1529  -17.1287   20.7994 C   0  0  0  0  0  0  0  0  0  0  0  0
   11.7154  -17.2921   22.1739 C   0  0  0  0  0  0  0  0  0  0  0  0
   10.3554  -17.0399   22.6749 C   0  0  2  0  0  0  0  0  0  0  0  0
   10.0407  -15.6726   22.0993 N   0  0  0  0  0  0  0  0  0  0  0  0
   10.0388  -17.0193   24.0801 C   0  0  0  0  0  0  0  0  0  0  0  0
   10.0600  -18.0943   24.8065 O   0  0  0  0  0  0  0  0  0  0  0  0
    9.6980  -15.8936   24.8004 O   0  0  0  0  0  0  0  0  0  0  0  0
  2  1  1  6
  2  3  1  0
  4  2  1  0
  4  5  1  6
  4  6  1  0
  6  7  2  0
 10  9  1  1
  9  8  1  0
 10 12  1  0
 11  6  1  0
 11 10  1  0
 12 13  2  0
 15 14  1  0
 16 15  2  0
 17 15  1  0
 18 17  1  0
 19 18  1  0
 20 19  1  0
 21 20  1  1
 21 23  1  0
 22 21  1  0
 22 12  1  0
 23 25  1  0
 24 23  2  0
M  END
$$$$
