VSR.pdb
     RDKit          3D

 25 24  0  0  1  0  0  0  0  0999 V2000
    6.0755  -15.1554   20.0291 C   0  0  0  0  0  0  0  0  0  0  0  0
    7.1387  -14.4166   19.2008 C   0  0  2  0  0  0  0  0  0  0  0  0
    8.2839  -15.3971   19.0717 C   0  0  0  0  0  0  0  0  0  0  0  0
    7.6012  -13.2568   20.0605 C   0  0  2  0  0  0  0  0  0  0  0  0
    8.6074  -12.5586   19.2267 N   0  0  0  0  0  0  0  0  0  0  0  0
    8.2943  -13.6747   21.2955 C   0  0  0  0  0  0  0  0  0  0  0  0
    9.5084  -14.0160   21.2205 O   0  0  0  0  0  0  0  0  0  0  0  0
    6.3670  -14.7428   24.8016 O   0  0  0  0  0  0  0  0  0  0  0  0
    7.5069  -13.9529   24.9418 C   0  0  0  0  0  0  0  0  0  0  0  0
    8.4719  -14.1609   23.7580 C   0  0  2  0  0  0  0  0  0  0  0  0
    7.7315  -13.7341   22.5905 N   0  0  0  0  0  0  0  0  0  0  0  0
    8.9667  -15.5334   23.7143 C   0  0  0  0  0  0  0  0  0  0  0  0
    8.2989  -16.3875   23.0349 O   0  0  0  0  0  0  0  0  0  0  0  0
   15.1274  -20.3799   23.6276 N   0  0  0  0  0  0  0  0  0  0  0  0
   15.1260  -20.1791   22.2019 C   0  0  0  0  0  0  0  0  0  0  0  0
   16.2095  -20.4336   21.5747 N   0  0  0  0  0  0  0  0  0  0  0  0
   13.9971  -19.7245   21.5207 N   0  0  0  0  0  0  0  0  0  0  0  0
   13.4652  -18.3724   21.7958 C   0  0  0  0  0  0  0  0  0  0  0  0
   12.3864  -18.5783   22.8052 C   0  0  0  0  0  0  0  0  0  0  0  0
   11.6203  -17.4340   23.2647 C   0  0  0  0  0  0  0  0  0  0  0  0
   10.5217  -17.4763   24.2421 C   0  0  2  0  0  0  0  0  0  0  0  0
   10.1266  -16.0167   24.3568 N   0  0  0  0  0  0  0  0  0  0  0  0
   10.6885  -18.0024   25.5728 C   0  0  0  0  0  0  0  0  0  0  0  0
   10.9186  -19.2604   25.7921 O   0  0  0  0  0  0  0  0  0  0  0  0
   10.6368  -17.2579   26.7327 O   0  0  0  0  0  0  0  0  0  0  0  0
  2  1  1  1
  2  3  1  0
  4  2  1  0
  4  5  1  6
  4  6  1  0
  6  7  2  0
 10  9  1  1
  9  8  1  0
 10 12  1  0
 11  6  1  0
 11 10  1  0
 12 13  2  0
 15 14  1  0
 16 15  2  0
 17 15  1  0
 18 17  1  0
 19 18  1  0
 20 19  1  0
 21 20  1  6
 21 23  1  0
 22 21  1  0
 22 12  1  0
 23 25  1  0
 24 23  2  0
M  END
$$$$
