VSR.pdb
     RDKit          3D

 25 24  0  0  1  0  0  0  0  0999 V2000
    7.4763  -10.9114   25.6860 C   0  0  0  0  0  0  0  0  0  0  0  0
    6.6319  -11.7421   26.6655 C   0  0  2  0  0  0  0  0  0  0  0  0
    7.6296  -12.6057   27.4058 C   0  0  0  0  0  0  0  0  0  0  0  0
    5.7686  -12.6443   25.8059 C   0  0  2  0  0  0  0  0  0  0  0  0
    4.9780  -13.4337   26.7790 N   0  0  0  0  0  0  0  0  0  0  0  0
    6.5409  -13.6148   25.0047 C   0  0  0  0  0  0  0  0  0  0  0  0
    6.9561  -14.6673   25.5669 O   0  0  0  0  0  0  0  0  0  0  0  0
    8.2257  -14.9151   20.5945 O   0  0  0  0  0  0  0  0  0  0  0  0
    7.7322  -13.9527   21.4739 C   0  0  0  0  0  0  0  0  0  0  0  0
    7.4916  -14.5541   22.8725 C   0  0  2  0  0  0  0  0  0  0  0  0
    6.8742  -13.4918   23.6368 N   0  0  0  0  0  0  0  0  0  0  0  0
    8.7261  -15.0907   23.4367 C   0  0  0  0  0  0  0  0  0  0  0  0
    9.5175  -14.2756   24.0253 O   0  0  0  0  0  0  0  0  0  0  0  0
   13.1224  -21.4617   23.4553 N   0  0  0  0  0  0  0  0  0  0  0  0
   13.1473  -21.6620   24.8809 C   0  0  0  0  0  0  0  0  0  0  0  0
   14.1334  -22.3164   25.3621 N   0  0  0  0  0  0  0  0  0  0  0  0
   12.1430  -21.1696   25.7140 N   0  0  0  0  0  0  0  0  0  0  0  0
   10.9253  -20.5712   25.1261 C   0  0  0  0  0  0  0  0  0  0  0  0
   11.2901  -19.1539   24.8381 C   0  0  0  0  0  0  0  0  0  0  0  0
   10.2864  -18.2643   24.2825 C   0  0  0  0  0  0  0  0  0  0  0  0
   10.4947  -16.8504   23.9337 C   0  0  2  0  0  0  0  0  0  0  0  0
    9.1373  -16.4403   23.3963 N   0  0  0  0  0  0  0  0  0  0  0  0
   11.4980  -16.4246   22.9917 C   0  0  0  0  0  0  0  0  0  0  0  0
   12.7326  -16.2307   23.3410 O   0  0  0  0  0  0  0  0  0  0  0  0
   11.2786  -16.1907   21.6502 O   0  0  0  0  0  0  0  0  0  0  0  0
  2  1  1  6
  2  3  1  0
  4  2  1  0
  4  5  1  1
  4  6  1  0
  6  7  2  0
 10  9  1  6
  9  8  1  0
 10 12  1  0
 11  6  1  0
 11 10  1  0
 12 13  2  0
 15 14  1  0
 16 15  2  0
 17 15  1  0
 18 17  1  0
 19 18  1  0
 20 19  1  0
 21 20  1  6
 21 23  1  0
 22 21  1  0
 22 12  1  0
 23 25  1  0
 24 23  2  0
M  END
$$$$
