VSR.pdb
     RDKit          3D

 25 24  0  0  1  0  0  0  0  0999 V2000
    7.7292  -13.3144   21.1090 C   0  0  0  0  0  0  0  0  0  0  0  0
    8.6257  -13.2100   19.8650 C   0  0  2  0  0  0  0  0  0  0  0  0
    8.0903  -12.0218   19.0963 C   0  0  0  0  0  0  0  0  0  0  0  0
    8.3554  -14.4615   19.0534 C   0  0  2  0  0  0  0  0  0  0  0  0
    6.9042  -14.4037   18.7598 N   0  0  0  0  0  0  0  0  0  0  0  0
    8.5841  -15.7135   19.8020 C   0  0  0  0  0  0  0  0  0  0  0  0
    7.7005  -16.0988   20.6188 O   0  0  0  0  0  0  0  0  0  0  0  0
   11.7159  -18.2956   19.0444 O   0  0  0  0  0  0  0  0  0  0  0  0
   10.5720  -18.7657   19.6873 C   0  0  0  0  0  0  0  0  0  0  0  0
    9.9541  -17.6743   20.5834 C   0  0  2  0  0  0  0  0  0  0  0  0
    9.7161  -16.5534   19.6998 N   0  0  0  0  0  0  0  0  0  0  0  0
   10.8059  -17.3902   21.7341 C   0  0  0  0  0  0  0  0  0  0  0  0
   11.6986  -16.4826   21.6066 O   0  0  0  0  0  0  0  0  0  0  0  0
    7.2571  -14.0430   26.1801 N   0  0  0  0  0  0  0  0  0  0  0  0
    8.3838  -13.9842   27.0745 C   0  0  0  0  0  0  0  0  0  0  0  0
    8.3896  -13.0507   27.9467 N   0  0  0  0  0  0  0  0  0  0  0  0
    9.4333  -14.8999   27.0024 N   0  0  0  0  0  0  0  0  0  0  0  0
    9.4684  -15.8961   25.9102 C   0  0  0  0  0  0  0  0  0  0  0  0
   10.6568  -16.7491   26.2015 C   0  0  0  0  0  0  0  0  0  0  0  0
   10.9802  -17.8420   25.3024 C   0  0  0  0  0  0  0  0  0  0  0  0
   11.7675  -17.7277   24.0649 C   0  0  2  0  0  0  0  0  0  0  0  0
   10.7392  -18.0278   22.9914 N   0  0  0  0  0  0  0  0  0  0  0  0
   12.9319  -18.5367   23.8101 C   0  0  0  0  0  0  0  0  0  0  0  0
   12.8523  -19.6954   23.2316 O   0  0  0  0  0  0  0  0  0  0  0  0
   14.2272  -18.1856   24.1285 O   0  0  0  0  0  0  0  0  0  0  0  0
  2  1  1  1
  2  3  1  0
  4  2  1  0
  4  5  1  1
  4  6  1  0
  6  7  2  0
 10  9  1  6
  9  8  1  0
 10 12  1  0
 11  6  1  0
 11 10  1  0
 12 13  2  0
 15 14  1  0
 16 15  2  0
 17 15  1  0
 18 17  1  0
 19 18  1  0
 20 19  1  0
 21 20  1  1
 21 23  1  0
 22 21  1  0
 22 12  1  0
 23 25  1  0
 24 23  2  0
M  END
$$$$
