VSR.pdb
     RDKit          3D

 25 24  0  0  1  0  0  0  0  0999 V2000
    8.0298  -14.4201   20.3204 C   0  0  0  0  0  0  0  0  0  0  0  0
    8.5356  -13.1135   19.6885 C   0  0  2  0  0  0  0  0  0  0  0  0
    7.2872  -12.3049   19.4114 C   0  0  0  0  0  0  0  0  0  0  0  0
    9.1511  -13.5071   18.3602 C   0  0  2  0  0  0  0  0  0  0  0  0
    8.0875  -14.2790   17.6758 N   0  0  0  0  0  0  0  0  0  0  0  0
   10.3109  -14.4116   18.4899 C   0  0  0  0  0  0  0  0  0  0  0  0
   10.2012  -15.5982   18.0702 O   0  0  0  0  0  0  0  0  0  0  0  0
   15.0553  -14.9890   18.6959 O   0  0  0  0  0  0  0  0  0  0  0  0
   13.9237  -14.1802   18.7868 C   0  0  0  0  0  0  0  0  0  0  0  0
   12.6717  -15.0171   19.1159 C   0  0  2  0  0  0  0  0  0  0  0  0
   11.5678  -14.0842   19.0469 N   0  0  0  0  0  0  0  0  0  0  0  0
   12.8208  -15.7124   20.3905 C   0  0  0  0  0  0  0  0  0  0  0  0
   12.6307  -15.0409   21.4629 O   0  0  0  0  0  0  0  0  0  0  0  0
   11.2669  -22.0690   19.2360 N   0  0  0  0  0  0  0  0  0  0  0  0
   12.6098  -22.5168   19.4982 C   0  0  0  0  0  0  0  0  0  0  0  0
   12.7807  -23.7671   19.6975 N   0  0  0  0  0  0  0  0  0  0  0  0
   13.6888  -21.6340   19.5381 N   0  0  0  0  0  0  0  0  0  0  0  0
   13.4594  -20.1822   19.3758 C   0  0  0  0  0  0  0  0  0  0  0  0
   12.6699  -19.7780   20.5750 C   0  0  0  0  0  0  0  0  0  0  0  0
   13.3445  -19.1105   21.6735 C   0  0  0  0  0  0  0  0  0  0  0  0
   13.3139  -17.6649   21.9449 C   0  0  2  0  0  0  0  0  0  0  0  0
   13.1581  -17.0726   20.5575 N   0  0  0  0  0  0  0  0  0  0  0  0
   14.3927  -16.9781   22.6079 C   0  0  0  0  0  0  0  0  0  0  0  0
   15.2282  -16.2234   21.9629 O   0  0  0  0  0  0  0  0  0  0  0  0
   14.6526  -17.0286   23.9615 O   0  0  0  0  0  0  0  0  0  0  0  0
  2  1  1  6
  2  3  1  0
  4  2  1  0
  4  5  1  6
  4  6  1  0
  6  7  2  0
 10  9  1  1
  9  8  1  0
 10 12  1  0
 11  6  1  0
 11 10  1  0
 12 13  2  0
 15 14  1  0
 16 15  2  0
 17 15  1  0
 18 17  1  0
 19 18  1  0
 20 19  1  0
 21 20  1  6
 21 23  1  0
 22 21  1  0
 22 12  1  0
 23 25  1  0
 24 23  2  0
M  END
$$$$
