VSR.pdb
     RDKit          3D

 25 24  0  0  1  0  0  0  0  0999 V2000
    8.1924  -15.1596   19.9222 C   0  0  0  0  0  0  0  0  0  0  0  0
    6.8430  -14.4778   20.1986 C   0  0  2  0  0  0  0  0  0  0  0  0
    6.3228  -14.0747   18.8361 C   0  0  0  0  0  0  0  0  0  0  0  0
    7.1675  -13.2169   20.9751 C   0  0  2  0  0  0  0  0  0  0  0  0
    8.1023  -12.4743   20.0976 N   0  0  0  0  0  0  0  0  0  0  0  0
    7.8872  -13.4690   22.2395 C   0  0  0  0  0  0  0  0  0  0  0  0
    9.1337  -13.6701   22.1952 O   0  0  0  0  0  0  0  0  0  0  0  0
    5.9944  -14.2601   25.8678 O   0  0  0  0  0  0  0  0  0  0  0  0
    7.1363  -13.4612   25.8968 C   0  0  0  0  0  0  0  0  0  0  0  0
    8.0792  -13.8029   24.7262 C   0  0  2  0  0  0  0  0  0  0  0  0
    7.3169  -13.5089   23.5320 N   0  0  0  0  0  0  0  0  0  0  0  0
    8.5734  -15.1725   24.8281 C   0  0  0  0  0  0  0  0  0  0  0  0
    7.9242  -16.0888   24.2148 O   0  0  0  0  0  0  0  0  0  0  0  0
   10.3851  -20.2259   21.6769 N   0  0  0  0  0  0  0  0  0  0  0  0
   11.8145  -20.3877   21.7355 C   0  0  0  0  0  0  0  0  0  0  0  0
   12.2887  -21.5236   21.3935 N   0  0  0  0  0  0  0  0  0  0  0  0
   12.6587  -19.3571   22.1482 N   0  0  0  0  0  0  0  0  0  0  0  0
   12.0878  -18.0546   22.5534 C   0  0  0  0  0  0  0  0  0  0  0  0
   11.9623  -18.1313   24.0377 C   0  0  0  0  0  0  0  0  0  0  0  0
   11.3854  -17.0103   24.7574 C   0  0  0  0  0  0  0  0  0  0  0  0
   10.1405  -17.0455   25.5405 C   0  0  2  0  0  0  0  0  0  0  0  0
    9.7141  -15.5902   25.5467 N   0  0  0  0  0  0  0  0  0  0  0  0
   10.0909  -17.5337   26.8949 C   0  0  0  0  0  0  0  0  0  0  0  0
   10.0706  -16.7326   27.9155 O   0  0  0  0  0  0  0  0  0  0  0  0
   10.0492  -18.8637   27.2579 O   0  0  0  0  0  0  0  0  0  0  0  0
  2  1  1  6
  2  3  1  0
  4  2  1  0
  4  5  1  6
  4  6  1  0
  6  7  2  0
 10  9  1  1
  9  8  1  0
 10 12  1  0
 11  6  1  0
 11 10  1  0
 12 13  2  0
 15 14  1  0
 16 15  2  0
 17 15  1  0
 18 17  1  0
 19 18  1  0
 20 19  1  0
 21 20  1  1
 21 23  1  0
 22 21  1  0
 22 12  1  0
 23 25  1  0
 24 23  2  0
M  END
$$$$
