VSR.pdb
     RDKit          3D

 25 24  0  0  1  0  0  0  0  0999 V2000
    7.6033  -12.4209   17.7343 C   0  0  0  0  0  0  0  0  0  0  0  0
    7.5849  -13.4887   18.8396 C   0  0  2  0  0  0  0  0  0  0  0  0
    8.2887  -12.8463   20.0149 C   0  0  0  0  0  0  0  0  0  0  0  0
    8.4496  -14.6255   18.3317 C   0  0  2  0  0  0  0  0  0  0  0  0
    7.7076  -15.1600   17.1658 N   0  0  0  0  0  0  0  0  0  0  0  0
    8.5861  -15.7398   19.2908 C   0  0  0  0  0  0  0  0  0  0  0  0
    7.5370  -16.2805   19.7416 O   0  0  0  0  0  0  0  0  0  0  0  0
   12.1717  -17.6224   20.2149 O   0  0  0  0  0  0  0  0  0  0  0  0
   10.9473  -18.2628   20.3985 C   0  0  0  0  0  0  0  0  0  0  0  0
    9.8607  -17.2615   20.8374 C   0  0  2  0  0  0  0  0  0  0  0  0
    9.7982  -16.2844   19.7720 N   0  0  0  0  0  0  0  0  0  0  0  0
   10.1449  -16.7204   22.1628 C   0  0  0  0  0  0  0  0  0  0  0  0
   11.1367  -15.9209   22.2814 O   0  0  0  0  0  0  0  0  0  0  0  0
    7.5851  -11.9901   27.9893 N   0  0  0  0  0  0  0  0  0  0  0  0
    6.9378  -12.4414   26.7851 C   0  0  0  0  0  0  0  0  0  0  0  0
    6.4066  -11.5513   26.0382 N   0  0  0  0  0  0  0  0  0  0  0  0
    6.8833  -13.7906   26.4363 N   0  0  0  0  0  0  0  0  0  0  0  0
    6.5563  -14.1801   25.0477 C   0  0  0  0  0  0  0  0  0  0  0  0
    7.8430  -14.6620   24.4670 C   0  0  0  0  0  0  0  0  0  0  0  0
    8.5428  -15.7585   25.1114 C   0  0  0  0  0  0  0  0  0  0  0  0
    9.8116  -16.3487   24.6572 C   0  0  2  0  0  0  0  0  0  0  0  0
    9.4215  -16.9966   23.3428 N   0  0  0  0  0  0  0  0  0  0  0  0
   10.5384  -17.3174   25.4372 C   0  0  0  0  0  0  0  0  0  0  0  0
   10.4929  -18.5873   25.1743 O   0  0  0  0  0  0  0  0  0  0  0  0
   11.3504  -17.0225   26.5124 O   0  0  0  0  0  0  0  0  0  0  0  0
  2  1  1  6
  2  3  1  0
  4  2  1  0
  4  5  1  6
  4  6  1  0
  6  7  2  0
 10  9  1  6
  9  8  1  0
 10 12  1  0
 11  6  1  0
 11 10  1  0
 12 13  2  0
 15 14  1  0
 16 15  2  0
 17 15  1  0
 18 17  1  0
 19 18  1  0
 20 19  1  0
 21 20  1  1
 21 23  1  0
 22 21  1  0
 22 12  1  0
 23 25  1  0
 24 23  2  0
M  END
$$$$
