VSR.pdb
     RDKit          3D

 25 24  0  0  1  0  0  0  0  0999 V2000
    9.4579  -15.1309   17.7784 C   0  0  0  0  0  0  0  0  0  0  0  0
    7.9353  -15.0271   17.9612 C   0  0  2  0  0  0  0  0  0  0  0  0
    7.3926  -14.7625   16.5739 C   0  0  0  0  0  0  0  0  0  0  0  0
    7.7030  -13.7900   18.8061 C   0  0  2  0  0  0  0  0  0  0  0  0
    8.2969  -12.6869   18.0149 N   0  0  0  0  0  0  0  0  0  0  0  0
    8.4167  -13.8131   20.0985 C   0  0  0  0  0  0  0  0  0  0  0  0
    9.6680  -13.6389   20.1005 O   0  0  0  0  0  0  0  0  0  0  0  0
    6.7581  -15.3990   23.5742 O   0  0  0  0  0  0  0  0  0  0  0  0
    7.5735  -14.2771   23.7137 C   0  0  0  0  0  0  0  0  0  0  0  0
    8.6116  -14.2041   22.5766 C   0  0  2  0  0  0  0  0  0  0  0  0
    7.8349  -14.0127   21.3709 N   0  0  0  0  0  0  0  0  0  0  0  0
    9.4806  -15.3769   22.5780 C   0  0  0  0  0  0  0  0  0  0  0  0
    9.1542  -16.3628   21.8307 O   0  0  0  0  0  0  0  0  0  0  0  0
   13.5752  -15.7270   17.9236 N   0  0  0  0  0  0  0  0  0  0  0  0
   14.2752  -15.1695   19.0515 C   0  0  0  0  0  0  0  0  0  0  0  0
   15.1478  -14.2680   18.8104 N   0  0  0  0  0  0  0  0  0  0  0  0
   14.0232  -15.5875   20.3580 N   0  0  0  0  0  0  0  0  0  0  0  0
   14.5596  -16.8806   20.8343 C   0  0  0  0  0  0  0  0  0  0  0  0
   13.5541  -17.3789   21.8170 C   0  0  0  0  0  0  0  0  0  0  0  0
   12.5188  -16.4771   22.2882 C   0  0  0  0  0  0  0  0  0  0  0  0
   11.4655  -16.8153   23.2579 C   0  0  2  0  0  0  0  0  0  0  0  0
   10.6627  -15.5310   23.3335 N   0  0  0  0  0  0  0  0  0  0  0  0
   11.7583  -17.2417   24.6024 C   0  0  0  0  0  0  0  0  0  0  0  0
   12.4174  -18.3314   24.8512 O   0  0  0  0  0  0  0  0  0  0  0  0
   11.3965  -16.5623   25.7469 O   0  0  0  0  0  0  0  0  0  0  0  0
  2  1  1  6
  2  3  1  0
  4  2  1  0
  4  5  1  6
  4  6  1  0
  6  7  2  0
 10  9  1  1
  9  8  1  0
 10 12  1  0
 11  6  1  0
 11 10  1  0
 12 13  2  0
 15 14  1  0
 16 15  2  0
 17 15  1  0
 18 17  1  0
 19 18  1  0
 20 19  1  0
 21 20  1  6
 21 23  1  0
 22 21  1  0
 22 12  1  0
 23 25  1  0
 24 23  2  0
M  END
$$$$
