VSR.pdb
     RDKit          3D

 25 24  0  0  1  0  0  0  0  0999 V2000
    7.0717  -12.2858   19.0309 C   0  0  0  0  0  0  0  0  0  0  0  0
    7.4395  -13.5288   19.8567 C   0  0  2  0  0  0  0  0  0  0  0  0
    8.2480  -12.9992   21.0207 C   0  0  0  0  0  0  0  0  0  0  0  0
    8.3579  -14.3536   18.9767 C   0  0  2  0  0  0  0  0  0  0  0  0
    7.4894  -14.8154   17.8686 N   0  0  0  0  0  0  0  0  0  0  0  0
    8.8786  -15.5670   19.6375 C   0  0  0  0  0  0  0  0  0  0  0  0
    8.0924  -16.5386   19.8223 O   0  0  0  0  0  0  0  0  0  0  0  0
   12.9172  -16.3842   20.4318 O   0  0  0  0  0  0  0  0  0  0  0  0
   11.9400  -17.3676   20.2862 C   0  0  0  0  0  0  0  0  0  0  0  0
   10.5993  -16.9078   20.8919 C   0  0  2  0  0  0  0  0  0  0  0  0
   10.2001  -15.7664   20.0973 N   0  0  0  0  0  0  0  0  0  0  0  0
   10.7249  -16.6562   22.3242 C   0  0  0  0  0  0  0  0  0  0  0  0
   11.4306  -15.6554   22.6950 O   0  0  0  0  0  0  0  0  0  0  0  0
    5.5445  -21.0207   26.8417 N   0  0  0  0  0  0  0  0  0  0  0  0
    6.8354  -20.6486   27.3593 C   0  0  0  0  0  0  0  0  0  0  0  0
    7.1033  -20.9884   28.5614 N   0  0  0  0  0  0  0  0  0  0  0  0
    7.7642  -19.9450   26.5929 N   0  0  0  0  0  0  0  0  0  0  0  0
    7.3405  -19.2980   25.3325 C   0  0  0  0  0  0  0  0  0  0  0  0
    8.0741  -17.9997   25.2975 C   0  0  0  0  0  0  0  0  0  0  0  0
    9.5078  -17.9913   25.5251 C   0  0  0  0  0  0  0  0  0  0  0  0
   10.4836  -17.1572   24.8065 C   0  0  2  0  0  0  0  0  0  0  0  0
   10.1350  -17.4197   23.3542 N   0  0  0  0  0  0  0  0  0  0  0  0
   11.9063  -17.3201   24.9635 C   0  0  0  0  0  0  0  0  0  0  0  0
   12.5566  -16.7811   25.9484 O   0  0  0  0  0  0  0  0  0  0  0  0
   12.7188  -18.0515   24.1225 O   0  0  0  0  0  0  0  0  0  0  0  0
  2  1  1  6
  2  3  1  0
  4  2  1  0
  4  5  1  6
  4  6  1  0
  6  7  2  0
 10  9  1  6
  9  8  1  0
 10 12  1  0
 11  6  1  0
 11 10  1  0
 12 13  2  0
 15 14  1  0
 16 15  2  0
 17 15  1  0
 18 17  1  0
 19 18  1  0
 20 19  1  0
 21 20  1  1
 21 23  1  0
 22 21  1  0
 22 12  1  0
 23 25  1  0
 24 23  2  0
M  END
$$$$
