VSR.pdb
     RDKit          3D

 25 24  0  0  1  0  0  0  0  0999 V2000
    9.9233  -14.5136   16.2730 C   0  0  0  0  0  0  0  0  0  0  0  0
    9.6474  -14.5264   17.7850 C   0  0  2  0  0  0  0  0  0  0  0  0
   10.0847  -15.8982   18.2502 C   0  0  0  0  0  0  0  0  0  0  0  0
    8.1415  -14.4329   17.9319 C   0  0  2  0  0  0  0  0  0  0  0  0
    7.8207  -13.0363   17.5549 N   0  0  0  0  0  0  0  0  0  0  0  0
    7.6696  -14.6135   19.3193 C   0  0  0  0  0  0  0  0  0  0  0  0
    8.0176  -13.7673   20.1906 O   0  0  0  0  0  0  0  0  0  0  0  0
    5.6485  -18.0345   20.7326 O   0  0  0  0  0  0  0  0  0  0  0  0
    5.2578  -16.7676   21.1630 C   0  0  0  0  0  0  0  0  0  0  0  0
    6.4544  -15.7962   21.1786 C   0  0  2  0  0  0  0  0  0  0  0  0
    6.8451  -15.6595   19.7921 N   0  0  0  0  0  0  0  0  0  0  0  0
    7.5041  -16.2649   22.0780 C   0  0  0  0  0  0  0  0  0  0  0  0
    8.4698  -16.9340   21.5714 O   0  0  0  0  0  0  0  0  0  0  0  0
   11.1496  -16.1202   29.7408 N   0  0  0  0  0  0  0  0  0  0  0  0
   10.4877  -14.8473   29.6209 C   0  0  0  0  0  0  0  0  0  0  0  0
   10.6813  -13.9974   30.5550 N   0  0  0  0  0  0  0  0  0  0  0  0
    9.6649  -14.5412   28.5371 N   0  0  0  0  0  0  0  0  0  0  0  0
   10.2043  -14.6038   27.1617 C   0  0  0  0  0  0  0  0  0  0  0  0
    9.6454  -15.8597   26.5829 C   0  0  0  0  0  0  0  0  0  0  0  0
    8.6987  -15.7725   25.4857 C   0  0  0  0  0  0  0  0  0  0  0  0
    8.6763  -16.6472   24.3031 C   0  0  2  0  0  0  0  0  0  0  0  0
    7.5585  -16.0481   23.4716 N   0  0  0  0  0  0  0  0  0  0  0  0
    8.4561  -18.0679   24.3945 C   0  0  0  0  0  0  0  0  0  0  0  0
    7.2657  -18.5835   24.3673 O   0  0  0  0  0  0  0  0  0  0  0  0
    9.4486  -19.0191   24.5067 O   0  0  0  0  0  0  0  0  0  0  0  0
  2  1  1  6
  2  3  1  0
  4  2  1  0
  4  5  1  1
  4  6  1  0
  6  7  2  0
 10  9  1  6
  9  8  1  0
 10 12  1  0
 11  6  1  0
 11 10  1  0
 12 13  2  0
 15 14  1  0
 16 15  2  0
 17 15  1  0
 18 17  1  0
 19 18  1  0
 20 19  1  0
 21 20  1  1
 21 23  1  0
 22 21  1  0
 22 12  1  0
 23 25  1  0
 24 23  2  0
M  END
$$$$
