VSR.pdb
     RDKit          3D

 25 24  0  0  1  0  0  0  0  0999 V2000
    9.6468  -14.7735   18.5642 C   0  0  0  0  0  0  0  0  0  0  0  0
    8.1361  -15.0565   18.5669 C   0  0  2  0  0  0  0  0  0  0  0  0
    7.6788  -14.7495   17.1577 C   0  0  0  0  0  0  0  0  0  0  0  0
    7.5241  -14.0296   19.4991 C   0  0  2  0  0  0  0  0  0  0  0  0
    7.9390  -12.7247   18.9330 N   0  0  0  0  0  0  0  0  0  0  0  0
    8.0617  -14.0826   20.8733 C   0  0  0  0  0  0  0  0  0  0  0  0
    9.1789  -13.5403   21.1060 O   0  0  0  0  0  0  0  0  0  0  0  0
    6.3154  -16.3131   23.9343 O   0  0  0  0  0  0  0  0  0  0  0  0
    6.9109  -15.0970   24.2651 C   0  0  0  0  0  0  0  0  0  0  0  0
    8.0621  -14.7640   23.2956 C   0  0  2  0  0  0  0  0  0  0  0  0
    7.4436  -14.6900   21.9896 N   0  0  0  0  0  0  0  0  0  0  0  0
    9.1502  -15.7294   23.4156 C   0  0  0  0  0  0  0  0  0  0  0  0
    9.2522  -16.6295   22.5120 O   0  0  0  0  0  0  0  0  0  0  0  0
   17.4928  -15.2830   22.7034 N   0  0  0  0  0  0  0  0  0  0  0  0
   17.1855  -16.6755   22.9019 C   0  0  0  0  0  0  0  0  0  0  0  0
   18.1454  -17.5094   22.7780 N   0  0  0  0  0  0  0  0  0  0  0  0
   15.8980  -17.1110   23.2149 N   0  0  0  0  0  0  0  0  0  0  0  0
   14.8062  -16.1269   23.3763 C   0  0  0  0  0  0  0  0  0  0  0  0
   13.5959  -16.9392   23.6932 C   0  0  0  0  0  0  0  0  0  0  0  0
   12.3409  -16.2619   23.9645 C   0  0  0  0  0  0  0  0  0  0  0  0
   11.1295  -16.8916   24.5124 C   0  0  2  0  0  0  0  0  0  0  0  0
   10.1146  -15.7668   24.4454 N   0  0  0  0  0  0  0  0  0  0  0  0
   11.0827  -17.4605   25.8350 C   0  0  0  0  0  0  0  0  0  0  0  0
   10.3962  -16.9191   26.7937 O   0  0  0  0  0  0  0  0  0  0  0  0
   11.7296  -18.6143   26.2258 O   0  0  0  0  0  0  0  0  0  0  0  0
  2  1  1  6
  2  3  1  0
  4  2  1  0
  4  5  1  6
  4  6  1  0
  6  7  2  0
 10  9  1  1
  9  8  1  0
 10 12  1  0
 11  6  1  0
 11 10  1  0
 12 13  2  0
 15 14  1  0
 16 15  2  0
 17 15  1  0
 18 17  1  0
 19 18  1  0
 20 19  1  0
 21 20  1  1
 21 23  1  0
 22 21  1  0
 22 12  1  0
 23 25  1  0
 24 23  2  0
M  END
$$$$
