VSR.pdb
     RDKit          3D

 25 24  0  0  1  0  0  0  0  0999 V2000
    9.1857  -15.0790   19.2191 C   0  0  0  0  0  0  0  0  0  0  0  0
    7.6568  -14.9579   19.3187 C   0  0  2  0  0  0  0  0  0  0  0  0
    7.1948  -14.6732   17.9063 C   0  0  0  0  0  0  0  0  0  0  0  0
    7.3930  -13.7261   20.1620 C   0  0  2  0  0  0  0  0  0  0  0  0
    8.0917  -12.6331   19.4460 N   0  0  0  0  0  0  0  0  0  0  0  0
    7.9884  -13.7938   21.5114 C   0  0  0  0  0  0  0  0  0  0  0  0
    9.2036  -13.4779   21.6518 O   0  0  0  0  0  0  0  0  0  0  0  0
    5.9982  -15.3264   24.8702 O   0  0  0  0  0  0  0  0  0  0  0  0
    6.8536  -14.2364   25.0220 C   0  0  0  0  0  0  0  0  0  0  0  0
    7.9896  -14.2768   23.9810 C   0  0  2  0  0  0  0  0  0  0  0  0
    7.3269  -14.1829   22.6982 N   0  0  0  0  0  0  0  0  0  0  0  0
    8.8312  -15.4555   24.1624 C   0  0  0  0  0  0  0  0  0  0  0  0
    8.7705  -16.3749   23.2747 O   0  0  0  0  0  0  0  0  0  0  0  0
   16.4710  -15.9247   23.2380 N   0  0  0  0  0  0  0  0  0  0  0  0
   16.0193  -17.2888   23.3262 C   0  0  0  0  0  0  0  0  0  0  0  0
   16.3280  -18.0702   22.3637 N   0  0  0  0  0  0  0  0  0  0  0  0
   15.2735  -17.7518   24.4099 N   0  0  0  0  0  0  0  0  0  0  0  0
   14.2381  -16.8868   25.0152 C   0  0  0  0  0  0  0  0  0  0  0  0
   13.0354  -17.0579   24.1496 C   0  0  0  0  0  0  0  0  0  0  0  0
   11.8234  -16.3262   24.4705 C   0  0  0  0  0  0  0  0  0  0  0  0
   10.6723  -16.8611   25.2140 C   0  0  2  0  0  0  0  0  0  0  0  0
    9.7182  -15.6826   25.2364 N   0  0  0  0  0  0  0  0  0  0  0  0
   10.7865  -17.3720   26.5561 C   0  0  0  0  0  0  0  0  0  0  0  0
   10.4277  -16.6761   27.5908 O   0  0  0  0  0  0  0  0  0  0  0  0
   11.2635  -18.6220   26.8914 O   0  0  0  0  0  0  0  0  0  0  0  0
  2  1  1  6
  2  3  1  0
  4  2  1  0
  4  5  1  6
  4  6  1  0
  6  7  2  0
 10  9  1  1
  9  8  1  0
 10 12  1  0
 11  6  1  0
 11 10  1  0
 12 13  2  0
 15 14  1  0
 16 15  2  0
 17 15  1  0
 18 17  1  0
 19 18  1  0
 20 19  1  0
 21 20  1  1
 21 23  1  0
 22 21  1  0
 22 12  1  0
 23 25  1  0
 24 23  2  0
M  END
$$$$
