VSR.pdb
     RDKit          3D

 25 24  0  0  1  0  0  0  0  0999 V2000
    7.8767  -14.6974   16.8750 C   0  0  0  0  0  0  0  0  0  0  0  0
    8.6212  -14.8812   18.2070 C   0  0  2  0  0  0  0  0  0  0  0  0
    8.1396  -16.2116   18.7432 C   0  0  0  0  0  0  0  0  0  0  0  0
    8.1088  -13.7867   19.1222 C   0  0  2  0  0  0  0  0  0  0  0  0
    8.6273  -12.5340   18.5243 N   0  0  0  0  0  0  0  0  0  0  0  0
    8.6546  -13.8568   20.4924 C   0  0  0  0  0  0  0  0  0  0  0  0
    9.8916  -13.6628   20.6603 O   0  0  0  0  0  0  0  0  0  0  0  0
    6.3472  -14.9584   23.7356 O   0  0  0  0  0  0  0  0  0  0  0  0
    7.3923  -14.0696   23.9828 C   0  0  0  0  0  0  0  0  0  0  0  0
    8.5385  -14.2701   22.9718 C   0  0  2  0  0  0  0  0  0  0  0  0
    7.9218  -14.1232   21.6711 N   0  0  0  0  0  0  0  0  0  0  0  0
    9.2250  -15.5385   23.1959 C   0  0  0  0  0  0  0  0  0  0  0  0
    8.6938  -16.5982   22.7144 O   0  0  0  0  0  0  0  0  0  0  0  0
   15.1834  -14.2885   20.1483 N   0  0  0  0  0  0  0  0  0  0  0  0
   14.1558  -15.0095   19.4434 C   0  0  0  0  0  0  0  0  0  0  0  0
   13.8421  -14.5902   18.2780 N   0  0  0  0  0  0  0  0  0  0  0  0
   13.5193  -16.1199   19.9975 N   0  0  0  0  0  0  0  0  0  0  0  0
   13.7600  -16.4776   21.4119 C   0  0  0  0  0  0  0  0  0  0  0  0
   12.4105  -16.4756   22.0474 C   0  0  0  0  0  0  0  0  0  0  0  0
   12.2457  -17.0762   23.3587 C   0  0  0  0  0  0  0  0  0  0  0  0
   10.9984  -17.0999   24.1384 C   0  0  2  0  0  0  0  0  0  0  0  0
   10.4352  -15.7120   23.9011 N   0  0  0  0  0  0  0  0  0  0  0  0
   10.9755  -17.3576   25.5556 C   0  0  0  0  0  0  0  0  0  0  0  0
   10.6247  -16.4508   26.4149 O   0  0  0  0  0  0  0  0  0  0  0  0
   11.3012  -18.5593   26.1489 O   0  0  0  0  0  0  0  0  0  0  0  0
  2  1  1  6
  2  3  1  0
  4  2  1  0
  4  5  1  6
  4  6  1  0
  6  7  2  0
 10  9  1  1
  9  8  1  0
 10 12  1  0
 11  6  1  0
 11 10  1  0
 12 13  2  0
 15 14  1  0
 16 15  2  0
 17 15  1  0
 18 17  1  0
 19 18  1  0
 20 19  1  0
 21 20  1  1
 21 23  1  0
 22 21  1  0
 22 12  1  0
 23 25  1  0
 24 23  2  0
M  END
$$$$
