QQY.pdb
     RDKit          3D

 31 31  0  0  1  0  0  0  0  0999 V2000
    7.6504  -19.3167   15.8399 N   0  0  0  0  0  0  0  0  0  0  0  0
    7.6312  -20.3587   16.8170 C   0  0  0  0  0  0  0  0  0  0  0  0
    6.8200  -21.2889   16.6267 O   0  0  0  0  0  0  0  0  0  0  0  0
    8.5297  -20.3086   17.9697 C   0  0  0  0  0  0  0  0  0  0  0  0
    9.4048  -19.0948   18.0236 C   0  0  0  0  0  0  0  0  0  0  0  0
   10.2459  -18.9719   19.2483 C   0  0  2  0  0  0  0  0  0  0  0  0
    9.4890  -19.4766   20.3814 N   0  0  0  0  0  0  0  0  0  0  0  0
   10.6628  -17.5482   19.4903 C   0  0  0  0  0  0  0  0  0  0  0  0
   11.3680  -17.0013   18.6263 O   0  0  0  0  0  0  0  0  0  0  0  0
    7.6482  -12.5675   19.9165 N   0  0  0  0  0  0  0  0  0  0  0  0
    7.2201  -13.6202   20.7553 C   0  0  0  0  0  0  0  0  0  0  0  0
    6.0418  -13.6062   21.1613 O   0  0  0  0  0  0  0  0  0  0  0  0
    8.1309  -14.7383   21.1613 C   0  0  0  0  0  0  0  0  0  0  0  0
    9.4984  -14.5481   20.6210 C   0  0  0  0  0  0  0  0  0  0  0  0
   10.5260  -15.5742   21.0423 C   0  0  2  0  0  0  0  0  0  0  0  0
   10.2374  -16.9173   20.6685 N   0  0  0  0  0  0  0  0  0  0  0  0
   10.8116  -15.4225   22.4752 C   0  0  0  0  0  0  0  0  0  0  0  0
   10.9387  -14.2615   23.0103 O   0  0  0  0  0  0  0  0  0  0  0  0
    9.9068  -14.9429   30.9164 O   0  0  0  0  0  0  0  0  0  0  0  0
    9.8673  -15.1214   29.5399 C   0  0  0  0  0  0  0  0  0  0  0  0
    9.8157  -16.3467   28.9406 C   0  0  0  0  0  0  0  0  0  0  0  0
    9.7762  -16.5444   27.5866 C   0  0  0  0  0  0  0  0  0  0  0  0
    9.7895  -15.4186   26.7588 C   0  0  0  0  0  0  0  0  0  0  0  0
    9.7686  -15.5980   25.2954 C   0  0  0  0  0  0  0  0  0  0  0  0
   11.0077  -16.2848   24.8369 C   0  0  2  0  0  0  0  0  0  0  0  0
   10.9683  -16.5098   23.3744 N   0  0  0  0  0  0  0  0  0  0  0  0
   11.2630  -17.5747   25.4881 C   0  0  0  0  0  0  0  0  0  0  0  0
   12.2144  -17.6736   26.4829 O   0  0  0  0  0  0  0  0  0  0  0  0
    9.8414  -14.1792   27.3454 C   0  0  0  0  0  0  0  0  0  0  0  0
    9.8810  -13.9940   28.7181 C   0  0  0  0  0  0  0  0  0  0  0  0
   10.6216  -18.5878   25.1457 O   0  0  0  0  0  0  0  0  0  0  0  0
  2  3  2  0
  2  1  1  0
  4  2  1  0
  5  4  1  0
  6  5  1  0
  6  7  1  1
  8  9  2  0
  8  6  1  0
 11 10  1  0
 11 12  2  0
 13 11  1  0
 14 13  1  0
 15 14  1  1
 15 16  1  0
 16  8  1  0
 17 15  1  0
 17 18  2  0
 19 20  1  0
 20 21  2  0
 21 22  1  0
 23 22  2  0
 23 24  1  0
 25 24  1  1
 25 26  1  0
 26 17  1  0
 27 25  1  0
 28 27  1  0
 29 23  1  0
 30 20  1  0
 30 29  2  0
 31 27  2  0
M  END
$$$$
