QQY.pdb
     RDKit          3D

 31 31  0  0  1  0  0  0  0  0999 V2000
    8.4869  -15.3352   14.8093 N   0  0  0  0  0  0  0  0  0  0  0  0
    7.9394  -14.0914   15.2497 C   0  0  0  0  0  0  0  0  0  0  0  0
    7.3684  -13.3943   14.3851 O   0  0  0  0  0  0  0  0  0  0  0  0
    8.0581  -13.6852   16.6495 C   0  0  0  0  0  0  0  0  0  0  0  0
    8.6060  -14.7410   17.5590 C   0  0  0  0  0  0  0  0  0  0  0  0
    8.8179  -14.3149   18.9719 C   0  0  2  0  0  0  0  0  0  0  0  0
   10.2472  -14.2299   19.2195 N   0  0  0  0  0  0  0  0  0  0  0  0
    8.1757  -15.2705   19.9381 C   0  0  0  0  0  0  0  0  0  0  0  0
    7.0889  -15.7750   19.6104 O   0  0  0  0  0  0  0  0  0  0  0  0
   12.6445  -18.9377   20.0042 N   0  0  0  0  0  0  0  0  0  0  0  0
   11.7841  -19.3166   21.0583 C   0  0  0  0  0  0  0  0  0  0  0  0
   12.2825  -19.8889   22.0470 O   0  0  0  0  0  0  0  0  0  0  0  0
   10.3103  -19.0499   21.0210 C   0  0  0  0  0  0  0  0  0  0  0  0
   10.0214  -17.6528   20.6175 C   0  0  0  0  0  0  0  0  0  0  0  0
    9.2312  -16.8270   21.6075 C   0  0  2  0  0  0  0  0  0  0  0  0
    8.8313  -15.5401   21.1483 N   0  0  0  0  0  0  0  0  0  0  0  0
    9.9442  -16.7860   22.8912 C   0  0  0  0  0  0  0  0  0  0  0  0
   10.1561  -17.8555   23.5705 O   0  0  0  0  0  0  0  0  0  0  0  0
    5.4416  -11.2746   27.5710 O   0  0  0  0  0  0  0  0  0  0  0  0
    6.1652  -12.0148   26.6455 C   0  0  0  0  0  0  0  0  0  0  0  0
    5.8912  -13.3173   26.3429 C   0  0  0  0  0  0  0  0  0  0  0  0
    6.5917  -14.0641   25.4344 C   0  0  0  0  0  0  0  0  0  0  0  0
    7.6599  -13.4558   24.7697 C   0  0  0  0  0  0  0  0  0  0  0  0
    8.4474  -14.2392   23.8001 C   0  0  0  0  0  0  0  0  0  0  0  0
    9.6427  -14.8340   24.4592 C   0  0  2  0  0  0  0  0  0  0  0  0
   10.4502  -15.5986   23.4823 N   0  0  0  0  0  0  0  0  0  0  0  0
    9.3355  -15.7206   25.5872 C   0  0  0  0  0  0  0  0  0  0  0  0
    9.5719  -15.3043   26.8816 O   0  0  0  0  0  0  0  0  0  0  0  0
    7.9487  -12.1467   25.0624 C   0  0  0  0  0  0  0  0  0  0  0  0
    7.2307  -11.4025   25.9849 C   0  0  0  0  0  0  0  0  0  0  0  0
    8.8594  -16.8547   25.3819 O   0  0  0  0  0  0  0  0  0  0  0  0
  2  3  2  0
  2  1  1  0
  4  2  1  0
  5  4  1  0
  6  5  1  0
  6  7  1  1
  8  9  2  0
  8  6  1  0
 11 10  1  0
 11 12  2  0
 13 11  1  0
 14 13  1  0
 15 14  1  6
 15 16  1  0
 16  8  1  0
 17 15  1  0
 17 18  2  0
 19 20  1  0
 20 21  2  0
 21 22  1  0
 23 22  2  0
 23 24  1  0
 25 24  1  6
 25 26  1  0
 26 17  1  0
 27 25  1  0
 28 27  1  0
 29 23  1  0
 30 20  1  0
 30 29  2  0
 31 27  2  0
M  END
$$$$
