QQY.pdb
     RDKit          3D

 31 31  0  0  1  0  0  0  0  0999 V2000
    9.0881  -12.7322   16.0241 N   0  0  0  0  0  0  0  0  0  0  0  0
    8.2798  -13.7946   15.5155 C   0  0  0  0  0  0  0  0  0  0  0  0
    8.3693  -14.0292   14.2922 O   0  0  0  0  0  0  0  0  0  0  0  0
    7.4030  -14.5502   16.4094 C   0  0  0  0  0  0  0  0  0  0  0  0
    7.3291  -14.0154   17.8060 C   0  0  0  0  0  0  0  0  0  0  0  0
    8.5318  -14.2717   18.6489 C   0  0  2  0  0  0  0  0  0  0  0  0
    9.5712  -14.8431   17.8095 N   0  0  0  0  0  0  0  0  0  0  0  0
    8.2170  -15.1946   19.7927 C   0  0  0  0  0  0  0  0  0  0  0  0
    7.1326  -15.7995   19.7611 O   0  0  0  0  0  0  0  0  0  0  0  0
    8.7649  -20.3787   20.5280 N   0  0  0  0  0  0  0  0  0  0  0  0
    8.9050  -20.1409   21.9131 C   0  0  0  0  0  0  0  0  0  0  0  0
    8.9208  -21.1235   22.6797 O   0  0  0  0  0  0  0  0  0  0  0  0
    9.0361  -18.7589   22.4767 C   0  0  0  0  0  0  0  0  0  0  0  0
    8.9996  -17.7313   21.4086 C   0  0  0  0  0  0  0  0  0  0  0  0
    9.1183  -16.2951   21.8665 C   0  0  2  0  0  0  0  0  0  0  0  0
    9.1559  -15.3232   20.8267 N   0  0  0  0  0  0  0  0  0  0  0  0
   10.2360  -16.1726   22.8117 C   0  0  0  0  0  0  0  0  0  0  0  0
   11.2092  -17.0111   22.8056 O   0  0  0  0  0  0  0  0  0  0  0  0
    5.6637  -10.6095   27.0605 O   0  0  0  0  0  0  0  0  0  0  0  0
    6.2740  -11.7164   26.4856 C   0  0  0  0  0  0  0  0  0  0  0  0
    7.5125  -11.6809   25.9129 C   0  0  0  0  0  0  0  0  0  0  0  0
    8.1314  -12.7598   25.3413 C   0  0  0  0  0  0  0  0  0  0  0  0
    7.4532  -13.9816   25.3421 C   0  0  0  0  0  0  0  0  0  0  0  0
    8.0839  -15.1581   24.7160 C   0  0  0  0  0  0  0  0  0  0  0  0
    9.5386  -15.1989   25.0310 C   0  0  2  0  0  0  0  0  0  0  0  0
   10.3424  -15.1485   23.7891 N   0  0  0  0  0  0  0  0  0  0  0  0
    9.9608  -16.3764   25.7978 C   0  0  0  0  0  0  0  0  0  0  0  0
   10.2398  -16.2641   27.1447 O   0  0  0  0  0  0  0  0  0  0  0  0
    6.2069  -14.0344   25.9138 C   0  0  0  0  0  0  0  0  0  0  0  0
    5.5922  -12.9337   26.4892 C   0  0  0  0  0  0  0  0  0  0  0  0
   10.0697  -17.4844   25.2362 O   0  0  0  0  0  0  0  0  0  0  0  0
  2  3  2  0
  2  1  1  0
  4  2  1  0
  5  4  1  0
  6  5  1  0
  6  7  1  6
  8  9  2  0
  8  6  1  0
 11 10  1  0
 11 12  2  0
 13 11  1  0
 14 13  1  0
 15 14  1  6
 15 16  1  0
 16  8  1  0
 17 15  1  0
 17 18  2  0
 19 20  1  0
 20 21  2  0
 21 22  1  0
 23 22  2  0
 23 24  1  0
 25 24  1  6
 25 26  1  0
 26 17  1  0
 27 25  1  0
 28 27  1  0
 29 23  1  0
 30 20  1  0
 30 29  2  0
 31 27  2  0
M  END
$$$$
