QQY.pdb
     RDKit          3D

 31 31  0  0  1  0  0  0  0  0999 V2000
    8.7893  -12.7351   15.5133 N   0  0  0  0  0  0  0  0  0  0  0  0
    7.6585  -13.3392   16.1436 C   0  0  0  0  0  0  0  0  0  0  0  0
    7.0647  -14.2263   15.4956 O   0  0  0  0  0  0  0  0  0  0  0  0
    7.2442  -12.9173   17.4811 C   0  0  0  0  0  0  0  0  0  0  0  0
    7.2687  -14.0037   18.5112 C   0  0  0  0  0  0  0  0  0  0  0  0
    8.1844  -15.1417   18.2126 C   0  0  2  0  0  0  0  0  0  0  0  0
    7.6321  -15.9005   17.1033 N   0  0  0  0  0  0  0  0  0  0  0  0
    8.3707  -16.0287   19.4116 C   0  0  0  0  0  0  0  0  0  0  0  0
    7.4023  -16.7181   19.7722 O   0  0  0  0  0  0  0  0  0  0  0  0
   13.2211  -19.6088   19.9039 N   0  0  0  0  0  0  0  0  0  0  0  0
   12.6249  -19.7946   21.1708 C   0  0  0  0  0  0  0  0  0  0  0  0
   13.0551  -20.7142   21.8938 O   0  0  0  0  0  0  0  0  0  0  0  0
   11.5074  -18.9262   21.6625 C   0  0  0  0  0  0  0  0  0  0  0  0
   11.1350  -17.9004   20.6588 C   0  0  0  0  0  0  0  0  0  0  0  0
   10.0302  -16.9498   21.0614 C   0  0  2  0  0  0  0  0  0  0  0  0
    9.6170  -16.0316   20.0548 N   0  0  0  0  0  0  0  0  0  0  0  0
   10.3830  -16.2967   22.3289 C   0  0  0  0  0  0  0  0  0  0  0  0
   11.3946  -15.5095   22.4143 O   0  0  0  0  0  0  0  0  0  0  0  0
   11.0984  -14.0405   30.7824 O   0  0  0  0  0  0  0  0  0  0  0  0
   10.5917  -14.4595   29.5593 C   0  0  0  0  0  0  0  0  0  0  0  0
   10.3754  -15.7695   29.2426 C   0  0  0  0  0  0  0  0  0  0  0  0
    9.8769  -16.2031   28.0437 C   0  0  0  0  0  0  0  0  0  0  0  0
    9.5674  -15.2434   27.0763 C   0  0  0  0  0  0  0  0  0  0  0  0
    9.0480  -15.6792   25.7670 C   0  0  0  0  0  0  0  0  0  0  0  0
   10.1670  -15.9009   24.8101 C   0  0  2  0  0  0  0  0  0  0  0  0
    9.6619  -16.4682   23.5397 N   0  0  0  0  0  0  0  0  0  0  0  0
   11.2281  -16.7821   25.3108 C   0  0  0  0  0  0  0  0  0  0  0  0
   12.4239  -16.2495   25.7480 O   0  0  0  0  0  0  0  0  0  0  0  0
    9.7791  -13.9218   27.3788 C   0  0  0  0  0  0  0  0  0  0  0  0
   10.2845  -13.4970   28.5972 C   0  0  0  0  0  0  0  0  0  0  0  0
   11.0546  -18.0165   25.3438 O   0  0  0  0  0  0  0  0  0  0  0  0
  2  3  2  0
  2  1  1  0
  4  2  1  0
  5  4  1  0
  6  5  1  0
  6  7  1  6
  8  9  2  0
  8  6  1  0
 11 10  1  0
 11 12  2  0
 13 11  1  0
 14 13  1  0
 15 14  1  6
 15 16  1  0
 16  8  1  0
 17 15  1  0
 17 18  2  0
 19 20  1  0
 20 21  2  0
 21 22  1  0
 23 22  2  0
 23 24  1  0
 25 24  1  1
 25 26  1  0
 26 17  1  0
 27 25  1  0
 28 27  1  0
 29 23  1  0
 30 20  1  0
 30 29  2  0
 31 27  2  0
M  END
$$$$
