QQY.pdb
     RDKit          3D

 31 31  0  0  1  0  0  0  0  0999 V2000
    7.9490  -12.1197   20.1109 N   0  0  0  0  0  0  0  0  0  0  0  0
    8.3960  -12.9136   19.0106 C   0  0  0  0  0  0  0  0  0  0  0  0
    8.4736  -12.3415   17.9032 O   0  0  0  0  0  0  0  0  0  0  0  0
    8.7383  -14.3220   19.2054 C   0  0  0  0  0  0  0  0  0  0  0  0
    8.5577  -14.8177   20.6066 C   0  0  0  0  0  0  0  0  0  0  0  0
    8.8297  -16.2697   20.8069 C   0  0  2  0  0  0  0  0  0  0  0  0
    7.9783  -17.0279   19.9059 N   0  0  0  0  0  0  0  0  0  0  0  0
    8.5856  -16.6852   22.2306 C   0  0  0  0  0  0  0  0  0  0  0  0
    7.4125  -16.9128   22.5696 O   0  0  0  0  0  0  0  0  0  0  0  0
   11.9658  -21.1663   23.6438 N   0  0  0  0  0  0  0  0  0  0  0  0
   10.9568  -20.5386   22.8804 C   0  0  0  0  0  0  0  0  0  0  0  0
   11.0175  -20.6284   21.6387 O   0  0  0  0  0  0  0  0  0  0  0  0
    9.8302  -19.7814   23.5146 C   0  0  0  0  0  0  0  0  0  0  0  0
   10.3303  -18.7594   24.4652 C   0  0  0  0  0  0  0  0  0  0  0  0
    9.6739  -17.3997   24.3822 C   0  0  2  0  0  0  0  0  0  0  0  0
    9.6855  -16.7931   23.0942 N   0  0  0  0  0  0  0  0  0  0  0  0
   10.2140  -16.5294   25.4351 C   0  0  0  0  0  0  0  0  0  0  0  0
   11.2918  -15.8543   25.2542 O   0  0  0  0  0  0  0  0  0  0  0  0
    6.2178  -11.8896   24.2909 O   0  0  0  0  0  0  0  0  0  0  0  0
    6.9466  -12.5396   25.2781 C   0  0  0  0  0  0  0  0  0  0  0  0
    8.2821  -12.3434   25.4807 C   0  0  0  0  0  0  0  0  0  0  0  0
    9.0184  -12.9735   26.4474 C   0  0  0  0  0  0  0  0  0  0  0  0
    8.3625  -13.8794   27.2853 C   0  0  0  0  0  0  0  0  0  0  0  0
    9.1316  -14.5900   28.3234 C   0  0  0  0  0  0  0  0  0  0  0  0
   10.1958  -15.4261   27.7027 C   0  0  2  0  0  0  0  0  0  0  0  0
    9.6144  -16.3579   26.7103 N   0  0  0  0  0  0  0  0  0  0  0  0
   10.9835  -16.2136   28.6579 C   0  0  0  0  0  0  0  0  0  0  0  0
   11.7166  -15.5808   29.6412 O   0  0  0  0  0  0  0  0  0  0  0  0
    7.0198  -14.0882   27.0948 C   0  0  0  0  0  0  0  0  0  0  0  0
    6.2866  -13.4430   26.1117 C   0  0  0  0  0  0  0  0  0  0  0  0
   10.9943  -17.4585   28.5859 O   0  0  0  0  0  0  0  0  0  0  0  0
  2  3  2  0
  2  1  1  0
  4  2  1  0
  5  4  1  0
  6  5  1  0
  6  7  1  6
  8  9  2  0
  8  6  1  0
 11 10  1  0
 11 12  2  0
 13 11  1  0
 14 13  1  0
 15 14  1  6
 15 16  1  0
 16  8  1  0
 17 15  1  0
 17 18  2  0
 19 20  1  0
 20 21  2  0
 21 22  1  0
 23 22  2  0
 23 24  1  0
 25 24  1  1
 25 26  1  0
 26 17  1  0
 27 25  1  0
 28 27  1  0
 29 23  1  0
 30 20  1  0
 30 29  2  0
 31 27  2  0
M  END
$$$$
