QQY.pdb
     RDKit          3D

 31 31  0  0  1  0  0  0  0  0999 V2000
    3.5156  -18.5666   19.9059 N   0  0  0  0  0  0  0  0  0  0  0  0
    4.7314  -18.6242   19.1581 C   0  0  0  0  0  0  0  0  0  0  0  0
    4.6454  -19.0336   17.9815 O   0  0  0  0  0  0  0  0  0  0  0  0
    5.9958  -18.2162   19.7693 C   0  0  0  0  0  0  0  0  0  0  0  0
    5.8723  -17.7043   21.1709 C   0  0  0  0  0  0  0  0  0  0  0  0
    7.1460  -17.2432   21.7935 C   0  0  2  0  0  0  0  0  0  0  0  0
    8.1717  -18.2409   21.5405 N   0  0  0  0  0  0  0  0  0  0  0  0
    6.9879  -17.0189   23.2712 C   0  0  0  0  0  0  0  0  0  0  0  0
    6.1042  -16.2279   23.6409 O   0  0  0  0  0  0  0  0  0  0  0  0
    7.6305  -21.4618   27.5961 N   0  0  0  0  0  0  0  0  0  0  0  0
    8.6967  -21.2258   26.7002 C   0  0  0  0  0  0  0  0  0  0  0  0
    9.5301  -22.1359   26.5255 O   0  0  0  0  0  0  0  0  0  0  0  0
    8.8482  -19.9303   25.9630 C   0  0  0  0  0  0  0  0  0  0  0  0
    7.7333  -19.0006   26.2643 C   0  0  0  0  0  0  0  0  0  0  0  0
    7.7835  -17.6585   25.5695 C   0  0  2  0  0  0  0  0  0  0  0  0
    7.8387  -17.7081   24.1476 N   0  0  0  0  0  0  0  0  0  0  0  0
    8.8507  -16.8401   26.1603 C   0  0  0  0  0  0  0  0  0  0  0  0
   10.0328  -16.8221   25.6578 O   0  0  0  0  0  0  0  0  0  0  0  0
    5.9781  -11.7257   24.2383 O   0  0  0  0  0  0  0  0  0  0  0  0
    6.8192  -12.2571   25.2070 C   0  0  0  0  0  0  0  0  0  0  0  0
    7.8114  -13.1536   24.9332 C   0  0  0  0  0  0  0  0  0  0  0  0
    8.6508  -13.6890   25.8727 C   0  0  0  0  0  0  0  0  0  0  0  0
    8.4839  -13.2938   27.2026 C   0  0  0  0  0  0  0  0  0  0  0  0
    9.3586  -13.8678   28.2417 C   0  0  0  0  0  0  0  0  0  0  0  0
    9.8109  -15.2305   27.8476 C   0  0  2  0  0  0  0  0  0  0  0  0
    8.6810  -16.0182   27.3053 N   0  0  0  0  0  0  0  0  0  0  0  0
   10.4241  -16.0041   28.9332 C   0  0  0  0  0  0  0  0  0  0  0  0
    9.8959  -17.2255   29.2993 O   0  0  0  0  0  0  0  0  0  0  0  0
    7.4908  -12.3931   27.4949 C   0  0  0  0  0  0  0  0  0  0  0  0
    6.6481  -11.8590   26.5332 C   0  0  0  0  0  0  0  0  0  0  0  0
   11.4254  -15.5617   29.5304 O   0  0  0  0  0  0  0  0  0  0  0  0
  2  3  2  0
  2  1  1  0
  4  2  1  0
  5  4  1  0
  6  5  1  0
  6  7  1  1
  8  9  2  0
  8  6  1  0
 11 10  1  0
 11 12  2  0
 13 11  1  0
 14 13  1  0
 15 14  1  1
 15 16  1  0
 16  8  1  0
 17 15  1  0
 17 18  2  0
 19 20  1  0
 20 21  2  0
 21 22  1  0
 23 22  2  0
 23 24  1  0
 25 24  1  1
 25 26  1  0
 26 17  1  0
 27 25  1  0
 28 27  1  0
 29 23  1  0
 30 20  1  0
 30 29  2  0
 31 27  2  0
M  END
$$$$
