QQY.pdb
     RDKit          3D

 31 31  0  0  1  0  0  0  0  0999 V2000
    8.0626  -16.4684   13.0652 N   0  0  0  0  0  0  0  0  0  0  0  0
    9.3137  -15.7952   12.9154 C   0  0  0  0  0  0  0  0  0  0  0  0
    9.5091  -15.2135   11.8278 O   0  0  0  0  0  0  0  0  0  0  0  0
   10.2938  -15.8055   14.0007 C   0  0  0  0  0  0  0  0  0  0  0  0
    9.8252  -16.4751   15.2554 C   0  0  0  0  0  0  0  0  0  0  0  0
   10.8644  -17.2567   15.9846 C   0  0  2  0  0  0  0  0  0  0  0  0
   11.3349  -18.3226   15.1163 N   0  0  0  0  0  0  0  0  0  0  0  0
   10.3268  -17.8261   17.2675 C   0  0  0  0  0  0  0  0  0  0  0  0
    9.3725  -18.6174   17.1894 O   0  0  0  0  0  0  0  0  0  0  0  0
   12.4162  -21.4419   21.2612 N   0  0  0  0  0  0  0  0  0  0  0  0
   13.1691  -20.5892   20.4240 C   0  0  0  0  0  0  0  0  0  0  0  0
   14.3440  -20.9114   20.1606 O   0  0  0  0  0  0  0  0  0  0  0  0
   12.6001  -19.3276   19.8502 C   0  0  0  0  0  0  0  0  0  0  0  0
   11.1958  -19.1214   20.2787 C   0  0  0  0  0  0  0  0  0  0  0  0
   10.5271  -17.8625   19.7740 C   0  0  2  0  0  0  0  0  0  0  0  0
   10.9255  -17.4376   18.4749 N   0  0  0  0  0  0  0  0  0  0  0  0
   10.6427  -16.8058   20.7877 C   0  0  0  0  0  0  0  0  0  0  0  0
   11.6923  -16.0694   20.8664 O   0  0  0  0  0  0  0  0  0  0  0  0
    7.6669  -12.5846   17.5168 O   0  0  0  0  0  0  0  0  0  0  0  0
    7.9220  -13.0439   18.8021 C   0  0  0  0  0  0  0  0  0  0  0  0
    9.0323  -12.7004   19.5180 C   0  0  0  0  0  0  0  0  0  0  0  0
    9.3024  -13.1417   20.7854 C   0  0  0  0  0  0  0  0  0  0  0  0
    8.3821  -14.0017   21.3905 C   0  0  0  0  0  0  0  0  0  0  0  0
    8.6537  -14.5113   22.7473 C   0  0  0  0  0  0  0  0  0  0  0  0
    9.8293  -15.4251   22.7349 C   0  0  2  0  0  0  0  0  0  0  0  0
    9.6371  -16.5083   21.7447 N   0  0  0  0  0  0  0  0  0  0  0  0
   10.1313  -16.0430   24.0311 C   0  0  0  0  0  0  0  0  0  0  0  0
   10.0765  -17.4144   24.1758 O   0  0  0  0  0  0  0  0  0  0  0  0
    7.2605  -14.3569   20.6843 C   0  0  0  0  0  0  0  0  0  0  0  0
    6.9998  -13.9023   19.4014 C   0  0  0  0  0  0  0  0  0  0  0  0
   10.4388  -15.3320   25.0082 O   0  0  0  0  0  0  0  0  0  0  0  0
  2  3  2  0
  2  1  1  0
  4  2  1  0
  5  4  1  0
  6  5  1  0
  6  7  1  6
  8  9  2  0
  8  6  1  0
 11 10  1  0
 11 12  2  0
 13 11  1  0
 14 13  1  0
 15 14  1  1
 15 16  1  0
 16  8  1  0
 17 15  1  0
 17 18  2  0
 19 20  1  0
 20 21  2  0
 21 22  1  0
 23 22  2  0
 23 24  1  0
 25 24  1  1
 25 26  1  0
 26 17  1  0
 27 25  1  0
 28 27  1  0
 29 23  1  0
 30 20  1  0
 30 29  2  0
 31 27  2  0
M  END
$$$$
