QQY.pdb
     RDKit          3D

 31 31  0  0  1  0  0  0  0  0999 V2000
    7.1417  -12.2682   16.5394 N   0  0  0  0  0  0  0  0  0  0  0  0
    7.5778  -13.3646   15.7340 C   0  0  0  0  0  0  0  0  0  0  0  0
    7.5583  -13.1925   14.4972 O   0  0  0  0  0  0  0  0  0  0  0  0
    8.0193  -14.6113   16.3580 C   0  0  0  0  0  0  0  0  0  0  0  0
    7.8874  -14.6409   17.8492 C   0  0  0  0  0  0  0  0  0  0  0  0
    9.1491  -14.9189   18.5932 C   0  0  2  0  0  0  0  0  0  0  0  0
   10.0017  -15.7519   17.7622 N   0  0  0  0  0  0  0  0  0  0  0  0
    8.8766  -15.5962   19.9070 C   0  0  0  0  0  0  0  0  0  0  0  0
    8.0193  -15.0880   20.6485 O   0  0  0  0  0  0  0  0  0  0  0  0
   11.2239  -21.4567   21.2608 N   0  0  0  0  0  0  0  0  0  0  0  0
   11.1161  -20.7311   20.0538 C   0  0  0  0  0  0  0  0  0  0  0  0
   11.5874  -21.2398   19.0181 O   0  0  0  0  0  0  0  0  0  0  0  0
   10.4573  -19.3873   19.9861 C   0  0  0  0  0  0  0  0  0  0  0  0
    9.9710  -18.9533   21.3179 C   0  0  0  0  0  0  0  0  0  0  0  0
    9.4311  -17.5432   21.3989 C   0  0  2  0  0  0  0  0  0  0  0  0
    9.5982  -16.7564   20.2242 N   0  0  0  0  0  0  0  0  0  0  0  0
    9.9462  -16.8898   22.6095 C   0  0  0  0  0  0  0  0  0  0  0  0
   11.1384  -16.4136   22.6542 O   0  0  0  0  0  0  0  0  0  0  0  0
   10.9197  -14.3206   30.9656 O   0  0  0  0  0  0  0  0  0  0  0  0
   10.3849  -14.6240   29.7206 C   0  0  0  0  0  0  0  0  0  0  0  0
   10.0218  -15.8848   29.3439 C   0  0  0  0  0  0  0  0  0  0  0  0
    9.4932  -16.2049   28.1224 C   0  0  0  0  0  0  0  0  0  0  0  0
    9.3115  -15.1746   27.1960 C   0  0  0  0  0  0  0  0  0  0  0  0
    8.7634  -15.4896   25.8639 C   0  0  0  0  0  0  0  0  0  0  0  0
    9.8087  -16.1098   25.0037 C   0  0  2  0  0  0  0  0  0  0  0  0
    9.1984  -16.7280   23.8053 N   0  0  0  0  0  0  0  0  0  0  0  0
   10.6220  -17.1292   25.6764 C   0  0  0  0  0  0  0  0  0  0  0  0
   10.1631  -18.4267   25.7786 O   0  0  0  0  0  0  0  0  0  0  0  0
    9.6716  -13.9012   27.5589 C   0  0  0  0  0  0  0  0  0  0  0  0
   10.2058  -13.5915   28.7995 C   0  0  0  0  0  0  0  0  0  0  0  0
   11.7316  -16.8281   26.1590 O   0  0  0  0  0  0  0  0  0  0  0  0
  2  3  2  0
  2  1  1  0
  4  2  1  0
  5  4  1  0
  6  5  1  0
  6  7  1  6
  8  9  2  0
  8  6  1  0
 11 10  1  0
 11 12  2  0
 13 11  1  0
 14 13  1  0
 15 14  1  6
 15 16  1  0
 16  8  1  0
 17 15  1  0
 17 18  2  0
 19 20  1  0
 20 21  2  0
 21 22  1  0
 23 22  2  0
 23 24  1  0
 25 24  1  1
 25 26  1  0
 26 17  1  0
 27 25  1  0
 28 27  1  0
 29 23  1  0
 30 20  1  0
 30 29  2  0
 31 27  2  0
M  END
$$$$
