QQY.pdb
     RDKit          3D

 31 31  0  0  1  0  0  0  0  0999 V2000
    7.0457  -14.9571   13.6140 N   0  0  0  0  0  0  0  0  0  0  0  0
    8.3130  -15.4324   13.1569 C   0  0  0  0  0  0  0  0  0  0  0  0
    8.4466  -15.5706   11.9230 O   0  0  0  0  0  0  0  0  0  0  0  0
    9.3791  -15.7317   14.1121 C   0  0  0  0  0  0  0  0  0  0  0  0
    9.0236  -15.4698   15.5429 C   0  0  0  0  0  0  0  0  0  0  0  0
   10.0522  -15.8845   16.5392 C   0  0  2  0  0  0  0  0  0  0  0  0
   10.5044  -17.2246   16.2061 N   0  0  0  0  0  0  0  0  0  0  0  0
    9.5086  -15.8491   17.9401 C   0  0  0  0  0  0  0  0  0  0  0  0
    9.0902  -14.7601   18.3666 O   0  0  0  0  0  0  0  0  0  0  0  0
    5.9750  -20.3293   17.7796 N   0  0  0  0  0  0  0  0  0  0  0  0
    6.8074  -19.9484   18.8553 C   0  0  0  0  0  0  0  0  0  0  0  0
    7.4125  -20.8439   19.4761 O   0  0  0  0  0  0  0  0  0  0  0  0
    6.9820  -18.5169   19.2617 C   0  0  0  0  0  0  0  0  0  0  0  0
    8.0873  -18.3606   20.2375 C   0  0  0  0  0  0  0  0  0  0  0  0
    9.0077  -17.1820   20.0129 C   0  0  2  0  0  0  0  0  0  0  0  0
    9.5023  -17.0370   18.6857 N   0  0  0  0  0  0  0  0  0  0  0  0
   10.0701  -17.1893   21.0273 C   0  0  0  0  0  0  0  0  0  0  0  0
    9.8034  -17.3709   22.2707 O   0  0  0  0  0  0  0  0  0  0  0  0
   11.0063  -19.6050   27.4071 O   0  0  0  0  0  0  0  0  0  0  0  0
   11.4518  -19.2929   26.1295 C   0  0  0  0  0  0  0  0  0  0  0  0
   11.3504  -18.0475   25.5799 C   0  0  0  0  0  0  0  0  0  0  0  0
   11.7830  -17.7192   24.3233 C   0  0  0  0  0  0  0  0  0  0  0  0
   12.3683  -18.7237   23.5479 C   0  0  0  0  0  0  0  0  0  0  0  0
   12.8261  -18.4074   22.1823 C   0  0  0  0  0  0  0  0  0  0  0  0
   12.4576  -17.0111   21.8196 C   0  0  2  0  0  0  0  0  0  0  0  0
   11.4473  -17.0029   20.7378 N   0  0  0  0  0  0  0  0  0  0  0  0
   13.5867  -16.1768   21.3929 C   0  0  0  0  0  0  0  0  0  0  0  0
   14.4755  -15.6821   22.3256 O   0  0  0  0  0  0  0  0  0  0  0  0
   12.4777  -19.9814   24.0856 C   0  0  0  0  0  0  0  0  0  0  0  0
   12.0353  -20.2996   25.3597 C   0  0  0  0  0  0  0  0  0  0  0  0
   13.7486  -15.9107   20.1855 O   0  0  0  0  0  0  0  0  0  0  0  0
  2  3  2  0
  2  1  1  0
  4  2  1  0
  5  4  1  0
  6  5  1  0
  6  7  1  6
  8  9  2  0
  8  6  1  0
 11 10  1  0
 11 12  2  0
 13 11  1  0
 14 13  1  0
 15 14  1  6
 15 16  1  0
 16  8  1  0
 17 15  1  0
 17 18  2  0
 19 20  1  0
 20 21  2  0
 21 22  1  0
 23 22  2  0
 23 24  1  0
 25 24  1  6
 25 26  1  0
 26 17  1  0
 27 25  1  0
 28 27  1  0
 29 23  1  0
 30 20  1  0
 30 29  2  0
 31 27  2  0
M  END
$$$$
