QQY.pdb
     RDKit          3D

 31 31  0  0  1  0  0  0  0  0999 V2000
    8.5167  -14.8132   14.0720 N   0  0  0  0  0  0  0  0  0  0  0  0
    7.3762  -14.1903   14.6654 C   0  0  0  0  0  0  0  0  0  0  0  0
    6.5135  -13.7412   13.8821 O   0  0  0  0  0  0  0  0  0  0  0  0
    7.2557  -14.1002   16.1200 C   0  0  0  0  0  0  0  0  0  0  0  0
    8.3565  -14.7751   16.8781 C   0  0  0  0  0  0  0  0  0  0  0  0
    8.2086  -14.7597   18.3615 C   0  0  2  0  0  0  0  0  0  0  0  0
    8.1470  -13.3774   18.8055 N   0  0  0  0  0  0  0  0  0  0  0  0
    9.3449  -15.4756   19.0364 C   0  0  0  0  0  0  0  0  0  0  0  0
    9.4718  -16.6909   18.8129 O   0  0  0  0  0  0  0  0  0  0  0  0
   15.0992  -14.0413   18.6525 N   0  0  0  0  0  0  0  0  0  0  0  0
   15.1399  -14.6904   19.9063 C   0  0  0  0  0  0  0  0  0  0  0  0
   16.2405  -14.7854   20.4836 O   0  0  0  0  0  0  0  0  0  0  0  0
   13.9126  -15.2567   20.5524 C   0  0  0  0  0  0  0  0  0  0  0  0
   12.6767  -14.7332   19.9226 C   0  0  0  0  0  0  0  0  0  0  0  0
   11.3735  -15.2348   20.5029 C   0  0  2  0  0  0  0  0  0  0  0  0
   10.1948  -14.7405   19.8756 N   0  0  0  0  0  0  0  0  0  0  0  0
   11.3778  -15.0397   21.9588 C   0  0  0  0  0  0  0  0  0  0  0  0
   12.0144  -14.0633   22.4987 O   0  0  0  0  0  0  0  0  0  0  0  0
    5.7597  -11.9383   27.4355 O   0  0  0  0  0  0  0  0  0  0  0  0
    6.5401  -12.5205   26.4455 C   0  0  0  0  0  0  0  0  0  0  0  0
    7.8629  -12.2364   26.2648 C   0  0  0  0  0  0  0  0  0  0  0  0
    8.6494  -12.7989   25.2958 C   0  0  0  0  0  0  0  0  0  0  0  0
    8.0624  -13.7268   24.4314 C   0  0  0  0  0  0  0  0  0  0  0  0
    8.8773  -14.3355   23.3639 C   0  0  0  0  0  0  0  0  0  0  0  0
    9.8397  -15.3160   23.9380 C   0  0  2  0  0  0  0  0  0  0  0  0
   10.7001  -15.8848   22.8763 N   0  0  0  0  0  0  0  0  0  0  0  0
    9.2136  -16.4293   24.6603 C   0  0  0  0  0  0  0  0  0  0  0  0
    9.0879  -16.3823   26.0338 O   0  0  0  0  0  0  0  0  0  0  0  0
    6.7333  -14.0236   24.5995 C   0  0  0  0  0  0  0  0  0  0  0  0
    5.9489  -13.4462   25.5852 C   0  0  0  0  0  0  0  0  0  0  0  0
    8.7922  -17.4234   24.0365 O   0  0  0  0  0  0  0  0  0  0  0  0
  2  3  2  0
  2  1  1  0
  4  2  1  0
  5  4  1  0
  6  5  1  0
  6  7  1  1
  8  9  2  0
  8  6  1  0
 11 10  1  0
 11 12  2  0
 13 11  1  0
 14 13  1  0
 15 14  1  6
 15 16  1  0
 16  8  1  0
 17 15  1  0
 17 18  2  0
 19 20  1  0
 20 21  2  0
 21 22  1  0
 23 22  2  0
 23 24  1  0
 25 24  1  6
 25 26  1  0
 26 17  1  0
 27 25  1  0
 28 27  1  0
 29 23  1  0
 30 20  1  0
 30 29  2  0
 31 27  2  0
M  END
$$$$
