QQY.pdb
     RDKit          3D

 31 31  0  0  1  0  0  0  0  0999 V2000
   19.8672  -18.5573   12.9421 N   0  0  0  0  0  0  0  0  0  0  0  0
   20.7915  -18.1577   13.9554 C   0  0  0  0  0  0  0  0  0  0  0  0
   21.9912  -18.4465   13.7635 O   0  0  0  0  0  0  0  0  0  0  0  0
   20.3237  -17.4470   15.1448 C   0  0  0  0  0  0  0  0  0  0  0  0
   18.8479  -17.1961   15.1789 C   0  0  0  0  0  0  0  0  0  0  0  0
   18.3408  -16.5570   16.4267 C   0  0  2  0  0  0  0  0  0  0  0  0
   19.4790  -16.1287   17.2221 N   0  0  0  0  0  0  0  0  0  0  0  0
   17.4757  -17.4990   17.2163 C   0  0  0  0  0  0  0  0  0  0  0  0
   16.4860  -17.9857   16.6449 O   0  0  0  0  0  0  0  0  0  0  0  0
   16.0440  -22.6855   19.3047 N   0  0  0  0  0  0  0  0  0  0  0  0
   15.3348  -21.8283   18.4346 C   0  0  0  0  0  0  0  0  0  0  0  0
   14.2914  -22.2593   17.9062 O   0  0  0  0  0  0  0  0  0  0  0  0
   15.7952  -20.4341   18.1368 C   0  0  0  0  0  0  0  0  0  0  0  0
   17.0651  -20.1209   18.8350 C   0  0  0  0  0  0  0  0  0  0  0  0
   17.1859  -18.7214   19.3948 C   0  0  2  0  0  0  0  0  0  0  0  0
   17.8283  -17.7767   18.5451 N   0  0  0  0  0  0  0  0  0  0  0  0
   17.7727  -18.7804   20.7401 C   0  0  0  0  0  0  0  0  0  0  0  0
   18.0441  -19.9041   21.3004 O   0  0  0  0  0  0  0  0  0  0  0  0
   24.1353  -21.2323   20.1466 O   0  0  0  0  0  0  0  0  0  0  0  0
   23.1731  -20.2355   20.2411 C   0  0  0  0  0  0  0  0  0  0  0  0
   22.2300  -20.1902   21.2267 C   0  0  0  0  0  0  0  0  0  0  0  0
   21.2736  -19.2171   21.3377 C   0  0  0  0  0  0  0  0  0  0  0  0
   21.2584  -18.2000   20.3796 C   0  0  0  0  0  0  0  0  0  0  0  0
   20.2281  -17.1481   20.4593 C   0  0  0  0  0  0  0  0  0  0  0  0
   19.4919  -17.2367   21.7505 C   0  0  2  0  0  0  0  0  0  0  0  0
   18.0855  -17.6376   21.5221 N   0  0  0  0  0  0  0  0  0  0  0  0
   19.4889  -15.9959   22.5337 C   0  0  0  0  0  0  0  0  0  0  0  0
   18.2971  -15.3702   22.8383 O   0  0  0  0  0  0  0  0  0  0  0  0
   22.1999  -18.2309   19.3818 C   0  0  0  0  0  0  0  0  0  0  0  0
   23.1626  -19.2225   19.2817 C   0  0  0  0  0  0  0  0  0  0  0  0
   20.5633  -15.5007   22.9279 O   0  0  0  0  0  0  0  0  0  0  0  0
  2  3  2  0
  2  1  1  0
  4  2  1  0
  5  4  1  0
  6  5  1  0
  6  7  1  1
  8  9  2  0
  8  6  1  0
 11 10  1  0
 11 12  2  0
 13 11  1  0
 14 13  1  0
 15 14  1  6
 15 16  1  0
 16  8  1  0
 17 15  1  0
 17 18  2  0
 19 20  1  0
 20 21  2  0
 21 22  1  0
 23 22  2  0
 23 24  1  0
 25 24  1  6
 25 26  1  0
 26 17  1  0
 27 25  1  0
 28 27  1  0
 29 23  1  0
 30 20  1  0
 30 29  2  0
 31 27  2  0
M  END
$$$$
