QQY.pdb
     RDKit          3D

 31 31  0  0  1  0  0  0  0  0999 V2000
    9.2802  -12.4534   19.7653 N   0  0  0  0  0  0  0  0  0  0  0  0
    8.2142  -12.8563   18.9037 C   0  0  0  0  0  0  0  0  0  0  0  0
    8.1190  -12.2554   17.8131 O   0  0  0  0  0  0  0  0  0  0  0  0
    7.2988  -13.9225   19.3084 C   0  0  0  0  0  0  0  0  0  0  0  0
    7.5704  -14.4933   20.6658 C   0  0  0  0  0  0  0  0  0  0  0  0
    8.2813  -15.8038   20.6733 C   0  0  2  0  0  0  0  0  0  0  0  0
    7.5617  -16.7249   19.8100 N   0  0  0  0  0  0  0  0  0  0  0  0
    8.3881  -16.3651   22.0635 C   0  0  0  0  0  0  0  0  0  0  0  0
    7.3334  -16.6850   22.6364 O   0  0  0  0  0  0  0  0  0  0  0  0
   11.0292  -21.0227   23.2126 N   0  0  0  0  0  0  0  0  0  0  0  0
   11.3532  -20.5481   24.5028 C   0  0  0  0  0  0  0  0  0  0  0  0
   11.6023  -21.3854   25.3919 O   0  0  0  0  0  0  0  0  0  0  0  0
   11.4076  -19.0860   24.8254 C   0  0  0  0  0  0  0  0  0  0  0  0
   11.0998  -18.2558   23.6362 C   0  0  0  0  0  0  0  0  0  0  0  0
    9.9753  -17.2579   23.7977 C   0  0  2  0  0  0  0  0  0  0  0  0
    9.6617  -16.4972   22.6359 N   0  0  0  0  0  0  0  0  0  0  0  0
   10.2244  -16.4261   24.9825 C   0  0  0  0  0  0  0  0  0  0  0  0
   11.0627  -15.4532   24.9498 O   0  0  0  0  0  0  0  0  0  0  0  0
    6.3846  -11.1846   24.8398 O   0  0  0  0  0  0  0  0  0  0  0  0
    6.9431  -12.1864   25.6225 C   0  0  0  0  0  0  0  0  0  0  0  0
    6.2491  -13.2793   26.0551 C   0  0  0  0  0  0  0  0  0  0  0  0
    6.7806  -14.2772   26.8267 C   0  0  0  0  0  0  0  0  0  0  0  0
    8.1236  -14.1740   27.1988 C   0  0  0  0  0  0  0  0  0  0  0  0
    8.7206  -15.2221   28.0468 C   0  0  0  0  0  0  0  0  0  0  0  0
    9.9425  -15.7794   27.4037 C   0  0  2  0  0  0  0  0  0  0  0  0
    9.5822  -16.6130   26.2347 N   0  0  0  0  0  0  0  0  0  0  0  0
   10.7832  -16.5866   28.2952 C   0  0  0  0  0  0  0  0  0  0  0  0
   11.3306  -16.0242   29.4304 O   0  0  0  0  0  0  0  0  0  0  0  0
    8.8356  -13.0813   26.7723 C   0  0  0  0  0  0  0  0  0  0  0  0
    8.2844  -12.0781   25.9911 C   0  0  0  0  0  0  0  0  0  0  0  0
   11.0071  -17.7846   28.0314 O   0  0  0  0  0  0  0  0  0  0  0  0
  2  3  2  0
  2  1  1  0
  4  2  1  0
  5  4  1  0
  6  5  1  0
  6  7  1  6
  8  9  2  0
  8  6  1  0
 11 10  1  0
 11 12  2  0
 13 11  1  0
 14 13  1  0
 15 14  1  6
 15 16  1  0
 16  8  1  0
 17 15  1  0
 17 18  2  0
 19 20  1  0
 20 21  2  0
 21 22  1  0
 23 22  2  0
 23 24  1  0
 25 24  1  1
 25 26  1  0
 26 17  1  0
 27 25  1  0
 28 27  1  0
 29 23  1  0
 30 20  1  0
 30 29  2  0
 31 27  2  0
M  END
$$$$
