QQY.pdb
     RDKit          3D

 31 31  0  0  1  0  0  0  0  0999 V2000
    9.5744  -15.9529   15.5008 N   0  0  0  0  0  0  0  0  0  0  0  0
    8.1948  -16.3157   15.5782 C   0  0  0  0  0  0  0  0  0  0  0  0
    7.6657  -16.7307   14.5259 O   0  0  0  0  0  0  0  0  0  0  0  0
    7.4683  -16.1960   16.8418 C   0  0  0  0  0  0  0  0  0  0  0  0
    8.2847  -15.6692   17.9809 C   0  0  0  0  0  0  0  0  0  0  0  0
    8.2205  -16.4741   19.2342 C   0  0  2  0  0  0  0  0  0  0  0  0
    6.8242  -16.6871   19.5756 N   0  0  0  0  0  0  0  0  0  0  0  0
    8.9371  -15.7913   20.3653 C   0  0  0  0  0  0  0  0  0  0  0  0
   10.1778  -15.8498   20.3780 O   0  0  0  0  0  0  0  0  0  0  0  0
    5.6779  -12.8528   25.1127 N   0  0  0  0  0  0  0  0  0  0  0  0
    6.0416  -14.2148   25.1999 C   0  0  0  0  0  0  0  0  0  0  0  0
    5.4097  -14.9426   25.9902 O   0  0  0  0  0  0  0  0  0  0  0  0
    7.1487  -14.7999   24.3773 C   0  0  0  0  0  0  0  0  0  0  0  0
    7.6633  -13.8239   23.3870 C   0  0  0  0  0  0  0  0  0  0  0  0
    8.6919  -14.3497   22.4113 C   0  0  2  0  0  0  0  0  0  0  0  0
    8.1741  -15.1297   21.3387 N   0  0  0  0  0  0  0  0  0  0  0  0
    9.7676  -15.0250   23.1493 C   0  0  0  0  0  0  0  0  0  0  0  0
   10.9719  -14.5785   23.1293 O   0  0  0  0  0  0  0  0  0  0  0  0
   11.9269  -15.6728   31.3463 O   0  0  0  0  0  0  0  0  0  0  0  0
   11.4096  -15.5253   30.0662 C   0  0  0  0  0  0  0  0  0  0  0  0
   10.9468  -14.3397   29.5729 C   0  0  0  0  0  0  0  0  0  0  0  0
   10.4335  -14.1730   28.3149 C   0  0  0  0  0  0  0  0  0  0  0  0
   10.3777  -15.2893   27.4761 C   0  0  0  0  0  0  0  0  0  0  0  0
    9.8114  -15.1477   26.1221 C   0  0  0  0  0  0  0  0  0  0  0  0
   10.1862  -16.3141   25.2759 C   0  0  2  0  0  0  0  0  0  0  0  0
    9.5829  -16.1966   23.9294 N   0  0  0  0  0  0  0  0  0  0  0  0
    9.8031  -17.6162   25.8332 C   0  0  0  0  0  0  0  0  0  0  0  0
    9.0355  -18.4903   25.0905 O   0  0  0  0  0  0  0  0  0  0  0  0
   10.8389  -16.4890   27.9567 C   0  0  0  0  0  0  0  0  0  0  0  0
   11.3563  -16.6431   29.2330 C   0  0  0  0  0  0  0  0  0  0  0  0
   10.1691  -17.9395   26.9806 O   0  0  0  0  0  0  0  0  0  0  0  0
  2  3  2  0
  2  1  1  0
  4  2  1  0
  5  4  1  0
  6  5  1  0
  6  7  1  1
  8  9  2  0
  8  6  1  0
 11 10  1  0
 11 12  2  0
 13 11  1  0
 14 13  1  0
 15 14  1  1
 15 16  1  0
 16  8  1  0
 17 15  1  0
 17 18  2  0
 19 20  1  0
 20 21  2  0
 21 22  1  0
 23 22  2  0
 23 24  1  0
 25 24  1  1
 25 26  1  0
 26 17  1  0
 27 25  1  0
 28 27  1  0
 29 23  1  0
 30 20  1  0
 30 29  2  0
 31 27  2  0
M  END
$$$$
