TFF.pdb
     RDKit          3D

 30 31  0  0  1  0  0  0  0  0999 V2000
    9.3829  -20.3274   18.6914 C   0  0  0  0  0  0  0  0  0  0  0  0
    9.5885  -19.2512   19.7296 C   0  0  1  0  0  0  0  0  0  0  0  0
   10.8157  -19.3812   20.3764 O   0  0  0  0  0  0  0  0  0  0  0  0
    9.3422  -17.8643   19.2272 C   0  0  2  0  0  0  0  0  0  0  0  0
   10.2189  -17.6159   18.1078 N   0  0  0  0  0  0  0  0  0  0  0  0
    9.3833  -16.8131   20.2464 C   0  0  0  0  0  0  0  0  0  0  0  0
   10.4850  -16.1756   20.3725 O   0  0  0  0  0  0  0  0  0  0  0  0
    8.3384  -16.4257   21.1080 N   0  0  0  0  0  0  0  0  0  0  0  0
    8.5347  -15.4680   22.2092 C   0  0  1  0  0  0  0  0  0  0  0  0
    7.1919  -14.9114   22.5245 C   0  0  0  0  0  0  0  0  0  0  0  0
    7.1215  -13.9807   23.6485 C   0  0  0  0  0  0  0  0  0  0  0  0
    6.6249  -14.4836   24.8573 C   0  0  0  0  0  0  0  0  0  0  0  0
    6.5060  -13.7184   25.9761 C   0  0  0  0  0  0  0  0  0  0  0  0
    6.8909  -12.3945   25.9140 C   0  0  0  0  0  0  0  0  0  0  0  0
    7.3821  -11.8691   24.7444 C   0  0  0  0  0  0  0  0  0  0  0  0
    7.4889  -12.6650   23.6377 C   0  0  0  0  0  0  0  0  0  0  0  0
    9.2172  -16.1033   23.3497 C   0  0  0  0  0  0  0  0  0  0  0  0
    8.6869  -17.1300   23.8449 O   0  0  0  0  0  0  0  0  0  0  0  0
   10.4226  -15.6473   23.9294 N   0  0  0  0  0  0  0  0  0  0  0  0
   10.7536  -15.9291   25.3190 C   0  0  1  0  0  0  0  0  0  0  0  0
    9.5505  -15.7955   26.2093 C   0  0  0  0  0  0  0  0  0  0  0  0
    9.8425  -15.3187   27.5625 C   0  0  0  0  0  0  0  0  0  0  0  0
    9.7047  -13.9816   27.8619 C   0  0  0  0  0  0  0  0  0  0  0  0
    9.9791  -13.5169   29.1382 C   0  0  0  0  0  0  0  0  0  0  0  0
   10.3924  -14.3924   30.1162 C   0  0  0  0  0  0  0  0  0  0  0  0
   10.5228  -15.7273   29.7909 C   0  0  0  0  0  0  0  0  0  0  0  0
   10.2554  -16.2152   28.5272 C   0  0  0  0  0  0  0  0  0  0  0  0
   11.4569  -17.2234   25.4443 C   0  0  0  0  0  0  0  0  0  0  0  0
   10.8578  -18.4518   25.3108 O   0  0  0  0  0  0  0  0  0  0  0  0
   12.6896  -17.2061   25.6905 O   0  0  0  0  0  0  0  0  0  0  0  0
  2  1  1  6
  3  2  1  0
  4  5  1  6
  4  2  1  0
  6  4  1  0
  7  6  2  0
  8  6  1  0
  9  8  1  0
  9 10  1  1
 10 11  1  0
 11 16  1  0
 12 11  2  0
 12 13  1  0
 13 14  2  0
 14 15  1  0
 16 15  2  0
 17 18  2  0
 17  9  1  0
 19 17  1  0
 20 19  1  0
 20 21  1  1
 21 22  1  0
 22 27  1  0
 22 23  2  0
 23 24  1  0
 24 25  2  0
 26 25  1  0
 27 26  2  0
 28 20  1  0
 29 28  1  0
 30 28  2  0
M  END
$$$$
