TFF.pdb
     RDKit          3D

 30 31  0  0  1  0  0  0  0  0999 V2000
    9.9629  -19.5095   18.2030 C   0  0  0  0  0  0  0  0  0  0  0  0
   10.0128  -18.7481   19.5053 C   0  0  1  0  0  0  0  0  0  0  0  0
   11.0422  -19.1969   20.3301 O   0  0  0  0  0  0  0  0  0  0  0  0
   10.0064  -17.2614   19.3432 C   0  0  2  0  0  0  0  0  0  0  0  0
   11.1520  -16.8778   18.5534 N   0  0  0  0  0  0  0  0  0  0  0  0
    9.8704  -16.4972   20.5853 C   0  0  0  0  0  0  0  0  0  0  0  0
   10.9506  -16.0683   21.1192 O   0  0  0  0  0  0  0  0  0  0  0  0
    8.6750  -16.1817   21.2606 N   0  0  0  0  0  0  0  0  0  0  0  0
    8.6591  -15.4849   22.5577 C   0  0  1  0  0  0  0  0  0  0  0  0
    7.2648  -15.0081   22.7599 C   0  0  0  0  0  0  0  0  0  0  0  0
    6.9746  -14.3730   24.0432 C   0  0  0  0  0  0  0  0  0  0  0  0
    7.5006  -13.0917   24.2493 C   0  0  0  0  0  0  0  0  0  0  0  0
    7.3052  -12.3955   25.4019 C   0  0  0  0  0  0  0  0  0  0  0  0
    6.5584  -12.9778   26.4058 C   0  0  0  0  0  0  0  0  0  0  0  0
    6.0279  -14.2329   26.2368 C   0  0  0  0  0  0  0  0  0  0  0  0
    6.2429  -14.9060   25.0662 C   0  0  0  0  0  0  0  0  0  0  0  0
    9.1712  -16.3525   23.6325 C   0  0  0  0  0  0  0  0  0  0  0  0
    8.7937  -17.5517   23.6400 O   0  0  0  0  0  0  0  0  0  0  0  0
   10.0547  -15.9403   24.6555 N   0  0  0  0  0  0  0  0  0  0  0  0
   10.6336  -16.8934   25.5916 C   0  0  1  0  0  0  0  0  0  0  0  0
   11.6411  -16.2369   26.4927 C   0  0  0  0  0  0  0  0  0  0  0  0
   11.0660  -15.3610   27.5154 C   0  0  0  0  0  0  0  0  0  0  0  0
   10.7861  -14.0471   27.2128 C   0  0  0  0  0  0  0  0  0  0  0  0
   10.2431  -13.2070   28.1717 C   0  0  0  0  0  0  0  0  0  0  0  0
    9.9802  -13.6833   29.4358 C   0  0  0  0  0  0  0  0  0  0  0  0
   10.2699  -15.0037   29.7140 C   0  0  0  0  0  0  0  0  0  0  0  0
   10.8108  -15.8609   28.7763 C   0  0  0  0  0  0  0  0  0  0  0  0
    9.5782  -17.6401   26.3084 C   0  0  0  0  0  0  0  0  0  0  0  0
    9.7882  -18.7941   27.0225 O   0  0  0  0  0  0  0  0  0  0  0  0
    8.4037  -17.1936   26.2653 O   0  0  0  0  0  0  0  0  0  0  0  0
  2  1  1  6
  3  2  1  0
  4  5  1  1
  4  2  1  0
  6  4  1  0
  7  6  2  0
  8  6  1  0
  9  8  1  0
  9 10  1  1
 10 11  1  0
 11 16  1  0
 12 11  2  0
 12 13  1  0
 13 14  2  0
 14 15  1  0
 16 15  2  0
 17 18  2  0
 17  9  1  0
 19 17  1  0
 20 19  1  0
 20 21  1  1
 21 22  1  0
 22 27  1  0
 22 23  2  0
 23 24  1  0
 24 25  2  0
 26 25  1  0
 27 26  2  0
 28 20  1  0
 29 28  1  0
 30 28  2  0
M  END
$$$$
