TFF.pdb
     RDKit          3D

 30 31  0  0  1  0  0  0  0  0999 V2000
    7.0626  -22.2339   24.0194 C   0  0  0  0  0  0  0  0  0  0  0  0
    7.6783  -20.8808   23.7575 C   0  0  1  0  0  0  0  0  0  0  0  0
    8.9932  -20.8116   24.2130 O   0  0  0  0  0  0  0  0  0  0  0  0
    7.5274  -20.4049   22.3477 C   0  0  2  0  0  0  0  0  0  0  0  0
    8.0894  -21.3969   21.4625 N   0  0  0  0  0  0  0  0  0  0  0  0
    8.0152  -19.0481   22.0898 C   0  0  0  0  0  0  0  0  0  0  0  0
    9.1772  -18.9434   21.5656 O   0  0  0  0  0  0  0  0  0  0  0  0
    7.3426  -17.8397   22.3578 N   0  0  0  0  0  0  0  0  0  0  0  0
    7.9545  -16.5226   22.1144 C   0  0  1  0  0  0  0  0  0  0  0  0
    6.8317  -15.5770   21.8749 C   0  0  0  0  0  0  0  0  0  0  0  0
    7.1988  -14.2151   21.4943 C   0  0  0  0  0  0  0  0  0  0  0  0
    7.5278  -13.9997   20.1503 C   0  0  0  0  0  0  0  0  0  0  0  0
    7.8897  -12.7789   19.6706 C   0  0  0  0  0  0  0  0  0  0  0  0
    7.9332  -11.7125   20.5456 C   0  0  0  0  0  0  0  0  0  0  0  0
    7.6166  -11.8887   21.8701 C   0  0  0  0  0  0  0  0  0  0  0  0
    7.2570  -13.1286   22.3204 C   0  0  0  0  0  0  0  0  0  0  0  0
    8.8507  -16.1414   23.2197 C   0  0  0  0  0  0  0  0  0  0  0  0
    9.8699  -15.4634   22.9333 O   0  0  0  0  0  0  0  0  0  0  0  0
    8.6522  -16.4791   24.5775 N   0  0  0  0  0  0  0  0  0  0  0  0
    9.5444  -15.9944   25.6211 C   0  0  1  0  0  0  0  0  0  0  0  0
    8.7776  -15.3972   26.7671 C   0  0  0  0  0  0  0  0  0  0  0  0
    7.9410  -14.2500   26.4099 C   0  0  0  0  0  0  0  0  0  0  0  0
    8.4940  -12.9901   26.3548 C   0  0  0  0  0  0  0  0  0  0  0  0
    7.7132  -11.8955   26.0194 C   0  0  0  0  0  0  0  0  0  0  0  0
    6.3764  -12.0628   25.7391 C   0  0  0  0  0  0  0  0  0  0  0  0
    5.8460  -13.3355   25.8012 C   0  0  0  0  0  0  0  0  0  0  0  0
    6.6026  -14.4420   26.1326 C   0  0  0  0  0  0  0  0  0  0  0  0
   10.5103  -17.0399   26.0203 C   0  0  0  0  0  0  0  0  0  0  0  0
   10.5327  -18.3152   25.5116 O   0  0  0  0  0  0  0  0  0  0  0  0
   11.3744  -16.7484   26.8857 O   0  0  0  0  0  0  0  0  0  0  0  0
  2  1  1  6
  3  2  1  0
  4  5  1  6
  4  2  1  0
  6  4  1  0
  7  6  2  0
  8  6  1  0
  9  8  1  0
  9 10  1  1
 10 11  1  0
 11 16  1  0
 12 11  2  0
 12 13  1  0
 13 14  2  0
 14 15  1  0
 16 15  2  0
 17 18  2  0
 17  9  1  0
 19 17  1  0
 20 19  1  0
 20 21  1  1
 21 22  1  0
 22 27  1  0
 22 23  2  0
 23 24  1  0
 24 25  2  0
 26 25  1  0
 27 26  2  0
 28 20  1  0
 29 28  1  0
 30 28  2  0
M  END
$$$$
