TFF.pdb
     RDKit          3D

 30 31  0  0  1  0  0  0  0  0999 V2000
    9.3634  -14.6238   21.0374 C   0  0  0  0  0  0  0  0  0  0  0  0
    7.9932  -14.5848   20.4055 C   0  0  1  0  0  0  0  0  0  0  0  0
    8.0573  -14.2957   19.0440 O   0  0  0  0  0  0  0  0  0  0  0  0
    7.1495  -15.7829   20.7045 C   0  0  2  0  0  0  0  0  0  0  0  0
    5.8821  -15.6355   20.0297 N   0  0  0  0  0  0  0  0  0  0  0  0
    7.0202  -16.1185   22.1244 C   0  0  0  0  0  0  0  0  0  0  0  0
    6.3447  -15.3090   22.8486 O   0  0  0  0  0  0  0  0  0  0  0  0
    7.5613  -17.2395   22.7837 N   0  0  0  0  0  0  0  0  0  0  0  0
    7.3459  -17.4944   24.2180 C   0  0  1  0  0  0  0  0  0  0  0  0
    7.3337  -18.9724   24.3835 C   0  0  0  0  0  0  0  0  0  0  0  0
    7.1982  -19.4725   25.7495 C   0  0  0  0  0  0  0  0  0  0  0  0
    7.2880  -20.8584   25.9286 C   0  0  0  0  0  0  0  0  0  0  0  0
    7.1751  -21.4487   27.1493 C   0  0  0  0  0  0  0  0  0  0  0  0
    6.9638  -20.6474   28.2528 C   0  0  0  0  0  0  0  0  0  0  0  0
    6.8707  -19.2846   28.1128 C   0  0  0  0  0  0  0  0  0  0  0  0
    6.9885  -18.7226   26.8719 C   0  0  0  0  0  0  0  0  0  0  0  0
    8.3500  -16.7948   25.0380 C   0  0  0  0  0  0  0  0  0  0  0  0
    9.5138  -16.6970   24.5723 O   0  0  0  0  0  0  0  0  0  0  0  0
    8.1054  -16.2250   26.3078 N   0  0  0  0  0  0  0  0  0  0  0  0
    9.1558  -15.5454   27.0527 C   0  0  1  0  0  0  0  0  0  0  0  0
    8.5918  -14.4860   27.9570 C   0  0  0  0  0  0  0  0  0  0  0  0
    7.8042  -13.4573   27.2750 C   0  0  0  0  0  0  0  0  0  0  0  0
    6.4289  -13.4975   27.3328 C   0  0  0  0  0  0  0  0  0  0  0  0
    5.6715  -12.5310   26.6907 C   0  0  0  0  0  0  0  0  0  0  0  0
    6.2922  -11.5228   25.9892 C   0  0  0  0  0  0  0  0  0  0  0  0
    7.6716  -11.5048   25.9463 C   0  0  0  0  0  0  0  0  0  0  0  0
    8.4486  -12.4557   26.5776 C   0  0  0  0  0  0  0  0  0  0  0  0
   10.0346  -16.5178   27.7364 C   0  0  0  0  0  0  0  0  0  0  0  0
   11.3145  -16.2505   28.1562 O   0  0  0  0  0  0  0  0  0  0  0  0
    9.5858  -17.6723   27.9516 O   0  0  0  0  0  0  0  0  0  0  0  0
  2  1  1  6
  3  2  1  0
  4  5  1  1
  4  2  1  0
  6  4  1  0
  7  6  2  0
  8  6  1  0
  9  8  1  0
  9 10  1  6
 10 11  1  0
 11 16  1  0
 12 11  2  0
 12 13  1  0
 13 14  2  0
 14 15  1  0
 16 15  2  0
 17 18  2  0
 17  9  1  0
 19 17  1  0
 20 19  1  0
 20 21  1  1
 21 22  1  0
 22 27  1  0
 22 23  2  0
 23 24  1  0
 24 25  2  0
 26 25  1  0
 27 26  2  0
 28 20  1  0
 29 28  1  0
 30 28  2  0
M  END
$$$$
