TFF.pdb
     RDKit          3D

 30 31  0  0  1  0  0  0  0  0999 V2000
    9.0204  -19.6532   21.0731 C   0  0  0  0  0  0  0  0  0  0  0  0
    9.8397  -19.1126   19.9264 C   0  0  1  0  0  0  0  0  0  0  0  0
    9.8195  -19.9668   18.8258 O   0  0  0  0  0  0  0  0  0  0  0  0
    9.5243  -17.6957   19.5663 C   0  0  2  0  0  0  0  0  0  0  0  0
   10.3307  -17.3171   18.4307 N   0  0  0  0  0  0  0  0  0  0  0  0
    9.5889  -16.7395   20.6740 C   0  0  0  0  0  0  0  0  0  0  0  0
   10.7546  -16.3695   21.0485 O   0  0  0  0  0  0  0  0  0  0  0  0
    8.5034  -16.1803   21.3763 N   0  0  0  0  0  0  0  0  0  0  0  0
    8.6811  -15.3683   22.5918 C   0  0  1  0  0  0  0  0  0  0  0  0
    7.4002  -14.6418   22.8011 C   0  0  0  0  0  0  0  0  0  0  0  0
    7.3445  -13.7398   23.9490 C   0  0  0  0  0  0  0  0  0  0  0  0
    6.6960  -14.2135   25.0961 C   0  0  0  0  0  0  0  0  0  0  0  0
    6.5737  -13.4699   26.2290 C   0  0  0  0  0  0  0  0  0  0  0  0
    7.1112  -12.1989   26.2453 C   0  0  0  0  0  0  0  0  0  0  0  0
    7.7538  -11.7033   25.1377 C   0  0  0  0  0  0  0  0  0  0  0  0
    7.8595  -12.4762   24.0147 C   0  0  0  0  0  0  0  0  0  0  0  0
    9.1049  -16.2022   23.7298 C   0  0  0  0  0  0  0  0  0  0  0  0
    8.3055  -17.0854   24.1318 O   0  0  0  0  0  0  0  0  0  0  0  0
   10.3413  -16.0858   24.4041 N   0  0  0  0  0  0  0  0  0  0  0  0
   10.5929  -16.7803   25.6588 C   0  0  1  0  0  0  0  0  0  0  0  0
    9.4351  -16.6413   26.6064 C   0  0  0  0  0  0  0  0  0  0  0  0
    9.6157  -15.6264   27.6461 C   0  0  0  0  0  0  0  0  0  0  0  0
    9.1451  -14.3481   27.4443 C   0  0  0  0  0  0  0  0  0  0  0  0
    9.3106  -13.3776   28.4194 C   0  0  0  0  0  0  0  0  0  0  0  0
    9.9488  -13.6876   29.5986 C   0  0  0  0  0  0  0  0  0  0  0  0
   10.4114  -14.9758   29.7766 C   0  0  0  0  0  0  0  0  0  0  0  0
   10.2588  -15.9605   28.8208 C   0  0  0  0  0  0  0  0  0  0  0  0
   11.0107  -18.1775   25.4165 C   0  0  0  0  0  0  0  0  0  0  0  0
   10.9499  -18.8090   24.1986 O   0  0  0  0  0  0  0  0  0  0  0  0
   11.4534  -18.8402   26.3888 O   0  0  0  0  0  0  0  0  0  0  0  0
  2  1  1  1
  3  2  1  0
  4  5  1  6
  4  2  1  0
  6  4  1  0
  7  6  2  0
  8  6  1  0
  9  8  1  0
  9 10  1  1
 10 11  1  0
 11 16  1  0
 12 11  2  0
 12 13  1  0
 13 14  2  0
 14 15  1  0
 16 15  2  0
 17 18  2  0
 17  9  1  0
 19 17  1  0
 20 19  1  0
 20 21  1  1
 21 22  1  0
 22 27  1  0
 22 23  2  0
 23 24  1  0
 24 25  2  0
 26 25  1  0
 27 26  2  0
 28 20  1  0
 29 28  1  0
 30 28  2  0
M  END
$$$$
