TFF.pdb
     RDKit          3D

 30 31  0  0  1  0  0  0  0  0999 V2000
   10.0272  -19.6740   18.4415 C   0  0  0  0  0  0  0  0  0  0  0  0
   10.1214  -18.8780   19.7204 C   0  0  1  0  0  0  0  0  0  0  0  0
   11.1846  -19.2985   20.5167 O   0  0  0  0  0  0  0  0  0  0  0  0
   10.0984  -17.3962   19.5195 C   0  0  2  0  0  0  0  0  0  0  0  0
   11.2325  -17.0222   18.7088 N   0  0  0  0  0  0  0  0  0  0  0  0
    9.9666  -16.6010   20.7425 C   0  0  0  0  0  0  0  0  0  0  0  0
   11.0381  -16.0836   21.2118 O   0  0  0  0  0  0  0  0  0  0  0  0
    8.7840  -16.3427   21.4630 N   0  0  0  0  0  0  0  0  0  0  0  0
    8.7832  -15.6403   22.7573 C   0  0  1  0  0  0  0  0  0  0  0  0
    7.3938  -15.1535   22.9687 C   0  0  0  0  0  0  0  0  0  0  0  0
    7.1335  -14.4564   24.2260 C   0  0  0  0  0  0  0  0  0  0  0  0
    7.5512  -13.1225   24.3092 C   0  0  0  0  0  0  0  0  0  0  0  0
    7.3706  -12.3658   25.4255 C   0  0  0  0  0  0  0  0  0  0  0  0
    6.7507  -12.9383   26.5175 C   0  0  0  0  0  0  0  0  0  0  0  0
    6.3285  -14.2441   26.4699 C   0  0  0  0  0  0  0  0  0  0  0  0
    6.5253  -14.9775   25.3328 C   0  0  0  0  0  0  0  0  0  0  0  0
    9.2983  -16.5068   23.8315 C   0  0  0  0  0  0  0  0  0  0  0  0
    8.7754  -17.6426   23.9623 O   0  0  0  0  0  0  0  0  0  0  0  0
   10.3356  -16.1592   24.7261 N   0  0  0  0  0  0  0  0  0  0  0  0
   10.8574  -17.1130   25.6946 C   0  0  1  0  0  0  0  0  0  0  0  0
   11.8156  -16.4590   26.6496 C   0  0  0  0  0  0  0  0  0  0  0  0
   11.2249  -15.4125   27.4862 C   0  0  0  0  0  0  0  0  0  0  0  0
   11.0823  -15.6177   28.8404 C   0  0  0  0  0  0  0  0  0  0  0  0
   10.5235  -14.6363   29.6434 C   0  0  0  0  0  0  0  0  0  0  0  0
   10.1067  -13.4475   29.0893 C   0  0  0  0  0  0  0  0  0  0  0  0
   10.2605  -13.2664   27.7298 C   0  0  0  0  0  0  0  0  0  0  0  0
   10.8143  -14.2283   26.9084 C   0  0  0  0  0  0  0  0  0  0  0  0
    9.7604  -17.8541   26.3525 C   0  0  0  0  0  0  0  0  0  0  0  0
    8.9273  -17.3267   27.3083 O   0  0  0  0  0  0  0  0  0  0  0  0
    9.5714  -19.0514   26.0190 O   0  0  0  0  0  0  0  0  0  0  0  0
  2  1  1  6
  3  2  1  0
  4  5  1  1
  4  2  1  0
  6  4  1  0
  7  6  2  0
  8  6  1  0
  9  8  1  0
  9 10  1  1
 10 11  1  0
 11 16  1  0
 12 11  2  0
 12 13  1  0
 13 14  2  0
 14 15  1  0
 16 15  2  0
 17 18  2  0
 17  9  1  0
 19 17  1  0
 20 19  1  0
 20 21  1  1
 21 22  1  0
 22 27  1  0
 22 23  2  0
 23 24  1  0
 24 25  2  0
 26 25  1  0
 27 26  2  0
 28 20  1  0
 29 28  1  0
 30 28  2  0
M  END
$$$$
