TFF.pdb
     RDKit          3D

 30 31  0  0  1  0  0  0  0  0999 V2000
   10.1221  -20.0240   18.5098 C   0  0  0  0  0  0  0  0  0  0  0  0
   10.1690  -19.1040   19.7055 C   0  0  1  0  0  0  0  0  0  0  0  0
   11.3797  -19.2011   20.3884 O   0  0  0  0  0  0  0  0  0  0  0  0
    9.7862  -17.6904   19.4026 C   0  0  2  0  0  0  0  0  0  0  0  0
   10.6748  -17.1786   18.3867 N   0  0  0  0  0  0  0  0  0  0  0  0
    9.6634  -16.8119   20.5682 C   0  0  0  0  0  0  0  0  0  0  0  0
   10.7385  -16.2642   20.9927 O   0  0  0  0  0  0  0  0  0  0  0  0
    8.4861  -16.5031   21.2773 N   0  0  0  0  0  0  0  0  0  0  0  0
    8.4979  -15.7397   22.5365 C   0  0  1  0  0  0  0  0  0  0  0  0
    7.1298  -15.1795   22.6995 C   0  0  0  0  0  0  0  0  0  0  0  0
    6.8649  -14.4626   23.9446 C   0  0  0  0  0  0  0  0  0  0  0  0
    7.3670  -13.1593   24.0444 C   0  0  0  0  0  0  0  0  0  0  0  0
    7.1913  -12.3887   25.1520 C   0  0  0  0  0  0  0  0  0  0  0  0
    6.4900  -12.9151   26.2176 C   0  0  0  0  0  0  0  0  0  0  0  0
    5.9839  -14.1899   26.1531 C   0  0  0  0  0  0  0  0  0  0  0  0
    6.1781  -14.9384   25.0254 C   0  0  0  0  0  0  0  0  0  0  0  0
    8.9547  -16.5762   23.6599 C   0  0  0  0  0  0  0  0  0  0  0  0
    8.5026  -17.7471   23.7331 O   0  0  0  0  0  0  0  0  0  0  0  0
    9.8623  -16.1634   24.6613 N   0  0  0  0  0  0  0  0  0  0  0  0
   10.3927  -17.1004   25.6414 C   0  0  1  0  0  0  0  0  0  0  0  0
   11.5006  -16.4843   26.4483 C   0  0  0  0  0  0  0  0  0  0  0  0
   11.0662  -15.4576   27.3975 C   0  0  0  0  0  0  0  0  0  0  0  0
   10.8083  -14.1798   26.9535 C   0  0  0  0  0  0  0  0  0  0  0  0
   10.3980  -13.1983   27.8415 C   0  0  0  0  0  0  0  0  0  0  0  0
   10.2460  -13.4967   29.1763 C   0  0  0  0  0  0  0  0  0  0  0  0
   10.5108  -14.7846   29.5961 C   0  0  0  0  0  0  0  0  0  0  0  0
   10.9206  -15.7802   28.7315 C   0  0  0  0  0  0  0  0  0  0  0  0
    9.3070  -17.6871   26.4553 C   0  0  0  0  0  0  0  0  0  0  0  0
    9.4552  -18.7683   27.2888 O   0  0  0  0  0  0  0  0  0  0  0  0
    8.1655  -17.1651   26.3844 O   0  0  0  0  0  0  0  0  0  0  0  0
  2  1  1  6
  3  2  1  0
  4  5  1  6
  4  2  1  0
  6  4  1  0
  7  6  2  0
  8  6  1  0
  9  8  1  0
  9 10  1  1
 10 11  1  0
 11 16  1  0
 12 11  2  0
 12 13  1  0
 13 14  2  0
 14 15  1  0
 16 15  2  0
 17 18  2  0
 17  9  1  0
 19 17  1  0
 20 19  1  0
 20 21  1  1
 21 22  1  0
 22 27  1  0
 22 23  2  0
 23 24  1  0
 24 25  2  0
 26 25  1  0
 27 26  2  0
 28 20  1  0
 29 28  1  0
 30 28  2  0
M  END
$$$$
