TFF.pdb
     RDKit          3D

 30 31  0  0  1  0  0  0  0  0999 V2000
    9.0176  -19.9501   17.9612 C   0  0  0  0  0  0  0  0  0  0  0  0
    9.3008  -19.1237   19.1921 C   0  0  1  0  0  0  0  0  0  0  0  0
   10.4488  -19.5543   19.8539 O   0  0  0  0  0  0  0  0  0  0  0  0
    9.2898  -17.6477   18.9514 C   0  0  2  0  0  0  0  0  0  0  0  0
   10.2860  -17.3346   17.9550 N   0  0  0  0  0  0  0  0  0  0  0  0
    9.3847  -16.8169   20.1540 C   0  0  0  0  0  0  0  0  0  0  0  0
   10.5575  -16.4532   20.5120 O   0  0  0  0  0  0  0  0  0  0  0  0
    8.3214  -16.3730   20.9643 N   0  0  0  0  0  0  0  0  0  0  0  0
    8.5356  -15.5829   22.1884 C   0  0  1  0  0  0  0  0  0  0  0  0
    7.2379  -14.9236   22.4938 C   0  0  0  0  0  0  0  0  0  0  0  0
    7.1598  -14.1966   23.7586 C   0  0  0  0  0  0  0  0  0  0  0  0
    6.3992  -14.7805   24.7791 C   0  0  0  0  0  0  0  0  0  0  0  0
    6.2454  -14.2024   26.0013 C   0  0  0  0  0  0  0  0  0  0  0  0
    6.8648  -12.9928   26.2418 C   0  0  0  0  0  0  0  0  0  0  0  0
    7.6181  -12.3926   25.2631 C   0  0  0  0  0  0  0  0  0  0  0  0
    7.7527  -12.9997   24.0454 C   0  0  0  0  0  0  0  0  0  0  0  0
    9.0664  -16.4229   23.2760 C   0  0  0  0  0  0  0  0  0  0  0  0
    8.3145  -17.3188   23.7373 O   0  0  0  0  0  0  0  0  0  0  0  0
   10.3561  -16.2991   23.8402 N   0  0  0  0  0  0  0  0  0  0  0  0
   10.5528  -16.2208   25.2808 C   0  0  1  0  0  0  0  0  0  0  0  0
   10.5046  -14.7996   25.7662 C   0  0  0  0  0  0  0  0  0  0  0  0
   10.5895  -14.6479   27.2200 C   0  0  0  0  0  0  0  0  0  0  0  0
   10.0119  -13.5565   27.8295 C   0  0  0  0  0  0  0  0  0  0  0  0
   10.0861  -13.4000   29.2043 C   0  0  0  0  0  0  0  0  0  0  0  0
   10.7401  -14.3378   29.9701 C   0  0  0  0  0  0  0  0  0  0  0  0
   11.3108  -15.4225   29.3355 C   0  0  0  0  0  0  0  0  0  0  0  0
   11.2506  -15.6013   27.9676 C   0  0  0  0  0  0  0  0  0  0  0  0
    9.6323  -17.1334   25.9917 C   0  0  0  0  0  0  0  0  0  0  0  0
    8.2756  -17.1870   25.7865 O   0  0  0  0  0  0  0  0  0  0  0  0
   10.1185  -17.9177   26.8455 O   0  0  0  0  0  0  0  0  0  0  0  0
  2  1  1  6
  3  2  1  0
  4  5  1  6
  4  2  1  0
  6  4  1  0
  7  6  2  0
  8  6  1  0
  9  8  1  0
  9 10  1  1
 10 11  1  0
 11 16  1  0
 12 11  2  0
 12 13  1  0
 13 14  2  0
 14 15  1  0
 16 15  2  0
 17 18  2  0
 17  9  1  0
 19 17  1  0
 20 19  1  0
 20 21  1  1
 21 22  1  0
 22 27  1  0
 22 23  2  0
 23 24  1  0
 24 25  2  0
 26 25  1  0
 27 26  2  0
 28 20  1  0
 29 28  1  0
 30 28  2  0
M  END
$$$$
