TFF.pdb
     RDKit          3D

 30 31  0  0  1  0  0  0  0  0999 V2000
    9.8331  -13.3230   21.0630 C   0  0  0  0  0  0  0  0  0  0  0  0
    8.5467  -13.0619   20.3178 C   0  0  1  0  0  0  0  0  0  0  0  0
    8.7545  -12.2867   19.1788 O   0  0  0  0  0  0  0  0  0  0  0  0
    7.7409  -14.2915   20.0430 C   0  0  2  0  0  0  0  0  0  0  0  0
    6.5648  -13.9157   19.2955 N   0  0  0  0  0  0  0  0  0  0  0  0
    7.4489  -15.1227   21.2132 C   0  0  0  0  0  0  0  0  0  0  0  0
    6.5201  -14.7149   21.9923 O   0  0  0  0  0  0  0  0  0  0  0  0
    8.0820  -16.3272   21.5774 N   0  0  0  0  0  0  0  0  0  0  0  0
    7.7481  -17.0545   22.8135 C   0  0  1  0  0  0  0  0  0  0  0  0
    7.9590  -18.4973   22.5205 C   0  0  0  0  0  0  0  0  0  0  0  0
    7.7058  -19.4274   23.6183 C   0  0  0  0  0  0  0  0  0  0  0  0
    6.3662  -19.6899   23.9302 C   0  0  0  0  0  0  0  0  0  0  0  0
    5.9984  -20.5339   24.9320 C   0  0  0  0  0  0  0  0  0  0  0  0
    6.9870  -21.1546   25.6683 C   0  0  0  0  0  0  0  0  0  0  0  0
    8.3107  -20.9196   25.3890 C   0  0  0  0  0  0  0  0  0  0  0  0
    8.6469  -20.0656   24.3755 C   0  0  0  0  0  0  0  0  0  0  0  0
    8.5236  -16.5422   23.9565 C   0  0  0  0  0  0  0  0  0  0  0  0
    9.7128  -16.1952   23.7423 O   0  0  0  0  0  0  0  0  0  0  0  0
    8.0330  -16.4107   25.2752 N   0  0  0  0  0  0  0  0  0  0  0  0
    8.8747  -15.9154   26.3551 C   0  0  1  0  0  0  0  0  0  0  0  0
    8.0817  -15.1113   27.3463 C   0  0  0  0  0  0  0  0  0  0  0  0
    7.5188  -13.8691   26.8137 C   0  0  0  0  0  0  0  0  0  0  0  0
    8.2997  -12.7368   26.7472 C   0  0  0  0  0  0  0  0  0  0  0  0
    7.7791  -11.5542   26.2467 C   0  0  0  0  0  0  0  0  0  0  0  0
    6.4742  -11.5052   25.8123 C   0  0  0  0  0  0  0  0  0  0  0  0
    5.7123  -12.6535   25.8896 C   0  0  0  0  0  0  0  0  0  0  0  0
    6.2075  -13.8438   26.3839 C   0  0  0  0  0  0  0  0  0  0  0  0
    9.6623  -17.0113   26.9584 C   0  0  0  0  0  0  0  0  0  0  0  0
    9.5451  -18.3357   26.6149 O   0  0  0  0  0  0  0  0  0  0  0  0
   10.4995  -16.7179   27.8492 O   0  0  0  0  0  0  0  0  0  0  0  0
  2  1  1  6
  3  2  1  0
  4  5  1  1
  4  2  1  0
  6  4  1  0
  7  6  2  0
  8  6  1  0
  9  8  1  0
  9 10  1  6
 10 11  1  0
 11 16  1  0
 12 11  2  0
 12 13  1  0
 13 14  2  0
 14 15  1  0
 16 15  2  0
 17 18  2  0
 17  9  1  0
 19 17  1  0
 20 19  1  0
 20 21  1  1
 21 22  1  0
 22 27  1  0
 22 23  2  0
 23 24  1  0
 24 25  2  0
 26 25  1  0
 27 26  2  0
 28 20  1  0
 29 28  1  0
 30 28  2  0
M  END
$$$$
