TFF.pdb
     RDKit          3D

 30 31  0  0  1  0  0  0  0  0999 V2000
    9.3302  -19.7423   20.6423 C   0  0  0  0  0  0  0  0  0  0  0  0
   10.1529  -19.0081   19.6115 C   0  0  1  0  0  0  0  0  0  0  0  0
   10.2533  -19.7247   18.4208 O   0  0  0  0  0  0  0  0  0  0  0  0
    9.7381  -17.5870   19.3996 C   0  0  2  0  0  0  0  0  0  0  0  0
   10.5788  -17.0074   18.3796 N   0  0  0  0  0  0  0  0  0  0  0  0
    9.6479  -16.7738   20.6145 C   0  0  0  0  0  0  0  0  0  0  0  0
   10.7479  -16.3326   21.0955 O   0  0  0  0  0  0  0  0  0  0  0  0
    8.4776  -16.4230   21.3156 N   0  0  0  0  0  0  0  0  0  0  0  0
    8.5084  -15.6677   22.5793 C   0  0  1  0  0  0  0  0  0  0  0  0
    7.1461  -15.0989   22.7606 C   0  0  0  0  0  0  0  0  0  0  0  0
    6.9126  -14.3512   23.9938 C   0  0  0  0  0  0  0  0  0  0  0  0
    7.3429  -13.0188   24.0179 C   0  0  0  0  0  0  0  0  0  0  0  0
    7.1872  -12.2177   25.1067 C   0  0  0  0  0  0  0  0  0  0  0  0
    6.5808  -12.7417   26.2302 C   0  0  0  0  0  0  0  0  0  0  0  0
    6.1470  -14.0444   26.2405 C   0  0  0  0  0  0  0  0  0  0  0  0
    6.3186  -14.8232   25.1298 C   0  0  0  0  0  0  0  0  0  0  0  0
    8.9714  -16.5143   23.6924 C   0  0  0  0  0  0  0  0  0  0  0  0
    8.4760  -17.6657   23.7910 O   0  0  0  0  0  0  0  0  0  0  0  0
    9.9300  -16.1316   24.6576 N   0  0  0  0  0  0  0  0  0  0  0  0
   10.4534  -17.0813   25.6292 C   0  0  1  0  0  0  0  0  0  0  0  0
   11.5716  -16.4835   26.4357 C   0  0  0  0  0  0  0  0  0  0  0  0
   11.1467  -15.4979   27.4316 C   0  0  0  0  0  0  0  0  0  0  0  0
   10.9921  -15.8762   28.7466 C   0  0  0  0  0  0  0  0  0  0  0  0
   10.5892  -14.9538   29.6990 C   0  0  0  0  0  0  0  0  0  0  0  0
   10.3404  -13.6505   29.3339 C   0  0  0  0  0  0  0  0  0  0  0  0
   10.5026  -13.2965   28.0097 C   0  0  0  0  0  0  0  0  0  0  0  0
   10.9031  -14.1964   27.0421 C   0  0  0  0  0  0  0  0  0  0  0  0
    9.3643  -17.6610   26.4436 C   0  0  0  0  0  0  0  0  0  0  0  0
    9.4912  -18.7774   27.2330 O   0  0  0  0  0  0  0  0  0  0  0  0
    8.2406  -17.0980   26.4163 O   0  0  0  0  0  0  0  0  0  0  0  0
  2  1  1  1
  3  2  1  0
  4  5  1  6
  4  2  1  0
  6  4  1  0
  7  6  2  0
  8  6  1  0
  9  8  1  0
  9 10  1  1
 10 11  1  0
 11 16  1  0
 12 11  2  0
 12 13  1  0
 13 14  2  0
 14 15  1  0
 16 15  2  0
 17 18  2  0
 17  9  1  0
 19 17  1  0
 20 19  1  0
 20 21  1  1
 21 22  1  0
 22 27  1  0
 22 23  2  0
 23 24  1  0
 24 25  2  0
 26 25  1  0
 27 26  2  0
 28 20  1  0
 29 28  1  0
 30 28  2  0
M  END
$$$$
