TFF.pdb
     RDKit          3D

 30 31  0  0  1  0  0  0  0  0999 V2000
   10.0666  -19.5327   18.3102 C   0  0  0  0  0  0  0  0  0  0  0  0
   10.0888  -18.7557   19.6041 C   0  0  1  0  0  0  0  0  0  0  0  0
   11.1413  -19.1491   20.4281 O   0  0  0  0  0  0  0  0  0  0  0  0
   10.0153  -17.2726   19.4261 C   0  0  2  0  0  0  0  0  0  0  0  0
   11.1511  -16.8441   18.6451 N   0  0  0  0  0  0  0  0  0  0  0  0
    9.8295  -16.5030   20.6584 C   0  0  0  0  0  0  0  0  0  0  0  0
   10.8797  -16.0002   21.1877 O   0  0  0  0  0  0  0  0  0  0  0  0
    8.6156  -16.2551   21.3287 N   0  0  0  0  0  0  0  0  0  0  0  0
    8.5565  -15.5745   22.6332 C   0  0  1  0  0  0  0  0  0  0  0  0
    7.1562  -15.0999   22.7949 C   0  0  0  0  0  0  0  0  0  0  0  0
    6.8505  -14.3864   24.0326 C   0  0  0  0  0  0  0  0  0  0  0  0
    7.1318  -13.0149   24.0593 C   0  0  0  0  0  0  0  0  0  0  0  0
    6.8966  -12.2393   25.1523 C   0  0  0  0  0  0  0  0  0  0  0  0
    6.3592  -12.8305   26.2776 C   0  0  0  0  0  0  0  0  0  0  0  0
    6.0714  -14.1731   26.2855 C   0  0  0  0  0  0  0  0  0  0  0  0
    6.3199  -14.9246   25.1706 C   0  0  0  0  0  0  0  0  0  0  0  0
    9.0328  -16.4556   23.7134 C   0  0  0  0  0  0  0  0  0  0  0  0
    8.6043  -17.6375   23.7301 O   0  0  0  0  0  0  0  0  0  0  0  0
    9.9348  -16.0743   24.7322 N   0  0  0  0  0  0  0  0  0  0  0  0
   10.4999  -17.0500   25.6535 C   0  0  1  0  0  0  0  0  0  0  0  0
   11.5715  -16.4399   26.5121 C   0  0  0  0  0  0  0  0  0  0  0  0
   11.0890  -15.4561   27.4833 C   0  0  0  0  0  0  0  0  0  0  0  0
   10.5604  -14.2628   27.0441 C   0  0  0  0  0  0  0  0  0  0  0  0
   10.1015  -13.3224   27.9526 C   0  0  0  0  0  0  0  0  0  0  0  0
   10.1724  -13.5773   29.3031 C   0  0  0  0  0  0  0  0  0  0  0  0
   10.7065  -14.7805   29.7178 C   0  0  0  0  0  0  0  0  0  0  0  0
   11.1702  -15.7337   28.8329 C   0  0  0  0  0  0  0  0  0  0  0  0
    9.4358  -17.7391   26.4140 C   0  0  0  0  0  0  0  0  0  0  0  0
    8.0975  -17.4454   26.3222 O   0  0  0  0  0  0  0  0  0  0  0  0
    9.7722  -18.6590   27.2021 O   0  0  0  0  0  0  0  0  0  0  0  0
  2  1  1  6
  3  2  1  0
  4  5  1  1
  4  2  1  0
  6  4  1  0
  7  6  2  0
  8  6  1  0
  9  8  1  0
  9 10  1  1
 10 11  1  0
 11 16  1  0
 12 11  2  0
 12 13  1  0
 13 14  2  0
 14 15  1  0
 16 15  2  0
 17 18  2  0
 17  9  1  0
 19 17  1  0
 20 19  1  0
 20 21  1  1
 21 22  1  0
 22 27  1  0
 22 23  2  0
 23 24  1  0
 24 25  2  0
 26 25  1  0
 27 26  2  0
 28 20  1  0
 29 28  1  0
 30 28  2  0
M  END
$$$$
