TFF.pdb
     RDKit          3D

 30 31  0  0  1  0  0  0  0  0999 V2000
    5.7712  -21.2917   25.7258 C   0  0  0  0  0  0  0  0  0  0  0  0
    6.5357  -20.1411   25.1175 C   0  0  1  0  0  0  0  0  0  0  0  0
    7.8737  -20.1433   25.5064 O   0  0  0  0  0  0  0  0  0  0  0  0
    6.3624  -20.0081   23.6380 C   0  0  2  0  0  0  0  0  0  0  0  0
    6.7450  -21.2523   23.0143 N   0  0  0  0  0  0  0  0  0  0  0  0
    6.9976  -18.8332   23.0368 C   0  0  0  0  0  0  0  0  0  0  0  0
    8.1517  -19.0068   22.5133 O   0  0  0  0  0  0  0  0  0  0  0  0
    6.4755  -17.5265   22.9721 N   0  0  0  0  0  0  0  0  0  0  0  0
    7.2747  -16.3765   22.5171 C   0  0  1  0  0  0  0  0  0  0  0  0
    6.3191  -15.4233   21.8922 C   0  0  0  0  0  0  0  0  0  0  0  0
    6.9041  -14.3029   21.1594 C   0  0  0  0  0  0  0  0  0  0  0  0
    6.9515  -13.0693   21.8203 C   0  0  0  0  0  0  0  0  0  0  0  0
    7.4681  -11.9492   21.2460 C   0  0  0  0  0  0  0  0  0  0  0  0
    7.9644  -12.0353   19.9611 C   0  0  0  0  0  0  0  0  0  0  0  0
    7.9335  -13.2296   19.2842 C   0  0  0  0  0  0  0  0  0  0  0  0
    7.4074  -14.3369   19.8899 C   0  0  0  0  0  0  0  0  0  0  0  0
    8.0684  -15.8115   23.6220 C   0  0  0  0  0  0  0  0  0  0  0  0
    7.8530  -14.6140   23.9384 O   0  0  0  0  0  0  0  0  0  0  0  0
    9.0532  -16.5126   24.3539 N   0  0  0  0  0  0  0  0  0  0  0  0
    9.7707  -15.8887   25.4567 C   0  0  1  0  0  0  0  0  0  0  0  0
    8.8715  -15.6598   26.6386 C   0  0  0  0  0  0  0  0  0  0  0  0
    8.0424  -14.4562   26.5508 C   0  0  0  0  0  0  0  0  0  0  0  0
    6.6924  -14.5713   26.3046 C   0  0  0  0  0  0  0  0  0  0  0  0
    5.8965  -13.4403   26.2176 C   0  0  0  0  0  0  0  0  0  0  0  0
    6.4534  -12.1920   26.3771 C   0  0  0  0  0  0  0  0  0  0  0  0
    7.8086  -12.1034   26.6229 C   0  0  0  0  0  0  0  0  0  0  0  0
    8.6229  -13.2148   26.7143 C   0  0  0  0  0  0  0  0  0  0  0  0
   11.0071  -16.6344   25.7739 C   0  0  0  0  0  0  0  0  0  0  0  0
   11.1116  -18.0036   25.7791 O   0  0  0  0  0  0  0  0  0  0  0  0
   12.0389  -15.9756   26.0601 O   0  0  0  0  0  0  0  0  0  0  0  0
  2  1  1  6
  3  2  1  0
  4  5  1  6
  4  2  1  0
  6  4  1  0
  7  6  2  0
  8  6  1  0
  9  8  1  0
  9 10  1  1
 10 11  1  0
 11 16  1  0
 12 11  2  0
 12 13  1  0
 13 14  2  0
 14 15  1  0
 16 15  2  0
 17 18  2  0
 17  9  1  0
 19 17  1  0
 20 19  1  0
 20 21  1  1
 21 22  1  0
 22 27  1  0
 22 23  2  0
 23 24  1  0
 24 25  2  0
 26 25  1  0
 27 26  2  0
 28 20  1  0
 29 28  1  0
 30 28  2  0
M  END
$$$$
