TFF.pdb
     RDKit          3D

 30 31  0  0  1  0  0  0  0  0999 V2000
    8.8008  -20.0941   20.0825 C   0  0  0  0  0  0  0  0  0  0  0  0
    9.9729  -19.1461   20.1592 C   0  0  1  0  0  0  0  0  0  0  0  0
   11.1006  -19.6622   19.5241 O   0  0  0  0  0  0  0  0  0  0  0  0
    9.6557  -17.7485   19.7318 C   0  0  2  0  0  0  0  0  0  0  0  0
   10.5118  -17.3986   18.6237 N   0  0  0  0  0  0  0  0  0  0  0  0
    9.6519  -16.7517   20.8050 C   0  0  0  0  0  0  0  0  0  0  0  0
   10.7411  -16.1097   20.9990 O   0  0  0  0  0  0  0  0  0  0  0  0
    8.5759  -16.4212   21.6520 N   0  0  0  0  0  0  0  0  0  0  0  0
    8.7247  -15.5165   22.8043 C   0  0  1  0  0  0  0  0  0  0  0  0
    7.3567  -15.0411   23.1429 C   0  0  0  0  0  0  0  0  0  0  0  0
    7.2157  -14.3073   24.3983 C   0  0  0  0  0  0  0  0  0  0  0  0
    7.8489  -13.0609   24.4782 C   0  0  0  0  0  0  0  0  0  0  0  0
    7.7962  -12.2819   25.5926 C   0  0  0  0  0  0  0  0  0  0  0  0
    7.0900  -12.7409   26.6858 C   0  0  0  0  0  0  0  0  0  0  0  0
    6.4572  -13.9587   26.6413 C   0  0  0  0  0  0  0  0  0  0  0  0
    6.5296  -14.7174   25.5062 C   0  0  0  0  0  0  0  0  0  0  0  0
    9.4338  -16.1801   23.9119 C   0  0  0  0  0  0  0  0  0  0  0  0
    8.9075  -17.2107   24.4035 O   0  0  0  0  0  0  0  0  0  0  0  0
   10.6605  -15.7474   24.4640 N   0  0  0  0  0  0  0  0  0  0  0  0
   11.3050  -16.4726   25.5497 C   0  0  1  0  0  0  0  0  0  0  0  0
   10.3516  -16.7286   26.6826 C   0  0  0  0  0  0  0  0  0  0  0  0
    9.9244  -15.5283   27.4040 C   0  0  0  0  0  0  0  0  0  0  0  0
   10.8500  -14.5659   27.7404 C   0  0  0  0  0  0  0  0  0  0  0  0
   10.4594  -13.4258   28.4244 C   0  0  0  0  0  0  0  0  0  0  0  0
    9.1397  -13.2493   28.7723 C   0  0  0  0  0  0  0  0  0  0  0  0
    8.2315  -14.2284   28.4237 C   0  0  0  0  0  0  0  0  0  0  0  0
    8.5953  -15.3729   27.7423 C   0  0  0  0  0  0  0  0  0  0  0  0
   11.9850  -17.6851   25.0469 C   0  0  0  0  0  0  0  0  0  0  0  0
   11.3402  -18.7877   24.5428 O   0  0  0  0  0  0  0  0  0  0  0  0
   13.2414  -17.7162   25.0802 O   0  0  0  0  0  0  0  0  0  0  0  0
  2  1  1  6
  3  2  1  0
  4  5  1  6
  4  2  1  0
  6  4  1  0
  7  6  2  0
  8  6  1  0
  9  8  1  0
  9 10  1  1
 10 11  1  0
 11 16  1  0
 12 11  2  0
 12 13  1  0
 13 14  2  0
 14 15  1  0
 16 15  2  0
 17 18  2  0
 17  9  1  0
 19 17  1  0
 20 19  1  0
 20 21  1  1
 21 22  1  0
 22 27  1  0
 22 23  2  0
 23 24  1  0
 24 25  2  0
 26 25  1  0
 27 26  2  0
 28 20  1  0
 29 28  1  0
 30 28  2  0
M  END
$$$$
