GRG.pdb
     RDKit          3D

 20 19  0  0  1  0  0  0  0  0999 V2000
   28.6009  -22.6866  -17.8083 N   0  0  0  0  0  0  0  0  0  0  0  0
   28.5634  -21.2742  -17.5074 C   0  0  0  0  0  0  0  0  0  0  0  0
   27.4480  -20.9401  -16.5510 C   0  0  0  0  0  0  0  0  0  0  0  0
   26.2774  -21.3253  -16.7834 O   0  0  0  0  0  0  0  0  0  0  0  0
   26.3601  -20.4699   -8.8211 N   0  0  0  0  0  0  0  0  0  0  0  0
   25.0706  -20.8073   -9.2935 C   0  0  0  0  0  0  0  0  0  0  0  0
   24.0403  -20.6318   -8.5262 N   0  0  0  0  0  0  0  0  0  0  0  0
   24.9146  -21.3345  -10.6032 N   0  0  0  0  0  0  0  0  0  0  0  0
   25.9716  -21.2448  -11.5862 C   0  0  0  0  0  0  0  0  0  0  0  0
   26.0908  -19.7701  -12.0203 C   0  0  0  0  0  0  0  0  0  0  0  0
   27.1229  -19.6182  -13.0810 C   0  0  0  0  0  0  0  0  0  0  0  0
   26.6751  -19.7121  -14.4501 C   0  0  2  0  0  0  0  0  0  0  0  0
   27.6900  -20.1954  -15.3842 N   0  0  0  0  0  0  0  0  0  0  0  0
   25.7388  -18.8604  -15.1111 C   0  0  0  0  0  0  0  0  0  0  0  0
   26.2354  -18.0769  -16.0271 O   0  0  0  0  0  0  0  0  0  0  0  0
   23.0698  -20.8264   -8.8416 N   0  0  0  0  0  0  0  0  0  0  0  0
   24.3545  -18.7170  -14.9436 C   0  0  0  0  0  0  0  0  0  0  0  0
   23.4529  -19.8862  -14.8783 C   0  0  0  0  0  0  0  0  0  0  0  0
   22.7564  -20.1205  -16.1610 O   0  0  0  0  0  0  0  0  0  0  0  0
   21.3988  -19.9719  -16.2889 O   0  0  0  0  0  0  0  0  0  0  0  0
  1  2  1  0
  2  3  1  0
  3 13  1  0
  4  3  2  0
  5  6  1  0
  6  8  1  0
  7  6  2  0
  9  8  1  0
 10  9  1  0
 12 11  1  1
 11 10  1  0
 12 14  1  0
 13 12  1  0
 14 16  1  0
 14 15  2  0
 16 17  1  0
 17 18  1  0
 18 19  1  0
 20 18  2  0
M  END
$$$$
