GRG.pdb
     RDKit          3D

 20 19  0  0  1  0  0  0  0  0999 V2000
   24.8089  -24.8077  -15.9263 N   0  0  0  0  0  0  0  0  0  0  0  0
   25.9300  -24.0596  -15.4066 C   0  0  0  0  0  0  0  0  0  0  0  0
   25.5642  -22.6214  -15.1455 C   0  0  0  0  0  0  0  0  0  0  0  0
   24.3774  -22.3057  -14.8910 O   0  0  0  0  0  0  0  0  0  0  0  0
   23.8703  -20.7966  -10.5267 N   0  0  0  0  0  0  0  0  0  0  0  0
   24.9287  -20.5125   -9.6330 C   0  0  0  0  0  0  0  0  0  0  0  0
   24.7780  -20.7436   -8.3661 N   0  0  0  0  0  0  0  0  0  0  0  0
   26.1472  -19.9775  -10.1298 N   0  0  0  0  0  0  0  0  0  0  0  0
   26.2414  -19.4173  -11.4598 C   0  0  0  0  0  0  0  0  0  0  0  0
   27.0695  -20.3884  -12.3252 C   0  0  0  0  0  0  0  0  0  0  0  0
   27.2822  -19.8259  -13.6859 C   0  0  0  0  0  0  0  0  0  0  0  0
   26.3560  -20.2324  -14.7159 C   0  0  2  0  0  0  0  0  0  0  0  0
   26.5358  -21.6068  -15.1794 N   0  0  0  0  0  0  0  0  0  0  0  0
   25.8007  -19.4155  -15.7470 C   0  0  0  0  0  0  0  0  0  0  0  0
   26.5735  -19.1978  -16.7742 O   0  0  0  0  0  0  0  0  0  0  0  0
   25.5515  -20.6303   -7.6821 N   0  0  0  0  0  0  0  0  0  0  0  0
   24.5476  -18.7956  -15.8491 C   0  0  0  0  0  0  0  0  0  0  0  0
   24.1716  -17.9895  -17.0293 C   0  0  0  0  0  0  0  0  0  0  0  0
   23.4697  -18.7963  -18.0500 O   0  0  0  0  0  0  0  0  0  0  0  0
   23.8603  -18.8050  -19.3648 O   0  0  0  0  0  0  0  0  0  0  0  0
  1  2  1  0
  2  3  1  0
  3 13  1  0
  4  3  2  0
  5  6  1  0
  6  8  1  0
  7  6  2  0
  9  8  1  0
 10  9  1  0
 12 11  1  6
 11 10  1  0
 12 14  1  0
 13 12  1  0
 14 16  1  0
 14 15  2  0
 16 17  1  0
 17 18  1  0
 18 19  1  0
 20 18  2  0
M  END
$$$$
