GRG.pdb
     RDKit          3D

 20 19  0  0  1  0  0  0  0  0999 V2000
   24.1768  -14.0736  -18.0986 N   0  0  0  0  0  0  0  0  0  0  0  0
   24.0314  -12.7839  -18.7328 C   0  0  0  0  0  0  0  0  0  0  0  0
   24.3272  -11.6583  -17.7757 C   0  0  0  0  0  0  0  0  0  0  0  0
   23.7200  -11.5814  -16.6811 O   0  0  0  0  0  0  0  0  0  0  0  0
   32.2247   -8.9607  -18.2694 N   0  0  0  0  0  0  0  0  0  0  0  0
   31.7979  -10.2882  -18.0340 C   0  0  0  0  0  0  0  0  0  0  0  0
   32.6620  -11.2544  -18.0633 N   0  0  0  0  0  0  0  0  0  0  0  0
   30.4279  -10.5520  -17.7671 N   0  0  0  0  0  0  0  0  0  0  0  0
   29.4378   -9.4979  -17.7791 C   0  0  0  0  0  0  0  0  0  0  0  0
   28.0723  -10.1268  -17.4364 C   0  0  0  0  0  0  0  0  0  0  0  0
   27.0091   -9.0866  -17.4073 C   0  0  0  0  0  0  0  0  0  0  0  0
   25.6501   -9.5423  -17.2359 C   0  0  2  0  0  0  0  0  0  0  0  0
   25.2834  -10.6756  -18.0830 N   0  0  0  0  0  0  0  0  0  0  0  0
   24.5061   -8.7453  -16.9280 C   0  0  0  0  0  0  0  0  0  0  0  0
   23.6149   -8.6453  -17.8741 O   0  0  0  0  0  0  0  0  0  0  0  0
   32.3977  -12.2449  -17.8955 N   0  0  0  0  0  0  0  0  0  0  0  0
   24.1684   -8.0388  -15.7653 C   0  0  0  0  0  0  0  0  0  0  0  0
   22.9003   -7.2885  -15.6508 C   0  0  0  0  0  0  0  0  0  0  0  0
   21.8623   -8.0615  -14.9363 O   0  0  0  0  0  0  0  0  0  0  0  0
   20.6695   -7.5001  -14.5577 O   0  0  0  0  0  0  0  0  0  0  0  0
  1  2  1  0
  2  3  1  0
  3 13  1  0
  4  3  2  0
  5  6  1  0
  6  8  1  0
  7  6  2  0
  9  8  1  0
 10  9  1  0
 12 11  1  6
 11 10  1  0
 12 14  1  0
 13 12  1  0
 14 16  1  0
 14 15  2  0
 16 17  1  0
 17 18  1  0
 18 19  1  0
 20 18  2  0
M  END
$$$$
