GRG.pdb
     RDKit          3D

 20 19  0  0  1  0  0  0  0  0999 V2000
   12.7761  -17.1281    8.6670 N   0  0  0  0  0  0  0  0  0  0  0  0
   13.9233  -16.2598    8.7968 C   0  0  0  0  0  0  0  0  0  0  0  0
   15.1692  -16.8997    8.2412 C   0  0  0  0  0  0  0  0  0  0  0  0
   15.0844  -17.8538    7.4317 O   0  0  0  0  0  0  0  0  0  0  0  0
   21.4454  -11.5268    6.6815 N   0  0  0  0  0  0  0  0  0  0  0  0
   20.5216  -11.9001    5.6780 C   0  0  0  0  0  0  0  0  0  0  0  0
   20.5513  -11.3059    4.5260 N   0  0  0  0  0  0  0  0  0  0  0  0
   19.5703  -12.9220    5.9395 N   0  0  0  0  0  0  0  0  0  0  0  0
   19.7927  -13.9193    6.9630 C   0  0  0  0  0  0  0  0  0  0  0  0
   18.5778  -14.8685    6.9714 C   0  0  0  0  0  0  0  0  0  0  0  0
   18.7520  -15.9332    7.9958 C   0  0  0  0  0  0  0  0  0  0  0  0
   17.7172  -16.9361    8.0820 C   0  0  2  0  0  0  0  0  0  0  0  0
   16.4464  -16.4465    8.6126 N   0  0  0  0  0  0  0  0  0  0  0  0
   17.8851  -18.3259    8.3634 C   0  0  0  0  0  0  0  0  0  0  0  0
   17.6478  -18.6868    9.5934 O   0  0  0  0  0  0  0  0  0  0  0  0
   19.9009  -11.5517    3.7542 N   0  0  0  0  0  0  0  0  0  0  0  0
   18.2679  -19.3885    7.5332 C   0  0  0  0  0  0  0  0  0  0  0  0
   18.4014  -20.7681    8.0460 C   0  0  0  0  0  0  0  0  0  0  0  0
   17.0967  -21.4591    8.1224 O   0  0  0  0  0  0  0  0  0  0  0  0
   16.9918  -22.7756    8.4927 O   0  0  0  0  0  0  0  0  0  0  0  0
  1  2  1  0
  2  3  1  0
  3 13  1  0
  4  3  2  0
  5  6  1  0
  6  8  1  0
  7  6  2  0
  9  8  1  0
 10  9  1  0
 12 11  1  1
 11 10  1  0
 12 14  1  0
 13 12  1  0
 14 16  1  0
 14 15  2  0
 16 17  1  0
 17 18  1  0
 18 19  1  0
 20 18  2  0
M  END
$$$$
