GRG.pdb
     RDKit          3D

 20 19  0  0  1  0  0  0  0  0999 V2000
   29.0395  -23.2593  -17.8053 N   0  0  0  0  0  0  0  0  0  0  0  0
   28.9710  -21.9215  -17.2648 C   0  0  0  0  0  0  0  0  0  0  0  0
   27.7437  -21.7297  -16.4120 C   0  0  0  0  0  0  0  0  0  0  0  0
   26.6860  -22.3502  -16.6751 O   0  0  0  0  0  0  0  0  0  0  0  0
   25.6423  -20.6940   -8.7465 N   0  0  0  0  0  0  0  0  0  0  0  0
   24.3712  -20.8637   -9.3426 C   0  0  0  0  0  0  0  0  0  0  0  0
   23.3008  -20.6610   -8.6395 N   0  0  0  0  0  0  0  0  0  0  0  0
   24.2774  -21.2539  -10.7053 N   0  0  0  0  0  0  0  0  0  0  0  0
   25.4565  -21.4491  -11.5196 C   0  0  0  0  0  0  0  0  0  0  0  0
   25.8562  -20.0819  -12.1098 C   0  0  0  0  0  0  0  0  0  0  0  0
   26.9716  -20.2370  -13.0819 C   0  0  0  0  0  0  0  0  0  0  0  0
   26.6152  -20.5595  -14.4431 C   0  0  2  0  0  0  0  0  0  0  0  0
   27.7538  -20.8587  -15.3093 N   0  0  0  0  0  0  0  0  0  0  0  0
   25.5268  -20.0268  -15.1985 C   0  0  0  0  0  0  0  0  0  0  0  0
   25.7117  -18.8354  -15.6944 O   0  0  0  0  0  0  0  0  0  0  0  0
   22.3457  -20.7887   -9.0274 N   0  0  0  0  0  0  0  0  0  0  0  0
   24.2718  -20.5710  -15.5047 C   0  0  0  0  0  0  0  0  0  0  0  0
   23.1543  -19.7303  -15.9829 C   0  0  0  0  0  0  0  0  0  0  0  0
   21.8968  -20.0179  -15.2608 O   0  0  0  0  0  0  0  0  0  0  0  0
   21.0225  -20.9875  -15.6810 O   0  0  0  0  0  0  0  0  0  0  0  0
  1  2  1  0
  2  3  1  0
  3 13  1  0
  4  3  2  0
  5  6  1  0
  6  8  1  0
  7  6  2  0
  9  8  1  0
 10  9  1  0
 12 11  1  1
 11 10  1  0
 12 14  1  0
 13 12  1  0
 14 16  1  0
 14 15  2  0
 16 17  1  0
 17 18  1  0
 18 19  1  0
 20 18  2  0
M  END
$$$$
