GRG.pdb
     RDKit          3D

 20 19  0  0  1  0  0  0  0  0999 V2000
   27.8490  -23.3527  -16.7681 N   0  0  0  0  0  0  0  0  0  0  0  0
   27.5143  -21.9947  -16.4070 C   0  0  0  0  0  0  0  0  0  0  0  0
   26.5388  -21.9499  -15.2596 C   0  0  0  0  0  0  0  0  0  0  0  0
   25.5466  -22.7167  -15.2412 O   0  0  0  0  0  0  0  0  0  0  0  0
   21.9948  -20.8688   -9.7645 N   0  0  0  0  0  0  0  0  0  0  0  0
   22.8707  -21.0509   -8.6693 C   0  0  0  0  0  0  0  0  0  0  0  0
   22.4047  -21.4885   -7.5413 N   0  0  0  0  0  0  0  0  0  0  0  0
   24.2522  -20.7538   -8.8138 N   0  0  0  0  0  0  0  0  0  0  0  0
   24.8017  -20.3020  -10.0730 C   0  0  0  0  0  0  0  0  0  0  0  0
   25.7997  -21.3696  -10.5645 C   0  0  0  0  0  0  0  0  0  0  0  0
   26.5384  -20.8845  -11.7612 C   0  0  0  0  0  0  0  0  0  0  0  0
   25.8421  -20.9301  -13.0249 C   0  0  2  0  0  0  0  0  0  0  0  0
   26.7156  -21.0559  -14.1900 N   0  0  0  0  0  0  0  0  0  0  0  0
   24.6312  -20.2550  -13.3667 C   0  0  0  0  0  0  0  0  0  0  0  0
   24.7629  -19.0160  -13.7501 O   0  0  0  0  0  0  0  0  0  0  0  0
   23.0095  -21.6488   -6.7121 N   0  0  0  0  0  0  0  0  0  0  0  0
   23.3018  -20.6999  -13.3612 C   0  0  0  0  0  0  0  0  0  0  0  0
   22.4974  -20.7646  -14.5993 C   0  0  0  0  0  0  0  0  0  0  0  0
   21.4888  -19.6856  -14.6612 O   0  0  0  0  0  0  0  0  0  0  0  0
   20.6070  -19.5737  -15.7058 O   0  0  0  0  0  0  0  0  0  0  0  0
  1  2  1  0
  2  3  1  0
  3 13  1  0
  4  3  2  0
  5  6  1  0
  6  8  1  0
  7  6  2  0
  9  8  1  0
 10  9  1  0
 12 11  1  1
 11 10  1  0
 12 14  1  0
 13 12  1  0
 14 16  1  0
 14 15  2  0
 16 17  1  0
 17 18  1  0
 18 19  1  0
 20 18  2  0
M  END
$$$$
