GRG.pdb
     RDKit          3D

 20 19  0  0  1  0  0  0  0  0999 V2000
   20.8590  -14.8336  -18.2044 N   0  0  0  0  0  0  0  0  0  0  0  0
   21.7608  -15.1446  -17.1196 C   0  0  0  0  0  0  0  0  0  0  0  0
   21.7054  -16.6051  -16.7533 C   0  0  0  0  0  0  0  0  0  0  0  0
   20.9535  -17.3878  -17.3817 O   0  0  0  0  0  0  0  0  0  0  0  0
   25.1418  -22.2789  -11.8856 N   0  0  0  0  0  0  0  0  0  0  0  0
   25.3761  -22.8884  -13.1400 C   0  0  0  0  0  0  0  0  0  0  0  0
   25.2115  -24.1676  -13.2722 N   0  0  0  0  0  0  0  0  0  0  0  0
   25.7888  -22.0951  -14.2437 N   0  0  0  0  0  0  0  0  0  0  0  0
   25.5926  -20.6624  -14.2615 C   0  0  0  0  0  0  0  0  0  0  0  0
   24.1303  -20.3896  -14.6674 C   0  0  0  0  0  0  0  0  0  0  0  0
   23.9229  -18.9412  -14.9365 C   0  0  0  0  0  0  0  0  0  0  0  0
   22.5971  -18.5312  -15.3341 C   0  0  2  0  0  0  0  0  0  0  0  0
   22.4889  -17.1223  -15.7078 N   0  0  0  0  0  0  0  0  0  0  0  0
   21.3552  -19.0205  -14.8271 C   0  0  0  0  0  0  0  0  0  0  0  0
   20.7985  -18.2955  -13.8976 O   0  0  0  0  0  0  0  0  0  0  0  0
   25.4385  -24.6716  -14.1518 N   0  0  0  0  0  0  0  0  0  0  0  0
   20.6175  -20.1650  -15.1600 C   0  0  0  0  0  0  0  0  0  0  0  0
   19.3178  -20.4659  -14.5240 C   0  0  0  0  0  0  0  0  0  0  0  0
   19.4765  -21.2709  -13.2943 O   0  0  0  0  0  0  0  0  0  0  0  0
   18.5987  -21.1756  -12.2446 O   0  0  0  0  0  0  0  0  0  0  0  0
  1  2  1  0
  2  3  1  0
  3 13  1  0
  4  3  2  0
  5  6  1  0
  6  8  1  0
  7  6  2  0
  9  8  1  0
 10  9  1  0
 12 11  1  1
 11 10  1  0
 12 14  1  0
 13 12  1  0
 14 16  1  0
 14 15  2  0
 16 17  1  0
 17 18  1  0
 18 19  1  0
 20 18  2  0
M  END
$$$$
