GRG.pdb
     RDKit          3D

 20 19  0  0  1  0  0  0  0  0999 V2000
   28.3371  -23.0556  -17.9060 N   0  0  0  0  0  0  0  0  0  0  0  0
   28.2029  -21.7037  -17.4150 C   0  0  0  0  0  0  0  0  0  0  0  0
   27.2437  -21.6271  -16.2556 C   0  0  0  0  0  0  0  0  0  0  0  0
   26.3835  -22.5236  -16.0846 O   0  0  0  0  0  0  0  0  0  0  0  0
   24.4298  -21.2430   -8.7970 N   0  0  0  0  0  0  0  0  0  0  0  0
   25.6359  -20.5060   -8.7512 C   0  0  0  0  0  0  0  0  0  0  0  0
   25.9491  -19.8550   -7.6746 N   0  0  0  0  0  0  0  0  0  0  0  0
   26.4936  -20.4855   -9.8833 N   0  0  0  0  0  0  0  0  0  0  0  0
   26.2601  -21.3413  -11.0255 C   0  0  0  0  0  0  0  0  0  0  0  0
   27.4280  -21.1432  -12.0125 C   0  0  0  0  0  0  0  0  0  0  0  0
   27.1280  -20.0397  -12.9641 C   0  0  0  0  0  0  0  0  0  0  0  0
   26.4268  -20.3912  -14.1760 C   0  0  2  0  0  0  0  0  0  0  0  0
   27.2892  -20.5586  -15.3441 N   0  0  0  0  0  0  0  0  0  0  0  0
   25.1170  -19.9768  -14.5651 C   0  0  0  0  0  0  0  0  0  0  0  0
   24.9736  -18.7029  -14.8021 O   0  0  0  0  0  0  0  0  0  0  0  0
   26.8279  -19.3076   -7.5891 N   0  0  0  0  0  0  0  0  0  0  0  0
   23.9373  -20.7138  -14.7394 C   0  0  0  0  0  0  0  0  0  0  0  0
   23.3368  -21.4941  -13.6373 C   0  0  0  0  0  0  0  0  0  0  0  0
   22.0972  -20.8698  -13.1284 O   0  0  0  0  0  0  0  0  0  0  0  0
   20.8653  -21.4443  -13.3123 O   0  0  0  0  0  0  0  0  0  0  0  0
  1  2  1  0
  2  3  1  0
  3 13  1  0
  4  3  2  0
  5  6  1  0
  6  8  1  0
  7  6  2  0
  9  8  1  0
 10  9  1  0
 12 11  1  1
 11 10  1  0
 12 14  1  0
 13 12  1  0
 14 16  1  0
 14 15  2  0
 16 17  1  0
 17 18  1  0
 18 19  1  0
 20 18  2  0
M  END
$$$$
