GRG.pdb
     RDKit          3D

 20 19  0  0  1  0  0  0  0  0999 V2000
   28.3707  -20.2459  -18.0372 N   0  0  0  0  0  0  0  0  0  0  0  0
   27.9145  -19.2996  -17.0457 C   0  0  0  0  0  0  0  0  0  0  0  0
   27.0446  -19.9597  -16.0074 C   0  0  0  0  0  0  0  0  0  0  0  0
   26.0603  -20.6548  -16.3546 O   0  0  0  0  0  0  0  0  0  0  0  0
   23.3135  -20.4644  -10.1328 N   0  0  0  0  0  0  0  0  0  0  0  0
   24.0932  -20.8008   -9.0020 C   0  0  0  0  0  0  0  0  0  0  0  0
   23.5096  -21.2151   -7.9209 N   0  0  0  0  0  0  0  0  0  0  0  0
   25.5076  -20.6828   -9.0598 N   0  0  0  0  0  0  0  0  0  0  0  0
   26.1711  -20.0783  -10.1938 C   0  0  0  0  0  0  0  0  0  0  0  0
   26.5439  -21.2038  -11.1796 C   0  0  0  0  0  0  0  0  0  0  0  0
   27.2899  -20.6545  -12.3437 C   0  0  0  0  0  0  0  0  0  0  0  0
   26.5318  -20.3922  -13.5439 C   0  0  2  0  0  0  0  0  0  0  0  0
   27.3131  -19.8146  -14.6358 N   0  0  0  0  0  0  0  0  0  0  0  0
   25.1639  -19.9918  -13.6291 C   0  0  0  0  0  0  0  0  0  0  0  0
   24.9492  -18.7059  -13.6221 O   0  0  0  0  0  0  0  0  0  0  0  0
   24.0389  -21.4780   -7.0666 N   0  0  0  0  0  0  0  0  0  0  0  0
   23.9907  -20.7537  -13.7201 C   0  0  0  0  0  0  0  0  0  0  0  0
   22.6535  -20.1248  -13.7396 C   0  0  0  0  0  0  0  0  0  0  0  0
   22.1648  -19.9057  -15.1175 O   0  0  0  0  0  0  0  0  0  0  0  0
   20.9518  -20.3839  -15.5434 O   0  0  0  0  0  0  0  0  0  0  0  0
  1  2  1  0
  2  3  1  0
  3 13  1  0
  4  3  2  0
  5  6  1  0
  6  8  1  0
  7  6  2  0
  9  8  1  0
 10  9  1  0
 12 11  1  1
 11 10  1  0
 12 14  1  0
 13 12  1  0
 14 16  1  0
 14 15  2  0
 16 17  1  0
 17 18  1  0
 18 19  1  0
 20 18  2  0
M  END
$$$$
