GRG.pdb
     RDKit          3D

 20 19  0  0  1  0  0  0  0  0999 V2000
   21.1852  -19.0734  -15.6079 N   0  0  0  0  0  0  0  0  0  0  0  0
   22.4913  -19.6675  -15.7752 C   0  0  0  0  0  0  0  0  0  0  0  0
   23.5767  -18.7906  -15.2066 C   0  0  0  0  0  0  0  0  0  0  0  0
   23.4147  -17.5492  -15.1329 O   0  0  0  0  0  0  0  0  0  0  0  0
   26.7045  -19.9748   -9.1372 N   0  0  0  0  0  0  0  0  0  0  0  0
   25.6156  -20.8185   -9.4569 C   0  0  0  0  0  0  0  0  0  0  0  0
   24.5963  -20.8806   -8.6580 N   0  0  0  0  0  0  0  0  0  0  0  0
   25.6469  -21.5897  -10.6494 N   0  0  0  0  0  0  0  0  0  0  0  0
   26.4040  -21.1647  -11.8060 C   0  0  0  0  0  0  0  0  0  0  0  0
   26.0195  -19.7035  -12.1131 C   0  0  0  0  0  0  0  0  0  0  0  0
   26.7544  -19.2086  -13.3082 C   0  0  0  0  0  0  0  0  0  0  0  0
   25.9715  -18.5813  -14.3462 C   0  0  2  0  0  0  0  0  0  0  0  0
   24.7871  -19.3376  -14.7479 N   0  0  0  0  0  0  0  0  0  0  0  0
   26.4545  -17.7803  -15.4252 C   0  0  0  0  0  0  0  0  0  0  0  0
   26.3028  -18.2859  -16.6172 O   0  0  0  0  0  0  0  0  0  0  0  0
   23.7476  -21.4376   -8.8782 N   0  0  0  0  0  0  0  0  0  0  0  0
   27.0748  -16.5233  -15.4262 C   0  0  0  0  0  0  0  0  0  0  0  0
   26.2932  -15.2693  -15.4536 C   0  0  0  0  0  0  0  0  0  0  0  0
   25.9971  -14.8317  -16.8343 O   0  0  0  0  0  0  0  0  0  0  0  0
   26.5055  -13.6681  -17.3529 O   0  0  0  0  0  0  0  0  0  0  0  0
  1  2  1  0
  2  3  1  0
  3 13  1  0
  4  3  2  0
  5  6  1  0
  6  8  1  0
  7  6  2  0
  9  8  1  0
 10  9  1  0
 12 11  1  6
 11 10  1  0
 12 14  1  0
 13 12  1  0
 14 16  1  0
 14 15  2  0
 16 17  1  0
 17 18  1  0
 18 19  1  0
 20 18  2  0
M  END
$$$$
