GRG.pdb
     RDKit          3D

 20 19  0  0  1  0  0  0  0  0999 V2000
   18.7354  -11.4474  -16.2572 N   0  0  0  0  0  0  0  0  0  0  0  0
   18.5994  -11.5331  -14.8217 C   0  0  0  0  0  0  0  0  0  0  0  0
   18.3849  -10.1761  -14.2027 C   0  0  0  0  0  0  0  0  0  0  0  0
   18.2147   -9.1681  -14.9291 O   0  0  0  0  0  0  0  0  0  0  0  0
   14.3722   -7.1708   -6.5647 N   0  0  0  0  0  0  0  0  0  0  0  0
   14.2543   -6.4450   -7.7727 C   0  0  0  0  0  0  0  0  0  0  0  0
   13.2202   -5.6875   -7.9674 N   0  0  0  0  0  0  0  0  0  0  0  0
   15.2687   -6.5512   -8.7614 N   0  0  0  0  0  0  0  0  0  0  0  0
   15.6109   -7.8217   -9.3615 C   0  0  0  0  0  0  0  0  0  0  0  0
   16.6462   -7.5571  -10.4730 C   0  0  0  0  0  0  0  0  0  0  0  0
   17.0878   -8.8355  -11.0926 C   0  0  0  0  0  0  0  0  0  0  0  0
   18.1203   -8.7547  -12.0983 C   0  0  2  0  0  0  0  0  0  0  0  0
   18.3697  -10.0080  -12.8077 N   0  0  0  0  0  0  0  0  0  0  0  0
   19.2970   -7.9467  -12.0625 C   0  0  0  0  0  0  0  0  0  0  0  0
   20.1870   -8.2823  -11.1710 O   0  0  0  0  0  0  0  0  0  0  0  0
   13.1415   -5.0495   -8.7834 N   0  0  0  0  0  0  0  0  0  0  0  0
   19.6686   -6.8356  -12.8322 C   0  0  0  0  0  0  0  0  0  0  0  0
   20.9142   -6.0858  -12.5666 C   0  0  0  0  0  0  0  0  0  0  0  0
   21.2093   -5.1067  -13.6341 O   0  0  0  0  0  0  0  0  0  0  0  0
   22.3005   -4.2775  -13.5788 O   0  0  0  0  0  0  0  0  0  0  0  0
  1  2  1  0
  2  3  1  0
  3 13  1  0
  4  3  2  0
  5  6  1  0
  6  8  1  0
  7  6  2  0
  9  8  1  0
 10  9  1  0
 12 11  1  1
 11 10  1  0
 12 14  1  0
 13 12  1  0
 14 16  1  0
 14 15  2  0
 16 17  1  0
 17 18  1  0
 18 19  1  0
 20 18  2  0
M  END
$$$$
