GRG.pdb
     RDKit          3D

 20 19  0  0  1  0  0  0  0  0999 V2000
   26.8190  -25.5658  -16.5338 N   0  0  0  0  0  0  0  0  0  0  0  0
   27.4971  -24.3629  -16.1098 C   0  0  0  0  0  0  0  0  0  0  0  0
   26.8910  -23.1340  -16.7365 C   0  0  0  0  0  0  0  0  0  0  0  0
   25.9457  -23.2401  -17.5537 O   0  0  0  0  0  0  0  0  0  0  0  0
   26.2774  -20.5850  -11.4154 N   0  0  0  0  0  0  0  0  0  0  0  0
   24.9139  -20.9340  -11.5526 C   0  0  0  0  0  0  0  0  0  0  0  0
   24.3417  -21.6560  -10.6402 N   0  0  0  0  0  0  0  0  0  0  0  0
   24.1829  -20.4910  -12.6871 N   0  0  0  0  0  0  0  0  0  0  0  0
   24.7949  -19.6705  -13.7088 C   0  0  0  0  0  0  0  0  0  0  0  0
   25.5754  -20.6009  -14.6588 C   0  0  0  0  0  0  0  0  0  0  0  0
   26.1463  -19.8293  -15.7954 C   0  0  0  0  0  0  0  0  0  0  0  0
   26.7695  -20.5864  -16.8549 C   0  0  2  0  0  0  0  0  0  0  0  0
   27.3655  -21.8490  -16.4229 N   0  0  0  0  0  0  0  0  0  0  0  0
   27.4466  -20.0692  -18.0007 C   0  0  0  0  0  0  0  0  0  0  0  0
   28.6988  -19.7529  -17.8231 O   0  0  0  0  0  0  0  0  0  0  0  0
   23.3287  -21.8849  -10.6633 N   0  0  0  0  0  0  0  0  0  0  0  0
   26.9915  -19.8376  -19.3062 C   0  0  0  0  0  0  0  0  0  0  0  0
   25.7345  -19.1083  -19.5746 C   0  0  0  0  0  0  0  0  0  0  0  0
   25.9681  -17.6656  -19.7972 O   0  0  0  0  0  0  0  0  0  0  0  0
   25.7907  -17.0814  -21.0254 O   0  0  0  0  0  0  0  0  0  0  0  0
  1  2  1  0
  2  3  1  0
  3 13  1  0
  4  3  2  0
  5  6  1  0
  6  8  1  0
  7  6  2  0
  9  8  1  0
 10  9  1  0
 12 11  1  1
 11 10  1  0
 12 14  1  0
 13 12  1  0
 14 16  1  0
 14 15  2  0
 16 17  1  0
 17 18  1  0
 18 19  1  0
 20 18  2  0
M  END
$$$$
