GRG.pdb
     RDKit          3D

 20 19  0  0  1  0  0  0  0  0999 V2000
   28.2865  -21.8219  -17.5183 N   0  0  0  0  0  0  0  0  0  0  0  0
   28.1846  -20.8389  -16.4648 C   0  0  0  0  0  0  0  0  0  0  0  0
   27.1280  -21.2123  -15.4576 C   0  0  0  0  0  0  0  0  0  0  0  0
   26.1532  -21.9248  -15.7967 O   0  0  0  0  0  0  0  0  0  0  0  0
   22.3486  -20.6372  -10.0987 N   0  0  0  0  0  0  0  0  0  0  0  0
   23.0839  -20.9149   -8.9231 C   0  0  0  0  0  0  0  0  0  0  0  0
   22.5020  -21.5079   -7.9277 N   0  0  0  0  0  0  0  0  0  0  0  0
   24.4525  -20.5430   -8.8425 N   0  0  0  0  0  0  0  0  0  0  0  0
   25.1988  -20.1441  -10.0153 C   0  0  0  0  0  0  0  0  0  0  0  0
   25.7895  -21.4161  -10.6561 C   0  0  0  0  0  0  0  0  0  0  0  0
   26.7380  -21.0614  -11.7460 C   0  0  0  0  0  0  0  0  0  0  0  0
   26.2049  -21.0033  -13.0863 C   0  0  2  0  0  0  0  0  0  0  0  0
   27.2083  -20.7758  -14.1244 N   0  0  0  0  0  0  0  0  0  0  0  0
   24.9330  -20.4927  -13.4866 C   0  0  0  0  0  0  0  0  0  0  0  0
   24.8369  -19.1938  -13.5427 O   0  0  0  0  0  0  0  0  0  0  0  0
   22.9912  -21.7068   -7.0331 N   0  0  0  0  0  0  0  0  0  0  0  0
   23.7485  -21.1562  -13.8356 C   0  0  0  0  0  0  0  0  0  0  0  0
   22.5602  -20.4242  -14.3216 C   0  0  0  0  0  0  0  0  0  0  0  0
   21.4351  -20.4982  -13.3656 O   0  0  0  0  0  0  0  0  0  0  0  0
   20.3792  -19.6242  -13.4163 O   0  0  0  0  0  0  0  0  0  0  0  0
  1  2  1  0
  2  3  1  0
  3 13  1  0
  4  3  2  0
  5  6  1  0
  6  8  1  0
  7  6  2  0
  9  8  1  0
 10  9  1  0
 12 11  1  1
 11 10  1  0
 12 14  1  0
 13 12  1  0
 14 16  1  0
 14 15  2  0
 16 17  1  0
 17 18  1  0
 18 19  1  0
 20 18  2  0
M  END
$$$$
