GRG.pdb
     RDKit          3D

 20 19  0  0  1  0  0  0  0  0999 V2000
   26.5129  -25.3670  -16.1692 N   0  0  0  0  0  0  0  0  0  0  0  0
   26.8630  -24.0168  -15.7937 C   0  0  0  0  0  0  0  0  0  0  0  0
   25.6719  -23.2620  -15.2628 C   0  0  0  0  0  0  0  0  0  0  0  0
   24.5098  -23.5991  -15.5924 O   0  0  0  0  0  0  0  0  0  0  0  0
   19.0368  -21.7706  -11.6305 N   0  0  0  0  0  0  0  0  0  0  0  0
   20.1071  -20.8765  -11.3964 C   0  0  0  0  0  0  0  0  0  0  0  0
   19.8588  -19.6243  -11.1695 N   0  0  0  0  0  0  0  0  0  0  0  0
   21.4438  -21.3570  -11.4110 N   0  0  0  0  0  0  0  0  0  0  0  0
   22.4044  -20.8927  -12.3873 C   0  0  0  0  0  0  0  0  0  0  0  0
   23.7253  -20.5973  -11.6489 C   0  0  0  0  0  0  0  0  0  0  0  0
   24.8723  -21.2302  -12.3538 C   0  0  0  0  0  0  0  0  0  0  0  0
   24.7538  -21.3947  -13.7831 C   0  0  2  0  0  0  0  0  0  0  0  0
   25.8323  -22.1711  -14.3917 N   0  0  0  0  0  0  0  0  0  0  0  0
   24.2093  -20.4608  -14.7160 C   0  0  0  0  0  0  0  0  0  0  0  0
   24.9248  -19.3922  -14.9299 O   0  0  0  0  0  0  0  0  0  0  0  0
   20.6114  -18.9253  -11.0142 N   0  0  0  0  0  0  0  0  0  0  0  0
   23.0184  -20.4931  -15.4547 C   0  0  0  0  0  0  0  0  0  0  0  0
   22.6266  -19.3836  -16.3490 C   0  0  0  0  0  0  0  0  0  0  0  0
   21.2777  -18.8679  -16.0331 O   0  0  0  0  0  0  0  0  0  0  0  0
   20.7500  -17.7738  -16.6702 O   0  0  0  0  0  0  0  0  0  0  0  0
  1  2  1  0
  2  3  1  0
  3 13  1  0
  4  3  2  0
  5  6  1  0
  6  8  1  0
  7  6  2  0
  9  8  1  0
 10  9  1  0
 12 11  1  1
 11 10  1  0
 12 14  1  0
 13 12  1  0
 14 16  1  0
 14 15  2  0
 16 17  1  0
 17 18  1  0
 18 19  1  0
 20 18  2  0
M  END
$$$$
