DHY.pdb
     RDKit          3D

 31 32  0  0  1  0  0  0  0  0999 V2000
   24.0321  -17.9607  -19.2553 N   0  0  0  0  0  0  0  0  0  0  0  0
   23.5056  -18.9464  -18.3684 C   0  0  1  0  0  0  0  0  0  0  0  0
   22.8160  -20.0817  -19.0735 C   0  0  0  0  0  0  0  0  0  0  0  0
   21.6584  -19.5758  -19.8407 C   0  0  0  0  0  0  0  0  0  0  0  0
   21.7741  -19.3953  -21.0753 O   0  0  0  0  0  0  0  0  0  0  0  0
   24.5984  -19.5124  -17.5436 C   0  0  0  0  0  0  0  0  0  0  0  0
   24.6196  -20.7396  -17.3117 O   0  0  0  0  0  0  0  0  0  0  0  0
   20.4539  -19.3009  -19.2127 O   0  0  0  0  0  0  0  0  0  0  0  0
   25.6111  -18.6914  -17.0180 N   0  0  0  0  0  0  0  0  0  0  0  0
   26.6625  -19.2133  -16.1980 C   0  0  1  0  0  0  0  0  0  0  0  0
   27.9380  -18.4175  -16.3717 C   0  0  0  0  0  0  0  0  0  0  0  0
   28.5900  -18.8289  -17.6189 C   0  0  0  0  0  0  0  0  0  0  0  0
   28.0856  -19.7898  -18.4948 C   0  0  0  0  0  0  0  0  0  0  0  0
   28.9859  -19.8567  -19.4958 N   0  0  0  0  0  0  0  0  0  0  0  0
   29.9937  -18.9757  -19.2408 C   0  0  0  0  0  0  0  0  0  0  0  0
   29.7414  -18.3502  -18.0871 N   0  0  0  0  0  0  0  0  0  0  0  0
   26.2343  -19.3020  -14.8006 C   0  0  0  0  0  0  0  0  0  0  0  0
   25.7102  -18.2961  -14.2528 O   0  0  0  0  0  0  0  0  0  0  0  0
   22.2443  -20.5741   -7.5516 O   0  0  0  0  0  0  0  0  0  0  0  0
   22.9257  -20.8183   -8.7447 C   0  0  0  0  0  0  0  0  0  0  0  0
   22.3780  -20.4343   -9.9371 C   0  0  0  0  0  0  0  0  0  0  0  0
   23.0514  -20.6739  -11.1364 C   0  0  0  0  0  0  0  0  0  0  0  0
   24.2666  -21.2980  -11.1037 C   0  0  0  0  0  0  0  0  0  0  0  0
   24.9924  -21.5603  -12.3503 C   0  0  0  0  0  0  0  0  0  0  0  0
   26.0129  -20.4701  -12.5738 C   0  0  2  0  0  0  0  0  0  0  0  0
   26.3643  -20.4569  -13.9916 N   0  0  0  0  0  0  0  0  0  0  0  0
   27.2160  -20.5755  -11.7294 C   0  0  0  0  0  0  0  0  0  0  0  0
   28.2551  -21.1334  -12.1977 O   0  0  0  0  0  0  0  0  0  0  0  0
   24.7986  -21.6749   -9.9010 C   0  0  0  0  0  0  0  0  0  0  0  0
   24.1466  -21.4473   -8.6894 C   0  0  0  0  0  0  0  0  0  0  0  0
   27.3157  -20.1055  -10.4364 O   0  0  0  0  0  0  0  0  0  0  0  0
  2  1  1  6
  2  3  1  0
  3  4  1  0
  4  5  2  0
  4  8  1  0
  6  7  2  0
  6  2  1  0
  9  6  1  0
 10 11  1  1
 10  9  1  0
 11 12  1  0
 12 13  2  0
 14 13  1  0
 15 14  1  0
 16 15  2  0
 16 12  1  0
 17 26  1  0
 17 10  1  0
 18 17  2  0
 20 21  2  0
 20 19  1  0
 22 21  1  0
 23 22  2  0
 24 23  1  0
 25 26  1  0
 25 24  1  6
 27 25  1  0
 28 27  2  0
 29 23  1  0
 29 30  2  0
 30 20  1  0
 31 27  1  0
M  END
$$$$
