DHY.pdb
     RDKit          3D

 31 32  0  0  1  0  0  0  0  0999 V2000
   22.5396  -14.6105  -17.2793 N   0  0  0  0  0  0  0  0  0  0  0  0
   21.7538  -13.6038  -17.9151 C   0  0  1  0  0  0  0  0  0  0  0  0
   20.3472  -13.5187  -17.3898 C   0  0  0  0  0  0  0  0  0  0  0  0
   19.6130  -14.7638  -17.6981 C   0  0  0  0  0  0  0  0  0  0  0  0
   19.9949  -15.4790  -18.6535 O   0  0  0  0  0  0  0  0  0  0  0  0
   22.3940  -12.2801  -17.7335 C   0  0  0  0  0  0  0  0  0  0  0  0
   23.2892  -12.1444  -16.8730 O   0  0  0  0  0  0  0  0  0  0  0  0
   18.5133  -15.1461  -16.9461 O   0  0  0  0  0  0  0  0  0  0  0  0
   22.0107  -11.1752  -18.5133 N   0  0  0  0  0  0  0  0  0  0  0  0
   22.6779   -9.9117  -18.4197 C   0  0  1  0  0  0  0  0  0  0  0  0
   23.0872   -9.4066  -19.7864 C   0  0  0  0  0  0  0  0  0  0  0  0
   24.2678  -10.1513  -20.2356 C   0  0  0  0  0  0  0  0  0  0  0  0
   25.0283  -10.9918  -19.4232 C   0  0  0  0  0  0  0  0  0  0  0  0
   26.0027  -11.4650  -20.2255 N   0  0  0  0  0  0  0  0  0  0  0  0
   25.8425  -10.9362  -21.4711 C   0  0  0  0  0  0  0  0  0  0  0  0
   24.7755  -10.1316  -21.4668 N   0  0  0  0  0  0  0  0  0  0  0  0
   21.8612   -8.9481  -17.6793 C   0  0  0  0  0  0  0  0  0  0  0  0
   20.6341   -8.8490  -17.9453 O   0  0  0  0  0  0  0  0  0  0  0  0
   17.9326  -12.0076  -14.2130 O   0  0  0  0  0  0  0  0  0  0  0  0
   18.7917  -10.9103  -14.2878 C   0  0  0  0  0  0  0  0  0  0  0  0
   20.1410  -11.0867  -14.1555 C   0  0  0  0  0  0  0  0  0  0  0  0
   21.0091   -9.9957  -14.2288 C   0  0  0  0  0  0  0  0  0  0  0  0
   20.4927   -8.7475  -14.4347 C   0  0  0  0  0  0  0  0  0  0  0  0
   21.3847   -7.5867  -14.5152 C   0  0  0  0  0  0  0  0  0  0  0  0
   21.4982   -7.1418  -15.9537 C   0  0  2  0  0  0  0  0  0  0  0  0
   22.3504   -8.0946  -16.6607 N   0  0  0  0  0  0  0  0  0  0  0  0
   21.9837   -5.7617  -16.1310 C   0  0  0  0  0  0  0  0  0  0  0  0
   21.2918   -4.7985  -15.6797 O   0  0  0  0  0  0  0  0  0  0  0  0
   19.1398   -8.5907  -14.5647 C   0  0  0  0  0  0  0  0  0  0  0  0
   18.2515   -9.6635  -14.4954 C   0  0  0  0  0  0  0  0  0  0  0  0
   23.1602   -5.4145  -16.7617 O   0  0  0  0  0  0  0  0  0  0  0  0
  2  1  1  1
  2  3  1  0
  3  4  1  0
  4  5  2  0
  4  8  1  0
  6  7  2  0
  6  2  1  0
  9  6  1  0
 10 11  1  6
 10  9  1  0
 11 12  1  0
 12 13  2  0
 14 13  1  0
 15 14  1  0
 16 15  2  0
 16 12  1  0
 17 26  1  0
 17 10  1  0
 18 17  2  0
 20 21  2  0
 20 19  1  0
 22 21  1  0
 23 22  2  0
 24 23  1  0
 25 26  1  0
 25 24  1  1
 27 25  1  0
 28 27  2  0
 29 23  1  0
 29 30  2  0
 30 20  1  0
 31 27  1  0
M  END
$$$$
