DHY.pdb
     RDKit          3D

 31 32  0  0  1  0  0  0  0  0999 V2000
   18.6708  -11.7101  -16.5702 N   0  0  0  0  0  0  0  0  0  0  0  0
   18.2600  -10.3602  -16.7808 C   0  0  1  0  0  0  0  0  0  0  0  0
   17.4104   -9.8105  -15.6684 C   0  0  0  0  0  0  0  0  0  0  0  0
   16.0727  -10.4386  -15.6919 C   0  0  0  0  0  0  0  0  0  0  0  0
   15.7258  -11.1024  -16.6965 O   0  0  0  0  0  0  0  0  0  0  0  0
   19.4512   -9.4909  -16.9233 C   0  0  0  0  0  0  0  0  0  0  0  0
   20.3913   -9.5998  -16.1081 O   0  0  0  0  0  0  0  0  0  0  0  0
   15.2036  -10.3019  -14.6210 O   0  0  0  0  0  0  0  0  0  0  0  0
   19.5406   -8.5462  -17.9602 N   0  0  0  0  0  0  0  0  0  0  0  0
   20.7040   -7.7331  -18.1484 C   0  0  1  0  0  0  0  0  0  0  0  0
   20.8553   -7.3212  -19.5969 C   0  0  0  0  0  0  0  0  0  0  0  0
   21.2580   -8.4903  -20.3850 C   0  0  0  0  0  0  0  0  0  0  0  0
   22.0313   -9.5436  -19.8978 C   0  0  0  0  0  0  0  0  0  0  0  0
   22.1624  -10.3908  -20.9380 N   0  0  0  0  0  0  0  0  0  0  0  0
   21.4985   -9.8762  -22.0110 C   0  0  0  0  0  0  0  0  0  0  0  0
   20.9471   -8.7101  -21.6613 N   0  0  0  0  0  0  0  0  0  0  0  0
   20.6922   -6.5915  -17.2317 C   0  0  0  0  0  0  0  0  0  0  0  0
   19.6250   -5.9418  -17.0720 O   0  0  0  0  0  0  0  0  0  0  0  0
   18.7585   -8.7954  -11.5974 O   0  0  0  0  0  0  0  0  0  0  0  0
   19.6514   -7.9524  -12.2606 C   0  0  0  0  0  0  0  0  0  0  0  0
   20.7757   -8.4679  -12.8432 C   0  0  0  0  0  0  0  0  0  0  0  0
   21.6753   -7.6332  -13.5090 C   0  0  0  0  0  0  0  0  0  0  0  0
   21.4178   -6.2927  -13.5713 C   0  0  0  0  0  0  0  0  0  0  0  0
   22.3481   -5.3967  -14.2650 C   0  0  0  0  0  0  0  0  0  0  0  0
   21.7559   -4.9922  -15.5938 C   0  0  2  0  0  0  0  0  0  0  0  0
   21.8122   -6.1450  -16.4891 N   0  0  0  0  0  0  0  0  0  0  0  0
   22.3848   -3.8102  -16.2096 C   0  0  0  0  0  0  0  0  0  0  0  0
   22.3373   -2.6963  -15.6036 O   0  0  0  0  0  0  0  0  0  0  0  0
   20.2876   -5.7954  -12.9823 C   0  0  0  0  0  0  0  0  0  0  0  0
   19.3734   -6.6072  -12.3115 C   0  0  0  0  0  0  0  0  0  0  0  0
   23.0417   -3.8084  -17.4226 O   0  0  0  0  0  0  0  0  0  0  0  0
  2  1  1  1
  2  3  1  0
  3  4  1  0
  4  5  2  0
  4  8  1  0
  6  7  2  0
  6  2  1  0
  9  6  1  0
 10 11  1  6
 10  9  1  0
 11 12  1  0
 12 13  2  0
 14 13  1  0
 15 14  1  0
 16 15  2  0
 16 12  1  0
 17 26  1  0
 17 10  1  0
 18 17  2  0
 20 21  2  0
 20 19  1  0
 22 21  1  0
 23 22  2  0
 24 23  1  0
 25 26  1  0
 25 24  1  1
 27 25  1  0
 28 27  2  0
 29 23  1  0
 29 30  2  0
 30 20  1  0
 31 27  1  0
M  END
$$$$
