DHY.pdb
     RDKit          3D

 31 32  0  0  1  0  0  0  0  0999 V2000
   37.3853   -6.0183  -11.3746 N   0  0  0  0  0  0  0  0  0  0  0  0
   37.0739   -7.2891  -10.8060 C   0  0  1  0  0  0  0  0  0  0  0  0
   37.4011   -8.4471  -11.7079 C   0  0  0  0  0  0  0  0  0  0  0  0
   37.9902   -7.9569  -12.9717 C   0  0  0  0  0  0  0  0  0  0  0  0
   38.2475   -6.7367  -13.0943 O   0  0  0  0  0  0  0  0  0  0  0  0
   37.8208   -7.4670   -9.5388 C   0  0  0  0  0  0  0  0  0  0  0  0
   38.0322   -8.6202   -9.1080 O   0  0  0  0  0  0  0  0  0  0  0  0
   38.2593   -8.8275  -14.0159 O   0  0  0  0  0  0  0  0  0  0  0  0
   38.2949   -6.3599   -8.8141 N   0  0  0  0  0  0  0  0  0  0  0  0
   39.0530   -6.5096   -7.6086 C   0  0  1  0  0  0  0  0  0  0  0  0
   40.2156   -7.4580   -7.8077 C   0  0  0  0  0  0  0  0  0  0  0  0
   39.8596   -8.7699   -7.2581 C   0  0  0  0  0  0  0  0  0  0  0  0
   38.6642   -9.0522   -6.5975 C   0  0  0  0  0  0  0  0  0  0  0  0
   38.7489  -10.3555   -6.2640 N   0  0  0  0  0  0  0  0  0  0  0  0
   39.9428  -10.8451   -6.7020 C   0  0  0  0  0  0  0  0  0  0  0  0
   40.6167   -9.8645   -7.3105 N   0  0  0  0  0  0  0  0  0  0  0  0
   39.4673   -5.2040   -7.0915 C   0  0  0  0  0  0  0  0  0  0  0  0
   39.4926   -4.2139   -7.8697 O   0  0  0  0  0  0  0  0  0  0  0  0
   39.0353    1.6952   -8.4223 O   0  0  0  0  0  0  0  0  0  0  0  0
   38.9134    0.5342   -7.6575 C   0  0  0  0  0  0  0  0  0  0  0  0
   38.1809   -0.5208   -8.1263 C   0  0  0  0  0  0  0  0  0  0  0  0
   38.0527   -1.6868   -7.3690 C   0  0  0  0  0  0  0  0  0  0  0  0
   38.6692   -1.7606   -6.1518 C   0  0  0  0  0  0  0  0  0  0  0  0
   38.5487   -2.9747   -5.3389 C   0  0  0  0  0  0  0  0  0  0  0  0
   39.9095   -3.6104   -5.1844 C   0  0  2  0  0  0  0  0  0  0  0  0
   39.8527   -4.9553   -5.7518 N   0  0  0  0  0  0  0  0  0  0  0  0
   40.4186   -3.6384   -3.8017 C   0  0  0  0  0  0  0  0  0  0  0  0
   40.2592   -4.6859   -3.1036 O   0  0  0  0  0  0  0  0  0  0  0  0
   39.3978   -0.6946   -5.6996 C   0  0  0  0  0  0  0  0  0  0  0  0
   39.5415    0.4809   -6.4360 C   0  0  0  0  0  0  0  0  0  0  0  0
   41.0744   -2.5953   -3.1815 O   0  0  0  0  0  0  0  0  0  0  0  0
  2  1  1  6
  2  3  1  0
  3  4  1  0
  4  5  2  0
  4  8  1  0
  6  7  2  0
  6  2  1  0
  9  6  1  0
 10 11  1  6
 10  9  1  0
 11 12  1  0
 12 13  2  0
 14 13  1  0
 15 14  1  0
 16 15  2  0
 16 12  1  0
 17 26  1  0
 17 10  1  0
 18 17  2  0
 20 21  2  0
 20 19  1  0
 22 21  1  0
 23 22  2  0
 24 23  1  0
 25 26  1  0
 25 24  1  1
 27 25  1  0
 28 27  2  0
 29 23  1  0
 29 30  2  0
 30 20  1  0
 31 27  1  0
M  END
$$$$
