DHY.pdb
     RDKit          3D

 31 32  0  0  1  0  0  0  0  0999 V2000
   22.1423  -15.1020  -16.4663 N   0  0  0  0  0  0  0  0  0  0  0  0
   21.9009  -13.8501  -17.1064 C   0  0  1  0  0  0  0  0  0  0  0  0
   20.4493  -13.4579  -17.1306 C   0  0  0  0  0  0  0  0  0  0  0  0
   19.6898  -14.3730  -18.0082 C   0  0  0  0  0  0  0  0  0  0  0  0
   20.2637  -14.8936  -18.9929 O   0  0  0  0  0  0  0  0  0  0  0  0
   22.6557  -12.7799  -16.4135 C   0  0  0  0  0  0  0  0  0  0  0  0
   22.5947  -12.6932  -15.1689 O   0  0  0  0  0  0  0  0  0  0  0  0
   18.3576  -14.6593  -17.7547 O   0  0  0  0  0  0  0  0  0  0  0  0
   23.4387  -11.8610  -17.1334 N   0  0  0  0  0  0  0  0  0  0  0  0
   24.1274  -10.7827  -16.4906 C   0  0  1  0  0  0  0  0  0  0  0  0
   25.5159  -10.6007  -17.0647 C   0  0  0  0  0  0  0  0  0  0  0  0
   26.4077  -11.6088  -16.4829 C   0  0  0  0  0  0  0  0  0  0  0  0
   26.0474  -12.4880  -15.4621 C   0  0  0  0  0  0  0  0  0  0  0  0
   27.1498  -13.2299  -15.2350 N   0  0  0  0  0  0  0  0  0  0  0  0
   28.1374  -12.8206  -16.0800 C   0  0  0  0  0  0  0  0  0  0  0  0
   27.6720  -11.8257  -16.8413 N   0  0  0  0  0  0  0  0  0  0  0  0
   23.3284   -9.5566  -16.5372 C   0  0  0  0  0  0  0  0  0  0  0  0
   22.5526   -9.3645  -17.5107 O   0  0  0  0  0  0  0  0  0  0  0  0
   19.3712   -2.0106  -14.6239 O   0  0  0  0  0  0  0  0  0  0  0  0
   20.1151   -3.1884  -14.5394 C   0  0  0  0  0  0  0  0  0  0  0  0
   19.4802   -4.3989  -14.5117 C   0  0  0  0  0  0  0  0  0  0  0  0
   20.2151   -5.5830  -14.4272 C   0  0  0  0  0  0  0  0  0  0  0  0
   21.5788   -5.5170  -14.3726 C   0  0  0  0  0  0  0  0  0  0  0  0
   22.3716   -6.7471  -14.2836 C   0  0  0  0  0  0  0  0  0  0  0  0
   22.5870   -7.3048  -15.6702 C   0  0  2  0  0  0  0  0  0  0  0  0
   23.3566   -8.5406  -15.5511 N   0  0  0  0  0  0  0  0  0  0  0  0
   23.2261   -6.3699  -16.6133 C   0  0  0  0  0  0  0  0  0  0  0  0
   24.4918   -6.2834  -16.6385 O   0  0  0  0  0  0  0  0  0  0  0  0
   22.1963   -4.2966  -14.4015 C   0  0  0  0  0  0  0  0  0  0  0  0
   21.4858   -3.0995  -14.4854 C   0  0  0  0  0  0  0  0  0  0  0  0
   22.5492   -5.5575  -17.4990 O   0  0  0  0  0  0  0  0  0  0  0  0
  2  1  1  1
  2  3  1  0
  3  4  1  0
  4  5  2  0
  4  8  1  0
  6  7  2  0
  6  2  1  0
  9  6  1  0
 10 11  1  6
 10  9  1  0
 11 12  1  0
 12 13  2  0
 14 13  1  0
 15 14  1  0
 16 15  2  0
 16 12  1  0
 17 26  1  0
 17 10  1  0
 18 17  2  0
 20 21  2  0
 20 19  1  0
 22 21  1  0
 23 22  2  0
 24 23  1  0
 25 26  1  0
 25 24  1  1
 27 25  1  0
 28 27  2  0
 29 23  1  0
 29 30  2  0
 30 20  1  0
 31 27  1  0
M  END
$$$$
