DHY.pdb
     RDKit          3D

 31 32  0  0  1  0  0  0  0  0999 V2000
   18.7896  -11.3255  -18.6202 N   0  0  0  0  0  0  0  0  0  0  0  0
   19.8986  -11.4381  -17.7299 C   0  0  1  0  0  0  0  0  0  0  0  0
   20.9280  -12.4393  -18.1765 C   0  0  0  0  0  0  0  0  0  0  0  0
   20.3822  -13.8092  -18.0762 C   0  0  0  0  0  0  0  0  0  0  0  0
   19.2338  -13.9774  -17.6040 O   0  0  0  0  0  0  0  0  0  0  0  0
   20.5655  -10.1223  -17.5921 C   0  0  0  0  0  0  0  0  0  0  0  0
   21.6433  -10.0432  -16.9657 O   0  0  0  0  0  0  0  0  0  0  0  0
   21.1229  -14.9026  -18.4963 O   0  0  0  0  0  0  0  0  0  0  0  0
   20.0054   -8.9621  -18.1543 N   0  0  0  0  0  0  0  0  0  0  0  0
   20.6234   -7.6777  -18.0179 C   0  0  1  0  0  0  0  0  0  0  0  0
   20.2468   -6.7648  -19.1648 C   0  0  0  0  0  0  0  0  0  0  0  0
   21.0105   -7.1545  -20.3543 C   0  0  0  0  0  0  0  0  0  0  0  0
   22.1010   -8.0239  -20.3437 C   0  0  0  0  0  0  0  0  0  0  0  0
   22.4968   -8.1032  -21.6298 N   0  0  0  0  0  0  0  0  0  0  0  0
   21.6836   -7.3171  -22.3898 C   0  0  0  0  0  0  0  0  0  0  0  0
   20.7751   -6.7395  -21.5979 N   0  0  0  0  0  0  0  0  0  0  0  0
   20.3256   -7.0959  -16.7077 C   0  0  0  0  0  0  0  0  0  0  0  0
   19.1531   -7.1702  -16.2537 O   0  0  0  0  0  0  0  0  0  0  0  0
   19.4439   -5.6904   -8.4492 O   0  0  0  0  0  0  0  0  0  0  0  0
   19.9138   -6.0286   -9.7191 C   0  0  0  0  0  0  0  0  0  0  0  0
   19.1021   -6.6947  -10.5947 C   0  0  0  0  0  0  0  0  0  0  0  0
   19.5625   -7.0377  -11.8673 C   0  0  0  0  0  0  0  0  0  0  0  0
   20.8363   -6.6990  -12.2275 C   0  0  0  0  0  0  0  0  0  0  0  0
   21.3418   -7.0487  -13.5586 C   0  0  0  0  0  0  0  0  0  0  0  0
   20.9570   -5.9674  -14.5398 C   0  0  2  0  0  0  0  0  0  0  0  0
   21.2730   -6.4384  -15.8859 N   0  0  0  0  0  0  0  0  0  0  0  0
   21.5743   -4.6552  -14.2776 C   0  0  0  0  0  0  0  0  0  0  0  0
   22.7092   -4.3924  -14.7809 O   0  0  0  0  0  0  0  0  0  0  0  0
   21.6337   -6.0326  -11.3377 C   0  0  0  0  0  0  0  0  0  0  0  0
   21.1983   -5.6785  -10.0611 C   0  0  0  0  0  0  0  0  0  0  0  0
   21.0095   -3.6567  -13.5117 O   0  0  0  0  0  0  0  0  0  0  0  0
  2  1  1  6
  2  3  1  0
  3  4  1  0
  4  5  2  0
  4  8  1  0
  6  7  2  0
  6  2  1  0
  9  6  1  0
 10 11  1  6
 10  9  1  0
 11 12  1  0
 12 13  2  0
 14 13  1  0
 15 14  1  0
 16 15  2  0
 16 12  1  0
 17 26  1  0
 17 10  1  0
 18 17  2  0
 20 21  2  0
 20 19  1  0
 22 21  1  0
 23 22  2  0
 24 23  1  0
 25 26  1  0
 25 24  1  1
 27 25  1  0
 28 27  2  0
 29 23  1  0
 29 30  2  0
 30 20  1  0
 31 27  1  0
M  END
$$$$
