DHY.pdb
     RDKit          3D

 31 32  0  0  1  0  0  0  0  0999 V2000
   16.0885  -24.0924    5.4335 N   0  0  0  0  0  0  0  0  0  0  0  0
   16.8291  -22.9747    5.9206 C   0  0  1  0  0  0  0  0  0  0  0  0
   18.2519  -23.3063    6.2774 C   0  0  0  0  0  0  0  0  0  0  0  0
   18.3193  -23.8440    7.6524 C   0  0  0  0  0  0  0  0  0  0  0  0
   17.2935  -23.8162    8.3715 O   0  0  0  0  0  0  0  0  0  0  0  0
   16.8486  -21.9030    4.8977 C   0  0  0  0  0  0  0  0  0  0  0  0
   16.6839  -22.1993    3.6955 O   0  0  0  0  0  0  0  0  0  0  0  0
   19.4981  -24.3753    8.1515 O   0  0  0  0  0  0  0  0  0  0  0  0
   17.0494  -20.5593    5.2578 N   0  0  0  0  0  0  0  0  0  0  0  0
   16.7435  -19.4806    4.3673 C   0  0  1  0  0  0  0  0  0  0  0  0
   15.3082  -19.5535    3.8924 C   0  0  0  0  0  0  0  0  0  0  0  0
   15.2796  -20.1482    2.5524 C   0  0  0  0  0  0  0  0  0  0  0  0
   16.3980  -20.6461    1.8845 C   0  0  0  0  0  0  0  0  0  0  0  0
   15.9288  -21.0919    0.7021 N   0  0  0  0  0  0  0  0  0  0  0  0
   14.5844  -20.8751    0.6522 C   0  0  0  0  0  0  0  0  0  0  0  0
   14.1959  -20.2957    1.7921 N   0  0  0  0  0  0  0  0  0  0  0  0
   17.0740  -18.1927    4.9804 C   0  0  0  0  0  0  0  0  0  0  0  0
   16.6956  -17.9571    6.1585 O   0  0  0  0  0  0  0  0  0  0  0  0
   20.9670  -10.6613    6.9758 O   0  0  0  0  0  0  0  0  0  0  0  0
   20.5195  -11.7845    6.2787 C   0  0  0  0  0  0  0  0  0  0  0  0
   19.7426  -11.6340    5.1638 C   0  0  0  0  0  0  0  0  0  0  0  0
   19.2899  -12.7510    4.4592 C   0  0  0  0  0  0  0  0  0  0  0  0
   19.6333  -13.9986    4.8984 C   0  0  0  0  0  0  0  0  0  0  0  0
   19.1696  -15.1864    4.1748 C   0  0  0  0  0  0  0  0  0  0  0  0
   18.1214  -15.8961    4.9979 C   0  0  2  0  0  0  0  0  0  0  0  0
   17.8042  -17.1616    4.3410 N   0  0  0  0  0  0  0  0  0  0  0  0
   16.9020  -15.1071    5.2478 C   0  0  0  0  0  0  0  0  0  0  0  0
   15.9408  -15.1732    4.4220 O   0  0  0  0  0  0  0  0  0  0  0  0
   20.4114  -14.1292    6.0160 C   0  0  0  0  0  0  0  0  0  0  0  0
   20.8765  -13.0301    6.7375 C   0  0  0  0  0  0  0  0  0  0  0  0
   16.7069  -14.2796    6.3340 O   0  0  0  0  0  0  0  0  0  0  0  0
  2  1  1  6
  2  3  1  0
  3  4  1  0
  4  5  2  0
  4  8  1  0
  6  7  2  0
  6  2  1  0
  9  6  1  0
 10 11  1  1
 10  9  1  0
 11 12  1  0
 12 13  2  0
 14 13  1  0
 15 14  1  0
 16 15  2  0
 16 12  1  0
 17 26  1  0
 17 10  1  0
 18 17  2  0
 20 21  2  0
 20 19  1  0
 22 21  1  0
 23 22  2  0
 24 23  1  0
 25 26  1  0
 25 24  1  6
 27 25  1  0
 28 27  2  0
 29 23  1  0
 29 30  2  0
 30 20  1  0
 31 27  1  0
M  END
$$$$
