DHY.pdb
     RDKit          3D

 31 32  0  0  1  0  0  0  0  0999 V2000
   28.3409  -23.0306  -18.4061 N   0  0  0  0  0  0  0  0  0  0  0  0
   28.6040  -22.8015  -17.0228 C   0  0  1  0  0  0  0  0  0  0  0  0
   30.0426  -22.4744  -16.7312 C   0  0  0  0  0  0  0  0  0  0  0  0
   30.9051  -23.6254  -17.0719 C   0  0  0  0  0  0  0  0  0  0  0  0
   30.4029  -24.6159  -17.6523 O   0  0  0  0  0  0  0  0  0  0  0  0
   27.7685  -21.6802  -16.5333 C   0  0  0  0  0  0  0  0  0  0  0  0
   27.8260  -21.3522  -15.3295 O   0  0  0  0  0  0  0  0  0  0  0  0
   32.2550  -23.6204  -16.7580 O   0  0  0  0  0  0  0  0  0  0  0  0
   26.9126  -20.9800  -17.4010 N   0  0  0  0  0  0  0  0  0  0  0  0
   26.1401  -19.8569  -16.9627 C   0  0  1  0  0  0  0  0  0  0  0  0
   26.0635  -18.7930  -18.0364 C   0  0  0  0  0  0  0  0  0  0  0  0
   25.2979  -17.6526  -17.5232 C   0  0  0  0  0  0  0  0  0  0  0  0
   25.3716  -17.1757  -16.2148 C   0  0  0  0  0  0  0  0  0  0  0  0
   24.5175  -16.1336  -16.1744 N   0  0  0  0  0  0  0  0  0  0  0  0
   23.9489  -15.9827  -17.4036 C   0  0  0  0  0  0  0  0  0  0  0  0
   24.4343  -16.9195  -18.2238 N   0  0  0  0  0  0  0  0  0  0  0  0
   24.8212  -20.2865  -16.4939 C   0  0  0  0  0  0  0  0  0  0  0  0
   24.1424  -21.0746  -17.2044 O   0  0  0  0  0  0  0  0  0  0  0  0
   17.6429  -21.6449  -11.6894 O   0  0  0  0  0  0  0  0  0  0  0  0
   18.9103  -21.2397  -12.1104 C   0  0  0  0  0  0  0  0  0  0  0  0
   19.1546  -19.9210  -12.3757 C   0  0  0  0  0  0  0  0  0  0  0  0
   20.4189  -19.5052  -12.7974 C   0  0  0  0  0  0  0  0  0  0  0  0
   21.4107  -20.4340  -12.9419 C   0  0  0  0  0  0  0  0  0  0  0  0
   22.7463  -20.0210  -13.3835 C   0  0  0  0  0  0  0  0  0  0  0  0
   22.9011  -20.3195  -14.8555 C   0  0  2  0  0  0  0  0  0  0  0  0
   24.2291  -19.8780  -15.2741 N   0  0  0  0  0  0  0  0  0  0  0  0
   21.8531  -19.7362  -15.7118 C   0  0  0  0  0  0  0  0  0  0  0  0
   21.9415  -18.5183  -16.0571 O   0  0  0  0  0  0  0  0  0  0  0  0
   21.1472  -21.7490  -12.6717 C   0  0  0  0  0  0  0  0  0  0  0  0
   19.8935  -22.1902  -12.2493 C   0  0  0  0  0  0  0  0  0  0  0  0
   20.7523  -20.4184  -16.1866 O   0  0  0  0  0  0  0  0  0  0  0  0
  2  1  1  6
  2  3  1  0
  3  4  1  0
  4  5  2  0
  4  8  1  0
  6  7  2  0
  6  2  1  0
  9  6  1  0
 10 11  1  6
 10  9  1  0
 11 12  1  0
 12 13  2  0
 14 13  1  0
 15 14  1  0
 16 15  2  0
 16 12  1  0
 17 26  1  0
 17 10  1  0
 18 17  2  0
 20 21  2  0
 20 19  1  0
 22 21  1  0
 23 22  2  0
 24 23  1  0
 25 26  1  0
 25 24  1  1
 27 25  1  0
 28 27  2  0
 29 23  1  0
 29 30  2  0
 30 20  1  0
 31 27  1  0
M  END
$$$$
