DHY.pdb
     RDKit          3D

 31 32  0  0  1  0  0  0  0  0999 V2000
   17.4341  -10.6195  -16.3425 N   0  0  0  0  0  0  0  0  0  0  0  0
   17.0771  -11.0838  -15.0417 C   0  0  1  0  0  0  0  0  0  0  0  0
   17.4400  -12.5225  -14.7969 C   0  0  0  0  0  0  0  0  0  0  0  0
   16.7166  -13.3977  -15.7431 C   0  0  0  0  0  0  0  0  0  0  0  0
   15.9299  -12.8844  -16.5724 O   0  0  0  0  0  0  0  0  0  0  0  0
   17.7506  -10.2574  -14.0129 C   0  0  0  0  0  0  0  0  0  0  0  0
   18.0335  -10.7647  -12.9070 O   0  0  0  0  0  0  0  0  0  0  0  0
   16.8983  -14.7715  -15.7226 O   0  0  0  0  0  0  0  0  0  0  0  0
   18.0763   -8.9127  -14.2608 N   0  0  0  0  0  0  0  0  0  0  0  0
   18.5247   -8.0360  -13.2213 C   0  0  1  0  0  0  0  0  0  0  0  0
   19.4232   -6.9495  -13.7716 C   0  0  0  0  0  0  0  0  0  0  0  0
   20.6300   -7.5670  -14.3305 C   0  0  0  0  0  0  0  0  0  0  0  0
   20.9031   -8.9343  -14.3035 C   0  0  0  0  0  0  0  0  0  0  0  0
   22.0967   -9.0641  -14.9164 N   0  0  0  0  0  0  0  0  0  0  0  0
   22.5310   -7.8306  -15.2995 C   0  0  0  0  0  0  0  0  0  0  0  0
   21.6241   -6.9190  -14.9355 N   0  0  0  0  0  0  0  0  0  0  0  0
   17.3887   -7.5049  -12.4655 C   0  0  0  0  0  0  0  0  0  0  0  0
   16.2280   -7.6124  -12.9427 O   0  0  0  0  0  0  0  0  0  0  0  0
   10.9555   -7.0941   -7.1286 O   0  0  0  0  0  0  0  0  0  0  0  0
   12.1145   -7.3036   -7.8774 C   0  0  0  0  0  0  0  0  0  0  0  0
   12.2016   -6.8215   -9.1538 C   0  0  0  0  0  0  0  0  0  0  0  0
   13.3565   -7.0257   -9.9113 C   0  0  0  0  0  0  0  0  0  0  0  0
   14.4003   -7.7142   -9.3604 C   0  0  0  0  0  0  0  0  0  0  0  0
   15.6232   -7.9409  -10.1366 C   0  0  0  0  0  0  0  0  0  0  0  0
   16.3325   -6.6248  -10.3485 C   0  0  2  0  0  0  0  0  0  0  0  0
   17.4897   -6.8625  -11.2076 N   0  0  0  0  0  0  0  0  0  0  0  0
   16.7254   -5.9346   -9.1071 C   0  0  0  0  0  0  0  0  0  0  0  0
   17.7940   -6.2810   -8.5169 O   0  0  0  0  0  0  0  0  0  0  0  0
   14.2946   -8.1890   -8.0817 C   0  0  0  0  0  0  0  0  0  0  0  0
   13.1526   -7.9988   -7.3042 C   0  0  0  0  0  0  0  0  0  0  0  0
   16.0133   -4.9134   -8.5132 O   0  0  0  0  0  0  0  0  0  0  0  0
  2  1  1  6
  2  3  1  0
  3  4  1  0
  4  5  2  0
  4  8  1  0
  6  7  2  0
  6  2  1  0
  9  6  1  0
 10 11  1  6
 10  9  1  0
 11 12  1  0
 12 13  2  0
 14 13  1  0
 15 14  1  0
 16 15  2  0
 16 12  1  0
 17 26  1  0
 17 10  1  0
 18 17  2  0
 20 21  2  0
 20 19  1  0
 22 21  1  0
 23 22  2  0
 24 23  1  0
 25 26  1  0
 25 24  1  1
 27 25  1  0
 28 27  2  0
 29 23  1  0
 29 30  2  0
 30 20  1  0
 31 27  1  0
M  END
$$$$
