DHY.pdb
     RDKit          3D

 31 32  0  0  1  0  0  0  0  0999 V2000
   30.0947  -31.6814    5.2158 N   0  0  0  0  0  0  0  0  0  0  0  0
   29.3719  -32.7944    5.7395 C   0  0  1  0  0  0  0  0  0  0  0  0
   30.2063  -33.6998    6.6030 C   0  0  0  0  0  0  0  0  0  0  0  0
   30.9668  -34.6469    5.7610 C   0  0  0  0  0  0  0  0  0  0  0  0
   30.7665  -34.6633    4.5242 O   0  0  0  0  0  0  0  0  0  0  0  0
   28.2278  -32.3126    6.5480 C   0  0  0  0  0  0  0  0  0  0  0  0
   28.4148  -31.9757    7.7362 O   0  0  0  0  0  0  0  0  0  0  0  0
   31.8934  -35.5116    6.3219 O   0  0  0  0  0  0  0  0  0  0  0  0
   26.9360  -32.2286    6.0002 N   0  0  0  0  0  0  0  0  0  0  0  0
   25.8176  -31.7594    6.7611 C   0  0  1  0  0  0  0  0  0  0  0  0
   24.9121  -30.8851    5.9207 C   0  0  0  0  0  0  0  0  0  0  0  0
   25.5793  -29.6020    5.6789 C   0  0  0  0  0  0  0  0  0  0  0  0
   26.2838  -28.8832    6.6443 C   0  0  0  0  0  0  0  0  0  0  0  0
   26.7269  -27.7819    6.0054 N   0  0  0  0  0  0  0  0  0  0  0  0
   26.3106  -27.8281    4.7087 C   0  0  0  0  0  0  0  0  0  0  0  0
   25.6075  -28.9486    4.5186 N   0  0  0  0  0  0  0  0  0  0  0  0
   25.1081  -32.8788    7.3836 C   0  0  0  0  0  0  0  0  0  0  0  0
   24.1960  -32.6407    8.2189 O   0  0  0  0  0  0  0  0  0  0  0  0
   22.0242  -40.7529    9.5266 O   0  0  0  0  0  0  0  0  0  0  0  0
   22.6423  -39.6913    8.8645 C   0  0  0  0  0  0  0  0  0  0  0  0
   21.8947  -38.8152    8.1278 C   0  0  0  0  0  0  0  0  0  0  0  0
   22.5033  -37.7497    7.4616 C   0  0  0  0  0  0  0  0  0  0  0  0
   23.8575  -37.5932    7.5551 C   0  0  0  0  0  0  0  0  0  0  0  0
   24.5187  -36.4819    6.8642 C   0  0  0  0  0  0  0  0  0  0  0  0
   24.6943  -35.3296    7.8241 C   0  0  2  0  0  0  0  0  0  0  0  0
   25.3699  -34.2446    7.1169 N   0  0  0  0  0  0  0  0  0  0  0  0
   25.4022  -35.6734    9.0700 C   0  0  0  0  0  0  0  0  0  0  0  0
   24.7972  -36.3429    9.9623 O   0  0  0  0  0  0  0  0  0  0  0  0
   24.5889  -38.4800    8.2969 C   0  0  0  0  0  0  0  0  0  0  0  0
   24.0056  -39.5520    8.9717 C   0  0  0  0  0  0  0  0  0  0  0  0
   26.7044  -35.3225    9.3598 O   0  0  0  0  0  0  0  0  0  0  0  0
  2  1  1  1
  2  3  1  0
  3  4  1  0
  4  5  2  0
  4  8  1  0
  6  7  2  0
  6  2  1  0
  9  6  1  0
 10 11  1  6
 10  9  1  0
 11 12  1  0
 12 13  2  0
 14 13  1  0
 15 14  1  0
 16 15  2  0
 16 12  1  0
 17 26  1  0
 17 10  1  0
 18 17  2  0
 20 21  2  0
 20 19  1  0
 22 21  1  0
 23 22  2  0
 24 23  1  0
 25 26  1  0
 25 24  1  6
 27 25  1  0
 28 27  2  0
 29 23  1  0
 29 30  2  0
 30 20  1  0
 31 27  1  0
M  END
$$$$
