DHY.pdb
     RDKit          3D

 31 32  0  0  1  0  0  0  0  0999 V2000
   26.9290  -33.8649   -5.6283 N   0  0  0  0  0  0  0  0  0  0  0  0
   25.8951  -33.7544   -4.6515 C   0  0  1  0  0  0  0  0  0  0  0  0
   24.6285  -34.4693   -5.0340 C   0  0  0  0  0  0  0  0  0  0  0  0
   23.9553  -33.7552   -6.1391 C   0  0  0  0  0  0  0  0  0  0  0  0
   22.8171  -34.1293   -6.5060 O   0  0  0  0  0  0  0  0  0  0  0  0
   26.3649  -34.3088   -3.3604 C   0  0  0  0  0  0  0  0  0  0  0  0
   25.5642  -34.4059   -2.4066 O   0  0  0  0  0  0  0  0  0  0  0  0
   24.5662  -32.6829   -6.7698 O   0  0  0  0  0  0  0  0  0  0  0  0
   27.6962  -34.7270   -3.1914 N   0  0  0  0  0  0  0  0  0  0  0  0
   28.2026  -35.1541   -1.9220 C   0  0  1  0  0  0  0  0  0  0  0  0
   29.7006  -35.3633   -1.9728 C   0  0  0  0  0  0  0  0  0  0  0  0
   30.0609  -36.4510   -1.0578 C   0  0  0  0  0  0  0  0  0  0  0  0
   29.1619  -37.1082   -0.2184 C   0  0  0  0  0  0  0  0  0  0  0  0
   29.9025  -38.0229    0.4388 N   0  0  0  0  0  0  0  0  0  0  0  0
   31.1951  -37.9269    0.0183 C   0  0  0  0  0  0  0  0  0  0  0  0
   31.2818  -36.9597   -0.8999 N   0  0  0  0  0  0  0  0  0  0  0  0
   27.7940  -34.2289   -0.8632 C   0  0  0  0  0  0  0  0  0  0  0  0
   28.0321  -32.9991   -0.9952 O   0  0  0  0  0  0  0  0  0  0  0  0
   23.3737  -29.8267    5.0338 O   0  0  0  0  0  0  0  0  0  0  0  0
   23.9136  -30.5857    3.9945 C   0  0  0  0  0  0  0  0  0  0  0  0
   25.0775  -30.1940    3.3935 C   0  0  0  0  0  0  0  0  0  0  0  0
   25.6260  -30.9461    2.3529 C   0  0  0  0  0  0  0  0  0  0  0  0
   24.9842  -32.0803    1.9419 C   0  0  0  0  0  0  0  0  0  0  0  0
   25.5412  -32.8862    0.8512 C   0  0  0  0  0  0  0  0  0  0  0  0
   26.7402  -33.6520    1.3569 C   0  0  2  0  0  0  0  0  0  0  0  0
   27.1350  -34.6129    0.3299 N   0  0  0  0  0  0  0  0  0  0  0  0
   26.5382  -34.3167    2.6566 C   0  0  0  0  0  0  0  0  0  0  0  0
   26.1103  -35.5111    2.6821 O   0  0  0  0  0  0  0  0  0  0  0  0
   23.8206  -32.4562    2.5555 C   0  0  0  0  0  0  0  0  0  0  0  0
   23.2521  -31.7230    3.5966 C   0  0  0  0  0  0  0  0  0  0  0  0
   26.7821  -33.7380    3.8847 O   0  0  0  0  0  0  0  0  0  0  0  0
  2  1  1  6
  2  3  1  0
  3  4  1  0
  4  5  2  0
  4  8  1  0
  6  7  2  0
  6  2  1  0
  9  6  1  0
 10 11  1  6
 10  9  1  0
 11 12  1  0
 12 13  2  0
 14 13  1  0
 15 14  1  0
 16 15  2  0
 16 12  1  0
 17 26  1  0
 17 10  1  0
 18 17  2  0
 20 21  2  0
 20 19  1  0
 22 21  1  0
 23 22  2  0
 24 23  1  0
 25 26  1  0
 25 24  1  6
 27 25  1  0
 28 27  2  0
 29 23  1  0
 29 30  2  0
 30 20  1  0
 31 27  1  0
M  END
$$$$
