PDS.pdb
     RDKit          3D

 22 22  0  0  1  0  0  0  0  0999 V2000
    9.3726  -13.5937   18.8957 N   0  0  0  0  0  0  0  0  0  0  0  0
    8.5939  -12.8062   17.9586 C   0  0  0  0  0  0  0  0  0  0  0  0
    7.1877  -13.3444   18.1124 C   0  0  0  0  0  0  0  0  0  0  0  0
    7.1094  -13.8611   19.5368 C   0  0  0  0  0  0  0  0  0  0  0  0
    8.5266  -13.7927   20.0542 C   0  0  1  0  0  0  0  0  0  0  0  0
    8.9556  -15.0596   20.6972 C   0  0  0  0  0  0  0  0  0  0  0  0
    8.2756  -15.5956   21.6081 O   0  0  0  0  0  0  0  0  0  0  0  0
   10.1469  -15.7420   20.3308 N   0  0  0  0  0  0  0  0  0  0  0  0
   10.6010  -16.9664   20.9685 C   0  0  1  0  0  0  0  0  0  0  0  0
   11.7101  -17.4984   20.0905 C   0  0  0  0  0  0  0  0  0  0  0  0
   12.2834  -18.7662   20.5447 C   0  0  0  0  0  0  0  0  0  0  0  0
   11.5358  -19.6204   21.0725 O   0  0  0  0  0  0  0  0  0  0  0  0
   11.1308  -16.6309   22.3157 C   0  0  0  0  0  0  0  0  0  0  0  0
   11.8780  -15.6520   22.4928 O   0  0  0  0  0  0  0  0  0  0  0  0
   13.6244  -19.0406   20.4058 O   0  0  0  0  0  0  0  0  0  0  0  0
   10.4433  -15.9510   26.7887 O   0  0  0  0  0  0  0  0  0  0  0  0
   10.0285  -16.4389   25.5319 C   0  0  0  0  0  0  0  0  0  0  0  0
   11.2351  -16.9871   24.7753 C   0  0  2  0  0  0  0  0  0  0  0  0
   10.7997  -17.4259   23.4707 N   0  0  0  0  0  0  0  0  0  0  0  0
   11.7593  -18.1086   25.5944 C   0  0  0  0  0  0  0  0  0  0  0  0
   11.6065  -19.2753   25.1594 O   0  0  0  0  0  0  0  0  0  0  0  0
   12.4006  -17.9217   26.8001 O   0  0  0  0  0  0  0  0  0  0  0  0
  2  1  1  0
  3  4  1  0
  3  2  1  0
  4  5  1  0
  5  6  1  6
  5  1  1  0
  6  7  2  0
  8  9  1  0
  8  6  1  0
  9 13  1  0
 10 11  1  0
  9 10  1  6
 11 12  2  0
 13 19  1  0
 13 14  2  0
 15 11  1  0
 16 17  1  0
 18 20  1  0
 18 17  1  1
 19 18  1  0
 20 22  1  0
 21 20  2  0
M  END
$$$$
