PDS.pdb
     RDKit          3D

 22 22  0  0  1  0  0  0  0  0999 V2000
    9.3014  -14.1138   18.2417 N   0  0  0  0  0  0  0  0  0  0  0  0
    8.6315  -13.3670   17.1936 C   0  0  0  0  0  0  0  0  0  0  0  0
    7.1978  -13.2782   17.6704 C   0  0  0  0  0  0  0  0  0  0  0  0
    7.2743  -13.3350   19.1846 C   0  0  0  0  0  0  0  0  0  0  0  0
    8.7150  -13.6700   19.4894 C   0  0  1  0  0  0  0  0  0  0  0  0
    8.8432  -14.7889   20.4558 C   0  0  0  0  0  0  0  0  0  0  0  0
    8.2105  -14.7932   21.5416 O   0  0  0  0  0  0  0  0  0  0  0  0
    9.6778  -15.9148   20.2212 N   0  0  0  0  0  0  0  0  0  0  0  0
    9.7922  -17.0363   21.1384 C   0  0  1  0  0  0  0  0  0  0  0  0
   10.4977  -18.1268   20.3659 C   0  0  0  0  0  0  0  0  0  0  0  0
   11.9120  -17.8592   20.0999 C   0  0  0  0  0  0  0  0  0  0  0  0
   12.2312  -16.8172   19.4840 O   0  0  0  0  0  0  0  0  0  0  0  0
   10.6176  -16.6160   22.3004 C   0  0  0  0  0  0  0  0  0  0  0  0
   11.4695  -15.7150   22.1981 O   0  0  0  0  0  0  0  0  0  0  0  0
   12.8982  -18.7264   20.5101 O   0  0  0  0  0  0  0  0  0  0  0  0
    9.2259  -16.3987   25.8739 O   0  0  0  0  0  0  0  0  0  0  0  0
   10.4591  -15.8044   25.5339 C   0  0  0  0  0  0  0  0  0  0  0  0
   11.2788  -16.7787   24.6928 C   0  0  2  0  0  0  0  0  0  0  0  0
   10.4637  -17.2352   23.5922 N   0  0  0  0  0  0  0  0  0  0  0  0
   11.6589  -17.8885   25.6026 C   0  0  0  0  0  0  0  0  0  0  0  0
   11.1617  -19.0201   25.3885 O   0  0  0  0  0  0  0  0  0  0  0  0
   12.5270  -17.7273   26.6610 O   0  0  0  0  0  0  0  0  0  0  0  0
  2  1  1  0
  3  4  1  0
  3  2  1  0
  4  5  1  0
  5  6  1  1
  5  1  1  0
  6  7  2  0
  8  9  1  0
  8  6  1  0
  9 13  1  0
 10 11  1  0
  9 10  1  6
 11 12  2  0
 13 19  1  0
 13 14  2  0
 15 11  1  0
 16 17  1  0
 18 20  1  0
 18 17  1  1
 19 18  1  0
 20 22  1  0
 21 20  2  0
M  END
$$$$
