PDS.pdb
     RDKit          3D

 22 22  0  0  1  0  0  0  0  0999 V2000
    9.1369  -14.3463   17.9580 N   0  0  0  0  0  0  0  0  0  0  0  0
    8.4835  -13.6668   16.8552 C   0  0  0  0  0  0  0  0  0  0  0  0
    7.0987  -13.3630   17.3850 C   0  0  0  0  0  0  0  0  0  0  0  0
    7.2624  -13.2393   18.8882 C   0  0  0  0  0  0  0  0  0  0  0  0
    8.6773  -13.6895   19.1642 C   0  0  1  0  0  0  0  0  0  0  0  0
    8.7497  -14.6869   20.2607 C   0  0  0  0  0  0  0  0  0  0  0  0
    8.2129  -14.4744   21.3769 O   0  0  0  0  0  0  0  0  0  0  0  0
    9.4210  -15.9319   20.1236 N   0  0  0  0  0  0  0  0  0  0  0  0
    9.4887  -16.9295   21.1782 C   0  0  1  0  0  0  0  0  0  0  0  0
   10.3301  -18.0556   20.6231 C   0  0  0  0  0  0  0  0  0  0  0  0
   10.3930  -19.2405   21.4801 C   0  0  0  0  0  0  0  0  0  0  0  0
   11.3296  -19.3497   22.3036 O   0  0  0  0  0  0  0  0  0  0  0  0
   10.1572  -16.3255   22.3598 C   0  0  0  0  0  0  0  0  0  0  0  0
   11.2337  -15.7112   22.2518 O   0  0  0  0  0  0  0  0  0  0  0  0
    9.4478  -20.2371   21.4011 O   0  0  0  0  0  0  0  0  0  0  0  0
    8.0689  -15.2997   25.5613 O   0  0  0  0  0  0  0  0  0  0  0  0
    9.3721  -14.7775   25.4250 C   0  0  0  0  0  0  0  0  0  0  0  0
   10.2789  -15.8306   24.7946 C   0  0  2  0  0  0  0  0  0  0  0  0
    9.5847  -16.4270   23.6781 N   0  0  0  0  0  0  0  0  0  0  0  0
   10.5669  -16.8189   25.8641 C   0  0  0  0  0  0  0  0  0  0  0  0
   10.1529  -17.9926   25.7065 O   0  0  0  0  0  0  0  0  0  0  0  0
   11.2636  -16.5025   27.0106 O   0  0  0  0  0  0  0  0  0  0  0  0
  2  1  1  0
  3  4  1  0
  3  2  1  0
  4  5  1  0
  5  6  1  1
  5  1  1  0
  6  7  2  0
  8  9  1  0
  8  6  1  0
  9 13  1  0
 10 11  1  0
  9 10  1  6
 11 12  2  0
 13 19  1  0
 13 14  2  0
 15 11  1  0
 16 17  1  0
 18 20  1  0
 18 17  1  1
 19 18  1  0
 20 22  1  0
 21 20  2  0
M  END
$$$$
