PDS.pdb
     RDKit          3D

 22 22  0  0  1  0  0  0  0  0999 V2000
    8.1258  -13.8747   19.7531 N   0  0  0  0  0  0  0  0  0  0  0  0
    7.2998  -12.7204   19.4525 C   0  0  0  0  0  0  0  0  0  0  0  0
    7.9254  -12.1418   18.2017 C   0  0  0  0  0  0  0  0  0  0  0  0
    8.5730  -13.3183   17.4958 C   0  0  0  0  0  0  0  0  0  0  0  0
    8.4751  -14.4627   18.4765 C   0  0  1  0  0  0  0  0  0  0  0  0
    9.7700  -15.1647   18.6573 C   0  0  0  0  0  0  0  0  0  0  0  0
   10.0229  -16.2391   18.0563 O   0  0  0  0  0  0  0  0  0  0  0  0
   10.7963  -14.6758   19.5099 N   0  0  0  0  0  0  0  0  0  0  0  0
   12.0593  -15.3622   19.7237 C   0  0  1  0  0  0  0  0  0  0  0  0
   13.1262  -14.4297   19.1981 C   0  0  0  0  0  0  0  0  0  0  0  0
   14.4901  -14.9490   19.3109 C   0  0  0  0  0  0  0  0  0  0  0  0
   15.4559  -14.1707   19.1420 O   0  0  0  0  0  0  0  0  0  0  0  0
   12.2408  -15.5773   21.1827 C   0  0  0  0  0  0  0  0  0  0  0  0
   12.7893  -14.7218   21.9006 O   0  0  0  0  0  0  0  0  0  0  0  0
   14.7352  -16.2722   19.5972 O   0  0  0  0  0  0  0  0  0  0  0  0
    9.6016  -16.9695   23.2030 O   0  0  0  0  0  0  0  0  0  0  0  0
   10.7238  -17.5124   23.8629 C   0  0  0  0  0  0  0  0  0  0  0  0
   12.0000  -16.9505   23.2428 C   0  0  2  0  0  0  0  0  0  0  0  0
   11.7882  -16.7854   21.8243 N   0  0  0  0  0  0  0  0  0  0  0  0
   13.0689  -17.9381   23.5354 C   0  0  0  0  0  0  0  0  0  0  0  0
   13.6358  -18.4952   22.5649 O   0  0  0  0  0  0  0  0  0  0  0  0
   13.4596  -18.2636   24.8166 O   0  0  0  0  0  0  0  0  0  0  0  0
  2  1  1  0
  3  4  1  0
  3  2  1  0
  4  5  1  0
  5  6  1  1
  5  1  1  0
  6  7  2  0
  8  9  1  0
  8  6  1  0
  9 13  1  0
 10 11  1  0
  9 10  1  1
 11 12  2  0
 13 19  1  0
 13 14  2  0
 15 11  1  0
 16 17  1  0
 18 20  1  0
 18 17  1  1
 19 18  1  0
 20 22  1  0
 21 20  2  0
M  END
$$$$
