PDS.pdb
     RDKit          3D

 22 22  0  0  1  0  0  0  0  0999 V2000
    9.4250  -13.9732   18.4337 N   0  0  0  0  0  0  0  0  0  0  0  0
    8.5050  -13.2980   17.5379 C   0  0  0  0  0  0  0  0  0  0  0  0
    7.1430  -13.5839   18.1327 C   0  0  0  0  0  0  0  0  0  0  0  0
    7.3855  -13.7712   19.6186 C   0  0  0  0  0  0  0  0  0  0  0  0
    8.8881  -13.7993   19.7675 C   0  0  1  0  0  0  0  0  0  0  0  0
    9.3544  -14.9498   20.5807 C   0  0  0  0  0  0  0  0  0  0  0  0
    8.7318  -15.3226   21.6067 O   0  0  0  0  0  0  0  0  0  0  0  0
   10.5194  -15.6967   20.2579 N   0  0  0  0  0  0  0  0  0  0  0  0
   10.9789  -16.8420   21.0255 C   0  0  1  0  0  0  0  0  0  0  0  0
   12.2149  -17.3422   20.3143 C   0  0  0  0  0  0  0  0  0  0  0  0
   11.9514  -17.9816   19.0242 C   0  0  0  0  0  0  0  0  0  0  0  0
   10.9978  -18.7865   18.9249 O   0  0  0  0  0  0  0  0  0  0  0  0
   11.3264  -16.3853   22.3961 C   0  0  0  0  0  0  0  0  0  0  0  0
   12.1048  -15.4331   22.5840 O   0  0  0  0  0  0  0  0  0  0  0  0
   12.7276  -17.7193   17.9190 O   0  0  0  0  0  0  0  0  0  0  0  0
    8.8940  -16.6907   25.4236 O   0  0  0  0  0  0  0  0  0  0  0  0
   10.0705  -15.9310   25.5920 C   0  0  0  0  0  0  0  0  0  0  0  0
   11.2270  -16.6173   24.8708 C   0  0  2  0  0  0  0  0  0  0  0  0
   10.7751  -17.0271   23.5623 N   0  0  0  0  0  0  0  0  0  0  0  0
   11.6096  -17.7758   25.7164 C   0  0  0  0  0  0  0  0  0  0  0  0
   11.3927  -18.9273   25.2683 O   0  0  0  0  0  0  0  0  0  0  0  0
   12.1877  -17.6387   26.9601 O   0  0  0  0  0  0  0  0  0  0  0  0
  2  1  1  0
  3  4  1  0
  3  2  1  0
  4  5  1  0
  5  6  1  1
  5  1  1  0
  6  7  2  0
  8  9  1  0
  8  6  1  0
  9 13  1  0
 10 11  1  0
  9 10  1  6
 11 12  2  0
 13 19  1  0
 13 14  2  0
 15 11  1  0
 16 17  1  0
 18 20  1  0
 18 17  1  1
 19 18  1  0
 20 22  1  0
 21 20  2  0
M  END
$$$$
