PDS.pdb
     RDKit          3D

 22 22  0  0  1  0  0  0  0  0999 V2000
    8.0419  -14.6780   18.7667 N   0  0  0  0  0  0  0  0  0  0  0  0
    7.5247  -13.4473   18.1986 C   0  0  0  0  0  0  0  0  0  0  0  0
    7.4826  -12.4943   19.3736 C   0  0  0  0  0  0  0  0  0  0  0  0
    8.5765  -12.9667   20.3128 C   0  0  0  0  0  0  0  0  0  0  0  0
    9.0412  -14.2838   19.7381 C   0  0  1  0  0  0  0  0  0  0  0  0
    9.1042  -15.3565   20.7616 C   0  0  0  0  0  0  0  0  0  0  0  0
    8.0634  -15.9142   21.1918 O   0  0  0  0  0  0  0  0  0  0  0  0
   10.3284  -15.8189   21.3155 N   0  0  0  0  0  0  0  0  0  0  0  0
   10.4220  -16.9378   22.2381 C   0  0  1  0  0  0  0  0  0  0  0  0
   11.8209  -17.4862   22.0761 C   0  0  0  0  0  0  0  0  0  0  0  0
   12.0454  -18.2050   20.8210 C   0  0  0  0  0  0  0  0  0  0  0  0
   12.8855  -17.7622   20.0053 O   0  0  0  0  0  0  0  0  0  0  0  0
   10.2283  -16.4294   23.6208 C   0  0  0  0  0  0  0  0  0  0  0  0
   10.8865  -15.4673   24.0557 O   0  0  0  0  0  0  0  0  0  0  0  0
   11.3545  -19.3552   20.5166 O   0  0  0  0  0  0  0  0  0  0  0  0
    6.9534  -16.1990   24.9758 O   0  0  0  0  0  0  0  0  0  0  0  0
    7.6799  -16.3143   26.1793 C   0  0  0  0  0  0  0  0  0  0  0  0
    9.1568  -16.5324   25.8634 C   0  0  2  0  0  0  0  0  0  0  0  0
    9.2699  -17.0305   24.5131 N   0  0  0  0  0  0  0  0  0  0  0  0
    9.6507  -17.5131   26.8623 C   0  0  0  0  0  0  0  0  0  0  0  0
   10.0936  -18.6085   26.4410 O   0  0  0  0  0  0  0  0  0  0  0  0
    9.6428  -17.2709   28.2193 O   0  0  0  0  0  0  0  0  0  0  0  0
  2  1  1  0
  3  4  1  0
  3  2  1  0
  4  5  1  0
  5  6  1  1
  5  1  1  0
  6  7  2  0
  8  9  1  0
  8  6  1  0
  9 13  1  0
 10 11  1  0
  9 10  1  1
 11 12  2  0
 13 19  1  0
 13 14  2  0
 15 11  1  0
 16 17  1  0
 18 20  1  0
 18 17  1  1
 19 18  1  0
 20 22  1  0
 21 20  2  0
M  END
$$$$
