PDS.pdb
     RDKit          3D

 22 22  0  0  1  0  0  0  0  0999 V2000
    9.3474  -14.0251   18.4756 N   0  0  0  0  0  0  0  0  0  0  0  0
    8.5159  -13.4009   17.4637 C   0  0  0  0  0  0  0  0  0  0  0  0
    7.1067  -13.5969   17.9798 C   0  0  0  0  0  0  0  0  0  0  0  0
    7.2385  -13.6663   19.4897 C   0  0  0  0  0  0  0  0  0  0  0  0
    8.7253  -13.7251   19.7485 C   0  0  1  0  0  0  0  0  0  0  0  0
    9.0937  -14.8166   20.6840 C   0  0  0  0  0  0  0  0  0  0  0  0
    8.4415  -15.0250   21.7379 O   0  0  0  0  0  0  0  0  0  0  0  0
   10.1928  -15.6873   20.4538 N   0  0  0  0  0  0  0  0  0  0  0  0
   10.4978  -16.8361   21.2900 C   0  0  1  0  0  0  0  0  0  0  0  0
   11.6855  -17.5100   20.6427 C   0  0  0  0  0  0  0  0  0  0  0  0
   11.3362  -18.4841   19.6075 C   0  0  0  0  0  0  0  0  0  0  0  0
   10.1378  -18.8142   19.4588 O   0  0  0  0  0  0  0  0  0  0  0  0
   10.8608  -16.3516   22.6470 C   0  0  0  0  0  0  0  0  0  0  0  0
   11.7535  -15.5012   22.8141 O   0  0  0  0  0  0  0  0  0  0  0  0
   12.2939  -19.0458   18.7951 O   0  0  0  0  0  0  0  0  0  0  0  0
    8.2928  -16.6495   25.6461 O   0  0  0  0  0  0  0  0  0  0  0  0
    9.4080  -15.8116   25.8554 C   0  0  0  0  0  0  0  0  0  0  0  0
   10.6184  -16.3828   25.1224 C   0  0  2  0  0  0  0  0  0  0  0  0
   10.1929  -16.8473   23.8235 N   0  0  0  0  0  0  0  0  0  0  0  0
   11.1282  -17.4894   25.9705 C   0  0  0  0  0  0  0  0  0  0  0  0
   11.0476  -18.6583   25.5221 O   0  0  0  0  0  0  0  0  0  0  0  0
   11.6808  -17.2865   27.2169 O   0  0  0  0  0  0  0  0  0  0  0  0
  2  1  1  0
  3  4  1  0
  3  2  1  0
  4  5  1  0
  5  6  1  1
  5  1  1  0
  6  7  2  0
  8  9  1  0
  8  6  1  0
  9 13  1  0
 10 11  1  0
  9 10  1  6
 11 12  2  0
 13 19  1  0
 13 14  2  0
 15 11  1  0
 16 17  1  0
 18 20  1  0
 18 17  1  1
 19 18  1  0
 20 22  1  0
 21 20  2  0
M  END
$$$$
