PDS.pdb
     RDKit          3D

 22 22  0  0  1  0  0  0  0  0999 V2000
    9.5174  -13.7370   19.2440 N   0  0  0  0  0  0  0  0  0  0  0  0
    8.8503  -12.8845   18.2780 C   0  0  0  0  0  0  0  0  0  0  0  0
    7.3802  -13.1730   18.4929 C   0  0  0  0  0  0  0  0  0  0  0  0
    7.2615  -13.5899   19.9469 C   0  0  0  0  0  0  0  0  0  0  0  0
    8.6858  -13.7286   20.4297 C   0  0  1  0  0  0  0  0  0  0  0  0
    8.9203  -15.0114   21.1381 C   0  0  0  0  0  0  0  0  0  0  0  0
    8.1406  -15.4163   22.0366 O   0  0  0  0  0  0  0  0  0  0  0  0
   10.0264  -15.8562   20.8514 N   0  0  0  0  0  0  0  0  0  0  0  0
   10.3233  -17.0715   21.5910 C   0  0  1  0  0  0  0  0  0  0  0  0
   11.3669  -17.8013   20.7774 C   0  0  0  0  0  0  0  0  0  0  0  0
   11.5668  -19.1982   21.1663 C   0  0  0  0  0  0  0  0  0  0  0  0
   10.5677  -19.9265   21.3628 O   0  0  0  0  0  0  0  0  0  0  0  0
   10.8786  -16.6956   22.9170 C   0  0  0  0  0  0  0  0  0  0  0  0
   11.6680  -15.7422   23.0424 O   0  0  0  0  0  0  0  0  0  0  0  0
   12.8265  -19.7290   21.3217 O   0  0  0  0  0  0  0  0  0  0  0  0
   10.7083  -15.9169   27.4302 O   0  0  0  0  0  0  0  0  0  0  0  0
   10.1131  -16.3168   26.2155 C   0  0  0  0  0  0  0  0  0  0  0  0
   11.1411  -17.0563   25.3642 C   0  0  2  0  0  0  0  0  0  0  0  0
   10.5243  -17.4205   24.1108 N   0  0  0  0  0  0  0  0  0  0  0  0
   11.5475  -18.2470   26.1520 C   0  0  0  0  0  0  0  0  0  0  0  0
   11.1213  -19.3681   25.7844 O   0  0  0  0  0  0  0  0  0  0  0  0
   12.3658  -18.1712   27.2586 O   0  0  0  0  0  0  0  0  0  0  0  0
  2  1  1  0
  3  4  1  0
  3  2  1  0
  4  5  1  0
  5  6  1  6
  5  1  1  0
  6  7  2  0
  8  9  1  0
  8  6  1  0
  9 13  1  0
 10 11  1  0
  9 10  1  6
 11 12  2  0
 13 19  1  0
 13 14  2  0
 15 11  1  0
 16 17  1  0
 18 20  1  0
 18 17  1  1
 19 18  1  0
 20 22  1  0
 21 20  2  0
M  END
$$$$
