PDS.pdb
     RDKit          3D

 22 22  0  0  1  0  0  0  0  0999 V2000
    9.3093  -14.0875   17.7037 N   0  0  0  0  0  0  0  0  0  0  0  0
    8.7093  -13.4796   16.5310 C   0  0  0  0  0  0  0  0  0  0  0  0
    7.2217  -13.5765   16.7924 C   0  0  0  0  0  0  0  0  0  0  0  0
    7.0784  -13.5689   18.3028 C   0  0  0  0  0  0  0  0  0  0  0  0
    8.4893  -13.6872   18.8284 C   0  0  1  0  0  0  0  0  0  0  0  0
    8.6206  -14.7424   19.8636 C   0  0  0  0  0  0  0  0  0  0  0  0
    7.8388  -14.7979   20.8460 O   0  0  0  0  0  0  0  0  0  0  0  0
    9.6245  -15.7468   19.8137 N   0  0  0  0  0  0  0  0  0  0  0  0
    9.8173  -16.7437   20.8535 C   0  0  1  0  0  0  0  0  0  0  0  0
   10.9749  -17.5984   20.3917 C   0  0  0  0  0  0  0  0  0  0  0  0
   11.3418  -18.6694   21.3195 C   0  0  0  0  0  0  0  0  0  0  0  0
   10.4440  -19.2396   21.9799 O   0  0  0  0  0  0  0  0  0  0  0  0
   10.1678  -16.0474   22.1185 C   0  0  0  0  0  0  0  0  0  0  0  0
   11.1603  -15.3010   22.1939 O   0  0  0  0  0  0  0  0  0  0  0  0
   12.6498  -19.0631   21.4834 O   0  0  0  0  0  0  0  0  0  0  0  0
    7.3860  -15.4550   24.9226 O   0  0  0  0  0  0  0  0  0  0  0  0
    8.5569  -14.6705   24.9780 C   0  0  0  0  0  0  0  0  0  0  0  0
    9.7483  -15.5005   24.5086 C   0  0  2  0  0  0  0  0  0  0  0  0
    9.3715  -16.2087   23.3084 N   0  0  0  0  0  0  0  0  0  0  0  0
   10.0699  -16.4259   25.6240 C   0  0  0  0  0  0  0  0  0  0  0  0
    9.9378  -17.6570   25.4226 O   0  0  0  0  0  0  0  0  0  0  0  0
   10.5036  -15.9915   26.8582 O   0  0  0  0  0  0  0  0  0  0  0  0
  2  1  1  0
  3  4  1  0
  3  2  1  0
  4  5  1  0
  5  6  1  1
  5  1  1  0
  6  7  2  0
  8  9  1  0
  8  6  1  0
  9 13  1  0
 10 11  1  0
  9 10  1  6
 11 12  2  0
 13 19  1  0
 13 14  2  0
 15 11  1  0
 16 17  1  0
 18 20  1  0
 18 17  1  1
 19 18  1  0
 20 22  1  0
 21 20  2  0
M  END
$$$$
