PDS.pdb
     RDKit          3D

 22 22  0  0  1  0  0  0  0  0999 V2000
    9.3414  -13.9558   18.4234 N   0  0  0  0  0  0  0  0  0  0  0  0
    8.7005  -13.1008   17.4422 C   0  0  0  0  0  0  0  0  0  0  0  0
    7.2395  -13.1272   17.8363 C   0  0  0  0  0  0  0  0  0  0  0  0
    7.2320  -13.3819   19.3320 C   0  0  0  0  0  0  0  0  0  0  0  0
    8.6662  -13.7029   19.6795 C   0  0  1  0  0  0  0  0  0  0  0  0
    8.7877  -14.9350   20.4978 C   0  0  0  0  0  0  0  0  0  0  0  0
    8.1118  -15.0959   21.5450 O   0  0  0  0  0  0  0  0  0  0  0  0
    9.6636  -16.0006   20.1564 N   0  0  0  0  0  0  0  0  0  0  0  0
    9.9180  -17.1409   21.0207 C   0  0  1  0  0  0  0  0  0  0  0  0
   10.7859  -18.0798   20.2150 C   0  0  0  0  0  0  0  0  0  0  0  0
   11.1116  -19.3339   20.8959 C   0  0  0  0  0  0  0  0  0  0  0  0
   10.3469  -19.7594   21.7910 O   0  0  0  0  0  0  0  0  0  0  0  0
   10.6528  -16.6696   22.2232 C   0  0  0  0  0  0  0  0  0  0  0  0
   11.5515  -15.8132   22.1393 O   0  0  0  0  0  0  0  0  0  0  0  0
   12.2385  -20.0553   20.5756 O   0  0  0  0  0  0  0  0  0  0  0  0
   10.7315  -15.2071   26.5761 O   0  0  0  0  0  0  0  0  0  0  0  0
   10.0561  -15.8166   25.4982 C   0  0  0  0  0  0  0  0  0  0  0  0
   11.0447  -16.6419   24.6795 C   0  0  2  0  0  0  0  0  0  0  0  0
   10.3532  -17.1855   23.5347 N   0  0  0  0  0  0  0  0  0  0  0  0
   11.5426  -17.7061   25.5868 C   0  0  0  0  0  0  0  0  0  0  0  0
   11.1646  -18.8833   25.3748 O   0  0  0  0  0  0  0  0  0  0  0  0
   12.3946  -17.4555   26.6410 O   0  0  0  0  0  0  0  0  0  0  0  0
  2  1  1  0
  3  4  1  0
  3  2  1  0
  4  5  1  0
  5  6  1  1
  5  1  1  0
  6  7  2  0
  8  9  1  0
  8  6  1  0
  9 13  1  0
 10 11  1  0
  9 10  1  6
 11 12  2  0
 13 19  1  0
 13 14  2  0
 15 11  1  0
 16 17  1  0
 18 20  1  0
 18 17  1  1
 19 18  1  0
 20 22  1  0
 21 20  2  0
M  END
$$$$
