PDS.pdb
     RDKit          3D

 22 22  0  0  1  0  0  0  0  0999 V2000
    9.5066  -13.8532   18.7922 N   0  0  0  0  0  0  0  0  0  0  0  0
    8.7110  -13.1742   17.7868 C   0  0  0  0  0  0  0  0  0  0  0  0
    7.2939  -13.6121   18.0882 C   0  0  0  0  0  0  0  0  0  0  0  0
    7.2734  -13.9083   19.5761 C   0  0  0  0  0  0  0  0  0  0  0  0
    8.7189  -13.8362   20.0074 C   0  0  1  0  0  0  0  0  0  0  0  0
    9.1286  -15.0143   20.8114 C   0  0  0  0  0  0  0  0  0  0  0  0
    8.3748  -15.5024   21.6906 O   0  0  0  0  0  0  0  0  0  0  0  0
   10.3829  -15.6607   20.6430 N   0  0  0  0  0  0  0  0  0  0  0  0
   10.8236  -16.7846   21.4521 C   0  0  1  0  0  0  0  0  0  0  0  0
   12.1234  -17.2479   20.8359 C   0  0  0  0  0  0  0  0  0  0  0  0
   11.9820  -17.8446   19.5068 C   0  0  0  0  0  0  0  0  0  0  0  0
   10.9874  -18.5648   19.2633 O   0  0  0  0  0  0  0  0  0  0  0  0
   11.0565  -16.3070   22.8398 C   0  0  0  0  0  0  0  0  0  0  0  0
   11.2682  -15.1057   23.0848 O   0  0  0  0  0  0  0  0  0  0  0  0
   12.9167  -17.6332   18.5197 O   0  0  0  0  0  0  0  0  0  0  0  0
    8.7423  -16.6860   25.6955 O   0  0  0  0  0  0  0  0  0  0  0  0
    9.8609  -15.8403   25.5442 C   0  0  0  0  0  0  0  0  0  0  0  0
   11.1079  -16.6848   25.2979 C   0  0  2  0  0  0  0  0  0  0  0  0
   11.0460  -17.2166   23.9572 N   0  0  0  0  0  0  0  0  0  0  0  0
   11.0878  -17.7571   26.3242 C   0  0  0  0  0  0  0  0  0  0  0  0
   10.8808  -18.9335   25.9409 O   0  0  0  0  0  0  0  0  0  0  0  0
   11.2856  -17.5149   27.6667 O   0  0  0  0  0  0  0  0  0  0  0  0
  2  1  1  0
  3  4  1  0
  3  2  1  0
  4  5  1  0
  5  6  1  1
  5  1  1  0
  6  7  2  0
  8  9  1  0
  8  6  1  0
  9 13  1  0
 10 11  1  0
  9 10  1  6
 11 12  2  0
 13 19  1  0
 13 14  2  0
 15 11  1  0
 16 17  1  0
 18 20  1  0
 18 17  1  1
 19 18  1  0
 20 22  1  0
 21 20  2  0
M  END
$$$$
