PDS.pdb
     RDKit          3D

 22 22  0  0  1  0  0  0  0  0999 V2000
    9.1788  -13.6332   18.3142 N   0  0  0  0  0  0  0  0  0  0  0  0
    8.1113  -12.9705   17.5890 C   0  0  0  0  0  0  0  0  0  0  0  0
    6.8546  -13.6438   18.0969 C   0  0  0  0  0  0  0  0  0  0  0  0
    7.1870  -14.1052   19.5035 C   0  0  0  0  0  0  0  0  0  0  0  0
    8.6715  -13.8693   19.6500 C   0  0  1  0  0  0  0  0  0  0  0  0
    9.3827  -15.0568   20.1850 C   0  0  0  0  0  0  0  0  0  0  0  0
    8.9667  -15.6673   21.2017 O   0  0  0  0  0  0  0  0  0  0  0  0
   10.5648  -15.5762   19.5916 N   0  0  0  0  0  0  0  0  0  0  0  0
   11.2464  -16.7685   20.0668 C   0  0  1  0  0  0  0  0  0  0  0  0
   12.3612  -17.0240   19.0790 C   0  0  0  0  0  0  0  0  0  0  0  0
   11.9130  -17.5332   17.7820 C   0  0  0  0  0  0  0  0  0  0  0  0
   10.9601  -18.3440   17.7403 O   0  0  0  0  0  0  0  0  0  0  0  0
   11.8096  -16.4877   21.4129 C   0  0  0  0  0  0  0  0  0  0  0  0
   12.5885  -15.5366   21.6040 O   0  0  0  0  0  0  0  0  0  0  0  0
   12.5148  -17.1423   16.6082 O   0  0  0  0  0  0  0  0  0  0  0  0
    9.8693  -17.5222   24.6810 O   0  0  0  0  0  0  0  0  0  0  0  0
   10.9267  -16.5950   24.7892 C   0  0  0  0  0  0  0  0  0  0  0  0
   12.0511  -16.9917   23.8368 C   0  0  2  0  0  0  0  0  0  0  0  0
   11.4754  -17.3060   22.5508 N   0  0  0  0  0  0  0  0  0  0  0  0
   12.7157  -18.1678   24.4523 C   0  0  0  0  0  0  0  0  0  0  0  0
   12.6726  -19.2578   23.8329 O   0  0  0  0  0  0  0  0  0  0  0  0
   13.3714  -18.1107   25.6634 O   0  0  0  0  0  0  0  0  0  0  0  0
  2  1  1  0
  3  4  1  0
  3  2  1  0
  4  5  1  0
  5  6  1  6
  5  1  1  0
  6  7  2  0
  8  9  1  0
  8  6  1  0
  9 13  1  0
 10 11  1  0
  9 10  1  6
 11 12  2  0
 13 19  1  0
 13 14  2  0
 15 11  1  0
 16 17  1  0
 18 20  1  0
 18 17  1  1
 19 18  1  0
 20 22  1  0
 21 20  2  0
M  END
$$$$
