PDS.pdb
     RDKit          3D

 22 22  0  0  1  0  0  0  0  0999 V2000
    9.2771  -13.9399   18.3378 N   0  0  0  0  0  0  0  0  0  0  0  0
    8.4208  -13.3575   17.3218 C   0  0  0  0  0  0  0  0  0  0  0  0
    7.0208  -13.6784   17.7990 C   0  0  0  0  0  0  0  0  0  0  0  0
    7.1245  -13.7767   19.3095 C   0  0  0  0  0  0  0  0  0  0  0  0
    8.6051  -13.7238   19.6024 C   0  0  1  0  0  0  0  0  0  0  0  0
    9.0391  -14.8067   20.5196 C   0  0  0  0  0  0  0  0  0  0  0  0
    8.4238  -15.0461   21.5889 O   0  0  0  0  0  0  0  0  0  0  0  0
   10.1634  -15.6341   20.2537 N   0  0  0  0  0  0  0  0  0  0  0  0
   10.5423  -16.7667   21.0817 C   0  0  1  0  0  0  0  0  0  0  0  0
   11.7531  -17.3757   20.4131 C   0  0  0  0  0  0  0  0  0  0  0  0
   12.2613  -18.5818   21.0686 C   0  0  0  0  0  0  0  0  0  0  0  0
   11.5373  -19.1772   21.8983 O   0  0  0  0  0  0  0  0  0  0  0  0
   10.9017  -16.2661   22.4338 C   0  0  0  0  0  0  0  0  0  0  0  0
   11.7925  -15.4122   22.5931 O   0  0  0  0  0  0  0  0  0  0  0  0
   13.5159  -19.0756   20.7948 O   0  0  0  0  0  0  0  0  0  0  0  0
    8.3112  -16.1407   25.3817 O   0  0  0  0  0  0  0  0  0  0  0  0
    9.5318  -15.4475   25.5201 C   0  0  0  0  0  0  0  0  0  0  0  0
   10.6591  -16.2752   24.9094 C   0  0  2  0  0  0  0  0  0  0  0  0
   10.2323  -16.7496   23.6145 N   0  0  0  0  0  0  0  0  0  0  0  0
   10.9102  -17.3904   25.8565 C   0  0  0  0  0  0  0  0  0  0  0  0
   10.6881  -18.5595   25.4597 O   0  0  0  0  0  0  0  0  0  0  0  0
   11.3731  -17.1950   27.1401 O   0  0  0  0  0  0  0  0  0  0  0  0
  2  1  1  0
  3  4  1  0
  3  2  1  0
  4  5  1  0
  5  6  1  1
  5  1  1  0
  6  7  2  0
  8  9  1  0
  8  6  1  0
  9 13  1  0
 10 11  1  0
  9 10  1  6
 11 12  2  0
 13 19  1  0
 13 14  2  0
 15 11  1  0
 16 17  1  0
 18 20  1  0
 18 17  1  1
 19 18  1  0
 20 22  1  0
 21 20  2  0
M  END
$$$$
