PDS.pdb
     RDKit          3D

 22 22  0  0  1  0  0  0  0  0999 V2000
    9.4471  -13.7347   18.8223 N   0  0  0  0  0  0  0  0  0  0  0  0
    8.8339  -12.9744   17.7495 C   0  0  0  0  0  0  0  0  0  0  0  0
    7.3616  -13.3049   17.8655 C   0  0  0  0  0  0  0  0  0  0  0  0
    7.1373  -13.6291   19.3307 C   0  0  0  0  0  0  0  0  0  0  0  0
    8.5208  -13.6803   19.9343 C   0  0  1  0  0  0  0  0  0  0  0  0
    8.7387  -14.9034   20.7459 C   0  0  0  0  0  0  0  0  0  0  0  0
    7.8963  -15.2841   21.5972 O   0  0  0  0  0  0  0  0  0  0  0  0
    9.8980  -15.7149   20.6164 N   0  0  0  0  0  0  0  0  0  0  0  0
   10.2261  -16.7999   21.5258 C   0  0  1  0  0  0  0  0  0  0  0  0
   11.5330  -17.3715   21.0268 C   0  0  0  0  0  0  0  0  0  0  0  0
   11.9296  -18.6236   21.6728 C   0  0  0  0  0  0  0  0  0  0  0  0
   12.9864  -19.1892   21.3116 O   0  0  0  0  0  0  0  0  0  0  0  0
   10.4008  -16.2381   22.8903 C   0  0  0  0  0  0  0  0  0  0  0  0
   11.2647  -15.3755   23.1303 O   0  0  0  0  0  0  0  0  0  0  0  0
   11.1680  -19.1935   22.6667 O   0  0  0  0  0  0  0  0  0  0  0  0
    7.4285  -16.2711   25.5282 O   0  0  0  0  0  0  0  0  0  0  0  0
    8.5355  -15.4344   25.7811 C   0  0  0  0  0  0  0  0  0  0  0  0
    9.8121  -16.1214   25.3043 C   0  0  2  0  0  0  0  0  0  0  0  0
    9.5761  -16.6700   23.9900 N   0  0  0  0  0  0  0  0  0  0  0  0
   10.1087  -17.1777   26.3042 C   0  0  0  0  0  0  0  0  0  0  0  0
   10.0665  -18.3731   25.9260 O   0  0  0  0  0  0  0  0  0  0  0  0
   10.4257  -16.9010   27.6168 O   0  0  0  0  0  0  0  0  0  0  0  0
  2  1  1  0
  3  4  1  0
  3  2  1  0
  4  5  1  0
  5  6  1  1
  5  1  1  0
  6  7  2  0
  8  9  1  0
  8  6  1  0
  9 13  1  0
 10 11  1  0
  9 10  1  6
 11 12  2  0
 13 19  1  0
 13 14  2  0
 15 11  1  0
 16 17  1  0
 18 20  1  0
 18 17  1  1
 19 18  1  0
 20 22  1  0
 21 20  2  0
M  END
$$$$
