PDS.pdb
     RDKit          3D

 22 22  0  0  1  0  0  0  0  0999 V2000
    9.2657  -13.8300   18.1170 N   0  0  0  0  0  0  0  0  0  0  0  0
    8.5244  -13.0491   17.1445 C   0  0  0  0  0  0  0  0  0  0  0  0
    7.0759  -13.3388   17.4741 C   0  0  0  0  0  0  0  0  0  0  0  0
    7.0586  -13.6616   18.9565 C   0  0  0  0  0  0  0  0  0  0  0  0
    8.5132  -13.7536   19.3520 C   0  0  1  0  0  0  0  0  0  0  0  0
    8.8125  -14.9852   20.1240 C   0  0  0  0  0  0  0  0  0  0  0  0
    8.1096  -15.3298   21.1072 O   0  0  0  0  0  0  0  0  0  0  0  0
    9.8983  -15.8454   19.8074 N   0  0  0  0  0  0  0  0  0  0  0  0
   10.2800  -16.9903   20.6171 C   0  0  1  0  0  0  0  0  0  0  0  0
   11.2785  -17.7640   19.7874 C   0  0  0  0  0  0  0  0  0  0  0  0
   11.7675  -18.9898   20.4203 C   0  0  0  0  0  0  0  0  0  0  0  0
   11.0722  -19.5405   21.3037 O   0  0  0  0  0  0  0  0  0  0  0  0
   10.9228  -16.4966   21.8626 C   0  0  0  0  0  0  0  0  0  0  0  0
   11.7497  -15.5672   21.8407 O   0  0  0  0  0  0  0  0  0  0  0  0
   12.9735  -19.5503   20.0676 O   0  0  0  0  0  0  0  0  0  0  0  0
    8.9285  -16.1057   25.1807 O   0  0  0  0  0  0  0  0  0  0  0  0
   10.1336  -15.4468   24.8595 C   0  0  0  0  0  0  0  0  0  0  0  0
   11.1464  -16.4631   24.3398 C   0  0  2  0  0  0  0  0  0  0  0  0
   10.6134  -17.0746   23.1456 N   0  0  0  0  0  0  0  0  0  0  0  0
   11.3378  -17.4490   25.4330 C   0  0  0  0  0  0  0  0  0  0  0  0
   10.8921  -18.6091   25.2625 O   0  0  0  0  0  0  0  0  0  0  0  0
   11.9789  -17.1443   26.6146 O   0  0  0  0  0  0  0  0  0  0  0  0
  2  1  1  0
  3  4  1  0
  3  2  1  0
  4  5  1  0
  5  6  1  1
  5  1  1  0
  6  7  2  0
  8  9  1  0
  8  6  1  0
  9 13  1  0
 10 11  1  0
  9 10  1  6
 11 12  2  0
 13 19  1  0
 13 14  2  0
 15 11  1  0
 16 17  1  0
 18 20  1  0
 18 17  1  1
 19 18  1  0
 20 22  1  0
 21 20  2  0
M  END
$$$$
