PDS.pdb
     RDKit          3D

 22 22  0  0  1  0  0  0  0  0999 V2000
    9.3305  -13.5126   19.8893 N   0  0  0  0  0  0  0  0  0  0  0  0
    8.8164  -12.8556   18.7023 C   0  0  0  0  0  0  0  0  0  0  0  0
    7.5789  -13.6536   18.3526 C   0  0  0  0  0  0  0  0  0  0  0  0
    7.0827  -14.2219   19.6690 C   0  0  0  0  0  0  0  0  0  0  0  0
    8.1725  -13.9050   20.6654 C   0  0  1  0  0  0  0  0  0  0  0  0
    8.5649  -15.0887   21.4698 C   0  0  0  0  0  0  0  0  0  0  0  0
    7.7049  -15.8272   22.0123 O   0  0  0  0  0  0  0  0  0  0  0  0
    9.9204  -15.4616   21.6770 N   0  0  0  0  0  0  0  0  0  0  0  0
   10.3291  -16.5733   22.5190 C   0  0  1  0  0  0  0  0  0  0  0  0
   11.8362  -16.6283   22.4215 C   0  0  0  0  0  0  0  0  0  0  0  0
   12.3393  -17.3836   21.2730 C   0  0  0  0  0  0  0  0  0  0  0  0
   11.6049  -18.2461   20.7402 O   0  0  0  0  0  0  0  0  0  0  0  0
    9.9168  -16.2854   23.9172 C   0  0  0  0  0  0  0  0  0  0  0  0
   10.2227  -15.2168   24.4761 O   0  0  0  0  0  0  0  0  0  0  0  0
   13.6001  -17.1684   20.7662 O   0  0  0  0  0  0  0  0  0  0  0  0
    6.6773  -17.8717   25.6113 O   0  0  0  0  0  0  0  0  0  0  0  0
    7.3320  -16.7713   26.2030 C   0  0  0  0  0  0  0  0  0  0  0  0
    8.8419  -16.9417   26.0624 C   0  0  2  0  0  0  0  0  0  0  0  0
    9.1456  -17.2327   24.6813 N   0  0  0  0  0  0  0  0  0  0  0  0
    9.2152  -18.0612   26.9629 C   0  0  0  0  0  0  0  0  0  0  0  0
    9.6996  -19.0957   26.4445 O   0  0  0  0  0  0  0  0  0  0  0  0
    9.0531  -18.0100   28.3308 O   0  0  0  0  0  0  0  0  0  0  0  0
  2  1  1  0
  3  4  1  0
  3  2  1  0
  4  5  1  0
  5  6  1  6
  5  1  1  0
  6  7  2  0
  8  9  1  0
  8  6  1  0
  9 13  1  0
 10 11  1  0
  9 10  1  1
 11 12  2  0
 13 19  1  0
 13 14  2  0
 15 11  1  0
 16 17  1  0
 18 20  1  0
 18 17  1  6
 19 18  1  0
 20 22  1  0
 21 20  2  0
M  END
$$$$
