PDS.pdb
     RDKit          3D

 22 22  0  0  1  0  0  0  0  0999 V2000
    9.0611  -14.2807   18.0879 N   0  0  0  0  0  0  0  0  0  0  0  0
    8.2536  -13.5096   17.1615 C   0  0  0  0  0  0  0  0  0  0  0  0
    6.9784  -13.2380   17.9301 C   0  0  0  0  0  0  0  0  0  0  0  0
    7.3837  -13.2366   19.3921 C   0  0  0  0  0  0  0  0  0  0  0  0
    8.8149  -13.7191   19.3999 C   0  0  1  0  0  0  0  0  0  0  0  0
    9.0413  -14.8017   20.3893 C   0  0  0  0  0  0  0  0  0  0  0  0
    8.6244  -14.7077   21.5711 O   0  0  0  0  0  0  0  0  0  0  0  0
    9.7345  -16.0006   20.0709 N   0  0  0  0  0  0  0  0  0  0  0  0
    9.9016  -17.1044   21.0013 C   0  0  1  0  0  0  0  0  0  0  0  0
   10.6542  -18.1712   20.2401 C   0  0  0  0  0  0  0  0  0  0  0  0
    9.8609  -18.8564   19.2185 C   0  0  0  0  0  0  0  0  0  0  0  0
    8.6624  -19.1285   19.4565 O   0  0  0  0  0  0  0  0  0  0  0  0
   10.7096  -16.6330   22.1558 C   0  0  0  0  0  0  0  0  0  0  0  0
   11.7933  -16.0444   21.9911 O   0  0  0  0  0  0  0  0  0  0  0  0
   10.4018  -19.2088   18.0035 O   0  0  0  0  0  0  0  0  0  0  0  0
    8.9802  -16.0636   25.7204 O   0  0  0  0  0  0  0  0  0  0  0  0
   10.2209  -15.4388   25.4760 C   0  0  0  0  0  0  0  0  0  0  0  0
   11.0817  -16.3427   24.5981 C   0  0  2  0  0  0  0  0  0  0  0  0
   10.2696  -16.8384   23.5123 N   0  0  0  0  0  0  0  0  0  0  0  0
   11.5615  -17.4364   25.4797 C   0  0  0  0  0  0  0  0  0  0  0  0
   11.0942  -18.5862   25.2968 O   0  0  0  0  0  0  0  0  0  0  0  0
   12.4899  -17.2417   26.4798 O   0  0  0  0  0  0  0  0  0  0  0  0
  2  1  1  0
  3  4  1  0
  3  2  1  0
  4  5  1  0
  5  6  1  1
  5  1  1  0
  6  7  2  0
  8  9  1  0
  8  6  1  0
  9 13  1  0
 10 11  1  0
  9 10  1  6
 11 12  2  0
 13 19  1  0
 13 14  2  0
 15 11  1  0
 16 17  1  0
 18 20  1  0
 18 17  1  1
 19 18  1  0
 20 22  1  0
 21 20  2  0
M  END
$$$$
