HHH.pdb
     RDKit          3D

 31 33  0  0  1  0  0  0  0  0999 V2000
   18.5897  -13.3791  -17.8273 N   0  0  0  0  0  0  0  0  0  0  0  0
   18.7785  -12.6066  -16.6133 C   0  0  1  0  0  0  0  0  0  0  0  0
   19.9034  -13.2333  -15.8400 C   0  0  0  0  0  0  0  0  0  0  0  0
   19.4041  -14.5431  -15.3235 C   0  0  0  0  0  0  0  0  0  0  0  0
   19.9936  -15.7865  -15.5408 C   0  0  0  0  0  0  0  0  0  0  0  0
   19.2671  -16.7319  -14.9243 N   0  0  0  0  0  0  0  0  0  0  0  0
   18.2282  -16.1282  -14.3178 C   0  0  0  0  0  0  0  0  0  0  0  0
   18.3216  -14.7990  -14.5670 N   0  0  0  0  0  0  0  0  0  0  0  0
   19.0132  -11.2023  -16.9747 C   0  0  0  0  0  0  0  0  0  0  0  0
   19.8213  -10.8727  -17.8808 O   0  0  0  0  0  0  0  0  0  0  0  0
   18.3381  -10.1074  -16.3208 N   0  0  0  0  0  0  0  0  0  0  0  0
   18.6025   -8.7402  -16.6802 C   0  0  1  0  0  0  0  0  0  0  0  0
   17.3245   -8.0253  -16.9576 C   0  0  0  0  0  0  0  0  0  0  0  0
   16.6219   -8.3623  -18.1847 C   0  0  0  0  0  0  0  0  0  0  0  0
   17.0467   -8.9045  -19.3482 C   0  0  0  0  0  0  0  0  0  0  0  0
   15.9649   -9.0503  -20.1859 N   0  0  0  0  0  0  0  0  0  0  0  0
   14.9010   -8.5992  -19.5279 C   0  0  0  0  0  0  0  0  0  0  0  0
   15.2771   -8.1778  -18.3133 N   0  0  0  0  0  0  0  0  0  0  0  0
   19.4023   -7.9948  -15.6805 C   0  0  0  0  0  0  0  0  0  0  0  0
   19.0976   -8.1184  -14.4732 O   0  0  0  0  0  0  0  0  0  0  0  0
   20.4852   -7.1557  -16.0302 N   0  0  0  0  0  0  0  0  0  0  0  0
   21.1317   -6.3991  -14.9248 C   0  0  1  0  0  0  0  0  0  0  0  0
   22.4894   -6.9413  -14.6632 C   0  0  0  0  0  0  0  0  0  0  0  0
   23.3163   -7.1152  -15.8688 C   0  0  0  0  0  0  0  0  0  0  0  0
   23.2054   -8.2681  -16.6590 C   0  0  0  0  0  0  0  0  0  0  0  0
   24.0747   -8.1244  -17.6626 N   0  0  0  0  0  0  0  0  0  0  0  0
   24.7088   -6.9381  -17.5195 C   0  0  0  0  0  0  0  0  0  0  0  0
   24.2495   -6.3175  -16.4257 N   0  0  0  0  0  0  0  0  0  0  0  0
   21.2677   -4.9751  -15.3906 C   0  0  0  0  0  0  0  0  0  0  0  0
   20.8860   -4.6220  -16.6997 O   0  0  0  0  0  0  0  0  0  0  0  0
   21.7049   -4.0563  -14.6873 O   0  0  0  0  0  0  0  0  0  0  0  0
  2  1  1  6
  2  3  1  0
  3  4  1  0
  4  8  1  0
  5  4  2  0
  5  6  1  0
  6  7  1  0
  8  7  2  0
  9  2  1  0
 10  9  2  0
 11  9  1  0
 12 13  1  1
 12 11  1  0
 14 15  2  0
 14 13  1  0
 16 15  1  0
 17 18  2  0
 17 16  1  0
 18 14  1  0
 19 20  2  0
 19 12  1  0
 21 19  1  0
 22 21  1  0
 22 23  1  6
 24 23  1  0
 25 24  2  0
 26 25  1  0
 27 26  1  0
 27 28  2  0
 28 24  1  0
 29 30  1  0
 29 22  1  0
 31 29  2  0
M  END
$$$$
