HHH.pdb
     RDKit          3D

 31 33  0  0  1  0  0  0  0  0999 V2000
   19.3055  -14.5547  -19.7209 N   0  0  0  0  0  0  0  0  0  0  0  0
   19.2689  -13.1041  -19.7452 C   0  0  1  0  0  0  0  0  0  0  0  0
   17.8279  -12.6805  -19.7473 C   0  0  0  0  0  0  0  0  0  0  0  0
   17.2512  -13.0942  -21.0618 C   0  0  0  0  0  0  0  0  0  0  0  0
   17.4887  -12.4793  -22.2892 C   0  0  0  0  0  0  0  0  0  0  0  0
   16.8022  -13.1248  -23.2450 N   0  0  0  0  0  0  0  0  0  0  0  0
   16.1312  -14.1365  -22.6638 C   0  0  0  0  0  0  0  0  0  0  0  0
   16.4114  -14.1082  -21.3378 N   0  0  0  0  0  0  0  0  0  0  0  0
   20.0399  -12.5896  -18.6056 C   0  0  0  0  0  0  0  0  0  0  0  0
   19.8453  -12.9954  -17.4308 O   0  0  0  0  0  0  0  0  0  0  0  0
   21.0690  -11.5886  -18.7508 N   0  0  0  0  0  0  0  0  0  0  0  0
   21.8139  -11.1077  -17.6185 C   0  0  1  0  0  0  0  0  0  0  0  0
   23.2654  -11.3943  -17.7989 C   0  0  0  0  0  0  0  0  0  0  0  0
   24.1635  -11.0019  -16.7255 C   0  0  0  0  0  0  0  0  0  0  0  0
   23.9400  -10.3944  -15.5384 C   0  0  0  0  0  0  0  0  0  0  0  0
   25.1377  -10.2810  -14.8705 N   0  0  0  0  0  0  0  0  0  0  0  0
   26.0703  -10.8173  -15.6522 C   0  0  0  0  0  0  0  0  0  0  0  0
   25.5012  -11.2602  -16.7809 N   0  0  0  0  0  0  0  0  0  0  0  0
   21.6062   -9.6711  -17.3224 C   0  0  0  0  0  0  0  0  0  0  0  0
   21.7310   -8.8532  -18.2612 O   0  0  0  0  0  0  0  0  0  0  0  0
   21.2771   -9.1892  -16.0346 N   0  0  0  0  0  0  0  0  0  0  0  0
   20.9825   -7.7361  -15.9172 C   0  0  1  0  0  0  0  0  0  0  0  0
   19.6023   -7.5365  -15.4064 C   0  0  0  0  0  0  0  0  0  0  0  0
   18.5436   -7.8412  -16.3832 C   0  0  0  0  0  0  0  0  0  0  0  0
   18.4198   -7.1001  -17.5669 C   0  0  0  0  0  0  0  0  0  0  0  0
   17.3806   -7.6149  -18.2291 N   0  0  0  0  0  0  0  0  0  0  0  0
   16.8669   -8.6343  -17.5033 C   0  0  0  0  0  0  0  0  0  0  0  0
   17.5733   -8.7770  -16.3750 N   0  0  0  0  0  0  0  0  0  0  0  0
   21.9499   -7.1736  -14.9118 C   0  0  0  0  0  0  0  0  0  0  0  0
   21.9405   -5.7959  -14.6185 O   0  0  0  0  0  0  0  0  0  0  0  0
   22.7838   -7.8521  -14.3000 O   0  0  0  0  0  0  0  0  0  0  0  0
  2  1  1  1
  2  3  1  0
  3  4  1  0
  4  8  1  0
  5  4  2  0
  5  6  1  0
  6  7  1  0
  8  7  2  0
  9  2  1  0
 10  9  2  0
 11  9  1  0
 12 13  1  6
 12 11  1  0
 14 15  2  0
 14 13  1  0
 16 15  1  0
 17 18  2  0
 17 16  1  0
 18 14  1  0
 19 20  2  0
 19 12  1  0
 21 19  1  0
 22 21  1  0
 22 23  1  1
 24 23  1  0
 25 24  2  0
 26 25  1  0
 27 26  1  0
 27 28  2  0
 28 24  1  0
 29 30  1  0
 29 22  1  0
 31 29  2  0
M  END
$$$$
