HHH.pdb
     RDKit          3D

 31 33  0  0  1  0  0  0  0  0999 V2000
   22.8087  -13.0702  -18.1523 N   0  0  0  0  0  0  0  0  0  0  0  0
   21.5181  -12.5616  -17.7259 C   0  0  1  0  0  0  0  0  0  0  0  0
   20.8560  -13.6248  -16.8970 C   0  0  0  0  0  0  0  0  0  0  0  0
   20.5071  -14.7465  -17.8199 C   0  0  0  0  0  0  0  0  0  0  0  0
   19.5324  -14.7142  -18.8148 C   0  0  0  0  0  0  0  0  0  0  0  0
   19.5021  -15.9015  -19.4400 N   0  0  0  0  0  0  0  0  0  0  0  0
   20.4307  -16.6938  -18.8730 C   0  0  0  0  0  0  0  0  0  0  0  0
   21.0348  -15.9818  -17.8902 N   0  0  0  0  0  0  0  0  0  0  0  0
   21.7183  -11.2909  -17.0166 C   0  0  0  0  0  0  0  0  0  0  0  0
   22.5130  -11.1862  -16.0470 O   0  0  0  0  0  0  0  0  0  0  0  0
   21.0225  -10.0798  -17.3786 N   0  0  0  0  0  0  0  0  0  0  0  0
   21.1969   -8.8622  -16.6333 C   0  0  1  0  0  0  0  0  0  0  0  0
   21.3860   -7.7129  -17.5633 C   0  0  0  0  0  0  0  0  0  0  0  0
   22.6192   -7.6697  -18.3316 C   0  0  0  0  0  0  0  0  0  0  0  0
   23.7075   -8.4720  -18.3375 C   0  0  0  0  0  0  0  0  0  0  0  0
   24.5909   -8.0073  -19.2847 N   0  0  0  0  0  0  0  0  0  0  0  0
   24.0346   -6.9354  -19.8413 C   0  0  0  0  0  0  0  0  0  0  0  0
   22.8396   -6.7136  -19.2784 N   0  0  0  0  0  0  0  0  0  0  0  0
   20.1025   -8.5753  -15.6769 C   0  0  0  0  0  0  0  0  0  0  0  0
   19.0868   -9.3054  -15.7092 O   0  0  0  0  0  0  0  0  0  0  0  0
   20.1562   -7.5193  -14.7383 N   0  0  0  0  0  0  0  0  0  0  0  0
   19.0007   -7.3864  -13.8112 C   0  0  1  0  0  0  0  0  0  0  0  0
   18.9737   -8.5303  -12.8645 C   0  0  0  0  0  0  0  0  0  0  0  0
   17.8820   -8.4762  -11.8781 C   0  0  0  0  0  0  0  0  0  0  0  0
   17.9884   -7.6818  -10.7277 C   0  0  0  0  0  0  0  0  0  0  0  0
   16.8516   -7.8473  -10.0467 N   0  0  0  0  0  0  0  0  0  0  0  0
   16.0592   -8.7051  -10.7292 C   0  0  0  0  0  0  0  0  0  0  0  0
   16.6834   -9.0924  -11.8485 N   0  0  0  0  0  0  0  0  0  0  0  0
   19.2136   -6.1212  -13.0256 C   0  0  0  0  0  0  0  0  0  0  0  0
   18.1107   -5.4375  -12.4776 O   0  0  0  0  0  0  0  0  0  0  0  0
   20.3230   -5.6160  -12.8159 O   0  0  0  0  0  0  0  0  0  0  0  0
  2  1  1  1
  2  3  1  0
  3  4  1  0
  4  8  1  0
  5  4  2  0
  5  6  1  0
  6  7  1  0
  8  7  2  0
  9  2  1  0
 10  9  2  0
 11  9  1  0
 12 13  1  6
 12 11  1  0
 14 15  2  0
 14 13  1  0
 16 15  1  0
 17 18  2  0
 17 16  1  0
 18 14  1  0
 19 20  2  0
 19 12  1  0
 21 19  1  0
 22 21  1  0
 22 23  1  1
 24 23  1  0
 25 24  2  0
 26 25  1  0
 27 26  1  0
 27 28  2  0
 28 24  1  0
 29 30  1  0
 29 22  1  0
 31 29  2  0
M  END
$$$$
