HHH.pdb
     RDKit          3D

 31 33  0  0  1  0  0  0  0  0999 V2000
   21.2362  -12.5086  -16.0069 N   0  0  0  0  0  0  0  0  0  0  0  0
   20.6038  -11.2284  -16.2665 C   0  0  1  0  0  0  0  0  0  0  0  0
   19.2232  -11.2697  -15.6765 C   0  0  0  0  0  0  0  0  0  0  0  0
   18.4326  -12.2511  -16.4788 C   0  0  0  0  0  0  0  0  0  0  0  0
   18.2570  -12.2252  -17.8606 C   0  0  0  0  0  0  0  0  0  0  0  0
   17.4885  -13.2632  -18.2261 N   0  0  0  0  0  0  0  0  0  0  0  0
   17.1670  -13.9536  -17.1163 C   0  0  0  0  0  0  0  0  0  0  0  0
   17.7459  -13.3297  -16.0612 N   0  0  0  0  0  0  0  0  0  0  0  0
   21.4527  -10.1596  -15.7233 C   0  0  0  0  0  0  0  0  0  0  0  0
   21.6569  -10.0326  -14.4885 O   0  0  0  0  0  0  0  0  0  0  0  0
   22.1088   -9.1854  -16.5614 N   0  0  0  0  0  0  0  0  0  0  0  0
   22.8823   -8.1109  -15.9997 C   0  0  1  0  0  0  0  0  0  0  0  0
   24.3136   -8.2482  -16.3921 C   0  0  0  0  0  0  0  0  0  0  0  0
   25.0316   -9.4150  -15.9065 C   0  0  0  0  0  0  0  0  0  0  0  0
   24.6359  -10.4748  -15.1658 C   0  0  0  0  0  0  0  0  0  0  0  0
   25.7057  -11.3260  -15.0099 N   0  0  0  0  0  0  0  0  0  0  0  0
   26.7333  -10.7796  -15.6532 C   0  0  0  0  0  0  0  0  0  0  0  0
   26.3463   -9.6214  -16.2036 N   0  0  0  0  0  0  0  0  0  0  0  0
   22.3818   -6.7598  -16.3440 C   0  0  0  0  0  0  0  0  0  0  0  0
   22.0782   -6.5313  -17.5362 O   0  0  0  0  0  0  0  0  0  0  0  0
   22.2356   -5.7259  -15.3908 N   0  0  0  0  0  0  0  0  0  0  0  0
   21.6546   -4.4449  -15.8743 C   0  0  1  0  0  0  0  0  0  0  0  0
   20.5058   -4.0522  -15.0189 C   0  0  0  0  0  0  0  0  0  0  0  0
   19.2931   -4.8620  -15.2221 C   0  0  0  0  0  0  0  0  0  0  0  0
   19.0623   -5.5224  -16.4372 C   0  0  0  0  0  0  0  0  0  0  0  0
   17.8966   -6.1605  -16.3059 N   0  0  0  0  0  0  0  0  0  0  0  0
   17.4079   -5.9190  -15.0679 C   0  0  0  0  0  0  0  0  0  0  0  0
   18.2567   -5.1265  -14.4016 N   0  0  0  0  0  0  0  0  0  0  0  0
   22.7285   -3.3998  -15.7410 C   0  0  0  0  0  0  0  0  0  0  0  0
   22.5044   -2.0936  -16.2181 O   0  0  0  0  0  0  0  0  0  0  0  0
   23.8340   -3.6062  -15.2259 O   0  0  0  0  0  0  0  0  0  0  0  0
  2  1  1  1
  2  3  1  0
  3  4  1  0
  4  8  1  0
  5  4  2  0
  5  6  1  0
  6  7  1  0
  8  7  2  0
  9  2  1  0
 10  9  2  0
 11  9  1  0
 12 13  1  6
 12 11  1  0
 14 15  2  0
 14 13  1  0
 16 15  1  0
 17 18  2  0
 17 16  1  0
 18 14  1  0
 19 20  2  0
 19 12  1  0
 21 19  1  0
 22 21  1  0
 22 23  1  1
 24 23  1  0
 25 24  2  0
 26 25  1  0
 27 26  1  0
 27 28  2  0
 28 24  1  0
 29 30  1  0
 29 22  1  0
 31 29  2  0
M  END
$$$$
