HHH.pdb
     RDKit          3D

 31 33  0  0  1  0  0  0  0  0999 V2000
   19.5119  -12.0176  -16.3324 N   0  0  0  0  0  0  0  0  0  0  0  0
   18.3187  -11.5616  -15.6436 C   0  0  1  0  0  0  0  0  0  0  0  0
   17.5943  -12.7723  -15.1284 C   0  0  0  0  0  0  0  0  0  0  0  0
   16.8916  -13.3912  -16.2924 C   0  0  0  0  0  0  0  0  0  0  0  0
   16.0416  -12.7334  -17.1788 C   0  0  0  0  0  0  0  0  0  0  0  0
   15.5974  -13.6088  -18.0942 N   0  0  0  0  0  0  0  0  0  0  0  0
   16.1394  -14.8096  -17.8186 C   0  0  0  0  0  0  0  0  0  0  0  0
   16.9236  -14.6654  -16.7223 N   0  0  0  0  0  0  0  0  0  0  0  0
   18.7090  -10.6094  -14.5954 C   0  0  0  0  0  0  0  0  0  0  0  0
   19.3713  -10.9630  -13.5859 O   0  0  0  0  0  0  0  0  0  0  0  0
   18.3632   -9.2095  -14.6480 N   0  0  0  0  0  0  0  0  0  0  0  0
   18.7166   -8.3083  -13.5844 C   0  0  1  0  0  0  0  0  0  0  0  0
   19.3869   -7.0976  -14.1380 C   0  0  0  0  0  0  0  0  0  0  0  0
   20.7130   -7.2687  -14.7081 C   0  0  0  0  0  0  0  0  0  0  0  0
   21.5170   -8.3507  -14.8149 C   0  0  0  0  0  0  0  0  0  0  0  0
   22.6661   -7.9808  -15.4753 N   0  0  0  0  0  0  0  0  0  0  0  0
   22.5499   -6.6875  -15.7618 C   0  0  0  0  0  0  0  0  0  0  0  0
   21.3739   -6.2366  -15.3059 N   0  0  0  0  0  0  0  0  0  0  0  0
   17.5796   -7.9165  -12.7193 C   0  0  0  0  0  0  0  0  0  0  0  0
   16.4668   -7.7291  -13.2599 O   0  0  0  0  0  0  0  0  0  0  0  0
   17.6982   -7.7452  -11.3209 N   0  0  0  0  0  0  0  0  0  0  0  0
   16.4830   -7.2875  -10.5956 C   0  0  1  0  0  0  0  0  0  0  0  0
   16.6811   -7.4297   -9.1307 C   0  0  0  0  0  0  0  0  0  0  0  0
   15.5582   -6.9372   -8.3157 C   0  0  0  0  0  0  0  0  0  0  0  0
   14.3929   -7.7006   -8.1574 C   0  0  0  0  0  0  0  0  0  0  0  0
   13.5775   -6.9893   -7.3746 N   0  0  0  0  0  0  0  0  0  0  0  0
   14.1926   -5.8292   -7.0497 C   0  0  0  0  0  0  0  0  0  0  0  0
   15.4025   -5.7920   -7.6216 N   0  0  0  0  0  0  0  0  0  0  0  0
   16.3074   -5.8278  -10.9144 C   0  0  0  0  0  0  0  0  0  0  0  0
   15.0143   -5.2767  -11.0059 O   0  0  0  0  0  0  0  0  0  0  0  0
   17.2450   -5.0450  -11.1095 O   0  0  0  0  0  0  0  0  0  0  0  0
  2  1  1  1
  2  3  1  0
  3  4  1  0
  4  8  1  0
  5  4  2  0
  5  6  1  0
  6  7  1  0
  8  7  2  0
  9  2  1  0
 10  9  2  0
 11  9  1  0
 12 13  1  6
 12 11  1  0
 14 15  2  0
 14 13  1  0
 16 15  1  0
 17 18  2  0
 17 16  1  0
 18 14  1  0
 19 20  2  0
 19 12  1  0
 21 19  1  0
 22 21  1  0
 22 23  1  1
 24 23  1  0
 25 24  2  0
 26 25  1  0
 27 26  1  0
 27 28  2  0
 28 24  1  0
 29 30  1  0
 29 22  1  0
 31 29  2  0
M  END
$$$$
