HHH.pdb
     RDKit          3D

 31 33  0  0  1  0  0  0  0  0999 V2000
   25.6881  -16.8227  -17.6518 N   0  0  0  0  0  0  0  0  0  0  0  0
   25.7121  -16.2284  -16.3280 C   0  0  1  0  0  0  0  0  0  0  0  0
   26.7687  -15.1608  -16.3225 C   0  0  0  0  0  0  0  0  0  0  0  0
   28.0077  -15.7673  -16.8958 C   0  0  0  0  0  0  0  0  0  0  0  0
   28.6958  -16.8636  -16.3804 C   0  0  0  0  0  0  0  0  0  0  0  0
   29.7582  -17.1221  -17.1589 N   0  0  0  0  0  0  0  0  0  0  0  0
   29.7697  -16.2214  -18.1591 C   0  0  0  0  0  0  0  0  0  0  0  0
   28.7020  -15.4037  -17.9890 N   0  0  0  0  0  0  0  0  0  0  0  0
   24.3665  -15.7371  -16.0027 C   0  0  0  0  0  0  0  0  0  0  0  0
   24.1338  -15.0686  -14.9626 O   0  0  0  0  0  0  0  0  0  0  0  0
   23.2227  -15.9843  -16.8469 N   0  0  0  0  0  0  0  0  0  0  0  0
   21.9088  -15.5250  -16.4849 C   0  0  1  0  0  0  0  0  0  0  0  0
   21.2800  -14.8104  -17.6318 C   0  0  0  0  0  0  0  0  0  0  0  0
   21.8123  -13.5031  -17.9787 C   0  0  0  0  0  0  0  0  0  0  0  0
   22.7845  -12.7471  -17.4204 C   0  0  0  0  0  0  0  0  0  0  0  0
   22.9252  -11.5956  -18.1604 N   0  0  0  0  0  0  0  0  0  0  0  0
   22.0442  -11.6628  -19.1542 C   0  0  0  0  0  0  0  0  0  0  0  0
   21.3598  -12.8106  -19.0626 N   0  0  0  0  0  0  0  0  0  0  0  0
   21.0095  -16.5923  -15.9882 C   0  0  0  0  0  0  0  0  0  0  0  0
   21.4684  -17.7528  -15.8971 O   0  0  0  0  0  0  0  0  0  0  0  0
   19.6655  -16.3572  -15.6175 N   0  0  0  0  0  0  0  0  0  0  0  0
   18.9642  -17.4576  -14.9037 C   0  0  1  0  0  0  0  0  0  0  0  0
   19.5807  -17.6730  -13.5699 C   0  0  0  0  0  0  0  0  0  0  0  0
   20.5557  -18.7753  -13.5227 C   0  0  0  0  0  0  0  0  0  0  0  0
   20.9137  -19.4714  -14.6859 C   0  0  0  0  0  0  0  0  0  0  0  0
   21.8033  -20.3959  -14.3153 N   0  0  0  0  0  0  0  0  0  0  0  0
   22.0027  -20.2944  -12.9813 C   0  0  0  0  0  0  0  0  0  0  0  0
   21.2434  -19.3063  -12.4920 N   0  0  0  0  0  0  0  0  0  0  0  0
   17.5407  -17.0130  -14.7057 C   0  0  0  0  0  0  0  0  0  0  0  0
   17.2677  -15.7683  -14.1054 O   0  0  0  0  0  0  0  0  0  0  0  0
   16.5548  -17.6804  -15.0416 O   0  0  0  0  0  0  0  0  0  0  0  0
  2  1  1  6
  2  3  1  0
  3  4  1  0
  4  8  1  0
  5  4  2  0
  5  6  1  0
  6  7  1  0
  8  7  2  0
  9  2  1  0
 10  9  2  0
 11  9  1  0
 12 13  1  6
 12 11  1  0
 14 15  2  0
 14 13  1  0
 16 15  1  0
 17 18  2  0
 17 16  1  0
 18 14  1  0
 19 20  2  0
 19 12  1  0
 21 19  1  0
 22 21  1  0
 22 23  1  1
 24 23  1  0
 25 24  2  0
 26 25  1  0
 27 26  1  0
 27 28  2  0
 28 24  1  0
 29 30  1  0
 29 22  1  0
 31 29  2  0
M  END
$$$$
