HHH.pdb
     RDKit          3D

 31 33  0  0  1  0  0  0  0  0999 V2000
   20.9107  -14.4960  -16.5257 N   0  0  0  0  0  0  0  0  0  0  0  0
   20.8757  -13.2158  -17.2083 C   0  0  1  0  0  0  0  0  0  0  0  0
   19.4480  -12.9310  -17.5782 C   0  0  0  0  0  0  0  0  0  0  0  0
   19.0734  -13.8958  -18.6554 C   0  0  0  0  0  0  0  0  0  0  0  0
   18.7292  -15.2333  -18.4722 C   0  0  0  0  0  0  0  0  0  0  0  0
   18.4548  -15.7846  -19.6648 N   0  0  0  0  0  0  0  0  0  0  0  0
   18.6138  -14.8370  -20.6073 C   0  0  0  0  0  0  0  0  0  0  0  0
   18.9895  -13.6940  -19.9827 N   0  0  0  0  0  0  0  0  0  0  0  0
   21.4812  -12.1971  -16.3402 C   0  0  0  0  0  0  0  0  0  0  0  0
   21.1475  -12.0641  -15.1345 O   0  0  0  0  0  0  0  0  0  0  0  0
   22.4955  -11.2821  -16.8049 N   0  0  0  0  0  0  0  0  0  0  0  0
   23.0587  -10.2820  -15.9383 C   0  0  1  0  0  0  0  0  0  0  0  0
   24.5364  -10.2167  -16.1210 C   0  0  0  0  0  0  0  0  0  0  0  0
   25.3049  -11.4051  -15.7897 C   0  0  0  0  0  0  0  0  0  0  0  0
   24.9366  -12.6114  -15.3023 C   0  0  0  0  0  0  0  0  0  0  0  0
   26.0565  -13.4042  -15.1990 N   0  0  0  0  0  0  0  0  0  0  0  0
   27.0867  -12.6775  -15.6222 C   0  0  0  0  0  0  0  0  0  0  0  0
   26.6532  -11.4632  -15.9848 N   0  0  0  0  0  0  0  0  0  0  0  0
   22.4605   -8.9361  -16.0975 C   0  0  0  0  0  0  0  0  0  0  0  0
   22.1217   -8.5754  -17.2467 O   0  0  0  0  0  0  0  0  0  0  0  0
   22.2597   -8.0490  -15.0151 N   0  0  0  0  0  0  0  0  0  0  0  0
   21.6697   -6.7219  -15.3360 C   0  0  1  0  0  0  0  0  0  0  0  0
   20.1879   -6.7939  -15.2679 C   0  0  0  0  0  0  0  0  0  0  0  0
   19.5044   -5.5227  -15.5588 C   0  0  0  0  0  0  0  0  0  0  0  0
   20.2025   -4.4378  -16.1075 C   0  0  0  0  0  0  0  0  0  0  0  0
   19.3155   -3.4498  -16.2504 N   0  0  0  0  0  0  0  0  0  0  0  0
   18.1108   -3.8833  -15.8142 C   0  0  0  0  0  0  0  0  0  0  0  0
   18.2202   -5.1487  -15.3906 N   0  0  0  0  0  0  0  0  0  0  0  0
   22.1502   -5.7630  -14.2811 C   0  0  0  0  0  0  0  0  0  0  0  0
   22.4744   -4.4370  -14.6285 O   0  0  0  0  0  0  0  0  0  0  0  0
   22.2879   -6.0597  -13.0881 O   0  0  0  0  0  0  0  0  0  0  0  0
  2  1  1  1
  2  3  1  0
  3  4  1  0
  4  8  1  0
  5  4  2  0
  5  6  1  0
  6  7  1  0
  8  7  2  0
  9  2  1  0
 10  9  2  0
 11  9  1  0
 12 13  1  6
 12 11  1  0
 14 15  2  0
 14 13  1  0
 16 15  1  0
 17 18  2  0
 17 16  1  0
 18 14  1  0
 19 20  2  0
 19 12  1  0
 21 19  1  0
 22 21  1  0
 22 23  1  1
 24 23  1  0
 25 24  2  0
 26 25  1  0
 27 26  1  0
 27 28  2  0
 28 24  1  0
 29 30  1  0
 29 22  1  0
 31 29  2  0
M  END
$$$$
