HHH.pdb
     RDKit          3D

 31 33  0  0  1  0  0  0  0  0999 V2000
   22.9754  -16.1716  -17.9060 N   0  0  0  0  0  0  0  0  0  0  0  0
   22.1617  -16.5223  -16.7565 C   0  0  1  0  0  0  0  0  0  0  0  0
   20.7427  -16.1370  -17.0631 C   0  0  0  0  0  0  0  0  0  0  0  0
   20.5328  -14.7638  -16.5135 C   0  0  0  0  0  0  0  0  0  0  0  0
   19.9754  -14.4549  -15.2746 C   0  0  0  0  0  0  0  0  0  0  0  0
   19.9471  -13.1214  -15.1249 N   0  0  0  0  0  0  0  0  0  0  0  0
   20.4711  -12.5672  -16.2339 C   0  0  0  0  0  0  0  0  0  0  0  0
   20.8233  -13.5743  -17.0703 N   0  0  0  0  0  0  0  0  0  0  0  0
   22.3419  -17.9505  -16.4641 C   0  0  0  0  0  0  0  0  0  0  0  0
   22.3257  -18.8240  -17.3694 O   0  0  0  0  0  0  0  0  0  0  0  0
   22.5490  -18.4508  -15.1266 N   0  0  0  0  0  0  0  0  0  0  0  0
   22.6397  -19.8607  -14.8579 C   0  0  1  0  0  0  0  0  0  0  0  0
   23.8133  -20.1428  -13.9836 C   0  0  0  0  0  0  0  0  0  0  0  0
   25.1356  -19.9538  -14.5568 C   0  0  0  0  0  0  0  0  0  0  0  0
   25.5395  -19.4938  -15.7624 C   0  0  0  0  0  0  0  0  0  0  0  0
   26.9152  -19.4812  -15.7897 N   0  0  0  0  0  0  0  0  0  0  0  0
   27.3308  -19.9298  -14.6088 C   0  0  0  0  0  0  0  0  0  0  0  0
   26.2686  -20.2217  -13.8469 N   0  0  0  0  0  0  0  0  0  0  0  0
   21.4106  -20.4465  -14.2741 C   0  0  0  0  0  0  0  0  0  0  0  0
   20.5987  -19.6746  -13.7167 O   0  0  0  0  0  0  0  0  0  0  0  0
   21.1196  -21.8294  -14.3184 N   0  0  0  0  0  0  0  0  0  0  0  0
   19.7150  -22.2287  -14.0357 C   0  0  1  0  0  0  0  0  0  0  0  0
   18.7964  -21.5788  -15.0050 C   0  0  0  0  0  0  0  0  0  0  0  0
   17.7025  -20.8129  -14.3848 C   0  0  0  0  0  0  0  0  0  0  0  0
   17.6167  -20.6773  -12.9920 C   0  0  0  0  0  0  0  0  0  0  0  0
   16.5313  -19.9380  -12.7496 N   0  0  0  0  0  0  0  0  0  0  0  0
   15.9532  -19.6179  -13.9299 C   0  0  0  0  0  0  0  0  0  0  0  0
   16.6643  -20.1496  -14.9320 N   0  0  0  0  0  0  0  0  0  0  0  0
   19.6366  -23.7186  -14.2286 C   0  0  0  0  0  0  0  0  0  0  0  0
   19.0867  -24.5323  -13.2189 O   0  0  0  0  0  0  0  0  0  0  0  0
   20.0323  -24.3063  -15.2426 O   0  0  0  0  0  0  0  0  0  0  0  0
  2  1  1  6
  2  3  1  0
  3  4  1  0
  4  8  1  0
  5  4  2  0
  5  6  1  0
  6  7  1  0
  8  7  2  0
  9  2  1  0
 10  9  2  0
 11  9  1  0
 12 13  1  1
 12 11  1  0
 14 15  2  0
 14 13  1  0
 16 15  1  0
 17 18  2  0
 17 16  1  0
 18 14  1  0
 19 20  2  0
 19 12  1  0
 21 19  1  0
 22 21  1  0
 22 23  1  6
 24 23  1  0
 25 24  2  0
 26 25  1  0
 27 26  1  0
 27 28  2  0
 28 24  1  0
 29 30  1  0
 29 22  1  0
 31 29  2  0
M  END
$$$$
