HHH.pdb
     RDKit          3D

 31 33  0  0  1  0  0  0  0  0999 V2000
   26.0804  -12.1360  -16.1978 N   0  0  0  0  0  0  0  0  0  0  0  0
   26.7562  -11.0095  -15.5811 C   0  0  1  0  0  0  0  0  0  0  0  0
   28.0175  -10.7506  -16.3546 C   0  0  0  0  0  0  0  0  0  0  0  0
   27.9231  -11.5348  -17.6226 C   0  0  0  0  0  0  0  0  0  0  0  0
   27.8959  -12.9239  -17.7252 C   0  0  0  0  0  0  0  0  0  0  0  0
   27.8062  -13.2679  -19.0195 N   0  0  0  0  0  0  0  0  0  0  0  0
   27.7752  -12.1372  -19.7491 C   0  0  0  0  0  0  0  0  0  0  0  0
   27.8469  -11.0909  -18.8901 N   0  0  0  0  0  0  0  0  0  0  0  0
   25.8354   -9.8656  -15.5421 C   0  0  0  0  0  0  0  0  0  0  0  0
   26.1798   -8.7475  -15.0795 O   0  0  0  0  0  0  0  0  0  0  0  0
   24.4791   -9.9417  -16.0284 N   0  0  0  0  0  0  0  0  0  0  0  0
   23.5822   -8.8218  -15.9302 C   0  0  1  0  0  0  0  0  0  0  0  0
   23.1127   -8.4189  -17.2862 C   0  0  0  0  0  0  0  0  0  0  0  0
   24.0581   -7.7209  -18.1417 C   0  0  0  0  0  0  0  0  0  0  0  0
   25.3283   -7.3067  -17.9337 C   0  0  0  0  0  0  0  0  0  0  0  0
   25.7940   -6.7205  -19.0883 N   0  0  0  0  0  0  0  0  0  0  0  0
   24.8098   -6.7843  -19.9802 C   0  0  0  0  0  0  0  0  0  0  0  0
   23.7490   -7.3869  -19.4271 N   0  0  0  0  0  0  0  0  0  0  0  0
   22.4262   -9.0483  -15.0319 C   0  0  0  0  0  0  0  0  0  0  0  0
   21.9647  -10.2084  -14.9485 O   0  0  0  0  0  0  0  0  0  0  0  0
   21.8266   -8.0174  -14.2724 N   0  0  0  0  0  0  0  0  0  0  0  0
   20.7064   -8.4094  -13.3758 C   0  0  1  0  0  0  0  0  0  0  0  0
   20.4960   -7.3671  -12.3390 C   0  0  0  0  0  0  0  0  0  0  0  0
   19.3511   -7.6195  -11.4483 C   0  0  0  0  0  0  0  0  0  0  0  0
   19.3176   -8.7502  -10.6200 C   0  0  0  0  0  0  0  0  0  0  0  0
   18.1659   -8.6921   -9.9464 N   0  0  0  0  0  0  0  0  0  0  0  0
   17.4978   -7.5791  -10.3264 C   0  0  0  0  0  0  0  0  0  0  0  0
   18.2169   -6.9202  -11.2435 N   0  0  0  0  0  0  0  0  0  0  0  0
   19.4705   -8.4902  -14.2297 C   0  0  0  0  0  0  0  0  0  0  0  0
   18.4721   -9.4397  -13.9370 O   0  0  0  0  0  0  0  0  0  0  0  0
   19.2550   -7.7605  -15.2050 O   0  0  0  0  0  0  0  0  0  0  0  0
  2  1  1  6
  2  3  1  0
  3  4  1  0
  4  8  1  0
  5  4  2  0
  5  6  1  0
  6  7  1  0
  8  7  2  0
  9  2  1  0
 10  9  2  0
 11  9  1  0
 12 13  1  6
 12 11  1  0
 14 15  2  0
 14 13  1  0
 16 15  1  0
 17 18  2  0
 17 16  1  0
 18 14  1  0
 19 20  2  0
 19 12  1  0
 21 19  1  0
 22 21  1  0
 22 23  1  1
 24 23  1  0
 25 24  2  0
 26 25  1  0
 27 26  1  0
 27 28  2  0
 28 24  1  0
 29 30  1  0
 29 22  1  0
 31 29  2  0
M  END
$$$$
