HHH.pdb
     RDKit          3D

 31 33  0  0  1  0  0  0  0  0999 V2000
   22.0566  -13.0125  -20.9002 N   0  0  0  0  0  0  0  0  0  0  0  0
   22.5627  -12.3795  -19.6963 C   0  0  1  0  0  0  0  0  0  0  0  0
   23.9874  -11.9782  -19.9521 C   0  0  0  0  0  0  0  0  0  0  0  0
   24.7849  -13.2368  -20.0598 C   0  0  0  0  0  0  0  0  0  0  0  0
   24.8472  -14.2499  -19.1054 C   0  0  0  0  0  0  0  0  0  0  0  0
   25.6619  -15.2209  -19.5469 N   0  0  0  0  0  0  0  0  0  0  0  0
   26.1234  -14.8578  -20.7581 C   0  0  0  0  0  0  0  0  0  0  0  0
   25.5840  -13.6512  -21.0593 N   0  0  0  0  0  0  0  0  0  0  0  0
   21.6820  -11.2585  -19.3420 C   0  0  0  0  0  0  0  0  0  0  0  0
   21.4847  -10.2924  -20.1233 O   0  0  0  0  0  0  0  0  0  0  0  0
   20.9846  -11.1854  -18.0809 N   0  0  0  0  0  0  0  0  0  0  0  0
   20.1776  -10.0467  -17.7340 C   0  0  1  0  0  0  0  0  0  0  0  0
   18.8157  -10.4888  -17.3201 C   0  0  0  0  0  0  0  0  0  0  0  0
   17.9238  -10.9721  -18.3611 C   0  0  0  0  0  0  0  0  0  0  0  0
   18.0592  -11.0427  -19.7046 C   0  0  0  0  0  0  0  0  0  0  0  0
   16.9259  -11.6190  -20.2308 N   0  0  0  0  0  0  0  0  0  0  0  0
   16.1192  -11.8916  -19.2094 C   0  0  0  0  0  0  0  0  0  0  0  0
   16.7048  -11.5077  -18.0676 N   0  0  0  0  0  0  0  0  0  0  0  0
   20.7739   -9.1758  -16.6944 C   0  0  0  0  0  0  0  0  0  0  0  0
   21.2983   -9.7231  -15.6988 O   0  0  0  0  0  0  0  0  0  0  0  0
   20.7739   -7.7645  -16.7783 N   0  0  0  0  0  0  0  0  0  0  0  0
   21.4999   -7.0288  -15.7087 C   0  0  1  0  0  0  0  0  0  0  0  0
   22.3421   -5.9618  -16.3067 C   0  0  0  0  0  0  0  0  0  0  0  0
   23.4808   -6.4586  -17.0968 C   0  0  0  0  0  0  0  0  0  0  0  0
   23.7539   -7.8311  -17.1839 C   0  0  0  0  0  0  0  0  0  0  0  0
   24.8328   -7.9540  -17.9612 N   0  0  0  0  0  0  0  0  0  0  0  0
   25.2284   -6.7205  -18.3507 C   0  0  0  0  0  0  0  0  0  0  0  0
   24.4064   -5.8034  -17.8258 N   0  0  0  0  0  0  0  0  0  0  0  0
   20.4575   -6.3826  -14.8376 C   0  0  0  0  0  0  0  0  0  0  0  0
   20.8423   -5.6916  -13.6721 O   0  0  0  0  0  0  0  0  0  0  0  0
   19.2437   -6.4121  -15.0741 O   0  0  0  0  0  0  0  0  0  0  0  0
  2  1  1  6
  2  3  1  0
  3  4  1  0
  4  8  1  0
  5  4  2  0
  5  6  1  0
  6  7  1  0
  8  7  2  0
  9  2  1  0
 10  9  2  0
 11  9  1  0
 12 13  1  1
 12 11  1  0
 14 15  2  0
 14 13  1  0
 16 15  1  0
 17 18  2  0
 17 16  1  0
 18 14  1  0
 19 20  2  0
 19 12  1  0
 21 19  1  0
 22 21  1  0
 22 23  1  6
 24 23  1  0
 25 24  2  0
 26 25  1  0
 27 26  1  0
 27 28  2  0
 28 24  1  0
 29 30  1  0
 29 22  1  0
 31 29  2  0
M  END
$$$$
