HHH.pdb
     RDKit          3D

 31 33  0  0  1  0  0  0  0  0999 V2000
   28.0169  -24.1777  -16.8832 N   0  0  0  0  0  0  0  0  0  0  0  0
   28.5851  -22.8592  -16.6713 C   0  0  1  0  0  0  0  0  0  0  0  0
   29.7604  -22.7113  -17.5947 C   0  0  0  0  0  0  0  0  0  0  0  0
   30.8201  -23.6455  -17.1088 C   0  0  0  0  0  0  0  0  0  0  0  0
   30.6857  -24.5671  -16.0727 C   0  0  0  0  0  0  0  0  0  0  0  0
   31.8432  -25.2294  -15.9199 N   0  0  0  0  0  0  0  0  0  0  0  0
   32.7155  -24.7574  -16.8298 C   0  0  0  0  0  0  0  0  0  0  0  0
   32.0833  -23.7959  -17.5462 N   0  0  0  0  0  0  0  0  0  0  0  0
   27.5363  -21.8510  -16.8749 C   0  0  0  0  0  0  0  0  0  0  0  0
   27.7776  -20.6174  -16.8218 O   0  0  0  0  0  0  0  0  0  0  0  0
   26.1634  -22.2007  -17.1485 N   0  0  0  0  0  0  0  0  0  0  0  0
   25.1309  -21.2012  -17.2056 C   0  0  1  0  0  0  0  0  0  0  0  0
   24.4454  -21.2454  -18.5283 C   0  0  0  0  0  0  0  0  0  0  0  0
   25.0960  -20.5751  -19.6419 C   0  0  0  0  0  0  0  0  0  0  0  0
   25.7491  -19.3942  -19.7278 C   0  0  0  0  0  0  0  0  0  0  0  0
   26.2109  -19.2400  -21.0148 N   0  0  0  0  0  0  0  0  0  0  0  0
   25.8373  -20.3209  -21.6933 C   0  0  0  0  0  0  0  0  0  0  0  0
   25.1607  -21.1426  -20.8801 N   0  0  0  0  0  0  0  0  0  0  0  0
   24.1391  -21.2913  -16.1088 C   0  0  0  0  0  0  0  0  0  0  0  0
   23.7607  -22.4289  -15.7503 O   0  0  0  0  0  0  0  0  0  0  0  0
   23.6055  -20.1559  -15.4569 N   0  0  0  0  0  0  0  0  0  0  0  0
   22.5530  -20.4019  -14.4351 C   0  0  1  0  0  0  0  0  0  0  0  0
   22.3000  -19.1627  -13.6568 C   0  0  0  0  0  0  0  0  0  0  0  0
   21.2334  -19.2858  -12.6493 C   0  0  0  0  0  0  0  0  0  0  0  0
   20.6399  -20.5262  -12.3755 C   0  0  0  0  0  0  0  0  0  0  0  0
   19.7231  -20.3069  -11.4296 N   0  0  0  0  0  0  0  0  0  0  0  0
   19.7314  -18.9912  -11.1155 C   0  0  0  0  0  0  0  0  0  0  0  0
   20.6519  -18.3628  -11.8574 N   0  0  0  0  0  0  0  0  0  0  0  0
   21.2967  -20.7633  -15.1796 C   0  0  0  0  0  0  0  0  0  0  0  0
   20.4373  -21.7571  -14.6718 O   0  0  0  0  0  0  0  0  0  0  0  0
   20.9469  -20.2359  -16.2424 O   0  0  0  0  0  0  0  0  0  0  0  0
  2  1  1  6
  2  3  1  0
  3  4  1  0
  4  8  1  0
  5  4  2  0
  5  6  1  0
  6  7  1  0
  8  7  2  0
  9  2  1  0
 10  9  2  0
 11  9  1  0
 12 13  1  6
 12 11  1  0
 14 15  2  0
 14 13  1  0
 16 15  1  0
 17 18  2  0
 17 16  1  0
 18 14  1  0
 19 20  2  0
 19 12  1  0
 21 19  1  0
 22 21  1  0
 22 23  1  6
 24 23  1  0
 25 24  2  0
 26 25  1  0
 27 26  1  0
 27 28  2  0
 28 24  1  0
 29 30  1  0
 29 22  1  0
 31 29  2  0
M  END
$$$$
