HHH.pdb
     RDKit          3D

 31 33  0  0  1  0  0  0  0  0999 V2000
   21.8593  -15.4618  -19.2089 N   0  0  0  0  0  0  0  0  0  0  0  0
   21.3004  -15.3799  -17.8721 C   0  0  1  0  0  0  0  0  0  0  0  0
   21.2074  -16.7763  -17.3265 C   0  0  0  0  0  0  0  0  0  0  0  0
   20.2603  -17.5277  -18.2040 C   0  0  0  0  0  0  0  0  0  0  0  0
   18.8697  -17.4911  -18.1271 C   0  0  0  0  0  0  0  0  0  0  0  0
   18.3553  -18.2916  -19.0737 N   0  0  0  0  0  0  0  0  0  0  0  0
   19.3783  -18.8403  -19.7551 C   0  0  0  0  0  0  0  0  0  0  0  0
   20.5304  -18.3691  -19.2182 N   0  0  0  0  0  0  0  0  0  0  0  0
   22.1313  -14.4780  -17.0635 C   0  0  0  0  0  0  0  0  0  0  0  0
   23.0602  -14.9047  -16.3301 O   0  0  0  0  0  0  0  0  0  0  0  0
   21.9432  -13.0474  -17.0524 N   0  0  0  0  0  0  0  0  0  0  0  0
   22.9199  -12.1660  -16.4714 C   0  0  1  0  0  0  0  0  0  0  0  0
   24.2781  -12.4881  -16.9938 C   0  0  0  0  0  0  0  0  0  0  0  0
   25.3875  -11.6785  -16.5178 C   0  0  0  0  0  0  0  0  0  0  0  0
   25.4467  -10.6624  -15.6277 C   0  0  0  0  0  0  0  0  0  0  0  0
   26.7567  -10.2585  -15.5084 N   0  0  0  0  0  0  0  0  0  0  0  0
   27.4755  -11.0278  -16.3206 C   0  0  0  0  0  0  0  0  0  0  0  0
   26.6653  -11.8950  -16.9416 N   0  0  0  0  0  0  0  0  0  0  0  0
   22.6245  -10.7265  -16.6590 C   0  0  0  0  0  0  0  0  0  0  0  0
   22.5307  -10.2931  -17.8290 O   0  0  0  0  0  0  0  0  0  0  0  0
   22.4473   -9.8292  -15.5809 N   0  0  0  0  0  0  0  0  0  0  0  0
   22.0281   -8.4437  -15.9232 C   0  0  1  0  0  0  0  0  0  0  0  0
   21.4285   -7.7853  -14.7348 C   0  0  0  0  0  0  0  0  0  0  0  0
   20.9911   -6.3985  -14.9653 C   0  0  0  0  0  0  0  0  0  0  0  0
   20.8950   -5.8792  -16.2641 C   0  0  0  0  0  0  0  0  0  0  0  0
   20.4779   -4.6169  -16.1375 N   0  0  0  0  0  0  0  0  0  0  0  0
   20.3158   -4.3445  -14.8225 C   0  0  0  0  0  0  0  0  0  0  0  0
   20.6278   -5.4289  -14.1019 N   0  0  0  0  0  0  0  0  0  0  0  0
   23.2734   -7.6925  -16.3080 C   0  0  0  0  0  0  0  0  0  0  0  0
   23.2337   -6.7509  -17.3548 O   0  0  0  0  0  0  0  0  0  0  0  0
   24.3701   -7.8431  -15.7560 O   0  0  0  0  0  0  0  0  0  0  0  0
  2  1  1  6
  2  3  1  0
  3  4  1  0
  4  8  1  0
  5  4  2  0
  5  6  1  0
  6  7  1  0
  8  7  2  0
  9  2  1  0
 10  9  2  0
 11  9  1  0
 12 13  1  6
 12 11  1  0
 14 15  2  0
 14 13  1  0
 16 15  1  0
 17 18  2  0
 17 16  1  0
 18 14  1  0
 19 20  2  0
 19 12  1  0
 21 19  1  0
 22 21  1  0
 22 23  1  1
 24 23  1  0
 25 24  2  0
 26 25  1  0
 27 26  1  0
 27 28  2  0
 28 24  1  0
 29 30  1  0
 29 22  1  0
 31 29  2  0
M  END
$$$$
