HHH.pdb
     RDKit          3D

 31 33  0  0  1  0  0  0  0  0999 V2000
   20.4432  -13.6380  -17.5826 N   0  0  0  0  0  0  0  0  0  0  0  0
   20.5546  -12.9052  -18.8303 C   0  0  1  0  0  0  0  0  0  0  0  0
   19.8821  -13.7158  -19.9011 C   0  0  0  0  0  0  0  0  0  0  0  0
   20.6531  -14.9882  -20.0372 C   0  0  0  0  0  0  0  0  0  0  0  0
   21.9009  -15.2524  -19.4769 C   0  0  0  0  0  0  0  0  0  0  0  0
   22.2798  -16.4955  -19.8125 N   0  0  0  0  0  0  0  0  0  0  0  0
   21.3088  -17.0352  -20.5726 C   0  0  0  0  0  0  0  0  0  0  0  0
   20.3259  -16.1107  -20.7024 N   0  0  0  0  0  0  0  0  0  0  0  0
   19.9807  -11.5653  -18.6479 C   0  0  0  0  0  0  0  0  0  0  0  0
   19.8337  -10.7662  -19.6084 O   0  0  0  0  0  0  0  0  0  0  0  0
   19.5473  -11.0729  -17.3627 N   0  0  0  0  0  0  0  0  0  0  0  0
   19.0270   -9.7415  -17.2052 C   0  0  1  0  0  0  0  0  0  0  0  0
   17.8166   -9.7622  -16.3358 C   0  0  0  0  0  0  0  0  0  0  0  0
   17.1526   -8.4941  -16.0828 C   0  0  0  0  0  0  0  0  0  0  0  0
   17.4046   -7.2400  -16.5210 C   0  0  0  0  0  0  0  0  0  0  0  0
   16.4479   -6.3947  -16.0078 N   0  0  0  0  0  0  0  0  0  0  0  0
   15.6295   -7.1379  -15.2687 C   0  0  0  0  0  0  0  0  0  0  0  0
   16.0385   -8.4129  -15.3008 N   0  0  0  0  0  0  0  0  0  0  0  0
   20.0130   -8.7626  -16.6912 C   0  0  0  0  0  0  0  0  0  0  0  0
   20.8578   -9.1609  -15.8585 O   0  0  0  0  0  0  0  0  0  0  0  0
   20.0384   -7.4085  -17.0971 N   0  0  0  0  0  0  0  0  0  0  0  0
   21.1312   -6.5633  -16.5459 C   0  0  1  0  0  0  0  0  0  0  0  0
   21.7616   -5.7735  -17.6341 C   0  0  0  0  0  0  0  0  0  0  0  0
   22.8233   -4.8585  -17.1833 C   0  0  0  0  0  0  0  0  0  0  0  0
   22.6476   -4.0534  -16.0490 C   0  0  0  0  0  0  0  0  0  0  0  0
   23.7732   -3.3490  -15.9064 N   0  0  0  0  0  0  0  0  0  0  0  0
   24.6250   -3.6882  -16.9010 C   0  0  0  0  0  0  0  0  0  0  0  0
   24.0501   -4.6097  -17.6838 N   0  0  0  0  0  0  0  0  0  0  0  0
   20.4971   -5.6104  -15.5698 C   0  0  0  0  0  0  0  0  0  0  0  0
   21.1950   -5.2212  -14.4098 O   0  0  0  0  0  0  0  0  0  0  0  0
   19.3686   -5.1241  -15.7120 O   0  0  0  0  0  0  0  0  0  0  0  0
  2  1  1  1
  2  3  1  0
  3  4  1  0
  4  8  1  0
  5  4  2  0
  5  6  1  0
  6  7  1  0
  8  7  2  0
  9  2  1  0
 10  9  2  0
 11  9  1  0
 12 13  1  1
 12 11  1  0
 14 15  2  0
 14 13  1  0
 16 15  1  0
 17 18  2  0
 17 16  1  0
 18 14  1  0
 19 20  2  0
 19 12  1  0
 21 19  1  0
 22 21  1  0
 22 23  1  6
 24 23  1  0
 25 24  2  0
 26 25  1  0
 27 26  1  0
 27 28  2  0
 28 24  1  0
 29 30  1  0
 29 22  1  0
 31 29  2  0
M  END
$$$$
