LYH.pdb
     RDKit          3D

 31 32  0  0  1  0  0  0  0  0999 V2000
   22.6836  -12.9671  -21.3872 C   0  0  0  0  0  0  0  0  0  0  0  0
   23.2796  -11.8843  -20.5299 C   0  0  1  0  0  0  0  0  0  0  0  0
   23.9221  -10.8566  -21.4335 C   0  0  0  0  0  0  0  0  0  0  0  0
   22.3077  -11.2958  -19.5593 C   0  0  0  0  0  0  0  0  0  0  0  0
   22.8834  -10.1282  -18.7879 C   0  0  2  0  0  0  0  0  0  0  0  0
   23.8335  -10.5958  -17.8218 N   0  0  0  0  0  0  0  0  0  0  0  0
   21.7694   -9.3616  -18.1707 C   0  0  0  0  0  0  0  0  0  0  0  0
   20.8362   -8.8676  -18.8561 O   0  0  0  0  0  0  0  0  0  0  0  0
   16.7251  -13.6027  -16.0201 O   0  0  0  0  0  0  0  0  0  0  0  0
   17.5945  -12.5546  -15.7621 C   0  0  0  0  0  0  0  0  0  0  0  0
   17.2217  -11.2429  -15.9088 C   0  0  0  0  0  0  0  0  0  0  0  0
   18.0879  -10.2017  -15.6518 C   0  0  0  0  0  0  0  0  0  0  0  0
   19.3648  -10.4914  -15.2353 C   0  0  0  0  0  0  0  0  0  0  0  0
   20.3255   -9.4446  -14.9462 C   0  0  0  0  0  0  0  0  0  0  0  0
   20.6558   -8.4936  -16.0689 C   0  0  2  0  0  0  0  0  0  0  0  0
   21.7620   -9.1861  -16.7837 N   0  0  0  0  0  0  0  0  0  0  0  0
   21.2048   -7.2084  -15.6259 C   0  0  0  0  0  0  0  0  0  0  0  0
   22.4607   -7.0843  -15.4254 O   0  0  0  0  0  0  0  0  0  0  0  0
   19.7475  -11.8128  -15.0853 C   0  0  0  0  0  0  0  0  0  0  0  0
   18.8804  -12.8621  -15.3425 C   0  0  0  0  0  0  0  0  0  0  0  0
   20.4135   -6.0489  -15.4004 N   0  0  0  0  0  0  0  0  0  0  0  0
   20.9790   -4.7524  -15.1531 C   0  0  1  0  0  0  0  0  0  0  0  0
   21.8168   -4.4246  -16.4030 C   0  0  0  0  0  0  0  0  0  0  0  0
   22.3854   -3.0705  -16.3114 C   0  0  0  0  0  0  0  0  0  0  0  0
   21.9466   -1.8870  -16.8626 C   0  0  0  0  0  0  0  0  0  0  0  0
   22.8084   -0.8962  -16.4948 N   0  0  0  0  0  0  0  0  0  0  0  0
   23.7569   -1.4507  -15.7354 C   0  0  0  0  0  0  0  0  0  0  0  0
   23.5059   -2.7688  -15.6206 N   0  0  0  0  0  0  0  0  0  0  0  0
   20.0097   -3.6795  -14.8936 C   0  0  0  0  0  0  0  0  0  0  0  0
   20.3413   -2.6101  -14.0329 O   0  0  0  0  0  0  0  0  0  0  0  0
   18.8524   -3.5963  -15.3756 O   0  0  0  0  0  0  0  0  0  0  0  0
  2  1  1  6
  3  2  1  0
  4  2  1  0
  5  4  1  0
  5  6  1  1
  7  5  1  0
  7  8  2  0
  9 10  1  0
 10 20  2  0
 10 11  1  0
 11 12  2  0
 12 13  1  0
 13 14  1  0
 15 14  1  1
 15 16  1  0
 16  7  1  0
 17 21  1  0
 17 15  1  0
 18 17  2  0
 19 13  2  0
 20 19  1  0
 22 21  1  0
 22 29  1  0
 22 23  1  6
 24 23  1  0
 24 25  2  0
 26 25  1  0
 27 26  1  0
 28 27  2  0
 28 24  1  0
 29 31  2  0
 29 30  1  0
M  END
$$$$
