LYH.pdb
     RDKit          3D

 31 32  0  0  1  0  0  0  0  0999 V2000
   20.7230  -12.9156  -23.4707 C   0  0  0  0  0  0  0  0  0  0  0  0
   19.4820  -12.9747  -22.6227 C   0  0  1  0  0  0  0  0  0  0  0  0
   18.7062  -14.2178  -22.9945 C   0  0  0  0  0  0  0  0  0  0  0  0
   19.7600  -12.8647  -21.1586 C   0  0  0  0  0  0  0  0  0  0  0  0
   20.2900  -11.5038  -20.7629 C   0  0  2  0  0  0  0  0  0  0  0  0
   21.7227  -11.5246  -20.7245 N   0  0  0  0  0  0  0  0  0  0  0  0
   19.6881  -11.1114  -19.4617 C   0  0  0  0  0  0  0  0  0  0  0  0
   18.4456  -10.9746  -19.3129 O   0  0  0  0  0  0  0  0  0  0  0  0
   16.7996  -15.9904  -16.2771 O   0  0  0  0  0  0  0  0  0  0  0  0
   17.7004  -14.9372  -16.2685 C   0  0  0  0  0  0  0  0  0  0  0  0
   18.8467  -14.9498  -17.0214 C   0  0  0  0  0  0  0  0  0  0  0  0
   19.7416  -13.9012  -17.0116 C   0  0  0  0  0  0  0  0  0  0  0  0
   19.4729  -12.8102  -16.2208 C   0  0  0  0  0  0  0  0  0  0  0  0
   20.3706  -11.6729  -16.1649 C   0  0  0  0  0  0  0  0  0  0  0  0
   20.0241  -10.4879  -17.0307 C   0  0  2  0  0  0  0  0  0  0  0  0
   20.5331  -10.8882  -18.3705 N   0  0  0  0  0  0  0  0  0  0  0  0
   20.7393   -9.2573  -16.6793 C   0  0  0  0  0  0  0  0  0  0  0  0
   21.7914   -8.9229  -17.3230 O   0  0  0  0  0  0  0  0  0  0  0  0
   18.3180  -12.7910  -15.4586 C   0  0  0  0  0  0  0  0  0  0  0  0
   17.4161  -13.8424  -15.4654 C   0  0  0  0  0  0  0  0  0  0  0  0
   20.3295   -8.3765  -15.6414 N   0  0  0  0  0  0  0  0  0  0  0  0
   21.0057   -7.1438  -15.3495 C   0  0  1  0  0  0  0  0  0  0  0  0
   20.9207   -6.3125  -16.6432 C   0  0  0  0  0  0  0  0  0  0  0  0
   21.6103   -5.0227  -16.4825 C   0  0  0  0  0  0  0  0  0  0  0  0
   22.8001   -4.7271  -15.8546 C   0  0  0  0  0  0  0  0  0  0  0  0
   23.0251   -3.3871  -15.9691 N   0  0  0  0  0  0  0  0  0  0  0  0
   22.0016   -2.8650  -16.6502 C   0  0  0  0  0  0  0  0  0  0  0  0
   21.1406   -3.8517  -16.9642 N   0  0  0  0  0  0  0  0  0  0  0  0
   20.4659   -6.3800  -14.2167 C   0  0  0  0  0  0  0  0  0  0  0  0
   21.3351   -5.7086  -13.3290 O   0  0  0  0  0  0  0  0  0  0  0  0
   19.2505   -6.2458  -13.9277 O   0  0  0  0  0  0  0  0  0  0  0  0
  2  1  1  6
  3  2  1  0
  4  2  1  0
  5  4  1  0
  5  6  1  1
  7  5  1  0
  7  8  2  0
  9 10  1  0
 10 20  2  0
 10 11  1  0
 11 12  2  0
 12 13  1  0
 13 14  1  0
 15 14  1  1
 15 16  1  0
 16  7  1  0
 17 21  1  0
 17 15  1  0
 18 17  2  0
 19 13  2  0
 20 19  1  0
 22 21  1  0
 22 29  1  0
 22 23  1  6
 24 23  1  0
 24 25  2  0
 26 25  1  0
 27 26  1  0
 28 27  2  0
 28 24  1  0
 29 31  2  0
 29 30  1  0
M  END
$$$$
