LYH.pdb
     RDKit          3D

 31 32  0  0  1  0  0  0  0  0999 V2000
   27.3934  -20.4573  -15.6184 C   0  0  0  0  0  0  0  0  0  0  0  0
   27.1868  -20.7085  -14.1497 C   0  0  1  0  0  0  0  0  0  0  0  0
   28.3356  -20.0846  -13.3905 C   0  0  0  0  0  0  0  0  0  0  0  0
   25.8447  -20.2728  -13.6580 C   0  0  0  0  0  0  0  0  0  0  0  0
   24.7097  -21.0590  -14.2772 C   0  0  2  0  0  0  0  0  0  0  0  0
   24.7529  -20.9458  -15.7054 N   0  0  0  0  0  0  0  0  0  0  0  0
   23.4238  -20.5823  -13.7038 C   0  0  0  0  0  0  0  0  0  0  0  0
   23.2562  -19.3906  -13.3343 O   0  0  0  0  0  0  0  0  0  0  0  0
   20.8176  -14.8474  -15.1521 O   0  0  0  0  0  0  0  0  0  0  0  0
   20.7581  -16.2290  -15.0601 C   0  0  0  0  0  0  0  0  0  0  0  0
   19.6582  -16.8818  -14.5650 C   0  0  0  0  0  0  0  0  0  0  0  0
   19.6008  -18.2562  -14.4743 C   0  0  0  0  0  0  0  0  0  0  0  0
   20.6822  -18.9922  -14.8945 C   0  0  0  0  0  0  0  0  0  0  0  0
   20.6873  -20.4407  -14.8284 C   0  0  0  0  0  0  0  0  0  0  0  0
   20.9475  -21.0605  -13.4785 C   0  0  2  0  0  0  0  0  0  0  0  0
   22.3689  -21.4905  -13.5726 N   0  0  0  0  0  0  0  0  0  0  0  0
   20.1745  -22.2785  -13.2175 C   0  0  0  0  0  0  0  0  0  0  0  0
   20.4680  -23.3645  -13.8238 O   0  0  0  0  0  0  0  0  0  0  0  0
   21.7953  -18.3399  -15.3952 C   0  0  0  0  0  0  0  0  0  0  0  0
   21.8573  -16.9591  -15.4881 C   0  0  0  0  0  0  0  0  0  0  0  0
   19.0877  -22.3417  -12.3031 N   0  0  0  0  0  0  0  0  0  0  0  0
   18.3273  -23.5380  -12.0739 C   0  0  1  0  0  0  0  0  0  0  0  0
   17.4747  -23.2495  -10.8243 C   0  0  0  0  0  0  0  0  0  0  0  0
   18.2123  -23.5902   -9.5976 C   0  0  0  0  0  0  0  0  0  0  0  0
   19.4453  -24.1842   -9.4421 C   0  0  0  0  0  0  0  0  0  0  0  0
   19.7049  -24.2923   -8.1078 N   0  0  0  0  0  0  0  0  0  0  0  0
   18.6604  -23.7789   -7.4527 C   0  0  0  0  0  0  0  0  0  0  0  0
   17.7522  -23.3516   -8.3505 N   0  0  0  0  0  0  0  0  0  0  0  0
   17.4703  -23.9650  -13.1880 C   0  0  0  0  0  0  0  0  0  0  0  0
   16.6269  -23.0366  -13.8369 O   0  0  0  0  0  0  0  0  0  0  0  0
   17.3949  -25.1273  -13.6593 O   0  0  0  0  0  0  0  0  0  0  0  0
  2  1  1  6
  3  2  1  0
  4  2  1  0
  5  4  1  0
  5  6  1  6
  7  5  1  0
  7  8  2  0
  9 10  1  0
 10 20  2  0
 10 11  1  0
 11 12  2  0
 12 13  1  0
 13 14  1  0
 15 14  1  6
 15 16  1  0
 16  7  1  0
 17 21  1  0
 17 15  1  0
 18 17  2  0
 19 13  2  0
 20 19  1  0
 22 21  1  0
 22 29  1  0
 22 23  1  1
 24 23  1  0
 24 25  2  0
 26 25  1  0
 27 26  1  0
 28 27  2  0
 28 24  1  0
 29 31  2  0
 29 30  1  0
M  END
$$$$
