LYH.pdb
     RDKit          3D

 31 32  0  0  1  0  0  0  0  0999 V2000
   15.0731   -0.1251  -10.7787 C   0  0  0  0  0  0  0  0  0  0  0  0
   15.3304   -1.1052  -11.8904 C   0  0  1  0  0  0  0  0  0  0  0  0
   16.3469   -0.5038  -12.8340 C   0  0  0  0  0  0  0  0  0  0  0  0
   15.7060   -2.4670  -11.4035 C   0  0  0  0  0  0  0  0  0  0  0  0
   16.0468   -3.4190  -12.5293 C   0  0  2  0  0  0  0  0  0  0  0  0
   14.9098   -3.6002  -13.3832 N   0  0  0  0  0  0  0  0  0  0  0  0
   16.5361   -4.6969  -11.9487 C   0  0  0  0  0  0  0  0  0  0  0  0
   17.5056   -4.7403  -11.1468 O   0  0  0  0  0  0  0  0  0  0  0  0
   13.4654   -5.2251   -6.4306 O   0  0  0  0  0  0  0  0  0  0  0  0
   13.8438   -5.8436   -7.6118 C   0  0  0  0  0  0  0  0  0  0  0  0
   13.0860   -5.7666   -8.7524 C   0  0  0  0  0  0  0  0  0  0  0  0
   13.4640   -6.3824   -9.9264 C   0  0  0  0  0  0  0  0  0  0  0  0
   14.6383   -7.0953   -9.9507 C   0  0  0  0  0  0  0  0  0  0  0  0
   15.0953   -7.7658  -11.1524 C   0  0  0  0  0  0  0  0  0  0  0  0
   16.3373   -7.2173  -11.8085 C   0  0  2  0  0  0  0  0  0  0  0  0
   15.8959   -5.8868  -12.3078 N   0  0  0  0  0  0  0  0  0  0  0  0
   16.7734   -7.9668  -12.9906 C   0  0  0  0  0  0  0  0  0  0  0  0
   16.0615   -7.9585  -14.0518 O   0  0  0  0  0  0  0  0  0  0  0  0
   15.4077   -7.1771   -8.8033 C   0  0  0  0  0  0  0  0  0  0  0  0
   15.0317   -6.5599   -7.6215 C   0  0  0  0  0  0  0  0  0  0  0  0
   17.9754   -8.7241  -13.0445 N   0  0  0  0  0  0  0  0  0  0  0  0
   18.3190   -9.5675  -14.1547 C   0  0  1  0  0  0  0  0  0  0  0  0
   19.8584   -9.5970  -14.1870 C   0  0  0  0  0  0  0  0  0  0  0  0
   20.3948   -8.3339  -14.7183 C   0  0  0  0  0  0  0  0  0  0  0  0
   19.7377   -7.2522  -15.2617 C   0  0  0  0  0  0  0  0  0  0  0  0
   20.6665   -6.3175  -15.6128 N   0  0  0  0  0  0  0  0  0  0  0  0
   21.8681   -6.8066  -15.2956 C   0  0  0  0  0  0  0  0  0  0  0  0
   21.7099   -8.0288  -14.7529 N   0  0  0  0  0  0  0  0  0  0  0  0
   17.7843  -10.9346  -14.0987 C   0  0  0  0  0  0  0  0  0  0  0  0
   17.8840  -11.7871  -15.2201 O   0  0  0  0  0  0  0  0  0  0  0  0
   17.2153  -11.4659  -13.1125 O   0  0  0  0  0  0  0  0  0  0  0  0
  2  1  1  1
  3  2  1  0
  4  2  1  0
  5  4  1  0
  5  6  1  1
  7  5  1  0
  7  8  2  0
  9 10  1  0
 10 20  2  0
 10 11  1  0
 11 12  2  0
 12 13  1  0
 13 14  1  0
 15 14  1  6
 15 16  1  0
 16  7  1  0
 17 21  1  0
 17 15  1  0
 18 17  2  0
 19 13  2  0
 20 19  1  0
 22 21  1  0
 22 29  1  0
 22 23  1  1
 24 23  1  0
 24 25  2  0
 26 25  1  0
 27 26  1  0
 28 27  2  0
 28 24  1  0
 29 31  2  0
 29 30  1  0
M  END
$$$$
