LYH.pdb
     RDKit          3D

 31 32  0  0  1  0  0  0  0  0999 V2000
   26.7062  -32.1198   -9.2155 C   0  0  0  0  0  0  0  0  0  0  0  0
   26.4610  -32.7153   -7.8561 C   0  0  1  0  0  0  0  0  0  0  0  0
   25.1676  -33.4968   -7.9014 C   0  0  0  0  0  0  0  0  0  0  0  0
   27.6166  -33.5104   -7.3411 C   0  0  0  0  0  0  0  0  0  0  0  0
   27.3907  -34.0327   -5.9390 C   0  0  2  0  0  0  0  0  0  0  0  0
   27.0496  -32.9534   -5.0596 N   0  0  0  0  0  0  0  0  0  0  0  0
   28.6040  -34.7692   -5.4975 C   0  0  0  0  0  0  0  0  0  0  0  0
   29.0020  -35.8130   -6.0779 O   0  0  0  0  0  0  0  0  0  0  0  0
   35.1596  -36.0359   -8.3000 O   0  0  0  0  0  0  0  0  0  0  0  0
   34.2775  -35.5073   -7.3708 C   0  0  0  0  0  0  0  0  0  0  0  0
   33.2847  -34.6290   -7.7230 C   0  0  0  0  0  0  0  0  0  0  0  0
   32.4081  -34.1042   -6.7974 C   0  0  0  0  0  0  0  0  0  0  0  0
   32.5365  -34.4755   -5.4807 C   0  0  0  0  0  0  0  0  0  0  0  0
   31.6473  -33.9625   -4.4566 C   0  0  0  0  0  0  0  0  0  0  0  0
   30.5922  -34.9054   -3.9354 C   0  0  2  0  0  0  0  0  0  0  0  0
   29.3234  -34.2833   -4.4015 N   0  0  0  0  0  0  0  0  0  0  0  0
   30.5020  -34.9572   -2.4731 C   0  0  0  0  0  0  0  0  0  0  0  0
   31.5254  -35.2825   -1.7802 O   0  0  0  0  0  0  0  0  0  0  0  0
   33.5361  -35.3612   -5.1185 C   0  0  0  0  0  0  0  0  0  0  0  0
   34.4191  -35.8909   -6.0453 C   0  0  0  0  0  0  0  0  0  0  0  0
   29.3185  -34.6563   -1.7451 N   0  0  0  0  0  0  0  0  0  0  0  0
   29.2498  -34.7005   -0.3115 C   0  0  1  0  0  0  0  0  0  0  0  0
   27.8846  -34.0883    0.0532 C   0  0  0  0  0  0  0  0  0  0  0  0
   27.7495  -33.9420    1.5111 C   0  0  0  0  0  0  0  0  0  0  0  0
   28.7095  -33.9860    2.4979 C   0  0  0  0  0  0  0  0  0  0  0  0
   28.0972  -33.7972    3.7016 N   0  0  0  0  0  0  0  0  0  0  0  0
   26.7917  -33.6402    3.4677 C   0  0  0  0  0  0  0  0  0  0  0  0
   26.5747  -33.7270    2.1415 N   0  0  0  0  0  0  0  0  0  0  0  0
   29.3857  -36.0354    0.2866 C   0  0  0  0  0  0  0  0  0  0  0  0
   30.2253  -36.2351    1.4044 O   0  0  0  0  0  0  0  0  0  0  0  0
   28.8090  -37.0818   -0.1022 O   0  0  0  0  0  0  0  0  0  0  0  0
  2  1  1  6
  3  2  1  0
  4  2  1  0
  5  4  1  0
  5  6  1  1
  7  5  1  0
  7  8  2  0
  9 10  1  0
 10 20  2  0
 10 11  1  0
 11 12  2  0
 12 13  1  0
 13 14  1  0
 15 14  1  1
 15 16  1  0
 16  7  1  0
 17 21  1  0
 17 15  1  0
 18 17  2  0
 19 13  2  0
 20 19  1  0
 22 21  1  0
 22 29  1  0
 22 23  1  6
 24 23  1  0
 24 25  2  0
 26 25  1  0
 27 26  1  0
 28 27  2  0
 28 24  1  0
 29 31  2  0
 29 30  1  0
M  END
$$$$
