LYH.pdb
     RDKit          3D

 31 32  0  0  1  0  0  0  0  0999 V2000
   18.6497  -11.8624    4.0844 C   0  0  0  0  0  0  0  0  0  0  0  0
   17.8182  -13.1083    4.2221 C   0  0  1  0  0  0  0  0  0  0  0  0
   16.5411  -12.9217    3.4351 C   0  0  0  0  0  0  0  0  0  0  0  0
   18.5583  -14.3562    3.8645 C   0  0  0  0  0  0  0  0  0  0  0  0
   17.7760  -15.6126    4.1792 C   0  0  2  0  0  0  0  0  0  0  0  0
   16.7102  -15.3148    5.0903 N   0  0  0  0  0  0  0  0  0  0  0  0
   18.7091  -16.6424    4.7068 C   0  0  0  0  0  0  0  0  0  0  0  0
   19.8788  -16.7771    4.2615 O   0  0  0  0  0  0  0  0  0  0  0  0
   24.1613  -18.5960   10.7346 O   0  0  0  0  0  0  0  0  0  0  0  0
   23.1242  -18.2549    9.8808 C   0  0  0  0  0  0  0  0  0  0  0  0
   21.8962  -18.8625    9.9435 C   0  0  0  0  0  0  0  0  0  0  0  0
   20.8658  -18.5220    9.0934 C   0  0  0  0  0  0  0  0  0  0  0  0
   21.0797  -17.5417    8.1547 C   0  0  0  0  0  0  0  0  0  0  0  0
   20.0388  -17.1341    7.2311 C   0  0  0  0  0  0  0  0  0  0  0  0
   19.2064  -18.2304    6.6153 C   0  0  2  0  0  0  0  0  0  0  0  0
   18.2691  -17.4864    5.7309 N   0  0  0  0  0  0  0  0  0  0  0  0
   18.3663  -18.9567    7.5724 C   0  0  0  0  0  0  0  0  0  0  0  0
   17.3073  -18.4121    8.0360 O   0  0  0  0  0  0  0  0  0  0  0  0
   22.3164  -16.9245    8.0861 C   0  0  0  0  0  0  0  0  0  0  0  0
   23.3546  -17.2636    8.9382 C   0  0  0  0  0  0  0  0  0  0  0  0
   18.6524  -20.2707    8.0337 N   0  0  0  0  0  0  0  0  0  0  0  0
   17.8044  -21.3970    7.7610 C   0  0  1  0  0  0  0  0  0  0  0  0
   16.3785  -20.8234    7.6640 C   0  0  0  0  0  0  0  0  0  0  0  0
   15.8283  -20.5599    9.0030 C   0  0  0  0  0  0  0  0  0  0  0  0
   15.3491  -19.3894    9.5485 C   0  0  0  0  0  0  0  0  0  0  0  0
   14.9457  -19.6444   10.8259 N   0  0  0  0  0  0  0  0  0  0  0  0
   15.1687  -20.9390   11.0664 C   0  0  0  0  0  0  0  0  0  0  0  0
   15.7037  -21.4994    9.9650 N   0  0  0  0  0  0  0  0  0  0  0  0
   18.1323  -22.1553    6.5464 C   0  0  0  0  0  0  0  0  0  0  0  0
   17.2939  -23.2052    6.1116 O   0  0  0  0  0  0  0  0  0  0  0  0
   19.1296  -21.9688    5.8052 O   0  0  0  0  0  0  0  0  0  0  0  0
  2  1  1  6
  3  2  1  0
  4  2  1  0
  5  4  1  0
  5  6  1  1
  7  5  1  0
  7  8  2  0
  9 10  1  0
 10 20  2  0
 10 11  1  0
 11 12  2  0
 12 13  1  0
 13 14  1  0
 15 14  1  1
 15 16  1  0
 16  7  1  0
 17 21  1  0
 17 15  1  0
 18 17  2  0
 19 13  2  0
 20 19  1  0
 22 21  1  0
 22 29  1  0
 22 23  1  6
 24 23  1  0
 24 25  2  0
 26 25  1  0
 27 26  1  0
 28 27  2  0
 28 24  1  0
 29 31  2  0
 29 30  1  0
M  END
$$$$
