LYH.pdb
     RDKit          3D

 31 32  0  0  1  0  0  0  0  0999 V2000
   25.5608  -17.0233  -21.1227 C   0  0  0  0  0  0  0  0  0  0  0  0
   26.7038  -17.5594  -20.3050 C   0  0  1  0  0  0  0  0  0  0  0  0
   27.5168  -16.3918  -19.7940 C   0  0  0  0  0  0  0  0  0  0  0  0
   26.2705  -18.4978  -19.2259 C   0  0  0  0  0  0  0  0  0  0  0  0
   27.4198  -18.9682  -18.3613 C   0  0  2  0  0  0  0  0  0  0  0  0
   28.4119  -19.6149  -19.1688 N   0  0  0  0  0  0  0  0  0  0  0  0
   26.8879  -19.8519  -17.2909 C   0  0  0  0  0  0  0  0  0  0  0  0
   26.6438  -21.0709  -17.4888 O   0  0  0  0  0  0  0  0  0  0  0  0
   25.0891  -21.3935   -8.6849 O   0  0  0  0  0  0  0  0  0  0  0  0
   25.5223  -20.9433   -9.9220 C   0  0  0  0  0  0  0  0  0  0  0  0
   26.5987  -21.4984  -10.5658 C   0  0  0  0  0  0  0  0  0  0  0  0
   27.0282  -21.0493  -11.7963 C   0  0  0  0  0  0  0  0  0  0  0  0
   26.3536  -20.0121  -12.3938 C   0  0  0  0  0  0  0  0  0  0  0  0
   26.7514  -19.4924  -13.6877 C   0  0  0  0  0  0  0  0  0  0  0  0
   26.0957  -20.1054  -14.8994 C   0  0  2  0  0  0  0  0  0  0  0  0
   26.6526  -19.3072  -16.0250 N   0  0  0  0  0  0  0  0  0  0  0  0
   24.6424  -19.9202  -14.9544 C   0  0  0  0  0  0  0  0  0  0  0  0
   24.1532  -18.7588  -15.1662 O   0  0  0  0  0  0  0  0  0  0  0  0
   25.2667  -19.4474  -11.7497 C   0  0  0  0  0  0  0  0  0  0  0  0
   24.8318  -19.8955  -10.5132 C   0  0  0  0  0  0  0  0  0  0  0  0
   23.7062  -20.9771  -14.7885 N   0  0  0  0  0  0  0  0  0  0  0  0
   22.2906  -20.7589  -14.6862 C   0  0  1  0  0  0  0  0  0  0  0  0
   21.6503  -21.7423  -15.6834 C   0  0  0  0  0  0  0  0  0  0  0  0
   21.6848  -21.1981  -17.0501 C   0  0  0  0  0  0  0  0  0  0  0  0
   22.1136  -19.9702  -17.5034 C   0  0  0  0  0  0  0  0  0  0  0  0
   21.9490  -19.9303  -18.8565 N   0  0  0  0  0  0  0  0  0  0  0  0
   21.4316  -21.1027  -19.2327 C   0  0  0  0  0  0  0  0  0  0  0  0
   21.2692  -21.8756  -18.1419 N   0  0  0  0  0  0  0  0  0  0  0  0
   21.7177  -20.9465  -13.3465 C   0  0  0  0  0  0  0  0  0  0  0  0
   20.6838  -20.1013  -12.8871 O   0  0  0  0  0  0  0  0  0  0  0  0
   22.0594  -21.8218  -12.5124 O   0  0  0  0  0  0  0  0  0  0  0  0
  2  1  1  1
  3  2  1  0
  4  2  1  0
  5  4  1  0
  5  6  1  6
  7  5  1  0
  7  8  2  0
  9 10  1  0
 10 20  2  0
 10 11  1  0
 11 12  2  0
 12 13  1  0
 13 14  1  0
 15 14  1  1
 15 16  1  0
 16  7  1  0
 17 21  1  0
 17 15  1  0
 18 17  2  0
 19 13  2  0
 20 19  1  0
 22 21  1  0
 22 29  1  0
 22 23  1  6
 24 23  1  0
 24 25  2  0
 26 25  1  0
 27 26  1  0
 28 27  2  0
 28 24  1  0
 29 31  2  0
 29 30  1  0
M  END
$$$$
