LYH.pdb
     RDKit          3D

 31 32  0  0  1  0  0  0  0  0999 V2000
   19.8709  -11.0495  -19.0722 C   0  0  0  0  0  0  0  0  0  0  0  0
   19.4858  -11.0507  -17.6181 C   0  0  1  0  0  0  0  0  0  0  0  0
   18.7780   -9.7513  -17.3085 C   0  0  0  0  0  0  0  0  0  0  0  0
   18.7085  -12.2608  -17.2128 C   0  0  0  0  0  0  0  0  0  0  0  0
   18.3064  -12.2382  -15.7542 C   0  0  2  0  0  0  0  0  0  0  0  0
   19.4728  -12.2416  -14.9210 N   0  0  0  0  0  0  0  0  0  0  0  0
   17.4066  -13.3901  -15.4841 C   0  0  0  0  0  0  0  0  0  0  0  0
   16.9875  -14.1421  -16.4025 O   0  0  0  0  0  0  0  0  0  0  0  0
   20.6940  -19.2997  -13.8307 O   0  0  0  0  0  0  0  0  0  0  0  0
   19.7194  -18.3589  -13.5378 C   0  0  0  0  0  0  0  0  0  0  0  0
   18.3870  -18.6795  -13.4838 C   0  0  0  0  0  0  0  0  0  0  0  0
   17.4189  -17.7424  -13.1922 C   0  0  0  0  0  0  0  0  0  0  0  0
   17.8053  -16.4466  -12.9484 C   0  0  0  0  0  0  0  0  0  0  0  0
   16.8391  -15.4120  -12.6343 C   0  0  0  0  0  0  0  0  0  0  0  0
   16.1217  -14.7737  -13.7970 C   0  0  2  0  0  0  0  0  0  0  0  0
   17.0157  -13.6427  -14.1657 N   0  0  0  0  0  0  0  0  0  0  0  0
   14.8316  -14.1705  -13.4492 C   0  0  0  0  0  0  0  0  0  0  0  0
   14.7282  -12.9017  -13.3370 O   0  0  0  0  0  0  0  0  0  0  0  0
   19.1481  -16.1163  -13.0013 C   0  0  0  0  0  0  0  0  0  0  0  0
   20.1242  -17.0547  -13.2939 C   0  0  0  0  0  0  0  0  0  0  0  0
   13.6453  -14.9213  -13.2250 N   0  0  0  0  0  0  0  0  0  0  0  0
   12.3551  -14.3134  -13.0580 C   0  0  1  0  0  0  0  0  0  0  0  0
   12.1520  -13.4322  -14.3045 C   0  0  0  0  0  0  0  0  0  0  0  0
   11.5295  -12.1491  -13.9422 C   0  0  0  0  0  0  0  0  0  0  0  0
   11.1680  -11.6580  -12.7071 C   0  0  0  0  0  0  0  0  0  0  0  0
   10.6255  -10.4188  -12.8795 N   0  0  0  0  0  0  0  0  0  0  0  0
   10.6499  -10.1483  -14.1872 C   0  0  0  0  0  0  0  0  0  0  0  0
   11.1968  -11.1935  -14.8366 N   0  0  0  0  0  0  0  0  0  0  0  0
   11.2316  -15.2476  -12.9058 C   0  0  0  0  0  0  0  0  0  0  0  0
   10.1593  -14.9400  -12.0398 O   0  0  0  0  0  0  0  0  0  0  0  0
   11.1050  -16.3529  -13.4897 O   0  0  0  0  0  0  0  0  0  0  0  0
  2  1  1  6
  3  2  1  0
  4  2  1  0
  5  4  1  0
  5  6  1  1
  7  5  1  0
  7  8  2  0
  9 10  1  0
 10 20  2  0
 10 11  1  0
 11 12  2  0
 12 13  1  0
 13 14  1  0
 15 14  1  1
 15 16  1  0
 16  7  1  0
 17 21  1  0
 17 15  1  0
 18 17  2  0
 19 13  2  0
 20 19  1  0
 22 21  1  0
 22 29  1  0
 22 23  1  6
 24 23  1  0
 24 25  2  0
 26 25  1  0
 27 26  1  0
 28 27  2  0
 28 24  1  0
 29 31  2  0
 29 30  1  0
M  END
$$$$
