LYH.pdb
     RDKit          3D

 31 32  0  0  1  0  0  0  0  0999 V2000
   29.1033  -21.9156  -21.0457 C   0  0  0  0  0  0  0  0  0  0  0  0
   28.6573  -20.8015  -20.1389 C   0  0  1  0  0  0  0  0  0  0  0  0
   28.1270  -19.6720  -20.9924 C   0  0  0  0  0  0  0  0  0  0  0  0
   27.6994  -21.2463  -19.0819 C   0  0  0  0  0  0  0  0  0  0  0  0
   27.2873  -20.1242  -18.1541 C   0  0  2  0  0  0  0  0  0  0  0  0
   28.4274  -19.3282  -17.8060 N   0  0  0  0  0  0  0  0  0  0  0  0
   26.6105  -20.7055  -16.9652 C   0  0  0  0  0  0  0  0  0  0  0  0
   25.7170  -21.5863  -17.0673 O   0  0  0  0  0  0  0  0  0  0  0  0
   25.4273  -20.6693   -8.0886 O   0  0  0  0  0  0  0  0  0  0  0  0
   25.8806  -20.5603   -9.3937 C   0  0  0  0  0  0  0  0  0  0  0  0
   25.9565  -19.3543  -10.0426 C   0  0  0  0  0  0  0  0  0  0  0  0
   26.4077  -19.2478  -11.3409 C   0  0  0  0  0  0  0  0  0  0  0  0
   26.7930  -20.3887  -12.0026 C   0  0  0  0  0  0  0  0  0  0  0  0
   27.2786  -20.3476  -13.3683 C   0  0  0  0  0  0  0  0  0  0  0  0
   26.2936  -20.7041  -14.4530 C   0  0  2  0  0  0  0  0  0  0  0  0
   26.9814  -20.2562  -15.6942 N   0  0  0  0  0  0  0  0  0  0  0  0
   25.0370  -19.9512  -14.3947 C   0  0  0  0  0  0  0  0  0  0  0  0
   25.0051  -18.7300  -14.7696 O   0  0  0  0  0  0  0  0  0  0  0  0
   26.7189  -21.6087  -11.3537 C   0  0  0  0  0  0  0  0  0  0  0  0
   26.2661  -21.7204  -10.0493 C   0  0  0  0  0  0  0  0  0  0  0  0
   23.8080  -20.5027  -13.9401 N   0  0  0  0  0  0  0  0  0  0  0  0
   22.5679  -19.7795  -13.9701 C   0  0  1  0  0  0  0  0  0  0  0  0
   22.3246  -19.4430  -15.4531 C   0  0  0  0  0  0  0  0  0  0  0  0
   21.1108  -18.6265  -15.6120 C   0  0  0  0  0  0  0  0  0  0  0  0
   20.6491  -17.5707  -14.8574 C   0  0  0  0  0  0  0  0  0  0  0  0
   19.4755  -17.1363  -15.3992 N   0  0  0  0  0  0  0  0  0  0  0  0
   19.2160  -17.9026  -16.4619 C   0  0  0  0  0  0  0  0  0  0  0  0
   20.2039  -18.8079  -16.5960 N   0  0  0  0  0  0  0  0  0  0  0  0
   21.4091  -20.4891  -13.4119 C   0  0  0  0  0  0  0  0  0  0  0  0
   20.3373  -19.7683  -12.8408 O   0  0  0  0  0  0  0  0  0  0  0  0
   21.2499  -21.7350  -13.3809 O   0  0  0  0  0  0  0  0  0  0  0  0
  2  1  1  6
  3  2  1  0
  4  2  1  0
  5  4  1  0
  5  6  1  1
  7  5  1  0
  7  8  2  0
  9 10  1  0
 10 20  2  0
 10 11  1  0
 11 12  2  0
 12 13  1  0
 13 14  1  0
 15 14  1  1
 15 16  1  0
 16  7  1  0
 17 21  1  0
 17 15  1  0
 18 17  2  0
 19 13  2  0
 20 19  1  0
 22 21  1  0
 22 29  1  0
 22 23  1  6
 24 23  1  0
 24 25  2  0
 26 25  1  0
 27 26  1  0
 28 27  2  0
 28 24  1  0
 29 31  2  0
 29 30  1  0
M  END
$$$$
