LYH.pdb
     RDKit          3D

 31 32  0  0  1  0  0  0  0  0999 V2000
   25.2364  -20.1229  -18.5734 C   0  0  0  0  0  0  0  0  0  0  0  0
   26.1470  -21.0694  -17.8402 C   0  0  1  0  0  0  0  0  0  0  0  0
   27.5737  -20.6087  -18.0340 C   0  0  0  0  0  0  0  0  0  0  0  0
   25.7740  -21.2571  -16.4054 C   0  0  0  0  0  0  0  0  0  0  0  0
   26.7249  -22.1743  -15.6675 C   0  0  2  0  0  0  0  0  0  0  0  0
   26.7671  -23.4573  -16.3052 N   0  0  0  0  0  0  0  0  0  0  0  0
   26.3077  -22.2564  -14.2432 C   0  0  0  0  0  0  0  0  0  0  0  0
   25.4223  -23.0602  -13.8500 O   0  0  0  0  0  0  0  0  0  0  0  0
   27.4694  -19.7671   -5.7420 O   0  0  0  0  0  0  0  0  0  0  0  0
   27.5836  -20.0880   -7.0854 C   0  0  0  0  0  0  0  0  0  0  0  0
   28.4529  -21.0485   -7.5360 C   0  0  0  0  0  0  0  0  0  0  0  0
   28.5652  -21.3664   -8.8727 C   0  0  0  0  0  0  0  0  0  0  0  0
   27.7792  -20.6973   -9.7797 C   0  0  0  0  0  0  0  0  0  0  0  0
   27.8460  -20.9834  -11.1996 C   0  0  0  0  0  0  0  0  0  0  0  0
   26.5656  -21.4157  -11.8687 C   0  0  2  0  0  0  0  0  0  0  0  0
   26.9215  -21.4114  -13.3135 N   0  0  0  0  0  0  0  0  0  0  0  0
   25.4604  -20.4635  -11.7232 C   0  0  0  0  0  0  0  0  0  0  0  0
   25.4903  -19.3487  -12.3471 O   0  0  0  0  0  0  0  0  0  0  0  0
   26.9000  -19.7270   -9.3318 C   0  0  0  0  0  0  0  0  0  0  0  0
   26.7840  -19.4044   -7.9896 C   0  0  0  0  0  0  0  0  0  0  0  0
   24.3160  -20.7018  -10.9140 N   0  0  0  0  0  0  0  0  0  0  0  0
   23.0083  -20.2094  -11.2446 C   0  0  1  0  0  0  0  0  0  0  0  0
   22.6485  -20.8699  -12.5885 C   0  0  0  0  0  0  0  0  0  0  0  0
   21.3025  -20.4670  -13.0257 C   0  0  0  0  0  0  0  0  0  0  0  0
   20.3757  -19.6579  -12.4062 C   0  0  0  0  0  0  0  0  0  0  0  0
   19.2720  -19.5807  -13.2032 N   0  0  0  0  0  0  0  0  0  0  0  0
   19.5078  -20.3224  -14.2885 C   0  0  0  0  0  0  0  0  0  0  0  0
   20.7373  -20.8623  -14.1867 N   0  0  0  0  0  0  0  0  0  0  0  0
   21.9620  -20.4772  -10.2489 C   0  0  0  0  0  0  0  0  0  0  0  0
   22.2309  -21.3017   -9.1343 O   0  0  0  0  0  0  0  0  0  0  0  0
   20.7869  -20.0331  -10.2736 O   0  0  0  0  0  0  0  0  0  0  0  0
  2  1  1  1
  3  2  1  0
  4  2  1  0
  5  4  1  0
  5  6  1  6
  7  5  1  0
  7  8  2  0
  9 10  1  0
 10 20  2  0
 10 11  1  0
 11 12  2  0
 12 13  1  0
 13 14  1  0
 15 14  1  1
 15 16  1  0
 16  7  1  0
 17 21  1  0
 17 15  1  0
 18 17  2  0
 19 13  2  0
 20 19  1  0
 22 21  1  0
 22 29  1  0
 22 23  1  6
 24 23  1  0
 24 25  2  0
 26 25  1  0
 27 26  1  0
 28 27  2  0
 28 24  1  0
 29 31  2  0
 29 30  1  0
M  END
$$$$
