FEQ.pdb
     RDKit          3D

 30 30  0  0  1  0  0  0  0  0999 V2000
    5.7980  -17.1536   25.0093 N   0  0  0  0  0  0  0  0  0  0  0  0
    6.8279  -16.1870   24.7345 C   0  0  1  0  0  0  0  0  0  0  0  0
    7.2181  -15.5357   26.0366 C   0  0  0  0  0  0  0  0  0  0  0  0
    6.8922  -14.1003   25.9177 C   0  0  0  0  0  0  0  0  0  0  0  0
    7.6532  -13.2392   25.1661 C   0  0  0  0  0  0  0  0  0  0  0  0
    7.3252  -11.8822   25.0698 C   0  0  0  0  0  0  0  0  0  0  0  0
    6.2154  -11.3815   25.7384 C   0  0  0  0  0  0  0  0  0  0  0  0
    5.4557  -12.2475   26.4901 C   0  0  0  0  0  0  0  0  0  0  0  0
    5.8007  -13.5847   26.5696 C   0  0  0  0  0  0  0  0  0  0  0  0
    7.9688  -16.7650   23.9987 C   0  0  0  0  0  0  0  0  0  0  0  0
    8.3601  -17.9380   24.2726 O   0  0  0  0  0  0  0  0  0  0  0  0
    8.6758  -16.0784   22.9784 N   0  0  0  0  0  0  0  0  0  0  0  0
    9.9567  -16.5177   22.4395 C   0  0  1  0  0  0  0  0  0  0  0  0
   10.2945  -15.8053   21.1811 C   0  0  0  0  0  0  0  0  0  0  0  0
   11.5937  -16.1183   20.5443 C   0  0  0  0  0  0  0  0  0  0  0  0
   11.5703  -16.9628   19.3594 C   0  0  0  0  0  0  0  0  0  0  0  0
   11.5669  -16.4789   18.2021 O   0  0  0  0  0  0  0  0  0  0  0  0
   11.0134  -16.6013   23.4469 C   0  0  0  0  0  0  0  0  0  0  0  0
   11.3007  -15.6057   24.1473 O   0  0  0  0  0  0  0  0  0  0  0  0
   11.5507  -18.3453   19.4670 O   0  0  0  0  0  0  0  0  0  0  0  0
    9.3177  -19.3141   27.8921 N   0  0  0  0  0  0  0  0  0  0  0  0
   10.6012  -18.8138   28.2951 C   0  0  0  0  0  0  0  0  0  0  0  0
   10.7177  -18.5525   29.5143 O   0  0  0  0  0  0  0  0  0  0  0  0
   11.6712  -18.6403   27.2919 C   0  0  0  0  0  0  0  0  0  0  0  0
   11.2140  -18.1959   25.9490 C   0  0  0  0  0  0  0  0  0  0  0  0
   12.2878  -18.1417   24.9147 C   0  0  2  0  0  0  0  0  0  0  0  0
   11.7114  -17.8208   23.6251 N   0  0  0  0  0  0  0  0  0  0  0  0
   13.1593  -19.3315   24.8527 C   0  0  0  0  0  0  0  0  0  0  0  0
   13.8426  -19.6304   25.8879 O   0  0  0  0  0  0  0  0  0  0  0  0
   13.2913  -20.1512   23.7522 O   0  0  0  0  0  0  0  0  0  0  0  0
  2  3  1  0
  2  1  1  1
  4  3  1  0
  4  9  2  0
  5  4  1  0
  6  5  2  0
  6  7  1  0
  7  8  2  0
  8  9  1  0
 10  2  1  0
 11 10  2  0
 12 10  1  0
 13 12  1  0
 14 15  1  0
 13 14  1  6
 15 16  1  0
 16 17  2  0
 18 27  1  0
 18 13  1  0
 19 18  2  0
 20 16  1  0
 22 24  1  0
 22 21  1  0
 23 22  2  0
 26 25  1  1
 25 24  1  0
 26 27  1  0
 28 26  1  0
 29 28  2  0
 30 28  1  0
M  END
$$$$
