FEQ.pdb
     RDKit          3D

 30 30  0  0  1  0  0  0  0  0999 V2000
    5.5386  -16.1251   25.9287 N   0  0  0  0  0  0  0  0  0  0  0  0
    6.7532  -16.1097   25.1572 C   0  0  1  0  0  0  0  0  0  0  0  0
    7.7815  -15.3133   25.9190 C   0  0  0  0  0  0  0  0  0  0  0  0
    7.2973  -13.9192   25.9719 C   0  0  0  0  0  0  0  0  0  0  0  0
    7.4327  -13.0591   24.9100 C   0  0  0  0  0  0  0  0  0  0  0  0
    6.9672  -11.7415   24.9844 C   0  0  0  0  0  0  0  0  0  0  0  0
    6.3559  -11.2798   26.1431 C   0  0  0  0  0  0  0  0  0  0  0  0
    6.2222  -12.1446   27.2044 C   0  0  0  0  0  0  0  0  0  0  0  0
    6.6906  -13.4424   27.1063 C   0  0  0  0  0  0  0  0  0  0  0  0
    7.2099  -17.4635   24.7885 C   0  0  0  0  0  0  0  0  0  0  0  0
    7.0410  -18.4227   25.5980 O   0  0  0  0  0  0  0  0  0  0  0  0
    7.8421  -17.7719   23.5566 N   0  0  0  0  0  0  0  0  0  0  0  0
    8.3123  -19.1031   23.1946 C   0  0  1  0  0  0  0  0  0  0  0  0
    7.6684  -19.5910   21.9486 C   0  0  0  0  0  0  0  0  0  0  0  0
    7.1193  -18.5778   21.0193 C   0  0  0  0  0  0  0  0  0  0  0  0
    6.5602  -19.0567   19.7640 C   0  0  0  0  0  0  0  0  0  0  0  0
    7.2338  -19.7437   18.9592 O   0  0  0  0  0  0  0  0  0  0  0  0
    9.7647  -19.2498   23.2803 C   0  0  0  0  0  0  0  0  0  0  0  0
   10.4814  -19.0540   22.2741 O   0  0  0  0  0  0  0  0  0  0  0  0
    5.2511  -18.7686   19.4083 O   0  0  0  0  0  0  0  0  0  0  0  0
   12.7017  -15.7513   22.2992 N   0  0  0  0  0  0  0  0  0  0  0  0
   13.4503  -15.9412   23.5090 C   0  0  0  0  0  0  0  0  0  0  0  0
   14.3932  -15.1370   23.6896 O   0  0  0  0  0  0  0  0  0  0  0  0
   13.0843  -17.0300   24.4374 C   0  0  0  0  0  0  0  0  0  0  0  0
   11.8754  -17.8070   24.0568 C   0  0  0  0  0  0  0  0  0  0  0  0
   11.5615  -18.9494   24.9634 C   0  0  2  0  0  0  0  0  0  0  0  0
   10.3565  -19.6160   24.5139 N   0  0  0  0  0  0  0  0  0  0  0  0
   11.5072  -18.6134   26.3998 C   0  0  0  0  0  0  0  0  0  0  0  0
   11.1032  -17.4491   26.7298 O   0  0  0  0  0  0  0  0  0  0  0  0
   11.8622  -19.4699   27.4201 O   0  0  0  0  0  0  0  0  0  0  0  0
  2  3  1  0
  2  1  1  1
  4  3  1  0
  4  9  2  0
  5  4  1  0
  6  5  2  0
  6  7  1  0
  7  8  2  0
  8  9  1  0
 10  2  1  0
 11 10  2  0
 12 10  1  0
 13 12  1  0
 14 15  1  0
 13 14  1  6
 15 16  1  0
 16 17  2  0
 18 27  1  0
 18 13  1  0
 19 18  2  0
 20 16  1  0
 22 24  1  0
 22 21  1  0
 23 22  2  0
 26 25  1  6
 25 24  1  0
 26 27  1  0
 28 26  1  0
 29 28  2  0
 30 28  1  0
M  END
$$$$
