FEQ.pdb
     RDKit          3D

 30 30  0  0  1  0  0  0  0  0999 V2000
    8.1700  -16.8975   20.9227 N   0  0  0  0  0  0  0  0  0  0  0  0
    9.4062  -16.4869   20.3112 C   0  0  1  0  0  0  0  0  0  0  0  0
    9.6908  -15.0692   20.7369 C   0  0  0  0  0  0  0  0  0  0  0  0
    8.6124  -14.2259   20.1831 C   0  0  0  0  0  0  0  0  0  0  0  0
    8.4634  -14.0257   18.8328 C   0  0  0  0  0  0  0  0  0  0  0  0
    7.4343  -13.2208   18.3316 C   0  0  0  0  0  0  0  0  0  0  0  0
    6.5402  -12.6072   19.1996 C   0  0  0  0  0  0  0  0  0  0  0  0
    6.6928  -12.8105   20.5514 C   0  0  0  0  0  0  0  0  0  0  0  0
    7.7184  -13.6106   21.0222 C   0  0  0  0  0  0  0  0  0  0  0  0
   10.5152  -17.4200   20.5880 C   0  0  0  0  0  0  0  0  0  0  0  0
   10.6085  -17.9593   21.7302 O   0  0  0  0  0  0  0  0  0  0  0  0
   11.5102  -17.7633   19.6370 N   0  0  0  0  0  0  0  0  0  0  0  0
   12.9102  -17.9921   19.9712 C   0  0  1  0  0  0  0  0  0  0  0  0
   13.7023  -18.3777   18.7758 C   0  0  0  0  0  0  0  0  0  0  0  0
   14.0404  -17.3122   17.8051 C   0  0  0  0  0  0  0  0  0  0  0  0
   14.8059  -17.6985   16.6294 C   0  0  0  0  0  0  0  0  0  0  0  0
   14.2482  -18.0134   15.5509 O   0  0  0  0  0  0  0  0  0  0  0  0
   13.4813  -16.9520   20.8259 C   0  0  0  0  0  0  0  0  0  0  0  0
   12.8815  -15.8668   20.9894 O   0  0  0  0  0  0  0  0  0  0  0  0
   16.1920  -17.7329   16.6583 O   0  0  0  0  0  0  0  0  0  0  0  0
   12.0348  -17.3615   25.7222 N   0  0  0  0  0  0  0  0  0  0  0  0
   13.0985  -16.4529   26.0431 C   0  0  0  0  0  0  0  0  0  0  0  0
   13.0790  -15.9919   27.2073 O   0  0  0  0  0  0  0  0  0  0  0  0
   14.1166  -16.1232   25.0252 C   0  0  0  0  0  0  0  0  0  0  0  0
   13.9401  -16.7968   23.7118 C   0  0  0  0  0  0  0  0  0  0  0  0
   15.0206  -16.5184   22.7216 C   0  0  2  0  0  0  0  0  0  0  0  0
   14.7219  -17.1823   21.4693 N   0  0  0  0  0  0  0  0  0  0  0  0
   16.3903  -16.8072   23.1903 C   0  0  0  0  0  0  0  0  0  0  0  0
   16.9199  -16.0052   24.0293 O   0  0  0  0  0  0  0  0  0  0  0  0
   17.1462  -17.8873   22.7872 O   0  0  0  0  0  0  0  0  0  0  0  0
  2  3  1  0
  2  1  1  1
  4  3  1  0
  4  9  2  0
  5  4  1  0
  6  5  2  0
  6  7  1  0
  7  8  2  0
  8  9  1  0
 10  2  1  0
 11 10  2  0
 12 10  1  0
 13 12  1  0
 14 15  1  0
 13 14  1  6
 15 16  1  0
 16 17  2  0
 18 27  1  0
 18 13  1  0
 19 18  2  0
 20 16  1  0
 22 24  1  0
 22 21  1  0
 23 22  2  0
 26 25  1  1
 25 24  1  0
 26 27  1  0
 28 26  1  0
 29 28  2  0
 30 28  1  0
M  END
$$$$
