FEQ.pdb
     RDKit          3D

 30 30  0  0  1  0  0  0  0  0999 V2000
    5.6068  -17.2684   25.7693 N   0  0  0  0  0  0  0  0  0  0  0  0
    6.3016  -16.0680   25.3861 C   0  0  1  0  0  0  0  0  0  0  0  0
    6.9828  -15.5106   26.6097 C   0  0  0  0  0  0  0  0  0  0  0  0
    6.7731  -14.0488   26.5939 C   0  0  0  0  0  0  0  0  0  0  0  0
    7.7905  -13.1688   26.3180 C   0  0  0  0  0  0  0  0  0  0  0  0
    7.5678  -11.7873   26.3104 C   0  0  0  0  0  0  0  0  0  0  0  0
    6.3036  -11.2809   26.5840 C   0  0  0  0  0  0  0  0  0  0  0  0
    5.2873  -12.1659   26.8598 C   0  0  0  0  0  0  0  0  0  0  0  0
    5.5328  -13.5272   26.8613 C   0  0  0  0  0  0  0  0  0  0  0  0
    7.2152  -16.2788   24.2467 C   0  0  0  0  0  0  0  0  0  0  0  0
    8.0322  -17.2463   24.2707 O   0  0  0  0  0  0  0  0  0  0  0  0
    7.2415  -15.4499   23.0959 N   0  0  0  0  0  0  0  0  0  0  0  0
    8.2450  -15.5505   22.0437 C   0  0  1  0  0  0  0  0  0  0  0  0
    7.9063  -14.6919   20.8804 C   0  0  0  0  0  0  0  0  0  0  0  0
    8.8651  -14.6565   19.7530 C   0  0  0  0  0  0  0  0  0  0  0  0
    8.4691  -13.9191   18.5626 C   0  0  0  0  0  0  0  0  0  0  0  0
    7.6163  -14.3678   17.7597 O   0  0  0  0  0  0  0  0  0  0  0  0
    9.6180  -15.4667   22.5400 C   0  0  0  0  0  0  0  0  0  0  0  0
   10.1199  -14.3585   22.8302 O   0  0  0  0  0  0  0  0  0  0  0  0
    9.0248  -12.6827   18.2697 O   0  0  0  0  0  0  0  0  0  0  0  0
   12.9923  -18.8850   26.7814 N   0  0  0  0  0  0  0  0  0  0  0  0
   11.6877  -18.8389   26.1850 C   0  0  0  0  0  0  0  0  0  0  0  0
   10.9169  -19.7726   26.5051 O   0  0  0  0  0  0  0  0  0  0  0  0
   11.3385  -17.7389   25.2633 C   0  0  0  0  0  0  0  0  0  0  0  0
   12.1030  -17.7142   23.9887 C   0  0  0  0  0  0  0  0  0  0  0  0
   11.7690  -16.5736   23.0870 C   0  0  2  0  0  0  0  0  0  0  0  0
   10.3780  -16.6524   22.6904 N   0  0  0  0  0  0  0  0  0  0  0  0
   12.6681  -16.4061   21.9283 C   0  0  0  0  0  0  0  0  0  0  0  0
   12.2765  -16.8438   20.7957 O   0  0  0  0  0  0  0  0  0  0  0  0
   13.9086  -15.8069   21.9777 O   0  0  0  0  0  0  0  0  0  0  0  0
  2  3  1  0
  2  1  1  1
  4  3  1  0
  4  9  2  0
  5  4  1  0
  6  5  2  0
  6  7  1  0
  7  8  2  0
  8  9  1  0
 10  2  1  0
 11 10  2  0
 12 10  1  0
 13 12  1  0
 14 15  1  0
 13 14  1  6
 15 16  1  0
 16 17  2  0
 18 27  1  0
 18 13  1  0
 19 18  2  0
 20 16  1  0
 22 24  1  0
 22 21  1  0
 23 22  2  0
 26 25  1  6
 25 24  1  0
 26 27  1  0
 28 26  1  0
 29 28  2  0
 30 28  1  0
M  END
$$$$
