FEQ.pdb
     RDKit          3D

 30 30  0  0  1  0  0  0  0  0999 V2000
    5.7536  -17.5569   23.8940 N   0  0  0  0  0  0  0  0  0  0  0  0
    6.8213  -16.6147   24.1011 C   0  0  1  0  0  0  0  0  0  0  0  0
    6.7402  -16.1203   25.5227 C   0  0  0  0  0  0  0  0  0  0  0  0
    6.6814  -14.6458   25.4657 C   0  0  0  0  0  0  0  0  0  0  0  0
    7.5144  -13.9133   24.6563 C   0  0  0  0  0  0  0  0  0  0  0  0
    7.4410  -12.5163   24.6205 C   0  0  0  0  0  0  0  0  0  0  0  0
    6.5167  -11.8437   25.4096 C   0  0  0  0  0  0  0  0  0  0  0  0
    5.6841  -12.5813   26.2189 C   0  0  0  0  0  0  0  0  0  0  0  0
    5.7762  -13.9614   26.2366 C   0  0  0  0  0  0  0  0  0  0  0  0
    8.1427  -17.1647   23.7422 C   0  0  0  0  0  0  0  0  0  0  0  0
    8.3854  -18.3912   23.9439 O   0  0  0  0  0  0  0  0  0  0  0  0
    9.1872  -16.3929   23.1716 N   0  0  0  0  0  0  0  0  0  0  0  0
   10.5227  -16.9080   22.8975 C   0  0  1  0  0  0  0  0  0  0  0  0
   11.1725  -16.1772   21.7800 C   0  0  0  0  0  0  0  0  0  0  0  0
   12.5118  -16.6369   21.3479 C   0  0  0  0  0  0  0  0  0  0  0  0
   12.7022  -16.8988   19.9292 C   0  0  0  0  0  0  0  0  0  0  0  0
   12.4156  -18.0073   19.4168 O   0  0  0  0  0  0  0  0  0  0  0  0
   11.3270  -17.1087   24.1022 C   0  0  0  0  0  0  0  0  0  0  0  0
   12.4138  -17.7249   24.0426 O   0  0  0  0  0  0  0  0  0  0  0  0
   13.2118  -15.9243   19.0843 O   0  0  0  0  0  0  0  0  0  0  0  0
   11.1769  -14.2092   29.5546 N   0  0  0  0  0  0  0  0  0  0  0  0
   10.3598  -13.9902   28.3950 C   0  0  0  0  0  0  0  0  0  0  0  0
    9.9225  -12.8247   28.2579 O   0  0  0  0  0  0  0  0  0  0  0  0
   10.0891  -15.1048   27.4646 C   0  0  0  0  0  0  0  0  0  0  0  0
   10.8497  -16.3533   27.7340 C   0  0  0  0  0  0  0  0  0  0  0  0
   11.5935  -16.8924   26.5585 C   0  0  2  0  0  0  0  0  0  0  0  0
   10.8658  -16.5993   25.3407 N   0  0  0  0  0  0  0  0  0  0  0  0
   11.9672  -18.3173   26.6527 C   0  0  0  0  0  0  0  0  0  0  0  0
   12.6794  -18.6876   27.6444 O   0  0  0  0  0  0  0  0  0  0  0  0
   11.6012  -19.2865   25.7431 O   0  0  0  0  0  0  0  0  0  0  0  0
  2  3  1  0
  2  1  1  1
  4  3  1  0
  4  9  2  0
  5  4  1  0
  6  5  2  0
  6  7  1  0
  7  8  2  0
  8  9  1  0
 10  2  1  0
 11 10  2  0
 12 10  1  0
 13 12  1  0
 14 15  1  0
 13 14  1  6
 15 16  1  0
 16 17  2  0
 18 27  1  0
 18 13  1  0
 19 18  2  0
 20 16  1  0
 22 24  1  0
 22 21  1  0
 23 22  2  0
 26 25  1  1
 25 24  1  0
 26 27  1  0
 28 26  1  0
 29 28  2  0
 30 28  1  0
M  END
$$$$
