FEQ.pdb
     RDKit          3D

 30 30  0  0  1  0  0  0  0  0999 V2000
    6.0466  -16.4069   25.2377 N   0  0  0  0  0  0  0  0  0  0  0  0
    7.1690  -15.7405   24.6320 C   0  0  1  0  0  0  0  0  0  0  0  0
    7.7249  -14.7581   25.6311 C   0  0  0  0  0  0  0  0  0  0  0  0
    7.0246  -13.4762   25.4135 C   0  0  0  0  0  0  0  0  0  0  0  0
    7.2978  -12.6693   24.3366 C   0  0  0  0  0  0  0  0  0  0  0  0
    6.6220  -11.4579   24.1525 C   0  0  0  0  0  0  0  0  0  0  0  0
    5.6563  -11.0499   25.0638 C   0  0  0  0  0  0  0  0  0  0  0  0
    5.3856  -11.8612   26.1411 C   0  0  0  0  0  0  0  0  0  0  0  0
    6.0674  -13.0541   26.3010 C   0  0  0  0  0  0  0  0  0  0  0  0
    8.1760  -16.6837   24.1090 C   0  0  0  0  0  0  0  0  0  0  0  0
    8.4656  -17.7218   24.7742 O   0  0  0  0  0  0  0  0  0  0  0  0
    8.8599  -16.5021   22.8795 N   0  0  0  0  0  0  0  0  0  0  0  0
   10.1092  -17.1702   22.5373 C   0  0  1  0  0  0  0  0  0  0  0  0
   10.5436  -16.8440   21.1553 C   0  0  0  0  0  0  0  0  0  0  0  0
   11.8071  -17.4470   20.6741 C   0  0  0  0  0  0  0  0  0  0  0  0
   12.1973  -17.1718   19.2995 C   0  0  0  0  0  0  0  0  0  0  0  0
   11.3536  -17.1009   18.3739 O   0  0  0  0  0  0  0  0  0  0  0  0
   11.1268  -17.0709   23.5828 C   0  0  0  0  0  0  0  0  0  0  0  0
   11.3454  -15.9788   24.1519 O   0  0  0  0  0  0  0  0  0  0  0  0
   13.5274  -16.9759   18.9593 O   0  0  0  0  0  0  0  0  0  0  0  0
   10.0976  -20.1048   28.4066 N   0  0  0  0  0  0  0  0  0  0  0  0
   11.2485  -19.2978   28.6967 C   0  0  0  0  0  0  0  0  0  0  0  0
   11.3623  -18.9326   29.8892 O   0  0  0  0  0  0  0  0  0  0  0  0
   12.1974  -18.9548   27.6181 C   0  0  0  0  0  0  0  0  0  0  0  0
   11.5844  -18.7360   26.2816 C   0  0  0  0  0  0  0  0  0  0  0  0
   12.5370  -18.2743   25.2303 C   0  0  2  0  0  0  0  0  0  0  0  0
   11.8655  -18.2229   23.9478 N   0  0  0  0  0  0  0  0  0  0  0  0
   13.8071  -19.0234   25.1624 C   0  0  0  0  0  0  0  0  0  0  0  0
   14.6944  -18.7833   26.0471 O   0  0  0  0  0  0  0  0  0  0  0  0
   14.1091  -19.9712   24.2080 O   0  0  0  0  0  0  0  0  0  0  0  0
  2  3  1  0
  2  1  1  1
  4  3  1  0
  4  9  2  0
  5  4  1  0
  6  5  2  0
  6  7  1  0
  7  8  2  0
  8  9  1  0
 10  2  1  0
 11 10  2  0
 12 10  1  0
 13 12  1  0
 14 15  1  0
 13 14  1  6
 15 16  1  0
 16 17  2  0
 18 27  1  0
 18 13  1  0
 19 18  2  0
 20 16  1  0
 22 24  1  0
 22 21  1  0
 23 22  2  0
 26 25  1  1
 25 24  1  0
 26 27  1  0
 28 26  1  0
 29 28  2  0
 30 28  1  0
M  END
$$$$
