FEQ.pdb
     RDKit          3D

 30 30  0  0  1  0  0  0  0  0999 V2000
    6.0562  -16.3345   25.3524 N   0  0  0  0  0  0  0  0  0  0  0  0
    7.2412  -15.7808   24.7526 C   0  0  1  0  0  0  0  0  0  0  0  0
    7.9115  -14.8951   25.7717 C   0  0  0  0  0  0  0  0  0  0  0  0
    7.2110  -13.5954   25.7434 C   0  0  0  0  0  0  0  0  0  0  0  0
    6.2552  -13.2615   26.6711 C   0  0  0  0  0  0  0  0  0  0  0  0
    5.6037  -12.0239   26.6228 C   0  0  0  0  0  0  0  0  0  0  0  0
    5.9166  -11.1068   25.6277 C   0  0  0  0  0  0  0  0  0  0  0  0
    6.8746  -11.4452   24.7005 C   0  0  0  0  0  0  0  0  0  0  0  0
    7.5044  -12.6749   24.7694 C   0  0  0  0  0  0  0  0  0  0  0  0
    8.1321  -16.8154   24.1931 C   0  0  0  0  0  0  0  0  0  0  0  0
    8.3798  -17.8586   24.8671 O   0  0  0  0  0  0  0  0  0  0  0  0
    8.7463  -16.7186   22.9180 N   0  0  0  0  0  0  0  0  0  0  0  0
    9.9953  -17.3812   22.5644 C   0  0  1  0  0  0  0  0  0  0  0  0
   10.4313  -17.0295   21.1892 C   0  0  0  0  0  0  0  0  0  0  0  0
   11.6810  -17.6451   20.6882 C   0  0  0  0  0  0  0  0  0  0  0  0
   12.0994  -17.3020   19.3374 C   0  0  0  0  0  0  0  0  0  0  0  0
   13.1143  -17.8158   18.8087 O   0  0  0  0  0  0  0  0  0  0  0  0
   11.0120  -17.3026   23.6125 C   0  0  0  0  0  0  0  0  0  0  0  0
   11.3889  -16.1920   24.0471 O   0  0  0  0  0  0  0  0  0  0  0  0
   11.3856  -16.3868   18.5785 O   0  0  0  0  0  0  0  0  0  0  0  0
   10.9193  -20.3547   28.7705 N   0  0  0  0  0  0  0  0  0  0  0  0
   12.2605  -19.8444   28.8021 C   0  0  0  0  0  0  0  0  0  0  0  0
   12.8515  -19.9537   29.9007 O   0  0  0  0  0  0  0  0  0  0  0  0
   12.8471  -19.2419   27.5879 C   0  0  0  0  0  0  0  0  0  0  0  0
   11.9266  -19.1361   26.4255 C   0  0  0  0  0  0  0  0  0  0  0  0
   12.5014  -18.4347   25.2408 C   0  0  2  0  0  0  0  0  0  0  0  0
   11.5689  -18.4959   24.1340 N   0  0  0  0  0  0  0  0  0  0  0  0
   13.8563  -18.8712   24.8502 C   0  0  0  0  0  0  0  0  0  0  0  0
   14.8290  -18.5729   25.6200 O   0  0  0  0  0  0  0  0  0  0  0  0
   14.1525  -19.5832   23.7075 O   0  0  0  0  0  0  0  0  0  0  0  0
  2  3  1  0
  2  1  1  1
  4  3  1  0
  4  9  2  0
  5  4  1  0
  6  5  2  0
  6  7  1  0
  7  8  2  0
  8  9  1  0
 10  2  1  0
 11 10  2  0
 12 10  1  0
 13 12  1  0
 14 15  1  0
 13 14  1  6
 15 16  1  0
 16 17  2  0
 18 27  1  0
 18 13  1  0
 19 18  2  0
 20 16  1  0
 22 24  1  0
 22 21  1  0
 23 22  2  0
 26 25  1  1
 25 24  1  0
 26 27  1  0
 28 26  1  0
 29 28  2  0
 30 28  1  0
M  END
$$$$
