FEQ.pdb
     RDKit          3D

 30 30  0  0  1  0  0  0  0  0999 V2000
    5.8681  -16.3169   25.3395 N   0  0  0  0  0  0  0  0  0  0  0  0
    7.0454  -15.7201   24.7666 C   0  0  1  0  0  0  0  0  0  0  0  0
    7.6189  -14.7561   25.7736 C   0  0  0  0  0  0  0  0  0  0  0  0
    6.9667  -13.4512   25.5441 C   0  0  0  0  0  0  0  0  0  0  0  0
    5.8211  -13.0820   26.2051 C   0  0  0  0  0  0  0  0  0  0  0  0
    5.2203  -11.8403   25.9696 C   0  0  0  0  0  0  0  0  0  0  0  0
    5.7783  -10.9549   25.0564 C   0  0  0  0  0  0  0  0  0  0  0  0
    6.9259  -11.3286   24.3966 C   0  0  0  0  0  0  0  0  0  0  0  0
    7.5008  -12.5617   24.6467 C   0  0  0  0  0  0  0  0  0  0  0  0
    8.0171  -16.7230   24.2900 C   0  0  0  0  0  0  0  0  0  0  0  0
    8.2372  -17.7595   24.9837 O   0  0  0  0  0  0  0  0  0  0  0  0
    8.7406  -16.6023   23.0758 N   0  0  0  0  0  0  0  0  0  0  0  0
    9.9483  -17.3585   22.7700 C   0  0  1  0  0  0  0  0  0  0  0  0
   10.4649  -17.0403   21.4146 C   0  0  0  0  0  0  0  0  0  0  0  0
   11.7049  -17.7204   20.9770 C   0  0  0  0  0  0  0  0  0  0  0  0
   12.1666  -17.4600   19.6218 C   0  0  0  0  0  0  0  0  0  0  0  0
   11.7782  -18.1474   18.6471 O   0  0  0  0  0  0  0  0  0  0  0  0
   10.9252  -17.3588   23.8581 C   0  0  0  0  0  0  0  0  0  0  0  0
   11.3830  -16.2814   24.2985 O   0  0  0  0  0  0  0  0  0  0  0  0
   13.0604  -16.4336   19.3558 O   0  0  0  0  0  0  0  0  0  0  0  0
   10.3071  -20.5025   28.9538 N   0  0  0  0  0  0  0  0  0  0  0  0
   11.6928  -20.1423   29.0553 C   0  0  0  0  0  0  0  0  0  0  0  0
   12.2350  -20.3959   30.1553 O   0  0  0  0  0  0  0  0  0  0  0  0
   12.3765  -19.5171   27.9051 C   0  0  0  0  0  0  0  0  0  0  0  0
   11.5298  -19.3113   26.7007 C   0  0  0  0  0  0  0  0  0  0  0  0
   12.2093  -18.6005   25.5787 C   0  0  2  0  0  0  0  0  0  0  0  0
   11.3508  -18.5910   24.4120 N   0  0  0  0  0  0  0  0  0  0  0  0
   13.5689  -19.0815   25.2637 C   0  0  0  0  0  0  0  0  0  0  0  0
   13.7175  -19.8416   24.2498 O   0  0  0  0  0  0  0  0  0  0  0  0
   14.6996  -18.7682   25.9875 O   0  0  0  0  0  0  0  0  0  0  0  0
  2  3  1  0
  2  1  1  1
  4  3  1  0
  4  9  2  0
  5  4  1  0
  6  5  2  0
  6  7  1  0
  7  8  2  0
  8  9  1  0
 10  2  1  0
 11 10  2  0
 12 10  1  0
 13 12  1  0
 14 15  1  0
 13 14  1  6
 15 16  1  0
 16 17  2  0
 18 27  1  0
 18 13  1  0
 19 18  2  0
 20 16  1  0
 22 24  1  0
 22 21  1  0
 23 22  2  0
 26 25  1  1
 25 24  1  0
 26 27  1  0
 28 26  1  0
 29 28  2  0
 30 28  1  0
M  END
$$$$
