FEQ.pdb
     RDKit          3D

 30 30  0  0  1  0  0  0  0  0999 V2000
    8.1800  -14.6263   22.6749 N   0  0  0  0  0  0  0  0  0  0  0  0
    8.4537  -15.1877   23.9713 C   0  0  1  0  0  0  0  0  0  0  0  0
    7.1559  -15.2574   24.7347 C   0  0  0  0  0  0  0  0  0  0  0  0
    6.9318  -13.9248   25.3304 C   0  0  0  0  0  0  0  0  0  0  0  0
    6.8119  -13.7426   26.6861 C   0  0  0  0  0  0  0  0  0  0  0  0
    6.5982  -12.4699   27.2272 C   0  0  0  0  0  0  0  0  0  0  0  0
    6.5036  -11.3623   26.3944 C   0  0  0  0  0  0  0  0  0  0  0  0
    6.6244  -11.5493   25.0369 C   0  0  0  0  0  0  0  0  0  0  0  0
    6.8352  -12.8175   24.5264 C   0  0  0  0  0  0  0  0  0  0  0  0
    9.1627  -16.4795   23.8935 C   0  0  0  0  0  0  0  0  0  0  0  0
    8.7285  -17.4717   24.5501 O   0  0  0  0  0  0  0  0  0  0  0  0
   10.3280  -16.6914   23.1129 N   0  0  0  0  0  0  0  0  0  0  0  0
   11.3082  -17.7359   23.3817 C   0  0  1  0  0  0  0  0  0  0  0  0
   12.4006  -17.7333   22.3758 C   0  0  0  0  0  0  0  0  0  0  0  0
   13.4996  -18.7088   22.5555 C   0  0  0  0  0  0  0  0  0  0  0  0
   13.8942  -19.4915   21.3939 C   0  0  0  0  0  0  0  0  0  0  0  0
   13.7944  -20.7418   21.3737 O   0  0  0  0  0  0  0  0  0  0  0  0
   11.7124  -17.8066   24.7852 C   0  0  0  0  0  0  0  0  0  0  0  0
   12.0906  -16.7779   25.3878 O   0  0  0  0  0  0  0  0  0  0  0  0
   14.3992  -18.8788   20.2569 O   0  0  0  0  0  0  0  0  0  0  0  0
    8.9521  -20.9268   29.2596 N   0  0  0  0  0  0  0  0  0  0  0  0
   10.1990  -20.5853   29.8830 C   0  0  0  0  0  0  0  0  0  0  0  0
   10.2633  -20.8072   31.1138 O   0  0  0  0  0  0  0  0  0  0  0  0
   11.2939  -20.0133   29.0734 C   0  0  0  0  0  0  0  0  0  0  0  0
   10.9721  -19.7931   27.6389 C   0  0  0  0  0  0  0  0  0  0  0  0
   12.0542  -19.1293   26.8552 C   0  0  2  0  0  0  0  0  0  0  0  0
   11.6727  -19.0512   25.4600 N   0  0  0  0  0  0  0  0  0  0  0  0
   13.4009  -19.7077   27.0311 C   0  0  0  0  0  0  0  0  0  0  0  0
   13.9193  -20.3333   26.0474 O   0  0  0  0  0  0  0  0  0  0  0  0
   14.1472  -19.6216   28.1870 O   0  0  0  0  0  0  0  0  0  0  0  0
  2  3  1  0
  2  1  1  6
  4  3  1  0
  4  9  2  0
  5  4  1  0
  6  5  2  0
  6  7  1  0
  7  8  2  0
  8  9  1  0
 10  2  1  0
 11 10  2  0
 12 10  1  0
 13 12  1  0
 14 15  1  0
 13 14  1  6
 15 16  1  0
 16 17  2  0
 18 27  1  0
 18 13  1  0
 19 18  2  0
 20 16  1  0
 22 24  1  0
 22 21  1  0
 23 22  2  0
 26 25  1  1
 25 24  1  0
 26 27  1  0
 28 26  1  0
 29 28  2  0
 30 28  1  0
M  END
$$$$
