FEQ.pdb
     RDKit          3D

 30 30  0  0  1  0  0  0  0  0999 V2000
    5.7708  -17.7997   25.4753 N   0  0  0  0  0  0  0  0  0  0  0  0
    6.5360  -16.5940   25.2983 C   0  0  1  0  0  0  0  0  0  0  0  0
    6.6560  -15.9149   26.6386 C   0  0  0  0  0  0  0  0  0  0  0  0
    6.8025  -14.4684   26.3796 C   0  0  0  0  0  0  0  0  0  0  0  0
    8.0325  -13.8672   26.2731 C   0  0  0  0  0  0  0  0  0  0  0  0
    8.1459  -12.4940   26.0287 C   0  0  0  0  0  0  0  0  0  0  0  0
    7.0067  -11.7117   25.8888 C   0  0  0  0  0  0  0  0  0  0  0  0
    5.7766  -12.3179   25.9961 C   0  0  0  0  0  0  0  0  0  0  0  0
    5.6907  -13.6771   26.2381 C   0  0  0  0  0  0  0  0  0  0  0  0
    7.8347  -16.8359   24.6410 C   0  0  0  0  0  0  0  0  0  0  0  0
    8.6137  -17.7217   25.1021 O   0  0  0  0  0  0  0  0  0  0  0  0
    8.2820  -16.1253   23.4977 N   0  0  0  0  0  0  0  0  0  0  0  0
    9.5977  -16.2991   22.8952 C   0  0  1  0  0  0  0  0  0  0  0  0
    9.5564  -16.1014   21.4241 C   0  0  0  0  0  0  0  0  0  0  0  0
   10.7929  -16.3826   20.6601 C   0  0  0  0  0  0  0  0  0  0  0  0
   10.7502  -16.1746   19.2205 C   0  0  0  0  0  0  0  0  0  0  0  0
   11.2737  -16.9853   18.4192 O   0  0  0  0  0  0  0  0  0  0  0  0
   10.6641  -15.6071   23.6179 C   0  0  0  0  0  0  0  0  0  0  0  0
   10.4689  -14.4681   24.0965 O   0  0  0  0  0  0  0  0  0  0  0  0
   10.1239  -15.0631   18.6770 O   0  0  0  0  0  0  0  0  0  0  0  0
   12.2941  -17.4539   29.4911 N   0  0  0  0  0  0  0  0  0  0  0  0
   11.9217  -16.3326   28.6762 C   0  0  0  0  0  0  0  0  0  0  0  0
   10.9403  -15.6719   29.0869 O   0  0  0  0  0  0  0  0  0  0  0  0
   12.6838  -16.0307   27.4476 C   0  0  0  0  0  0  0  0  0  0  0  0
   11.9248  -16.1830   26.1784 C   0  0  0  0  0  0  0  0  0  0  0  0
   12.7308  -15.9592   24.9431 C   0  0  2  0  0  0  0  0  0  0  0  0
   11.9231  -16.2370   23.7731 N   0  0  0  0  0  0  0  0  0  0  0  0
   14.0267  -16.6650   24.9035 C   0  0  0  0  0  0  0  0  0  0  0  0
   14.1053  -17.7390   24.2194 O   0  0  0  0  0  0  0  0  0  0  0  0
   15.1679  -16.2474   25.5543 O   0  0  0  0  0  0  0  0  0  0  0  0
  2  3  1  0
  2  1  1  1
  4  3  1  0
  4  9  2  0
  5  4  1  0
  6  5  2  0
  6  7  1  0
  7  8  2  0
  8  9  1  0
 10  2  1  0
 11 10  2  0
 12 10  1  0
 13 12  1  0
 14 15  1  0
 13 14  1  6
 15 16  1  0
 16 17  2  0
 18 27  1  0
 18 13  1  0
 19 18  2  0
 20 16  1  0
 22 24  1  0
 22 21  1  0
 23 22  2  0
 26 25  1  1
 25 24  1  0
 26 27  1  0
 28 26  1  0
 29 28  2  0
 30 28  1  0
M  END
$$$$
