FEQ.pdb
     RDKit          3D

 30 30  0  0  1  0  0  0  0  0999 V2000
    6.7949  -18.0727   20.5270 N   0  0  0  0  0  0  0  0  0  0  0  0
    7.8543  -17.1152   20.7040 C   0  0  1  0  0  0  0  0  0  0  0  0
    7.4203  -16.1259   21.7552 C   0  0  0  0  0  0  0  0  0  0  0  0
    7.5761  -14.7781   21.1721 C   0  0  0  0  0  0  0  0  0  0  0  0
    7.5940  -14.5678   19.8153 C   0  0  0  0  0  0  0  0  0  0  0  0
    7.7445  -13.2811   19.2862 C   0  0  0  0  0  0  0  0  0  0  0  0
    7.8790  -12.1879   20.1324 C   0  0  0  0  0  0  0  0  0  0  0  0
    7.8605  -12.4029   21.4909 C   0  0  0  0  0  0  0  0  0  0  0  0
    7.7105  -13.6845   21.9895 C   0  0  0  0  0  0  0  0  0  0  0  0
    9.1537  -17.7516   20.9935 C   0  0  0  0  0  0  0  0  0  0  0  0
    9.1969  -18.7747   21.7386 O   0  0  0  0  0  0  0  0  0  0  0  0
   10.3905  -17.2832   20.4804 N   0  0  0  0  0  0  0  0  0  0  0  0
   11.6912  -17.7706   20.9219 C   0  0  1  0  0  0  0  0  0  0  0  0
   12.7083  -17.6689   19.8448 C   0  0  0  0  0  0  0  0  0  0  0  0
   14.0295  -18.2903   20.0893 C   0  0  0  0  0  0  0  0  0  0  0  0
   15.0481  -18.1185   19.0644 C   0  0  0  0  0  0  0  0  0  0  0  0
   15.3043  -19.0184   18.2289 O   0  0  0  0  0  0  0  0  0  0  0  0
   12.0825  -17.2714   22.2395 C   0  0  0  0  0  0  0  0  0  0  0  0
   12.0620  -16.0449   22.4836 O   0  0  0  0  0  0  0  0  0  0  0  0
   15.7793  -16.9437   18.9728 O   0  0  0  0  0  0  0  0  0  0  0  0
    7.9590  -16.8320   24.9847 N   0  0  0  0  0  0  0  0  0  0  0  0
    8.7333  -17.0175   26.1789 C   0  0  0  0  0  0  0  0  0  0  0  0
    8.1347  -16.7720   27.2512 O   0  0  0  0  0  0  0  0  0  0  0  0
   10.1364  -17.4686   26.0833 C   0  0  0  0  0  0  0  0  0  0  0  0
   10.6639  -17.6077   24.7005 C   0  0  0  0  0  0  0  0  0  0  0  0
   12.1108  -17.9625   24.6213 C   0  0  2  0  0  0  0  0  0  0  0  0
   12.4859  -18.1886   23.2405 N   0  0  0  0  0  0  0  0  0  0  0  0
   12.5338  -19.0705   25.5001 C   0  0  0  0  0  0  0  0  0  0  0  0
   11.6289  -19.7424   26.0979 O   0  0  0  0  0  0  0  0  0  0  0  0
   13.8434  -19.4377   25.7251 O   0  0  0  0  0  0  0  0  0  0  0  0
  2  3  1  0
  2  1  1  1
  4  3  1  0
  4  9  2  0
  5  4  1  0
  6  5  2  0
  6  7  1  0
  7  8  2  0
  8  9  1  0
 10  2  1  0
 11 10  2  0
 12 10  1  0
 13 12  1  0
 14 15  1  0
 13 14  1  6
 15 16  1  0
 16 17  2  0
 18 27  1  0
 18 13  1  0
 19 18  2  0
 20 16  1  0
 22 24  1  0
 22 21  1  0
 23 22  2  0
 26 25  1  6
 25 24  1  0
 26 27  1  0
 28 26  1  0
 29 28  2  0
 30 28  1  0
M  END
$$$$
