FEQ.pdb
     RDKit          3D

 30 30  0  0  1  0  0  0  0  0999 V2000
    6.2962  -16.2495   25.2640 N   0  0  0  0  0  0  0  0  0  0  0  0
    7.5944  -15.7149   24.9487 C   0  0  1  0  0  0  0  0  0  0  0  0
    8.0323  -14.8415   26.0966 C   0  0  0  0  0  0  0  0  0  0  0  0
    7.3672  -13.5343   25.9244 C   0  0  0  0  0  0  0  0  0  0  0  0
    7.8515  -12.5765   25.0679 C   0  0  0  0  0  0  0  0  0  0  0  0
    7.2044  -11.3443   24.9228 C   0  0  0  0  0  0  0  0  0  0  0  0
    6.0528  -11.0689   25.6489 C   0  0  0  0  0  0  0  0  0  0  0  0
    5.5709  -12.0311   26.5057 C   0  0  0  0  0  0  0  0  0  0  0  0
    6.2287  -13.2415   26.6316 C   0  0  0  0  0  0  0  0  0  0  0  0
    8.5717  -16.7635   24.5989 C   0  0  0  0  0  0  0  0  0  0  0  0
    8.6003  -17.8396   25.2662 O   0  0  0  0  0  0  0  0  0  0  0  0
    9.5062  -16.6454   23.5382 N   0  0  0  0  0  0  0  0  0  0  0  0
   10.6154  -17.5664   23.3250 C   0  0  1  0  0  0  0  0  0  0  0  0
   11.1630  -17.4548   21.9492 C   0  0  0  0  0  0  0  0  0  0  0  0
   10.2936  -17.8808   20.8293 C   0  0  0  0  0  0  0  0  0  0  0  0
   10.8392  -17.7784   19.4842 C   0  0  0  0  0  0  0  0  0  0  0  0
   10.1000  -17.6617   18.4775 O   0  0  0  0  0  0  0  0  0  0  0  0
   11.5878  -17.5680   24.4172 C   0  0  0  0  0  0  0  0  0  0  0  0
   12.2135  -16.5252   24.7095 O   0  0  0  0  0  0  0  0  0  0  0  0
   12.2082  -17.8063   19.2639 O   0  0  0  0  0  0  0  0  0  0  0  0
   11.0806  -21.5391   29.0857 N   0  0  0  0  0  0  0  0  0  0  0  0
   10.4351  -20.2712   28.8971 C   0  0  0  0  0  0  0  0  0  0  0  0
    9.4106  -20.0809   29.5917 O   0  0  0  0  0  0  0  0  0  0  0  0
   10.9901  -19.2992   27.9335 C   0  0  0  0  0  0  0  0  0  0  0  0
   12.2840  -19.6897   27.3144 C   0  0  0  0  0  0  0  0  0  0  0  0
   12.7617  -18.7687   26.2424 C   0  0  2  0  0  0  0  0  0  0  0  0
   11.8170  -18.7617   25.1443 N   0  0  0  0  0  0  0  0  0  0  0  0
   14.1448  -19.0046   25.7835 C   0  0  0  0  0  0  0  0  0  0  0  0
   14.3684  -20.0229   25.0480 O   0  0  0  0  0  0  0  0  0  0  0  0
   15.2217  -18.2009   26.0913 O   0  0  0  0  0  0  0  0  0  0  0  0
  2  3  1  0
  2  1  1  1
  4  3  1  0
  4  9  2  0
  5  4  1  0
  6  5  2  0
  6  7  1  0
  7  8  2  0
  8  9  1  0
 10  2  1  0
 11 10  2  0
 12 10  1  0
 13 12  1  0
 14 15  1  0
 13 14  1  6
 15 16  1  0
 16 17  2  0
 18 27  1  0
 18 13  1  0
 19 18  2  0
 20 16  1  0
 22 24  1  0
 22 21  1  0
 23 22  2  0
 26 25  1  1
 25 24  1  0
 26 27  1  0
 28 26  1  0
 29 28  2  0
 30 28  1  0
M  END
$$$$
