HTS.pdb
     RDKit          3D

 24 24  0  0  1  0  0  0  0  0999 V2000
   19.2057  -12.9358  -16.9941 N   0  0  0  0  0  0  0  0  0  0  0  0
   18.8080  -11.6948  -16.3950 C   0  0  1  0  0  0  0  0  0  0  0  0
   18.2331  -11.9579  -15.0229 C   0  0  0  0  0  0  0  0  0  0  0  0
   16.8894  -12.5571  -15.1707 C   0  0  0  0  0  0  0  0  0  0  0  0
   16.1927  -12.8555  -16.3316 C   0  0  0  0  0  0  0  0  0  0  0  0
   15.0166  -13.3850  -15.9571 N   0  0  0  0  0  0  0  0  0  0  0  0
   14.9299  -13.4383  -14.6171 C   0  0  0  0  0  0  0  0  0  0  0  0
   16.0744  -12.9323  -14.1430 N   0  0  0  0  0  0  0  0  0  0  0  0
   19.9215  -10.7173  -16.3509 C   0  0  0  0  0  0  0  0  0  0  0  0
   21.0669  -11.1606  -16.0299 O   0  0  0  0  0  0  0  0  0  0  0  0
   21.4748   -8.9955  -18.9727 C   0  0  0  0  0  0  0  0  0  0  0  0
   21.0334   -7.9098  -18.0336 C   0  0  1  0  0  0  0  0  0  0  0  0
   19.8365   -7.3779  -18.4884 O   0  0  0  0  0  0  0  0  0  0  0  0
   20.8909   -8.4717  -16.6268 C   0  0  2  0  0  0  0  0  0  0  0  0
   19.7435   -9.3478  -16.6482 N   0  0  0  0  0  0  0  0  0  0  0  0
   20.6761   -7.3203  -15.7073 C   0  0  0  0  0  0  0  0  0  0  0  0
   19.5069   -6.8746  -15.5701 O   0  0  0  0  0  0  0  0  0  0  0  0
   21.8083   -6.8358  -12.0384 O   0  0  0  0  0  0  0  0  0  0  0  0
   22.2131   -5.7355  -12.7566 C   0  0  0  0  0  0  0  0  0  0  0  0
   21.4954   -5.5848  -14.0790 C   0  0  2  0  0  0  0  0  0  0  0  0
   21.6945   -6.6800  -14.9662 N   0  0  0  0  0  0  0  0  0  0  0  0
   22.0022   -4.3463  -14.7082 C   0  0  0  0  0  0  0  0  0  0  0  0
   22.6573   -4.3549  -15.7835 O   0  0  0  0  0  0  0  0  0  0  0  0
   21.7433   -3.1381  -14.0874 O   0  0  0  0  0  0  0  0  0  0  0  0
  2  1  1  1
  3  2  1  0
  4  5  2  0
  4  3  1  0
  6  5  1  0
  7  8  2  0
  7  6  1  0
  8  4  1  0
  9 10  2  0
  9  2  1  0
 12 11  1  6
 12 14  1  0
 13 12  1  0
 14 15  1  6
 15  9  1  0
 16 14  1  0
 17 16  2  0
 18 19  1  0
 20 19  1  1
 20 22  1  0
 20 21  1  0
 21 16  1  0
 22 24  1  0
 23 22  2  0
M  END
$$$$
