HTS.pdb
     RDKit          3D

 24 24  0  0  1  0  0  0  0  0999 V2000
   23.4519  -11.5845  -15.6106 N   0  0  0  0  0  0  0  0  0  0  0  0
   23.6610  -10.2132  -15.9756 C   0  0  1  0  0  0  0  0  0  0  0  0
   24.7170  -10.1330  -17.0530 C   0  0  0  0  0  0  0  0  0  0  0  0
   25.9919  -10.6572  -16.5177 C   0  0  0  0  0  0  0  0  0  0  0  0
   26.5606  -11.9092  -16.6949 C   0  0  0  0  0  0  0  0  0  0  0  0
   27.7187  -11.9127  -16.0147 N   0  0  0  0  0  0  0  0  0  0  0  0
   27.9153  -10.7269  -15.4140 C   0  0  0  0  0  0  0  0  0  0  0  0
   26.8594   -9.9654  -15.7241 N   0  0  0  0  0  0  0  0  0  0  0  0
   22.4007   -9.5490  -16.3848 C   0  0  0  0  0  0  0  0  0  0  0  0
   21.5036  -10.2820  -16.9040 O   0  0  0  0  0  0  0  0  0  0  0  0
   19.8950   -9.6232  -15.3785 C   0  0  0  0  0  0  0  0  0  0  0  0
   19.9703   -8.1238  -15.3443 C   0  0  1  0  0  0  0  0  0  0  0  0
   20.4474   -7.7233  -14.1056 O   0  0  0  0  0  0  0  0  0  0  0  0
   20.8655   -7.6268  -16.4698 C   0  0  2  0  0  0  0  0  0  0  0  0
   22.1815   -8.1637  -16.2161 N   0  0  0  0  0  0  0  0  0  0  0  0
   20.8673   -6.1389  -16.4131 C   0  0  0  0  0  0  0  0  0  0  0  0
   21.7191   -5.5693  -15.6818 O   0  0  0  0  0  0  0  0  0  0  0  0
   17.9916   -3.8779  -18.4464 O   0  0  0  0  0  0  0  0  0  0  0  0
   19.1953   -3.2506  -18.2273 C   0  0  0  0  0  0  0  0  0  0  0  0
   20.0076   -3.8811  -17.1186 C   0  0  2  0  0  0  0  0  0  0  0  0
   19.9770   -5.3042  -17.1252 N   0  0  0  0  0  0  0  0  0  0  0  0
   19.4541   -3.3852  -15.8402 C   0  0  0  0  0  0  0  0  0  0  0  0
   18.9008   -4.1466  -15.0038 O   0  0  0  0  0  0  0  0  0  0  0  0
   19.5512   -2.0346  -15.5597 O   0  0  0  0  0  0  0  0  0  0  0  0
  2  1  1  6
  3  2  1  0
  4  5  2  0
  4  3  1  0
  6  5  1  0
  7  8  2  0
  7  6  1  0
  8  4  1  0
  9 10  2  0
  9  2  1  0
 12 11  1  1
 12 14  1  0
 13 12  1  0
 14 15  1  1
 15  9  1  0
 16 14  1  0
 17 16  2  0
 18 19  1  0
 20 19  1  6
 20 22  1  0
 20 21  1  0
 21 16  1  0
 22 24  1  0
 23 22  2  0
M  END
$$$$
