HTS.pdb
     RDKit          3D

 24 24  0  0  1  0  0  0  0  0999 V2000
   19.4798  -12.3915  -16.0976 N   0  0  0  0  0  0  0  0  0  0  0  0
   18.9431  -11.0666  -15.9799 C   0  0  1  0  0  0  0  0  0  0  0  0
   17.5717  -11.1316  -15.3496 C   0  0  0  0  0  0  0  0  0  0  0  0
   16.6553  -11.8473  -16.2632 C   0  0  0  0  0  0  0  0  0  0  0  0
   16.0886  -13.1044  -16.1183 C   0  0  0  0  0  0  0  0  0  0  0  0
   15.3298  -13.3192  -17.2055 N   0  0  0  0  0  0  0  0  0  0  0  0
   15.3851  -12.2629  -18.0342 C   0  0  0  0  0  0  0  0  0  0  0  0
   16.1946  -11.3686  -17.4547 N   0  0  0  0  0  0  0  0  0  0  0  0
   19.8524  -10.1631  -15.2357 C   0  0  0  0  0  0  0  0  0  0  0  0
   20.0280  -10.4080  -14.0025 O   0  0  0  0  0  0  0  0  0  0  0  0
   23.2646   -9.8349  -15.2460 C   0  0  0  0  0  0  0  0  0  0  0  0
   22.7883   -8.4530  -15.5903 C   0  0  1  0  0  0  0  0  0  0  0  0
   22.8300   -8.2904  -16.9666 O   0  0  0  0  0  0  0  0  0  0  0  0
   21.3815   -8.2431  -15.0500 C   0  0  2  0  0  0  0  0  0  0  0  0
   20.5072   -9.0708  -15.8469 N   0  0  0  0  0  0  0  0  0  0  0  0
   21.0543   -6.7993  -15.2093 C   0  0  0  0  0  0  0  0  0  0  0  0
   20.5518   -6.4165  -16.2982 O   0  0  0  0  0  0  0  0  0  0  0  0
   19.8347   -2.4977  -13.5450 O   0  0  0  0  0  0  0  0  0  0  0  0
   19.9833   -3.8611  -13.4494 C   0  0  0  0  0  0  0  0  0  0  0  0
   21.0254   -4.4188  -14.3926 C   0  0  2  0  0  0  0  0  0  0  0  0
   21.2654   -5.8114  -14.2215 N   0  0  0  0  0  0  0  0  0  0  0  0
   22.2774   -3.6719  -14.1453 C   0  0  0  0  0  0  0  0  0  0  0  0
   22.5173   -2.5594  -14.6842 O   0  0  0  0  0  0  0  0  0  0  0  0
   23.2146   -4.2212  -13.2897 O   0  0  0  0  0  0  0  0  0  0  0  0
  2  1  1  1
  3  2  1  0
  4  5  2  0
  4  3  1  0
  6  5  1  0
  7  8  2  0
  7  6  1  0
  8  4  1  0
  9 10  2  0
  9  2  1  0
 12 11  1  6
 12 14  1  0
 13 12  1  0
 14 15  1  6
 15  9  1  0
 16 14  1  0
 17 16  2  0
 18 19  1  0
 20 19  1  1
 20 22  1  0
 20 21  1  0
 21 16  1  0
 22 24  1  0
 23 22  2  0
M  END
$$$$
