HTS.pdb
     RDKit          3D

 24 24  0  0  1  0  0  0  0  0999 V2000
   31.4022  -24.2711  -21.9868 N   0  0  0  0  0  0  0  0  0  0  0  0
   31.0796  -25.1453  -20.8963 C   0  0  1  0  0  0  0  0  0  0  0  0
   29.5792  -25.2216  -20.7373 C   0  0  0  0  0  0  0  0  0  0  0  0
   29.0597  -23.8745  -20.4179 C   0  0  0  0  0  0  0  0  0  0  0  0
   29.1607  -23.1614  -19.2332 C   0  0  0  0  0  0  0  0  0  0  0  0
   28.5335  -21.9897  -19.4270 N   0  0  0  0  0  0  0  0  0  0  0  0
   28.0388  -21.9215  -20.6746 C   0  0  0  0  0  0  0  0  0  0  0  0
   28.3626  -23.0732  -21.2741 N   0  0  0  0  0  0  0  0  0  0  0  0
   31.6881  -26.4868  -21.0613 C   0  0  0  0  0  0  0  0  0  0  0  0
   31.5046  -27.0716  -22.1731 O   0  0  0  0  0  0  0  0  0  0  0  0
   34.8470  -27.4357  -21.6282 C   0  0  0  0  0  0  0  0  0  0  0  0
   34.5166  -28.2193  -20.3905 C   0  0  1  0  0  0  0  0  0  0  0  0
   35.0133  -27.5474  -19.2841 O   0  0  0  0  0  0  0  0  0  0  0  0
   33.0109  -28.4142  -20.2904 C   0  0  2  0  0  0  0  0  0  0  0  0
   32.4430  -27.1100  -20.0429 N   0  0  0  0  0  0  0  0  0  0  0  0
   32.7565  -29.3405  -19.1527 C   0  0  0  0  0  0  0  0  0  0  0  0
   32.7137  -28.8613  -17.9894 O   0  0  0  0  0  0  0  0  0  0  0  0
   32.9556  -33.5787  -19.4400 O   0  0  0  0  0  0  0  0  0  0  0  0
   31.9821  -33.0361  -18.6349 C   0  0  0  0  0  0  0  0  0  0  0  0
   32.2854  -31.6208  -18.1973 C   0  0  2  0  0  0  0  0  0  0  0  0
   32.5563  -30.7336  -19.2770 N   0  0  0  0  0  0  0  0  0  0  0  0
   33.4654  -31.6856  -17.3086 C   0  0  0  0  0  0  0  0  0  0  0  0
   34.5600  -31.1351  -17.5990 O   0  0  0  0  0  0  0  0  0  0  0  0
   33.3556  -32.3779  -16.1166 O   0  0  0  0  0  0  0  0  0  0  0  0
  2  1  1  6
  3  2  1  0
  4  5  2  0
  4  3  1  0
  6  5  1  0
  7  8  2  0
  7  6  1  0
  8  4  1  0
  9 10  2  0
  9  2  1  0
 12 11  1  6
 12 14  1  0
 13 12  1  0
 14 15  1  1
 15  9  1  0
 16 14  1  0
 17 16  2  0
 18 19  1  0
 20 19  1  6
 20 22  1  0
 20 21  1  0
 21 16  1  0
 22 24  1  0
 23 22  2  0
M  END
$$$$
