HTS.pdb
     RDKit          3D

 24 24  0  0  1  0  0  0  0  0999 V2000
   24.0366  -12.2894  -16.5026 N   0  0  0  0  0  0  0  0  0  0  0  0
   24.0986  -10.8569  -16.4650 C   0  0  1  0  0  0  0  0  0  0  0  0
   25.1514  -10.3715  -17.4337 C   0  0  0  0  0  0  0  0  0  0  0  0
   26.4693  -10.8953  -17.0147 C   0  0  0  0  0  0  0  0  0  0  0  0
   27.1752  -11.9775  -17.5175 C   0  0  0  0  0  0  0  0  0  0  0  0
   28.3175  -12.0596  -16.8159 N   0  0  0  0  0  0  0  0  0  0  0  0
   28.3739  -11.0849  -15.8927 C   0  0  0  0  0  0  0  0  0  0  0  0
   27.2445  -10.3781  -16.0184 N   0  0  0  0  0  0  0  0  0  0  0  0
   22.7778  -10.2367  -16.7260 C   0  0  0  0  0  0  0  0  0  0  0  0
   21.8602  -10.9956  -17.1660 O   0  0  0  0  0  0  0  0  0  0  0  0
   20.3386  -10.4277  -15.5963 C   0  0  0  0  0  0  0  0  0  0  0  0
   20.3619   -8.9281  -15.5186 C   0  0  1  0  0  0  0  0  0  0  0  0
   20.8867   -8.5471  -14.2932 O   0  0  0  0  0  0  0  0  0  0  0  0
   21.1803   -8.3649  -16.6710 C   0  0  2  0  0  0  0  0  0  0  0  0
   22.5244   -8.8649  -16.5038 N   0  0  0  0  0  0  0  0  0  0  0  0
   21.1374   -6.8804  -16.5637 C   0  0  0  0  0  0  0  0  0  0  0  0
   21.8682   -6.3215  -15.7044 O   0  0  0  0  0  0  0  0  0  0  0  0
   18.4651   -4.5864  -18.8396 O   0  0  0  0  0  0  0  0  0  0  0  0
   19.6359   -3.9619  -18.4798 C   0  0  0  0  0  0  0  0  0  0  0  0
   20.3280   -4.6153  -17.3048 C   0  0  2  0  0  0  0  0  0  0  0  0
   20.3308   -6.0377  -17.3610 N   0  0  0  0  0  0  0  0  0  0  0  0
   19.6185   -4.1748  -16.0844 C   0  0  0  0  0  0  0  0  0  0  0  0
   19.0005   -4.9772  -15.3364 O   0  0  0  0  0  0  0  0  0  0  0  0
   19.6388   -2.8310  -15.7592 O   0  0  0  0  0  0  0  0  0  0  0  0
  2  1  1  6
  3  2  1  0
  4  5  2  0
  4  3  1  0
  6  5  1  0
  7  8  2  0
  7  6  1  0
  8  4  1  0
  9 10  2  0
  9  2  1  0
 12 11  1  1
 12 14  1  0
 13 12  1  0
 14 15  1  1
 15  9  1  0
 16 14  1  0
 17 16  2  0
 18 19  1  0
 20 19  1  6
 20 22  1  0
 20 21  1  0
 21 16  1  0
 22 24  1  0
 23 22  2  0
M  END
$$$$
