HTS.pdb
     RDKit          3D

 24 24  0  0  1  0  0  0  0  0999 V2000
   18.1955  -15.1602  -15.9253 N   0  0  0  0  0  0  0  0  0  0  0  0
   17.5082  -13.9175  -16.1272 C   0  0  1  0  0  0  0  0  0  0  0  0
   16.2502  -13.8947  -15.2910 C   0  0  0  0  0  0  0  0  0  0  0  0
   15.2807  -14.8594  -15.8532 C   0  0  0  0  0  0  0  0  0  0  0  0
   15.1243  -15.2693  -17.1684 C   0  0  0  0  0  0  0  0  0  0  0  0
   14.1147  -16.1548  -17.1849 N   0  0  0  0  0  0  0  0  0  0  0  0
   13.6211  -16.3289  -15.9472 C   0  0  0  0  0  0  0  0  0  0  0  0
   14.3358  -15.5367  -15.1394 N   0  0  0  0  0  0  0  0  0  0  0  0
   18.3785  -12.7500  -15.8505 C   0  0  0  0  0  0  0  0  0  0  0  0
   18.8049  -12.6162  -14.6622 O   0  0  0  0  0  0  0  0  0  0  0  0
   21.6561  -11.9133  -17.0894 C   0  0  0  0  0  0  0  0  0  0  0  0
   20.7748  -10.7482  -17.4372 C   0  0  1  0  0  0  0  0  0  0  0  0
   20.3664  -10.8684  -18.7567 O   0  0  0  0  0  0  0  0  0  0  0  0
   19.5842  -10.7019  -16.4908 C   0  0  2  0  0  0  0  0  0  0  0  0
   18.7331  -11.8127  -16.8460 N   0  0  0  0  0  0  0  0  0  0  0  0
   18.8942   -9.4002  -16.7068 C   0  0  0  0  0  0  0  0  0  0  0  0
   17.9659   -9.3490  -17.5555 O   0  0  0  0  0  0  0  0  0  0  0  0
   17.5710   -5.0000  -15.2608 O   0  0  0  0  0  0  0  0  0  0  0  0
   18.1445   -6.2254  -15.0163 C   0  0  0  0  0  0  0  0  0  0  0  0
   18.5921   -6.9397  -16.2717 C   0  0  2  0  0  0  0  0  0  0  0  0
   19.2028   -8.2017  -16.0251 N   0  0  0  0  0  0  0  0  0  0  0  0
   19.5589   -6.0525  -16.9534 C   0  0  0  0  0  0  0  0  0  0  0  0
   20.7979   -6.2769  -16.9520 O   0  0  0  0  0  0  0  0  0  0  0  0
   19.0775   -4.9376  -17.6148 O   0  0  0  0  0  0  0  0  0  0  0  0
  2  1  1  1
  3  2  1  0
  4  5  2  0
  4  3  1  0
  6  5  1  0
  7  8  2  0
  7  6  1  0
  8  4  1  0
  9 10  2  0
  9  2  1  0
 12 11  1  1
 12 14  1  0
 13 12  1  0
 14 15  1  6
 15  9  1  0
 16 14  1  0
 17 16  2  0
 18 19  1  0
 20 19  1  1
 20 22  1  0
 20 21  1  0
 21 16  1  0
 22 24  1  0
 23 22  2  0
M  END
$$$$
