HTS.pdb
     RDKit          3D

 24 24  0  0  1  0  0  0  0  0999 V2000
   21.2808  -13.8246  -17.9546 N   0  0  0  0  0  0  0  0  0  0  0  0
   20.0296  -13.2299  -17.5828 C   0  0  1  0  0  0  0  0  0  0  0  0
   19.1018  -14.2970  -17.0509 C   0  0  0  0  0  0  0  0  0  0  0  0
   18.8095  -15.2632  -18.1314 C   0  0  0  0  0  0  0  0  0  0  0  0
   18.8388  -15.0687  -19.5038 C   0  0  0  0  0  0  0  0  0  0  0  0
   18.4984  -16.2372  -20.0719 N   0  0  0  0  0  0  0  0  0  0  0  0
   18.2541  -17.1646  -19.1307 C   0  0  0  0  0  0  0  0  0  0  0  0
   18.4453  -16.5653  -17.9496 N   0  0  0  0  0  0  0  0  0  0  0  0
   20.2076  -12.1193  -16.6174 C   0  0  0  0  0  0  0  0  0  0  0  0
   19.5879  -12.2090  -15.5130 O   0  0  0  0  0  0  0  0  0  0  0  0
   22.9480  -11.1982  -14.7431 C   0  0  0  0  0  0  0  0  0  0  0  0
   22.6024   -9.9295  -15.4685 C   0  0  1  0  0  0  0  0  0  0  0  0
   23.4433   -9.7907  -16.5621 O   0  0  0  0  0  0  0  0  0  0  0  0
   21.1416   -9.9602  -15.8932 C   0  0  2  0  0  0  0  0  0  0  0  0
   21.0245  -10.9993  -16.8887 N   0  0  0  0  0  0  0  0  0  0  0  0
   20.8159   -8.6240  -16.4640 C   0  0  0  0  0  0  0  0  0  0  0  0
   21.1042   -8.4020  -17.6691 O   0  0  0  0  0  0  0  0  0  0  0  0
   18.7380   -5.5991  -14.2780 O   0  0  0  0  0  0  0  0  0  0  0  0
   18.6470   -5.6684  -15.6481 C   0  0  0  0  0  0  0  0  0  0  0  0
   19.8554   -6.3035  -16.2984 C   0  0  2  0  0  0  0  0  0  0  0  0
   20.1999   -7.5714  -15.7506 N   0  0  0  0  0  0  0  0  0  0  0  0
   20.9864   -5.3681  -16.1176 C   0  0  0  0  0  0  0  0  0  0  0  0
   21.9934   -5.6541  -15.4179 O   0  0  0  0  0  0  0  0  0  0  0  0
   20.9290   -4.1361  -16.7428 O   0  0  0  0  0  0  0  0  0  0  0  0
  2  1  1  1
  3  2  1  0
  4  5  2  0
  4  3  1  0
  6  5  1  0
  7  8  2  0
  7  6  1  0
  8  4  1  0
  9 10  2  0
  9  2  1  0
 12 11  1  6
 12 14  1  0
 13 12  1  0
 14 15  1  6
 15  9  1  0
 16 14  1  0
 17 16  2  0
 18 19  1  0
 20 19  1  1
 20 22  1  0
 20 21  1  0
 21 16  1  0
 22 24  1  0
 23 22  2  0
M  END
$$$$
