HTS.pdb
     RDKit          3D

 24 24  0  0  1  0  0  0  0  0999 V2000
   13.8680  -10.5041  -10.8556 N   0  0  0  0  0  0  0  0  0  0  0  0
   15.2669  -10.4086  -11.1577 C   0  0  1  0  0  0  0  0  0  0  0  0
   15.5797  -11.2507  -12.3724 C   0  0  0  0  0  0  0  0  0  0  0  0
   15.4084  -12.6780  -12.0259 C   0  0  0  0  0  0  0  0  0  0  0  0
   16.3685  -13.6012  -11.6410 C   0  0  0  0  0  0  0  0  0  0  0  0
   15.7314  -14.7652  -11.4337 N   0  0  0  0  0  0  0  0  0  0  0  0
   14.4150  -14.6292  -11.6672 C   0  0  0  0  0  0  0  0  0  0  0  0
   14.2238  -13.3548  -12.0279 N   0  0  0  0  0  0  0  0  0  0  0  0
   15.7030   -9.0026  -11.3313 C   0  0  0  0  0  0  0  0  0  0  0  0
   15.0273   -8.2827  -12.1293 O   0  0  0  0  0  0  0  0  0  0  0  0
   15.9650   -6.1984   -9.0591 C   0  0  0  0  0  0  0  0  0  0  0  0
   17.3381   -6.3745   -9.6413 C   0  0  1  0  0  0  0  0  0  0  0  0
   18.1305   -7.0579   -8.7317 O   0  0  0  0  0  0  0  0  0  0  0  0
   17.2452   -7.1196  -10.9646 C   0  0  2  0  0  0  0  0  0  0  0  0
   16.8171   -8.4624  -10.6514 N   0  0  0  0  0  0  0  0  0  0  0  0
   18.6030   -7.1126  -11.5757 C   0  0  0  0  0  0  0  0  0  0  0  0
   19.2785   -8.1744  -11.5440 O   0  0  0  0  0  0  0  0  0  0  0  0
   21.7316   -6.6301  -14.7837 O   0  0  0  0  0  0  0  0  0  0  0  0
   20.4941   -6.6427  -14.1848 C   0  0  0  0  0  0  0  0  0  0  0  0
   20.4811   -5.9910  -12.8204 C   0  0  2  0  0  0  0  0  0  0  0  0
   19.2014   -5.9937  -12.1971 N   0  0  0  0  0  0  0  0  0  0  0  0
   20.9344   -4.5953  -13.0026 C   0  0  0  0  0  0  0  0  0  0  0  0
   20.1315   -3.6450  -13.1968 O   0  0  0  0  0  0  0  0  0  0  0  0
   22.2910   -4.3317  -12.9568 O   0  0  0  0  0  0  0  0  0  0  0  0
  2  1  1  6
  3  2  1  0
  4  5  2  0
  4  3  1  0
  6  5  1  0
  7  8  2  0
  7  6  1  0
  8  4  1  0
  9 10  2  0
  9  2  1  0
 12 11  1  1
 12 14  1  0
 13 12  1  0
 14 15  1  1
 15  9  1  0
 16 14  1  0
 17 16  2  0
 18 19  1  0
 20 19  1  6
 20 22  1  0
 20 21  1  0
 21 16  1  0
 22 24  1  0
 23 22  2  0
M  END
$$$$
