HTS.pdb
     RDKit          3D

 24 24  0  0  1  0  0  0  0  0999 V2000
   20.0015  -13.1318  -17.2574 N   0  0  0  0  0  0  0  0  0  0  0  0
   19.5348  -11.7855  -17.4215 C   0  0  1  0  0  0  0  0  0  0  0  0
   18.0716  -11.8007  -17.7970 C   0  0  0  0  0  0  0  0  0  0  0  0
   17.9222  -12.4310  -19.1263 C   0  0  0  0  0  0  0  0  0  0  0  0
   17.9917  -11.8438  -20.3804 C   0  0  0  0  0  0  0  0  0  0  0  0
   17.7920  -12.8198  -21.2811 N   0  0  0  0  0  0  0  0  0  0  0  0
   17.5990  -13.9977  -20.6637 C   0  0  0  0  0  0  0  0  0  0  0  0
   17.6795  -13.7546  -19.3501 N   0  0  0  0  0  0  0  0  0  0  0  0
   19.7892  -10.9589  -16.2177 C   0  0  0  0  0  0  0  0  0  0  0  0
   19.4370  -11.4442  -15.0988 O   0  0  0  0  0  0  0  0  0  0  0  0
   22.9582   -9.8297  -15.2892 C   0  0  0  0  0  0  0  0  0  0  0  0
   21.7876   -9.6971  -14.3579 C   0  0  1  0  0  0  0  0  0  0  0  0
   22.1928   -9.0236  -13.2157 O   0  0  0  0  0  0  0  0  0  0  0  0
   20.6518   -8.9662  -15.0584 C   0  0  2  0  0  0  0  0  0  0  0  0
   20.3948   -9.6844  -16.2843 N   0  0  0  0  0  0  0  0  0  0  0  0
   21.1168   -7.5782  -15.3312 C   0  0  0  0  0  0  0  0  0  0  0  0
   21.9834   -7.4031  -16.2274 O   0  0  0  0  0  0  0  0  0  0  0  0
   18.7758   -4.3903  -15.3965 O   0  0  0  0  0  0  0  0  0  0  0  0
   19.9436   -4.0752  -14.7429 C   0  0  0  0  0  0  0  0  0  0  0  0
   21.0437   -5.0904  -14.9568 C   0  0  2  0  0  0  0  0  0  0  0  0
   20.6561   -6.4264  -14.6549 N   0  0  0  0  0  0  0  0  0  0  0  0
   22.1708   -4.6982  -14.0837 C   0  0  0  0  0  0  0  0  0  0  0  0
   22.5713   -5.4206  -13.1333 O   0  0  0  0  0  0  0  0  0  0  0  0
   22.8035   -3.4927  -14.3258 O   0  0  0  0  0  0  0  0  0  0  0  0
  2  1  1  1
  3  2  1  0
  4  5  2  0
  4  3  1  0
  6  5  1  0
  7  8  2  0
  7  6  1  0
  8  4  1  0
  9 10  2  0
  9  2  1  0
 12 11  1  6
 12 14  1  0
 13 12  1  0
 14 15  1  6
 15  9  1  0
 16 14  1  0
 17 16  2  0
 18 19  1  0
 20 19  1  1
 20 22  1  0
 20 21  1  0
 21 16  1  0
 22 24  1  0
 23 22  2  0
M  END
$$$$
