HTS.pdb
     RDKit          3D

 24 24  0  0  1  0  0  0  0  0999 V2000
   17.4784  -12.6414  -16.2682 N   0  0  0  0  0  0  0  0  0  0  0  0
   17.3564  -11.3445  -15.6677 C   0  0  1  0  0  0  0  0  0  0  0  0
   16.7849  -11.4842  -14.2762 C   0  0  0  0  0  0  0  0  0  0  0  0
   15.3570  -11.8549  -14.3771 C   0  0  0  0  0  0  0  0  0  0  0  0
   14.7648  -13.0947  -14.1918 C   0  0  0  0  0  0  0  0  0  0  0  0
   13.4466  -12.9326  -14.3911 N   0  0  0  0  0  0  0  0  0  0  0  0
   13.1704  -11.6528  -14.6938 C   0  0  0  0  0  0  0  0  0  0  0  0
   14.3388  -11.0004  -14.6839 N   0  0  0  0  0  0  0  0  0  0  0  0
   18.6437  -10.6096  -15.6665 C   0  0  0  0  0  0  0  0  0  0  0  0
   19.6733  -11.2487  -15.2882 O   0  0  0  0  0  0  0  0  0  0  0  0
   20.7092   -9.6151  -18.2393 C   0  0  0  0  0  0  0  0  0  0  0  0
   20.3805   -8.3355  -17.5253 C   0  0  1  0  0  0  0  0  0  0  0  0
   19.3210   -7.7169  -18.1710 O   0  0  0  0  0  0  0  0  0  0  0  0
   20.0475   -8.6283  -16.0697 C   0  0  2  0  0  0  0  0  0  0  0  0
   18.7483   -9.2581  -16.0638 N   0  0  0  0  0  0  0  0  0  0  0  0
   20.0214   -7.3259  -15.3484 C   0  0  0  0  0  0  0  0  0  0  0  0
   18.9182   -6.7319  -15.2262 O   0  0  0  0  0  0  0  0  0  0  0  0
   22.4692   -6.3096  -12.2234 O   0  0  0  0  0  0  0  0  0  0  0  0
   22.3179   -5.2916  -13.1350 C   0  0  0  0  0  0  0  0  0  0  0  0
   21.1270   -5.4760  -14.0483 C   0  0  2  0  0  0  0  0  0  0  0  0
   21.1520   -6.6956  -14.7820 N   0  0  0  0  0  0  0  0  0  0  0  0
   21.1238   -4.3370  -14.9913 C   0  0  0  0  0  0  0  0  0  0  0  0
   21.3219   -4.4828  -16.2263 O   0  0  0  0  0  0  0  0  0  0  0  0
   20.8943   -3.0683  -14.4916 O   0  0  0  0  0  0  0  0  0  0  0  0
  2  1  1  1
  3  2  1  0
  4  5  2  0
  4  3  1  0
  6  5  1  0
  7  8  2  0
  7  6  1  0
  8  4  1  0
  9 10  2  0
  9  2  1  0
 12 11  1  6
 12 14  1  0
 13 12  1  0
 14 15  1  6
 15  9  1  0
 16 14  1  0
 17 16  2  0
 18 19  1  0
 20 19  1  1
 20 22  1  0
 20 21  1  0
 21 16  1  0
 22 24  1  0
 23 22  2  0
M  END
$$$$
