YWY.pdb
     RDKit          3D

 39 42  0  0  1  0  0  0  0  0999 V2000
    8.7404  -15.2884   12.4702 O   0  0  0  0  0  0  0  0  0  0  0  0
    8.5771  -15.1657   13.8430 C   0  0  0  0  0  0  0  0  0  0  0  0
    9.3714  -15.8949   14.7237 C   0  0  0  0  0  0  0  0  0  0  0  0
    9.2173  -15.7808   16.0988 C   0  0  0  0  0  0  0  0  0  0  0  0
    8.2718  -14.9395   16.5851 C   0  0  0  0  0  0  0  0  0  0  0  0
    8.0500  -14.7615   18.0306 C   0  0  0  0  0  0  0  0  0  0  0  0
    8.9001  -15.6846   18.8668 C   0  0  2  0  0  0  0  0  0  0  0  0
    8.2869  -16.9714   18.9243 N   0  0  0  0  0  0  0  0  0  0  0  0
    9.0220  -15.0241   20.2176 C   0  0  0  0  0  0  0  0  0  0  0  0
    9.6996  -13.9821   20.2919 O   0  0  0  0  0  0  0  0  0  0  0  0
    7.4643  -14.1976   15.7171 C   0  0  0  0  0  0  0  0  0  0  0  0
    7.6230  -14.3171   14.3504 C   0  0  0  0  0  0  0  0  0  0  0  0
    8.4101  -15.5429   21.3616 N   0  0  0  0  0  0  0  0  0  0  0  0
    8.5211  -14.9019   22.6844 C   0  0  1  0  0  0  0  0  0  0  0  0
    7.8895  -15.8695   23.6348 C   0  0  0  0  0  0  0  0  0  0  0  0
    7.0789  -15.2612   24.6824 C   0  0  0  0  0  0  0  0  0  0  0  0
    6.1639  -15.8311   25.5183 C   0  0  0  0  0  0  0  0  0  0  0  0
    5.6549  -14.8713   26.3444 N   0  0  0  0  0  0  0  0  0  0  0  0
    6.2249  -13.6905   26.0600 C   0  0  0  0  0  0  0  0  0  0  0  0
    6.0495  -12.4332   26.6235 C   0  0  0  0  0  0  0  0  0  0  0  0
    6.8039  -11.4003   26.1129 C   0  0  0  0  0  0  0  0  0  0  0  0
    7.6992  -11.5895   25.0874 C   0  0  0  0  0  0  0  0  0  0  0  0
    7.8602  -12.8535   24.5364 C   0  0  0  0  0  0  0  0  0  0  0  0
    7.1103  -13.9168   25.0311 C   0  0  0  0  0  0  0  0  0  0  0  0
    9.9690  -14.6422   22.9646 C   0  0  0  0  0  0  0  0  0  0  0  0
   10.5066  -13.5204   22.9547 O   0  0  0  0  0  0  0  0  0  0  0  0
   11.1336  -16.5103   30.9622 O   0  0  0  0  0  0  0  0  0  0  0  0
   10.8386  -16.3608   29.6070 C   0  0  0  0  0  0  0  0  0  0  0  0
   10.8306  -15.1114   29.0410 C   0  0  0  0  0  0  0  0  0  0  0  0
   10.5343  -14.9916   27.6892 C   0  0  0  0  0  0  0  0  0  0  0  0
   10.2585  -16.1452   26.9690 C   0  0  0  0  0  0  0  0  0  0  0  0
    9.9295  -16.0219   25.5081 C   0  0  0  0  0  0  0  0  0  0  0  0
   11.1459  -16.1056   24.6533 C   0  0  2  0  0  0  0  0  0  0  0  0
   10.7888  -15.7744   23.2641 N   0  0  0  0  0  0  0  0  0  0  0  0
   11.8597  -17.3884   24.6662 C   0  0  0  0  0  0  0  0  0  0  0  0
   11.5503  -18.3109   23.8546 O   0  0  0  0  0  0  0  0  0  0  0  0
   10.2713  -17.3775   27.5484 C   0  0  0  0  0  0  0  0  0  0  0  0
   10.5649  -17.5154   28.8959 C   0  0  0  0  0  0  0  0  0  0  0  0
   12.8885  -17.6625   25.5437 O   0  0  0  0  0  0  0  0  0  0  0  0
  1  2  1  0
  2  3  2  0
  3  4  1  0
  5  6  1  0
  5  4  2  0
  6  7  1  0
  7  8  1  1
  9  7  1  0
 10  9  2  0
 11  5  1  0
 12 11  2  0
 12  2  1  0
 13  9  1  0
 14 15  1  1
 14 13  1  0
 16 24  1  0
 16 15  1  0
 17 16  2  0
 18 17  1  0
 18 19  1  0
 19 24  2  0
 20 19  1  0
 20 21  2  0
 21 22  1  0
 22 23  2  0
 24 23  1  0
 25 14  1  0
 25 34  1  0
 26 25  2  0
 28 38  2  0
 28 27  1  0
 29 28  1  0
 30 31  1  0
 30 29  2  0
 31 37  2  0
 32 31  1  0
 33 34  1  0
 33 32  1  1
 35 33  1  0
 36 35  2  0
 37 38  1  0
 39 35  1  0
M  END
$$$$
