YWY.pdb
     RDKit          3D

 39 42  0  0  1  0  0  0  0  0999 V2000
    6.1587  -23.6459   18.2212 O   0  0  0  0  0  0  0  0  0  0  0  0
    6.7694  -22.5694   18.8493 C   0  0  0  0  0  0  0  0  0  0  0  0
    6.0699  -21.7863   19.7634 C   0  0  0  0  0  0  0  0  0  0  0  0
    6.6700  -20.7070   20.3979 C   0  0  0  0  0  0  0  0  0  0  0  0
    7.9640  -20.4172   20.1159 C   0  0  0  0  0  0  0  0  0  0  0  0
    8.6710  -19.2909   20.7501 C   0  0  0  0  0  0  0  0  0  0  0  0
    8.3119  -17.9606   20.1374 C   0  0  2  0  0  0  0  0  0  0  0  0
    8.5972  -17.9900   18.7399 N   0  0  0  0  0  0  0  0  0  0  0  0
    9.1186  -16.9292   20.8865 C   0  0  0  0  0  0  0  0  0  0  0  0
   10.2184  -16.5964   20.4068 O   0  0  0  0  0  0  0  0  0  0  0  0
    8.6844  -21.1920   19.2012 C   0  0  0  0  0  0  0  0  0  0  0  0
    8.0804  -22.2636   18.5734 C   0  0  0  0  0  0  0  0  0  0  0  0
    8.6736  -16.3540   22.0796 N   0  0  0  0  0  0  0  0  0  0  0  0
    9.4891  -15.4050   22.8589 C   0  0  1  0  0  0  0  0  0  0  0  0
    8.5857  -14.2395   23.1123 C   0  0  0  0  0  0  0  0  0  0  0  0
    7.7420  -14.3619   24.2946 C   0  0  0  0  0  0  0  0  0  0  0  0
    6.9541  -15.3991   24.6996 C   0  0  0  0  0  0  0  0  0  0  0  0
    6.3490  -15.0670   25.8770 N   0  0  0  0  0  0  0  0  0  0  0  0
    6.7320  -13.8343   26.2428 C   0  0  0  0  0  0  0  0  0  0  0  0
    6.4032  -13.0686   27.3539 C   0  0  0  0  0  0  0  0  0  0  0  0
    6.9801  -11.8223   27.4564 C   0  0  0  0  0  0  0  0  0  0  0  0
    7.8488  -11.3409   26.5063 C   0  0  0  0  0  0  0  0  0  0  0  0
    8.1648  -12.1207   25.4021 C   0  0  0  0  0  0  0  0  0  0  0  0
    7.5961  -13.3844   25.2708 C   0  0  0  0  0  0  0  0  0  0  0  0
    9.9501  -16.0911   24.1076 C   0  0  0  0  0  0  0  0  0  0  0  0
    9.2773  -16.2053   25.1477 O   0  0  0  0  0  0  0  0  0  0  0  0
    7.0539  -19.0490   28.0740 O   0  0  0  0  0  0  0  0  0  0  0  0
    8.3240  -18.7459   27.5831 C   0  0  0  0  0  0  0  0  0  0  0  0
    9.2546  -18.1615   28.4039 C   0  0  0  0  0  0  0  0  0  0  0  0
   10.5118  -17.8711   27.8892 C   0  0  0  0  0  0  0  0  0  0  0  0
   10.7711  -18.1862   26.5629 C   0  0  0  0  0  0  0  0  0  0  0  0
   12.1263  -17.8676   25.9977 C   0  0  0  0  0  0  0  0  0  0  0  0
   12.1379  -16.5645   25.2772 C   0  0  2  0  0  0  0  0  0  0  0  0
   11.2643  -16.6535   24.0956 N   0  0  0  0  0  0  0  0  0  0  0  0
   13.4541  -16.0683   24.8570 C   0  0  0  0  0  0  0  0  0  0  0  0
   14.3911  -15.9231   25.6975 O   0  0  0  0  0  0  0  0  0  0  0  0
    9.8340  -18.7666   25.7630 C   0  0  0  0  0  0  0  0  0  0  0  0
    8.5748  -19.0632   26.2602 C   0  0  0  0  0  0  0  0  0  0  0  0
   13.7454  -15.7363   23.5499 O   0  0  0  0  0  0  0  0  0  0  0  0
  1  2  1  0
  2  3  2  0
  3  4  1  0
  5  6  1  0
  5  4  2  0
  6  7  1  0
  7  8  1  6
  9  7  1  0
 10  9  2  0
 11  5  1  0
 12 11  2  0
 12  2  1  0
 13  9  1  0
 14 15  1  1
 14 13  1  0
 16 24  1  0
 16 15  1  0
 17 16  2  0
 18 17  1  0
 18 19  1  0
 19 24  2  0
 20 19  1  0
 20 21  2  0
 21 22  1  0
 22 23  2  0
 24 23  1  0
 25 14  1  0
 25 34  1  0
 26 25  2  0
 28 38  2  0
 28 27  1  0
 29 28  1  0
 30 31  1  0
 30 29  2  0
 31 37  2  0
 32 31  1  0
 33 34  1  0
 33 32  1  6
 35 33  1  0
 36 35  2  0
 37 38  1  0
 39 35  1  0
M  END
$$$$
