YWY.pdb
     RDKit          3D

 39 42  0  0  1  0  0  0  0  0999 V2000
    7.2308  -17.1944   15.0711 O   0  0  0  0  0  0  0  0  0  0  0  0
    7.7525  -17.1728   16.3571 C   0  0  0  0  0  0  0  0  0  0  0  0
    7.5633  -18.2475   17.2216 C   0  0  0  0  0  0  0  0  0  0  0  0
    8.0802  -18.2374   18.5102 C   0  0  0  0  0  0  0  0  0  0  0  0
    8.7824  -17.1550   18.9266 C   0  0  0  0  0  0  0  0  0  0  0  0
    9.3645  -17.0706   20.2773 C   0  0  0  0  0  0  0  0  0  0  0  0
   10.0785  -15.7650   20.5217 C   0  0  2  0  0  0  0  0  0  0  0  0
   11.1043  -15.5958   19.5447 N   0  0  0  0  0  0  0  0  0  0  0  0
   10.6086  -15.8414   21.9320 C   0  0  0  0  0  0  0  0  0  0  0  0
   11.8267  -16.0525   22.0804 O   0  0  0  0  0  0  0  0  0  0  0  0
    8.9842  -16.0655   18.0731 C   0  0  0  0  0  0  0  0  0  0  0  0
    8.4663  -16.0826   16.7930 C   0  0  0  0  0  0  0  0  0  0  0  0
    9.7845  -15.6882   23.0499 N   0  0  0  0  0  0  0  0  0  0  0  0
   10.2656  -15.8933   24.4281 C   0  0  1  0  0  0  0  0  0  0  0  0
    9.8711  -14.6506   25.1621 C   0  0  0  0  0  0  0  0  0  0  0  0
    8.4397  -14.5016   25.3927 C   0  0  0  0  0  0  0  0  0  0  0  0
    7.4506  -15.4408   25.3702 C   0  0  0  0  0  0  0  0  0  0  0  0
    6.2579  -14.8401   25.6515 N   0  0  0  0  0  0  0  0  0  0  0  0
    6.4566  -13.5293   25.8574 C   0  0  0  0  0  0  0  0  0  0  0  0
    5.5685  -12.5113   26.1797 C   0  0  0  0  0  0  0  0  0  0  0  0
    6.0882  -11.2463   26.3419 C   0  0  0  0  0  0  0  0  0  0  0  0
    7.4295  -10.9851   26.1947 C   0  0  0  0  0  0  0  0  0  0  0  0
    8.3017  -12.0156   25.8715 C   0  0  0  0  0  0  0  0  0  0  0  0
    7.8051  -13.3046   25.7001 C   0  0  0  0  0  0  0  0  0  0  0  0
    9.6335  -17.1380   24.9699 C   0  0  0  0  0  0  0  0  0  0  0  0
    9.2022  -18.0774   24.2779 O   0  0  0  0  0  0  0  0  0  0  0  0
   15.9045  -20.0727   29.7519 O   0  0  0  0  0  0  0  0  0  0  0  0
   14.9097  -19.4289   29.0156 C   0  0  0  0  0  0  0  0  0  0  0  0
   14.7729  -19.6876   27.6756 C   0  0  0  0  0  0  0  0  0  0  0  0
   13.7735  -19.0330   26.9668 C   0  0  0  0  0  0  0  0  0  0  0  0
   12.9552  -18.1433   27.6484 C   0  0  0  0  0  0  0  0  0  0  0  0
   11.8773  -17.4260   26.8860 C   0  0  0  0  0  0  0  0  0  0  0  0
   10.5256  -17.9783   27.1782 C   0  0  2  0  0  0  0  0  0  0  0  0
    9.5198  -17.2465   26.3908 N   0  0  0  0  0  0  0  0  0  0  0  0
   10.1163  -17.9773   28.5880 C   0  0  0  0  0  0  0  0  0  0  0  0
   10.0086  -19.0626   29.2329 O   0  0  0  0  0  0  0  0  0  0  0  0
   13.1063  -17.8993   28.9797 C   0  0  0  0  0  0  0  0  0  0  0  0
   14.0981  -18.5437   29.7021 C   0  0  0  0  0  0  0  0  0  0  0  0
    9.8295  -16.8199   29.2822 O   0  0  0  0  0  0  0  0  0  0  0  0
  1  2  1  0
  2  3  2  0
  3  4  1  0
  5  6  1  0
  5  4  2  0
  6  7  1  0
  7  8  1  6
  9  7  1  0
 10  9  2  0
 11  5  1  0
 12 11  2  0
 12  2  1  0
 13  9  1  0
 14 15  1  1
 14 13  1  0
 16 24  1  0
 16 15  1  0
 17 16  2  0
 18 17  1  0
 18 19  1  0
 19 24  2  0
 20 19  1  0
 20 21  2  0
 21 22  1  0
 22 23  2  0
 24 23  1  0
 25 14  1  0
 25 34  1  0
 26 25  2  0
 28 38  2  0
 28 27  1  0
 29 28  1  0
 30 31  1  0
 30 29  2  0
 31 37  2  0
 32 31  1  0
 33 34  1  0
 33 32  1  1
 35 33  1  0
 36 35  2  0
 37 38  1  0
 39 35  1  0
M  END
$$$$
