YWY.pdb
     RDKit          3D

 39 42  0  0  1  0  0  0  0  0999 V2000
    7.1689  -14.6326   14.7910 O   0  0  0  0  0  0  0  0  0  0  0  0
    7.9421  -15.4513   15.6024 C   0  0  0  0  0  0  0  0  0  0  0  0
    9.3318  -15.3703   15.5799 C   0  0  0  0  0  0  0  0  0  0  0  0
   10.1157  -16.1840   16.3868 C   0  0  0  0  0  0  0  0  0  0  0  0
    9.5072  -17.0724   17.2104 C   0  0  0  0  0  0  0  0  0  0  0  0
   10.2696  -17.9674   18.0983 C   0  0  0  0  0  0  0  0  0  0  0  0
    9.5293  -18.2913   19.3715 C   0  0  2  0  0  0  0  0  0  0  0  0
    8.1631  -18.5681   19.0679 N   0  0  0  0  0  0  0  0  0  0  0  0
    9.7067  -17.0921   20.2694 C   0  0  0  0  0  0  0  0  0  0  0  0
   10.8620  -16.6558   20.4286 O   0  0  0  0  0  0  0  0  0  0  0  0
    8.1124  -17.1688   17.2484 C   0  0  0  0  0  0  0  0  0  0  0  0
    7.3394  -16.3566   16.4422 C   0  0  0  0  0  0  0  0  0  0  0  0
    8.6316  -16.4754   20.9146 N   0  0  0  0  0  0  0  0  0  0  0  0
    8.8086  -15.3949   21.9015 C   0  0  1  0  0  0  0  0  0  0  0  0
    7.5359  -14.6103   21.8452 C   0  0  0  0  0  0  0  0  0  0  0  0
    7.5100  -13.4205   22.6868 C   0  0  0  0  0  0  0  0  0  0  0  0
    7.8556  -12.1348   22.3897 C   0  0  0  0  0  0  0  0  0  0  0  0
    7.6618  -11.3542   23.4924 N   0  0  0  0  0  0  0  0  0  0  0  0
    7.1954  -12.1105   24.4976 C   0  0  0  0  0  0  0  0  0  0  0  0
    6.8390  -11.7802   25.7987 C   0  0  0  0  0  0  0  0  0  0  0  0
    6.3729  -12.7955   26.6040 C   0  0  0  0  0  0  0  0  0  0  0  0
    6.2585  -14.0889   26.1534 C   0  0  0  0  0  0  0  0  0  0  0  0
    6.6204  -14.3999   24.8497 C   0  0  0  0  0  0  0  0  0  0  0  0
    7.0961  -13.3946   24.0127 C   0  0  0  0  0  0  0  0  0  0  0  0
    9.0747  -16.0139   23.2388 C   0  0  0  0  0  0  0  0  0  0  0  0
    8.1986  -16.4224   24.0218 O   0  0  0  0  0  0  0  0  0  0  0  0
   11.2451  -16.0339   31.3493 O   0  0  0  0  0  0  0  0  0  0  0  0
   10.9181  -16.1501   29.9981 C   0  0  0  0  0  0  0  0  0  0  0  0
   11.2951  -15.1707   29.1149 C   0  0  0  0  0  0  0  0  0  0  0  0
   10.9568  -15.3122   27.7751 C   0  0  0  0  0  0  0  0  0  0  0  0
   10.2499  -16.4420   27.3884 C   0  0  0  0  0  0  0  0  0  0  0  0
    9.8740  -16.5974   25.9420 C   0  0  0  0  0  0  0  0  0  0  0  0
   10.8452  -15.9221   25.0376 C   0  0  2  0  0  0  0  0  0  0  0  0
   10.4413  -16.1405   23.6388 N   0  0  0  0  0  0  0  0  0  0  0  0
   12.2522  -16.3119   25.1908 C   0  0  0  0  0  0  0  0  0  0  0  0
   12.8403  -16.9849   24.2927 O   0  0  0  0  0  0  0  0  0  0  0  0
    9.8842  -17.4042   28.2801 C   0  0  0  0  0  0  0  0  0  0  0  0
   10.2136  -17.2791   29.6205 C   0  0  0  0  0  0  0  0  0  0  0  0
   13.0042  -15.9770   26.2981 O   0  0  0  0  0  0  0  0  0  0  0  0
  1  2  1  0
  2  3  2  0
  3  4  1  0
  5  6  1  0
  5  4  2  0
  6  7  1  0
  7  8  1  6
  9  7  1  0
 10  9  2  0
 11  5  1  0
 12 11  2  0
 12  2  1  0
 13  9  1  0
 14 15  1  1
 14 13  1  0
 16 24  1  0
 16 15  1  0
 17 16  2  0
 18 17  1  0
 18 19  1  0
 19 24  2  0
 20 19  1  0
 20 21  2  0
 21 22  1  0
 22 23  2  0
 24 23  1  0
 25 14  1  0
 25 34  1  0
 26 25  2  0
 28 38  2  0
 28 27  1  0
 29 28  1  0
 30 31  1  0
 30 29  2  0
 31 37  2  0
 32 31  1  0
 33 34  1  0
 33 32  1  1
 35 33  1  0
 36 35  2  0
 37 38  1  0
 39 35  1  0
M  END
$$$$
