YWY.pdb
     RDKit          3D

 39 42  0  0  1  0  0  0  0  0999 V2000
    8.5204  -20.0324   14.8319 O   0  0  0  0  0  0  0  0  0  0  0  0
    8.6812  -19.6456   16.1551 C   0  0  0  0  0  0  0  0  0  0  0  0
    9.0106  -18.3324   16.4794 C   0  0  0  0  0  0  0  0  0  0  0  0
    9.1742  -17.9336   17.7992 C   0  0  0  0  0  0  0  0  0  0  0  0
    9.0077  -18.8483   18.7860 C   0  0  0  0  0  0  0  0  0  0  0  0
    9.1611  -18.5018   20.2096 C   0  0  0  0  0  0  0  0  0  0  0  0
    9.3596  -17.0232   20.4296 C   0  0  2  0  0  0  0  0  0  0  0  0
   10.4236  -16.5594   19.6000 N   0  0  0  0  0  0  0  0  0  0  0  0
    9.6401  -16.8584   21.9026 C   0  0  0  0  0  0  0  0  0  0  0  0
   10.8200  -16.6591   22.2470 O   0  0  0  0  0  0  0  0  0  0  0  0
    8.6760  -20.1724   18.4812 C   0  0  0  0  0  0  0  0  0  0  0  0
    8.5157  -20.5616   17.1659 C   0  0  0  0  0  0  0  0  0  0  0  0
    8.6321  -16.9257   22.8679 N   0  0  0  0  0  0  0  0  0  0  0  0
    8.8987  -16.7739   24.3097 C   0  0  1  0  0  0  0  0  0  0  0  0
    7.6037  -16.3032   24.8928 C   0  0  0  0  0  0  0  0  0  0  0  0
    7.2300  -14.9397   24.5383 C   0  0  0  0  0  0  0  0  0  0  0  0
    6.6179  -14.4679   23.4142 C   0  0  0  0  0  0  0  0  0  0  0  0
    6.4632  -13.1163   23.5240 N   0  0  0  0  0  0  0  0  0  0  0  0
    6.9623  -12.7045   24.6992 C   0  0  0  0  0  0  0  0  0  0  0  0
    7.0294  -11.4397   25.2693 C   0  0  0  0  0  0  0  0  0  0  0  0
    7.5995  -11.3385   26.5189 C   0  0  0  0  0  0  0  0  0  0  0  0
    8.0866  -12.4354   27.1886 C   0  0  0  0  0  0  0  0  0  0  0  0
    8.0113  -13.6914   26.6022 C   0  0  0  0  0  0  0  0  0  0  0  0
    7.4414  -13.8245   25.3393 C   0  0  0  0  0  0  0  0  0  0  0  0
    9.3560  -18.0943   24.8482 C   0  0  0  0  0  0  0  0  0  0  0  0
    9.1718  -19.1924   24.2935 O   0  0  0  0  0  0  0  0  0  0  0  0
   17.3976  -20.4313   25.2697 O   0  0  0  0  0  0  0  0  0  0  0  0
   16.1128  -19.8882   25.2513 C   0  0  0  0  0  0  0  0  0  0  0  0
   15.0505  -20.6252   25.7093 C   0  0  0  0  0  0  0  0  0  0  0  0
   13.7821  -20.0596   25.6801 C   0  0  0  0  0  0  0  0  0  0  0  0
   13.6456  -18.7697   25.1870 C   0  0  0  0  0  0  0  0  0  0  0  0
   12.2752  -18.1549   25.1453 C   0  0  0  0  0  0  0  0  0  0  0  0
   11.3922  -18.6870   26.2198 C   0  0  2  0  0  0  0  0  0  0  0  0
   10.0553  -18.0834   26.0950 N   0  0  0  0  0  0  0  0  0  0  0  0
   11.8669  -18.5065   27.5972 C   0  0  0  0  0  0  0  0  0  0  0  0
   12.6115  -19.3728   28.1453 O   0  0  0  0  0  0  0  0  0  0  0  0
   14.7125  -18.0531   24.7365 C   0  0  0  0  0  0  0  0  0  0  0  0
   15.9850  -18.6020   24.7585 C   0  0  0  0  0  0  0  0  0  0  0  0
   11.5385  -17.4068   28.3629 O   0  0  0  0  0  0  0  0  0  0  0  0
  1  2  1  0
  2  3  2  0
  3  4  1  0
  5  6  1  0
  5  4  2  0
  6  7  1  0
  7  8  1  6
  9  7  1  0
 10  9  2  0
 11  5  1  0
 12 11  2  0
 12  2  1  0
 13  9  1  0
 14 15  1  1
 14 13  1  0
 16 24  1  0
 16 15  1  0
 17 16  2  0
 18 17  1  0
 18 19  1  0
 19 24  2  0
 20 19  1  0
 20 21  2  0
 21 22  1  0
 22 23  2  0
 24 23  1  0
 25 14  1  0
 25 34  1  0
 26 25  2  0
 28 38  2  0
 28 27  1  0
 29 28  1  0
 30 31  1  0
 30 29  2  0
 31 37  2  0
 32 31  1  0
 33 34  1  0
 33 32  1  6
 35 33  1  0
 36 35  2  0
 37 38  1  0
 39 35  1  0
M  END
$$$$
