YWY.pdb
     RDKit          3D

 39 42  0  0  1  0  0  0  0  0999 V2000
   10.2236  -22.8089   16.7040 O   0  0  0  0  0  0  0  0  0  0  0  0
   10.2923  -21.8432   17.6985 C   0  0  0  0  0  0  0  0  0  0  0  0
    9.1383  -21.2284   18.1765 C   0  0  0  0  0  0  0  0  0  0  0  0
    9.1943  -20.2610   19.1709 C   0  0  0  0  0  0  0  0  0  0  0  0
   10.4016  -19.9143   19.6811 C   0  0  0  0  0  0  0  0  0  0  0  0
   10.5428  -18.8993   20.7396 C   0  0  0  0  0  0  0  0  0  0  0  0
   10.2824  -17.5001   20.2411 C   0  0  2  0  0  0  0  0  0  0  0  0
   11.3662  -17.0828   19.4126 N   0  0  0  0  0  0  0  0  0  0  0  0
   10.1146  -16.6467   21.4737 C   0  0  0  0  0  0  0  0  0  0  0  0
   11.1449  -16.1987   22.0106 O   0  0  0  0  0  0  0  0  0  0  0  0
   11.5726  -20.5206   19.2149 C   0  0  0  0  0  0  0  0  0  0  0  0
   11.5088  -21.4815   18.2251 C   0  0  0  0  0  0  0  0  0  0  0  0
    8.8605  -16.3563   22.0172 N   0  0  0  0  0  0  0  0  0  0  0  0
    8.6918  -15.6043   23.2737 C   0  0  1  0  0  0  0  0  0  0  0  0
    7.2424  -15.2348   23.3091 C   0  0  0  0  0  0  0  0  0  0  0  0
    6.7780  -14.6906   24.5791 C   0  0  0  0  0  0  0  0  0  0  0  0
    6.0928  -15.2988   25.5897 C   0  0  0  0  0  0  0  0  0  0  0  0
    5.8776  -14.3957   26.5900 N   0  0  0  0  0  0  0  0  0  0  0  0
    6.4124  -13.2142   26.2465 C   0  0  0  0  0  0  0  0  0  0  0  0
    6.4631  -12.0035   26.9254 C   0  0  0  0  0  0  0  0  0  0  0  0
    7.1064  -10.9563   26.3039 C   0  0  0  0  0  0  0  0  0  0  0  0
    7.6807  -11.0877   25.0622 C   0  0  0  0  0  0  0  0  0  0  0  0
    7.6191  -12.3056   24.3988 C   0  0  0  0  0  0  0  0  0  0  0  0
    6.9744  -13.3819   25.0016 C   0  0  0  0  0  0  0  0  0  0  0  0
    9.1168  -16.4809   24.4109 C   0  0  0  0  0  0  0  0  0  0  0  0
    9.1837  -17.7223   24.3671 O   0  0  0  0  0  0  0  0  0  0  0  0
   14.1728  -20.0871   30.0777 O   0  0  0  0  0  0  0  0  0  0  0  0
   13.5142  -19.3292   29.1093 C   0  0  0  0  0  0  0  0  0  0  0  0
   14.0425  -18.1315   28.6999 C   0  0  0  0  0  0  0  0  0  0  0  0
   13.3662  -17.3976   27.7336 C   0  0  0  0  0  0  0  0  0  0  0  0
   12.1819  -17.9107   27.2238 C   0  0  0  0  0  0  0  0  0  0  0  0
   11.4412  -17.1182   26.1840 C   0  0  0  0  0  0  0  0  0  0  0  0
   10.1607  -16.5686   26.7090 C   0  0  2  0  0  0  0  0  0  0  0  0
    9.4696  -15.8346   25.6362 N   0  0  0  0  0  0  0  0  0  0  0  0
   10.2636  -15.6996   27.8877 C   0  0  0  0  0  0  0  0  0  0  0  0
   10.7775  -14.5448   27.7992 O   0  0  0  0  0  0  0  0  0  0  0  0
   11.6727  -19.1023   27.6427 C   0  0  0  0  0  0  0  0  0  0  0  0
   12.3345  -19.8475   28.6059 C   0  0  0  0  0  0  0  0  0  0  0  0
    9.8171  -16.0785   29.1369 O   0  0  0  0  0  0  0  0  0  0  0  0
  1  2  1  0
  2  3  2  0
  3  4  1  0
  5  6  1  0
  5  4  2  0
  6  7  1  0
  7  8  1  1
  9  7  1  0
 10  9  2  0
 11  5  1  0
 12 11  2  0
 12  2  1  0
 13  9  1  0
 14 15  1  1
 14 13  1  0
 16 24  1  0
 16 15  1  0
 17 16  2  0
 18 17  1  0
 18 19  1  0
 19 24  2  0
 20 19  1  0
 20 21  2  0
 21 22  1  0
 22 23  2  0
 24 23  1  0
 25 14  1  0
 25 34  1  0
 26 25  2  0
 28 38  2  0
 28 27  1  0
 29 28  1  0
 30 31  1  0
 30 29  2  0
 31 37  2  0
 32 31  1  0
 33 34  1  0
 33 32  1  6
 35 33  1  0
 36 35  2  0
 37 38  1  0
 39 35  1  0
M  END
$$$$
