YWY.pdb
     RDKit          3D

 39 42  0  0  1  0  0  0  0  0999 V2000
    8.0171  -13.6482   14.3513 O   0  0  0  0  0  0  0  0  0  0  0  0
    7.8741  -13.8951   15.7095 C   0  0  0  0  0  0  0  0  0  0  0  0
    8.1981  -12.9207   16.6496 C   0  0  0  0  0  0  0  0  0  0  0  0
    8.0594  -13.1560   18.0108 C   0  0  0  0  0  0  0  0  0  0  0  0
    7.5981  -14.3620   18.4242 C   0  0  0  0  0  0  0  0  0  0  0  0
    7.4207  -14.6863   19.8503 C   0  0  0  0  0  0  0  0  0  0  0  0
    8.2731  -15.8492   20.2920 C   0  0  2  0  0  0  0  0  0  0  0  0
    7.4493  -17.0004   20.4691 N   0  0  0  0  0  0  0  0  0  0  0  0
    8.9528  -15.4043   21.5631 C   0  0  0  0  0  0  0  0  0  0  0  0
    9.7284  -14.4327   21.4937 O   0  0  0  0  0  0  0  0  0  0  0  0
    7.2665  -15.3540   17.4957 C   0  0  0  0  0  0  0  0  0  0  0  0
    7.4079  -15.1128   16.1434 C   0  0  0  0  0  0  0  0  0  0  0  0
    8.7409  -16.0432   22.7876 N   0  0  0  0  0  0  0  0  0  0  0  0
    9.3418  -15.5696   24.0476 C   0  0  1  0  0  0  0  0  0  0  0  0
    8.4162  -16.0512   25.1199 C   0  0  0  0  0  0  0  0  0  0  0  0
    7.2202  -15.2398   25.3090 C   0  0  0  0  0  0  0  0  0  0  0  0
    5.9119  -15.6190   25.3808 C   0  0  0  0  0  0  0  0  0  0  0  0
    5.1359  -14.5125   25.5713 N   0  0  0  0  0  0  0  0  0  0  0  0
    5.9180  -13.4238   25.6259 C   0  0  0  0  0  0  0  0  0  0  0  0
    5.6048  -12.0837   25.8133 C   0  0  0  0  0  0  0  0  0  0  0  0
    6.6498  -11.1869   25.8348 C   0  0  0  0  0  0  0  0  0  0  0  0
    7.9558  -11.5858   25.6792 C   0  0  0  0  0  0  0  0  0  0  0  0
    8.2491  -12.9298   25.4922 C   0  0  0  0  0  0  0  0  0  0  0  0
    7.2134  -13.8593   25.4647 C   0  0  0  0  0  0  0  0  0  0  0  0
   10.7264  -16.1304   24.1519 C   0  0  0  0  0  0  0  0  0  0  0  0
   11.2482  -16.8986   23.3242 O   0  0  0  0  0  0  0  0  0  0  0  0
    9.9700  -16.6507   31.1829 O   0  0  0  0  0  0  0  0  0  0  0  0
   10.8028  -16.4145   30.0889 C   0  0  0  0  0  0  0  0  0  0  0  0
   10.5514  -15.3576   29.2516 C   0  0  0  0  0  0  0  0  0  0  0  0
   11.3972  -15.1452   28.1703 C   0  0  0  0  0  0  0  0  0  0  0  0
   12.4625  -16.0149   27.9847 C   0  0  0  0  0  0  0  0  0  0  0  0
   13.3766  -15.7955   26.8125 C   0  0  0  0  0  0  0  0  0  0  0  0
   12.8147  -16.3586   25.5538 C   0  0  2  0  0  0  0  0  0  0  0  0
   11.4999  -15.7502   25.2924 N   0  0  0  0  0  0  0  0  0  0  0  0
   12.6797  -17.8195   25.5013 C   0  0  0  0  0  0  0  0  0  0  0  0
   11.5363  -18.3643   25.4656 O   0  0  0  0  0  0  0  0  0  0  0  0
   12.6964  -17.0591   28.8270 C   0  0  0  0  0  0  0  0  0  0  0  0
   11.8626  -17.2856   29.9108 C   0  0  0  0  0  0  0  0  0  0  0  0
   13.7657  -18.6704   25.4882 O   0  0  0  0  0  0  0  0  0  0  0  0
  1  2  1  0
  2  3  2  0
  3  4  1  0
  5  6  1  0
  5  4  2  0
  6  7  1  0
  7  8  1  1
  9  7  1  0
 10  9  2  0
 11  5  1  0
 12 11  2  0
 12  2  1  0
 13  9  1  0
 14 15  1  1
 14 13  1  0
 16 24  1  0
 16 15  1  0
 17 16  2  0
 18 17  1  0
 18 19  1  0
 19 24  2  0
 20 19  1  0
 20 21  2  0
 21 22  1  0
 22 23  2  0
 24 23  1  0
 25 14  1  0
 25 34  1  0
 26 25  2  0
 28 38  2  0
 28 27  1  0
 29 28  1  0
 30 31  1  0
 30 29  2  0
 31 37  2  0
 32 31  1  0
 33 34  1  0
 33 32  1  1
 35 33  1  0
 36 35  2  0
 37 38  1  0
 39 35  1  0
M  END
$$$$
