YWY.pdb
     RDKit          3D

 39 42  0  0  1  0  0  0  0  0999 V2000
   11.4273  -23.0024   16.3117 O   0  0  0  0  0  0  0  0  0  0  0  0
   11.2924  -21.9058   17.1517 C   0  0  0  0  0  0  0  0  0  0  0  0
   12.2886  -20.9361   17.2241 C   0  0  0  0  0  0  0  0  0  0  0  0
   12.1651  -19.8348   18.0606 C   0  0  0  0  0  0  0  0  0  0  0  0
   11.0481  -19.7092   18.8186 C   0  0  0  0  0  0  0  0  0  0  0  0
   10.8422  -18.5683   19.7277 C   0  0  0  0  0  0  0  0  0  0  0  0
    9.8660  -17.5578   19.1799 C   0  0  2  0  0  0  0  0  0  0  0  0
   10.3816  -17.0096   17.9679 N   0  0  0  0  0  0  0  0  0  0  0  0
    9.6835  -16.5279   20.2669 C   0  0  0  0  0  0  0  0  0  0  0  0
   10.5414  -15.6306   20.3623 O   0  0  0  0  0  0  0  0  0  0  0  0
   10.0354  -20.6721   18.7598 C   0  0  0  0  0  0  0  0  0  0  0  0
   10.1659  -21.7651   17.9258 C   0  0  0  0  0  0  0  0  0  0  0  0
    8.6021  -16.5577   21.1513 N   0  0  0  0  0  0  0  0  0  0  0  0
    8.4972  -15.6549   22.3118 C   0  0  1  0  0  0  0  0  0  0  0  0
    7.5893  -16.3618   23.2681 C   0  0  0  0  0  0  0  0  0  0  0  0
    7.0991  -15.5425   24.3695 C   0  0  0  0  0  0  0  0  0  0  0  0
    6.4468  -15.9133   25.5086 C   0  0  0  0  0  0  0  0  0  0  0  0
    6.1868  -14.8015   26.2564 N   0  0  0  0  0  0  0  0  0  0  0  0
    6.6605  -13.7177   25.6231 C   0  0  0  0  0  0  0  0  0  0  0  0
    6.6502  -12.3753   25.9795 C   0  0  0  0  0  0  0  0  0  0  0  0
    7.2387  -11.4852   25.1089 C   0  0  0  0  0  0  0  0  0  0  0  0
    7.8177  -11.8927   23.9309 C   0  0  0  0  0  0  0  0  0  0  0  0
    7.8176  -13.2388   23.5914 C   0  0  0  0  0  0  0  0  0  0  0  0
    7.2290  -14.1618   24.4513 C   0  0  0  0  0  0  0  0  0  0  0  0
    9.8732  -15.4176   22.8529 C   0  0  0  0  0  0  0  0  0  0  0  0
   10.5430  -14.3856   22.6687 O   0  0  0  0  0  0  0  0  0  0  0  0
   10.6605  -15.0056   31.2428 O   0  0  0  0  0  0  0  0  0  0  0  0
   10.3939  -15.2420   29.8941 C   0  0  0  0  0  0  0  0  0  0  0  0
   10.3908  -16.5256   29.4107 C   0  0  0  0  0  0  0  0  0  0  0  0
   10.1215  -16.7322   28.0637 C   0  0  0  0  0  0  0  0  0  0  0  0
    9.8668  -15.6269   27.2642 C   0  0  0  0  0  0  0  0  0  0  0  0
    9.5825  -15.8428   25.8047 C   0  0  0  0  0  0  0  0  0  0  0  0
   10.8036  -16.2416   25.0515 C   0  0  2  0  0  0  0  0  0  0  0  0
   10.4542  -16.4611   23.6384 N   0  0  0  0  0  0  0  0  0  0  0  0
   11.5167  -17.4229   25.5525 C   0  0  0  0  0  0  0  0  0  0  0  0
   11.0474  -18.5867   25.3768 O   0  0  0  0  0  0  0  0  0  0  0  0
    9.8741  -14.3595   27.7623 C   0  0  0  0  0  0  0  0  0  0  0  0
   10.1408  -14.1352   29.1038 C   0  0  0  0  0  0  0  0  0  0  0  0
   12.7154  -17.3405   26.2307 O   0  0  0  0  0  0  0  0  0  0  0  0
  1  2  1  0
  2  3  2  0
  3  4  1  0
  5  6  1  0
  5  4  2  0
  6  7  1  0
  7  8  1  6
  9  7  1  0
 10  9  2  0
 11  5  1  0
 12 11  2  0
 12  2  1  0
 13  9  1  0
 14 15  1  1
 14 13  1  0
 16 24  1  0
 16 15  1  0
 17 16  2  0
 18 17  1  0
 18 19  1  0
 19 24  2  0
 20 19  1  0
 20 21  2  0
 21 22  1  0
 22 23  2  0
 24 23  1  0
 25 14  1  0
 25 34  1  0
 26 25  2  0
 28 38  2  0
 28 27  1  0
 29 28  1  0
 30 31  1  0
 30 29  2  0
 31 37  2  0
 32 31  1  0
 33 34  1  0
 33 32  1  1
 35 33  1  0
 36 35  2  0
 37 38  1  0
 39 35  1  0
M  END
$$$$
