YWY.pdb
     RDKit          3D

 39 42  0  0  1  0  0  0  0  0999 V2000
   13.5557  -23.5952   17.1563 O   0  0  0  0  0  0  0  0  0  0  0  0
   13.1873  -22.4812   17.8978 C   0  0  0  0  0  0  0  0  0  0  0  0
   11.9017  -22.3650   18.4194 C   0  0  0  0  0  0  0  0  0  0  0  0
   11.5215  -21.2556   19.1625 C   0  0  0  0  0  0  0  0  0  0  0  0
   12.4269  -20.2702   19.3799 C   0  0  0  0  0  0  0  0  0  0  0  0
   12.1005  -19.0642   20.1606 C   0  0  0  0  0  0  0  0  0  0  0  0
   11.1715  -18.1306   19.4260 C   0  0  2  0  0  0  0  0  0  0  0  0
   11.8107  -17.6626   18.2396 N   0  0  0  0  0  0  0  0  0  0  0  0
   10.8423  -17.0254   20.3985 C   0  0  0  0  0  0  0  0  0  0  0  0
   11.6311  -16.0645   20.4695 O   0  0  0  0  0  0  0  0  0  0  0  0
   13.7237  -20.3683   18.8651 C   0  0  0  0  0  0  0  0  0  0  0  0
   14.0943  -21.4746   18.1263 C   0  0  0  0  0  0  0  0  0  0  0  0
    9.7020  -17.0545   21.2055 N   0  0  0  0  0  0  0  0  0  0  0  0
    9.4140  -16.0195   22.2149 C   0  0  1  0  0  0  0  0  0  0  0  0
    7.9605  -15.7088   22.0432 C   0  0  0  0  0  0  0  0  0  0  0  0
    7.5807  -14.3421   22.3785 C   0  0  0  0  0  0  0  0  0  0  0  0
    7.5275  -13.2329   21.5863 C   0  0  0  0  0  0  0  0  0  0  0  0
    7.1094  -12.1701   22.3336 N   0  0  0  0  0  0  0  0  0  0  0  0
    6.8893  -12.5711   23.5948 C   0  0  0  0  0  0  0  0  0  0  0  0
    6.4502  -11.8714   24.7114 C   0  0  0  0  0  0  0  0  0  0  0  0
    6.3077  -12.5779   25.8849 C   0  0  0  0  0  0  0  0  0  0  0  0
    6.5842  -13.9219   25.9646 C   0  0  0  0  0  0  0  0  0  0  0  0
    7.0228  -14.6041   24.8379 C   0  0  0  0  0  0  0  0  0  0  0  0
    7.1775  -13.9160   23.6378 C   0  0  0  0  0  0  0  0  0  0  0  0
    9.7563  -16.5674   23.5658 C   0  0  0  0  0  0  0  0  0  0  0  0
    9.5490  -17.7376   23.9335 O   0  0  0  0  0  0  0  0  0  0  0  0
   11.6466  -16.1420   32.1171 O   0  0  0  0  0  0  0  0  0  0  0  0
   11.4514  -15.7972   30.7795 C   0  0  0  0  0  0  0  0  0  0  0  0
   10.9297  -14.5704   30.4570 C   0  0  0  0  0  0  0  0  0  0  0  0
   10.7465  -14.2529   29.1171 C   0  0  0  0  0  0  0  0  0  0  0  0
   11.1006  -15.1944   28.1611 C   0  0  0  0  0  0  0  0  0  0  0  0
   10.8977  -14.8604   26.7103 C   0  0  0  0  0  0  0  0  0  0  0  0
   10.5895  -16.0693   25.8974 C   0  0  2  0  0  0  0  0  0  0  0  0
   10.3660  -15.6712   24.4979 N   0  0  0  0  0  0  0  0  0  0  0  0
    9.4507  -16.8794   26.3472 C   0  0  0  0  0  0  0  0  0  0  0  0
    8.2611  -16.5166   26.1055 O   0  0  0  0  0  0  0  0  0  0  0  0
   11.6175  -16.4078   28.5007 C   0  0  0  0  0  0  0  0  0  0  0  0
   11.8070  -16.7409   29.8326 C   0  0  0  0  0  0  0  0  0  0  0  0
    9.6026  -18.0595   27.0457 O   0  0  0  0  0  0  0  0  0  0  0  0
  1  2  1  0
  2  3  2  0
  3  4  1  0
  5  6  1  0
  5  4  2  0
  6  7  1  0
  7  8  1  6
  9  7  1  0
 10  9  2  0
 11  5  1  0
 12 11  2  0
 12  2  1  0
 13  9  1  0
 14 15  1  1
 14 13  1  0
 16 24  1  0
 16 15  1  0
 17 16  2  0
 18 17  1  0
 18 19  1  0
 19 24  2  0
 20 19  1  0
 20 21  2  0
 21 22  1  0
 22 23  2  0
 24 23  1  0
 25 14  1  0
 25 34  1  0
 26 25  2  0
 28 38  2  0
 28 27  1  0
 29 28  1  0
 30 31  1  0
 30 29  2  0
 31 37  2  0
 32 31  1  0
 33 34  1  0
 33 32  1  1
 35 33  1  0
 36 35  2  0
 37 38  1  0
 39 35  1  0
M  END
$$$$
