YWY.pdb
     RDKit          3D

 39 42  0  0  1  0  0  0  0  0999 V2000
   12.1582  -18.8268   18.3265 O   0  0  0  0  0  0  0  0  0  0  0  0
   11.5133  -17.5984   18.3657 C   0  0  0  0  0  0  0  0  0  0  0  0
   12.2066  -16.4393   18.7034 C   0  0  0  0  0  0  0  0  0  0  0  0
   11.5725  -15.2049   18.7461 C   0  0  0  0  0  0  0  0  0  0  0  0
   10.2510  -15.1361   18.4512 C   0  0  0  0  0  0  0  0  0  0  0  0
    9.5088  -13.8636   18.4715 C   0  0  0  0  0  0  0  0  0  0  0  0
    8.3277  -13.8949   19.4086 C   0  0  2  0  0  0  0  0  0  0  0  0
    7.6260  -12.6554   19.3282 N   0  0  0  0  0  0  0  0  0  0  0  0
    8.8949  -14.1682   20.7795 C   0  0  0  0  0  0  0  0  0  0  0  0
    9.7024  -13.3428   21.2454 O   0  0  0  0  0  0  0  0  0  0  0  0
    9.5367  -16.2888   18.1089 C   0  0  0  0  0  0  0  0  0  0  0  0
   10.1742  -17.5132   18.0693 C   0  0  0  0  0  0  0  0  0  0  0  0
    8.5470  -15.3005   21.5206 N   0  0  0  0  0  0  0  0  0  0  0  0
    9.0861  -15.5682   22.8662 C   0  0  1  0  0  0  0  0  0  0  0  0
    7.8907  -15.9098   23.6985 C   0  0  0  0  0  0  0  0  0  0  0  0
    7.1173  -14.7646   24.1620 C   0  0  0  0  0  0  0  0  0  0  0  0
    5.9519  -14.2463   23.6783 C   0  0  0  0  0  0  0  0  0  0  0  0
    5.5931  -13.1698   24.4367 N   0  0  0  0  0  0  0  0  0  0  0  0
    6.5040  -12.9825   25.4038 C   0  0  0  0  0  0  0  0  0  0  0  0
    6.5760  -12.0372   26.4189 C   0  0  0  0  0  0  0  0  0  0  0  0
    7.6478  -12.1144   27.2802 C   0  0  0  0  0  0  0  0  0  0  0  0
    8.6157  -13.0820   27.1543 C   0  0  0  0  0  0  0  0  0  0  0  0
    8.5270  -14.0178   26.1327 C   0  0  0  0  0  0  0  0  0  0  0  0
    7.4554  -13.9641   25.2460 C   0  0  0  0  0  0  0  0  0  0  0  0
   10.0847  -16.6794   22.7636 C   0  0  0  0  0  0  0  0  0  0  0  0
    9.9708  -17.6738   22.0250 O   0  0  0  0  0  0  0  0  0  0  0  0
   15.5338  -13.6618   20.0532 O   0  0  0  0  0  0  0  0  0  0  0  0
   14.8083  -14.7246   20.5920 C   0  0  0  0  0  0  0  0  0  0  0  0
   13.4395  -14.7342   20.5046 C   0  0  0  0  0  0  0  0  0  0  0  0
   12.7422  -15.8052   21.0489 C   0  0  0  0  0  0  0  0  0  0  0  0
   13.4639  -16.8212   21.6593 C   0  0  0  0  0  0  0  0  0  0  0  0
   12.7153  -17.9788   22.2571 C   0  0  0  0  0  0  0  0  0  0  0  0
   12.2339  -17.6803   23.6342 C   0  0  2  0  0  0  0  0  0  0  0  0
   11.2540  -16.5830   23.5804 N   0  0  0  0  0  0  0  0  0  0  0  0
   13.2661  -17.3458   24.6231 C   0  0  0  0  0  0  0  0  0  0  0  0
   13.2193  -16.2549   25.2658 O   0  0  0  0  0  0  0  0  0  0  0  0
   14.8233  -16.7943   21.7364 C   0  0  0  0  0  0  0  0  0  0  0  0
   15.5349  -15.7334   21.1985 C   0  0  0  0  0  0  0  0  0  0  0  0
   14.3276  -18.1803   24.9069 O   0  0  0  0  0  0  0  0  0  0  0  0
  1  2  1  0
  2  3  2  0
  3  4  1  0
  5  6  1  0
  5  4  2  0
  6  7  1  0
  7  8  1  1
  9  7  1  0
 10  9  2  0
 11  5  1  0
 12 11  2  0
 12  2  1  0
 13  9  1  0
 14 15  1  1
 14 13  1  0
 16 24  1  0
 16 15  1  0
 17 16  2  0
 18 17  1  0
 18 19  1  0
 19 24  2  0
 20 19  1  0
 20 21  2  0
 21 22  1  0
 22 23  2  0
 24 23  1  0
 25 14  1  0
 25 34  1  0
 26 25  2  0
 28 38  2  0
 28 27  1  0
 29 28  1  0
 30 31  1  0
 30 29  2  0
 31 37  2  0
 32 31  1  0
 33 34  1  0
 33 32  1  6
 35 33  1  0
 36 35  2  0
 37 38  1  0
 39 35  1  0
M  END
$$$$
