YWY.pdb
     RDKit          3D

 39 42  0  0  1  0  0  0  0  0999 V2000
   11.9971  -20.8954   15.9260 O   0  0  0  0  0  0  0  0  0  0  0  0
   12.0332  -20.1409   17.0904 C   0  0  0  0  0  0  0  0  0  0  0  0
   11.7074  -18.7875   17.0736 C   0  0  0  0  0  0  0  0  0  0  0  0
   11.7399  -18.0224   18.2317 C   0  0  0  0  0  0  0  0  0  0  0  0
   12.0971  -18.6136   19.3983 C   0  0  0  0  0  0  0  0  0  0  0  0
   12.1523  -17.8701   20.6690 C   0  0  0  0  0  0  0  0  0  0  0  0
   11.5387  -16.4964   20.5653 C   0  0  2  0  0  0  0  0  0  0  0  0
   12.4285  -15.6319   19.8610 N   0  0  0  0  0  0  0  0  0  0  0  0
   11.2776  -16.0522   21.9831 C   0  0  0  0  0  0  0  0  0  0  0  0
   12.1423  -15.3471   22.5359 O   0  0  0  0  0  0  0  0  0  0  0  0
   12.4272  -19.9721   19.4364 C   0  0  0  0  0  0  0  0  0  0  0  0
   12.3933  -20.7264   18.2801 C   0  0  0  0  0  0  0  0  0  0  0  0
   10.1177  -16.4075   22.6764 N   0  0  0  0  0  0  0  0  0  0  0  0
    9.9063  -16.0769   24.0974 C   0  0  1  0  0  0  0  0  0  0  0  0
    8.4208  -16.0789   24.2758 C   0  0  0  0  0  0  0  0  0  0  0  0
    7.7641  -14.8132   23.9736 C   0  0  0  0  0  0  0  0  0  0  0  0
    7.2803  -14.3435   22.7879 C   0  0  0  0  0  0  0  0  0  0  0  0
    6.7413  -13.1051   22.9847 N   0  0  0  0  0  0  0  0  0  0  0  0
    6.8657  -12.7650   24.2765 C   0  0  0  0  0  0  0  0  0  0  0  0
    6.4685  -11.6243   24.9622 C   0  0  0  0  0  0  0  0  0  0  0  0
    6.7305  -11.5751   26.3133 C   0  0  0  0  0  0  0  0  0  0  0  0
    7.3584  -12.6051   26.9719 C   0  0  0  0  0  0  0  0  0  0  0  0
    7.7487  -13.7371   26.2693 C   0  0  0  0  0  0  0  0  0  0  0  0
    7.4983  -13.8147   24.9023 C   0  0  0  0  0  0  0  0  0  0  0  0
   10.6135  -17.0997   24.9317 C   0  0  0  0  0  0  0  0  0  0  0  0
   11.7678  -17.5143   24.7239 O   0  0  0  0  0  0  0  0  0  0  0  0
   14.0941  -18.5505   32.4915 O   0  0  0  0  0  0  0  0  0  0  0  0
   13.4355  -18.1645   31.3239 C   0  0  0  0  0  0  0  0  0  0  0  0
   12.2514  -17.4763   31.4004 C   0  0  0  0  0  0  0  0  0  0  0  0
   11.6172  -17.1037   30.2220 C   0  0  0  0  0  0  0  0  0  0  0  0
   12.2118  -17.4456   29.0156 C   0  0  0  0  0  0  0  0  0  0  0  0
   11.5271  -17.0525   27.7373 C   0  0  0  0  0  0  0  0  0  0  0  0
   10.6148  -18.1201   27.2420 C   0  0  2  0  0  0  0  0  0  0  0  0
    9.9009  -17.6360   26.0490 N   0  0  0  0  0  0  0  0  0  0  0  0
    9.6333  -18.6323   28.2061 C   0  0  0  0  0  0  0  0  0  0  0  0
    9.8947  -19.6445   28.9220 O   0  0  0  0  0  0  0  0  0  0  0  0
   13.3882  -18.1294   28.9596 C   0  0  0  0  0  0  0  0  0  0  0  0
   14.0345  -18.5088   30.1255 C   0  0  0  0  0  0  0  0  0  0  0  0
    8.3930  -18.0559   28.3878 O   0  0  0  0  0  0  0  0  0  0  0  0
  1  2  1  0
  2  3  2  0
  3  4  1  0
  5  6  1  0
  5  4  2  0
  6  7  1  0
  7  8  1  1
  9  7  1  0
 10  9  2  0
 11  5  1  0
 12 11  2  0
 12  2  1  0
 13  9  1  0
 14 15  1  1
 14 13  1  0
 16 24  1  0
 16 15  1  0
 17 16  2  0
 18 17  1  0
 18 19  1  0
 19 24  2  0
 20 19  1  0
 20 21  2  0
 21 22  1  0
 22 23  2  0
 24 23  1  0
 25 14  1  0
 25 34  1  0
 26 25  2  0
 28 38  2  0
 28 27  1  0
 29 28  1  0
 30 31  1  0
 30 29  2  0
 31 37  2  0
 32 31  1  0
 33 34  1  0
 33 32  1  1
 35 33  1  0
 36 35  2  0
 37 38  1  0
 39 35  1  0
M  END
$$$$
