YWY.pdb
     RDKit          3D

 39 42  0  0  1  0  0  0  0  0999 V2000
   11.1676  -24.0716   18.1723 O   0  0  0  0  0  0  0  0  0  0  0  0
   11.0416  -22.8510   18.8208 C   0  0  0  0  0  0  0  0  0  0  0  0
   11.8946  -21.7924   18.5206 C   0  0  0  0  0  0  0  0  0  0  0  0
   11.7785  -20.5669   19.1627 C   0  0  0  0  0  0  0  0  0  0  0  0
   10.8118  -20.4066   20.0997 C   0  0  0  0  0  0  0  0  0  0  0  0
   10.6234  -19.1363   20.8218 C   0  0  0  0  0  0  0  0  0  0  0  0
    9.3126  -18.4685   20.4901 C   0  0  2  0  0  0  0  0  0  0  0  0
    9.2667  -18.1821   19.0933 N   0  0  0  0  0  0  0  0  0  0  0  0
    9.2489  -17.2321   21.3521 C   0  0  0  0  0  0  0  0  0  0  0  0
    9.7579  -16.1882   20.9031 O   0  0  0  0  0  0  0  0  0  0  0  0
    9.9444  -21.4574   20.4152 C   0  0  0  0  0  0  0  0  0  0  0  0
   10.0666  -22.6737   19.7727 C   0  0  0  0  0  0  0  0  0  0  0  0
    8.6496  -17.2305   22.6143 N   0  0  0  0  0  0  0  0  0  0  0  0
    8.6187  -16.0377   23.4798 C   0  0  1  0  0  0  0  0  0  0  0  0
    7.9621  -16.4964   24.7436 C   0  0  0  0  0  0  0  0  0  0  0  0
    7.0962  -15.5108   25.3787 C   0  0  0  0  0  0  0  0  0  0  0  0
    5.8994  -15.6805   26.0108 C   0  0  0  0  0  0  0  0  0  0  0  0
    5.4544  -14.4698   26.4569 N   0  0  0  0  0  0  0  0  0  0  0  0
    6.3420  -13.5195   26.1268 C   0  0  0  0  0  0  0  0  0  0  0  0
    6.3448  -12.1511   26.3648 C   0  0  0  0  0  0  0  0  0  0  0  0
    7.4243  -11.4310   25.9034 C   0  0  0  0  0  0  0  0  0  0  0  0
    8.4653  -12.0275   25.2330 C   0  0  0  0  0  0  0  0  0  0  0  0
    8.4444  -13.3965   25.0039 C   0  0  0  0  0  0  0  0  0  0  0  0
    7.3657  -14.1503   25.4575 C   0  0  0  0  0  0  0  0  0  0  0  0
   10.0235  -15.5561   23.6726 C   0  0  0  0  0  0  0  0  0  0  0  0
   10.4653  -14.4667   23.2658 O   0  0  0  0  0  0  0  0  0  0  0  0
    9.4678  -16.4482   30.4130 O   0  0  0  0  0  0  0  0  0  0  0  0
   10.1131  -16.0249   29.2509 C   0  0  0  0  0  0  0  0  0  0  0  0
    9.6935  -14.8875   28.6093 C   0  0  0  0  0  0  0  0  0  0  0  0
   10.3546  -14.4886   27.4545 C   0  0  0  0  0  0  0  0  0  0  0  0
   11.4137  -15.2614   26.9997 C   0  0  0  0  0  0  0  0  0  0  0  0
   12.1280  -14.8399   25.7468 C   0  0  0  0  0  0  0  0  0  0  0  0
   12.2592  -15.9609   24.7755 C   0  0  2  0  0  0  0  0  0  0  0  0
   10.9182  -16.4199   24.3775 N   0  0  0  0  0  0  0  0  0  0  0  0
   13.0425  -17.1186   25.2242 C   0  0  0  0  0  0  0  0  0  0  0  0
   14.2496  -16.9844   25.5850 O   0  0  0  0  0  0  0  0  0  0  0  0
   11.8161  -16.3880   27.6504 C   0  0  0  0  0  0  0  0  0  0  0  0
   11.1679  -16.8004   28.8040 C   0  0  0  0  0  0  0  0  0  0  0  0
   12.5240  -18.3960   25.2790 O   0  0  0  0  0  0  0  0  0  0  0  0
  1  2  1  0
  2  3  2  0
  3  4  1  0
  5  6  1  0
  5  4  2  0
  6  7  1  0
  7  8  1  6
  9  7  1  0
 10  9  2  0
 11  5  1  0
 12 11  2  0
 12  2  1  0
 13  9  1  0
 14 15  1  1
 14 13  1  0
 16 24  1  0
 16 15  1  0
 17 16  2  0
 18 17  1  0
 18 19  1  0
 19 24  2  0
 20 19  1  0
 20 21  2  0
 21 22  1  0
 22 23  2  0
 24 23  1  0
 25 14  1  0
 25 34  1  0
 26 25  2  0
 28 38  2  0
 28 27  1  0
 29 28  1  0
 30 31  1  0
 30 29  2  0
 31 37  2  0
 32 31  1  0
 33 34  1  0
 33 32  1  1
 35 33  1  0
 36 35  2  0
 37 38  1  0
 39 35  1  0
M  END
$$$$
