PFE.pdb
     RDKit          3D

 28 29  0  0  1  0  0  0  0  0999 V2000
    7.4978  -15.3489   18.9742 N   0  0  0  0  0  0  0  0  0  0  0  0
    7.3172  -15.0084   17.5706 C   0  0  0  0  0  0  0  0  0  0  0  0
    7.3157  -13.4905   17.6363 C   0  0  0  0  0  0  0  0  0  0  0  0
    8.2346  -13.1289   18.8007 C   0  0  0  0  0  0  0  0  0  0  0  0
    8.6018  -14.4833   19.3379 C   0  0  1  0  0  0  0  0  0  0  0  0
    8.8205  -14.4754   20.8114 C   0  0  0  0  0  0  0  0  0  0  0  0
   10.0000  -14.5585   21.2172 O   0  0  0  0  0  0  0  0  0  0  0  0
    7.7687  -14.3798   21.7412 N   0  0  0  0  0  0  0  0  0  0  0  0
    7.9559  -14.1716   23.1454 C   0  0  1  0  0  0  0  0  0  0  0  0
    7.0066  -13.2160   23.7780 C   0  0  0  0  0  0  0  0  0  0  0  0
    7.1123  -13.0322   25.2164 C   0  0  0  0  0  0  0  0  0  0  0  0
    6.3479  -13.7614   26.0950 C   0  0  0  0  0  0  0  0  0  0  0  0
    6.4651  -13.5890   27.4758 C   0  0  0  0  0  0  0  0  0  0  0  0
    7.3551  -12.6781   28.0000 C   0  0  0  0  0  0  0  0  0  0  0  0
    8.1232  -11.9452   27.1224 C   0  0  0  0  0  0  0  0  0  0  0  0
    7.9955  -12.1274   25.7593 C   0  0  0  0  0  0  0  0  0  0  0  0
    8.1945  -15.4194   23.9222 C   0  0  0  0  0  0  0  0  0  0  0  0
    7.3871  -16.3922   23.7897 O   0  0  0  0  0  0  0  0  0  0  0  0
    9.2630  -15.6278   24.8219 N   0  0  0  0  0  0  0  0  0  0  0  0
    9.7813  -16.9603   25.1558 C   0  0  1  0  0  0  0  0  0  0  0  0
   11.0543  -17.2354   24.4451 C   0  0  0  0  0  0  0  0  0  0  0  0
   11.6142  -18.5758   24.8025 C   0  0  0  0  0  0  0  0  0  0  0  0
   12.8615  -18.9353   24.0961 C   0  0  0  0  0  0  0  0  0  0  0  0
   13.8718  -18.2145   23.9576 O   0  0  0  0  0  0  0  0  0  0  0  0
    9.9533  -16.9944   26.6184 C   0  0  0  0  0  0  0  0  0  0  0  0
    9.9520  -15.9838   27.3580 O   0  0  0  0  0  0  0  0  0  0  0  0
   12.9273  -20.2064   23.5220 O   0  0  0  0  0  0  0  0  0  0  0  0
   10.1315  -18.2128   27.2542 O   0  0  0  0  0  0  0  0  0  0  0  0
  1  5  1  0
  2  3  1  0
  2  1  1  0
  3  4  1  0
  5  4  1  0
  5  6  1  1
  6  7  2  0
  8  9  1  0
  8  6  1  0
  9 17  1  0
 10 11  1  0
  9 10  1  1
 11 12  2  0
 12 13  1  0
 14 13  2  0
 15 14  1  0
 16 15  2  0
 16 11  1  0
 17 18  2  0
 19 20  1  0
 19 17  1  0
 20 25  1  0
 20 21  1  6
 22 23  1  0
 22 21  1  0
 23 24  2  0
 25 26  2  0
 25 28  1  0
 27 23  1  0
M  END
$$$$
