PFE.pdb
     RDKit          3D

 28 29  0  0  1  0  0  0  0  0999 V2000
    7.7682  -15.3210   19.1686 N   0  0  0  0  0  0  0  0  0  0  0  0
    7.6152  -15.0399   17.7486 C   0  0  0  0  0  0  0  0  0  0  0  0
    7.4721  -13.5274   17.7642 C   0  0  0  0  0  0  0  0  0  0  0  0
    8.3052  -13.0482   18.9504 C   0  0  0  0  0  0  0  0  0  0  0  0
    8.7723  -14.3464   19.5457 C   0  0  1  0  0  0  0  0  0  0  0  0
    8.9284  -14.2751   21.0255 C   0  0  0  0  0  0  0  0  0  0  0  0
   10.0601  -13.9846   21.4701 O   0  0  0  0  0  0  0  0  0  0  0  0
    7.8694  -14.5181   21.9198 N   0  0  0  0  0  0  0  0  0  0  0  0
    7.9449  -14.2941   23.3320 C   0  0  1  0  0  0  0  0  0  0  0  0
    6.7667  -13.6100   23.9304 C   0  0  0  0  0  0  0  0  0  0  0  0
    6.8193  -13.3257   25.3553 C   0  0  0  0  0  0  0  0  0  0  0  0
    7.3220  -12.1409   25.8365 C   0  0  0  0  0  0  0  0  0  0  0  0
    7.3564  -11.8695   27.2059 C   0  0  0  0  0  0  0  0  0  0  0  0
    6.8849  -12.7863   28.1189 C   0  0  0  0  0  0  0  0  0  0  0  0
    6.3801  -13.9752   27.6404 C   0  0  0  0  0  0  0  0  0  0  0  0
    6.3531  -14.2287   26.2830 C   0  0  0  0  0  0  0  0  0  0  0  0
    8.4508  -15.4588   24.1098 C   0  0  0  0  0  0  0  0  0  0  0  0
    7.7796  -16.5383   24.1107 O   0  0  0  0  0  0  0  0  0  0  0  0
    9.6395  -15.4756   24.8721 N   0  0  0  0  0  0  0  0  0  0  0  0
   10.1840  -16.6956   25.4811 C   0  0  1  0  0  0  0  0  0  0  0  0
   11.6510  -16.7881   25.2800 C   0  0  0  0  0  0  0  0  0  0  0  0
   12.0104  -16.8833   23.8310 C   0  0  0  0  0  0  0  0  0  0  0  0
   13.4171  -16.5559   23.5181 C   0  0  0  0  0  0  0  0  0  0  0  0
   14.3019  -16.2218   24.3335 O   0  0  0  0  0  0  0  0  0  0  0  0
    9.8299  -16.6507   26.9104 C   0  0  0  0  0  0  0  0  0  0  0  0
    9.2851  -15.6761   27.4775 O   0  0  0  0  0  0  0  0  0  0  0  0
   13.8065  -16.6240   22.1789 O   0  0  0  0  0  0  0  0  0  0  0  0
   10.1043  -17.7460   27.7139 O   0  0  0  0  0  0  0  0  0  0  0  0
  1  5  1  0
  2  3  1  0
  2  1  1  0
  3  4  1  0
  5  4  1  0
  5  6  1  1
  6  7  2  0
  8  9  1  0
  8  6  1  0
  9 17  1  0
 10 11  1  0
  9 10  1  1
 11 12  2  0
 12 13  1  0
 14 13  2  0
 15 14  1  0
 16 15  2  0
 16 11  1  0
 17 18  2  0
 19 20  1  0
 19 17  1  0
 20 25  1  0
 20 21  1  1
 22 23  1  0
 22 21  1  0
 23 24  2  0
 25 26  2  0
 25 28  1  0
 27 23  1  0
M  END
$$$$
