PFE.pdb
     RDKit          3D

 28 29  0  0  1  0  0  0  0  0999 V2000
    7.8484  -15.4740   18.9952 N   0  0  0  0  0  0  0  0  0  0  0  0
    7.6604  -15.1897   17.5801 C   0  0  0  0  0  0  0  0  0  0  0  0
    7.3977  -13.6937   17.6153 C   0  0  0  0  0  0  0  0  0  0  0  0
    8.2009  -13.1634   18.8003 C   0  0  0  0  0  0  0  0  0  0  0  0
    8.7753  -14.4270   19.3758 C   0  0  1  0  0  0  0  0  0  0  0  0
    8.9388  -14.3605   20.8550 C   0  0  0  0  0  0  0  0  0  0  0  0
   10.1056  -14.3301   21.3029 O   0  0  0  0  0  0  0  0  0  0  0  0
    7.8495  -14.3315   21.7454 N   0  0  0  0  0  0  0  0  0  0  0  0
    7.9785  -14.2231   23.1673 C   0  0  1  0  0  0  0  0  0  0  0  0
    7.0055  -13.3097   23.8255 C   0  0  0  0  0  0  0  0  0  0  0  0
    7.0738  -13.2022   25.2739 C   0  0  0  0  0  0  0  0  0  0  0  0
    6.3730  -14.0530   26.0943 C   0  0  0  0  0  0  0  0  0  0  0  0
    6.4546  -13.9523   27.4848 C   0  0  0  0  0  0  0  0  0  0  0  0
    7.2441  -12.9921   28.0774 C   0  0  0  0  0  0  0  0  0  0  0  0
    7.9482  -12.1373   27.2583 C   0  0  0  0  0  0  0  0  0  0  0  0
    7.8568  -12.2498   25.8848 C   0  0  0  0  0  0  0  0  0  0  0  0
    8.1821  -15.5235   23.8637 C   0  0  0  0  0  0  0  0  0  0  0  0
    7.2852  -16.4195   23.7716 O   0  0  0  0  0  0  0  0  0  0  0  0
    9.3098  -15.8629   24.6433 N   0  0  0  0  0  0  0  0  0  0  0  0
    9.4966  -17.1874   25.2484 C   0  0  1  0  0  0  0  0  0  0  0  0
   10.3675  -18.0447   24.4071 C   0  0  0  0  0  0  0  0  0  0  0  0
   11.6603  -17.3697   24.0741 C   0  0  0  0  0  0  0  0  0  0  0  0
   12.4833  -18.0691   23.0654 C   0  0  0  0  0  0  0  0  0  0  0  0
   12.9234  -19.2351   23.1436 O   0  0  0  0  0  0  0  0  0  0  0  0
   10.0748  -16.9655   26.5850 C   0  0  0  0  0  0  0  0  0  0  0  0
   10.3986  -17.8776   27.3798 O   0  0  0  0  0  0  0  0  0  0  0  0
   12.8069  -17.3642   21.9043 O   0  0  0  0  0  0  0  0  0  0  0  0
   10.2896  -15.6696   27.0267 O   0  0  0  0  0  0  0  0  0  0  0  0
  1  5  1  0
  2  3  1  0
  2  1  1  0
  3  4  1  0
  5  4  1  0
  5  6  1  1
  6  7  2  0
  8  9  1  0
  8  6  1  0
  9 17  1  0
 10 11  1  0
  9 10  1  1
 11 12  2  0
 12 13  1  0
 14 13  2  0
 15 14  1  0
 16 15  2  0
 16 11  1  0
 17 18  2  0
 19 20  1  0
 19 17  1  0
 20 25  1  0
 20 21  1  6
 22 23  1  0
 22 21  1  0
 23 24  2  0
 25 26  2  0
 25 28  1  0
 27 23  1  0
M  END
$$$$
