PFE.pdb
     RDKit          3D

 28 29  0  0  1  0  0  0  0  0999 V2000
    7.3801  -15.2383   19.3687 N   0  0  0  0  0  0  0  0  0  0  0  0
    7.2477  -14.9730   17.9436 C   0  0  0  0  0  0  0  0  0  0  0  0
    7.4617  -13.4693   17.9056 C   0  0  0  0  0  0  0  0  0  0  0  0
    8.4241  -13.1623   19.0502 C   0  0  0  0  0  0  0  0  0  0  0  0
    8.5961  -14.5149   19.6817 C   0  0  1  0  0  0  0  0  0  0  0  0
    8.8157  -14.4367   21.1530 C   0  0  0  0  0  0  0  0  0  0  0  0
    9.9627  -14.1335   21.5470 O   0  0  0  0  0  0  0  0  0  0  0  0
    7.7992  -14.6869   22.0934 N   0  0  0  0  0  0  0  0  0  0  0  0
    7.9361  -14.4636   23.5011 C   0  0  1  0  0  0  0  0  0  0  0  0
    6.7764  -13.7984   24.1544 C   0  0  0  0  0  0  0  0  0  0  0  0
    6.9021  -13.4877   25.5692 C   0  0  0  0  0  0  0  0  0  0  0  0
    6.4778  -14.3622   26.5404 C   0  0  0  0  0  0  0  0  0  0  0  0
    6.6146  -14.0626   27.8975 C   0  0  0  0  0  0  0  0  0  0  0  0
    7.1821  -12.8756   28.3041 C   0  0  0  0  0  0  0  0  0  0  0  0
    7.6087  -11.9963   27.3335 C   0  0  0  0  0  0  0  0  0  0  0  0
    7.4663  -12.3072   25.9954 C   0  0  0  0  0  0  0  0  0  0  0  0
    8.4950  -15.6213   24.2525 C   0  0  0  0  0  0  0  0  0  0  0  0
    7.9355  -16.7572   24.1407 O   0  0  0  0  0  0  0  0  0  0  0  0
    9.6193  -15.5733   25.1058 N   0  0  0  0  0  0  0  0  0  0  0  0
   10.2761  -16.7751   25.6347 C   0  0  1  0  0  0  0  0  0  0  0  0
   11.7449  -16.7177   25.4330 C   0  0  0  0  0  0  0  0  0  0  0  0
   12.1164  -16.8710   23.9921 C   0  0  0  0  0  0  0  0  0  0  0  0
   13.5559  -16.7052   23.7017 C   0  0  0  0  0  0  0  0  0  0  0  0
   14.4547  -16.4373   24.5262 O   0  0  0  0  0  0  0  0  0  0  0  0
    9.9232  -16.8580   27.0625 C   0  0  0  0  0  0  0  0  0  0  0  0
    9.2887  -15.9793   27.6900 O   0  0  0  0  0  0  0  0  0  0  0  0
   13.9625  -16.8615   22.3751 O   0  0  0  0  0  0  0  0  0  0  0  0
   10.3037  -17.9720   27.7938 O   0  0  0  0  0  0  0  0  0  0  0  0
  1  5  1  0
  2  3  1  0
  2  1  1  0
  3  4  1  0
  5  4  1  0
  5  6  1  1
  6  7  2  0
  8  9  1  0
  8  6  1  0
  9 17  1  0
 10 11  1  0
  9 10  1  1
 11 12  2  0
 12 13  1  0
 14 13  2  0
 15 14  1  0
 16 15  2  0
 16 11  1  0
 17 18  2  0
 19 20  1  0
 19 17  1  0
 20 25  1  0
 20 21  1  1
 22 23  1  0
 22 21  1  0
 23 24  2  0
 25 26  2  0
 25 28  1  0
 27 23  1  0
M  END
$$$$
