PFE.pdb
     RDKit          3D

 28 29  0  0  1  0  0  0  0  0999 V2000
    7.0497  -14.9819   20.4504 N   0  0  0  0  0  0  0  0  0  0  0  0
    6.6878  -14.4494   19.1449 C   0  0  0  0  0  0  0  0  0  0  0  0
    7.0131  -12.9769   19.3298 C   0  0  0  0  0  0  0  0  0  0  0  0
    8.1856  -12.9348   20.3066 C   0  0  0  0  0  0  0  0  0  0  0  0
    8.3568  -14.3880   20.6482 C   0  0  1  0  0  0  0  0  0  0  0  0
    8.8404  -14.5961   22.0417 C   0  0  0  0  0  0  0  0  0  0  0  0
   10.0360  -14.3209   22.2816 O   0  0  0  0  0  0  0  0  0  0  0  0
    8.0160  -15.0809   23.0740 N   0  0  0  0  0  0  0  0  0  0  0  0
    8.4649  -15.3236   24.4118 C   0  0  1  0  0  0  0  0  0  0  0  0
    7.4375  -15.1321   25.4711 C   0  0  0  0  0  0  0  0  0  0  0  0
    7.1360  -13.7644   25.8616 C   0  0  0  0  0  0  0  0  0  0  0  0
    8.1258  -12.8824   26.2229 C   0  0  0  0  0  0  0  0  0  0  0  0
    7.8296  -11.5662   26.5833 C   0  0  0  0  0  0  0  0  0  0  0  0
    6.5298  -11.1113   26.5870 C   0  0  0  0  0  0  0  0  0  0  0  0
    5.5348  -11.9924   26.2254 C   0  0  0  0  0  0  0  0  0  0  0  0
    5.8440  -13.2911   25.8716 C   0  0  0  0  0  0  0  0  0  0  0  0
    9.2970  -16.5490   24.5649 C   0  0  0  0  0  0  0  0  0  0  0  0
    8.7468  -17.6879   24.4382 O   0  0  0  0  0  0  0  0  0  0  0  0
   10.6801  -16.5648   24.8498 N   0  0  0  0  0  0  0  0  0  0  0  0
   11.4732  -17.7992   24.9041 C   0  0  1  0  0  0  0  0  0  0  0  0
   12.8896  -17.5443   24.5433 C   0  0  0  0  0  0  0  0  0  0  0  0
   13.7315  -18.7724   24.6870 C   0  0  0  0  0  0  0  0  0  0  0  0
   15.1562  -18.5920   24.3382 C   0  0  0  0  0  0  0  0  0  0  0  0
   16.1338  -18.7515   25.0986 O   0  0  0  0  0  0  0  0  0  0  0  0
   11.3443  -18.3265   26.2736 C   0  0  0  0  0  0  0  0  0  0  0  0
   11.0364  -17.6389   27.2739 O   0  0  0  0  0  0  0  0  0  0  0  0
   15.4497  -18.2044   23.0293 O   0  0  0  0  0  0  0  0  0  0  0  0
   11.5725  -19.6731   26.5083 O   0  0  0  0  0  0  0  0  0  0  0  0
  1  5  1  0
  2  3  1  0
  2  1  1  0
  3  4  1  0
  5  4  1  0
  5  6  1  1
  6  7  2  0
  8  9  1  0
  8  6  1  0
  9 17  1  0
 10 11  1  0
  9 10  1  1
 11 12  2  0
 12 13  1  0
 14 13  2  0
 15 14  1  0
 16 15  2  0
 16 11  1  0
 17 18  2  0
 19 20  1  0
 19 17  1  0
 20 25  1  0
 20 21  1  1
 22 23  1  0
 22 21  1  0
 23 24  2  0
 25 26  2  0
 25 28  1  0
 27 23  1  0
M  END
$$$$
