PFE.pdb
     RDKit          3D

 28 29  0  0  1  0  0  0  0  0999 V2000
    6.9815  -15.2677   19.7927 N   0  0  0  0  0  0  0  0  0  0  0  0
    6.5530  -14.9498   18.4384 C   0  0  0  0  0  0  0  0  0  0  0  0
    6.5827  -13.4311   18.4718 C   0  0  0  0  0  0  0  0  0  0  0  0
    7.7024  -13.0634   19.4423 C   0  0  0  0  0  0  0  0  0  0  0  0
    8.1440  -14.4137   19.9319 C   0  0  1  0  0  0  0  0  0  0  0  0
    8.6270  -14.3826   21.3408 C   0  0  0  0  0  0  0  0  0  0  0  0
    9.8409  -14.1488   21.5265 O   0  0  0  0  0  0  0  0  0  0  0  0
    7.7826  -14.6024   22.4448 N   0  0  0  0  0  0  0  0  0  0  0  0
    8.2012  -14.4904   23.8095 C   0  0  1  0  0  0  0  0  0  0  0  0
    7.1550  -14.0220   24.7584 C   0  0  0  0  0  0  0  0  0  0  0  0
    7.5575  -13.8203   26.1409 C   0  0  0  0  0  0  0  0  0  0  0  0
    7.4581  -14.8232   27.0749 C   0  0  0  0  0  0  0  0  0  0  0  0
    7.8598  -14.6260   28.3978 C   0  0  0  0  0  0  0  0  0  0  0  0
    8.3700  -13.4141   28.8069 C   0  0  0  0  0  0  0  0  0  0  0  0
    8.4712  -12.4063   27.8735 C   0  0  0  0  0  0  0  0  0  0  0  0
    8.0696  -12.6170   26.5690 C   0  0  0  0  0  0  0  0  0  0  0  0
    9.0147  -15.6390   24.2960 C   0  0  0  0  0  0  0  0  0  0  0  0
    8.5300  -16.8120   24.2248 O   0  0  0  0  0  0  0  0  0  0  0  0
   10.3107  -15.5439   24.8489 N   0  0  0  0  0  0  0  0  0  0  0  0
   11.2218  -16.6900   24.9577 C   0  0  1  0  0  0  0  0  0  0  0  0
   12.5691  -16.3572   24.4331 C   0  0  0  0  0  0  0  0  0  0  0  0
   13.5249  -17.4978   24.5869 C   0  0  0  0  0  0  0  0  0  0  0  0
   14.8816  -17.2456   24.0581 C   0  0  0  0  0  0  0  0  0  0  0  0
   15.4047  -17.7894   23.0631 O   0  0  0  0  0  0  0  0  0  0  0  0
   11.2665  -17.0627   26.3822 C   0  0  0  0  0  0  0  0  0  0  0  0
   11.0502  -16.2739   27.3305 O   0  0  0  0  0  0  0  0  0  0  0  0
   15.6658  -16.3068   24.7313 O   0  0  0  0  0  0  0  0  0  0  0  0
   11.5655  -18.3693   26.7344 O   0  0  0  0  0  0  0  0  0  0  0  0
  1  5  1  0
  2  3  1  0
  2  1  1  0
  3  4  1  0
  5  4  1  0
  5  6  1  1
  6  7  2  0
  8  9  1  0
  8  6  1  0
  9 17  1  0
 10 11  1  0
  9 10  1  1
 11 12  2  0
 12 13  1  0
 14 13  2  0
 15 14  1  0
 16 15  2  0
 16 11  1  0
 17 18  2  0
 19 20  1  0
 19 17  1  0
 20 25  1  0
 20 21  1  1
 22 23  1  0
 22 21  1  0
 23 24  2  0
 25 26  2  0
 25 28  1  0
 27 23  1  0
M  END
$$$$
