PFE.pdb
     RDKit          3D

 28 29  0  0  1  0  0  0  0  0999 V2000
    7.3937  -14.9986   19.5043 N   0  0  0  0  0  0  0  0  0  0  0  0
    7.3216  -14.4324   18.1652 C   0  0  0  0  0  0  0  0  0  0  0  0
    7.6599  -12.9779   18.4446 C   0  0  0  0  0  0  0  0  0  0  0  0
    8.6136  -12.9996   19.6366 C   0  0  0  0  0  0  0  0  0  0  0  0
    8.6566  -14.4636   19.9725 C   0  0  1  0  0  0  0  0  0  0  0  0
    8.8427  -14.7121   21.4294 C   0  0  0  0  0  0  0  0  0  0  0  0
   10.0152  -14.7394   21.8620 O   0  0  0  0  0  0  0  0  0  0  0  0
    7.7680  -14.9127   22.3155 N   0  0  0  0  0  0  0  0  0  0  0  0
    7.9094  -15.0210   23.7362 C   0  0  1  0  0  0  0  0  0  0  0  0
    6.7356  -14.5631   24.5280 C   0  0  0  0  0  0  0  0  0  0  0  0
    6.9430  -13.4439   25.4326 C   0  0  0  0  0  0  0  0  0  0  0  0
    8.1943  -12.9251   25.6633 C   0  0  0  0  0  0  0  0  0  0  0  0
    8.3838  -11.8410   26.5229 C   0  0  0  0  0  0  0  0  0  0  0  0
    7.3163  -11.2571   27.1679 C   0  0  0  0  0  0  0  0  0  0  0  0
    6.0603  -11.7743   26.9391 C   0  0  0  0  0  0  0  0  0  0  0  0
    5.8895  -12.8469   26.0861 C   0  0  0  0  0  0  0  0  0  0  0  0
    8.5083  -16.3047   24.1951 C   0  0  0  0  0  0  0  0  0  0  0  0
    8.0817  -17.3956   23.7015 O   0  0  0  0  0  0  0  0  0  0  0  0
    9.5335  -16.4275   25.1587 N   0  0  0  0  0  0  0  0  0  0  0  0
   10.5024  -17.5306   25.1620 C   0  0  1  0  0  0  0  0  0  0  0  0
   11.6422  -17.2474   24.2555 C   0  0  0  0  0  0  0  0  0  0  0  0
   12.6769  -18.3266   24.3066 C   0  0  0  0  0  0  0  0  0  0  0  0
   13.8077  -18.1464   23.3723 C   0  0  0  0  0  0  0  0  0  0  0  0
   14.6076  -17.1877   23.3491 O   0  0  0  0  0  0  0  0  0  0  0  0
   10.9433  -17.7038   26.5570 C   0  0  0  0  0  0  0  0  0  0  0  0
   11.7764  -18.5575   26.9383 O   0  0  0  0  0  0  0  0  0  0  0  0
   14.0109  -19.1425   22.4151 O   0  0  0  0  0  0  0  0  0  0  0  0
   10.4204  -16.8819   27.5427 O   0  0  0  0  0  0  0  0  0  0  0  0
  1  5  1  0
  2  3  1  0
  2  1  1  0
  3  4  1  0
  5  4  1  0
  5  6  1  1
  6  7  2  0
  8  9  1  0
  8  6  1  0
  9 17  1  0
 10 11  1  0
  9 10  1  1
 11 12  2  0
 12 13  1  0
 14 13  2  0
 15 14  1  0
 16 15  2  0
 16 11  1  0
 17 18  2  0
 19 20  1  0
 19 17  1  0
 20 25  1  0
 20 21  1  6
 22 23  1  0
 22 21  1  0
 23 24  2  0
 25 26  2  0
 25 28  1  0
 27 23  1  0
M  END
$$$$
