PFE.pdb
     RDKit          3D

 28 29  0  0  1  0  0  0  0  0999 V2000
    7.2733  -14.7713   20.0627 N   0  0  0  0  0  0  0  0  0  0  0  0
    7.0687  -14.1650   18.7553 C   0  0  0  0  0  0  0  0  0  0  0  0
    7.3258  -12.7009   19.0691 C   0  0  0  0  0  0  0  0  0  0  0  0
    8.3602  -12.6968   20.1918 C   0  0  0  0  0  0  0  0  0  0  0  0
    8.5265  -14.1650   20.4653 C   0  0  1  0  0  0  0  0  0  0  0  0
    8.8312  -14.4507   21.8952 C   0  0  0  0  0  0  0  0  0  0  0  0
   10.0073  -14.2704   22.2788 O   0  0  0  0  0  0  0  0  0  0  0  0
    7.8624  -14.9064   22.8084 N   0  0  0  0  0  0  0  0  0  0  0  0
    8.1346  -15.2126   24.1804 C   0  0  1  0  0  0  0  0  0  0  0  0
    7.0040  -14.9798   25.1195 C   0  0  0  0  0  0  0  0  0  0  0  0
    6.9093  -13.6627   25.7281 C   0  0  0  0  0  0  0  0  0  0  0  0
    8.0290  -12.9292   26.0385 C   0  0  0  0  0  0  0  0  0  0  0  0
    7.9296  -11.6590   26.6101 C   0  0  0  0  0  0  0  0  0  0  0  0
    6.6998  -11.1015   26.8808 C   0  0  0  0  0  0  0  0  0  0  0  0
    5.5750  -11.8337   26.5711 C   0  0  0  0  0  0  0  0  0  0  0  0
    5.6901  -13.0887   26.0061 C   0  0  0  0  0  0  0  0  0  0  0  0
    8.8634  -16.4944   24.3879 C   0  0  0  0  0  0  0  0  0  0  0  0
    8.3112  -17.5825   24.0318 O   0  0  0  0  0  0  0  0  0  0  0  0
   10.1469  -16.6184   24.9640 N   0  0  0  0  0  0  0  0  0  0  0  0
   10.8638  -17.8962   25.0566 C   0  0  1  0  0  0  0  0  0  0  0  0
   12.0641  -17.9035   24.1846 C   0  0  0  0  0  0  0  0  0  0  0  0
   13.0208  -16.8109   24.5433 C   0  0  0  0  0  0  0  0  0  0  0  0
   14.2354  -16.7495   23.7037 C   0  0  0  0  0  0  0  0  0  0  0  0
   15.1436  -15.8951   23.7711 O   0  0  0  0  0  0  0  0  0  0  0  0
   11.2172  -18.0826   26.4746 C   0  0  0  0  0  0  0  0  0  0  0  0
   11.8414  -19.0691   26.9278 O   0  0  0  0  0  0  0  0  0  0  0  0
   14.3931  -17.7421   22.7343 O   0  0  0  0  0  0  0  0  0  0  0  0
   10.8490  -17.1188   27.3998 O   0  0  0  0  0  0  0  0  0  0  0  0
  1  5  1  0
  2  3  1  0
  2  1  1  0
  3  4  1  0
  5  4  1  0
  5  6  1  1
  6  7  2  0
  8  9  1  0
  8  6  1  0
  9 17  1  0
 10 11  1  0
  9 10  1  1
 11 12  2  0
 12 13  1  0
 14 13  2  0
 15 14  1  0
 16 15  2  0
 16 11  1  0
 17 18  2  0
 19 20  1  0
 19 17  1  0
 20 25  1  0
 20 21  1  6
 22 23  1  0
 22 21  1  0
 23 24  2  0
 25 26  2  0
 25 28  1  0
 27 23  1  0
M  END
$$$$
