PFE.pdb
     RDKit          3D

 28 29  0  0  1  0  0  0  0  0999 V2000
    7.7320  -15.1573   18.9318 N   0  0  0  0  0  0  0  0  0  0  0  0
    7.6238  -14.7924   17.5269 C   0  0  0  0  0  0  0  0  0  0  0  0
    7.6243  -13.2758   17.6184 C   0  0  0  0  0  0  0  0  0  0  0  0
    8.4842  -12.9379   18.8337 C   0  0  0  0  0  0  0  0  0  0  0  0
    8.8190  -14.3028   19.3656 C   0  0  1  0  0  0  0  0  0  0  0  0
    8.9629  -14.3206   20.8482 C   0  0  0  0  0  0  0  0  0  0  0  0
   10.1186  -14.4318   21.3116 O   0  0  0  0  0  0  0  0  0  0  0  0
    7.8671  -14.2189   21.7252 N   0  0  0  0  0  0  0  0  0  0  0  0
    7.9853  -14.1261   23.1491 C   0  0  1  0  0  0  0  0  0  0  0  0
    7.0322  -13.1910   23.8060 C   0  0  0  0  0  0  0  0  0  0  0  0
    7.1252  -13.0574   25.2508 C   0  0  0  0  0  0  0  0  0  0  0  0
    7.9559  -12.1337   25.8379 C   0  0  0  0  0  0  0  0  0  0  0  0
    8.0295  -12.0020   27.2262 C   0  0  0  0  0  0  0  0  0  0  0  0
    7.2674  -12.7984   28.0517 C   0  0  0  0  0  0  0  0  0  0  0  0
    6.4334  -13.7256   27.4669 C   0  0  0  0  0  0  0  0  0  0  0  0
    6.3721  -13.8436   26.0923 C   0  0  0  0  0  0  0  0  0  0  0  0
    8.1454  -15.4374   23.8363 C   0  0  0  0  0  0  0  0  0  0  0  0
    7.1998  -16.2847   23.7761 O   0  0  0  0  0  0  0  0  0  0  0  0
    9.2813  -15.8380   24.5736 N   0  0  0  0  0  0  0  0  0  0  0  0
    9.4487  -17.1924   25.1151 C   0  0  1  0  0  0  0  0  0  0  0  0
   10.4249  -17.9737   24.3163 C   0  0  0  0  0  0  0  0  0  0  0  0
   11.7679  -17.3157   24.2782 C   0  0  0  0  0  0  0  0  0  0  0  0
   12.7757  -18.0109   23.4506 C   0  0  0  0  0  0  0  0  0  0  0  0
   12.7293  -19.1970   23.0625 O   0  0  0  0  0  0  0  0  0  0  0  0
    9.8849  -17.0393   26.5138 C   0  0  0  0  0  0  0  0  0  0  0  0
   10.0328  -17.9862   27.3200 O   0  0  0  0  0  0  0  0  0  0  0  0
   13.8967  -17.2769   23.0577 O   0  0  0  0  0  0  0  0  0  0  0  0
   10.1596  -15.7733   27.0060 O   0  0  0  0  0  0  0  0  0  0  0  0
  1  5  1  0
  2  3  1  0
  2  1  1  0
  3  4  1  0
  5  4  1  0
  5  6  1  1
  6  7  2  0
  8  9  1  0
  8  6  1  0
  9 17  1  0
 10 11  1  0
  9 10  1  1
 11 12  2  0
 12 13  1  0
 14 13  2  0
 15 14  1  0
 16 15  2  0
 16 11  1  0
 17 18  2  0
 19 20  1  0
 19 17  1  0
 20 25  1  0
 20 21  1  6
 22 23  1  0
 22 21  1  0
 23 24  2  0
 25 26  2  0
 25 28  1  0
 27 23  1  0
M  END
$$$$
