PFE.pdb
     RDKit          3D

 28 29  0  0  1  0  0  0  0  0999 V2000
    7.5512  -15.2890   19.2191 N   0  0  0  0  0  0  0  0  0  0  0  0
    7.4512  -15.0261   17.7910 C   0  0  0  0  0  0  0  0  0  0  0  0
    7.6085  -13.5153   17.7605 C   0  0  0  0  0  0  0  0  0  0  0  0
    8.5239  -13.1739   18.9336 C   0  0  0  0  0  0  0  0  0  0  0  0
    8.7287  -14.5202   19.5689 C   0  0  1  0  0  0  0  0  0  0  0  0
    8.9013  -14.4365   21.0462 C   0  0  0  0  0  0  0  0  0  0  0  0
   10.0211  -14.0823   21.4743 O   0  0  0  0  0  0  0  0  0  0  0  0
    7.8701  -14.7357   21.9558 N   0  0  0  0  0  0  0  0  0  0  0  0
    7.9585  -14.5186   23.3683 C   0  0  1  0  0  0  0  0  0  0  0  0
    6.7456  -13.9292   23.9974 C   0  0  0  0  0  0  0  0  0  0  0  0
    6.8430  -13.5526   25.3984 C   0  0  0  0  0  0  0  0  0  0  0  0
    7.1700  -12.2740   25.7807 C   0  0  0  0  0  0  0  0  0  0  0  0
    7.2480  -11.9165   27.1284 C   0  0  0  0  0  0  0  0  0  0  0  0
    6.9981  -12.8401   28.1189 C   0  0  0  0  0  0  0  0  0  0  0  0
    6.6700  -14.1229   27.7396 C   0  0  0  0  0  0  0  0  0  0  0  0
    6.5970  -14.4608   26.4025 C   0  0  0  0  0  0  0  0  0  0  0  0
    8.5659  -15.6488   24.1240 C   0  0  0  0  0  0  0  0  0  0  0  0
    7.9630  -16.7675   24.1506 O   0  0  0  0  0  0  0  0  0  0  0  0
    9.7829  -15.5913   24.8381 N   0  0  0  0  0  0  0  0  0  0  0  0
   10.4076  -16.7689   25.4534 C   0  0  1  0  0  0  0  0  0  0  0  0
   11.8815  -16.7452   25.2849 C   0  0  0  0  0  0  0  0  0  0  0  0
   12.2763  -16.5442   23.8560 C   0  0  0  0  0  0  0  0  0  0  0  0
   13.7249  -16.6655   23.5899 C   0  0  0  0  0  0  0  0  0  0  0  0
   14.5379  -15.7268   23.4588 O   0  0  0  0  0  0  0  0  0  0  0  0
   10.0197  -16.7610   26.8746 C   0  0  0  0  0  0  0  0  0  0  0  0
   10.3227  -17.6537   27.6990 O   0  0  0  0  0  0  0  0  0  0  0  0
   14.2472  -17.9550   23.4713 O   0  0  0  0  0  0  0  0  0  0  0  0
    9.2667  -15.7076   27.3684 O   0  0  0  0  0  0  0  0  0  0  0  0
  1  5  1  0
  2  3  1  0
  2  1  1  0
  3  4  1  0
  5  4  1  0
  5  6  1  1
  6  7  2  0
  8  9  1  0
  8  6  1  0
  9 17  1  0
 10 11  1  0
  9 10  1  1
 11 12  2  0
 12 13  1  0
 14 13  2  0
 15 14  1  0
 16 15  2  0
 16 11  1  0
 17 18  2  0
 19 20  1  0
 19 17  1  0
 20 25  1  0
 20 21  1  1
 22 23  1  0
 22 21  1  0
 23 24  2  0
 25 26  2  0
 25 28  1  0
 27 23  1  0
M  END
$$$$
