PFE.pdb
     RDKit          3D

 28 29  0  0  1  0  0  0  0  0999 V2000
    7.3635  -15.0654   20.1957 N   0  0  0  0  0  0  0  0  0  0  0  0
    7.0781  -14.5257   18.8743 C   0  0  0  0  0  0  0  0  0  0  0  0
    7.1805  -13.0334   19.1400 C   0  0  0  0  0  0  0  0  0  0  0  0
    8.2230  -12.8836   20.2453 C   0  0  0  0  0  0  0  0  0  0  0  0
    8.5494  -14.3162   20.5596 C   0  0  1  0  0  0  0  0  0  0  0  0
    8.9015  -14.5228   21.9923 C   0  0  0  0  0  0  0  0  0  0  0  0
   10.0335  -14.1459   22.3655 O   0  0  0  0  0  0  0  0  0  0  0  0
    8.0232  -15.1142   22.9191 N   0  0  0  0  0  0  0  0  0  0  0  0
    8.3460  -15.3465   24.2946 C   0  0  1  0  0  0  0  0  0  0  0  0
    7.2230  -15.1542   25.2518 C   0  0  0  0  0  0  0  0  0  0  0  0
    7.0032  -13.8069   25.7525 C   0  0  0  0  0  0  0  0  0  0  0  0
    8.0377  -12.9151   25.9018 C   0  0  0  0  0  0  0  0  0  0  0  0
    7.8166  -11.6182   26.3702 C   0  0  0  0  0  0  0  0  0  0  0  0
    6.5483  -11.1931   26.6978 C   0  0  0  0  0  0  0  0  0  0  0  0
    5.5086  -12.0843   26.5494 C   0  0  0  0  0  0  0  0  0  0  0  0
    5.7437  -13.3635   26.0849 C   0  0  0  0  0  0  0  0  0  0  0  0
    9.1660  -16.5664   24.5328 C   0  0  0  0  0  0  0  0  0  0  0  0
    8.6149  -17.7080   24.4386 O   0  0  0  0  0  0  0  0  0  0  0  0
   10.5381  -16.5739   24.8673 N   0  0  0  0  0  0  0  0  0  0  0  0
   11.2936  -17.8062   25.1249 C   0  0  1  0  0  0  0  0  0  0  0  0
   12.7298  -17.6351   24.7943 C   0  0  0  0  0  0  0  0  0  0  0  0
   12.9379  -17.3567   23.3393 C   0  0  0  0  0  0  0  0  0  0  0  0
   14.3430  -17.1190   22.9481 C   0  0  0  0  0  0  0  0  0  0  0  0
   15.3197  -17.0034   23.7177 O   0  0  0  0  0  0  0  0  0  0  0  0
   11.0954  -18.1360   26.5469 C   0  0  0  0  0  0  0  0  0  0  0  0
   11.4741  -19.1992   27.0895 O   0  0  0  0  0  0  0  0  0  0  0  0
   14.6171  -17.0113   21.5832 O   0  0  0  0  0  0  0  0  0  0  0  0
   10.4485  -17.2294   27.3717 O   0  0  0  0  0  0  0  0  0  0  0  0
  1  5  1  0
  2  3  1  0
  2  1  1  0
  3  4  1  0
  5  4  1  0
  5  6  1  1
  6  7  2  0
  8  9  1  0
  8  6  1  0
  9 17  1  0
 10 11  1  0
  9 10  1  1
 11 12  2  0
 12 13  1  0
 14 13  2  0
 15 14  1  0
 16 15  2  0
 16 11  1  0
 17 18  2  0
 19 20  1  0
 19 17  1  0
 20 25  1  0
 20 21  1  1
 22 23  1  0
 22 21  1  0
 23 24  2  0
 25 26  2  0
 25 28  1  0
 27 23  1  0
M  END
$$$$
