VCP.pdb
     RDKit          3D

 21 21  0  0  1  0  0  0  0  0999 V2000
   24.6269  -22.6653  -14.1394 C   0  0  0  0  0  0  0  0  0  0  0  0
   24.0705  -21.3210  -14.5474 C   0  0  2  0  0  0  0  0  0  0  0  0
   23.7623  -21.3383  -16.0063 C   0  0  0  0  0  0  0  0  0  0  0  0
   25.0324  -20.2002  -14.1673 C   0  0  2  0  0  0  0  0  0  0  0  0
   26.2382  -20.4028  -14.9204 N   0  0  0  0  0  0  0  0  0  0  0  0
   25.2480  -20.3195  -12.7018 C   0  0  0  0  0  0  0  0  0  0  0  0
   26.0625  -21.1927  -12.3204 O   0  0  0  0  0  0  0  0  0  0  0  0
   24.6074  -19.5297  -11.7436 N   0  0  0  0  0  0  0  0  0  0  0  0
   24.8221  -19.5902  -10.3100 C   0  0  1  0  0  0  0  0  0  0  0  0
   24.7110  -18.2286   -9.6721 C   0  0  0  0  0  0  0  0  0  0  0  0
   26.2852  -17.3399   -9.9887 S   0  0  0  0  0  0  0  0  0  0  0  0
   23.8618  -20.5686   -9.7475 C   0  0  0  0  0  0  0  0  0  0  0  0
   22.8904  -20.9268  -10.4608 O   0  0  0  0  0  0  0  0  0  0  0  0
   23.9685  -21.1305   -8.4488 N   0  0  0  0  0  0  0  0  0  0  0  0
   24.9880  -20.8989   -7.4477 C   0  0  0  0  0  0  0  0  0  0  0  0
   25.0490  -22.1921   -6.6656 C   0  0  0  0  0  0  0  0  0  0  0  0
   23.7355  -22.8834   -6.8630 C   0  0  0  0  0  0  0  0  0  0  0  0
   23.0345  -22.0773   -7.8851 C   0  0  1  0  0  0  0  0  0  0  0  0
   21.8599  -21.3955   -7.2783 C   0  0  0  0  0  0  0  0  0  0  0  0
   21.9449  -20.1785   -6.9922 O   0  0  0  0  0  0  0  0  0  0  0  0
   20.6775  -22.0654   -7.0213 O   0  0  0  0  0  0  0  0  0  0  0  0
  2  1  1  6
  3  2  1  0
  4  2  1  0
  4  5  1  6
  6  4  1  0
  7  6  2  0
  8  6  1  0
  9 12  1  0
  9  8  1  0
 10 11  1  0
  9 10  1  1
 12 14  1  0
 13 12  2  0
 14 18  1  0
 14 15  1  0
 15 16  1  0
 17 16  1  0
 18 17  1  0
 19 21  1  0
 18 19  1  1
 20 19  2  0
M  END
$$$$
