VCP.pdb
     RDKit          3D

 21 21  0  0  1  0  0  0  0  0999 V2000
   18.2330  -10.6867  -20.4684 C   0  0  0  0  0  0  0  0  0  0  0  0
   18.9110  -10.2269  -19.1989 C   0  0  2  0  0  0  0  0  0  0  0  0
   19.3791   -8.8218  -19.3721 C   0  0  0  0  0  0  0  0  0  0  0  0
   20.0419  -11.1759  -18.8160 C   0  0  2  0  0  0  0  0  0  0  0  0
   19.4526  -12.4641  -18.5804 N   0  0  0  0  0  0  0  0  0  0  0  0
   20.6676  -10.6028  -17.5960 C   0  0  0  0  0  0  0  0  0  0  0  0
   19.9755  -10.6088  -16.5508 O   0  0  0  0  0  0  0  0  0  0  0  0
   21.9576  -10.0681  -17.5482 N   0  0  0  0  0  0  0  0  0  0  0  0
   22.6104   -9.5257  -16.3716 C   0  0  1  0  0  0  0  0  0  0  0  0
   24.1079   -9.6858  -16.4417 C   0  0  0  0  0  0  0  0  0  0  0  0
   24.5221  -11.3268  -15.7320 S   0  0  0  0  0  0  0  0  0  0  0  0
   22.1894   -8.1120  -16.2293 C   0  0  0  0  0  0  0  0  0  0  0  0
   22.0166   -7.4344  -17.2741 O   0  0  0  0  0  0  0  0  0  0  0  0
   21.9675   -7.4704  -14.9832 N   0  0  0  0  0  0  0  0  0  0  0  0
   22.0321   -8.0379  -13.6532 C   0  0  0  0  0  0  0  0  0  0  0  0
   21.0486   -7.2200  -12.8461 C   0  0  0  0  0  0  0  0  0  0  0  0
   20.8839   -5.9117  -13.5556 C   0  0  0  0  0  0  0  0  0  0  0  0
   21.6177   -6.0774  -14.8283 C   0  0  1  0  0  0  0  0  0  0  0  0
   22.8218   -5.2041  -14.8391 C   0  0  0  0  0  0  0  0  0  0  0  0
   23.9516   -5.7253  -14.6893 O   0  0  0  0  0  0  0  0  0  0  0  0
   22.7307   -3.8347  -15.0099 O   0  0  0  0  0  0  0  0  0  0  0  0
  2  1  1  6
  3  2  1  0
  4  2  1  0
  4  5  1  1
  6  4  1  0
  7  6  2  0
  8  6  1  0
  9 12  1  0
  9  8  1  0
 10 11  1  0
  9 10  1  6
 12 14  1  0
 13 12  2  0
 14 18  1  0
 14 15  1  0
 15 16  1  0
 17 16  1  0
 18 17  1  0
 19 21  1  0
 18 19  1  1
 20 19  2  0
M  END
$$$$
