VCP.pdb
     RDKit          3D

 21 21  0  0  1  0  0  0  0  0999 V2000
   24.4756  -13.0858  -16.1583 C   0  0  0  0  0  0  0  0  0  0  0  0
   23.5120  -13.6846  -15.1604 C   0  0  2  0  0  0  0  0  0  0  0  0
   24.1874  -14.7952  -14.4296 C   0  0  0  0  0  0  0  0  0  0  0  0
   22.2294  -14.1356  -15.8514 C   0  0  2  0  0  0  0  0  0  0  0  0
   22.5982  -15.1220  -16.8278 N   0  0  0  0  0  0  0  0  0  0  0  0
   21.6401  -12.9173  -16.4654 C   0  0  0  0  0  0  0  0  0  0  0  0
   21.9474  -12.6810  -17.6575 O   0  0  0  0  0  0  0  0  0  0  0  0
   20.7800  -12.0376  -15.8031 N   0  0  0  0  0  0  0  0  0  0  0  0
   20.1270  -10.8829  -16.3905 C   0  0  1  0  0  0  0  0  0  0  0  0
   18.6253  -10.9952  -16.3181 C   0  0  0  0  0  0  0  0  0  0  0  0
   17.9253   -9.3725  -16.8130 S   0  0  0  0  0  0  0  0  0  0  0  0
   20.6463   -9.6726  -15.7111 C   0  0  0  0  0  0  0  0  0  0  0  0
   20.8607   -9.7304  -14.4737 O   0  0  0  0  0  0  0  0  0  0  0  0
   20.9188   -8.4461  -16.3708 N   0  0  0  0  0  0  0  0  0  0  0  0
   20.7884   -8.1310  -17.7776 C   0  0  0  0  0  0  0  0  0  0  0  0
   21.8396   -7.0722  -18.0258 C   0  0  0  0  0  0  0  0  0  0  0  0
   22.1362   -6.4339  -16.7042 C   0  0  0  0  0  0  0  0  0  0  0  0
   21.4005   -7.2517  -15.7164 C   0  0  1  0  0  0  0  0  0  0  0  0
   20.2866   -6.4602  -15.1286 C   0  0  0  0  0  0  0  0  0  0  0  0
   19.1084   -6.7328  -15.4569 O   0  0  0  0  0  0  0  0  0  0  0  0
   20.5136   -5.4330  -14.2307 O   0  0  0  0  0  0  0  0  0  0  0  0
  2  1  1  6
  3  2  1  0
  4  2  1  0
  4  5  1  6
  6  4  1  0
  7  6  2  0
  8  6  1  0
  9 12  1  0
  9  8  1  0
 10 11  1  0
  9 10  1  1
 12 14  1  0
 13 12  2  0
 14 18  1  0
 14 15  1  0
 15 16  1  0
 17 16  1  0
 18 17  1  0
 19 21  1  0
 18 19  1  6
 20 19  2  0
M  END
$$$$
