VCP.pdb
     RDKit          3D

 21 21  0  0  1  0  0  0  0  0999 V2000
   31.2970  -22.7894  -17.0114 C   0  0  0  0  0  0  0  0  0  0  0  0
   30.3044  -23.7446  -17.6323 C   0  0  2  0  0  0  0  0  0  0  0  0
   29.8216  -24.6974  -16.5919 C   0  0  0  0  0  0  0  0  0  0  0  0
   30.9173  -24.4546  -18.8348 C   0  0  2  0  0  0  0  0  0  0  0  0
   31.0904  -23.4698  -19.8656 N   0  0  0  0  0  0  0  0  0  0  0  0
   29.9563  -25.5208  -19.2197 C   0  0  0  0  0  0  0  0  0  0  0  0
   28.8930  -25.1501  -19.7704 O   0  0  0  0  0  0  0  0  0  0  0  0
   30.1659  -26.8857  -19.0069 N   0  0  0  0  0  0  0  0  0  0  0  0
   29.2691  -27.9556  -19.4015 C   0  0  1  0  0  0  0  0  0  0  0  0
   29.7647  -28.6729  -20.6315 C   0  0  0  0  0  0  0  0  0  0  0  0
   28.5908  -30.0386  -20.9854 S   0  0  0  0  0  0  0  0  0  0  0  0
   29.0994  -28.8585  -18.2388 C   0  0  0  0  0  0  0  0  0  0  0  0
   30.1171  -29.1575  -17.5639 O   0  0  0  0  0  0  0  0  0  0  0  0
   27.8556  -29.4102  -17.8357 N   0  0  0  0  0  0  0  0  0  0  0  0
   26.5563  -29.2503  -18.4534 C   0  0  0  0  0  0  0  0  0  0  0  0
   25.5765  -29.3745  -17.3078 C   0  0  0  0  0  0  0  0  0  0  0  0
   26.2718  -30.1323  -16.2195 C   0  0  0  0  0  0  0  0  0  0  0  0
   27.6701  -30.2601  -16.6825 C   0  0  1  0  0  0  0  0  0  0  0  0
   27.9755  -31.6823  -16.9934 C   0  0  0  0  0  0  0  0  0  0  0  0
   27.9571  -32.0605  -18.1880 O   0  0  0  0  0  0  0  0  0  0  0  0
   28.2792  -32.5987  -16.0029 O   0  0  0  0  0  0  0  0  0  0  0  0
  2  1  1  1
  3  2  1  0
  4  2  1  0
  4  5  1  6
  6  4  1  0
  7  6  2  0
  8  6  1  0
  9 12  1  0
  9  8  1  0
 10 11  1  0
  9 10  1  6
 12 14  1  0
 13 12  2  0
 14 18  1  0
 14 15  1  0
 15 16  1  0
 17 16  1  0
 18 17  1  0
 19 21  1  0
 18 19  1  6
 20 19  2  0
M  END
$$$$
