VCP.pdb
     RDKit          3D

 21 21  0  0  1  0  0  0  0  0999 V2000
   18.5730  -11.2647  -19.5369 C   0  0  0  0  0  0  0  0  0  0  0  0
   18.5438  -10.3915  -18.3041 C   0  0  2  0  0  0  0  0  0  0  0  0
   19.0906   -9.0458  -18.6411 C   0  0  0  0  0  0  0  0  0  0  0  0
   19.2942  -11.0551  -17.1540 C   0  0  2  0  0  0  0  0  0  0  0  0
   18.6268  -12.2951  -16.8721 N   0  0  0  0  0  0  0  0  0  0  0  0
   19.2326  -10.1022  -16.0154 C   0  0  0  0  0  0  0  0  0  0  0  0
   18.1137   -9.9422  -15.4733 O   0  0  0  0  0  0  0  0  0  0  0  0
   20.3286   -9.3883  -15.5244 N   0  0  0  0  0  0  0  0  0  0  0  0
   20.3101   -8.4644  -14.4059 C   0  0  1  0  0  0  0  0  0  0  0  0
   21.0776   -9.0032  -13.2254 C   0  0  0  0  0  0  0  0  0  0  0  0
   20.9879   -7.7488  -11.8888 S   0  0  0  0  0  0  0  0  0  0  0  0
   20.8303   -7.1617  -14.8838 C   0  0  0  0  0  0  0  0  0  0  0  0
   21.8757   -7.1583  -15.5822 O   0  0  0  0  0  0  0  0  0  0  0  0
   20.2214   -5.9112  -14.6024 N   0  0  0  0  0  0  0  0  0  0  0  0
   18.9536   -5.6519  -13.9539 C   0  0  0  0  0  0  0  0  0  0  0  0
   18.4815   -4.3476  -14.5570 C   0  0  0  0  0  0  0  0  0  0  0  0
   19.6954   -3.6450  -15.0812 C   0  0  0  0  0  0  0  0  0  0  0  0
   20.7913   -4.6270  -14.9381 C   0  0  1  0  0  0  0  0  0  0  0  0
   21.7557   -4.1666  -13.9035 C   0  0  0  0  0  0  0  0  0  0  0  0
   22.3958   -3.1070  -14.0983 O   0  0  0  0  0  0  0  0  0  0  0  0
   21.9659   -4.8734  -12.7334 O   0  0  0  0  0  0  0  0  0  0  0  0
  2  1  1  6
  3  2  1  0
  4  2  1  0
  4  5  1  1
  6  4  1  0
  7  6  2  0
  8  6  1  0
  9 12  1  0
  9  8  1  0
 10 11  1  0
  9 10  1  1
 12 14  1  0
 13 12  2  0
 14 18  1  0
 14 15  1  0
 15 16  1  0
 17 16  1  0
 18 17  1  0
 19 21  1  0
 18 19  1  1
 20 19  2  0
M  END
$$$$
