VCP.pdb
     RDKit          3D

 21 21  0  0  1  0  0  0  0  0999 V2000
   19.7651  -10.2426  -18.8832 C   0  0  0  0  0  0  0  0  0  0  0  0
   20.9241  -10.6343  -17.9964 C   0  0  2  0  0  0  0  0  0  0  0  0
   21.7238  -11.6960  -18.6721 C   0  0  0  0  0  0  0  0  0  0  0  0
   20.4296  -11.0635  -16.6190 C   0  0  2  0  0  0  0  0  0  0  0  0
   19.5609  -12.1905  -16.8128 N   0  0  0  0  0  0  0  0  0  0  0  0
   19.7210   -9.8881  -16.0492 C   0  0  0  0  0  0  0  0  0  0  0  0
   18.5286   -9.7237  -16.3992 O   0  0  0  0  0  0  0  0  0  0  0  0
   20.2964   -8.9737  -15.1632 N   0  0  0  0  0  0  0  0  0  0  0  0
   19.6221   -7.8463  -14.5475 C   0  0  1  0  0  0  0  0  0  0  0  0
   20.1181   -7.5982  -13.1455 C   0  0  0  0  0  0  0  0  0  0  0  0
   19.4039   -8.9009  -12.0681 S   0  0  0  0  0  0  0  0  0  0  0  0
   19.7965   -6.6724  -15.4350 C   0  0  0  0  0  0  0  0  0  0  0  0
   20.8856   -6.5483  -16.0507 O   0  0  0  0  0  0  0  0  0  0  0  0
   18.8081   -5.6742  -15.6360 N   0  0  0  0  0  0  0  0  0  0  0  0
   17.4853   -5.5858  -15.0550 C   0  0  0  0  0  0  0  0  0  0  0  0
   16.6648   -4.8556  -16.0949 C   0  0  0  0  0  0  0  0  0  0  0  0
   17.6256   -4.0836  -16.9452 C   0  0  0  0  0  0  0  0  0  0  0  0
   18.9640   -4.5274  -16.5006 C   0  0  1  0  0  0  0  0  0  0  0  0
   19.6676   -3.4122  -15.8123 C   0  0  0  0  0  0  0  0  0  0  0  0
   19.8367   -3.4740  -14.5722 O   0  0  0  0  0  0  0  0  0  0  0  0
   20.1404   -2.3099  -16.5010 O   0  0  0  0  0  0  0  0  0  0  0  0
  2  1  1  6
  3  2  1  0
  4  2  1  0
  4  5  1  6
  6  4  1  0
  7  6  2  0
  8  6  1  0
  9 12  1  0
  9  8  1  0
 10 11  1  0
  9 10  1  1
 12 14  1  0
 13 12  2  0
 14 18  1  0
 14 15  1  0
 15 16  1  0
 17 16  1  0
 18 17  1  0
 19 21  1  0
 18 19  1  1
 20 19  2  0
M  END
$$$$
