VCP.pdb
     RDKit          3D

 21 21  0  0  1  0  0  0  0  0999 V2000
   18.6613  -11.2246  -15.5005 C   0  0  0  0  0  0  0  0  0  0  0  0
   18.0813  -10.7151  -16.7993 C   0  0  2  0  0  0  0  0  0  0  0  0
   17.9048  -11.8575  -17.7411 C   0  0  0  0  0  0  0  0  0  0  0  0
   18.9525   -9.6073  -17.3823 C   0  0  2  0  0  0  0  0  0  0  0  0
   20.2155  -10.1980  -17.7262 N   0  0  0  0  0  0  0  0  0  0  0  0
   19.0755   -8.5755  -16.3200 C   0  0  0  0  0  0  0  0  0  0  0  0
   18.0147   -8.0233  -15.9440 O   0  0  0  0  0  0  0  0  0  0  0  0
   20.2818   -8.1930  -15.7280 N   0  0  0  0  0  0  0  0  0  0  0  0
   20.4474   -7.1535  -14.7295 C   0  0  1  0  0  0  0  0  0  0  0  0
   21.5411   -7.4923  -13.7487 C   0  0  0  0  0  0  0  0  0  0  0  0
   21.7347   -6.0583  -12.6198 S   0  0  0  0  0  0  0  0  0  0  0  0
   20.6878   -5.8753  -15.4396 C   0  0  0  0  0  0  0  0  0  0  0  0
   21.5057   -5.8695  -16.3943 O   0  0  0  0  0  0  0  0  0  0  0  0
   20.0507   -4.6509  -15.1099 N   0  0  0  0  0  0  0  0  0  0  0  0
   19.0638   -4.3967  -14.0819 C   0  0  0  0  0  0  0  0  0  0  0  0
   18.2398   -3.2508  -14.6255 C   0  0  0  0  0  0  0  0  0  0  0  0
   19.0893   -2.5434  -15.6354 C   0  0  0  0  0  0  0  0  0  0  0  0
   20.2891   -3.3947  -15.7822 C   0  0  1  0  0  0  0  0  0  0  0  0
   21.4806   -2.6946  -15.2319 C   0  0  0  0  0  0  0  0  0  0  0  0
   21.9944   -3.1142  -14.1688 O   0  0  0  0  0  0  0  0  0  0  0  0
   22.0374   -1.5950  -15.8594 O   0  0  0  0  0  0  0  0  0  0  0  0
  2  1  1  1
  3  2  1  0
  4  2  1  0
  4  5  1  1
  6  4  1  0
  7  6  2  0
  8  6  1  0
  9 12  1  0
  9  8  1  0
 10 11  1  0
  9 10  1  1
 12 14  1  0
 13 12  2  0
 14 18  1  0
 14 15  1  0
 15 16  1  0
 17 16  1  0
 18 17  1  0
 19 21  1  0
 18 19  1  1
 20 19  2  0
M  END
$$$$
