VCP.pdb
     RDKit          3D

 21 21  0  0  1  0  0  0  0  0999 V2000
   18.8980  -11.2290  -18.5479 C   0  0  0  0  0  0  0  0  0  0  0  0
   18.9354  -10.0338  -17.6243 C   0  0  2  0  0  0  0  0  0  0  0  0
   19.4693   -8.8554  -18.3658 C   0  0  0  0  0  0  0  0  0  0  0  0
   19.7412  -10.3468  -16.3678 C   0  0  2  0  0  0  0  0  0  0  0  0
   19.0794  -11.4322  -15.6995 N   0  0  0  0  0  0  0  0  0  0  0  0
   19.7493   -9.0994  -15.5602 C   0  0  0  0  0  0  0  0  0  0  0  0
   18.6590   -8.7508  -15.0492 O   0  0  0  0  0  0  0  0  0  0  0  0
   20.8803   -8.3085  -15.3422 N   0  0  0  0  0  0  0  0  0  0  0  0
   20.9301   -7.0966  -14.5463 C   0  0  1  0  0  0  0  0  0  0  0  0
   22.0778   -7.1186  -13.5689 C   0  0  0  0  0  0  0  0  0  0  0  0
   22.2047   -5.4446  -12.8276 S   0  0  0  0  0  0  0  0  0  0  0  0
   20.9891   -5.9442  -15.4762 C   0  0  0  0  0  0  0  0  0  0  0  0
   21.7748   -6.0093  -16.4555 O   0  0  0  0  0  0  0  0  0  0  0  0
   20.2117   -4.7659  -15.3319 N   0  0  0  0  0  0  0  0  0  0  0  0
   19.1416   -4.5015  -14.3937 C   0  0  0  0  0  0  0  0  0  0  0  0
   18.2413   -3.5230  -15.1147 C   0  0  0  0  0  0  0  0  0  0  0  0
   19.0765   -2.8508  -16.1601 C   0  0  0  0  0  0  0  0  0  0  0  0
   20.3632   -3.5786  -16.1408 C   0  0  1  0  0  0  0  0  0  0  0  0
   21.4407   -2.6941  -15.6217 C   0  0  0  0  0  0  0  0  0  0  0  0
   21.7311   -1.6537  -16.2569 O   0  0  0  0  0  0  0  0  0  0  0  0
   22.1305   -2.9865  -14.4592 O   0  0  0  0  0  0  0  0  0  0  0  0
  2  1  1  6
  3  2  1  0
  4  2  1  0
  4  5  1  1
  6  4  1  0
  7  6  2  0
  8  6  1  0
  9 12  1  0
  9  8  1  0
 10 11  1  0
  9 10  1  1
 12 14  1  0
 13 12  2  0
 14 18  1  0
 14 15  1  0
 15 16  1  0
 17 16  1  0
 18 17  1  0
 19 21  1  0
 18 19  1  1
 20 19  2  0
M  END
$$$$
