VCP.pdb
     RDKit          3D

 21 21  0  0  1  0  0  0  0  0999 V2000
   16.0791  -15.0261  -17.1685 C   0  0  0  0  0  0  0  0  0  0  0  0
   17.4137  -14.3566  -16.9371 C   0  0  2  0  0  0  0  0  0  0  0  0
   17.2512  -13.2703  -15.9287 C   0  0  0  0  0  0  0  0  0  0  0  0
   17.9993  -13.8503  -18.2512 C   0  0  2  0  0  0  0  0  0  0  0  0
   18.1056  -14.9804  -19.1311 N   0  0  0  0  0  0  0  0  0  0  0  0
   19.3221  -13.2623  -17.9152 C   0  0  0  0  0  0  0  0  0  0  0  0
   20.3345  -13.8934  -18.3003 O   0  0  0  0  0  0  0  0  0  0  0  0
   19.4985  -12.0699  -17.2087 N   0  0  0  0  0  0  0  0  0  0  0  0
   20.6742  -11.2211  -17.2527 C   0  0  1  0  0  0  0  0  0  0  0  0
   21.0493  -10.8618  -18.6681 C   0  0  0  0  0  0  0  0  0  0  0  0
   22.5006   -9.7413  -18.5878 S   0  0  0  0  0  0  0  0  0  0  0  0
   20.4083  -10.0322  -16.4091 C   0  0  0  0  0  0  0  0  0  0  0  0
   19.3052   -9.4436  -16.5408 O   0  0  0  0  0  0  0  0  0  0  0  0
   21.3233   -9.5124  -15.4570 N   0  0  0  0  0  0  0  0  0  0  0  0
   22.6836   -9.9308  -15.1927 C   0  0  0  0  0  0  0  0  0  0  0  0
   22.8947   -9.6225  -13.7271 C   0  0  0  0  0  0  0  0  0  0  0  0
   21.9000   -8.5667  -13.3559 C   0  0  0  0  0  0  0  0  0  0  0  0
   21.0327   -8.4302  -14.5454 C   0  0  1  0  0  0  0  0  0  0  0  0
   21.2469   -7.1031  -15.1821 C   0  0  0  0  0  0  0  0  0  0  0  0
   21.7577   -7.0531  -16.3253 O   0  0  0  0  0  0  0  0  0  0  0  0
   20.8986   -5.9235  -14.5495 O   0  0  0  0  0  0  0  0  0  0  0  0
  2  1  1  6
  3  2  1  0
  4  2  1  0
  4  5  1  6
  6  4  1  0
  7  6  2  0
  8  6  1  0
  9 12  1  0
  9  8  1  0
 10 11  1  0
  9 10  1  6
 12 14  1  0
 13 12  2  0
 14 18  1  0
 14 15  1  0
 15 16  1  0
 17 16  1  0
 18 17  1  0
 19 21  1  0
 18 19  1  6
 20 19  2  0
M  END
$$$$
