VCP.pdb
     RDKit          3D

 21 21  0  0  1  0  0  0  0  0999 V2000
   33.1226  -25.9325  -15.3281 C   0  0  0  0  0  0  0  0  0  0  0  0
   32.0716  -25.7706  -16.4015 C   0  0  2  0  0  0  0  0  0  0  0  0
   31.7726  -24.3211  -16.5830 C   0  0  0  0  0  0  0  0  0  0  0  0
   30.8270  -26.5858  -16.0663 C   0  0  2  0  0  0  0  0  0  0  0  0
   31.2223  -27.9659  -16.0266 N   0  0  0  0  0  0  0  0  0  0  0  0
   29.8451  -26.3043  -17.1456 C   0  0  0  0  0  0  0  0  0  0  0  0
   30.1134  -26.7546  -18.2843 O   0  0  0  0  0  0  0  0  0  0  0  0
   28.6632  -25.5806  -16.9675 N   0  0  0  0  0  0  0  0  0  0  0  0
   27.6213  -25.3956  -17.9599 C   0  0  1  0  0  0  0  0  0  0  0  0
   26.9510  -26.6989  -18.3137 C   0  0  0  0  0  0  0  0  0  0  0  0
   26.2162  -27.3779  -16.7751 S   0  0  0  0  0  0  0  0  0  0  0  0
   26.6721  -24.3838  -17.4392 C   0  0  0  0  0  0  0  0  0  0  0  0
   26.5216  -24.2939  -16.1943 O   0  0  0  0  0  0  0  0  0  0  0  0
   25.9180  -23.5050  -18.2595 N   0  0  0  0  0  0  0  0  0  0  0  0
   25.8861  -23.4260  -19.7045 C   0  0  0  0  0  0  0  0  0  0  0  0
   25.5751  -21.9747  -19.9959 C   0  0  0  0  0  0  0  0  0  0  0  0
   24.9075  -21.4185  -18.7764 C   0  0  0  0  0  0  0  0  0  0  0  0
   25.0173  -22.4902  -17.7639 C   0  0  1  0  0  0  0  0  0  0  0  0
   23.6712  -23.0487  -17.4657 C   0  0  0  0  0  0  0  0  0  0  0  0
   23.3658  -24.1747  -17.9230 O   0  0  0  0  0  0  0  0  0  0  0  0
   22.7479  -22.3617  -16.6986 O   0  0  0  0  0  0  0  0  0  0  0  0
  2  1  1  1
  3  2  1  0
  4  2  1  0
  4  5  1  6
  6  4  1  0
  7  6  2  0
  8  6  1  0
  9 12  1  0
  9  8  1  0
 10 11  1  0
  9 10  1  1
 12 14  1  0
 13 12  2  0
 14 18  1  0
 14 15  1  0
 15 16  1  0
 17 16  1  0
 18 17  1  0
 19 21  1  0
 18 19  1  6
 20 19  2  0
M  END
$$$$
