VCP.pdb
     RDKit          3D

 21 21  0  0  1  0  0  0  0  0999 V2000
   12.9890  -12.7871  -14.4869 C   0  0  0  0  0  0  0  0  0  0  0  0
   13.7962  -12.0143  -13.4700 C   0  0  2  0  0  0  0  0  0  0  0  0
   13.0815  -10.7500  -13.1321 C   0  0  0  0  0  0  0  0  0  0  0  0
   15.2121  -11.7661  -13.9797 C   0  0  2  0  0  0  0  0  0  0  0  0
   15.8588  -13.0448  -14.0741 N   0  0  0  0  0  0  0  0  0  0  0  0
   15.8589  -10.8715  -12.9849 C   0  0  0  0  0  0  0  0  0  0  0  0
   16.2810  -11.4082  -11.9336 O   0  0  0  0  0  0  0  0  0  0  0  0
   16.0204   -9.4936  -13.1509 N   0  0  0  0  0  0  0  0  0  0  0  0
   16.6820   -8.5967  -12.2221 C   0  0  1  0  0  0  0  0  0  0  0  0
   17.9102   -7.9701  -12.8317 C   0  0  0  0  0  0  0  0  0  0  0  0
   18.5973   -6.7921  -11.6035 S   0  0  0  0  0  0  0  0  0  0  0  0
   15.6879   -7.5939  -11.7725 C   0  0  0  0  0  0  0  0  0  0  0  0
   14.8961   -7.1172  -12.6247 O   0  0  0  0  0  0  0  0  0  0  0  0
   15.5715   -7.1345  -10.4349 N   0  0  0  0  0  0  0  0  0  0  0  0
   16.3150   -7.5599   -9.2680 C   0  0  0  0  0  0  0  0  0  0  0  0
   15.3581   -7.3524   -8.1151 C   0  0  0  0  0  0  0  0  0  0  0  0
   14.3555   -6.3326   -8.5587 C   0  0  0  0  0  0  0  0  0  0  0  0
   14.6422   -6.1205   -9.9935 C   0  0  1  0  0  0  0  0  0  0  0  0
   15.1811   -4.7507  -10.2079 C   0  0  0  0  0  0  0  0  0  0  0  0
   14.4752   -3.7641   -9.8936 O   0  0  0  0  0  0  0  0  0  0  0  0
   16.4378   -4.5347  -10.7435 O   0  0  0  0  0  0  0  0  0  0  0  0
  2  1  1  6
  3  2  1  0
  4  2  1  0
  4  5  1  1
  6  4  1  0
  7  6  2  0
  8  6  1  0
  9 12  1  0
  9  8  1  0
 10 11  1  0
  9 10  1  6
 12 14  1  0
 13 12  2  0
 14 18  1  0
 14 15  1  0
 15 16  1  0
 17 16  1  0
 18 17  1  0
 19 21  1  0
 18 19  1  1
 20 19  2  0
M  END
$$$$
