VCP.pdb
     RDKit          3D

 21 21  0  0  1  0  0  0  0  0999 V2000
   19.6986   -9.9364  -19.0939 C   0  0  0  0  0  0  0  0  0  0  0  0
   19.1490  -11.2896  -18.7067 C   0  0  2  0  0  0  0  0  0  0  0  0
   17.7369  -11.1358  -18.2533 C   0  0  0  0  0  0  0  0  0  0  0  0
   20.0319  -11.9499  -17.6528 C   0  0  2  0  0  0  0  0  0  0  0  0
   19.4542  -13.2313  -17.3584 N   0  0  0  0  0  0  0  0  0  0  0  0
   20.0269  -11.0385  -16.4791 C   0  0  0  0  0  0  0  0  0  0  0  0
   18.9955  -11.0415  -15.7665 O   0  0  0  0  0  0  0  0  0  0  0  0
   21.0850  -10.1950  -16.1311 N   0  0  0  0  0  0  0  0  0  0  0  0
   21.1429   -9.3424  -14.9587 C   0  0  1  0  0  0  0  0  0  0  0  0
   22.2707   -9.7359  -14.0388 C   0  0  0  0  0  0  0  0  0  0  0  0
   22.1798   -8.6542  -12.5589 S   0  0  0  0  0  0  0  0  0  0  0  0
   21.2425   -7.9384  -15.4222 C   0  0  0  0  0  0  0  0  0  0  0  0
   22.0307   -7.6778  -16.3663 O   0  0  0  0  0  0  0  0  0  0  0  0
   20.5014   -6.8634  -14.8663 N   0  0  0  0  0  0  0  0  0  0  0  0
   19.5183   -6.9006  -13.8046 C   0  0  0  0  0  0  0  0  0  0  0  0
   18.5790   -5.7579  -14.1204 C   0  0  0  0  0  0  0  0  0  0  0  0
   19.3361   -4.7970  -14.9838 C   0  0  0  0  0  0  0  0  0  0  0  0
   20.6065   -5.4872  -15.2927 C   0  0  1  0  0  0  0  0  0  0  0  0
   21.7394   -4.7907  -14.6263 C   0  0  0  0  0  0  0  0  0  0  0  0
   22.3329   -5.3621  -13.6820 O   0  0  0  0  0  0  0  0  0  0  0  0
   22.1567   -3.5318  -15.0188 O   0  0  0  0  0  0  0  0  0  0  0  0
  2  1  1  1
  3  2  1  0
  4  2  1  0
  4  5  1  1
  6  4  1  0
  7  6  2  0
  8  6  1  0
  9 12  1  0
  9  8  1  0
 10 11  1  0
  9 10  1  1
 12 14  1  0
 13 12  2  0
 14 18  1  0
 14 15  1  0
 15 16  1  0
 17 16  1  0
 18 17  1  0
 19 21  1  0
 18 19  1  1
 20 19  2  0
M  END
$$$$
