VCP.pdb
     RDKit          3D

 21 21  0  0  1  0  0  0  0  0999 V2000
   19.3355  -11.8841  -20.3414 C   0  0  0  0  0  0  0  0  0  0  0  0
   20.7795  -11.8189  -20.7816 C   0  0  2  0  0  0  0  0  0  0  0  0
   20.8711  -12.1842  -22.2244 C   0  0  0  0  0  0  0  0  0  0  0  0
   21.6539  -12.7032  -19.8988 C   0  0  2  0  0  0  0  0  0  0  0  0
   21.1787  -14.0504  -20.0456 N   0  0  0  0  0  0  0  0  0  0  0  0
   21.4956  -12.1899  -18.5133 C   0  0  0  0  0  0  0  0  0  0  0  0
   20.6356  -12.7546  -17.7971 O   0  0  0  0  0  0  0  0  0  0  0  0
   22.2358  -11.1349  -17.9737 N   0  0  0  0  0  0  0  0  0  0  0  0
   22.1168  -10.6149  -16.6245 C   0  0  1  0  0  0  0  0  0  0  0  0
   23.4290  -10.6792  -15.8849 C   0  0  0  0  0  0  0  0  0  0  0  0
   23.2087   -9.7967  -14.2909 S   0  0  0  0  0  0  0  0  0  0  0  0
   21.5741   -9.2389  -16.7139 C   0  0  0  0  0  0  0  0  0  0  0  0
   22.0609   -8.4618  -17.5741 O   0  0  0  0  0  0  0  0  0  0  0  0
   20.5349   -8.7391  -15.8870 N   0  0  0  0  0  0  0  0  0  0  0  0
   19.7679   -9.4413  -14.8800 C   0  0  0  0  0  0  0  0  0  0  0  0
   18.4261   -8.7432  -14.8734 C   0  0  0  0  0  0  0  0  0  0  0  0
   18.6445   -7.3732  -15.4367 C   0  0  0  0  0  0  0  0  0  0  0  0
   20.0423   -7.3815  -15.9184 C   0  0  1  0  0  0  0  0  0  0  0  0
   20.8744   -6.4756  -15.0821 C   0  0  0  0  0  0  0  0  0  0  0  0
   21.7786   -6.9682  -14.3678 O   0  0  0  0  0  0  0  0  0  0  0  0
   20.6794   -5.1064  -15.0701 O   0  0  0  0  0  0  0  0  0  0  0  0
  2  1  1  1
  3  2  1  0
  4  2  1  0
  4  5  1  1
  6  4  1  0
  7  6  2  0
  8  6  1  0
  9 12  1  0
  9  8  1  0
 10 11  1  0
  9 10  1  6
 12 14  1  0
 13 12  2  0
 14 18  1  0
 14 15  1  0
 15 16  1  0
 17 16  1  0
 18 17  1  0
 19 21  1  0
 18 19  1  1
 20 19  2  0
M  END
$$$$
