VCP.pdb
     RDKit          3D

 21 21  0  0  1  0  0  0  0  0999 V2000
   15.1829   -7.6163  -11.8541 C   0  0  0  0  0  0  0  0  0  0  0  0
   16.2110   -8.4821  -11.1637 C   0  0  2  0  0  0  0  0  0  0  0  0
   15.5336   -9.6673  -10.5640 C   0  0  0  0  0  0  0  0  0  0  0  0
   16.9940   -7.6742  -10.1340 C   0  0  2  0  0  0  0  0  0  0  0  0
   16.0343   -6.9946   -9.3098 N   0  0  0  0  0  0  0  0  0  0  0  0
   17.8483   -6.7358  -10.9073 C   0  0  0  0  0  0  0  0  0  0  0  0
   17.4268   -5.5620  -11.0332 O   0  0  0  0  0  0  0  0  0  0  0  0
   19.0704   -7.0801  -11.4905 N   0  0  0  0  0  0  0  0  0  0  0  0
   19.9539   -6.1805  -12.2080 C   0  0  1  0  0  0  0  0  0  0  0  0
   21.3205   -6.1187  -11.5744 C   0  0  0  0  0  0  0  0  0  0  0  0
   22.3688   -5.0397  -12.6256 S   0  0  0  0  0  0  0  0  0  0  0  0
   19.9957   -6.6174  -13.6234 C   0  0  0  0  0  0  0  0  0  0  0  0
   20.1509   -7.8416  -13.8641 O   0  0  0  0  0  0  0  0  0  0  0  0
   19.8712   -5.7385  -14.7306 N   0  0  0  0  0  0  0  0  0  0  0  0
   19.6921   -4.3021  -14.7253 C   0  0  0  0  0  0  0  0  0  0  0  0
   18.9123   -4.0148  -15.9890 C   0  0  0  0  0  0  0  0  0  0  0  0
   19.1522   -5.1627  -16.9200 C   0  0  0  0  0  0  0  0  0  0  0  0
   19.8982   -6.1527  -16.1142 C   0  0  1  0  0  0  0  0  0  0  0  0
   21.2903   -6.2782  -16.6229 C   0  0  0  0  0  0  0  0  0  0  0  0
   22.2387   -5.8973  -15.8978 O   0  0  0  0  0  0  0  0  0  0  0  0
   21.5681   -6.8030  -17.8721 O   0  0  0  0  0  0  0  0  0  0  0  0
  2  1  1  1
  3  2  1  0
  4  2  1  0
  4  5  1  1
  6  4  1  0
  7  6  2  0
  8  6  1  0
  9 12  1  0
  9  8  1  0
 10 11  1  0
  9 10  1  1
 12 14  1  0
 13 12  2  0
 14 18  1  0
 14 15  1  0
 15 16  1  0
 17 16  1  0
 18 17  1  0
 19 21  1  0
 18 19  1  6
 20 19  2  0
M  END
$$$$
