QQH.pdb
     RDKit          3D

 29 29  0  0  1  0  0  0  0  0999 V2000
   16.6053   -8.7107  -18.3611 N   0  0  0  0  0  0  0  0  0  0  0  0
   16.0513  -10.0154  -18.4749 C   0  0  0  0  0  0  0  0  0  0  0  0
   14.9210  -10.2068  -18.9900 O   0  0  0  0  0  0  0  0  0  0  0  0
   16.8532  -11.1561  -17.9633 C   0  0  0  0  0  0  0  0  0  0  0  0
   18.1370  -10.6347  -17.3641 C   0  0  0  0  0  0  0  0  0  0  0  0
   19.0253  -11.7341  -16.8527 C   0  0  2  0  0  0  0  0  0  0  0  0
   18.2009  -12.6975  -16.1782 N   0  0  0  0  0  0  0  0  0  0  0  0
   20.1545  -11.2556  -16.0473 C   0  0  0  0  0  0  0  0  0  0  0  0
   19.9903  -11.1106  -14.8079 O   0  0  0  0  0  0  0  0  0  0  0  0
   26.3804  -11.7005  -17.0741 N   0  0  0  0  0  0  0  0  0  0  0  0
   26.2937  -10.8489  -15.9479 C   0  0  0  0  0  0  0  0  0  0  0  0
   27.3799  -10.5528  -15.3731 O   0  0  0  0  0  0  0  0  0  0  0  0
   25.0082  -10.3154  -15.4447 C   0  0  0  0  0  0  0  0  0  0  0  0
   23.8747  -10.8867  -16.2704 C   0  0  0  0  0  0  0  0  0  0  0  0
   22.5283  -10.4268  -15.7651 C   0  0  2  0  0  0  0  0  0  0  0  0
   21.4397  -10.9376  -16.5612 N   0  0  0  0  0  0  0  0  0  0  0  0
   22.5070   -8.9440  -15.8730 C   0  0  0  0  0  0  0  0  0  0  0  0
   22.8103   -8.4456  -16.9925 O   0  0  0  0  0  0  0  0  0  0  0  0
   22.1721   -8.0777  -14.8113 N   0  0  0  0  0  0  0  0  0  0  0  0
   22.1534   -6.6401  -15.0251 C   0  0  1  0  0  0  0  0  0  0  0  0
   20.8965   -6.3077  -15.7958 C   0  0  0  0  0  0  0  0  0  0  0  0
   20.8096   -4.8609  -16.0750 C   0  0  0  0  0  0  0  0  0  0  0  0
   21.7454   -3.8895  -15.8947 C   0  0  0  0  0  0  0  0  0  0  0  0
   21.2696   -2.6792  -16.2690 N   0  0  0  0  0  0  0  0  0  0  0  0
   20.0051   -2.9072  -16.6926 C   0  0  0  0  0  0  0  0  0  0  0  0
   19.7211   -4.2172  -16.5789 N   0  0  0  0  0  0  0  0  0  0  0  0
   22.2972   -5.8960  -13.7635 C   0  0  0  0  0  0  0  0  0  0  0  0
   22.3995   -6.5865  -12.5742 O   0  0  0  0  0  0  0  0  0  0  0  0
   22.3289   -4.6518  -13.7450 O   0  0  0  0  0  0  0  0  0  0  0  0
  1  2  1  0
  2  3  2  0
  4  2  1  0
  4  5  1  0
  6  5  1  0
  6  7  1  1
  8  6  1  0
  9  8  2  0
 10 11  1  0
 11 12  2  0
 11 13  1  0
 13 14  1  0
 15 14  1  6
 15 16  1  0
 16  8  1  0
 17 15  1  0
 17 18  2  0
 19 17  1  0
 20 19  1  0
 20 21  1  1
 21 22  1  0
 22 23  2  0
 23 24  1  0
 25 24  1  0
 26 22  1  0
 26 25  2  0
 27 20  1  0
 28 27  1  0
 29 27  2  0
M  END
$$$$
