QQH.pdb
     RDKit          3D

 29 29  0  0  1  0  0  0  0  0999 V2000
   13.3613  -13.9538  -15.4948 N   0  0  0  0  0  0  0  0  0  0  0  0
   13.2940  -14.6006  -14.2302 C   0  0  0  0  0  0  0  0  0  0  0  0
   13.0077  -15.8202  -14.1303 O   0  0  0  0  0  0  0  0  0  0  0  0
   13.5742  -13.7870  -13.0196 C   0  0  0  0  0  0  0  0  0  0  0  0
   13.8175  -12.3538  -13.4267 C   0  0  0  0  0  0  0  0  0  0  0  0
   15.1060  -11.8074  -12.8789 C   0  0  2  0  0  0  0  0  0  0  0  0
   15.3650  -12.4500  -11.6207 N   0  0  0  0  0  0  0  0  0  0  0  0
   15.1467  -10.3422  -12.8134 C   0  0  0  0  0  0  0  0  0  0  0  0
   14.8302   -9.6854  -13.8393 O   0  0  0  0  0  0  0  0  0  0  0  0
   14.9538   -6.5669   -7.6989 N   0  0  0  0  0  0  0  0  0  0  0  0
   13.8758   -7.2293   -8.3317 C   0  0  0  0  0  0  0  0  0  0  0  0
   12.8020   -7.3277   -7.6720 O   0  0  0  0  0  0  0  0  0  0  0  0
   13.9718   -7.7897   -9.6981 C   0  0  0  0  0  0  0  0  0  0  0  0
   15.3895   -7.6272  -10.2045 C   0  0  0  0  0  0  0  0  0  0  0  0
   15.5436   -8.1511  -11.6122 C   0  0  2  0  0  0  0  0  0  0  0  0
   15.5206   -9.5920  -11.6670 N   0  0  0  0  0  0  0  0  0  0  0  0
   16.8754   -7.7039  -12.0990 C   0  0  0  0  0  0  0  0  0  0  0  0
   17.8873   -8.1327  -11.4776 O   0  0  0  0  0  0  0  0  0  0  0  0
   17.0678   -6.8413  -13.1984 N   0  0  0  0  0  0  0  0  0  0  0  0
   18.4075   -6.4006  -13.5501 C   0  0  1  0  0  0  0  0  0  0  0  0
   18.7251   -6.9496  -14.9220 C   0  0  0  0  0  0  0  0  0  0  0  0
   20.0920   -6.5815  -15.3399 C   0  0  0  0  0  0  0  0  0  0  0  0
   21.0841   -5.9890  -14.6211 C   0  0  0  0  0  0  0  0  0  0  0  0
   22.1941   -5.8136  -15.3751 N   0  0  0  0  0  0  0  0  0  0  0  0
   21.8810   -6.3109  -16.5936 C   0  0  0  0  0  0  0  0  0  0  0  0
   20.6183   -6.7746  -16.5804 N   0  0  0  0  0  0  0  0  0  0  0  0
   18.5506   -4.9398  -13.4414 C   0  0  0  0  0  0  0  0  0  0  0  0
   19.7863   -4.3964  -13.1593 O   0  0  0  0  0  0  0  0  0  0  0  0
   17.5775   -4.1798  -13.5988 O   0  0  0  0  0  0  0  0  0  0  0  0
  1  2  1  0
  2  3  2  0
  4  2  1  0
  4  5  1  0
  6  5  1  0
  6  7  1  1
  8  6  1  0
  9  8  2  0
 10 11  1  0
 11 12  2  0
 11 13  1  0
 13 14  1  0
 15 14  1  1
 15 16  1  0
 16  8  1  0
 17 15  1  0
 17 18  2  0
 19 17  1  0
 20 19  1  0
 20 21  1  6
 21 22  1  0
 22 23  2  0
 23 24  1  0
 25 24  1  0
 26 22  1  0
 26 25  2  0
 27 20  1  0
 28 27  1  0
 29 27  2  0
M  END
$$$$
