QQH.pdb
     RDKit          3D

 29 29  0  0  1  0  0  0  0  0999 V2000
   27.3246  -20.1413  -17.0965 N   0  0  0  0  0  0  0  0  0  0  0  0
   27.7498  -20.9099  -15.9783 C   0  0  0  0  0  0  0  0  0  0  0  0
   28.8819  -21.4548  -15.9476 O   0  0  0  0  0  0  0  0  0  0  0  0
   26.8100  -21.0521  -14.8370 C   0  0  0  0  0  0  0  0  0  0  0  0
   25.4788  -20.4445  -15.2081 C   0  0  0  0  0  0  0  0  0  0  0  0
   24.4317  -20.6549  -14.1506 C   0  0  2  0  0  0  0  0  0  0  0  0
   24.9207  -21.6405  -13.2272 N   0  0  0  0  0  0  0  0  0  0  0  0
   23.1005  -20.9581  -14.6882 C   0  0  0  0  0  0  0  0  0  0  0  0
   22.6975  -20.3164  -15.6931 O   0  0  0  0  0  0  0  0  0  0  0  0
   20.5983  -25.4267  -16.7345 N   0  0  0  0  0  0  0  0  0  0  0  0
   19.3400  -24.9371  -16.3123 C   0  0  0  0  0  0  0  0  0  0  0  0
   18.3243  -25.3751  -16.9242 O   0  0  0  0  0  0  0  0  0  0  0  0
   19.1898  -23.9597  -15.2112 C   0  0  0  0  0  0  0  0  0  0  0  0
   20.5494  -23.6771  -14.6074 C   0  0  0  0  0  0  0  0  0  0  0  0
   20.9027  -22.2113  -14.6876 C   0  0  2  0  0  0  0  0  0  0  0  0
   22.2148  -21.9334  -14.1579 N   0  0  0  0  0  0  0  0  0  0  0  0
   19.9156  -21.4799  -13.8501 C   0  0  0  0  0  0  0  0  0  0  0  0
   20.2731  -21.1712  -12.6794 O   0  0  0  0  0  0  0  0  0  0  0  0
   18.6232  -21.1177  -14.2841 N   0  0  0  0  0  0  0  0  0  0  0  0
   18.0597  -19.8352  -13.8966 C   0  0  1  0  0  0  0  0  0  0  0  0
   19.0050  -18.7564  -14.3731 C   0  0  0  0  0  0  0  0  0  0  0  0
   18.4808  -17.4125  -14.0606 C   0  0  0  0  0  0  0  0  0  0  0  0
   17.3448  -17.0617  -13.3986 C   0  0  0  0  0  0  0  0  0  0  0  0
   17.2188  -15.7163  -13.3262 N   0  0  0  0  0  0  0  0  0  0  0  0
   18.3060  -15.2205  -13.9605 C   0  0  0  0  0  0  0  0  0  0  0  0
   19.0700  -16.2346  -14.4050 N   0  0  0  0  0  0  0  0  0  0  0  0
   16.6776  -19.6757  -14.3767 C   0  0  0  0  0  0  0  0  0  0  0  0
   15.7884  -18.9126  -13.6494 O   0  0  0  0  0  0  0  0  0  0  0  0
   16.2907  -20.2162  -15.4291 O   0  0  0  0  0  0  0  0  0  0  0  0
  1  2  1  0
  2  3  2  0
  4  2  1  0
  4  5  1  0
  6  5  1  0
  6  7  1  1
  8  6  1  0
  9  8  2  0
 10 11  1  0
 11 12  2  0
 11 13  1  0
 13 14  1  0
 15 14  1  1
 15 16  1  0
 16  8  1  0
 17 15  1  0
 17 18  2  0
 19 17  1  0
 20 19  1  0
 20 21  1  6
 21 22  1  0
 22 23  2  0
 23 24  1  0
 25 24  1  0
 26 22  1  0
 26 25  2  0
 27 20  1  0
 28 27  1  0
 29 27  2  0
M  END
$$$$
