QQH.pdb
     RDKit          3D

 29 29  0  0  1  0  0  0  0  0999 V2000
   22.1270  -12.1549  -20.5327 N   0  0  0  0  0  0  0  0  0  0  0  0
   22.8800  -13.3223  -20.8366 C   0  0  0  0  0  0  0  0  0  0  0  0
   22.5907  -14.0544  -21.8164 O   0  0  0  0  0  0  0  0  0  0  0  0
   24.0284  -13.6554  -19.9556 C   0  0  0  0  0  0  0  0  0  0  0  0
   24.1073  -12.6462  -18.8356 C   0  0  0  0  0  0  0  0  0  0  0  0
   24.9829  -11.4726  -19.1748 C   0  0  2  0  0  0  0  0  0  0  0  0
   26.3226  -11.9544  -19.3645 N   0  0  0  0  0  0  0  0  0  0  0  0
   24.8835  -10.3645  -18.2182 C   0  0  0  0  0  0  0  0  0  0  0  0
   25.5535  -10.4264  -17.1546 O   0  0  0  0  0  0  0  0  0  0  0  0
   25.7144   -4.6175  -19.2536 N   0  0  0  0  0  0  0  0  0  0  0  0
   26.5847   -5.6419  -18.8128 C   0  0  0  0  0  0  0  0  0  0  0  0
   27.8199   -5.4658  -19.0158 O   0  0  0  0  0  0  0  0  0  0  0  0
   26.1012   -6.8703  -18.1440 C   0  0  0  0  0  0  0  0  0  0  0  0
   24.5895   -6.8321  -18.0648 C   0  0  0  0  0  0  0  0  0  0  0  0
   24.0286   -8.1028  -17.4729 C   0  0  2  0  0  0  0  0  0  0  0  0
   24.0790   -9.2080  -18.3979 N   0  0  0  0  0  0  0  0  0  0  0  0
   22.5984   -7.8426  -17.1609 C   0  0  0  0  0  0  0  0  0  0  0  0
   21.7750   -7.9487  -18.1120 O   0  0  0  0  0  0  0  0  0  0  0  0
   22.1184   -7.4895  -15.8824 N   0  0  0  0  0  0  0  0  0  0  0  0
   20.6880   -7.3851  -15.6468 C   0  0  1  0  0  0  0  0  0  0  0  0
   20.0711   -8.7264  -15.9705 C   0  0  0  0  0  0  0  0  0  0  0  0
   18.6115   -8.7083  -15.7519 C   0  0  0  0  0  0  0  0  0  0  0  0
   17.8206   -7.7022  -15.2890 C   0  0  0  0  0  0  0  0  0  0  0  0
   16.5256   -8.0900  -15.2265 N   0  0  0  0  0  0  0  0  0  0  0  0
   16.5142   -9.3706  -15.6625 C   0  0  0  0  0  0  0  0  0  0  0  0
   17.7651   -9.7497  -15.9804 N   0  0  0  0  0  0  0  0  0  0  0  0
   20.3896   -6.9002  -14.2896 C   0  0  0  0  0  0  0  0  0  0  0  0
   19.2935   -6.0893  -14.0825 O   0  0  0  0  0  0  0  0  0  0  0  0
   21.1069   -7.2066  -13.3196 O   0  0  0  0  0  0  0  0  0  0  0  0
  1  2  1  0
  2  3  2  0
  4  2  1  0
  4  5  1  0
  6  5  1  0
  6  7  1  1
  8  6  1  0
  9  8  2  0
 10 11  1  0
 11 12  2  0
 11 13  1  0
 13 14  1  0
 15 14  1  6
 15 16  1  0
 16  8  1  0
 17 15  1  0
 17 18  2  0
 19 17  1  0
 20 19  1  0
 20 21  1  1
 21 22  1  0
 22 23  2  0
 23 24  1  0
 25 24  1  0
 26 22  1  0
 26 25  2  0
 27 20  1  0
 28 27  1  0
 29 27  2  0
M  END
$$$$
