QQH.pdb
     RDKit          3D

 29 29  0  0  1  0  0  0  0  0999 V2000
   21.5971  -17.4326  -16.7502 N   0  0  0  0  0  0  0  0  0  0  0  0
   20.4797  -17.4797  -17.6285 C   0  0  0  0  0  0  0  0  0  0  0  0
   20.3220  -18.4256  -18.4409 O   0  0  0  0  0  0  0  0  0  0  0  0
   19.4954  -16.3698  -17.5583 C   0  0  0  0  0  0  0  0  0  0  0  0
   19.8878  -15.4242  -16.4489 C   0  0  0  0  0  0  0  0  0  0  0  0
   19.7432  -13.9804  -16.8409 C   0  0  2  0  0  0  0  0  0  0  0  0
   19.5084  -13.9230  -18.2567 N   0  0  0  0  0  0  0  0  0  0  0  0
   20.8522  -13.1314  -16.3911 C   0  0  0  0  0  0  0  0  0  0  0  0
   21.0897  -13.0563  -15.1574 O   0  0  0  0  0  0  0  0  0  0  0  0
   26.3548  -11.9756  -16.0931 N   0  0  0  0  0  0  0  0  0  0  0  0
   25.7847  -13.1558  -16.6252 C   0  0  0  0  0  0  0  0  0  0  0  0
   26.3882  -14.2395  -16.3816 O   0  0  0  0  0  0  0  0  0  0  0  0
   24.5435  -13.1523  -17.4313 C   0  0  0  0  0  0  0  0  0  0  0  0
   24.0394  -11.7306  -17.5631 C   0  0  0  0  0  0  0  0  0  0  0  0
   22.7593  -11.5178  -16.7914 C   0  0  2  0  0  0  0  0  0  0  0  0
   21.6937  -12.3748  -17.2492 N   0  0  0  0  0  0  0  0  0  0  0  0
   22.3381  -10.1115  -17.0276 C   0  0  0  0  0  0  0  0  0  0  0  0
   22.0822   -9.7814  -18.2190 O   0  0  0  0  0  0  0  0  0  0  0  0
   22.2106   -9.1418  -16.0111 N   0  0  0  0  0  0  0  0  0  0  0  0
   21.1539   -8.1466  -16.0850 C   0  0  1  0  0  0  0  0  0  0  0  0
   19.8363   -8.8824  -16.1675 C   0  0  0  0  0  0  0  0  0  0  0  0
   18.7010   -7.9399  -16.2047 C   0  0  0  0  0  0  0  0  0  0  0  0
   18.7064   -6.5800  -16.1541 C   0  0  0  0  0  0  0  0  0  0  0  0
   17.4480   -6.0854  -16.2080 N   0  0  0  0  0  0  0  0  0  0  0  0
   16.6415   -7.1681  -16.2945 C   0  0  0  0  0  0  0  0  0  0  0  0
   17.3878   -8.2874  -16.2930 N   0  0  0  0  0  0  0  0  0  0  0  0
   21.2323   -7.1802  -14.9778 C   0  0  0  0  0  0  0  0  0  0  0  0
   20.7970   -5.8861  -15.1721 O   0  0  0  0  0  0  0  0  0  0  0  0
   21.6844   -7.5053  -13.8646 O   0  0  0  0  0  0  0  0  0  0  0  0
  1  2  1  0
  2  3  2  0
  4  2  1  0
  4  5  1  0
  6  5  1  0
  6  7  1  6
  8  6  1  0
  9  8  2  0
 10 11  1  0
 11 12  2  0
 11 13  1  0
 13 14  1  0
 15 14  1  6
 15 16  1  0
 16  8  1  0
 17 15  1  0
 17 18  2  0
 19 17  1  0
 20 19  1  0
 20 21  1  1
 21 22  1  0
 22 23  2  0
 23 24  1  0
 25 24  1  0
 26 22  1  0
 26 25  2  0
 27 20  1  0
 28 27  1  0
 29 27  2  0
M  END
$$$$
