QQH.pdb
     RDKit          3D

 29 29  0  0  1  0  0  0  0  0999 V2000
   14.4133  -11.3796    8.0949 N   0  0  0  0  0  0  0  0  0  0  0  0
   13.3177  -11.0481    7.2511 C   0  0  0  0  0  0  0  0  0  0  0  0
   12.4020  -10.2779    7.6354 O   0  0  0  0  0  0  0  0  0  0  0  0
   13.2857  -11.6430    5.8906 C   0  0  0  0  0  0  0  0  0  0  0  0
   14.5089  -12.5057    5.6942 C   0  0  0  0  0  0  0  0  0  0  0  0
   15.6991  -11.7220    5.2165 C   0  0  2  0  0  0  0  0  0  0  0  0
   15.4363  -11.2834    3.8743 N   0  0  0  0  0  0  0  0  0  0  0  0
   16.9741  -12.4323    5.3670 C   0  0  0  0  0  0  0  0  0  0  0  0
   17.3992  -13.1161    4.3996 O   0  0  0  0  0  0  0  0  0  0  0  0
   21.7507  -10.9144    9.1523 N   0  0  0  0  0  0  0  0  0  0  0  0
   21.6063  -10.5112    7.8041 C   0  0  0  0  0  0  0  0  0  0  0  0
   22.2943   -9.5190    7.4299 O   0  0  0  0  0  0  0  0  0  0  0  0
   20.7016  -11.1983    6.8556 C   0  0  0  0  0  0  0  0  0  0  0  0
   20.0045  -12.3377    7.5689 C   0  0  0  0  0  0  0  0  0  0  0  0
   19.0565  -13.0738    6.6529 C   0  0  2  0  0  0  0  0  0  0  0  0
   17.7813  -12.4106    6.5352 N   0  0  0  0  0  0  0  0  0  0  0  0
   18.8144  -14.4092    7.2602 C   0  0  0  0  0  0  0  0  0  0  0  0
   17.9005  -14.4880    8.1276 O   0  0  0  0  0  0  0  0  0  0  0  0
   19.5373  -15.5736    6.9264 N   0  0  0  0  0  0  0  0  0  0  0  0
   19.1891  -16.8451    7.5384 C   0  0  1  0  0  0  0  0  0  0  0  0
   19.1439  -17.8843    6.4419 C   0  0  0  0  0  0  0  0  0  0  0  0
   18.7694  -19.2079    6.9772 C   0  0  0  0  0  0  0  0  0  0  0  0
   17.9019  -19.5199    7.9782 C   0  0  0  0  0  0  0  0  0  0  0  0
   17.8427  -20.8579    8.1722 N   0  0  0  0  0  0  0  0  0  0  0  0
   18.6965  -21.3887    7.2669 C   0  0  0  0  0  0  0  0  0  0  0  0
   19.2578  -20.4025    6.5444 N   0  0  0  0  0  0  0  0  0  0  0  0
   20.0928  -17.1850    8.6492 C   0  0  0  0  0  0  0  0  0  0  0  0
   19.6380  -17.9857    9.6757 O   0  0  0  0  0  0  0  0  0  0  0  0
   21.2638  -16.7645    8.6838 O   0  0  0  0  0  0  0  0  0  0  0  0
  1  2  1  0
  2  3  2  0
  4  2  1  0
  4  5  1  0
  6  5  1  0
  6  7  1  6
  8  6  1  0
  9  8  2  0
 10 11  1  0
 11 12  2  0
 11 13  1  0
 13 14  1  0
 15 14  1  1
 15 16  1  0
 16  8  1  0
 17 15  1  0
 17 18  2  0
 19 17  1  0
 20 19  1  0
 20 21  1  6
 21 22  1  0
 22 23  2  0
 23 24  1  0
 25 24  1  0
 26 22  1  0
 26 25  2  0
 27 20  1  0
 28 27  1  0
 29 27  2  0
M  END
$$$$
