QQH.pdb
     RDKit          3D

 29 29  0  0  1  0  0  0  0  0999 V2000
   49.7759   -8.7828   -3.6829 N   0  0  0  0  0  0  0  0  0  0  0  0
   48.5584   -9.1131   -3.0264 C   0  0  0  0  0  0  0  0  0  0  0  0
   48.4468  -10.1567   -2.3351 O   0  0  0  0  0  0  0  0  0  0  0  0
   47.4121   -8.1817   -3.1821 C   0  0  0  0  0  0  0  0  0  0  0  0
   46.7985   -8.3695   -4.5486 C   0  0  0  0  0  0  0  0  0  0  0  0
   45.3734   -8.8427   -4.4830 C   0  0  2  0  0  0  0  0  0  0  0  0
   45.3364  -10.0413   -3.6925 N   0  0  0  0  0  0  0  0  0  0  0  0
   44.7352   -8.9815   -5.7969 C   0  0  0  0  0  0  0  0  0  0  0  0
   44.6570   -7.9670   -6.5376 O   0  0  0  0  0  0  0  0  0  0  0  0
   43.3717  -14.3468   -9.0090 N   0  0  0  0  0  0  0  0  0  0  0  0
   42.8853  -13.3124   -9.8424 C   0  0  0  0  0  0  0  0  0  0  0  0
   42.4489  -13.6544  -10.9784 O   0  0  0  0  0  0  0  0  0  0  0  0
   42.8756  -11.8908   -9.4310 C   0  0  0  0  0  0  0  0  0  0  0  0
   43.5081  -11.7645   -8.0611 C   0  0  0  0  0  0  0  0  0  0  0  0
   43.6103  -10.3230   -7.6235 C   0  0  2  0  0  0  0  0  0  0  0  0
   44.1895  -10.1882   -6.3096 N   0  0  0  0  0  0  0  0  0  0  0  0
   42.2243   -9.7885   -7.5609 C   0  0  0  0  0  0  0  0  0  0  0  0
   41.4217  -10.3651   -6.7753 O   0  0  0  0  0  0  0  0  0  0  0  0
   41.7641   -8.6909   -8.3180 N   0  0  0  0  0  0  0  0  0  0  0  0
   40.3640   -8.3050   -8.2609 C   0  0  1  0  0  0  0  0  0  0  0  0
   40.2863   -6.9628   -7.5705 C   0  0  0  0  0  0  0  0  0  0  0  0
   38.8922   -6.4844   -7.4908 C   0  0  0  0  0  0  0  0  0  0  0  0
   37.7366   -7.1409   -7.7830 C   0  0  0  0  0  0  0  0  0  0  0  0
   36.6604   -6.3448   -7.5843 N   0  0  0  0  0  0  0  0  0  0  0  0
   37.1632   -5.1635   -7.1577 C   0  0  0  0  0  0  0  0  0  0  0  0
   38.5050   -5.2396   -7.0988 N   0  0  0  0  0  0  0  0  0  0  0  0
   39.7327   -8.3326   -9.5901 C   0  0  0  0  0  0  0  0  0  0  0  0
   38.3840   -8.5994   -9.6974 O   0  0  0  0  0  0  0  0  0  0  0  0
   40.3912   -8.1197  -10.6247 O   0  0  0  0  0  0  0  0  0  0  0  0
  1  2  1  0
  2  3  2  0
  4  2  1  0
  4  5  1  0
  6  5  1  0
  6  7  1  6
  8  6  1  0
  9  8  2  0
 10 11  1  0
 11 12  2  0
 11 13  1  0
 13 14  1  0
 15 14  1  1
 15 16  1  0
 16  8  1  0
 17 15  1  0
 17 18  2  0
 19 17  1  0
 20 19  1  0
 20 21  1  6
 21 22  1  0
 22 23  2  0
 23 24  1  0
 25 24  1  0
 26 22  1  0
 26 25  2  0
 27 20  1  0
 28 27  1  0
 29 27  2  0
M  END
$$$$
