QQH.pdb
     RDKit          3D

 29 29  0  0  1  0  0  0  0  0999 V2000
   26.7986  -16.6664  -17.1515 N   0  0  0  0  0  0  0  0  0  0  0  0
   27.5275  -17.4140  -18.1169 C   0  0  0  0  0  0  0  0  0  0  0  0
   27.5665  -17.0669  -19.3242 O   0  0  0  0  0  0  0  0  0  0  0  0
   28.2481  -18.6275  -17.6543 C   0  0  0  0  0  0  0  0  0  0  0  0
   28.1212  -18.7419  -16.1544 C   0  0  0  0  0  0  0  0  0  0  0  0
   28.2563  -20.1578  -15.6685 C   0  0  2  0  0  0  0  0  0  0  0  0
   28.4915  -21.0007  -16.8074 N   0  0  0  0  0  0  0  0  0  0  0  0
   27.1413  -20.6024  -14.8247 C   0  0  0  0  0  0  0  0  0  0  0  0
   26.5830  -21.6977  -15.0940 O   0  0  0  0  0  0  0  0  0  0  0  0
   26.2796  -21.6181   -9.7666 N   0  0  0  0  0  0  0  0  0  0  0  0
   24.9402  -21.1637   -9.7435 C   0  0  0  0  0  0  0  0  0  0  0  0
   24.1601  -21.7323   -8.9274 O   0  0  0  0  0  0  0  0  0  0  0  0
   24.4480  -20.0777  -10.6203 C   0  0  0  0  0  0  0  0  0  0  0  0
   25.5776  -19.6076  -11.5126 C   0  0  0  0  0  0  0  0  0  0  0  0
   25.6438  -20.4014  -12.7952 C   0  0  2  0  0  0  0  0  0  0  0  0
   26.6323  -19.8852  -13.7096 N   0  0  0  0  0  0  0  0  0  0  0  0
   24.3157  -20.2776  -13.4521 C   0  0  0  0  0  0  0  0  0  0  0  0
   23.9305  -19.1136  -13.7529 O   0  0  0  0  0  0  0  0  0  0  0  0
   23.4761  -21.3705  -13.7528 N   0  0  0  0  0  0  0  0  0  0  0  0
   22.1510  -21.1386  -14.3030 C   0  0  1  0  0  0  0  0  0  0  0  0
   21.6161  -22.4674  -14.7854 C   0  0  0  0  0  0  0  0  0  0  0  0
   20.2274  -22.3391  -15.2687 C   0  0  0  0  0  0  0  0  0  0  0  0
   19.1704  -21.6999  -14.6975 C   0  0  0  0  0  0  0  0  0  0  0  0
   18.0581  -21.8218  -15.4586 N   0  0  0  0  0  0  0  0  0  0  0  0
   18.4364  -22.5562  -16.5299 C   0  0  0  0  0  0  0  0  0  0  0  0
   19.7399  -22.8712  -16.4230 N   0  0  0  0  0  0  0  0  0  0  0  0
   21.2714  -20.4511  -13.3440 C   0  0  0  0  0  0  0  0  0  0  0  0
   20.3119  -19.5756  -13.8073 O   0  0  0  0  0  0  0  0  0  0  0  0
   21.3739  -20.6425  -12.1183 O   0  0  0  0  0  0  0  0  0  0  0  0
  1  2  1  0
  2  3  2  0
  4  2  1  0
  4  5  1  0
  6  5  1  0
  6  7  1  6
  8  6  1  0
  9  8  2  0
 10 11  1  0
 11 12  2  0
 11 13  1  0
 13 14  1  0
 15 14  1  1
 15 16  1  0
 16  8  1  0
 17 15  1  0
 17 18  2  0
 19 17  1  0
 20 19  1  0
 20 21  1  1
 21 22  1  0
 22 23  2  0
 23 24  1  0
 25 24  1  0
 26 22  1  0
 26 25  2  0
 27 20  1  0
 28 27  1  0
 29 27  2  0
M  END
$$$$
