QQH.pdb
     RDKit          3D

 29 29  0  0  1  0  0  0  0  0999 V2000
   16.0579  -14.2812  -12.2093 N   0  0  0  0  0  0  0  0  0  0  0  0
   15.8776  -14.3114  -13.6195 C   0  0  0  0  0  0  0  0  0  0  0  0
   15.1666  -15.1879  -14.1723 O   0  0  0  0  0  0  0  0  0  0  0  0
   16.5592  -13.2686  -14.4281 C   0  0  0  0  0  0  0  0  0  0  0  0
   17.2860  -12.3187  -13.5071 C   0  0  0  0  0  0  0  0  0  0  0  0
   16.5489  -11.0233  -13.3128 C   0  0  2  0  0  0  0  0  0  0  0  0
   16.3353  -10.4325  -14.6045 N   0  0  0  0  0  0  0  0  0  0  0  0
   17.1851  -10.1197  -12.3477 C   0  0  0  0  0  0  0  0  0  0  0  0
   17.4654  -10.5627  -11.2036 O   0  0  0  0  0  0  0  0  0  0  0  0
   21.4218   -5.7788  -13.6487 N   0  0  0  0  0  0  0  0  0  0  0  0
   21.1986   -5.5593  -12.2691 C   0  0  0  0  0  0  0  0  0  0  0  0
   21.9785   -4.7522  -11.6876 O   0  0  0  0  0  0  0  0  0  0  0  0
   20.1131   -6.2280  -11.5176 C   0  0  0  0  0  0  0  0  0  0  0  0
   19.3979   -7.1987  -12.4337 C   0  0  0  0  0  0  0  0  0  0  0  0
   18.2930   -7.9349  -11.7147 C   0  0  2  0  0  0  0  0  0  0  0  0
   17.5160   -8.7626  -12.6040 N   0  0  0  0  0  0  0  0  0  0  0  0
   17.3821   -6.9055  -11.1479 C   0  0  0  0  0  0  0  0  0  0  0  0
   16.6872   -6.2409  -11.9659 O   0  0  0  0  0  0  0  0  0  0  0  0
   17.2534   -6.6348   -9.7695 N   0  0  0  0  0  0  0  0  0  0  0  0
   16.4368   -5.5190   -9.3215 C   0  0  1  0  0  0  0  0  0  0  0  0
   15.6671   -5.9745   -8.1031 C   0  0  0  0  0  0  0  0  0  0  0  0
   14.5627   -6.8791   -8.4780 C   0  0  0  0  0  0  0  0  0  0  0  0
   14.1368   -7.2546   -9.7147 C   0  0  0  0  0  0  0  0  0  0  0  0
   13.0819   -8.0982   -9.6313 N   0  0  0  0  0  0  0  0  0  0  0  0
   12.8483   -8.2492   -8.3074 C   0  0  0  0  0  0  0  0  0  0  0  0
   13.7350   -7.5190   -7.6071 N   0  0  0  0  0  0  0  0  0  0  0  0
   17.2393   -4.3045   -9.1039 C   0  0  0  0  0  0  0  0  0  0  0  0
   16.6082   -3.1192   -8.7898 O   0  0  0  0  0  0  0  0  0  0  0  0
   18.4804   -4.3225   -9.1972 O   0  0  0  0  0  0  0  0  0  0  0  0
  1  2  1  0
  2  3  2  0
  4  2  1  0
  4  5  1  0
  6  5  1  0
  6  7  1  6
  8  6  1  0
  9  8  2  0
 10 11  1  0
 11 12  2  0
 11 13  1  0
 13 14  1  0
 15 14  1  6
 15 16  1  0
 16  8  1  0
 17 15  1  0
 17 18  2  0
 19 17  1  0
 20 19  1  0
 20 21  1  1
 21 22  1  0
 22 23  2  0
 23 24  1  0
 25 24  1  0
 26 22  1  0
 26 25  2  0
 27 20  1  0
 28 27  1  0
 29 27  2  0
M  END
$$$$
