QQH.pdb
     RDKit          3D

 29 29  0  0  1  0  0  0  0  0999 V2000
   27.7515  -16.0760  -17.3677 N   0  0  0  0  0  0  0  0  0  0  0  0
   28.2260  -16.7878  -18.5037 C   0  0  0  0  0  0  0  0  0  0  0  0
   28.8975  -16.2200  -19.4016 O   0  0  0  0  0  0  0  0  0  0  0  0
   27.9028  -18.2342  -18.6002 C   0  0  0  0  0  0  0  0  0  0  0  0
   27.2340  -18.6825  -17.3232 C   0  0  0  0  0  0  0  0  0  0  0  0
   25.8852  -19.3010  -17.5626 C   0  0  2  0  0  0  0  0  0  0  0  0
   25.5592  -19.1383  -18.9520 N   0  0  0  0  0  0  0  0  0  0  0  0
   24.8425  -18.8175  -16.6506 C   0  0  0  0  0  0  0  0  0  0  0  0
   24.3717  -17.6646  -16.8327 O   0  0  0  0  0  0  0  0  0  0  0  0
   19.4787  -19.4441  -16.7139 N   0  0  0  0  0  0  0  0  0  0  0  0
   20.0055  -20.5826  -16.0600 C   0  0  0  0  0  0  0  0  0  0  0  0
   19.3012  -21.6319  -16.0880 O   0  0  0  0  0  0  0  0  0  0  0  0
   21.3141  -20.5747  -15.3688 C   0  0  0  0  0  0  0  0  0  0  0  0
   21.8934  -19.1765  -15.4153 C   0  0  0  0  0  0  0  0  0  0  0  0
   23.2318  -19.1027  -14.7203 C   0  0  2  0  0  0  0  0  0  0  0  0
   24.3122  -19.5573  -15.5605 N   0  0  0  0  0  0  0  0  0  0  0  0
   23.1624  -20.0119  -13.5459 C   0  0  0  0  0  0  0  0  0  0  0  0
   23.2236  -21.2517  -13.7756 O   0  0  0  0  0  0  0  0  0  0  0  0
   23.0341  -19.5731  -12.2115 N   0  0  0  0  0  0  0  0  0  0  0  0
   23.4148  -20.4519  -11.1181 C   0  0  1  0  0  0  0  0  0  0  0  0
   24.1879  -19.6269  -10.1150 C   0  0  0  0  0  0  0  0  0  0  0  0
   25.3796  -20.3527   -9.6336 C   0  0  0  0  0  0  0  0  0  0  0  0
   25.7870  -21.6215   -9.9093 C   0  0  0  0  0  0  0  0  0  0  0  0
   26.9371  -21.9158   -9.2598 N   0  0  0  0  0  0  0  0  0  0  0  0
   27.2504  -20.7992   -8.5632 C   0  0  0  0  0  0  0  0  0  0  0  0
   26.3183  -19.8545   -8.7829 N   0  0  0  0  0  0  0  0  0  0  0  0
   22.2533  -21.1537  -10.5486 C   0  0  0  0  0  0  0  0  0  0  0  0
   21.0076  -20.9775  -11.1135 O   0  0  0  0  0  0  0  0  0  0  0  0
   22.3697  -21.9065   -9.5641 O   0  0  0  0  0  0  0  0  0  0  0  0
  1  2  1  0
  2  3  2  0
  4  2  1  0
  4  5  1  0
  6  5  1  0
  6  7  1  6
  8  6  1  0
  9  8  2  0
 10 11  1  0
 11 12  2  0
 11 13  1  0
 13 14  1  0
 15 14  1  6
 15 16  1  0
 16  8  1  0
 17 15  1  0
 17 18  2  0
 19 17  1  0
 20 19  1  0
 20 21  1  1
 21 22  1  0
 22 23  2  0
 23 24  1  0
 25 24  1  0
 26 22  1  0
 26 25  2  0
 27 20  1  0
 28 27  1  0
 29 27  2  0
M  END
$$$$
