QQH.pdb
     RDKit          3D

 29 29  0  0  1  0  0  0  0  0999 V2000
   18.6194  -35.0077  -12.0822 N   0  0  0  0  0  0  0  0  0  0  0  0
   18.3250  -33.7286  -12.6292 C   0  0  0  0  0  0  0  0  0  0  0  0
   17.2017  -33.4710  -13.1306 O   0  0  0  0  0  0  0  0  0  0  0  0
   19.3919  -32.6960  -12.5911 C   0  0  0  0  0  0  0  0  0  0  0  0
   20.6341  -33.2847  -11.9672 C   0  0  0  0  0  0  0  0  0  0  0  0
   20.5408  -33.3789  -10.4700 C   0  0  2  0  0  0  0  0  0  0  0  0
   20.2039  -32.0789   -9.9605 N   0  0  0  0  0  0  0  0  0  0  0  0
   21.7258  -33.9716   -9.8396 C   0  0  0  0  0  0  0  0  0  0  0  0
   22.4474  -34.7440  -10.5228 O   0  0  0  0  0  0  0  0  0  0  0  0
   26.7929  -32.2348   -8.9330 N   0  0  0  0  0  0  0  0  0  0  0  0
   26.9534  -33.4737   -8.2693 C   0  0  0  0  0  0  0  0  0  0  0  0
   28.1144  -33.7502   -7.8527 O   0  0  0  0  0  0  0  0  0  0  0  0
   25.8349  -34.4197   -8.0586 C   0  0  0  0  0  0  0  0  0  0  0  0
   24.5758  -33.8473   -8.6750 C   0  0  0  0  0  0  0  0  0  0  0  0
   23.3407  -34.2668   -7.9145 C   0  0  2  0  0  0  0  0  0  0  0  0
   22.1317  -33.7407   -8.4984 N   0  0  0  0  0  0  0  0  0  0  0  0
   23.4612  -33.7019   -6.5445 C   0  0  0  0  0  0  0  0  0  0  0  0
   23.5652  -32.4474   -6.4481 O   0  0  0  0  0  0  0  0  0  0  0  0
   23.4655  -34.4770   -5.3660 N   0  0  0  0  0  0  0  0  0  0  0  0
   23.6517  -33.8353   -4.0752 C   0  0  1  0  0  0  0  0  0  0  0  0
   24.7964  -32.8577   -4.2103 C   0  0  0  0  0  0  0  0  0  0  0  0
   26.0982  -33.5517   -4.1645 C   0  0  0  0  0  0  0  0  0  0  0  0
   26.3635  -34.8838   -4.0802 C   0  0  0  0  0  0  0  0  0  0  0  0
   27.6967  -35.1144   -4.0560 N   0  0  0  0  0  0  0  0  0  0  0  0
   28.2726  -33.8924   -4.1273 C   0  0  0  0  0  0  0  0  0  0  0  0
   27.3176  -32.9472   -4.1928 N   0  0  0  0  0  0  0  0  0  0  0  0
   22.4047  -33.2329   -3.5772 C   0  0  0  0  0  0  0  0  0  0  0  0
   22.4194  -32.5117   -2.4018 O   0  0  0  0  0  0  0  0  0  0  0  0
   21.3317  -33.3598   -4.1952 O   0  0  0  0  0  0  0  0  0  0  0  0
  1  2  1  0
  2  3  2  0
  4  2  1  0
  4  5  1  0
  6  5  1  0
  6  7  1  1
  8  6  1  0
  9  8  2  0
 10 11  1  0
 11 12  2  0
 11 13  1  0
 13 14  1  0
 15 14  1  6
 15 16  1  0
 16  8  1  0
 17 15  1  0
 17 18  2  0
 19 17  1  0
 20 19  1  0
 20 21  1  6
 21 22  1  0
 22 23  2  0
 23 24  1  0
 25 24  1  0
 26 22  1  0
 26 25  2  0
 27 20  1  0
 28 27  1  0
 29 27  2  0
M  END
$$$$
