QQH.pdb
     RDKit          3D

 29 29  0  0  1  0  0  0  0  0999 V2000
   21.3203  -16.6128  -18.8242 N   0  0  0  0  0  0  0  0  0  0  0  0
   20.1315  -17.2539  -19.2692 C   0  0  0  0  0  0  0  0  0  0  0  0
   20.0010  -18.5029  -19.2208 O   0  0  0  0  0  0  0  0  0  0  0  0
   19.0385  -16.3982  -19.7975 C   0  0  0  0  0  0  0  0  0  0  0  0
   19.4695  -14.9522  -19.7502 C   0  0  0  0  0  0  0  0  0  0  0  0
   18.7588  -14.1712  -18.6806 C   0  0  2  0  0  0  0  0  0  0  0  0
   17.3470  -14.3882  -18.8321 N   0  0  0  0  0  0  0  0  0  0  0  0
   19.1369  -12.7543  -18.6327 C   0  0  0  0  0  0  0  0  0  0  0  0
   20.3595  -12.4597  -18.5831 O   0  0  0  0  0  0  0  0  0  0  0  0
   15.8382   -7.6903  -20.5733 N   0  0  0  0  0  0  0  0  0  0  0  0
   16.9469   -7.1183  -19.9064 C   0  0  0  0  0  0  0  0  0  0  0  0
   17.0381   -5.8578  -19.9317 O   0  0  0  0  0  0  0  0  0  0  0  0
   17.9658   -7.9310  -19.2052 C   0  0  0  0  0  0  0  0  0  0  0  0
   17.5735   -9.3918  -19.2773 C   0  0  0  0  0  0  0  0  0  0  0  0
   18.6063  -10.2805  -18.6267 C   0  0  2  0  0  0  0  0  0  0  0  0
   18.2200  -11.6699  -18.6380 N   0  0  0  0  0  0  0  0  0  0  0  0
   18.7129   -9.8550  -17.2061 C   0  0  0  0  0  0  0  0  0  0  0  0
   18.3580  -10.6904  -16.3286 O   0  0  0  0  0  0  0  0  0  0  0  0
   19.1809   -8.5906  -16.7913 N   0  0  0  0  0  0  0  0  0  0  0  0
   19.5171   -8.3625  -15.3958 C   0  0  1  0  0  0  0  0  0  0  0  0
   20.5311   -9.4080  -14.9918 C   0  0  0  0  0  0  0  0  0  0  0  0
   20.9520   -9.2279  -13.5886 C   0  0  0  0  0  0  0  0  0  0  0  0
   20.4643   -8.3789  -12.6435 C   0  0  0  0  0  0  0  0  0  0  0  0
   21.1314   -8.5164  -11.4742 N   0  0  0  0  0  0  0  0  0  0  0  0
   22.0572   -9.4765  -11.7012 C   0  0  0  0  0  0  0  0  0  0  0  0
   21.9556   -9.9094  -12.9709 N   0  0  0  0  0  0  0  0  0  0  0  0
   19.9559   -6.9782  -15.1565 C   0  0  0  0  0  0  0  0  0  0  0  0
   19.6005   -6.3448  -13.9842 O   0  0  0  0  0  0  0  0  0  0  0  0
   20.6437   -6.3628  -15.9917 O   0  0  0  0  0  0  0  0  0  0  0  0
  1  2  1  0
  2  3  2  0
  4  2  1  0
  4  5  1  0
  6  5  1  0
  6  7  1  6
  8  6  1  0
  9  8  2  0
 10 11  1  0
 11 12  2  0
 11 13  1  0
 13 14  1  0
 15 14  1  6
 15 16  1  0
 16  8  1  0
 17 15  1  0
 17 18  2  0
 19 17  1  0
 20 19  1  0
 20 21  1  6
 21 22  1  0
 22 23  2  0
 23 24  1  0
 25 24  1  0
 26 22  1  0
 26 25  2  0
 27 20  1  0
 28 27  1  0
 29 27  2  0
M  END
$$$$
