VAW.pdb
     RDKit          3D

 27 28  0  0  1  0  0  0  0  0999 V2000
    7.8994  -13.0507   19.7291 C   0  0  0  0  0  0  0  0  0  0  0  0
    8.1197  -13.8683   20.9581 C   0  0  1  0  0  0  0  0  0  0  0  0
    6.9283  -13.6668   21.8719 C   0  0  0  0  0  0  0  0  0  0  0  0
    8.2681  -15.3446   20.6622 C   0  0  2  0  0  0  0  0  0  0  0  0
    7.1429  -15.7921   19.8675 N   0  0  0  0  0  0  0  0  0  0  0  0
    8.3349  -16.1542   21.8925 C   0  0  0  0  0  0  0  0  0  0  0  0
    7.4958  -15.9468   22.8374 O   0  0  0  0  0  0  0  0  0  0  0  0
   10.9497  -15.4009   21.7825 C   0  0  0  0  0  0  0  0  0  0  0  0
   10.6444  -16.7526   22.4453 C   0  0  2  0  0  0  0  0  0  0  0  0
    9.3271  -17.1579   22.0241 N   0  0  0  0  0  0  0  0  0  0  0  0
   10.7193  -16.5118   23.9052 C   0  0  0  0  0  0  0  0  0  0  0  0
   11.7818  -16.0206   24.3641 O   0  0  0  0  0  0  0  0  0  0  0  0
    9.6799  -16.7971   24.8076 N   0  0  0  0  0  0  0  0  0  0  0  0
    9.7877  -16.6541   26.2457 C   0  0  1  0  0  0  0  0  0  0  0  0
    8.3454  -16.5410   26.7612 C   0  0  0  0  0  0  0  0  0  0  0  0
    7.5909  -15.5519   25.9290 C   0  0  0  0  0  0  0  0  0  0  0  0
    6.7971  -15.7405   24.8382 C   0  0  0  0  0  0  0  0  0  0  0  0
    6.3504  -14.5189   24.4565 N   0  0  0  0  0  0  0  0  0  0  0  0
    6.8363  -13.5636   25.2712 C   0  0  0  0  0  0  0  0  0  0  0  0
    6.7043  -12.1873   25.3354 C   0  0  0  0  0  0  0  0  0  0  0  0
    7.3486  -11.4648   26.3199 C   0  0  0  0  0  0  0  0  0  0  0  0
    8.1413  -12.0695   27.2707 C   0  0  0  0  0  0  0  0  0  0  0  0
    8.2611  -13.4517   27.1891 C   0  0  0  0  0  0  0  0  0  0  0  0
    7.6214  -14.1875   26.2083 C   0  0  0  0  0  0  0  0  0  0  0  0
   10.4196  -17.8274   26.8777 C   0  0  0  0  0  0  0  0  0  0  0  0
   10.7015  -17.9255   28.2175 O   0  0  0  0  0  0  0  0  0  0  0  0
   10.7350  -18.8310   26.1539 O   0  0  0  0  0  0  0  0  0  0  0  0
  2  1  1  6
  3  2  1  0
  4  2  1  0
  4  5  1  6
  6  7  2  0
  6  4  1  0
  9  8  1  6
  9 10  1  0
 10  6  1  0
 11  9  1  0
 11 13  1  0
 12 11  2  0
 14 13  1  0
 14 25  1  0
 14 15  1  1
 16 15  1  0
 17 16  2  0
 18 17  1  0
 19 18  1  0
 19 24  2  0
 20 19  1  0
 21 20  2  0
 21 22  1  0
 22 23  2  0
 23 24  1  0
 24 16  1  0
 25 27  2  0
 25 26  1  0
M  END
$$$$
