VAW.pdb
     RDKit          3D

 27 28  0  0  1  0  0  0  0  0999 V2000
    8.5417  -12.7661   21.1629 C   0  0  0  0  0  0  0  0  0  0  0  0
    7.7160  -13.3122   20.0460 C   0  0  1  0  0  0  0  0  0  0  0  0
    7.6389  -12.2554   18.9632 C   0  0  0  0  0  0  0  0  0  0  0  0
    8.2925  -14.5801   19.4553 C   0  0  2  0  0  0  0  0  0  0  0  0
    7.4939  -14.9882   18.3180 N   0  0  0  0  0  0  0  0  0  0  0  0
    8.3281  -15.6828   20.4332 C   0  0  0  0  0  0  0  0  0  0  0  0
    7.2339  -16.2146   20.8331 O   0  0  0  0  0  0  0  0  0  0  0  0
   10.5875  -18.2185   21.6092 C   0  0  0  0  0  0  0  0  0  0  0  0
    9.5543  -17.1411   21.9718 C   0  0  2  0  0  0  0  0  0  0  0  0
    9.5725  -16.1493   20.9264 N   0  0  0  0  0  0  0  0  0  0  0  0
    9.9871  -16.5908   23.2774 C   0  0  0  0  0  0  0  0  0  0  0  0
   10.8960  -15.7220   23.2747 O   0  0  0  0  0  0  0  0  0  0  0  0
    9.4469  -16.9775   24.5162 N   0  0  0  0  0  0  0  0  0  0  0  0
    9.8888  -16.4587   25.7952 C   0  0  1  0  0  0  0  0  0  0  0  0
    8.6705  -16.5535   26.7254 C   0  0  0  0  0  0  0  0  0  0  0  0
    7.5681  -15.6889   26.1987 C   0  0  0  0  0  0  0  0  0  0  0  0
    6.3875  -16.0265   25.6088 C   0  0  0  0  0  0  0  0  0  0  0  0
    5.7455  -14.8693   25.3151 N   0  0  0  0  0  0  0  0  0  0  0  0
    6.4824  -13.8105   25.7003 C   0  0  0  0  0  0  0  0  0  0  0  0
    6.3095  -12.4385   25.6422 C   0  0  0  0  0  0  0  0  0  0  0  0
    7.2771  -11.5867   26.1369 C   0  0  0  0  0  0  0  0  0  0  0  0
    8.4428  -12.0543   26.7032 C   0  0  0  0  0  0  0  0  0  0  0  0
    8.5974  -13.4345   26.7521 C   0  0  0  0  0  0  0  0  0  0  0  0
    7.6363  -14.2989   26.2603 C   0  0  0  0  0  0  0  0  0  0  0  0
   10.9833  -17.2598   26.3747 C   0  0  0  0  0  0  0  0  0  0  0  0
   11.7353  -16.8732   27.4560 O   0  0  0  0  0  0  0  0  0  0  0  0
   11.2703  -18.3906   25.8557 O   0  0  0  0  0  0  0  0  0  0  0  0
  2  1  1  1
  3  2  1  0
  4  2  1  0
  4  5  1  6
  6  7  2  0
  6  4  1  0
  9  8  1  6
  9 10  1  0
 10  6  1  0
 11  9  1  0
 11 13  1  0
 12 11  2  0
 14 13  1  0
 14 25  1  0
 14 15  1  1
 16 15  1  0
 17 16  2  0
 18 17  1  0
 19 18  1  0
 19 24  2  0
 20 19  1  0
 21 20  2  0
 21 22  1  0
 22 23  2  0
 23 24  1  0
 24 16  1  0
 25 27  2  0
 25 26  1  0
M  END
$$$$
