VAW.pdb
     RDKit          3D

 27 28  0  0  1  0  0  0  0  0999 V2000
    8.3356  -12.4981   19.2398 C   0  0  0  0  0  0  0  0  0  0  0  0
    8.5091  -13.4183   20.4021 C   0  0  1  0  0  0  0  0  0  0  0  0
    7.6639  -12.8916   21.5438 C   0  0  0  0  0  0  0  0  0  0  0  0
    8.0891  -14.8387   20.0941 C   0  0  2  0  0  0  0  0  0  0  0  0
    6.7681  -14.8324   19.5000 N   0  0  0  0  0  0  0  0  0  0  0  0
    8.0651  -15.6854   21.3007 C   0  0  0  0  0  0  0  0  0  0  0  0
    6.9834  -16.2818   21.6387 O   0  0  0  0  0  0  0  0  0  0  0  0
    9.1250  -18.2363   22.1158 C   0  0  0  0  0  0  0  0  0  0  0  0
    9.3202  -16.9711   22.9648 C   0  0  2  0  0  0  0  0  0  0  0  0
    9.2388  -15.8355   22.0813 N   0  0  0  0  0  0  0  0  0  0  0  0
   10.6581  -17.1055   23.5869 C   0  0  0  0  0  0  0  0  0  0  0  0
   11.3869  -18.0578   23.2089 O   0  0  0  0  0  0  0  0  0  0  0  0
   11.1630  -16.2376   24.5706 N   0  0  0  0  0  0  0  0  0  0  0  0
   10.8117  -16.3058   25.9750 C   0  0  1  0  0  0  0  0  0  0  0  0
    9.3077  -16.0022   26.0422 C   0  0  0  0  0  0  0  0  0  0  0  0
    9.0787  -14.7816   26.8775 C   0  0  0  0  0  0  0  0  0  0  0  0
    9.7167  -14.3488   28.0006 C   0  0  0  0  0  0  0  0  0  0  0  0
    9.1262  -13.1855   28.3690 N   0  0  0  0  0  0  0  0  0  0  0  0
    8.1351  -12.8688   27.5149 C   0  0  0  0  0  0  0  0  0  0  0  0
    7.2345  -11.8217   27.4229 C   0  0  0  0  0  0  0  0  0  0  0  0
    6.3094  -11.7786   26.3987 C   0  0  0  0  0  0  0  0  0  0  0  0
    6.2394  -12.7601   25.4345 C   0  0  0  0  0  0  0  0  0  0  0  0
    7.1519  -13.8025   25.5444 C   0  0  0  0  0  0  0  0  0  0  0  0
    8.0836  -13.8581   26.5650 C   0  0  0  0  0  0  0  0  0  0  0  0
   11.0442  -17.6465   26.5442 C   0  0  0  0  0  0  0  0  0  0  0  0
   10.6422  -18.8178   25.9521 O   0  0  0  0  0  0  0  0  0  0  0  0
   11.6571  -17.7525   27.6593 O   0  0  0  0  0  0  0  0  0  0  0  0
  2  1  1  6
  3  2  1  0
  4  2  1  0
  4  5  1  1
  6  7  2  0
  6  4  1  0
  9  8  1  6
  9 10  1  0
 10  6  1  0
 11  9  1  0
 11 13  1  0
 12 11  2  0
 14 13  1  0
 14 25  1  0
 14 15  1  6
 16 15  1  0
 17 16  2  0
 18 17  1  0
 19 18  1  0
 19 24  2  0
 20 19  1  0
 21 20  2  0
 21 22  1  0
 22 23  2  0
 23 24  1  0
 24 16  1  0
 25 27  2  0
 25 26  1  0
M  END
$$$$
