VAW.pdb
     RDKit          3D

 27 28  0  0  1  0  0  0  0  0999 V2000
    6.6642  -19.2190   24.2320 C   0  0  0  0  0  0  0  0  0  0  0  0
    6.9529  -20.0345   23.0158 C   0  0  1  0  0  0  0  0  0  0  0  0
    6.2312  -21.3587   23.1603 C   0  0  0  0  0  0  0  0  0  0  0  0
    6.4986  -19.3639   21.7379 C   0  0  2  0  0  0  0  0  0  0  0  0
    6.5694  -20.3118   20.6450 N   0  0  0  0  0  0  0  0  0  0  0  0
    7.3232  -18.1884   21.4036 C   0  0  0  0  0  0  0  0  0  0  0  0
    8.4971  -18.3513   20.9187 O   0  0  0  0  0  0  0  0  0  0  0  0
    6.7619  -14.5070   21.2641 C   0  0  0  0  0  0  0  0  0  0  0  0
    7.6429  -15.7653   21.2490 C   0  0  2  0  0  0  0  0  0  0  0  0
    6.8132  -16.8837   21.6204 N   0  0  0  0  0  0  0  0  0  0  0  0
    8.7218  -15.5138   22.2327 C   0  0  0  0  0  0  0  0  0  0  0  0
    9.6503  -14.7351   21.8974 O   0  0  0  0  0  0  0  0  0  0  0  0
    8.7729  -16.0893   23.5141 N   0  0  0  0  0  0  0  0  0  0  0  0
    9.9046  -15.9780   24.4125 C   0  0  1  0  0  0  0  0  0  0  0  0
    9.7485  -14.6191   25.1109 C   0  0  0  0  0  0  0  0  0  0  0  0
    8.3563  -14.4853   25.6437 C   0  0  0  0  0  0  0  0  0  0  0  0
    7.3868  -15.4250   25.8245 C   0  0  0  0  0  0  0  0  0  0  0  0
    6.3060  -14.7867   26.3362 N   0  0  0  0  0  0  0  0  0  0  0  0
    6.5608  -13.4732   26.4848 C   0  0  0  0  0  0  0  0  0  0  0  0
    5.8315  -12.3924   26.9492 C   0  0  0  0  0  0  0  0  0  0  0  0
    6.3884  -11.1292   26.9780 C   0  0  0  0  0  0  0  0  0  0  0  0
    7.6763  -10.8878   26.5526 C   0  0  0  0  0  0  0  0  0  0  0  0
    8.3918  -11.9857   26.0900 C   0  0  0  0  0  0  0  0  0  0  0  0
    7.8462  -13.2561   26.0557 C   0  0  0  0  0  0  0  0  0  0  0  0
    9.9069  -17.0350   25.4412 C   0  0  0  0  0  0  0  0  0  0  0  0
   10.9436  -17.2646   26.3111 O   0  0  0  0  0  0  0  0  0  0  0  0
    8.8907  -17.8002   25.5510 O   0  0  0  0  0  0  0  0  0  0  0  0
  2  1  1  1
  3  2  1  0
  4  2  1  0
  4  5  1  6
  6  7  2  0
  6  4  1  0
  9  8  1  1
  9 10  1  0
 10  6  1  0
 11  9  1  0
 11 13  1  0
 12 11  2  0
 14 13  1  0
 14 25  1  0
 14 15  1  1
 16 15  1  0
 17 16  2  0
 18 17  1  0
 19 18  1  0
 19 24  2  0
 20 19  1  0
 21 20  2  0
 21 22  1  0
 22 23  2  0
 23 24  1  0
 24 16  1  0
 25 27  2  0
 25 26  1  0
M  END
$$$$
