VAW.pdb
     RDKit          3D

 27 28  0  0  1  0  0  0  0  0999 V2000
    7.1082  -12.8922   18.3899 C   0  0  0  0  0  0  0  0  0  0  0  0
    8.1876  -13.8528   18.7638 C   0  0  1  0  0  0  0  0  0  0  0  0
    9.3615  -13.0532   19.2907 C   0  0  0  0  0  0  0  0  0  0  0  0
    7.7519  -14.8422   19.8224 C   0  0  2  0  0  0  0  0  0  0  0  0
    7.4629  -14.1349   21.0529 N   0  0  0  0  0  0  0  0  0  0  0  0
    8.7835  -15.8611   20.0890 C   0  0  0  0  0  0  0  0  0  0  0  0
    9.0215  -16.7692   19.2181 O   0  0  0  0  0  0  0  0  0  0  0  0
   11.5846  -16.7068   20.4737 C   0  0  0  0  0  0  0  0  0  0  0  0
   10.4861  -16.8638   21.5359 C   0  0  2  0  0  0  0  0  0  0  0  0
    9.5070  -15.8312   21.3076 N   0  0  0  0  0  0  0  0  0  0  0  0
   11.1659  -16.7156   22.8439 C   0  0  0  0  0  0  0  0  0  0  0  0
   11.9301  -17.6424   23.2153 O   0  0  0  0  0  0  0  0  0  0  0  0
   11.0111  -15.6067   23.6939 N   0  0  0  0  0  0  0  0  0  0  0  0
   10.0338  -15.5289   24.7612 C   0  0  1  0  0  0  0  0  0  0  0  0
    8.6800  -15.3103   24.0699 C   0  0  0  0  0  0  0  0  0  0  0  0
    7.6264  -15.0490   25.1004 C   0  0  0  0  0  0  0  0  0  0  0  0
    6.7701  -15.9059   25.7234 C   0  0  0  0  0  0  0  0  0  0  0  0
    6.0155  -15.1656   26.5720 N   0  0  0  0  0  0  0  0  0  0  0  0
    6.3672  -13.8679   26.5056 C   0  0  0  0  0  0  0  0  0  0  0  0
    5.9351  -12.7145   27.1373 C   0  0  0  0  0  0  0  0  0  0  0  0
    6.5128  -11.4949   26.8452 C   0  0  0  0  0  0  0  0  0  0  0  0
    7.5309  -11.3693   25.9256 C   0  0  0  0  0  0  0  0  0  0  0  0
    7.9504  -12.5386   25.3024 C   0  0  0  0  0  0  0  0  0  0  0  0
    7.3805  -13.7665   25.5855 C   0  0  0  0  0  0  0  0  0  0  0  0
    9.9628  -16.7762   25.5452 C   0  0  0  0  0  0  0  0  0  0  0  0
   10.0789  -18.0342   25.0083 O   0  0  0  0  0  0  0  0  0  0  0  0
    9.7821  -16.7096   26.8075 O   0  0  0  0  0  0  0  0  0  0  0  0
  2  1  1  1
  3  2  1  0
  4  2  1  0
  4  5  1  1
  6  7  2  0
  6  4  1  0
  9  8  1  6
  9 10  1  0
 10  6  1  0
 11  9  1  0
 11 13  1  0
 12 11  2  0
 14 13  1  0
 14 25  1  0
 14 15  1  6
 16 15  1  0
 17 16  2  0
 18 17  1  0
 19 18  1  0
 19 24  2  0
 20 19  1  0
 21 20  2  0
 21 22  1  0
 22 23  2  0
 23 24  1  0
 24 16  1  0
 25 27  2  0
 25 26  1  0
M  END
$$$$
