VAW.pdb
     RDKit          3D

 27 28  0  0  1  0  0  0  0  0999 V2000
    6.7642  -13.9866   20.4103 C   0  0  0  0  0  0  0  0  0  0  0  0
    7.7558  -14.6982   21.2693 C   0  0  1  0  0  0  0  0  0  0  0  0
    6.9896  -15.5886   22.2261 C   0  0  0  0  0  0  0  0  0  0  0  0
    8.7201  -15.5485   20.4718 C   0  0  2  0  0  0  0  0  0  0  0  0
    7.9769  -16.5161   19.6911 N   0  0  0  0  0  0  0  0  0  0  0  0
    9.6749  -16.2657   21.3363 C   0  0  0  0  0  0  0  0  0  0  0  0
    9.5657  -17.5321   21.4920 O   0  0  0  0  0  0  0  0  0  0  0  0
   12.9021  -15.3928   22.9626 C   0  0  0  0  0  0  0  0  0  0  0  0
   11.6908  -16.3075   22.7262 C   0  0  2  0  0  0  0  0  0  0  0  0
   10.7090  -15.5508   21.9912 N   0  0  0  0  0  0  0  0  0  0  0  0
   11.2099  -16.6958   24.0726 C   0  0  0  0  0  0  0  0  0  0  0  0
   12.0568  -17.1291   24.8947 O   0  0  0  0  0  0  0  0  0  0  0  0
    9.8697  -16.6103   24.4881 N   0  0  0  0  0  0  0  0  0  0  0  0
    9.4125  -16.9095   25.8304 C   0  0  1  0  0  0  0  0  0  0  0  0
    7.8805  -16.9730   25.7430 C   0  0  0  0  0  0  0  0  0  0  0  0
    7.3348  -15.6025   25.4903 C   0  0  0  0  0  0  0  0  0  0  0  0
    6.3179  -15.1932   24.6815 C   0  0  0  0  0  0  0  0  0  0  0  0
    6.2239  -13.8473   24.8125 N   0  0  0  0  0  0  0  0  0  0  0  0
    7.1489  -13.3921   25.6783 C   0  0  0  0  0  0  0  0  0  0  0  0
    7.4867  -12.1410   26.1645 C   0  0  0  0  0  0  0  0  0  0  0  0
    8.5171  -11.9946   27.0719 C   0  0  0  0  0  0  0  0  0  0  0  0
    9.2470  -13.0697   27.5296 C   0  0  0  0  0  0  0  0  0  0  0  0
    8.8925  -14.3169   27.0295 C   0  0  0  0  0  0  0  0  0  0  0  0
    7.8627  -14.4778   26.1204 C   0  0  0  0  0  0  0  0  0  0  0  0
    9.9080  -18.2128   26.3115 C   0  0  0  0  0  0  0  0  0  0  0  0
    9.8152  -18.6428   27.6118 O   0  0  0  0  0  0  0  0  0  0  0  0
   10.4636  -19.0120   25.4851 O   0  0  0  0  0  0  0  0  0  0  0  0
  2  1  1  6
  3  2  1  0
  4  2  1  0
  4  5  1  1
  6  7  2  0
  6  4  1  0
  9  8  1  1
  9 10  1  0
 10  6  1  0
 11  9  1  0
 11 13  1  0
 12 11  2  0
 14 13  1  0
 14 25  1  0
 14 15  1  6
 16 15  1  0
 17 16  2  0
 18 17  1  0
 19 18  1  0
 19 24  2  0
 20 19  1  0
 21 20  2  0
 21 22  1  0
 22 23  2  0
 23 24  1  0
 24 16  1  0
 25 27  2  0
 25 26  1  0
M  END
$$$$
