VAW.pdb
     RDKit          3D

 27 28  0  0  1  0  0  0  0  0999 V2000
    6.8485  -18.8141   24.2493 C   0  0  0  0  0  0  0  0  0  0  0  0
    6.8467  -19.6911   23.0415 C   0  0  1  0  0  0  0  0  0  0  0  0
    5.9189  -20.8573   23.3136 C   0  0  0  0  0  0  0  0  0  0  0  0
    6.3801  -18.9721   21.7948 C   0  0  2  0  0  0  0  0  0  0  0  0
    6.2199  -19.9284   20.7188 N   0  0  0  0  0  0  0  0  0  0  0  0
    7.3290  -17.9279   21.3673 C   0  0  0  0  0  0  0  0  0  0  0  0
    8.4186  -18.2590   20.7815 O   0  0  0  0  0  0  0  0  0  0  0  0
    7.2761  -14.2326   21.0690 C   0  0  0  0  0  0  0  0  0  0  0  0
    8.0032  -15.5796   21.1994 C   0  0  2  0  0  0  0  0  0  0  0  0
    7.0314  -16.5628   21.6066 N   0  0  0  0  0  0  0  0  0  0  0  0
    9.0561  -15.3721   22.2208 C   0  0  0  0  0  0  0  0  0  0  0  0
   10.0623  -14.6922   21.8952 O   0  0  0  0  0  0  0  0  0  0  0  0
    9.0012  -15.8862   23.5280 N   0  0  0  0  0  0  0  0  0  0  0  0
   10.1195  -15.8890   24.4497 C   0  0  1  0  0  0  0  0  0  0  0  0
    9.7680  -14.8582   25.5326 C   0  0  0  0  0  0  0  0  0  0  0  0
    8.2841  -14.8159   25.7228 C   0  0  0  0  0  0  0  0  0  0  0  0
    7.3580  -15.8130   25.6608 C   0  0  0  0  0  0  0  0  0  0  0  0
    6.1505  -15.2491   25.9088 N   0  0  0  0  0  0  0  0  0  0  0  0
    6.2833  -13.9271   26.1257 C   0  0  0  0  0  0  0  0  0  0  0  0
    5.4012  -12.9004   26.4149 C   0  0  0  0  0  0  0  0  0  0  0  0
    5.8581  -11.6088   26.5862 C   0  0  0  0  0  0  0  0  0  0  0  0
    7.1930  -11.2850   26.4792 C   0  0  0  0  0  0  0  0  0  0  0  0
    8.0623  -12.3295   26.1884 C   0  0  0  0  0  0  0  0  0  0  0  0
    7.6180  -13.6276   26.0143 C   0  0  0  0  0  0  0  0  0  0  0  0
   10.3068  -17.2013   25.0964 C   0  0  0  0  0  0  0  0  0  0  0  0
   11.4016  -17.5419   25.8510 O   0  0  0  0  0  0  0  0  0  0  0  0
    9.4067  -18.0969   24.9612 O   0  0  0  0  0  0  0  0  0  0  0  0
  2  1  1  1
  3  2  1  0
  4  2  1  0
  4  5  1  6
  6  7  2  0
  6  4  1  0
  9  8  1  1
  9 10  1  0
 10  6  1  0
 11  9  1  0
 11 13  1  0
 12 11  2  0
 14 13  1  0
 14 25  1  0
 14 15  1  1
 16 15  1  0
 17 16  2  0
 18 17  1  0
 19 18  1  0
 19 24  2  0
 20 19  1  0
 21 20  2  0
 21 22  1  0
 22 23  2  0
 23 24  1  0
 24 16  1  0
 25 27  2  0
 25 26  1  0
M  END
$$$$
