VAW.pdb
     RDKit          3D

 27 28  0  0  1  0  0  0  0  0999 V2000
    9.3002  -12.8996   20.9546 C   0  0  0  0  0  0  0  0  0  0  0  0
    8.0323  -13.2887   20.2700 C   0  0  1  0  0  0  0  0  0  0  0  0
    7.8196  -12.3398   19.1083 C   0  0  0  0  0  0  0  0  0  0  0  0
    8.0594  -14.7081   19.7468 C   0  0  2  0  0  0  0  0  0  0  0  0
    6.8759  -14.9495   18.9476 N   0  0  0  0  0  0  0  0  0  0  0  0
    8.1103  -15.7008   20.8355 C   0  0  0  0  0  0  0  0  0  0  0  0
    7.0701  -15.9144   21.5514 O   0  0  0  0  0  0  0  0  0  0  0  0
   10.3000  -18.4644   21.8559 C   0  0  0  0  0  0  0  0  0  0  0  0
    9.3334  -17.3223   22.2039 C   0  0  2  0  0  0  0  0  0  0  0  0
    9.3095  -16.4142   21.0850 N   0  0  0  0  0  0  0  0  0  0  0  0
    9.8786  -16.6919   23.4288 C   0  0  0  0  0  0  0  0  0  0  0  0
   10.8189  -15.8681   23.2949 O   0  0  0  0  0  0  0  0  0  0  0  0
    9.4119  -16.9561   24.7282 N   0  0  0  0  0  0  0  0  0  0  0  0
    9.9308  -16.3232   25.9243 C   0  0  1  0  0  0  0  0  0  0  0  0
    8.7626  -16.2979   26.9211 C   0  0  0  0  0  0  0  0  0  0  0  0
    7.6101  -15.5519   26.3251 C   0  0  0  0  0  0  0  0  0  0  0  0
    6.4651  -16.0119   25.7480 C   0  0  0  0  0  0  0  0  0  0  0  0
    5.7477  -14.9259   25.3690 N   0  0  0  0  0  0  0  0  0  0  0  0
    6.4025  -13.7937   25.6878 C   0  0  0  0  0  0  0  0  0  0  0  0
    6.1344  -12.4446   25.5337 C   0  0  0  0  0  0  0  0  0  0  0  0
    7.0322  -11.4945   25.9783 C   0  0  0  0  0  0  0  0  0  0  0  0
    8.2193  -11.8383   26.5871 C   0  0  0  0  0  0  0  0  0  0  0  0
    8.4699  -13.1975   26.7324 C   0  0  0  0  0  0  0  0  0  0  0  0
    7.5794  -14.1595   26.2916 C   0  0  0  0  0  0  0  0  0  0  0  0
   11.0407  -17.0876   26.5238 C   0  0  0  0  0  0  0  0  0  0  0  0
   11.8717  -16.6040   27.5034 O   0  0  0  0  0  0  0  0  0  0  0  0
   11.2645  -18.2793   26.1235 O   0  0  0  0  0  0  0  0  0  0  0  0
  2  1  1  6
  3  2  1  0
  4  2  1  0
  4  5  1  1
  6  7  2  0
  6  4  1  0
  9  8  1  6
  9 10  1  0
 10  6  1  0
 11  9  1  0
 11 13  1  0
 12 11  2  0
 14 13  1  0
 14 25  1  0
 14 15  1  1
 16 15  1  0
 17 16  2  0
 18 17  1  0
 19 18  1  0
 19 24  2  0
 20 19  1  0
 21 20  2  0
 21 22  1  0
 22 23  2  0
 23 24  1  0
 24 16  1  0
 25 27  2  0
 25 26  1  0
M  END
$$$$
