VAW.pdb
     RDKit          3D

 27 28  0  0  1  0  0  0  0  0999 V2000
    8.9268  -12.9268   21.3128 C   0  0  0  0  0  0  0  0  0  0  0  0
    7.7544  -13.4838   20.5760 C   0  0  1  0  0  0  0  0  0  0  0  0
    7.4483  -12.5564   19.4177 C   0  0  0  0  0  0  0  0  0  0  0  0
    8.0061  -14.8754   20.0383 C   0  0  2  0  0  0  0  0  0  0  0  0
    6.8643  -15.3037   19.2568 N   0  0  0  0  0  0  0  0  0  0  0  0
    8.2402  -15.8537   21.1161 C   0  0  0  0  0  0  0  0  0  0  0  0
    7.2625  -16.2436   21.8455 O   0  0  0  0  0  0  0  0  0  0  0  0
   10.9659  -18.1415   22.1029 C   0  0  0  0  0  0  0  0  0  0  0  0
    9.7329  -17.2849   22.4280 C   0  0  2  0  0  0  0  0  0  0  0  0
    9.5458  -16.3582   21.3402 N   0  0  0  0  0  0  0  0  0  0  0  0
   10.0434  -16.5994   23.7042 C   0  0  0  0  0  0  0  0  0  0  0  0
   10.7686  -15.5734   23.6568 O   0  0  0  0  0  0  0  0  0  0  0  0
    9.5793  -17.0226   24.9618 N   0  0  0  0  0  0  0  0  0  0  0  0
    9.9906  -16.4358   26.2215 C   0  0  1  0  0  0  0  0  0  0  0  0
    8.7192  -16.3608   27.0797 C   0  0  0  0  0  0  0  0  0  0  0  0
    7.6561  -15.6128   26.3379 C   0  0  0  0  0  0  0  0  0  0  0  0
    6.6296  -16.0701   25.5678 C   0  0  0  0  0  0  0  0  0  0  0  0
    5.9525  -14.9834   25.1229 N   0  0  0  0  0  0  0  0  0  0  0  0
    6.5179  -13.8532   25.5869 C   0  0  0  0  0  0  0  0  0  0  0  0
    6.2415  -12.5043   25.4460 C   0  0  0  0  0  0  0  0  0  0  0  0
    7.0318  -11.5566   26.0656 C   0  0  0  0  0  0  0  0  0  0  0  0
    8.1163  -11.9027   26.8416 C   0  0  0  0  0  0  0  0  0  0  0  0
    8.3771  -13.2616   26.9706 C   0  0  0  0  0  0  0  0  0  0  0  0
    7.5937  -14.2212   26.3555 C   0  0  0  0  0  0  0  0  0  0  0  0
   10.9830  -17.2678   26.9274 C   0  0  0  0  0  0  0  0  0  0  0  0
   11.6398  -16.8849   28.0703 O   0  0  0  0  0  0  0  0  0  0  0  0
   11.2681  -18.4239   26.4664 O   0  0  0  0  0  0  0  0  0  0  0  0
  2  1  1  6
  3  2  1  0
  4  2  1  0
  4  5  1  1
  6  7  2  0
  6  4  1  0
  9  8  1  6
  9 10  1  0
 10  6  1  0
 11  9  1  0
 11 13  1  0
 12 11  2  0
 14 13  1  0
 14 25  1  0
 14 15  1  1
 16 15  1  0
 17 16  2  0
 18 17  1  0
 19 18  1  0
 19 24  2  0
 20 19  1  0
 21 20  2  0
 21 22  1  0
 22 23  2  0
 23 24  1  0
 24 16  1  0
 25 27  2  0
 25 26  1  0
M  END
$$$$
