VAW.pdb
     RDKit          3D

 27 28  0  0  1  0  0  0  0  0999 V2000
    5.5239  -20.4001   24.4377 C   0  0  0  0  0  0  0  0  0  0  0  0
    6.4906  -19.4218   23.8579 C   0  0  1  0  0  0  0  0  0  0  0  0
    7.8820  -20.0058   23.9921 C   0  0  0  0  0  0  0  0  0  0  0  0
    6.2209  -19.1242   22.3992 C   0  0  2  0  0  0  0  0  0  0  0  0
    6.3649  -20.3398   21.6250 N   0  0  0  0  0  0  0  0  0  0  0  0
    7.1395  -18.1044   21.8609 C   0  0  0  0  0  0  0  0  0  0  0  0
    8.2530  -18.4623   21.3395 O   0  0  0  0  0  0  0  0  0  0  0  0
    6.8600  -14.4728   21.1076 C   0  0  0  0  0  0  0  0  0  0  0  0
    7.6441  -15.7853   21.2572 C   0  0  2  0  0  0  0  0  0  0  0  0
    6.7864  -16.7330   21.9228 N   0  0  0  0  0  0  0  0  0  0  0  0
    8.8426  -15.4495   22.0609 C   0  0  0  0  0  0  0  0  0  0  0  0
    9.7730  -14.8239   21.4920 O   0  0  0  0  0  0  0  0  0  0  0  0
    9.0047  -15.7854   23.4162 N   0  0  0  0  0  0  0  0  0  0  0  0
   10.2365  -15.6056   24.1582 C   0  0  1  0  0  0  0  0  0  0  0  0
    9.9672  -14.4539   25.1379 C   0  0  0  0  0  0  0  0  0  0  0  0
    8.5361  -14.4906   25.5746 C   0  0  0  0  0  0  0  0  0  0  0  0
    7.6768  -15.5408   25.6937 C   0  0  0  0  0  0  0  0  0  0  0  0
    6.4948  -15.0391   26.1283 N   0  0  0  0  0  0  0  0  0  0  0  0
    6.5791  -13.7050   26.2878 C   0  0  0  0  0  0  0  0  0  0  0  0
    5.6953  -12.7214   26.6969 C   0  0  0  0  0  0  0  0  0  0  0  0
    6.0930  -11.4005   26.7576 C   0  0  0  0  0  0  0  0  0  0  0  0
    7.3684  -11.0044   26.4192 C   0  0  0  0  0  0  0  0  0  0  0  0
    8.2404  -12.0065   26.0110 C   0  0  0  0  0  0  0  0  0  0  0  0
    7.8552  -13.3332   25.9457 C   0  0  0  0  0  0  0  0  0  0  0  0
   10.6004  -16.8053   24.9353 C   0  0  0  0  0  0  0  0  0  0  0  0
    9.8132  -17.9247   25.0427 O   0  0  0  0  0  0  0  0  0  0  0  0
   11.7148  -16.8302   25.5581 O   0  0  0  0  0  0  0  0  0  0  0  0
  2  1  1  6
  3  2  1  0
  4  2  1  0
  4  5  1  6
  6  7  2  0
  6  4  1  0
  9  8  1  1
  9 10  1  0
 10  6  1  0
 11  9  1  0
 11 13  1  0
 12 11  2  0
 14 13  1  0
 14 25  1  0
 14 15  1  1
 16 15  1  0
 17 16  2  0
 18 17  1  0
 19 18  1  0
 19 24  2  0
 20 19  1  0
 21 20  2  0
 21 22  1  0
 22 23  2  0
 23 24  1  0
 24 16  1  0
 25 27  2  0
 25 26  1  0
M  END
$$$$
