VAW.pdb
     RDKit          3D

 27 28  0  0  1  0  0  0  0  0999 V2000
    9.0486  -13.0102   20.8223 C   0  0  0  0  0  0  0  0  0  0  0  0
    7.8773  -13.5436   20.0666 C   0  0  1  0  0  0  0  0  0  0  0  0
    7.4668  -12.5014   19.0465 C   0  0  0  0  0  0  0  0  0  0  0  0
    8.1827  -14.8402   19.3492 C   0  0  2  0  0  0  0  0  0  0  0  0
    7.0486  -15.2163   18.5305 N   0  0  0  0  0  0  0  0  0  0  0  0
    8.4785  -15.9382   20.2874 C   0  0  0  0  0  0  0  0  0  0  0  0
    7.5429  -16.4235   21.0149 O   0  0  0  0  0  0  0  0  0  0  0  0
   11.3290  -18.1814   21.0420 C   0  0  0  0  0  0  0  0  0  0  0  0
   10.0869  -17.3742   21.4487 C   0  0  2  0  0  0  0  0  0  0  0  0
    9.7965  -16.4517   20.3802 N   0  0  0  0  0  0  0  0  0  0  0  0
   10.4504  -16.6817   22.7070 C   0  0  0  0  0  0  0  0  0  0  0  0
   11.2430  -15.7085   22.6322 O   0  0  0  0  0  0  0  0  0  0  0  0
    9.9662  -17.0431   23.9762 N   0  0  0  0  0  0  0  0  0  0  0  0
   10.2907  -16.3412   25.2019 C   0  0  1  0  0  0  0  0  0  0  0  0
    9.8209  -14.8946   24.9892 C   0  0  0  0  0  0  0  0  0  0  0  0
    8.3480  -14.8032   25.2388 C   0  0  0  0  0  0  0  0  0  0  0  0
    7.3699  -15.7412   25.1005 C   0  0  0  0  0  0  0  0  0  0  0  0
    6.2019  -15.1519   25.4556 N   0  0  0  0  0  0  0  0  0  0  0  0
    6.4099  -13.8711   25.8139 C   0  0  0  0  0  0  0  0  0  0  0  0
    5.5920  -12.8429   26.2494 C   0  0  0  0  0  0  0  0  0  0  0  0
    6.1207  -11.6025   26.5470 C   0  0  0  0  0  0  0  0  0  0  0  0
    7.4664  -11.3330   26.4266 C   0  0  0  0  0  0  0  0  0  0  0  0
    8.2705  -12.3781   25.9880 C   0  0  0  0  0  0  0  0  0  0  0  0
    7.7542  -13.6252   25.6865 C   0  0  0  0  0  0  0  0  0  0  0  0
    9.5798  -16.8971   26.3686 C   0  0  0  0  0  0  0  0  0  0  0  0
    8.6246  -17.8801   26.2953 O   0  0  0  0  0  0  0  0  0  0  0  0
    9.8519  -16.4525   27.5342 O   0  0  0  0  0  0  0  0  0  0  0  0
  2  1  1  6
  3  2  1  0
  4  2  1  0
  4  5  1  1
  6  7  2  0
  6  4  1  0
  9  8  1  6
  9 10  1  0
 10  6  1  0
 11  9  1  0
 11 13  1  0
 12 11  2  0
 14 13  1  0
 14 25  1  0
 14 15  1  6
 16 15  1  0
 17 16  2  0
 18 17  1  0
 19 18  1  0
 19 24  2  0
 20 19  1  0
 21 20  2  0
 21 22  1  0
 22 23  2  0
 23 24  1  0
 24 16  1  0
 25 27  2  0
 25 26  1  0
M  END
$$$$
