VAW.pdb
     RDKit          3D

 27 28  0  0  1  0  0  0  0  0999 V2000
    9.5071  -12.9524   20.4571 C   0  0  0  0  0  0  0  0  0  0  0  0
    8.1551  -13.2783   19.9152 C   0  0  1  0  0  0  0  0  0  0  0  0
    7.9592  -12.4823   18.6412 C   0  0  0  0  0  0  0  0  0  0  0  0
    7.9856  -14.7497   19.6065 C   0  0  2  0  0  0  0  0  0  0  0  0
    6.6910  -14.9675   18.9945 N   0  0  0  0  0  0  0  0  0  0  0  0
    8.0881  -15.5867   20.8158 C   0  0  0  0  0  0  0  0  0  0  0  0
    7.1535  -15.5583   21.6909 O   0  0  0  0  0  0  0  0  0  0  0  0
    9.9935  -18.5534   21.7942 C   0  0  0  0  0  0  0  0  0  0  0  0
    9.2481  -17.2643   22.1714 C   0  0  2  0  0  0  0  0  0  0  0  0
    9.2200  -16.4188   21.0047 N   0  0  0  0  0  0  0  0  0  0  0  0
   10.0201  -16.6630   23.2838 C   0  0  0  0  0  0  0  0  0  0  0  0
   11.1726  -16.2295   23.0299 O   0  0  0  0  0  0  0  0  0  0  0  0
    9.5464  -16.5469   24.6022 N   0  0  0  0  0  0  0  0  0  0  0  0
   10.3975  -16.3562   25.7596 C   0  0  1  0  0  0  0  0  0  0  0  0
    9.8988  -15.0699   26.4346 C   0  0  0  0  0  0  0  0  0  0  0  0
    8.4147  -14.9616   26.2743 C   0  0  0  0  0  0  0  0  0  0  0  0
    7.4784  -15.9264   26.0547 C   0  0  0  0  0  0  0  0  0  0  0  0
    6.2761  -15.3042   25.9859 N   0  0  0  0  0  0  0  0  0  0  0  0
    6.4220  -13.9766   26.1548 C   0  0  0  0  0  0  0  0  0  0  0  0
    5.5498  -12.9020   26.1758 C   0  0  0  0  0  0  0  0  0  0  0  0
    6.0199  -11.6194   26.3770 C   0  0  0  0  0  0  0  0  0  0  0  0
    7.3584  -11.3518   26.5637 C   0  0  0  0  0  0  0  0  0  0  0  0
    8.2176  -12.4439   26.5392 C   0  0  0  0  0  0  0  0  0  0  0  0
    7.7602  -13.7336   26.3385 C   0  0  0  0  0  0  0  0  0  0  0  0
   10.2838  -17.4654   26.7251 C   0  0  0  0  0  0  0  0  0  0  0  0
   11.0982  -17.6249   27.8185 O   0  0  0  0  0  0  0  0  0  0  0  0
    9.3771  -18.3484   26.5561 O   0  0  0  0  0  0  0  0  0  0  0  0
  2  1  1  6
  3  2  1  0
  4  2  1  0
  4  5  1  1
  6  7  2  0
  6  4  1  0
  9  8  1  6
  9 10  1  0
 10  6  1  0
 11  9  1  0
 11 13  1  0
 12 11  2  0
 14 13  1  0
 14 25  1  0
 14 15  1  1
 16 15  1  0
 17 16  2  0
 18 17  1  0
 19 18  1  0
 19 24  2  0
 20 19  1  0
 21 20  2  0
 21 22  1  0
 22 23  2  0
 23 24  1  0
 24 16  1  0
 25 27  2  0
 25 26  1  0
M  END
$$$$
