VAW.pdb
     RDKit          3D

 27 28  0  0  1  0  0  0  0  0999 V2000
    8.0140  -19.4012   22.9137 C   0  0  0  0  0  0  0  0  0  0  0  0
    8.2169  -19.8389   21.5013 C   0  0  1  0  0  0  0  0  0  0  0  0
    7.6752  -21.2473   21.3672 C   0  0  0  0  0  0  0  0  0  0  0  0
    7.5145  -18.9449   20.5030 C   0  0  2  0  0  0  0  0  0  0  0  0
    7.6612  -19.4995   19.1731 N   0  0  0  0  0  0  0  0  0  0  0  0
    8.0541  -17.5729   20.5097 C   0  0  0  0  0  0  0  0  0  0  0  0
    9.2052  -17.3390   19.9995 O   0  0  0  0  0  0  0  0  0  0  0  0
    6.7715  -14.1830   21.2903 C   0  0  0  0  0  0  0  0  0  0  0  0
    7.9021  -15.2130   21.1459 C   0  0  2  0  0  0  0  0  0  0  0  0
    7.2969  -16.5193   21.0805 N   0  0  0  0  0  0  0  0  0  0  0  0
    8.7544  -15.0470   22.3464 C   0  0  0  0  0  0  0  0  0  0  0  0
    9.4880  -14.0277   22.4075 O   0  0  0  0  0  0  0  0  0  0  0  0
    8.7944  -15.9549   23.4188 N   0  0  0  0  0  0  0  0  0  0  0  0
    9.7292  -15.8704   24.5230 C   0  0  1  0  0  0  0  0  0  0  0  0
    8.9180  -16.2130   25.7813 C   0  0  0  0  0  0  0  0  0  0  0  0
    7.6645  -15.3957   25.8085 C   0  0  0  0  0  0  0  0  0  0  0  0
    6.3765  -15.7467   25.5375 C   0  0  0  0  0  0  0  0  0  0  0  0
    5.6181  -14.6362   25.7083 N   0  0  0  0  0  0  0  0  0  0  0  0
    6.3854  -13.5939   26.0788 C   0  0  0  0  0  0  0  0  0  0  0  0
    6.1352  -12.2654   26.3761 C   0  0  0  0  0  0  0  0  0  0  0  0
    7.1660  -11.4194   26.7344 C   0  0  0  0  0  0  0  0  0  0  0  0
    8.4723  -11.8502   26.8120 C   0  0  0  0  0  0  0  0  0  0  0  0
    8.7027  -13.1869   26.5097 C   0  0  0  0  0  0  0  0  0  0  0  0
    7.6796  -14.0451   26.1494 C   0  0  0  0  0  0  0  0  0  0  0  0
   10.8309  -16.8430   24.3975 C   0  0  0  0  0  0  0  0  0  0  0  0
   11.9145  -16.8961   25.2385 O   0  0  0  0  0  0  0  0  0  0  0  0
   10.7991  -17.7025   23.4538 O   0  0  0  0  0  0  0  0  0  0  0  0
  2  1  1  1
  3  2  1  0
  4  2  1  0
  4  5  1  6
  6  7  2  0
  6  4  1  0
  9  8  1  1
  9 10  1  0
 10  6  1  0
 11  9  1  0
 11 13  1  0
 12 11  2  0
 14 13  1  0
 14 25  1  0
 14 15  1  1
 16 15  1  0
 17 16  2  0
 18 17  1  0
 19 18  1  0
 19 24  2  0
 20 19  1  0
 21 20  2  0
 21 22  1  0
 22 23  2  0
 23 24  1  0
 24 16  1  0
 25 27  2  0
 25 26  1  0
M  END
$$$$
