AAC.pdb
     RDKit          3D

 17 16  0  0  1  0  0  0  0  0999 V2000
    5.8613  -18.5861   24.6380 C   0  0  0  0  0  0  0  0  0  0  0  0
    6.3417  -18.7703   23.2370 C   0  0  2  0  0  0  0  0  0  0  0  0
    6.8378  -20.0736   22.9370 N   0  0  0  0  0  0  0  0  0  0  0  0
    7.3421  -17.6974   22.8959 C   0  0  0  0  0  0  0  0  0  0  0  0
    8.5650  -17.9308   23.0765 O   0  0  0  0  0  0  0  0  0  0  0  0
    7.3710  -14.3330   21.2067 C   0  0  0  0  0  0  0  0  0  0  0  0
    7.9542  -15.4364   22.0535 C   0  0  2  0  0  0  0  0  0  0  0  0
    6.9744  -16.4464   22.3849 N   0  0  0  0  0  0  0  0  0  0  0  0
    8.5731  -14.9297   23.2953 C   0  0  0  0  0  0  0  0  0  0  0  0
    9.5514  -14.1423   23.1789 O   0  0  0  0  0  0  0  0  0  0  0  0
    8.1557  -15.2574   24.5910 N   0  0  0  0  0  0  0  0  0  0  0  0
    8.8159  -14.6429   25.7180 C   0  0  1  0  0  0  0  0  0  0  0  0
    7.7553  -13.8248   26.4499 C   0  0  0  0  0  0  0  0  0  0  0  0
    8.4326  -13.0874   27.9440 S   0  0  0  0  0  0  0  0  0  0  0  0
    9.4370  -15.6401   26.6212 C   0  0  0  0  0  0  0  0  0  0  0  0
   10.1375  -15.3419   27.6218 O   0  0  0  0  0  0  0  0  0  0  0  0
    9.2422  -16.9885   26.3591 O   0  0  0  0  0  0  0  0  0  0  0  0
  2  1  1  1
  2  3  1  0
  4  5  2  0
  4  2  1  0
  7  6  1  1
  7  8  1  0
  8  4  1  0
  9  7  1  0
 10  9  2  0
 11  9  1  0
 12 15  1  0
 12 11  1  0
 12 13  1  1
 14 13  1  0
 15 17  1  0
 16 15  2  0
M  END
$$$$
