AAC.pdb
     RDKit          3D

 17 16  0  0  1  0  0  0  0  0999 V2000
    9.2589  -12.4626   19.4236 C   0  0  0  0  0  0  0  0  0  0  0  0
    8.6826  -13.8207   19.1979 C   0  0  2  0  0  0  0  0  0  0  0  0
    7.7722  -13.9144   18.1039 N   0  0  0  0  0  0  0  0  0  0  0  0
    8.0770  -14.3363   20.4769 C   0  0  0  0  0  0  0  0  0  0  0  0
    6.8493  -14.1543   20.6816 O   0  0  0  0  0  0  0  0  0  0  0  0
    8.7523  -17.0258   22.8510 C   0  0  0  0  0  0  0  0  0  0  0  0
    8.1896  -15.6515   22.5873 C   0  0  2  0  0  0  0  0  0  0  0  0
    8.8190  -15.0121   21.4538 N   0  0  0  0  0  0  0  0  0  0  0  0
    8.2866  -14.7650   23.7648 C   0  0  0  0  0  0  0  0  0  0  0  0
    9.3747  -14.1534   23.9451 O   0  0  0  0  0  0  0  0  0  0  0  0
    7.2621  -14.5526   24.6953 N   0  0  0  0  0  0  0  0  0  0  0  0
    7.5187  -13.7168   25.8438 C   0  0  1  0  0  0  0  0  0  0  0  0
    6.2204  -12.9691   26.1360 C   0  0  0  0  0  0  0  0  0  0  0  0
    6.3878  -11.9432   27.6037 S   0  0  0  0  0  0  0  0  0  0  0  0
    7.9609  -14.4977   27.0231 C   0  0  0  0  0  0  0  0  0  0  0  0
    7.5734  -15.6664   27.2776 O   0  0  0  0  0  0  0  0  0  0  0  0
    8.8569  -13.9166   27.9087 O   0  0  0  0  0  0  0  0  0  0  0  0
  2  1  1  1
  2  3  1  0
  4  5  2  0
  4  2  1  0
  7  6  1  1
  7  8  1  0
  8  4  1  0
  9  7  1  0
 10  9  2  0
 11  9  1  0
 12 15  1  0
 12 11  1  0
 12 13  1  1
 14 13  1  0
 15 17  1  0
 16 15  2  0
M  END
$$$$
