AAC.pdb
     RDKit          3D

 17 16  0  0  1  0  0  0  0  0999 V2000
    7.7226  -17.8074   16.6040 C   0  0  0  0  0  0  0  0  0  0  0  0
    7.9065  -17.7295   18.0831 C   0  0  2  0  0  0  0  0  0  0  0  0
    6.7326  -17.9901   18.8504 N   0  0  0  0  0  0  0  0  0  0  0  0
    8.5347  -16.4108   18.4499 C   0  0  0  0  0  0  0  0  0  0  0  0
    9.7511  -16.2261   18.1875 O   0  0  0  0  0  0  0  0  0  0  0  0
    7.4322  -12.9658   19.2978 C   0  0  0  0  0  0  0  0  0  0  0  0
    8.4324  -14.0934   19.3529 C   0  0  2  0  0  0  0  0  0  0  0  0
    7.8261  -15.3754   19.0721 N   0  0  0  0  0  0  0  0  0  0  0  0
    9.1391  -14.1600   20.6483 C   0  0  0  0  0  0  0  0  0  0  0  0
    9.9398  -13.2253   20.9233 O   0  0  0  0  0  0  0  0  0  0  0  0
    8.9870  -15.1820   21.5931 N   0  0  0  0  0  0  0  0  0  0  0  0
    9.7474  -15.1243   22.8186 C   0  0  1  0  0  0  0  0  0  0  0  0
    8.7800  -15.4713   23.9472 C   0  0  0  0  0  0  0  0  0  0  0  0
    7.4878  -14.2283   24.0887 S   0  0  0  0  0  0  0  0  0  0  0  0
   10.9068  -16.0472   22.8080 C   0  0  0  0  0  0  0  0  0  0  0  0
   11.1836  -16.8170   21.8532 O   0  0  0  0  0  0  0  0  0  0  0  0
   11.7467  -16.0742   23.9119 O   0  0  0  0  0  0  0  0  0  0  0  0
  2  1  1  6
  2  3  1  0
  4  5  2  0
  4  2  1  0
  7  6  1  1
  7  8  1  0
  8  4  1  0
  9  7  1  0
 10  9  2  0
 11  9  1  0
 12 15  1  0
 12 11  1  0
 12 13  1  1
 14 13  1  0
 15 17  1  0
 16 15  2  0
M  END
$$$$
