AAC.pdb
     RDKit          3D

 17 16  0  0  1  0  0  0  0  0999 V2000
    9.0466  -12.6021   19.5926 C   0  0  0  0  0  0  0  0  0  0  0  0
    8.2501  -13.8637   19.5534 C   0  0  2  0  0  0  0  0  0  0  0  0
    7.1779  -13.8699   18.6126 N   0  0  0  0  0  0  0  0  0  0  0  0
    7.7803  -14.2132   20.9410 C   0  0  0  0  0  0  0  0  0  0  0  0
    6.8141  -13.5744   21.4316 O   0  0  0  0  0  0  0  0  0  0  0  0
    7.9609  -17.1582   23.1599 C   0  0  0  0  0  0  0  0  0  0  0  0
    7.7854  -15.6741   22.9565 C   0  0  2  0  0  0  0  0  0  0  0  0
    8.3706  -15.2202   21.7149 N   0  0  0  0  0  0  0  0  0  0  0  0
    8.3350  -14.8808   24.0748 C   0  0  0  0  0  0  0  0  0  0  0  0
    9.5395  -14.5161   23.9930 O   0  0  0  0  0  0  0  0  0  0  0  0
    7.6199  -14.5036   25.2179 N   0  0  0  0  0  0  0  0  0  0  0  0
    8.2939  -13.7572   26.2533 C   0  0  1  0  0  0  0  0  0  0  0  0
    7.3937  -12.5713   26.5903 C   0  0  0  0  0  0  0  0  0  0  0  0
    5.6949  -13.1065   26.8396 S   0  0  0  0  0  0  0  0  0  0  0  0
    8.5653  -14.5789   27.4563 C   0  0  0  0  0  0  0  0  0  0  0  0
    8.1239  -15.7439   27.6259 O   0  0  0  0  0  0  0  0  0  0  0  0
    9.3529  -14.0431   28.4649 O   0  0  0  0  0  0  0  0  0  0  0  0
  2  1  1  1
  2  3  1  0
  4  5  2  0
  4  2  1  0
  7  6  1  1
  7  8  1  0
  8  4  1  0
  9  7  1  0
 10  9  2  0
 11  9  1  0
 12 15  1  0
 12 11  1  0
 12 13  1  1
 14 13  1  0
 15 17  1  0
 16 15  2  0
M  END
$$$$
