AAC.pdb
     RDKit          3D

 17 16  0  0  1  0  0  0  0  0999 V2000
    8.2226  -18.1040   18.8735 C   0  0  0  0  0  0  0  0  0  0  0  0
    8.0792  -17.0441   17.8326 C   0  0  2  0  0  0  0  0  0  0  0  0
    8.6832  -17.3480   16.5766 N   0  0  0  0  0  0  0  0  0  0  0  0
    8.5566  -15.7245   18.3795 C   0  0  0  0  0  0  0  0  0  0  0  0
    9.7913  -15.4843   18.3885 O   0  0  0  0  0  0  0  0  0  0  0  0
    7.0752  -12.5180   19.6973 C   0  0  0  0  0  0  0  0  0  0  0  0
    8.1735  -13.5311   19.4925 C   0  0  2  0  0  0  0  0  0  0  0  0
    7.6874  -14.7475   18.8810 N   0  0  0  0  0  0  0  0  0  0  0  0
    8.8785  -13.8628   20.7475 C   0  0  0  0  0  0  0  0  0  0  0  0
    9.4936  -12.9307   21.3335 O   0  0  0  0  0  0  0  0  0  0  0  0
    8.9153  -15.1332   21.3350 N   0  0  0  0  0  0  0  0  0  0  0  0
    9.6482  -15.3172   22.5648 C   0  0  1  0  0  0  0  0  0  0  0  0
    8.6208  -15.6849   23.6322 C   0  0  0  0  0  0  0  0  0  0  0  0
    9.4271  -16.0639   25.1945 S   0  0  0  0  0  0  0  0  0  0  0  0
   10.6931  -16.3616   22.4488 C   0  0  0  0  0  0  0  0  0  0  0  0
   10.5381  -17.4452   21.8302 O   0  0  0  0  0  0  0  0  0  0  0  0
   11.9222  -16.1441   23.0544 O   0  0  0  0  0  0  0  0  0  0  0  0
  2  1  1  1
  2  3  1  0
  4  5  2  0
  4  2  1  0
  7  6  1  1
  7  8  1  0
  8  4  1  0
  9  7  1  0
 10  9  2  0
 11  9  1  0
 12 15  1  0
 12 11  1  0
 12 13  1  1
 14 13  1  0
 15 17  1  0
 16 15  2  0
M  END
$$$$
