AAC.pdb
     RDKit          3D

 17 16  0  0  1  0  0  0  0  0999 V2000
    6.4107  -18.4673   25.0602 C   0  0  0  0  0  0  0  0  0  0  0  0
    6.7063  -18.4150   23.5983 C   0  0  2  0  0  0  0  0  0  0  0  0
    7.2974  -19.5968   23.0608 N   0  0  0  0  0  0  0  0  0  0  0  0
    7.5229  -17.1884   23.2869 C   0  0  0  0  0  0  0  0  0  0  0  0
    8.7737  -17.2478   23.4063 O   0  0  0  0  0  0  0  0  0  0  0  0
    7.0420  -13.8085   21.7319 C   0  0  0  0  0  0  0  0  0  0  0  0
    7.7547  -14.8031   22.6138 C   0  0  2  0  0  0  0  0  0  0  0  0
    6.9534  -15.9791   22.8689 N   0  0  0  0  0  0  0  0  0  0  0  0
    8.1825  -14.2147   23.8993 C   0  0  0  0  0  0  0  0  0  0  0  0
    9.2560  -13.5528   23.9080 O   0  0  0  0  0  0  0  0  0  0  0  0
    7.4865  -14.3365   25.1081 N   0  0  0  0  0  0  0  0  0  0  0  0
    7.9657  -13.6250   26.2691 C   0  0  1  0  0  0  0  0  0  0  0  0
    6.7300  -13.1845   27.0495 C   0  0  0  0  0  0  0  0  0  0  0  0
    5.5884  -12.2865   25.9889 S   0  0  0  0  0  0  0  0  0  0  0  0
    8.8598  -14.4548   27.1107 C   0  0  0  0  0  0  0  0  0  0  0  0
    9.3760  -14.0614   28.1876 O   0  0  0  0  0  0  0  0  0  0  0  0
    9.1539  -15.7461   26.6978 O   0  0  0  0  0  0  0  0  0  0  0  0
  2  1  1  1
  2  3  1  0
  4  5  2  0
  4  2  1  0
  7  6  1  1
  7  8  1  0
  8  4  1  0
  9  7  1  0
 10  9  2  0
 11  9  1  0
 12 15  1  0
 12 11  1  0
 12 13  1  1
 14 13  1  0
 15 17  1  0
 16 15  2  0
M  END
$$$$
