AAC.pdb
     RDKit          3D

 17 16  0  0  1  0  0  0  0  0999 V2000
    7.1743  -13.3829   18.6149 C   0  0  0  0  0  0  0  0  0  0  0  0
    8.3499  -13.4595   19.5311 C   0  0  2  0  0  0  0  0  0  0  0  0
    9.5075  -14.0802   18.9747 N   0  0  0  0  0  0  0  0  0  0  0  0
    7.9415  -14.0991   20.8320 C   0  0  0  0  0  0  0  0  0  0  0  0
    6.9368  -13.6472   21.4393 O   0  0  0  0  0  0  0  0  0  0  0  0
    8.8340  -17.1465   22.8480 C   0  0  0  0  0  0  0  0  0  0  0  0
    8.2026  -15.7931   22.6371 C   0  0  2  0  0  0  0  0  0  0  0  0
    8.6301  -15.1779   21.4007 N   0  0  0  0  0  0  0  0  0  0  0  0
    8.4609  -14.8673   23.7587 C   0  0  0  0  0  0  0  0  0  0  0  0
    9.0938  -13.8066   23.5041 O   0  0  0  0  0  0  0  0  0  0  0  0
    8.0562  -15.0785   25.0823 N   0  0  0  0  0  0  0  0  0  0  0  0
    8.0201  -13.9590   25.9928 C   0  0  1  0  0  0  0  0  0  0  0  0
    6.7038  -13.2307   25.7342 C   0  0  0  0  0  0  0  0  0  0  0  0
    6.4639  -11.8998   26.9199 S   0  0  0  0  0  0  0  0  0  0  0  0
    8.1270  -14.3797   27.4097 C   0  0  0  0  0  0  0  0  0  0  0  0
    7.8909  -15.5458   27.8163 O   0  0  0  0  0  0  0  0  0  0  0  0
    8.5097  -13.4404   28.3562 O   0  0  0  0  0  0  0  0  0  0  0  0
  2  1  1  6
  2  3  1  0
  4  5  2  0
  4  2  1  0
  7  6  1  1
  7  8  1  0
  8  4  1  0
  9  7  1  0
 10  9  2  0
 11  9  1  0
 12 15  1  0
 12 11  1  0
 12 13  1  1
 14 13  1  0
 15 17  1  0
 16 15  2  0
M  END
$$$$
