AAC.pdb
     RDKit          3D

 17 16  0  0  1  0  0  0  0  0999 V2000
    6.2013  -18.5607   24.9893 C   0  0  0  0  0  0  0  0  0  0  0  0
    6.7528  -18.6642   23.6063 C   0  0  2  0  0  0  0  0  0  0  0  0
    7.5298  -19.8335   23.3539 N   0  0  0  0  0  0  0  0  0  0  0  0
    7.5054  -17.4059   23.2621 C   0  0  0  0  0  0  0  0  0  0  0  0
    8.6973  -17.2892   23.6471 O   0  0  0  0  0  0  0  0  0  0  0  0
    7.0345  -14.4238   21.0221 C   0  0  0  0  0  0  0  0  0  0  0  0
    7.7112  -15.2026   22.1223 C   0  0  2  0  0  0  0  0  0  0  0  0
    6.9391  -16.3546   22.5304 N   0  0  0  0  0  0  0  0  0  0  0  0
    8.0084  -14.3691   23.3051 C   0  0  0  0  0  0  0  0  0  0  0  0
    8.8611  -13.4499   23.1702 O   0  0  0  0  0  0  0  0  0  0  0  0
    7.4149  -14.5228   24.5639 N   0  0  0  0  0  0  0  0  0  0  0  0
    7.7674  -13.6075   25.6229 C   0  0  1  0  0  0  0  0  0  0  0  0
    6.4871  -12.8681   26.0026 C   0  0  0  0  0  0  0  0  0  0  0  0
    6.7637  -11.7919   27.4167 S   0  0  0  0  0  0  0  0  0  0  0  0
    8.3512  -14.2993   26.7963 C   0  0  0  0  0  0  0  0  0  0  0  0
    8.8468  -13.7054   27.7875 O   0  0  0  0  0  0  0  0  0  0  0  0
    8.3581  -15.6865   26.8161 O   0  0  0  0  0  0  0  0  0  0  0  0
  2  1  1  1
  2  3  1  0
  4  5  2  0
  4  2  1  0
  7  6  1  6
  7  8  1  0
  8  4  1  0
  9  7  1  0
 10  9  2  0
 11  9  1  0
 12 15  1  0
 12 11  1  0
 12 13  1  1
 14 13  1  0
 15 17  1  0
 16 15  2  0
M  END
$$$$
