AAC.pdb
     RDKit          3D

 17 16  0  0  1  0  0  0  0  0999 V2000
   -5.0402  -27.0633   24.9348 C   0  0  0  0  0  0  0  0  0  0  0  0
   -5.8782  -26.0907   25.6959 C   0  0  2  0  0  0  0  0  0  0  0  0
   -5.7010  -24.7245   25.3259 N   0  0  0  0  0  0  0  0  0  0  0  0
   -5.6862  -26.3004   27.1749 C   0  0  0  0  0  0  0  0  0  0  0  0
   -5.9225  -27.4364   27.6607 O   0  0  0  0  0  0  0  0  0  0  0  0
   -3.6532  -25.0642   29.8822 C   0  0  0  0  0  0  0  0  0  0  0  0
   -5.0207  -25.5268   29.4453 C   0  0  2  0  0  0  0  0  0  0  0  0
   -5.2551  -25.2862   28.0392 N   0  0  0  0  0  0  0  0  0  0  0  0
   -6.1058  -24.9092   30.2346 C   0  0  0  0  0  0  0  0  0  0  0  0
   -6.0876  -25.0813   31.4838 O   0  0  0  0  0  0  0  0  0  0  0  0
   -7.1523  -24.1475   29.7006 N   0  0  0  0  0  0  0  0  0  0  0  0
   -8.1212  -23.5607   30.5953 C   0  0  1  0  0  0  0  0  0  0  0  0
   -8.4541  -22.1817   30.0315 C   0  0  0  0  0  0  0  0  0  0  0  0
   -7.0091  -21.1112   30.0611 S   0  0  0  0  0  0  0  0  0  0  0  0
   -9.3417  -24.3905   30.7291 C   0  0  0  0  0  0  0  0  0  0  0  0
   -9.5503  -25.4441   30.0755 O   0  0  0  0  0  0  0  0  0  0  0  0
  -10.3223  -23.9928   31.6262 O   0  0  0  0  0  0  0  0  0  0  0  0
  2  1  1  6
  2  3  1  0
  4  5  2  0
  4  2  1  0
  7  6  1  1
  7  8  1  0
  8  4  1  0
  9  7  1  0
 10  9  2  0
 11  9  1  0
 12 15  1  0
 12 11  1  0
 12 13  1  6
 14 13  1  0
 15 17  1  0
 16 15  2  0
M  END
$$$$
