AAC.pdb
     RDKit          3D

 17 16  0  0  1  0  0  0  0  0999 V2000
    8.4658  -12.3520   19.7174 C   0  0  0  0  0  0  0  0  0  0  0  0
    8.3341  -13.8335   19.5934 C   0  0  2  0  0  0  0  0  0  0  0  0
    7.6227  -14.2804   18.4406 N   0  0  0  0  0  0  0  0  0  0  0  0
    7.7576  -14.4021   20.8633 C   0  0  0  0  0  0  0  0  0  0  0  0
    6.5141  -14.5769   20.9381 O   0  0  0  0  0  0  0  0  0  0  0  0
    8.4083  -16.8482   23.2265 C   0  0  0  0  0  0  0  0  0  0  0  0
    7.9852  -15.4037   23.1307 C   0  0  2  0  0  0  0  0  0  0  0  0
    8.5434  -14.7471   21.9700 N   0  0  0  0  0  0  0  0  0  0  0  0
    8.3297  -14.6317   24.3420 C   0  0  0  0  0  0  0  0  0  0  0  0
    9.5120  -14.2048   24.4436 O   0  0  0  0  0  0  0  0  0  0  0  0
    7.4430  -14.3385   25.3852 N   0  0  0  0  0  0  0  0  0  0  0  0
    7.9249  -13.6052   26.5313 C   0  0  1  0  0  0  0  0  0  0  0  0
    6.7011  -12.9722   27.1884 C   0  0  0  0  0  0  0  0  0  0  0  0
    5.8042  -11.9440   26.0166 S   0  0  0  0  0  0  0  0  0  0  0  0
    8.6563  -14.4691   27.4877 C   0  0  0  0  0  0  0  0  0  0  0  0
    8.7395  -15.7193   27.3839 O   0  0  0  0  0  0  0  0  0  0  0  0
    9.2929  -13.8760   28.5684 O   0  0  0  0  0  0  0  0  0  0  0  0
  2  1  1  1
  2  3  1  0
  4  5  2  0
  4  2  1  0
  7  6  1  1
  7  8  1  0
  8  4  1  0
  9  7  1  0
 10  9  2  0
 11  9  1  0
 12 15  1  0
 12 11  1  0
 12 13  1  1
 14 13  1  0
 15 17  1  0
 16 15  2  0
M  END
$$$$
