AAC.pdb
     RDKit          3D

 17 16  0  0  1  0  0  0  0  0999 V2000
   12.2666  -16.8627   20.6741 C   0  0  0  0  0  0  0  0  0  0  0  0
   11.4279  -15.8457   19.9742 C   0  0  2  0  0  0  0  0  0  0  0  0
   12.1454  -14.9620   19.1145 N   0  0  0  0  0  0  0  0  0  0  0  0
   10.5924  -15.0957   20.9780 C   0  0  0  0  0  0  0  0  0  0  0  0
   11.1006  -14.1108   21.5730 O   0  0  0  0  0  0  0  0  0  0  0  0
    7.0145  -14.9882   22.1277 C   0  0  0  0  0  0  0  0  0  0  0  0
    8.4923  -14.7165   22.2593 C   0  0  2  0  0  0  0  0  0  0  0  0
    9.2705  -15.4441   21.2821 N   0  0  0  0  0  0  0  0  0  0  0  0
    9.0041  -15.0151   23.6124 C   0  0  0  0  0  0  0  0  0  0  0  0
    9.6146  -16.1064   23.7762 O   0  0  0  0  0  0  0  0  0  0  0  0
    8.8625  -14.1783   24.7260 N   0  0  0  0  0  0  0  0  0  0  0  0
    9.3492  -14.6277   26.0085 C   0  0  1  0  0  0  0  0  0  0  0  0
    9.1168  -13.4802   26.9880 C   0  0  0  0  0  0  0  0  0  0  0  0
    9.8546  -13.8435   28.5875 S   0  0  0  0  0  0  0  0  0  0  0  0
    8.6740  -15.8647   26.4669 C   0  0  0  0  0  0  0  0  0  0  0  0
    7.4501  -16.1000   26.3013 O   0  0  0  0  0  0  0  0  0  0  0  0
    9.4256  -16.8306   27.1201 O   0  0  0  0  0  0  0  0  0  0  0  0
  2  1  1  1
  2  3  1  0
  4  5  2  0
  4  2  1  0
  7  6  1  1
  7  8  1  0
  8  4  1  0
  9  7  1  0
 10  9  2  0
 11  9  1  0
 12 15  1  0
 12 11  1  0
 12 13  1  1
 14 13  1  0
 15 17  1  0
 16 15  2  0
M  END
$$$$
