WEQ.pdb
     RDKit          3D

 33 34  0  0  1  0  0  0  0  0999 V2000
   27.4522  -22.1244  -13.2359 N   0  0  0  0  0  0  0  0  0  0  0  0
   26.2861  -21.6259  -12.5140 C   0  0  1  0  0  0  0  0  0  0  0  0
   26.7271  -20.3439  -11.8481 C   0  0  0  0  0  0  0  0  0  0  0  0
   27.6898  -20.5911  -10.7563 C   0  0  0  0  0  0  0  0  0  0  0  0
   29.0262  -20.8851  -10.8948 C   0  0  0  0  0  0  0  0  0  0  0  0
   29.5891  -21.0454   -9.6838 N   0  0  0  0  0  0  0  0  0  0  0  0
   28.6103  -20.8530   -8.7871 C   0  0  0  0  0  0  0  0  0  0  0  0
   28.6345  -20.8983   -7.4217 C   0  0  0  0  0  0  0  0  0  0  0  0
   27.4993  -20.6677   -6.6601 C   0  0  0  0  0  0  0  0  0  0  0  0
   26.3161  -20.3852   -7.3110 C   0  0  0  0  0  0  0  0  0  0  0  0
   26.2627  -20.3333   -8.6799 C   0  0  0  0  0  0  0  0  0  0  0  0
   27.4208  -20.5698   -9.4110 C   0  0  0  0  0  0  0  0  0  0  0  0
   25.2150  -21.2210  -13.4922 C   0  0  0  0  0  0  0  0  0  0  0  0
   25.4884  -20.6919  -14.5932 O   0  0  0  0  0  0  0  0  0  0  0  0
   23.8531  -21.4379  -13.1748 N   0  0  0  0  0  0  0  0  0  0  0  0
   22.8448  -21.1168  -14.2021 C   0  0  1  0  0  0  0  0  0  0  0  0
   22.9547  -22.1227  -15.2909 C   0  0  0  0  0  0  0  0  0  0  0  0
   23.1763  -23.5295  -14.9020 C   0  0  0  0  0  0  0  0  0  0  0  0
   24.2541  -24.1452  -15.7755 C   0  0  0  0  0  0  0  0  0  0  0  0
   24.1457  -24.2125  -17.0012 O   0  0  0  0  0  0  0  0  0  0  0  0
   21.5487  -21.2231  -13.5088 C   0  0  0  0  0  0  0  0  0  0  0  0
   21.3700  -22.0479  -12.5428 O   0  0  0  0  0  0  0  0  0  0  0  0
   25.3853  -24.6400  -15.1547 O   0  0  0  0  0  0  0  0  0  0  0  0
   19.4168  -16.7006  -12.2629 N   0  0  0  0  0  0  0  0  0  0  0  0
   18.9593  -16.9519  -13.5844 C   0  0  0  0  0  0  0  0  0  0  0  0
   18.8954  -16.0445  -14.4470 O   0  0  0  0  0  0  0  0  0  0  0  0
   18.5471  -18.3537  -13.9292 C   0  0  0  0  0  0  0  0  0  0  0  0
   18.7025  -19.2092  -12.7223 C   0  0  0  0  0  0  0  0  0  0  0  0
   19.1709  -20.6074  -13.0655 C   0  0  2  0  0  0  0  0  0  0  0  0
   20.4200  -20.4329  -13.8427 N   0  0  0  0  0  0  0  0  0  0  0  0
   18.1614  -21.3128  -13.8784 C   0  0  0  0  0  0  0  0  0  0  0  0
   18.3814  -21.4634  -15.1064 O   0  0  0  0  0  0  0  0  0  0  0  0
   16.9727  -21.8365  -13.4068 O   0  0  0  0  0  0  0  0  0  0  0  0
  2  1  1  6
  3  2  1  0
  4  3  1  0
  4  5  2  0
  6  5  1  0
  7  6  1  0
  8  7  2  0
  9 10  2  0
  9  8  1  0
 10 11  1  0
 11 12  2  0
 12  7  1  0
 12  4  1  0
 13 15  1  0
 13  2  1  0
 14 13  2  0
 16 17  1  6
 16 15  1  0
 18 17  1  0
 18 19  1  0
 19 23  1  0
 20 19  2  0
 21 16  1  0
 22 21  2  0
 24 25  1  0
 25 26  2  0
 27 25  1  0
 27 28  1  0
 29 28  1  6
 29 30  1  0
 30 21  1  0
 31 33  1  0
 31 29  1  0
 32 31  2  0
M  END
$$$$
