WEQ.pdb
     RDKit          3D

 33 34  0  0  1  0  0  0  0  0999 V2000
   28.1230  -21.1132   -9.7590 N   0  0  0  0  0  0  0  0  0  0  0  0
   26.7178  -21.4732   -9.5998 C   0  0  1  0  0  0  0  0  0  0  0  0
   26.2495  -20.7727   -8.3462 C   0  0  0  0  0  0  0  0  0  0  0  0
   27.3796  -20.2856   -7.5304 C   0  0  0  0  0  0  0  0  0  0  0  0
   28.5026  -19.6390   -7.9913 C   0  0  0  0  0  0  0  0  0  0  0  0
   29.3168  -19.3430   -6.9626 N   0  0  0  0  0  0  0  0  0  0  0  0
   28.7082  -19.8018   -5.8588 C   0  0  0  0  0  0  0  0  0  0  0  0
   29.0968  -19.7650   -4.5493 C   0  0  0  0  0  0  0  0  0  0  0  0
   28.3165  -20.3027   -3.5376 C   0  0  0  0  0  0  0  0  0  0  0  0
   27.1143  -20.8897   -3.8747 C   0  0  0  0  0  0  0  0  0  0  0  0
   26.6994  -20.9406   -5.1803 C   0  0  0  0  0  0  0  0  0  0  0  0
   27.5078  -20.3912   -6.1684 C   0  0  0  0  0  0  0  0  0  0  0  0
   25.9077  -20.8744  -10.7193 C   0  0  0  0  0  0  0  0  0  0  0  0
   25.6170  -19.6573  -10.7499 O   0  0  0  0  0  0  0  0  0  0  0  0
   25.4532  -21.6968  -11.7774 N   0  0  0  0  0  0  0  0  0  0  0  0
   24.6957  -21.0599  -12.8709 C   0  0  1  0  0  0  0  0  0  0  0  0
   25.3509  -21.4141  -14.1573 C   0  0  0  0  0  0  0  0  0  0  0  0
   26.6462  -20.7754  -14.4632 C   0  0  0  0  0  0  0  0  0  0  0  0
   26.4280  -19.3291  -14.8686 C   0  0  0  0  0  0  0  0  0  0  0  0
   27.0194  -18.3979  -14.3196 O   0  0  0  0  0  0  0  0  0  0  0  0
   23.3439  -21.6404  -12.7851 C   0  0  0  0  0  0  0  0  0  0  0  0
   23.1346  -22.7737  -12.2218 O   0  0  0  0  0  0  0  0  0  0  0  0
   25.5323  -19.0716  -15.8890 O   0  0  0  0  0  0  0  0  0  0  0  0
   19.6991  -23.4421   -9.8464 N   0  0  0  0  0  0  0  0  0  0  0  0
   18.8202  -22.3743  -10.1719 C   0  0  0  0  0  0  0  0  0  0  0  0
   17.6949  -22.2548   -9.6324 O   0  0  0  0  0  0  0  0  0  0  0  0
   19.2786  -21.3755  -11.1947 C   0  0  0  0  0  0  0  0  0  0  0  0
   20.6717  -21.7071  -11.5972 C   0  0  0  0  0  0  0  0  0  0  0  0
   20.8675  -21.6414  -13.0971 C   0  0  2  0  0  0  0  0  0  0  0  0
   22.1882  -21.0023  -13.3019 N   0  0  0  0  0  0  0  0  0  0  0  0
   19.8079  -20.8314  -13.7282 C   0  0  0  0  0  0  0  0  0  0  0  0
   19.9555  -19.5842  -13.7733 O   0  0  0  0  0  0  0  0  0  0  0  0
   18.6450  -21.3248  -14.2883 O   0  0  0  0  0  0  0  0  0  0  0  0
  2  1  1  6
  3  2  1  0
  4  3  1  0
  4  5  2  0
  6  5  1  0
  7  6  1  0
  8  7  2  0
  9 10  2  0
  9  8  1  0
 10 11  1  0
 11 12  2  0
 12  7  1  0
 12  4  1  0
 13 15  1  0
 13  2  1  0
 14 13  2  0
 16 17  1  6
 16 15  1  0
 18 17  1  0
 18 19  1  0
 19 23  1  0
 20 19  2  0
 21 16  1  0
 22 21  2  0
 24 25  1  0
 25 26  2  0
 27 25  1  0
 27 28  1  0
 29 28  1  1
 29 30  1  0
 30 21  1  0
 31 33  1  0
 31 29  1  0
 32 31  2  0
M  END
$$$$
