WEQ.pdb
     RDKit          3D

 33 34  0  0  1  0  0  0  0  0999 V2000
   23.9177  -21.2618   -8.6635 N   0  0  0  0  0  0  0  0  0  0  0  0
   23.4377  -21.7767   -7.3853 C   0  0  1  0  0  0  0  0  0  0  0  0
   23.9539  -20.8233   -6.3336 C   0  0  0  0  0  0  0  0  0  0  0  0
   25.2740  -20.2673   -6.6920 C   0  0  0  0  0  0  0  0  0  0  0  0
   25.6365  -19.7401   -7.9095 C   0  0  0  0  0  0  0  0  0  0  0  0
   26.9166  -19.3294   -7.8692 N   0  0  0  0  0  0  0  0  0  0  0  0
   27.3574  -19.5973   -6.6310 C   0  0  0  0  0  0  0  0  0  0  0  0
   28.5793  -19.3849   -6.0574 C   0  0  0  0  0  0  0  0  0  0  0  0
   28.8435  -19.7375   -4.7430 C   0  0  0  0  0  0  0  0  0  0  0  0
   27.8355  -20.3193   -4.0021 C   0  0  0  0  0  0  0  0  0  0  0  0
   26.6000  -20.5442   -4.5521 C   0  0  0  0  0  0  0  0  0  0  0  0
   26.3711  -20.1776   -5.8730 C   0  0  0  0  0  0  0  0  0  0  0  0
   21.9370  -21.6676   -7.3224 C   0  0  0  0  0  0  0  0  0  0  0  0
   21.3449  -20.5748   -7.4707 O   0  0  0  0  0  0  0  0  0  0  0  0
   21.1560  -22.8246   -7.0902 N   0  0  0  0  0  0  0  0  0  0  0  0
   19.6905  -22.7028   -7.2023 C   0  0  1  0  0  0  0  0  0  0  0  0
   19.2773  -23.2628   -8.5158 C   0  0  0  0  0  0  0  0  0  0  0  0
   19.8002  -24.5925   -8.8870 C   0  0  0  0  0  0  0  0  0  0  0  0
   19.2449  -25.0096  -10.2366 C   0  0  0  0  0  0  0  0  0  0  0  0
   19.0471  -24.1988  -11.1432 O   0  0  0  0  0  0  0  0  0  0  0  0
   19.1560  -23.5075   -6.0894 C   0  0  0  0  0  0  0  0  0  0  0  0
   19.7123  -23.5076   -4.9336 O   0  0  0  0  0  0  0  0  0  0  0  0
   18.9591  -26.3473  -10.4330 O   0  0  0  0  0  0  0  0  0  0  0  0
   15.5129  -22.0257   -2.8496 N   0  0  0  0  0  0  0  0  0  0  0  0
   15.5270  -23.2964   -2.2141 C   0  0  0  0  0  0  0  0  0  0  0  0
   15.0136  -23.4781   -1.0850 O   0  0  0  0  0  0  0  0  0  0  0  0
   16.1824  -24.4359   -2.9393 C   0  0  0  0  0  0  0  0  0  0  0  0
   16.8908  -23.9002   -4.1325 C   0  0  0  0  0  0  0  0  0  0  0  0
   17.4830  -24.9983   -4.9903 C   0  0  2  0  0  0  0  0  0  0  0  0
   18.0028  -24.3244   -6.2028 N   0  0  0  0  0  0  0  0  0  0  0  0
   16.4517  -25.9864   -5.3611 C   0  0  0  0  0  0  0  0  0  0  0  0
   15.9345  -25.9106   -6.5039 O   0  0  0  0  0  0  0  0  0  0  0  0
   15.9926  -27.0103   -4.5546 O   0  0  0  0  0  0  0  0  0  0  0  0
  2  1  1  6
  3  2  1  0
  4  3  1  0
  4  5  2  0
  6  5  1  0
  7  6  1  0
  8  7  2  0
  9 10  2  0
  9  8  1  0
 10 11  1  0
 11 12  2  0
 12  7  1  0
 12  4  1  0
 13 15  1  0
 13  2  1  0
 14 13  2  0
 16 17  1  6
 16 15  1  0
 18 17  1  0
 18 19  1  0
 19 23  1  0
 20 19  2  0
 21 16  1  0
 22 21  2  0
 24 25  1  0
 25 26  2  0
 27 25  1  0
 27 28  1  0
 29 28  1  1
 29 30  1  0
 30 21  1  0
 31 33  1  0
 31 29  1  0
 32 31  2  0
M  END
$$$$
