WEQ.pdb
     RDKit          3D

 33 34  0  0  1  0  0  0  0  0999 V2000
   21.7577  -10.8296  -16.2055 N   0  0  0  0  0  0  0  0  0  0  0  0
   20.8455  -10.3930  -15.1535 C   0  0  1  0  0  0  0  0  0  0  0  0
   21.7156   -9.8080  -14.0662 C   0  0  0  0  0  0  0  0  0  0  0  0
   23.1531   -9.9749  -14.3591 C   0  0  0  0  0  0  0  0  0  0  0  0
   23.8813  -11.1364  -14.2482 C   0  0  0  0  0  0  0  0  0  0  0  0
   25.1600  -10.9121  -14.5998 N   0  0  0  0  0  0  0  0  0  0  0  0
   25.2357   -9.6144  -14.9306 C   0  0  0  0  0  0  0  0  0  0  0  0
   26.2967   -8.8666  -15.3573 C   0  0  0  0  0  0  0  0  0  0  0  0
   26.1714   -7.5180  -15.6531 C   0  0  0  0  0  0  0  0  0  0  0  0
   24.9344   -6.9244  -15.5085 C   0  0  0  0  0  0  0  0  0  0  0  0
   23.8526   -7.6506  -15.0822 C   0  0  0  0  0  0  0  0  0  0  0  0
   24.0153   -9.0006  -14.7949 C   0  0  0  0  0  0  0  0  0  0  0  0
   20.0031   -9.2481  -15.6513 C   0  0  0  0  0  0  0  0  0  0  0  0
   20.4221   -8.4421  -16.5125 O   0  0  0  0  0  0  0  0  0  0  0  0
   18.6959   -9.0624  -15.1422 N   0  0  0  0  0  0  0  0  0  0  0  0
   17.8359   -8.0586  -15.7963 C   0  0  1  0  0  0  0  0  0  0  0  0
   16.4259   -8.5181  -15.6945 C   0  0  0  0  0  0  0  0  0  0  0  0
   15.9538   -9.5010  -16.6897 C   0  0  0  0  0  0  0  0  0  0  0  0
   14.5941  -10.0387  -16.2824 C   0  0  0  0  0  0  0  0  0  0  0  0
   13.5460   -9.6018  -16.7610 O   0  0  0  0  0  0  0  0  0  0  0  0
   18.0479   -6.8185  -15.0288 C   0  0  0  0  0  0  0  0  0  0  0  0
   18.4800   -6.8421  -13.8213 O   0  0  0  0  0  0  0  0  0  0  0  0
   14.5541  -11.0511  -15.3426 O   0  0  0  0  0  0  0  0  0  0  0  0
   20.3646   -1.7619  -17.0082 N   0  0  0  0  0  0  0  0  0  0  0  0
   20.0606   -1.2768  -15.7078 C   0  0  0  0  0  0  0  0  0  0  0  0
   20.4409   -0.1483  -15.3161 O   0  0  0  0  0  0  0  0  0  0  0  0
   19.2594   -2.1627  -14.7983 C   0  0  0  0  0  0  0  0  0  0  0  0
   18.9063   -3.4078  -15.5315 C   0  0  0  0  0  0  0  0  0  0  0  0
   18.0580   -4.3447  -14.6979 C   0  0  2  0  0  0  0  0  0  0  0  0
   17.8026   -5.5253  -15.5555 N   0  0  0  0  0  0  0  0  0  0  0  0
   16.7829   -3.7031  -14.3241 C   0  0  0  0  0  0  0  0  0  0  0  0
   16.8104   -2.7504  -13.5049 O   0  0  0  0  0  0  0  0  0  0  0  0
   15.5350   -4.0565  -14.8011 O   0  0  0  0  0  0  0  0  0  0  0  0
  2  1  1  6
  3  2  1  0
  4  3  1  0
  4  5  2  0
  6  5  1  0
  7  6  1  0
  8  7  2  0
  9 10  2  0
  9  8  1  0
 10 11  1  0
 11 12  2  0
 12  7  1  0
 12  4  1  0
 13 15  1  0
 13  2  1  0
 14 13  2  0
 16 17  1  1
 16 15  1  0
 18 17  1  0
 18 19  1  0
 19 23  1  0
 20 19  2  0
 21 16  1  0
 22 21  2  0
 24 25  1  0
 25 26  2  0
 27 25  1  0
 27 28  1  0
 29 28  1  6
 29 30  1  0
 30 21  1  0
 31 33  1  0
 31 29  1  0
 32 31  2  0
M  END
$$$$
