WEQ.pdb
     RDKit          3D

 33 34  0  0  1  0  0  0  0  0999 V2000
   28.4616  -20.9902  -10.4176 N   0  0  0  0  0  0  0  0  0  0  0  0
   27.1318  -21.4350  -10.0135 C   0  0  1  0  0  0  0  0  0  0  0  0
   26.7508  -20.5800   -8.8281 C   0  0  0  0  0  0  0  0  0  0  0  0
   27.9141  -20.2709   -7.9729 C   0  0  0  0  0  0  0  0  0  0  0  0
   29.2113  -20.0874   -8.3913 C   0  0  0  0  0  0  0  0  0  0  0  0
   30.0009  -19.8206   -7.3357 N   0  0  0  0  0  0  0  0  0  0  0  0
   29.2031  -19.8364   -6.2574 C   0  0  0  0  0  0  0  0  0  0  0  0
   29.4891  -19.6294   -4.9374 C   0  0  0  0  0  0  0  0  0  0  0  0
   28.5107  -19.6898   -3.9571 C   0  0  0  0  0  0  0  0  0  0  0  0
   27.2140  -19.9679   -4.3373 C   0  0  0  0  0  0  0  0  0  0  0  0
   26.8986  -20.1797   -5.6545 C   0  0  0  0  0  0  0  0  0  0  0  0
   27.9053  -20.1112   -6.6102 C   0  0  0  0  0  0  0  0  0  0  0  0
   26.1323  -21.0975  -11.0882 C   0  0  0  0  0  0  0  0  0  0  0  0
   26.1925  -20.0292  -11.7378 O   0  0  0  0  0  0  0  0  0  0  0  0
   25.0870  -22.0034  -11.3872 N   0  0  0  0  0  0  0  0  0  0  0  0
   24.4597  -21.9189  -12.7193 C   0  0  1  0  0  0  0  0  0  0  0  0
   24.1814  -23.3011  -13.1899 C   0  0  0  0  0  0  0  0  0  0  0  0
   23.5448  -23.4577  -14.5126 C   0  0  0  0  0  0  0  0  0  0  0  0
   24.5403  -23.1263  -15.6095 C   0  0  0  0  0  0  0  0  0  0  0  0
   25.5304  -23.8261  -15.8296 O   0  0  0  0  0  0  0  0  0  0  0  0
   23.2096  -21.1688  -12.5037 C   0  0  0  0  0  0  0  0  0  0  0  0
   22.5665  -21.2401  -11.3961 O   0  0  0  0  0  0  0  0  0  0  0  0
   24.3090  -21.9984  -16.3737 O   0  0  0  0  0  0  0  0  0  0  0  0
   21.9786  -15.3753  -15.7218 N   0  0  0  0  0  0  0  0  0  0  0  0
   21.4789  -16.6999  -15.6016 C   0  0  0  0  0  0  0  0  0  0  0  0
   20.7800  -17.2281  -16.4983 O   0  0  0  0  0  0  0  0  0  0  0  0
   21.8134  -17.4652  -14.3541 C   0  0  0  0  0  0  0  0  0  0  0  0
   21.0645  -18.7504  -14.3652 C   0  0  0  0  0  0  0  0  0  0  0  0
   21.3752  -19.6070  -13.1561 C   0  0  2  0  0  0  0  0  0  0  0  0
   22.6327  -20.3195  -13.4814 N   0  0  0  0  0  0  0  0  0  0  0  0
   20.2910  -20.5770  -12.9093 C   0  0  0  0  0  0  0  0  0  0  0  0
   19.5858  -20.4362  -11.8787 O   0  0  0  0  0  0  0  0  0  0  0  0
   19.9693  -21.6470  -13.7225 O   0  0  0  0  0  0  0  0  0  0  0  0
  2  1  1  6
  3  2  1  0
  4  3  1  0
  4  5  2  0
  6  5  1  0
  7  6  1  0
  8  7  2  0
  9 10  2  0
  9  8  1  0
 10 11  1  0
 11 12  2  0
 12  7  1  0
 12  4  1  0
 13 15  1  0
 13  2  1  0
 14 13  2  0
 16 17  1  1
 16 15  1  0
 18 17  1  0
 18 19  1  0
 19 23  1  0
 20 19  2  0
 21 16  1  0
 22 21  2  0
 24 25  1  0
 25 26  2  0
 27 25  1  0
 27 28  1  0
 29 28  1  6
 29 30  1  0
 30 21  1  0
 31 33  1  0
 31 29  1  0
 32 31  2  0
M  END
$$$$
