WEQ.pdb
     RDKit          3D

 33 34  0  0  1  0  0  0  0  0999 V2000
   26.9282  -19.5858  -11.8257 N   0  0  0  0  0  0  0  0  0  0  0  0
   26.5403  -20.9898  -11.9133 C   0  0  1  0  0  0  0  0  0  0  0  0
   25.6892  -21.2620  -10.6955 C   0  0  0  0  0  0  0  0  0  0  0  0
   26.2464  -20.6346   -9.4806 C   0  0  0  0  0  0  0  0  0  0  0  0
   25.5691  -19.8384   -8.5867 C   0  0  0  0  0  0  0  0  0  0  0  0
   26.3968  -19.4468   -7.6017 N   0  0  0  0  0  0  0  0  0  0  0  0
   27.5903  -19.9948   -7.8749 C   0  0  0  0  0  0  0  0  0  0  0  0
   28.7776  -19.9192   -7.2029 C   0  0  0  0  0  0  0  0  0  0  0  0
   29.9177  -20.5664   -7.6537 C   0  0  0  0  0  0  0  0  0  0  0  0
   29.8391  -21.3055   -8.8160 C   0  0  0  0  0  0  0  0  0  0  0  0
   28.6608  -21.3988   -9.5105 C   0  0  0  0  0  0  0  0  0  0  0  0
   27.5379  -20.7365   -9.0288 C   0  0  0  0  0  0  0  0  0  0  0  0
   25.6272  -21.1942  -13.0934 C   0  0  0  0  0  0  0  0  0  0  0  0
   24.8658  -20.2909  -13.5069 O   0  0  0  0  0  0  0  0  0  0  0  0
   25.6165  -22.4381  -13.7682 N   0  0  0  0  0  0  0  0  0  0  0  0
   24.9191  -22.5142  -15.0655 C   0  0  1  0  0  0  0  0  0  0  0  0
   25.5654  -23.5778  -15.8783 C   0  0  0  0  0  0  0  0  0  0  0  0
   25.1229  -24.9691  -15.6594 C   0  0  0  0  0  0  0  0  0  0  0  0
   25.9589  -25.9171  -16.4999 C   0  0  0  0  0  0  0  0  0  0  0  0
   25.9279  -25.9023  -17.7316 O   0  0  0  0  0  0  0  0  0  0  0  0
   23.5296  -22.8721  -14.7295 C   0  0  0  0  0  0  0  0  0  0  0  0
   23.2271  -23.4028  -13.6016 O   0  0  0  0  0  0  0  0  0  0  0  0
   26.7741  -26.8178  -15.8411 O   0  0  0  0  0  0  0  0  0  0  0  0
   20.7915  -18.5593  -13.1280 N   0  0  0  0  0  0  0  0  0  0  0  0
   20.0751  -19.6870  -12.6442 C   0  0  0  0  0  0  0  0  0  0  0  0
   19.6217  -19.7325  -11.4764 O   0  0  0  0  0  0  0  0  0  0  0  0
   19.8706  -20.8425  -13.5806 C   0  0  0  0  0  0  0  0  0  0  0  0
   21.1926  -21.2655  -14.1154 C   0  0  0  0  0  0  0  0  0  0  0  0
   21.0848  -22.4680  -15.0290 C   0  0  2  0  0  0  0  0  0  0  0  0
   22.4363  -22.6562  -15.6059 N   0  0  0  0  0  0  0  0  0  0  0  0
   20.1036  -22.2226  -16.1034 C   0  0  0  0  0  0  0  0  0  0  0  0
   18.8883  -22.4333  -15.8628 O   0  0  0  0  0  0  0  0  0  0  0  0
   20.4005  -21.7715  -17.3754 O   0  0  0  0  0  0  0  0  0  0  0  0
  2  1  1  1
  3  2  1  0
  4  3  1  0
  4  5  2  0
  6  5  1  0
  7  6  1  0
  8  7  2  0
  9 10  2  0
  9  8  1  0
 10 11  1  0
 11 12  2  0
 12  7  1  0
 12  4  1  0
 13 15  1  0
 13  2  1  0
 14 13  2  0
 16 17  1  6
 16 15  1  0
 18 17  1  0
 18 19  1  0
 19 23  1  0
 20 19  2  0
 21 16  1  0
 22 21  2  0
 24 25  1  0
 25 26  2  0
 27 25  1  0
 27 28  1  0
 29 28  1  1
 29 30  1  0
 30 21  1  0
 31 33  1  0
 31 29  1  0
 32 31  2  0
M  END
$$$$
