WEQ.pdb
     RDKit          3D

 33 34  0  0  1  0  0  0  0  0999 V2000
   24.4040  -20.7621   -9.5305 N   0  0  0  0  0  0  0  0  0  0  0  0
   23.9582  -21.4584   -8.3279 C   0  0  1  0  0  0  0  0  0  0  0  0
   24.2955  -20.5470   -7.1716 C   0  0  0  0  0  0  0  0  0  0  0  0
   25.7284  -20.1915   -7.1480 C   0  0  0  0  0  0  0  0  0  0  0  0
   26.4916  -19.7980   -8.2224 C   0  0  0  0  0  0  0  0  0  0  0  0
   27.7532  -19.5546   -7.8249 N   0  0  0  0  0  0  0  0  0  0  0  0
   27.7833  -19.7942   -6.5054 C   0  0  0  0  0  0  0  0  0  0  0  0
   28.8107  -19.7039   -5.6091 C   0  0  0  0  0  0  0  0  0  0  0  0
   28.6396  -19.9995   -4.2655 C   0  0  0  0  0  0  0  0  0  0  0  0
   27.3909  -20.3953   -3.8323 C   0  0  0  0  0  0  0  0  0  0  0  0
   26.3421  -20.4945   -4.7096 C   0  0  0  0  0  0  0  0  0  0  0  0
   26.5506  -20.1902   -6.0495 C   0  0  0  0  0  0  0  0  0  0  0  0
   22.4560  -21.5658   -8.3278 C   0  0  0  0  0  0  0  0  0  0  0  0
   21.7252  -20.6431   -8.7537 O   0  0  0  0  0  0  0  0  0  0  0  0
   21.8340  -22.7379   -7.8359 N   0  0  0  0  0  0  0  0  0  0  0  0
   20.3914  -22.9121   -8.0879 C   0  0  1  0  0  0  0  0  0  0  0  0
   20.2306  -23.7747   -9.2877 C   0  0  0  0  0  0  0  0  0  0  0  0
   18.8605  -24.1798   -9.6597 C   0  0  0  0  0  0  0  0  0  0  0  0
   18.0841  -22.9778  -10.1658 C   0  0  0  0  0  0  0  0  0  0  0  0
   17.0889  -22.5465   -9.5810 O   0  0  0  0  0  0  0  0  0  0  0  0
   19.8724  -23.5787   -6.8803 C   0  0  0  0  0  0  0  0  0  0  0  0
   20.6263  -24.3031   -6.1371 O   0  0  0  0  0  0  0  0  0  0  0  0
   18.5256  -22.3627  -11.3219 O   0  0  0  0  0  0  0  0  0  0  0  0
   13.9391  -23.9357   -4.9955 N   0  0  0  0  0  0  0  0  0  0  0  0
   14.6705  -23.2681   -3.9766 C   0  0  0  0  0  0  0  0  0  0  0  0
   14.0991  -22.6480   -3.0490 O   0  0  0  0  0  0  0  0  0  0  0  0
   16.1695  -23.3239   -4.0382 C   0  0  0  0  0  0  0  0  0  0  0  0
   16.5709  -24.1087   -5.2364 C   0  0  0  0  0  0  0  0  0  0  0  0
   18.0694  -24.3091   -5.3166 C   0  0  2  0  0  0  0  0  0  0  0  0
   18.5267  -23.4691   -6.4480 N   0  0  0  0  0  0  0  0  0  0  0  0
   18.3952  -25.7255   -5.5715 C   0  0  0  0  0  0  0  0  0  0  0  0
   18.1290  -26.2062   -6.7017 O   0  0  0  0  0  0  0  0  0  0  0  0
   18.9795  -26.5912   -4.6668 O   0  0  0  0  0  0  0  0  0  0  0  0
  2  1  1  6
  3  2  1  0
  4  3  1  0
  4  5  2  0
  6  5  1  0
  7  6  1  0
  8  7  2  0
  9 10  2  0
  9  8  1  0
 10 11  1  0
 11 12  2  0
 12  7  1  0
 12  4  1  0
 13 15  1  0
 13  2  1  0
 14 13  2  0
 16 17  1  6
 16 15  1  0
 18 17  1  0
 18 19  1  0
 19 23  1  0
 20 19  2  0
 21 16  1  0
 22 21  2  0
 24 25  1  0
 25 26  2  0
 27 25  1  0
 27 28  1  0
 29 28  1  6
 29 30  1  0
 30 21  1  0
 31 33  1  0
 31 29  1  0
 32 31  2  0
M  END
$$$$
