WEQ.pdb
     RDKit          3D

 33 34  0  0  1  0  0  0  0  0999 V2000
   27.1872  -19.2682  -10.8158 N   0  0  0  0  0  0  0  0  0  0  0  0
   26.7851  -20.6464  -11.0775 C   0  0  1  0  0  0  0  0  0  0  0  0
   26.0386  -21.1018   -9.8459 C   0  0  0  0  0  0  0  0  0  0  0  0
   26.6316  -20.5581   -8.6078 C   0  0  0  0  0  0  0  0  0  0  0  0
   25.9697  -19.8723   -7.6162 C   0  0  0  0  0  0  0  0  0  0  0  0
   26.8303  -19.5317   -6.6404 N   0  0  0  0  0  0  0  0  0  0  0  0
   28.0290  -20.0016   -7.0168 C   0  0  0  0  0  0  0  0  0  0  0  0
   29.2449  -19.9328   -6.3973 C   0  0  0  0  0  0  0  0  0  0  0  0
   30.3852  -20.4885   -6.9566 C   0  0  0  0  0  0  0  0  0  0  0  0
   30.2769  -21.1272   -8.1747 C   0  0  0  0  0  0  0  0  0  0  0  0
   29.0695  -21.2112   -8.8186 C   0  0  0  0  0  0  0  0  0  0  0  0
   27.9473  -20.6425   -8.2280 C   0  0  0  0  0  0  0  0  0  0  0  0
   25.7742  -20.6798  -12.1933 C   0  0  0  0  0  0  0  0  0  0  0  0
   24.7438  -19.9694  -12.1760 O   0  0  0  0  0  0  0  0  0  0  0  0
   25.9788  -21.5334  -13.3034 N   0  0  0  0  0  0  0  0  0  0  0  0
   25.1606  -21.3066  -14.5092 C   0  0  1  0  0  0  0  0  0  0  0  0
   26.0167  -21.5398  -15.7018 C   0  0  0  0  0  0  0  0  0  0  0  0
   25.4144  -21.3130  -17.0305 C   0  0  0  0  0  0  0  0  0  0  0  0
   26.4509  -21.5425  -18.1153 C   0  0  0  0  0  0  0  0  0  0  0  0
   27.4053  -20.7811  -18.2820 O   0  0  0  0  0  0  0  0  0  0  0  0
   24.0790  -22.3042  -14.4278 C   0  0  0  0  0  0  0  0  0  0  0  0
   24.1290  -23.2822  -13.5992 O   0  0  0  0  0  0  0  0  0  0  0  0
   26.2992  -22.6475  -18.9312 O   0  0  0  0  0  0  0  0  0  0  0  0
   20.8463  -19.2115  -12.2871 N   0  0  0  0  0  0  0  0  0  0  0  0
   19.9427  -20.2824  -12.0515 C   0  0  0  0  0  0  0  0  0  0  0  0
   18.9647  -20.1653  -11.2760 O   0  0  0  0  0  0  0  0  0  0  0  0
   20.1910  -21.5795  -12.7653 C   0  0  0  0  0  0  0  0  0  0  0  0
   21.4908  -21.4901  -13.4832 C   0  0  0  0  0  0  0  0  0  0  0  0
   21.5971  -22.4989  -14.6071 C   0  0  2  0  0  0  0  0  0  0  0  0
   22.9162  -22.2599  -15.2376 N   0  0  0  0  0  0  0  0  0  0  0  0
   20.5186  -22.2986  -15.5940 C   0  0  0  0  0  0  0  0  0  0  0  0
   19.5242  -23.0661  -15.5571 O   0  0  0  0  0  0  0  0  0  0  0  0
   20.4969  -21.3250  -16.5744 O   0  0  0  0  0  0  0  0  0  0  0  0
  2  1  1  1
  3  2  1  0
  4  3  1  0
  4  5  2  0
  6  5  1  0
  7  6  1  0
  8  7  2  0
  9 10  2  0
  9  8  1  0
 10 11  1  0
 11 12  2  0
 12  7  1  0
 12  4  1  0
 13 15  1  0
 13  2  1  0
 14 13  2  0
 16 17  1  6
 16 15  1  0
 18 17  1  0
 18 19  1  0
 19 23  1  0
 20 19  2  0
 21 16  1  0
 22 21  2  0
 24 25  1  0
 25 26  2  0
 27 25  1  0
 27 28  1  0
 29 28  1  1
 29 30  1  0
 30 21  1  0
 31 33  1  0
 31 29  1  0
 32 31  2  0
M  END
$$$$
