WEQ.pdb
     RDKit          3D

 33 34  0  0  1  0  0  0  0  0999 V2000
   27.3842  -20.7771  -14.3787 N   0  0  0  0  0  0  0  0  0  0  0  0
   26.1307  -20.0305  -14.4078 C   0  0  1  0  0  0  0  0  0  0  0  0
   25.8625  -19.7264  -15.8628 C   0  0  0  0  0  0  0  0  0  0  0  0
   26.8343  -18.7610  -16.4138 C   0  0  0  0  0  0  0  0  0  0  0  0
   27.7797  -19.0129  -17.3804 C   0  0  0  0  0  0  0  0  0  0  0  0
   28.4865  -17.8970  -17.6334 N   0  0  0  0  0  0  0  0  0  0  0  0
   27.9875  -16.9467  -16.8288 C   0  0  0  0  0  0  0  0  0  0  0  0
   28.3378  -15.6344  -16.6800 C   0  0  0  0  0  0  0  0  0  0  0  0
   27.6918  -14.8007  -15.7803 C   0  0  0  0  0  0  0  0  0  0  0  0
   26.6667  -15.3223  -15.0184 C   0  0  0  0  0  0  0  0  0  0  0  0
   26.2942  -16.6354  -15.1471 C   0  0  0  0  0  0  0  0  0  0  0  0
   26.9643  -17.4419  -16.0593 C   0  0  0  0  0  0  0  0  0  0  0  0
   24.9970  -20.9194  -13.9690 C   0  0  0  0  0  0  0  0  0  0  0  0
   25.1435  -22.1527  -13.8133 O   0  0  0  0  0  0  0  0  0  0  0  0
   23.7206  -20.3613  -13.7199 N   0  0  0  0  0  0  0  0  0  0  0  0
   22.6642  -21.2543  -13.2084 C   0  0  1  0  0  0  0  0  0  0  0  0
   21.8860  -20.5123  -12.1820 C   0  0  0  0  0  0  0  0  0  0  0  0
   21.1516  -19.3086  -12.6190 C   0  0  0  0  0  0  0  0  0  0  0  0
   20.3493  -18.7421  -11.4617 C   0  0  0  0  0  0  0  0  0  0  0  0
   20.8734  -18.4315  -10.3906 O   0  0  0  0  0  0  0  0  0  0  0  0
   21.8311  -21.5691  -14.3825 C   0  0  0  0  0  0  0  0  0  0  0  0
   21.8684  -20.8501  -15.4442 O   0  0  0  0  0  0  0  0  0  0  0  0
   18.9884  -18.5781  -11.6372 O   0  0  0  0  0  0  0  0  0  0  0  0
   24.6823  -25.9057  -15.9252 N   0  0  0  0  0  0  0  0  0  0  0  0
   23.3112  -26.2478  -15.7776 C   0  0  0  0  0  0  0  0  0  0  0  0
   22.8406  -27.3132  -16.2414 O   0  0  0  0  0  0  0  0  0  0  0  0
   22.4240  -25.2869  -15.0405 C   0  0  0  0  0  0  0  0  0  0  0  0
   22.2244  -24.0769  -15.8824 C   0  0  0  0  0  0  0  0  0  0  0  0
   20.8556  -23.4602  -15.6870 C   0  0  2  0  0  0  0  0  0  0  0  0
   20.9445  -22.6742  -14.4345 N   0  0  0  0  0  0  0  0  0  0  0  0
   19.8237  -24.5070  -15.5575 C   0  0  0  0  0  0  0  0  0  0  0  0
   19.3661  -24.7574  -14.4142 O   0  0  0  0  0  0  0  0  0  0  0  0
   19.3001  -25.2524  -16.5966 O   0  0  0  0  0  0  0  0  0  0  0  0
  2  1  1  6
  3  2  1  0
  4  3  1  0
  4  5  2  0
  6  5  1  0
  7  6  1  0
  8  7  2  0
  9 10  2  0
  9  8  1  0
 10 11  1  0
 11 12  2  0
 12  7  1  0
 12  4  1  0
 13 15  1  0
 13  2  1  0
 14 13  2  0
 16 17  1  1
 16 15  1  0
 18 17  1  0
 18 19  1  0
 19 23  1  0
 20 19  2  0
 21 16  1  0
 22 21  2  0
 24 25  1  0
 25 26  2  0
 27 25  1  0
 27 28  1  0
 29 28  1  1
 29 30  1  0
 30 21  1  0
 31 33  1  0
 31 29  1  0
 32 31  2  0
M  END
$$$$
