WEQ.pdb
     RDKit          3D

 33 34  0  0  1  0  0  0  0  0999 V2000
   26.5505  -20.1648  -11.7881 N   0  0  0  0  0  0  0  0  0  0  0  0
   25.4816  -21.1245  -11.5314 C   0  0  1  0  0  0  0  0  0  0  0  0
   25.7495  -21.6856  -10.1548 C   0  0  0  0  0  0  0  0  0  0  0  0
   27.1176  -21.3810   -9.6906 C   0  0  0  0  0  0  0  0  0  0  0  0
   28.2915  -21.7790  -10.2865 C   0  0  0  0  0  0  0  0  0  0  0  0
   29.3421  -21.3157   -9.5863 N   0  0  0  0  0  0  0  0  0  0  0  0
   28.8308  -20.6288   -8.5537 C   0  0  0  0  0  0  0  0  0  0  0  0
   29.4518  -19.9565   -7.5391 C   0  0  0  0  0  0  0  0  0  0  0  0
   28.7369  -19.2989   -6.5500 C   0  0  0  0  0  0  0  0  0  0  0  0
   27.3586  -19.3311   -6.6020 C   0  0  0  0  0  0  0  0  0  0  0  0
   26.7093  -19.9978   -7.6086 C   0  0  0  0  0  0  0  0  0  0  0  0
   27.4586  -20.6460   -8.5833 C   0  0  0  0  0  0  0  0  0  0  0  0
   24.1641  -20.4033  -11.4202 C   0  0  0  0  0  0  0  0  0  0  0  0
   24.0231  -19.3869  -10.7033 O   0  0  0  0  0  0  0  0  0  0  0  0
   23.0409  -20.8738  -12.1410 N   0  0  0  0  0  0  0  0  0  0  0  0
   22.4956  -20.0144  -13.2083 C   0  0  1  0  0  0  0  0  0  0  0  0
   23.5513  -19.8262  -14.2376 C   0  0  0  0  0  0  0  0  0  0  0  0
   23.2240  -18.9865  -15.4069 C   0  0  0  0  0  0  0  0  0  0  0  0
   23.9658  -19.4910  -16.6313 C   0  0  0  0  0  0  0  0  0  0  0  0
   23.3945  -20.0927  -17.5424 O   0  0  0  0  0  0  0  0  0  0  0  0
   21.3501  -20.7650  -13.7526 C   0  0  0  0  0  0  0  0  0  0  0  0
   20.6143  -20.2829  -14.6862 O   0  0  0  0  0  0  0  0  0  0  0  0
   25.3258  -19.2570  -16.7055 O   0  0  0  0  0  0  0  0  0  0  0  0
   20.7853  -26.5793  -14.9826 N   0  0  0  0  0  0  0  0  0  0  0  0
   20.8782  -26.3216  -13.5884 C   0  0  0  0  0  0  0  0  0  0  0  0
   21.2499  -27.2007  -12.7757 O   0  0  0  0  0  0  0  0  0  0  0  0
   20.5144  -24.9483  -13.1033 C   0  0  0  0  0  0  0  0  0  0  0  0
   20.2015  -24.0922  -14.2789 C   0  0  0  0  0  0  0  0  0  0  0  0
   19.7743  -22.6967  -13.8761 C   0  0  2  0  0  0  0  0  0  0  0  0
   20.9811  -22.0575  -13.3017 N   0  0  0  0  0  0  0  0  0  0  0  0
   18.6986  -22.7494  -12.8674 C   0  0  0  0  0  0  0  0  0  0  0  0
   17.5698  -23.1757  -13.2187 O   0  0  0  0  0  0  0  0  0  0  0  0
   18.8179  -22.3684  -11.5444 O   0  0  0  0  0  0  0  0  0  0  0  0
  2  1  1  1
  3  2  1  0
  4  3  1  0
  4  5  2  0
  6  5  1  0
  7  6  1  0
  8  7  2  0
  9 10  2  0
  9  8  1  0
 10 11  1  0
 11 12  2  0
 12  7  1  0
 12  4  1  0
 13 15  1  0
 13  2  1  0
 14 13  2  0
 16 17  1  6
 16 15  1  0
 18 17  1  0
 18 19  1  0
 19 23  1  0
 20 19  2  0
 21 16  1  0
 22 21  2  0
 24 25  1  0
 25 26  2  0
 27 25  1  0
 27 28  1  0
 29 28  1  1
 29 30  1  0
 30 21  1  0
 31 33  1  0
 31 29  1  0
 32 31  2  0
M  END
$$$$
