WEQ.pdb
     RDKit          3D

 33 34  0  0  1  0  0  0  0  0999 V2000
   26.3373  -20.6378  -12.4923 N   0  0  0  0  0  0  0  0  0  0  0  0
   25.4362  -20.9978  -11.4024 C   0  0  1  0  0  0  0  0  0  0  0  0
   25.8811  -20.1841  -10.2101 C   0  0  0  0  0  0  0  0  0  0  0  0
   27.2126  -20.5979   -9.7246 C   0  0  0  0  0  0  0  0  0  0  0  0
   28.2269  -21.1395  -10.4793 C   0  0  0  0  0  0  0  0  0  0  0  0
   29.2943  -21.3916   -9.7009 N   0  0  0  0  0  0  0  0  0  0  0  0
   28.9527  -21.0100   -8.4612 C   0  0  0  0  0  0  0  0  0  0  0  0
   29.6611  -21.0463   -7.2933 C   0  0  0  0  0  0  0  0  0  0  0  0
   29.1242  -20.5991   -6.0960 C   0  0  0  0  0  0  0  0  0  0  0  0
   27.8361  -20.1050   -6.0958 C   0  0  0  0  0  0  0  0  0  0  0  0
   27.1024  -20.0568   -7.2528 C   0  0  0  0  0  0  0  0  0  0  0  0
   27.6730  -20.5138   -8.4348 C   0  0  0  0  0  0  0  0  0  0  0  0
   24.0420  -20.5213  -11.7143 C   0  0  0  0  0  0  0  0  0  0  0  0
   23.7618  -19.3047  -11.8046 O   0  0  0  0  0  0  0  0  0  0  0  0
   23.0047  -21.4627  -11.9153 N   0  0  0  0  0  0  0  0  0  0  0  0
   21.6539  -20.9495  -12.2104 C   0  0  1  0  0  0  0  0  0  0  0  0
   21.6703  -20.3553  -13.5728 C   0  0  0  0  0  0  0  0  0  0  0  0
   22.4548  -21.0505  -14.6123 C   0  0  0  0  0  0  0  0  0  0  0  0
   22.7814  -20.0920  -15.7430 C   0  0  0  0  0  0  0  0  0  0  0  0
   21.9255  -19.7001  -16.5382 O   0  0  0  0  0  0  0  0  0  0  0  0
   20.7776  -22.1332  -12.1571 C   0  0  0  0  0  0  0  0  0  0  0  0
   21.0644  -23.2098  -12.7928 O   0  0  0  0  0  0  0  0  0  0  0  0
   24.0876  -19.6577  -15.8658 O   0  0  0  0  0  0  0  0  0  0  0  0
   17.2019  -23.7327   -7.4488 N   0  0  0  0  0  0  0  0  0  0  0  0
   18.4871  -24.3278   -7.5624 C   0  0  0  0  0  0  0  0  0  0  0  0
   19.0562  -24.8669   -6.5841 O   0  0  0  0  0  0  0  0  0  0  0  0
   19.1590  -24.2951   -8.9045 C   0  0  0  0  0  0  0  0  0  0  0  0
   18.3345  -23.4762   -9.8331 C   0  0  0  0  0  0  0  0  0  0  0  0
   18.8841  -23.4788  -11.2439 C   0  0  2  0  0  0  0  0  0  0  0  0
   19.5748  -22.1785  -11.4081 N   0  0  0  0  0  0  0  0  0  0  0  0
   17.7936  -23.6028  -12.2302 C   0  0  0  0  0  0  0  0  0  0  0  0
   17.3463  -22.5556  -12.7617 O   0  0  0  0  0  0  0  0  0  0  0  0
   17.2066  -24.7865  -12.6349 O   0  0  0  0  0  0  0  0  0  0  0  0
  2  1  1  6
  3  2  1  0
  4  3  1  0
  4  5  2  0
  6  5  1  0
  7  6  1  0
  8  7  2  0
  9 10  2  0
  9  8  1  0
 10 11  1  0
 11 12  2  0
 12  7  1  0
 12  4  1  0
 13 15  1  0
 13  2  1  0
 14 13  2  0
 16 17  1  6
 16 15  1  0
 18 17  1  0
 18 19  1  0
 19 23  1  0
 20 19  2  0
 21 16  1  0
 22 21  2  0
 24 25  1  0
 25 26  2  0
 27 25  1  0
 27 28  1  0
 29 28  1  1
 29 30  1  0
 30 21  1  0
 31 33  1  0
 31 29  1  0
 32 31  2  0
M  END
$$$$
