WEQ.pdb
     RDKit          3D

 33 34  0  0  1  0  0  0  0  0999 V2000
   24.2669  -19.3905  -14.5775 N   0  0  0  0  0  0  0  0  0  0  0  0
   24.0329  -20.8307  -14.5577 C   0  0  1  0  0  0  0  0  0  0  0  0
   25.2164  -21.4336  -13.8384 C   0  0  0  0  0  0  0  0  0  0  0  0
   26.3927  -21.5624  -14.7215 C   0  0  0  0  0  0  0  0  0  0  0  0
   27.3186  -20.5839  -14.9990 C   0  0  0  0  0  0  0  0  0  0  0  0
   28.2515  -21.0603  -15.8425 N   0  0  0  0  0  0  0  0  0  0  0  0
   27.9136  -22.3338  -16.0946 C   0  0  0  0  0  0  0  0  0  0  0  0
   28.5154  -23.2734  -16.8832 C   0  0  0  0  0  0  0  0  0  0  0  0
   28.0042  -24.5551  -17.0166 C   0  0  0  0  0  0  0  0  0  0  0  0
   26.8536  -24.8799  -16.3282 C   0  0  0  0  0  0  0  0  0  0  0  0
   26.2289  -23.9570  -15.5297 C   0  0  0  0  0  0  0  0  0  0  0  0
   26.7700  -22.6816  -15.4198 C   0  0  0  0  0  0  0  0  0  0  0  0
   22.8389  -21.1419  -13.6944 C   0  0  0  0  0  0  0  0  0  0  0  0
   22.5265  -20.4300  -12.7133 O   0  0  0  0  0  0  0  0  0  0  0  0
   22.0336  -22.2685  -13.9859 N   0  0  0  0  0  0  0  0  0  0  0  0
   20.8936  -22.5521  -13.0943 C   0  0  1  0  0  0  0  0  0  0  0  0
   19.9223  -21.4331  -13.2124 C   0  0  0  0  0  0  0  0  0  0  0  0
   19.4781  -21.0538  -14.5682 C   0  0  0  0  0  0  0  0  0  0  0  0
   18.4234  -19.9656  -14.4826 C   0  0  0  0  0  0  0  0  0  0  0  0
   17.9149  -19.4649  -15.4871 O   0  0  0  0  0  0  0  0  0  0  0  0
   20.3188  -23.8109  -13.6009 C   0  0  0  0  0  0  0  0  0  0  0  0
   20.2561  -24.0624  -14.8572 O   0  0  0  0  0  0  0  0  0  0  0  0
   18.0360  -19.5378  -13.2269 O   0  0  0  0  0  0  0  0  0  0  0  0
   20.3768  -29.1683  -10.7520 N   0  0  0  0  0  0  0  0  0  0  0  0
   19.7214  -28.0674  -10.1376 C   0  0  0  0  0  0  0  0  0  0  0  0
   19.4844  -28.0404   -8.9070 O   0  0  0  0  0  0  0  0  0  0  0  0
   19.3125  -26.9177  -11.0121 C   0  0  0  0  0  0  0  0  0  0  0  0
   19.7649  -27.1891  -12.4029 C   0  0  0  0  0  0  0  0  0  0  0  0
   19.3476  -26.0981  -13.3662 C   0  0  2  0  0  0  0  0  0  0  0  0
   19.8057  -24.8278  -12.7569 N   0  0  0  0  0  0  0  0  0  0  0  0
   17.8817  -26.0811  -13.5345 C   0  0  0  0  0  0  0  0  0  0  0  0
   17.2390  -25.1018  -13.0795 O   0  0  0  0  0  0  0  0  0  0  0  0
   17.1331  -27.0597  -14.1601 O   0  0  0  0  0  0  0  0  0  0  0  0
  2  1  1  1
  3  2  1  0
  4  3  1  0
  4  5  2  0
  6  5  1  0
  7  6  1  0
  8  7  2  0
  9 10  2  0
  9  8  1  0
 10 11  1  0
 11 12  2  0
 12  7  1  0
 12  4  1  0
 13 15  1  0
 13  2  1  0
 14 13  2  0
 16 17  1  6
 16 15  1  0
 18 17  1  0
 18 19  1  0
 19 23  1  0
 20 19  2  0
 21 16  1  0
 22 21  2  0
 24 25  1  0
 25 26  2  0
 27 25  1  0
 27 28  1  0
 29 28  1  1
 29 30  1  0
 30 21  1  0
 31 33  1  0
 31 29  1  0
 32 31  2  0
M  END
$$$$
