WEQ.pdb
     RDKit          3D

 33 34  0  0  1  0  0  0  0  0999 V2000
   27.3749  -21.7788  -13.8113 N   0  0  0  0  0  0  0  0  0  0  0  0
   26.2896  -21.3970  -12.9135 C   0  0  1  0  0  0  0  0  0  0  0  0
   26.7596  -20.1509  -12.2008 C   0  0  0  0  0  0  0  0  0  0  0  0
   27.7754  -20.4524  -11.1725 C   0  0  0  0  0  0  0  0  0  0  0  0
   29.1278  -20.5973  -11.3761 C   0  0  0  0  0  0  0  0  0  0  0  0
   29.7415  -20.8671  -10.2101 N   0  0  0  0  0  0  0  0  0  0  0  0
   28.7785  -20.8917   -9.2766 C   0  0  0  0  0  0  0  0  0  0  0  0
   28.8506  -21.1199   -7.9313 C   0  0  0  0  0  0  0  0  0  0  0  0
   27.7241  -21.1033   -7.1235 C   0  0  0  0  0  0  0  0  0  0  0  0
   26.4998  -20.8478   -7.7060 C   0  0  0  0  0  0  0  0  0  0  0  0
   26.3981  -20.6154   -9.0533 C   0  0  0  0  0  0  0  0  0  0  0  0
   27.5488  -20.6398   -9.8323 C   0  0  0  0  0  0  0  0  0  0  0  0
   25.0893  -20.9700  -13.7166 C   0  0  0  0  0  0  0  0  0  0  0  0
   25.1912  -20.2196  -14.7133 O   0  0  0  0  0  0  0  0  0  0  0  0
   23.7994  -21.4212  -13.3490 N   0  0  0  0  0  0  0  0  0  0  0  0
   22.6668  -21.0616  -14.2225 C   0  0  1  0  0  0  0  0  0  0  0  0
   22.8251  -21.7871  -15.5102 C   0  0  0  0  0  0  0  0  0  0  0  0
   23.2396  -23.2028  -15.4507 C   0  0  0  0  0  0  0  0  0  0  0  0
   22.5495  -23.9915  -16.5486 C   0  0  0  0  0  0  0  0  0  0  0  0
   22.9577  -23.9920  -17.7113 O   0  0  0  0  0  0  0  0  0  0  0  0
   21.4679  -21.5194  -13.4981 C   0  0  0  0  0  0  0  0  0  0  0  0
   21.5031  -22.5363  -12.7171 O   0  0  0  0  0  0  0  0  0  0  0  0
   21.4286  -24.7258  -16.2106 O   0  0  0  0  0  0  0  0  0  0  0  0
   16.3262  -18.9467  -12.4076 N   0  0  0  0  0  0  0  0  0  0  0  0
   16.2311  -19.9095  -11.3671 C   0  0  0  0  0  0  0  0  0  0  0  0
   15.1840  -20.0559  -10.6937 O   0  0  0  0  0  0  0  0  0  0  0  0
   17.4350  -20.7620  -11.0884 C   0  0  0  0  0  0  0  0  0  0  0  0
   18.5474  -20.3241  -11.9736 C   0  0  0  0  0  0  0  0  0  0  0  0
   19.0579  -21.4461  -12.8526 C   0  0  2  0  0  0  0  0  0  0  0  0
   20.2061  -20.8807  -13.5988 N   0  0  0  0  0  0  0  0  0  0  0  0
   18.0115  -21.8921  -13.7925 C   0  0  0  0  0  0  0  0  0  0  0  0
   17.1726  -22.7392  -13.3952 O   0  0  0  0  0  0  0  0  0  0  0  0
   17.8620  -21.4557  -15.0951 O   0  0  0  0  0  0  0  0  0  0  0  0
  2  1  1  6
  3  2  1  0
  4  3  1  0
  4  5  2  0
  6  5  1  0
  7  6  1  0
  8  7  2  0
  9 10  2  0
  9  8  1  0
 10 11  1  0
 11 12  2  0
 12  7  1  0
 12  4  1  0
 13 15  1  0
 13  2  1  0
 14 13  2  0
 16 17  1  6
 16 15  1  0
 18 17  1  0
 18 19  1  0
 19 23  1  0
 20 19  2  0
 21 16  1  0
 22 21  2  0
 24 25  1  0
 25 26  2  0
 27 25  1  0
 27 28  1  0
 29 28  1  1
 29 30  1  0
 30 21  1  0
 31 33  1  0
 31 29  1  0
 32 31  2  0
M  END
$$$$
