WEQ.pdb
     RDKit          3D

 33 34  0  0  1  0  0  0  0  0999 V2000
   24.8416  -20.3725  -17.2504 N   0  0  0  0  0  0  0  0  0  0  0  0
   24.2604  -19.5958  -16.1603 C   0  0  1  0  0  0  0  0  0  0  0  0
   22.9391  -19.0784  -16.6780 C   0  0  0  0  0  0  0  0  0  0  0  0
   23.1134  -17.9215  -17.5787 C   0  0  0  0  0  0  0  0  0  0  0  0
   24.2924  -17.2688  -17.8536 C   0  0  0  0  0  0  0  0  0  0  0  0
   24.0699  -16.2634  -18.7187 N   0  0  0  0  0  0  0  0  0  0  0  0
   22.7557  -16.2836  -18.9869 C   0  0  0  0  0  0  0  0  0  0  0  0
   22.0022  -15.4839  -19.7991 C   0  0  0  0  0  0  0  0  0  0  0  0
   20.6358  -15.6672  -19.9453 C   0  0  0  0  0  0  0  0  0  0  0  0
   20.0302  -16.6902  -19.2453 C   0  0  0  0  0  0  0  0  0  0  0  0
   20.7618  -17.5079  -18.4233 C   0  0  0  0  0  0  0  0  0  0  0  0
   22.1297  -17.2946  -18.3011 C   0  0  0  0  0  0  0  0  0  0  0  0
   23.9115  -20.5076  -15.0135 C   0  0  0  0  0  0  0  0  0  0  0  0
   23.6242  -21.7132  -15.1888 O   0  0  0  0  0  0  0  0  0  0  0  0
   23.9037  -20.0042  -13.6910 N   0  0  0  0  0  0  0  0  0  0  0  0
   23.5210  -20.9243  -12.6039 C   0  0  1  0  0  0  0  0  0  0  0  0
   24.2423  -20.5122  -11.3712 C   0  0  0  0  0  0  0  0  0  0  0  0
   23.9132  -21.2194  -10.1179 C   0  0  0  0  0  0  0  0  0  0  0  0
   24.8086  -20.7282   -8.9951 C   0  0  0  0  0  0  0  0  0  0  0  0
   25.5916  -19.7885   -9.1443 O   0  0  0  0  0  0  0  0  0  0  0  0
   22.0656  -20.7489  -12.4521 C   0  0  0  0  0  0  0  0  0  0  0  0
   21.4781  -19.6689  -12.8178 O   0  0  0  0  0  0  0  0  0  0  0  0
   24.7265  -21.3706   -7.7743 O   0  0  0  0  0  0  0  0  0  0  0  0
   19.3764  -22.1850  -16.2985 N   0  0  0  0  0  0  0  0  0  0  0  0
   18.1507  -21.9682  -15.6134 C   0  0  0  0  0  0  0  0  0  0  0  0
   17.0564  -21.8950  -16.2206 O   0  0  0  0  0  0  0  0  0  0  0  0
   18.1978  -21.8262  -14.1196 C   0  0  0  0  0  0  0  0  0  0  0  0
   19.6198  -21.8281  -13.6828 C   0  0  0  0  0  0  0  0  0  0  0  0
   19.7607  -21.6682  -12.1839 C   0  0  2  0  0  0  0  0  0  0  0  0
   21.2142  -21.7429  -11.9071 N   0  0  0  0  0  0  0  0  0  0  0  0
   19.0522  -22.7501  -11.4733 C   0  0  0  0  0  0  0  0  0  0  0  0
   17.8318  -22.5971  -11.2156 O   0  0  0  0  0  0  0  0  0  0  0  0
   19.6148  -23.9417  -11.0574 O   0  0  0  0  0  0  0  0  0  0  0  0
  2  1  1  6
  3  2  1  0
  4  3  1  0
  4  5  2  0
  6  5  1  0
  7  6  1  0
  8  7  2  0
  9 10  2  0
  9  8  1  0
 10 11  1  0
 11 12  2  0
 12  7  1  0
 12  4  1  0
 13 15  1  0
 13  2  1  0
 14 13  2  0
 16 17  1  1
 16 15  1  0
 18 17  1  0
 18 19  1  0
 19 23  1  0
 20 19  2  0
 21 16  1  0
 22 21  2  0
 24 25  1  0
 25 26  2  0
 27 25  1  0
 27 28  1  0
 29 28  1  6
 29 30  1  0
 30 21  1  0
 31 33  1  0
 31 29  1  0
 32 31  2  0
M  END
$$$$
