NGN.pdb
     RDKit          3D

 21 20  0  0  1  0  0  0  0  0999 V2000
    8.7410  -19.8888   18.7913 N   0  0  0  0  0  0  0  0  0  0  0  0
    9.8052  -20.3783   19.6170 C   0  0  0  0  0  0  0  0  0  0  0  0
   10.6610  -21.1097   19.0629 O   0  0  0  0  0  0  0  0  0  0  0  0
    9.8411  -20.0075   21.0399 C   0  0  0  0  0  0  0  0  0  0  0  0
    8.6612  -19.2071   21.5278 C   0  0  2  0  0  0  0  0  0  0  0  0
    8.7756  -17.8948   20.8611 N   0  0  0  0  0  0  0  0  0  0  0  0
    8.7707  -19.0207   22.9959 C   0  0  0  0  0  0  0  0  0  0  0  0
    8.1325  -19.7332   23.8005 O   0  0  0  0  0  0  0  0  0  0  0  0
    9.6229  -18.0034   23.5763 N   0  0  0  0  0  0  0  0  0  0  0  0
    9.6213  -17.8283   25.0047 C   0  0  0  0  0  0  0  0  0  0  0  0
   10.4215  -16.7284   25.5127 C   0  0  0  0  0  0  0  0  0  0  0  0
   11.0903  -16.0685   24.6373 O   0  0  0  0  0  0  0  0  0  0  0  0
    8.4663  -14.9056   28.4474 N   0  0  0  0  0  0  0  0  0  0  0  0
    8.7219  -13.9410   27.4513 C   0  0  0  0  0  0  0  0  0  0  0  0
    7.8606  -13.0779   27.1962 O   0  0  0  0  0  0  0  0  0  0  0  0
    9.9950  -13.9608   26.7256 C   0  0  0  0  0  0  0  0  0  0  0  0
   10.9369  -15.0346   27.2253 C   0  0  2  0  0  0  0  0  0  0  0  0
   10.5049  -16.3542   26.8648 N   0  0  0  0  0  0  0  0  0  0  0  0
   11.1778  -14.9007   28.6917 C   0  0  0  0  0  0  0  0  0  0  0  0
   10.8012  -15.8490   29.6276 O   0  0  0  0  0  0  0  0  0  0  0  0
   11.7569  -13.8667   29.1100 O   0  0  0  0  0  0  0  0  0  0  0  0
  1  2  1  0
  2  3  2  0
  4  5  1  0
  4  2  1  0
  5  6  1  6
  7  5  1  0
  7  8  2  0
  9  7  1  0
 10  9  1  0
 10 11  1  0
 11 18  1  0
 12 11  2  0
 14 16  1  0
 14 13  1  0
 15 14  2  0
 17 16  1  1
 17 19  1  0
 18 17  1  0
 19 21  2  0
 19 20  1  0
M  END
$$$$
