NGN.pdb
     RDKit          3D

 21 20  0  0  1  0  0  0  0  0999 V2000
    8.3424  -13.4685   15.7476 N   0  0  0  0  0  0  0  0  0  0  0  0
    7.8136  -14.4941   16.5975 C   0  0  0  0  0  0  0  0  0  0  0  0
    7.7210  -15.6448   16.1059 O   0  0  0  0  0  0  0  0  0  0  0  0
    7.4149  -14.1553   17.9722 C   0  0  0  0  0  0  0  0  0  0  0  0
    8.5430  -13.7726   18.8951 C   0  0  2  0  0  0  0  0  0  0  0  0
    9.3303  -15.0071   19.0841 N   0  0  0  0  0  0  0  0  0  0  0  0
    7.9824  -13.3456   20.2011 C   0  0  0  0  0  0  0  0  0  0  0  0
    7.4435  -12.2282   20.3537 O   0  0  0  0  0  0  0  0  0  0  0  0
    8.0289  -14.2002   21.3696 N   0  0  0  0  0  0  0  0  0  0  0  0
    7.5136  -13.7000   22.6167 C   0  0  0  0  0  0  0  0  0  0  0  0
    7.4867  -14.6441   23.7195 C   0  0  0  0  0  0  0  0  0  0  0  0
    6.9508  -14.2223   24.8077 O   0  0  0  0  0  0  0  0  0  0  0  0
    5.6435  -17.1176   24.0260 N   0  0  0  0  0  0  0  0  0  0  0  0
    6.3985  -18.2670   24.3374 C   0  0  0  0  0  0  0  0  0  0  0  0
    5.8740  -19.3925   24.2371 O   0  0  0  0  0  0  0  0  0  0  0  0
    7.7903  -18.1296   24.7754 C   0  0  0  0  0  0  0  0  0  0  0  0
    8.2315  -16.6858   24.8788 C   0  0  2  0  0  0  0  0  0  0  0  0
    7.9969  -15.9526   23.6683 N   0  0  0  0  0  0  0  0  0  0  0  0
    9.6494  -16.5866   25.3328 C   0  0  0  0  0  0  0  0  0  0  0  0
   10.0563  -16.7650   26.6442 O   0  0  0  0  0  0  0  0  0  0  0  0
   10.5334  -16.3252   24.4786 O   0  0  0  0  0  0  0  0  0  0  0  0
  1  2  1  0
  2  3  2  0
  4  5  1  0
  4  2  1  0
  5  6  1  1
  7  5  1  0
  7  8  2  0
  9  7  1  0
 10  9  1  0
 10 11  1  0
 11 18  1  0
 12 11  2  0
 14 16  1  0
 14 13  1  0
 15 14  2  0
 17 16  1  6
 17 19  1  0
 18 17  1  0
 19 21  2  0
 19 20  1  0
M  END
$$$$
