NGN.pdb
     RDKit          3D

 21 20  0  0  1  0  0  0  0  0999 V2000
    3.8560  -20.4000   20.9907 N   0  0  0  0  0  0  0  0  0  0  0  0
    3.1127  -19.2042   21.2579 C   0  0  0  0  0  0  0  0  0  0  0  0
    1.9031  -19.2032   20.9246 O   0  0  0  0  0  0  0  0  0  0  0  0
    3.7886  -18.0636   21.8949 C   0  0  0  0  0  0  0  0  0  0  0  0
    5.2573  -18.2567   22.1714 C   0  0  2  0  0  0  0  0  0  0  0  0
    5.3304  -19.3665   23.1424 N   0  0  0  0  0  0  0  0  0  0  0  0
    5.8032  -17.0254   22.7943 C   0  0  0  0  0  0  0  0  0  0  0  0
    5.3952  -16.6092   23.9000 O   0  0  0  0  0  0  0  0  0  0  0  0
    6.8383  -16.2393   22.1552 N   0  0  0  0  0  0  0  0  0  0  0  0
    7.2839  -15.0285   22.7927 C   0  0  0  0  0  0  0  0  0  0  0  0
    8.3243  -15.1812   23.7940 C   0  0  0  0  0  0  0  0  0  0  0  0
    9.5318  -15.0662   23.3722 O   0  0  0  0  0  0  0  0  0  0  0  0
    9.6941  -14.3612   29.5920 N   0  0  0  0  0  0  0  0  0  0  0  0
    9.9330  -14.2589   28.2061 C   0  0  0  0  0  0  0  0  0  0  0  0
   11.0880  -14.0349   27.7965 O   0  0  0  0  0  0  0  0  0  0  0  0
    8.8243  -14.4162   27.2608 C   0  0  0  0  0  0  0  0  0  0  0  0
    9.1665  -15.3297   26.1039 C   0  0  2  0  0  0  0  0  0  0  0  0
    8.0952  -15.4396   25.1563 N   0  0  0  0  0  0  0  0  0  0  0  0
    9.6302  -16.6625   26.5885 C   0  0  0  0  0  0  0  0  0  0  0  0
    8.9990  -17.8577   26.2880 O   0  0  0  0  0  0  0  0  0  0  0  0
   10.6551  -16.7110   27.3142 O   0  0  0  0  0  0  0  0  0  0  0  0
  1  2  1  0
  2  3  2  0
  4  5  1  0
  4  2  1  0
  5  6  1  1
  7  5  1  0
  7  8  2  0
  9  7  1  0
 10  9  1  0
 10 11  1  0
 11 18  1  0
 12 11  2  0
 14 16  1  0
 14 13  1  0
 15 14  2  0
 17 16  1  1
 17 19  1  0
 18 17  1  0
 19 21  2  0
 19 20  1  0
M  END
$$$$
