NGN.pdb
     RDKit          3D

 21 20  0  0  1  0  0  0  0  0999 V2000
    6.4259  -12.5574   17.7752 N   0  0  0  0  0  0  0  0  0  0  0  0
    7.2020  -13.7298   18.0529 C   0  0  0  0  0  0  0  0  0  0  0  0
    7.0507  -14.7053   17.2786 O   0  0  0  0  0  0  0  0  0  0  0  0
    8.1164  -13.7315   19.2051 C   0  0  0  0  0  0  0  0  0  0  0  0
    8.3915  -15.0849   19.8081 C   0  0  2  0  0  0  0  0  0  0  0  0
    7.1526  -15.4554   20.5204 N   0  0  0  0  0  0  0  0  0  0  0  0
    9.5013  -14.9675   20.7862 C   0  0  0  0  0  0  0  0  0  0  0  0
   10.6751  -14.7326   20.4265 O   0  0  0  0  0  0  0  0  0  0  0  0
    9.2849  -15.1187   22.2103 N   0  0  0  0  0  0  0  0  0  0  0  0
   10.4069  -14.9840   23.1013 C   0  0  0  0  0  0  0  0  0  0  0  0
   10.7821  -16.1775   23.8383 C   0  0  0  0  0  0  0  0  0  0  0  0
   10.3645  -16.2440   25.0508 O   0  0  0  0  0  0  0  0  0  0  0  0
    9.8892  -20.2952   22.5140 N   0  0  0  0  0  0  0  0  0  0  0  0
   10.5392  -20.0139   23.7332 C   0  0  0  0  0  0  0  0  0  0  0  0
    9.9069  -20.1071   24.8025 O   0  0  0  0  0  0  0  0  0  0  0  0
   11.9494  -19.6152   23.7335 C   0  0  0  0  0  0  0  0  0  0  0  0
   12.1548  -18.1904   24.2002 C   0  0  2  0  0  0  0  0  0  0  0  0
   11.5519  -17.2324   23.3190 N   0  0  0  0  0  0  0  0  0  0  0  0
   13.5994  -17.9049   24.4408 C   0  0  0  0  0  0  0  0  0  0  0  0
   14.3054  -16.8976   23.8053 O   0  0  0  0  0  0  0  0  0  0  0  0
   14.2196  -18.6183   25.2689 O   0  0  0  0  0  0  0  0  0  0  0  0
  1  2  1  0
  2  3  2  0
  4  5  1  0
  4  2  1  0
  5  6  1  1
  7  5  1  0
  7  8  2  0
  9  7  1  0
 10  9  1  0
 10 11  1  0
 11 18  1  0
 12 11  2  0
 14 16  1  0
 14 13  1  0
 15 14  2  0
 17 16  1  6
 17 19  1  0
 18 17  1  0
 19 21  2  0
 19 20  1  0
M  END
$$$$
