NGN.pdb
     RDKit          3D

 21 20  0  0  1  0  0  0  0  0999 V2000
    7.6190  -14.0531   15.9145 N   0  0  0  0  0  0  0  0  0  0  0  0
    7.9429  -12.9503   16.7706 C   0  0  0  0  0  0  0  0  0  0  0  0
    7.1399  -11.9863   16.7803 O   0  0  0  0  0  0  0  0  0  0  0  0
    9.1721  -13.0019   17.5769 C   0  0  0  0  0  0  0  0  0  0  0  0
   10.0294  -14.2235   17.3685 C   0  0  2  0  0  0  0  0  0  0  0  0
    9.1813  -15.3680   17.7567 N   0  0  0  0  0  0  0  0  0  0  0  0
   11.2038  -14.1564   18.2730 C   0  0  0  0  0  0  0  0  0  0  0  0
   11.9736  -13.1717   18.2821 O   0  0  0  0  0  0  0  0  0  0  0  0
   11.5219  -15.2278   19.1943 N   0  0  0  0  0  0  0  0  0  0  0  0
   12.6821  -15.0983   20.0359 C   0  0  0  0  0  0  0  0  0  0  0  0
   12.5416  -15.5903   21.3947 C   0  0  0  0  0  0  0  0  0  0  0  0
   13.6070  -15.5738   22.1116 O   0  0  0  0  0  0  0  0  0  0  0  0
   12.0611  -16.8771   26.2892 N   0  0  0  0  0  0  0  0  0  0  0  0
   10.8638  -16.4925   25.6513 C   0  0  0  0  0  0  0  0  0  0  0  0
    9.7710  -16.7355   26.1976 O   0  0  0  0  0  0  0  0  0  0  0  0
   10.9139  -15.8120   24.3543 C   0  0  0  0  0  0  0  0  0  0  0  0
   11.3549  -16.7249   23.2309 C   0  0  2  0  0  0  0  0  0  0  0  0
   11.3450  -16.0689   21.9552 N   0  0  0  0  0  0  0  0  0  0  0  0
   10.5629  -17.9894   23.2214 C   0  0  0  0  0  0  0  0  0  0  0  0
    9.7660  -18.3954   22.1644 O   0  0  0  0  0  0  0  0  0  0  0  0
   10.6173  -18.7361   24.2308 O   0  0  0  0  0  0  0  0  0  0  0  0
  1  2  1  0
  2  3  2  0
  4  5  1  0
  4  2  1  0
  5  6  1  1
  7  5  1  0
  7  8  2  0
  9  7  1  0
 10  9  1  0
 10 11  1  0
 11 18  1  0
 12 11  2  0
 14 16  1  0
 14 13  1  0
 15 14  2  0
 17 16  1  1
 17 19  1  0
 18 17  1  0
 19 21  2  0
 19 20  1  0
M  END
$$$$
