NGN.pdb
     RDKit          3D

 21 20  0  0  1  0  0  0  0  0999 V2000
    6.6515  -19.0353   21.3313 N   0  0  0  0  0  0  0  0  0  0  0  0
    6.2119  -17.8289   21.9681 C   0  0  0  0  0  0  0  0  0  0  0  0
    5.6893  -17.9459   23.1028 O   0  0  0  0  0  0  0  0  0  0  0  0
    6.3911  -16.5433   21.2763 C   0  0  0  0  0  0  0  0  0  0  0  0
    7.0795  -16.6214   19.9381 C   0  0  2  0  0  0  0  0  0  0  0  0
    7.3026  -18.0606   19.6959 N   0  0  0  0  0  0  0  0  0  0  0  0
    8.3903  -15.9309   20.0219 C   0  0  0  0  0  0  0  0  0  0  0  0
    8.9886  -15.5258   19.0020 O   0  0  0  0  0  0  0  0  0  0  0  0
    9.0475  -15.6886   21.2897 N   0  0  0  0  0  0  0  0  0  0  0  0
   10.4152  -16.1051   21.4536 C   0  0  0  0  0  0  0  0  0  0  0  0
   11.0302  -15.7851   22.7294 C   0  0  0  0  0  0  0  0  0  0  0  0
   12.2717  -16.0914   22.8476 O   0  0  0  0  0  0  0  0  0  0  0  0
    6.1466  -15.5681   24.8564 N   0  0  0  0  0  0  0  0  0  0  0  0
    7.5240  -15.3494   25.0642 C   0  0  0  0  0  0  0  0  0  0  0  0
    7.9130  -14.2471   25.4948 O   0  0  0  0  0  0  0  0  0  0  0  0
    8.4847  -16.4171   24.7730 C   0  0  0  0  0  0  0  0  0  0  0  0
    9.9220  -15.9678   24.9216 C   0  0  2  0  0  0  0  0  0  0  0  0
   10.3675  -15.1781   23.8099 N   0  0  0  0  0  0  0  0  0  0  0  0
   10.8240  -17.1260   25.1885 C   0  0  0  0  0  0  0  0  0  0  0  0
   10.8004  -18.3076   24.4671 O   0  0  0  0  0  0  0  0  0  0  0  0
   11.6582  -17.0305   26.1236 O   0  0  0  0  0  0  0  0  0  0  0  0
  1  2  1  0
  2  3  2  0
  4  5  1  0
  4  2  1  0
  5  6  1  1
  7  5  1  0
  7  8  2  0
  9  7  1  0
 10  9  1  0
 10 11  1  0
 11 18  1  0
 12 11  2  0
 14 16  1  0
 14 13  1  0
 15 14  2  0
 17 16  1  6
 17 19  1  0
 18 17  1  0
 19 21  2  0
 19 20  1  0
M  END
$$$$
