NGN.pdb
     RDKit          3D

 21 20  0  0  1  0  0  0  0  0999 V2000
   11.8652  -19.2391   18.1582 N   0  0  0  0  0  0  0  0  0  0  0  0
   10.7280  -18.3839   17.9863 C   0  0  0  0  0  0  0  0  0  0  0  0
   10.2331  -18.3249   16.8349 O   0  0  0  0  0  0  0  0  0  0  0  0
   10.2093  -17.6352   19.1412 C   0  0  0  0  0  0  0  0  0  0  0  0
   10.9486  -17.8533   20.4361 C   0  0  2  0  0  0  0  0  0  0  0  0
   10.4370  -19.1318   20.9686 N   0  0  0  0  0  0  0  0  0  0  0  0
   10.6115  -16.7602   21.3814 C   0  0  0  0  0  0  0  0  0  0  0  0
   11.0994  -15.6152   21.2664 O   0  0  0  0  0  0  0  0  0  0  0  0
    9.6989  -16.9605   22.4882 N   0  0  0  0  0  0  0  0  0  0  0  0
    9.4139  -15.8532   23.3621 C   0  0  0  0  0  0  0  0  0  0  0  0
   10.1860  -15.7959   24.5905 C   0  0  0  0  0  0  0  0  0  0  0  0
   11.2023  -16.5785   24.6528 O   0  0  0  0  0  0  0  0  0  0  0  0
    8.8113  -13.2847   29.3175 N   0  0  0  0  0  0  0  0  0  0  0  0
    9.2133  -13.3712   27.9688 C   0  0  0  0  0  0  0  0  0  0  0  0
    8.3750  -13.1913   27.0650 O   0  0  0  0  0  0  0  0  0  0  0  0
   10.6098  -13.6712   27.6412 C   0  0  0  0  0  0  0  0  0  0  0  0
   10.7610  -14.9374   26.8265 C   0  0  2  0  0  0  0  0  0  0  0  0
    9.8959  -14.9600   25.6823 N   0  0  0  0  0  0  0  0  0  0  0  0
   10.5992  -16.1503   27.6803 C   0  0  0  0  0  0  0  0  0  0  0  0
   11.4342  -16.4693   28.7377 O   0  0  0  0  0  0  0  0  0  0  0  0
    9.6497  -16.9347   27.4302 O   0  0  0  0  0  0  0  0  0  0  0  0
  1  2  1  0
  2  3  2  0
  4  5  1  0
  4  2  1  0
  5  6  1  1
  7  5  1  0
  7  8  2  0
  9  7  1  0
 10  9  1  0
 10 11  1  0
 11 18  1  0
 12 11  2  0
 14 16  1  0
 14 13  1  0
 15 14  2  0
 17 16  1  1
 17 19  1  0
 18 17  1  0
 19 21  2  0
 19 20  1  0
M  END
$$$$
