NGN.pdb
     RDKit          3D

 21 20  0  0  1  0  0  0  0  0999 V2000
   15.6735  -14.7021   15.4185 N   0  0  0  0  0  0  0  0  0  0  0  0
   15.7807  -15.1455   16.7771 C   0  0  0  0  0  0  0  0  0  0  0  0
   16.9180  -15.0865   17.3038 O   0  0  0  0  0  0  0  0  0  0  0  0
   14.5803  -15.6365   17.4709 C   0  0  0  0  0  0  0  0  0  0  0  0
   13.3944  -14.7071   17.4440 C   0  0  2  0  0  0  0  0  0  0  0  0
   13.9174  -13.3925   17.8660 N   0  0  0  0  0  0  0  0  0  0  0  0
   12.3870  -15.1716   18.4297 C   0  0  0  0  0  0  0  0  0  0  0  0
   11.8008  -16.2686   18.3063 O   0  0  0  0  0  0  0  0  0  0  0  0
   12.0285  -14.3795   19.5881 N   0  0  0  0  0  0  0  0  0  0  0  0
   11.0746  -14.9118   20.5250 C   0  0  0  0  0  0  0  0  0  0  0  0
   11.6121  -15.3567   21.7983 C   0  0  0  0  0  0  0  0  0  0  0  0
   10.7478  -15.6543   22.7003 O   0  0  0  0  0  0  0  0  0  0  0  0
   17.0324  -16.7428   22.5411 N   0  0  0  0  0  0  0  0  0  0  0  0
   15.7797  -16.4004   21.9918 C   0  0  0  0  0  0  0  0  0  0  0  0
   15.6611  -15.3430   21.3440 O   0  0  0  0  0  0  0  0  0  0  0  0
   14.6301  -17.2882   22.1866 C   0  0  0  0  0  0  0  0  0  0  0  0
   13.4617  -16.5951   22.8532 C   0  0  2  0  0  0  0  0  0  0  0  0
   12.9809  -15.4773   22.0934 N   0  0  0  0  0  0  0  0  0  0  0  0
   13.7876  -16.2224   24.2607 C   0  0  0  0  0  0  0  0  0  0  0  0
   14.1248  -17.1360   25.2449 O   0  0  0  0  0  0  0  0  0  0  0  0
   13.7558  -15.0072   24.5796 O   0  0  0  0  0  0  0  0  0  0  0  0
  1  2  1  0
  2  3  2  0
  4  5  1  0
  4  2  1  0
  5  6  1  1
  7  5  1  0
  7  8  2  0
  9  7  1  0
 10  9  1  0
 10 11  1  0
 11 18  1  0
 12 11  2  0
 14 16  1  0
 14 13  1  0
 15 14  2  0
 17 16  1  6
 17 19  1  0
 18 17  1  0
 19 21  2  0
 19 20  1  0
M  END
$$$$
