NGN.pdb
     RDKit          3D

 21 20  0  0  1  0  0  0  0  0999 V2000
    9.9022  -17.2478   14.4393 N   0  0  0  0  0  0  0  0  0  0  0  0
    8.8927  -16.2408   14.5838 C   0  0  0  0  0  0  0  0  0  0  0  0
    8.0875  -16.1057   13.6310 O   0  0  0  0  0  0  0  0  0  0  0  0
    8.8513  -15.4342   15.8131 C   0  0  0  0  0  0  0  0  0  0  0  0
    8.1312  -16.0671   16.9757 C   0  0  2  0  0  0  0  0  0  0  0  0
    6.6976  -16.0068   16.6282 N   0  0  0  0  0  0  0  0  0  0  0  0
    8.3724  -15.2602   18.1976 C   0  0  0  0  0  0  0  0  0  0  0  0
    9.5033  -15.1833   18.7244 O   0  0  0  0  0  0  0  0  0  0  0  0
    7.3109  -14.5182   18.8460 N   0  0  0  0  0  0  0  0  0  0  0  0
    7.5662  -13.9191   20.1294 C   0  0  0  0  0  0  0  0  0  0  0  0
    7.9098  -14.8345   21.2028 C   0  0  0  0  0  0  0  0  0  0  0  0
    7.2306  -15.9232   21.2523 O   0  0  0  0  0  0  0  0  0  0  0  0
   12.0311  -15.4033   21.4989 N   0  0  0  0  0  0  0  0  0  0  0  0
   11.3371  -16.2888   22.3489 C   0  0  0  0  0  0  0  0  0  0  0  0
   11.3544  -17.5111   22.1090 O   0  0  0  0  0  0  0  0  0  0  0  0
   10.6028  -15.7662   23.5045 C   0  0  0  0  0  0  0  0  0  0  0  0
    9.1326  -15.5536   23.2165 C   0  0  2  0  0  0  0  0  0  0  0  0
    8.9116  -14.6067   22.1617 N   0  0  0  0  0  0  0  0  0  0  0  0
    8.3857  -15.1993   24.4586 C   0  0  0  0  0  0  0  0  0  0  0  0
    8.1949  -16.0666   25.5209 O   0  0  0  0  0  0  0  0  0  0  0  0
    7.8969  -14.0454   24.5532 O   0  0  0  0  0  0  0  0  0  0  0  0
  1  2  1  0
  2  3  2  0
  4  5  1  0
  4  2  1  0
  5  6  1  6
  7  5  1  0
  7  8  2  0
  9  7  1  0
 10  9  1  0
 10 11  1  0
 11 18  1  0
 12 11  2  0
 14 16  1  0
 14 13  1  0
 15 14  2  0
 17 16  1  1
 17 19  1  0
 18 17  1  0
 19 21  2  0
 19 20  1  0
M  END
$$$$
