NGN.pdb
     RDKit          3D

 21 20  0  0  1  0  0  0  0  0999 V2000
    8.5894  -12.6562   17.9405 N   0  0  0  0  0  0  0  0  0  0  0  0
    7.6813  -13.7620   18.0200 C   0  0  0  0  0  0  0  0  0  0  0  0
    7.1517  -14.1379   16.9464 O   0  0  0  0  0  0  0  0  0  0  0  0
    7.4210  -14.3873   19.3257 C   0  0  0  0  0  0  0  0  0  0  0  0
    8.1969  -13.8122   20.4824 C   0  0  2  0  0  0  0  0  0  0  0  0
    9.5688  -13.6143   19.9740 N   0  0  0  0  0  0  0  0  0  0  0  0
    8.2239  -14.7981   21.5911 C   0  0  0  0  0  0  0  0  0  0  0  0
    7.2231  -15.0104   22.3092 O   0  0  0  0  0  0  0  0  0  0  0  0
    9.4109  -15.5679   21.9013 N   0  0  0  0  0  0  0  0  0  0  0  0
    9.3788  -16.4731   23.0196 C   0  0  0  0  0  0  0  0  0  0  0  0
    9.8254  -15.9317   24.2907 C   0  0  0  0  0  0  0  0  0  0  0  0
   10.9269  -15.2719   24.2648 O   0  0  0  0  0  0  0  0  0  0  0  0
    9.6076  -12.9120   26.2905 N   0  0  0  0  0  0  0  0  0  0  0  0
    8.7355  -13.4303   27.2698 C   0  0  0  0  0  0  0  0  0  0  0  0
    7.9361  -12.6682   27.8459 O   0  0  0  0  0  0  0  0  0  0  0  0
    8.7759  -14.8572   27.6015 C   0  0  0  0  0  0  0  0  0  0  0  0
    9.7435  -15.6326   26.7343 C   0  0  2  0  0  0  0  0  0  0  0  0
    9.1444  -16.0821   25.5107 N   0  0  0  0  0  0  0  0  0  0  0  0
   10.3752  -16.7489   27.4966 C   0  0  0  0  0  0  0  0  0  0  0  0
   10.2281  -18.0872   27.1735 O   0  0  0  0  0  0  0  0  0  0  0  0
   11.0851  -16.4647   28.4939 O   0  0  0  0  0  0  0  0  0  0  0  0
  1  2  1  0
  2  3  2  0
  4  5  1  0
  4  2  1  0
  5  6  1  6
  7  5  1  0
  7  8  2  0
  9  7  1  0
 10  9  1  0
 10 11  1  0
 11 18  1  0
 12 11  2  0
 14 16  1  0
 14 13  1  0
 15 14  2  0
 17 16  1  1
 17 19  1  0
 18 17  1  0
 19 21  2  0
 19 20  1  0
M  END
$$$$
