NGN.pdb
     RDKit          3D

 21 20  0  0  1  0  0  0  0  0999 V2000
    9.0637  -18.0908   17.1142 N   0  0  0  0  0  0  0  0  0  0  0  0
    9.9444  -17.3640   17.9802 C   0  0  0  0  0  0  0  0  0  0  0  0
   11.0908  -17.1100   17.5380 O   0  0  0  0  0  0  0  0  0  0  0  0
    9.4721  -16.9610   19.3136 C   0  0  0  0  0  0  0  0  0  0  0  0
   10.4302  -17.2291   20.4455 C   0  0  2  0  0  0  0  0  0  0  0  0
   10.4307  -18.6952   20.6193 N   0  0  0  0  0  0  0  0  0  0  0  0
    9.9161  -16.5904   21.6824 C   0  0  0  0  0  0  0  0  0  0  0  0
    9.9446  -15.3515   21.8456 O   0  0  0  0  0  0  0  0  0  0  0  0
    9.3534  -17.3675   22.7674 N   0  0  0  0  0  0  0  0  0  0  0  0
    8.8950  -16.6826   23.9472 C   0  0  0  0  0  0  0  0  0  0  0  0
    9.7896  -16.7144   25.0904 C   0  0  0  0  0  0  0  0  0  0  0  0
   11.0382  -16.5623   24.8317 O   0  0  0  0  0  0  0  0  0  0  0  0
   11.0602  -13.8351   27.1975 N   0  0  0  0  0  0  0  0  0  0  0  0
    9.9896  -14.0475   28.0902 C   0  0  0  0  0  0  0  0  0  0  0  0
    9.4424  -13.0710   28.6369 O   0  0  0  0  0  0  0  0  0  0  0  0
    9.5300  -15.4112   28.3675 C   0  0  0  0  0  0  0  0  0  0  0  0
   10.2143  -16.4467   27.5019 C   0  0  2  0  0  0  0  0  0  0  0  0
    9.3823  -16.8962   26.4231 N   0  0  0  0  0  0  0  0  0  0  0  0
   10.7330  -17.5788   28.3239 C   0  0  0  0  0  0  0  0  0  0  0  0
    9.9539  -18.6344   28.7664 O   0  0  0  0  0  0  0  0  0  0  0  0
   11.9499  -17.5807   28.6378 O   0  0  0  0  0  0  0  0  0  0  0  0
  1  2  1  0
  2  3  2  0
  4  5  1  0
  4  2  1  0
  5  6  1  1
  7  5  1  0
  7  8  2  0
  9  7  1  0
 10  9  1  0
 10 11  1  0
 11 18  1  0
 12 11  2  0
 14 16  1  0
 14 13  1  0
 15 14  2  0
 17 16  1  1
 17 19  1  0
 18 17  1  0
 19 21  2  0
 19 20  1  0
M  END
$$$$
