KVA.pdb
     RDKit          3D

 22 21  0  0  1  0  0  0  0  0999 V2000
   24.0741  -20.0801  -17.5967 N   0  0  0  0  0  0  0  0  0  0  0  0
   24.1610  -19.4305  -16.3209 C   0  0  1  0  0  0  0  0  0  0  0  0
   22.7990  -19.1920  -15.7518 C   0  0  0  0  0  0  0  0  0  0  0  0
   21.7816  -18.7572  -16.7310 C   0  0  0  0  0  0  0  0  0  0  0  0
   21.3612  -17.3368  -16.6580 C   0  0  0  0  0  0  0  0  0  0  0  0
   20.1711  -17.1292  -15.7445 C   0  0  0  0  0  0  0  0  0  0  0  0
   18.9309  -17.2649  -16.4574 N   0  0  0  0  0  0  0  0  0  0  0  0
   25.0015  -20.2318  -15.3698 C   0  0  0  0  0  0  0  0  0  0  0  0
   24.8831  -21.4958  -15.4333 O   0  0  0  0  0  0  0  0  0  0  0  0
   28.6066  -19.9745  -14.9746 C   0  0  0  0  0  0  0  0  0  0  0  0
   28.1118  -19.8830  -13.5436 C   0  0  2  0  0  0  0  0  0  0  0  0
   29.0142  -20.6057  -12.5854 C   0  0  0  0  0  0  0  0  0  0  0  0
   26.6987  -20.4400  -13.5227 C   0  0  2  0  0  0  0  0  0  0  0  0
   25.8922  -19.6431  -14.4353 N   0  0  0  0  0  0  0  0  0  0  0  0
   26.1505  -20.2971  -12.1589 C   0  0  0  0  0  0  0  0  0  0  0  0
   25.8044  -19.1754  -11.6755 O   0  0  0  0  0  0  0  0  0  0  0  0
   26.3062  -20.1898   -9.2778 C   0  0  0  0  0  0  0  0  0  0  0  0
   25.5070  -21.2903   -9.9421 C   0  0  2  0  0  0  0  0  0  0  0  0
   25.9781  -21.4210  -11.3025 N   0  0  0  0  0  0  0  0  0  0  0  0
   24.0655  -20.9425   -9.8853 C   0  0  0  0  0  0  0  0  0  0  0  0
   23.4539  -20.8281   -8.6619 O   0  0  0  0  0  0  0  0  0  0  0  0
   23.4140  -20.7553  -10.9436 O   0  0  0  0  0  0  0  0  0  0  0  0
  2  8  1  0
  2  1  1  6
  3  2  1  0
  4  3  1  0
  5  4  1  0
  6  5  1  0
  7  6  1  0
  8  9  2  0
 11 10  1  6
 11 13  1  0
 12 11  1  0
 13 14  1  6
 14  8  1  0
 15 13  1  0
 16 15  2  0
 18 17  1  6
 18 19  1  0
 18 20  1  0
 19 15  1  0
 20 22  2  0
 20 21  1  0
M  END
$$$$
