KVA.pdb
     RDKit          3D

 22 21  0  0  1  0  0  0  0  0999 V2000
   14.4050  -10.8111  -13.6671 N   0  0  0  0  0  0  0  0  0  0  0  0
   15.3030   -9.7951  -13.1996 C   0  0  1  0  0  0  0  0  0  0  0  0
   15.9355   -9.0753  -14.3475 C   0  0  0  0  0  0  0  0  0  0  0  0
   16.7880   -9.9135  -15.2155 C   0  0  0  0  0  0  0  0  0  0  0  0
   18.1339  -10.2497  -14.6908 C   0  0  0  0  0  0  0  0  0  0  0  0
   18.9681  -11.0281  -15.6867 C   0  0  0  0  0  0  0  0  0  0  0  0
   20.2821  -11.3006  -15.1728 N   0  0  0  0  0  0  0  0  0  0  0  0
   14.5937   -8.8311  -12.2936 C   0  0  0  0  0  0  0  0  0  0  0  0
   13.4339   -8.4586  -12.6566 O   0  0  0  0  0  0  0  0  0  0  0  0
   13.5306   -9.1370   -8.8687 C   0  0  0  0  0  0  0  0  0  0  0  0
   14.4243   -7.9116   -8.8387 C   0  0  2  0  0  0  0  0  0  0  0  0
   13.9440   -6.8847   -7.8542 C   0  0  0  0  0  0  0  0  0  0  0  0
   14.4760   -7.3613  -10.2536 C   0  0  2  0  0  0  0  0  0  0  0  0
   15.1576   -8.3402  -11.0877 N   0  0  0  0  0  0  0  0  0  0  0  0
   15.2637   -6.1121  -10.2505 C   0  0  0  0  0  0  0  0  0  0  0  0
   16.4847   -6.0750   -9.9051 O   0  0  0  0  0  0  0  0  0  0  0  0
   14.7320   -2.6276  -11.4763 C   0  0  0  0  0  0  0  0  0  0  0  0
   15.4275   -3.6258  -10.5757 C   0  0  2  0  0  0  0  0  0  0  0  0
   14.6910   -4.8680  -10.6385 N   0  0  0  0  0  0  0  0  0  0  0  0
   15.4774   -3.0797   -9.1968 C   0  0  0  0  0  0  0  0  0  0  0  0
   16.5215   -2.2636   -8.8390 O   0  0  0  0  0  0  0  0  0  0  0  0
   14.5754   -3.3610   -8.3680 O   0  0  0  0  0  0  0  0  0  0  0  0
  2  8  1  0
  2  1  1  6
  3  2  1  0
  4  3  1  0
  5  4  1  0
  6  5  1  0
  7  6  1  0
  8  9  2  0
 11 10  1  6
 11 13  1  0
 12 11  1  0
 13 14  1  6
 14  8  1  0
 15 13  1  0
 16 15  2  0
 18 17  1  6
 18 19  1  0
 18 20  1  0
 19 15  1  0
 20 22  2  0
 20 21  1  0
M  END
$$$$
