KVA.pdb
     RDKit          3D

 22 21  0  0  1  0  0  0  0  0999 V2000
   24.7224  -22.2362  -11.4511 N   0  0  0  0  0  0  0  0  0  0  0  0
   23.8779  -21.1925  -11.9557 C   0  0  1  0  0  0  0  0  0  0  0  0
   23.2389  -20.4369  -10.8348 C   0  0  0  0  0  0  0  0  0  0  0  0
   22.1155  -21.1330  -10.1743 C   0  0  0  0  0  0  0  0  0  0  0  0
   21.1018  -21.7439  -11.0681 C   0  0  0  0  0  0  0  0  0  0  0  0
   19.9663  -22.3908  -10.3026 C   0  0  0  0  0  0  0  0  0  0  0  0
   18.9493  -22.8857  -11.1889 N   0  0  0  0  0  0  0  0  0  0  0  0
   24.6499  -20.2658  -12.8492 C   0  0  0  0  0  0  0  0  0  0  0  0
   24.1134  -19.1413  -13.1011 O   0  0  0  0  0  0  0  0  0  0  0  0
   28.4256  -19.8146  -12.6283 C   0  0  0  0  0  0  0  0  0  0  0  0
   28.1210  -19.9518  -14.1080 C   0  0  2  0  0  0  0  0  0  0  0  0
   28.9579  -19.0288  -14.9461 C   0  0  0  0  0  0  0  0  0  0  0  0
   26.6354  -19.6892  -14.2848 C   0  0  2  0  0  0  0  0  0  0  0  0
   25.9147  -20.5944  -13.4018 N   0  0  0  0  0  0  0  0  0  0  0  0
   26.2609  -19.9923  -15.6809 C   0  0  0  0  0  0  0  0  0  0  0  0
   26.8217  -20.9103  -16.3550 O   0  0  0  0  0  0  0  0  0  0  0  0
   23.3621  -19.7144  -17.7666 C   0  0  0  0  0  0  0  0  0  0  0  0
   24.8655  -19.5444  -17.7222 C   0  0  2  0  0  0  0  0  0  0  0  0
   25.2398  -19.2642  -16.3544 N   0  0  0  0  0  0  0  0  0  0  0  0
   25.2549  -18.4454  -18.6402 C   0  0  0  0  0  0  0  0  0  0  0  0
   25.1673  -18.6447  -19.9954 O   0  0  0  0  0  0  0  0  0  0  0  0
   25.6593  -17.3471  -18.1822 O   0  0  0  0  0  0  0  0  0  0  0  0
  2  8  1  0
  2  1  1  1
  3  2  1  0
  4  3  1  0
  5  4  1  0
  6  5  1  0
  7  6  1  0
  8  9  2  0
 11 10  1  1
 11 13  1  0
 12 11  1  0
 13 14  1  1
 14  8  1  0
 15 13  1  0
 16 15  2  0
 18 17  1  1
 18 19  1  0
 18 20  1  0
 19 15  1  0
 20 22  2  0
 20 21  1  0
M  END
$$$$
