KVA.pdb
     RDKit          3D

 22 21  0  0  1  0  0  0  0  0999 V2000
   15.4526  -13.8807  -15.1301 N   0  0  0  0  0  0  0  0  0  0  0  0
   15.5800  -12.5039  -15.5115 C   0  0  1  0  0  0  0  0  0  0  0  0
   14.9513  -11.6093  -14.4916 C   0  0  0  0  0  0  0  0  0  0  0  0
   13.4885  -11.7588  -14.3482 C   0  0  0  0  0  0  0  0  0  0  0  0
   12.8450  -10.9532  -13.2821 C   0  0  0  0  0  0  0  0  0  0  0  0
   11.3354  -11.0745  -13.2931 C   0  0  0  0  0  0  0  0  0  0  0  0
   10.7312  -10.2093  -12.3179 N   0  0  0  0  0  0  0  0  0  0  0  0
   17.0207  -12.1393  -15.7225 C   0  0  0  0  0  0  0  0  0  0  0  0
   17.8850  -12.9256  -15.2222 O   0  0  0  0  0  0  0  0  0  0  0  0
   18.8028  -11.7137  -18.8412 C   0  0  0  0  0  0  0  0  0  0  0  0
   19.0451  -10.4002  -18.1222 C   0  0  2  0  0  0  0  0  0  0  0  0
   20.4090   -9.8413  -18.4087 C   0  0  0  0  0  0  0  0  0  0  0  0
   18.8366  -10.6571  -16.6396 C   0  0  2  0  0  0  0  0  0  0  0  0
   17.4331  -10.9852  -16.4374 N   0  0  0  0  0  0  0  0  0  0  0  0
   19.1455   -9.4204  -15.8938 C   0  0  0  0  0  0  0  0  0  0  0  0
   18.4598   -8.3590  -16.0164 O   0  0  0  0  0  0  0  0  0  0  0  0
   21.6983   -8.4753  -13.3038 C   0  0  0  0  0  0  0  0  0  0  0  0
   20.5074   -8.1748  -14.1885 C   0  0  2  0  0  0  0  0  0  0  0  0
   20.2405   -9.3497  -14.9871 N   0  0  0  0  0  0  0  0  0  0  0  0
   20.8161   -6.9913  -15.0288 C   0  0  0  0  0  0  0  0  0  0  0  0
   20.4717   -5.7423  -14.5755 O   0  0  0  0  0  0  0  0  0  0  0  0
   21.3854   -7.1314  -16.1405 O   0  0  0  0  0  0  0  0  0  0  0  0
  2  8  1  0
  2  1  1  1
  3  2  1  0
  4  3  1  0
  5  4  1  0
  6  5  1  0
  7  6  1  0
  8  9  2  0
 11 10  1  6
 11 13  1  0
 12 11  1  0
 13 14  1  6
 14  8  1  0
 15 13  1  0
 16 15  2  0
 18 17  1  1
 18 19  1  0
 18 20  1  0
 19 15  1  0
 20 22  2  0
 20 21  1  0
M  END
$$$$
