KVA.pdb
     RDKit          3D

 22 21  0  0  1  0  0  0  0  0999 V2000
   24.4070  -23.0166  -15.2269 N   0  0  0  0  0  0  0  0  0  0  0  0
   25.4556  -22.0469  -15.3580 C   0  0  1  0  0  0  0  0  0  0  0  0
   26.5755  -22.5841  -16.1905 C   0  0  0  0  0  0  0  0  0  0  0  0
   26.9151  -24.0000  -15.9398 C   0  0  0  0  0  0  0  0  0  0  0  0
   28.0294  -24.5623  -16.7409 C   0  0  0  0  0  0  0  0  0  0  0  0
   28.2000  -26.0528  -16.5332 C   0  0  0  0  0  0  0  0  0  0  0  0
   29.1980  -26.5955  -17.4132 N   0  0  0  0  0  0  0  0  0  0  0  0
   24.9294  -20.7663  -15.9378 C   0  0  0  0  0  0  0  0  0  0  0  0
   23.6890  -20.7350  -16.2139 O   0  0  0  0  0  0  0  0  0  0  0  0
   27.3955  -17.4304  -16.1233 C   0  0  0  0  0  0  0  0  0  0  0  0
   25.9102  -17.2516  -15.8719 C   0  0  2  0  0  0  0  0  0  0  0  0
   25.5788  -17.2621  -14.4074 C   0  0  0  0  0  0  0  0  0  0  0  0
   25.1929  -18.3591  -16.6244 C   0  0  2  0  0  0  0  0  0  0  0  0
   25.7444  -19.6302  -16.1788 N   0  0  0  0  0  0  0  0  0  0  0  0
   25.4631  -18.2063  -18.0682 C   0  0  0  0  0  0  0  0  0  0  0  0
   26.3831  -18.8478  -18.6630 O   0  0  0  0  0  0  0  0  0  0  0  0
   26.3239  -17.6120  -20.6123 C   0  0  0  0  0  0  0  0  0  0  0  0
   24.8920  -17.2254  -20.3101 C   0  0  2  0  0  0  0  0  0  0  0  0
   24.6988  -17.3221  -18.8808 N   0  0  0  0  0  0  0  0  0  0  0  0
   23.9801  -18.1281  -21.0555 C   0  0  0  0  0  0  0  0  0  0  0  0
   24.0225  -18.1358  -22.4274 O   0  0  0  0  0  0  0  0  0  0  0  0
   23.1800  -18.8754  -20.4383 O   0  0  0  0  0  0  0  0  0  0  0  0
  2  8  1  0
  2  1  1  6
  3  2  1  0
  4  3  1  0
  5  4  1  0
  6  5  1  0
  7  6  1  0
  8  9  2  0
 11 10  1  1
 11 13  1  0
 12 11  1  0
 13 14  1  1
 14  8  1  0
 15 13  1  0
 16 15  2  0
 18 17  1  1
 18 19  1  0
 18 20  1  0
 19 15  1  0
 20 22  2  0
 20 21  1  0
M  END
$$$$
