KVA.pdb
     RDKit          3D

 22 21  0  0  1  0  0  0  0  0999 V2000
   24.4286  -33.7980  -11.5363 N   0  0  0  0  0  0  0  0  0  0  0  0
   24.1304  -33.3264  -10.2150 C   0  0  1  0  0  0  0  0  0  0  0  0
   22.6860  -33.5354   -9.8893 C   0  0  0  0  0  0  0  0  0  0  0  0
   21.7521  -32.6267  -10.5858 C   0  0  0  0  0  0  0  0  0  0  0  0
   20.6468  -32.0666   -9.7709 C   0  0  0  0  0  0  0  0  0  0  0  0
   19.7220  -31.1791  -10.5777 C   0  0  0  0  0  0  0  0  0  0  0  0
   18.7980  -30.4753   -9.7316 N   0  0  0  0  0  0  0  0  0  0  0  0
   25.0070  -33.9973   -9.1979 C   0  0  0  0  0  0  0  0  0  0  0  0
   25.3554  -35.1937   -9.4489 O   0  0  0  0  0  0  0  0  0  0  0  0
   28.2130  -32.9858   -8.2112 C   0  0  0  0  0  0  0  0  0  0  0  0
   27.5419  -33.1280   -6.8583 C   0  0  2  0  0  0  0  0  0  0  0  0
   28.4758  -33.6759   -5.8180 C   0  0  0  0  0  0  0  0  0  0  0  0
   26.3255  -34.0166   -7.0539 C   0  0  2  0  0  0  0  0  0  0  0  0
   25.4431  -33.3604   -8.0075 N   0  0  0  0  0  0  0  0  0  0  0  0
   25.6170  -34.1448   -5.7645 C   0  0  0  0  0  0  0  0  0  0  0  0
   25.0825  -33.1545   -5.1769 O   0  0  0  0  0  0  0  0  0  0  0  0
   24.7078  -36.9999   -3.5079 C   0  0  0  0  0  0  0  0  0  0  0  0
   24.8967  -35.5252   -3.7921 C   0  0  2  0  0  0  0  0  0  0  0  0
   25.4930  -35.3991   -5.1028 N   0  0  0  0  0  0  0  0  0  0  0  0
   25.7532  -34.9349   -2.7338 C   0  0  0  0  0  0  0  0  0  0  0  0
   25.1596  -34.3151   -1.6626 O   0  0  0  0  0  0  0  0  0  0  0  0
   27.0054  -35.0019   -2.8178 O   0  0  0  0  0  0  0  0  0  0  0  0
  2  8  1  0
  2  1  1  6
  3  2  1  0
  4  3  1  0
  5  4  1  0
  6  5  1  0
  7  6  1  0
  8  9  2  0
 11 10  1  6
 11 13  1  0
 12 11  1  0
 13 14  1  6
 14  8  1  0
 15 13  1  0
 16 15  2  0
 18 17  1  1
 18 19  1  0
 18 20  1  0
 19 15  1  0
 20 22  2  0
 20 21  1  0
M  END
$$$$
