KVA.pdb
     RDKit          3D

 22 21  0  0  1  0  0  0  0  0999 V2000
   24.2405  -26.9658  -11.6959 N   0  0  0  0  0  0  0  0  0  0  0  0
   23.7060  -26.5104  -12.9465 C   0  0  1  0  0  0  0  0  0  0  0  0
   22.3792  -27.1435  -13.2197 C   0  0  0  0  0  0  0  0  0  0  0  0
   22.4240  -28.5967  -13.4824 C   0  0  0  0  0  0  0  0  0  0  0  0
   22.9561  -29.4477  -12.3905 C   0  0  0  0  0  0  0  0  0  0  0  0
   22.8652  -30.9257  -12.7088 C   0  0  0  0  0  0  0  0  0  0  0  0
   23.4016  -31.7269  -11.6434 N   0  0  0  0  0  0  0  0  0  0  0  0
   23.5949  -25.0137  -12.9665 C   0  0  0  0  0  0  0  0  0  0  0  0
   23.4679  -24.4382  -11.8403 O   0  0  0  0  0  0  0  0  0  0  0  0
   26.1009  -23.0390  -14.6356 C   0  0  0  0  0  0  0  0  0  0  0  0
   24.8167  -22.3939  -15.1213 C   0  0  2  0  0  0  0  0  0  0  0  0
   24.9423  -20.9023  -15.2399 C   0  0  0  0  0  0  0  0  0  0  0  0
   23.7196  -22.7960  -14.1507 C   0  0  2  0  0  0  0  0  0  0  0  0
   23.6260  -24.2485  -14.1610 N   0  0  0  0  0  0  0  0  0  0  0  0
   22.4372  -22.2360  -14.6228 C   0  0  0  0  0  0  0  0  0  0  0  0
   21.7419  -22.7899  -15.5291 O   0  0  0  0  0  0  0  0  0  0  0  0
   19.5394  -21.3869  -14.1300 C   0  0  0  0  0  0  0  0  0  0  0  0
   20.6611  -20.4599  -14.5467 C   0  0  2  0  0  0  0  0  0  0  0  0
   21.9047  -21.0318  -14.0818 N   0  0  0  0  0  0  0  0  0  0  0  0
   20.4178  -19.1157  -13.9671 C   0  0  0  0  0  0  0  0  0  0  0  0
   19.3980  -18.3465  -14.4693 O   0  0  0  0  0  0  0  0  0  0  0  0
   21.1363  -18.6879  -13.0288 O   0  0  0  0  0  0  0  0  0  0  0  0
  2  8  1  0
  2  1  1  1
  3  2  1  0
  4  3  1  0
  5  4  1  0
  6  5  1  0
  7  6  1  0
  8  9  2  0
 11 10  1  1
 11 13  1  0
 12 11  1  0
 13 14  1  6
 14  8  1  0
 15 13  1  0
 16 15  2  0
 18 17  1  1
 18 19  1  0
 18 20  1  0
 19 15  1  0
 20 22  2  0
 20 21  1  0
M  END
$$$$
