KVA.pdb
     RDKit          3D

 22 21  0  0  1  0  0  0  0  0999 V2000
   14.0451  -11.4000  -11.6957 N   0  0  0  0  0  0  0  0  0  0  0  0
   15.1329  -10.4883  -11.4895 C   0  0  1  0  0  0  0  0  0  0  0  0
   16.0500  -10.4789  -12.6705 C   0  0  0  0  0  0  0  0  0  0  0  0
   16.2724  -11.7981  -13.2976 C   0  0  0  0  0  0  0  0  0  0  0  0
   17.1641  -11.8226  -14.4824 C   0  0  0  0  0  0  0  0  0  0  0  0
   17.2795  -13.2032  -15.0944 C   0  0  0  0  0  0  0  0  0  0  0  0
   18.1508  -13.2007  -16.2371 N   0  0  0  0  0  0  0  0  0  0  0  0
   14.6239   -9.1061  -11.2008 C   0  0  0  0  0  0  0  0  0  0  0  0
   13.5757   -8.7452  -11.8227 O   0  0  0  0  0  0  0  0  0  0  0  0
   15.6056   -7.2730   -7.7797 C   0  0  0  0  0  0  0  0  0  0  0  0
   14.3976   -6.7879   -8.5585 C   0  0  2  0  0  0  0  0  0  0  0  0
   13.1594   -7.5701   -8.2275 C   0  0  0  0  0  0  0  0  0  0  0  0
   14.7501   -6.8798  -10.0331 C   0  0  2  0  0  0  0  0  0  0  0  0
   15.2541   -8.2212  -10.2880 N   0  0  0  0  0  0  0  0  0  0  0  0
   15.8220   -5.9078  -10.3281 C   0  0  0  0  0  0  0  0  0  0  0  0
   17.0038   -6.2630  -10.6263 O   0  0  0  0  0  0  0  0  0  0  0  0
   16.8283   -3.9283  -12.2560 C   0  0  0  0  0  0  0  0  0  0  0  0
   16.5354   -3.5490  -10.8202 C   0  0  2  0  0  0  0  0  0  0  0  0
   15.5866   -4.5043  -10.2940 N   0  0  0  0  0  0  0  0  0  0  0  0
   16.0051   -2.1635  -10.7850 C   0  0  0  0  0  0  0  0  0  0  0  0
   16.8864   -1.1120  -10.7453 O   0  0  0  0  0  0  0  0  0  0  0  0
   14.7655   -1.9564  -10.7915 O   0  0  0  0  0  0  0  0  0  0  0  0
  2  8  1  0
  2  1  1  6
  3  2  1  0
  4  3  1  0
  5  4  1  0
  6  5  1  0
  7  6  1  0
  8  9  2  0
 11 10  1  1
 11 13  1  0
 12 11  1  0
 13 14  1  1
 14  8  1  0
 15 13  1  0
 16 15  2  0
 18 17  1  6
 18 19  1  0
 18 20  1  0
 19 15  1  0
 20 22  2  0
 20 21  1  0
M  END
$$$$
