KVA.pdb
     RDKit          3D

 22 21  0  0  1  0  0  0  0  0999 V2000
   21.8436  -13.2312  -19.0629 N   0  0  0  0  0  0  0  0  0  0  0  0
   22.4551  -11.9537  -19.2893 C   0  0  1  0  0  0  0  0  0  0  0  0
   21.5654  -11.0763  -20.1104 C   0  0  0  0  0  0  0  0  0  0  0  0
   21.6235  -11.3180  -21.5668 C   0  0  0  0  0  0  0  0  0  0  0  0
   20.9345  -12.5348  -22.0610 C   0  0  0  0  0  0  0  0  0  0  0  0
   21.0277  -12.6851  -23.5651 C   0  0  0  0  0  0  0  0  0  0  0  0
   22.2146  -13.3979  -23.9499 N   0  0  0  0  0  0  0  0  0  0  0  0
   22.8025  -11.2900  -17.9886 C   0  0  0  0  0  0  0  0  0  0  0  0
   21.9862  -11.4585  -17.0289 O   0  0  0  0  0  0  0  0  0  0  0  0
   25.9816  -11.7970  -16.2874 C   0  0  0  0  0  0  0  0  0  0  0  0
   25.8331  -10.2874  -16.2982 C   0  0  2  0  0  0  0  0  0  0  0  0
   26.3677   -9.6571  -15.0447 C   0  0  0  0  0  0  0  0  0  0  0  0
   24.3585   -9.9848  -16.5017 C   0  0  2  0  0  0  0  0  0  0  0  0
   23.9718  -10.5079  -17.8037 N   0  0  0  0  0  0  0  0  0  0  0  0
   24.1689   -8.5202  -16.5050 C   0  0  0  0  0  0  0  0  0  0  0  0
   24.5370   -7.7855  -17.4727 O   0  0  0  0  0  0  0  0  0  0  0  0
   22.5148   -6.0186  -16.5535 C   0  0  0  0  0  0  0  0  0  0  0  0
   23.3940   -6.4085  -15.3847 C   0  0  2  0  0  0  0  0  0  0  0  0
   23.5565   -7.8447  -15.4118 N   0  0  0  0  0  0  0  0  0  0  0  0
   22.7581   -5.9459  -14.1262 C   0  0  0  0  0  0  0  0  0  0  0  0
   22.8549   -4.6222  -13.7764 O   0  0  0  0  0  0  0  0  0  0  0  0
   22.1393   -6.7559  -13.3909 O   0  0  0  0  0  0  0  0  0  0  0  0
  2  8  1  0
  2  1  1  1
  3  2  1  0
  4  3  1  0
  5  4  1  0
  6  5  1  0
  7  6  1  0
  8  9  2  0
 11 10  1  1
 11 13  1  0
 12 11  1  0
 13 14  1  6
 14  8  1  0
 15 13  1  0
 16 15  2  0
 18 17  1  6
 18 19  1  0
 18 20  1  0
 19 15  1  0
 20 22  2  0
 20 21  1  0
M  END
$$$$
