KVA.pdb
     RDKit          3D

 22 21  0  0  1  0  0  0  0  0999 V2000
   28.0269  -21.8932  -16.1028 N   0  0  0  0  0  0  0  0  0  0  0  0
   27.3422  -20.7695  -15.5320 C   0  0  1  0  0  0  0  0  0  0  0  0
   26.6985  -19.9417  -16.5980 C   0  0  0  0  0  0  0  0  0  0  0  0
   27.6383  -19.2035  -17.4667 C   0  0  0  0  0  0  0  0  0  0  0  0
   29.0823  -19.3920  -17.1857 C   0  0  0  0  0  0  0  0  0  0  0  0
   29.9641  -18.5521  -18.0861 C   0  0  0  0  0  0  0  0  0  0  0  0
   29.7117  -18.8266  -19.4738 N   0  0  0  0  0  0  0  0  0  0  0  0
   26.3265  -21.2195  -14.5227 C   0  0  0  0  0  0  0  0  0  0  0  0
   25.6917  -22.2872  -14.7924 O   0  0  0  0  0  0  0  0  0  0  0  0
   26.7031  -21.1043  -10.6141 C   0  0  0  0  0  0  0  0  0  0  0  0
   25.4093  -20.4174  -11.0080 C   0  0  2  0  0  0  0  0  0  0  0  0
   24.3184  -20.6449  -10.0016 C   0  0  0  0  0  0  0  0  0  0  0  0
   25.0292  -20.9355  -12.3844 C   0  0  2  0  0  0  0  0  0  0  0  0
   26.0622  -20.5152  -13.3196 N   0  0  0  0  0  0  0  0  0  0  0  0
   23.7480  -20.3215  -12.7875 C   0  0  0  0  0  0  0  0  0  0  0  0
   23.6007  -19.0667  -12.9122 O   0  0  0  0  0  0  0  0  0  0  0  0
   20.7542  -21.1567  -14.5876 C   0  0  0  0  0  0  0  0  0  0  0  0
   21.3019  -20.5234  -13.3266 C   0  0  2  0  0  0  0  0  0  0  0  0
   22.5956  -21.1112  -13.0611 N   0  0  0  0  0  0  0  0  0  0  0  0
   20.3476  -20.7575  -12.2146 C   0  0  0  0  0  0  0  0  0  0  0  0
   19.2430  -19.9506  -12.1015 O   0  0  0  0  0  0  0  0  0  0  0  0
   20.5487  -21.6824  -11.3876 O   0  0  0  0  0  0  0  0  0  0  0  0
  2  8  1  0
  2  1  1  6
  3  2  1  0
  4  3  1  0
  5  4  1  0
  6  5  1  0
  7  6  1  0
  8  9  2  0
 11 10  1  1
 11 13  1  0
 12 11  1  0
 13 14  1  6
 14  8  1  0
 15 13  1  0
 16 15  2  0
 18 17  1  6
 18 19  1  0
 18 20  1  0
 19 15  1  0
 20 22  2  0
 20 21  1  0
M  END
$$$$
