KVA.pdb
     RDKit          3D

 22 21  0  0  1  0  0  0  0  0999 V2000
   21.0000  -21.2554  -10.9368 N   0  0  0  0  0  0  0  0  0  0  0  0
   21.4996  -21.2670  -12.2812 C   0  0  1  0  0  0  0  0  0  0  0  0
   20.5081  -20.6607  -13.2221 C   0  0  0  0  0  0  0  0  0  0  0  0
   19.7621  -21.6297  -14.0512 C   0  0  0  0  0  0  0  0  0  0  0  0
   19.0269  -22.6919  -13.3227 C   0  0  0  0  0  0  0  0  0  0  0  0
   18.1972  -23.5613  -14.2445 C   0  0  0  0  0  0  0  0  0  0  0  0
   16.9371  -22.9448  -14.5558 N   0  0  0  0  0  0  0  0  0  0  0  0
   22.8181  -20.5550  -12.3672 C   0  0  0  0  0  0  0  0  0  0  0  0
   22.9129  -19.4564  -11.7349 O   0  0  0  0  0  0  0  0  0  0  0  0
   25.8661  -21.4973  -11.0908 C   0  0  0  0  0  0  0  0  0  0  0  0
   26.2484  -21.2820  -12.5429 C   0  0  2  0  0  0  0  0  0  0  0  0
   27.6361  -20.7269  -12.6865 C   0  0  0  0  0  0  0  0  0  0  0  0
   25.2030  -20.3614  -13.1486 C   0  0  2  0  0  0  0  0  0  0  0  0
   23.9226  -21.0522  -13.1061 N   0  0  0  0  0  0  0  0  0  0  0  0
   25.5550  -20.1040  -14.5596 C   0  0  0  0  0  0  0  0  0  0  0  0
   25.5395  -21.0138  -15.4448 O   0  0  0  0  0  0  0  0  0  0  0  0
   26.2557  -17.0257  -16.5725 C   0  0  0  0  0  0  0  0  0  0  0  0
   26.2359  -18.5288  -16.3953 C   0  0  2  0  0  0  0  0  0  0  0  0
   25.9351  -18.8080  -15.0092 N   0  0  0  0  0  0  0  0  0  0  0  0
   27.5530  -19.0804  -16.7991 C   0  0  0  0  0  0  0  0  0  0  0  0
   27.7357  -19.4917  -18.0958 O   0  0  0  0  0  0  0  0  0  0  0  0
   28.4884  -19.1695  -15.9644 O   0  0  0  0  0  0  0  0  0  0  0  0
  2  8  1  0
  2  1  1  1
  3  2  1  0
  4  3  1  0
  5  4  1  0
  6  5  1  0
  7  6  1  0
  8  9  2  0
 11 10  1  1
 11 13  1  0
 12 11  1  0
 13 14  1  6
 14  8  1  0
 15 13  1  0
 16 15  2  0
 18 17  1  1
 18 19  1  0
 18 20  1  0
 19 15  1  0
 20 22  2  0
 20 21  1  0
M  END
$$$$
