KVA.pdb
     RDKit          3D

 22 21  0  0  1  0  0  0  0  0999 V2000
   26.7955  -20.3608  -18.1433 N   0  0  0  0  0  0  0  0  0  0  0  0
   26.4923  -21.2169  -17.0332 C   0  0  1  0  0  0  0  0  0  0  0  0
   27.7449  -21.7557  -16.4196 C   0  0  0  0  0  0  0  0  0  0  0  0
   28.2618  -22.9922  -17.0415 C   0  0  0  0  0  0  0  0  0  0  0  0
   27.7823  -24.2710  -16.4631 C   0  0  0  0  0  0  0  0  0  0  0  0
   28.4217  -25.4795  -17.1148 C   0  0  0  0  0  0  0  0  0  0  0  0
   28.0438  -26.6965  -16.4507 N   0  0  0  0  0  0  0  0  0  0  0  0
   25.6681  -20.4920  -16.0093 C   0  0  0  0  0  0  0  0  0  0  0  0
   25.9033  -19.2512  -15.8655 O   0  0  0  0  0  0  0  0  0  0  0  0
   22.2908  -19.8383  -16.0221 C   0  0  0  0  0  0  0  0  0  0  0  0
   22.4159  -20.5065  -14.6660 C   0  0  2  0  0  0  0  0  0  0  0  0
   21.4940  -19.8987  -13.6484 C   0  0  0  0  0  0  0  0  0  0  0  0
   23.8723  -20.4002  -14.2479 C   0  0  2  0  0  0  0  0  0  0  0  0
   24.6704  -21.1263  -15.2248 N   0  0  0  0  0  0  0  0  0  0  0  0
   24.0377  -21.0443  -12.9293 C   0  0  0  0  0  0  0  0  0  0  0  0
   23.6561  -22.2325  -12.6964 O   0  0  0  0  0  0  0  0  0  0  0  0
   25.5856  -20.0453   -9.6608 C   0  0  0  0  0  0  0  0  0  0  0  0
   24.6874  -20.9238  -10.5049 C   0  0  2  0  0  0  0  0  0  0  0  0
   24.6403  -20.3610  -11.8355 N   0  0  0  0  0  0  0  0  0  0  0  0
   23.3429  -20.9825   -9.8795 C   0  0  0  0  0  0  0  0  0  0  0  0
   23.1211  -21.8686   -8.8550 O   0  0  0  0  0  0  0  0  0  0  0  0
   22.4201  -20.2307  -10.2831 O   0  0  0  0  0  0  0  0  0  0  0  0
  2  8  1  0
  2  1  1  6
  3  2  1  0
  4  3  1  0
  5  4  1  0
  6  5  1  0
  7  6  1  0
  8  9  2  0
 11 10  1  6
 11 13  1  0
 12 11  1  0
 13 14  1  6
 14  8  1  0
 15 13  1  0
 16 15  2  0
 18 17  1  1
 18 19  1  0
 18 20  1  0
 19 15  1  0
 20 22  2  0
 20 21  1  0
M  END
$$$$
