KVA.pdb
     RDKit          3D

 22 21  0  0  1  0  0  0  0  0999 V2000
   18.0839  -22.4504  -11.3861 N   0  0  0  0  0  0  0  0  0  0  0  0
   19.5016  -22.2814  -11.2498 C   0  0  1  0  0  0  0  0  0  0  0  0
   20.1212  -23.4826  -10.6102 C   0  0  0  0  0  0  0  0  0  0  0  0
   19.2387  -24.2198   -9.6825 C   0  0  0  0  0  0  0  0  0  0  0  0
   19.0707  -23.6365   -8.3293 C   0  0  0  0  0  0  0  0  0  0  0  0
   18.1028  -24.4257   -7.4724 C   0  0  0  0  0  0  0  0  0  0  0  0
   18.7621  -25.0117   -6.3380 N   0  0  0  0  0  0  0  0  0  0  0  0
   20.1364  -22.0011  -12.5807 C   0  0  0  0  0  0  0  0  0  0  0  0
   20.5906  -23.0039  -13.2162 O   0  0  0  0  0  0  0  0  0  0  0  0
   20.3553  -19.5545  -16.6659 C   0  0  0  0  0  0  0  0  0  0  0  0
   19.7064  -20.0031  -15.3702 C   0  0  2  0  0  0  0  0  0  0  0  0
   18.8676  -18.9213  -14.7531 C   0  0  0  0  0  0  0  0  0  0  0  0
   20.8227  -20.4541  -14.4440 C   0  0  2  0  0  0  0  0  0  0  0  0
   20.2418  -20.6979  -13.1319 N   0  0  0  0  0  0  0  0  0  0  0  0
   21.8141  -19.3657  -14.3276 C   0  0  0  0  0  0  0  0  0  0  0  0
   21.5649  -18.2756  -13.7265 O   0  0  0  0  0  0  0  0  0  0  0  0
   25.4636  -19.0238  -14.9834 C   0  0  0  0  0  0  0  0  0  0  0  0
   24.0895  -18.4137  -14.8079 C   0  0  2  0  0  0  0  0  0  0  0  0
   23.1172  -19.4803  -14.8889 N   0  0  0  0  0  0  0  0  0  0  0  0
   23.8777  -17.3890  -15.8601 C   0  0  0  0  0  0  0  0  0  0  0  0
   24.3401  -16.1134  -15.6527 O   0  0  0  0  0  0  0  0  0  0  0  0
   23.2829  -17.6858  -16.9267 O   0  0  0  0  0  0  0  0  0  0  0  0
  2  8  1  0
  2  1  1  6
  3  2  1  0
  4  3  1  0
  5  4  1  0
  6  5  1  0
  7  6  1  0
  8  9  2  0
 11 10  1  6
 11 13  1  0
 12 11  1  0
 13 14  1  1
 14  8  1  0
 15 13  1  0
 16 15  2  0
 18 17  1  6
 18 19  1  0
 18 20  1  0
 19 15  1  0
 20 22  2  0
 20 21  1  0
M  END
$$$$
