PFP.pdb
     RDKit          3D

 26 28  0  0  1  0  0  0  0  0999 V2000
   27.4531  -17.7204  -17.9131 N   0  0  0  0  0  0  0  0  0  0  0  0
   28.3538  -17.0301  -18.7833 C   0  0  0  0  0  0  0  0  0  0  0  0
   29.4209  -17.9986  -19.2176 C   0  0  0  0  0  0  0  0  0  0  0  0
   29.2973  -19.0965  -18.1813 C   0  0  0  0  0  0  0  0  0  0  0  0
   27.8066  -19.1289  -17.9467 C   0  0  1  0  0  0  0  0  0  0  0  0
   27.4921  -19.8217  -16.7034 C   0  0  0  0  0  0  0  0  0  0  0  0
   27.7165  -21.0723  -16.5603 O   0  0  0  0  0  0  0  0  0  0  0  0
   26.9265  -19.1509  -15.5909 N   0  0  0  0  0  0  0  0  0  0  0  0
   26.4347  -19.8511  -14.4398 C   0  0  1  0  0  0  0  0  0  0  0  0
   27.0711  -19.2128  -13.2225 C   0  0  0  0  0  0  0  0  0  0  0  0
   26.6391  -19.8944  -11.9797 C   0  0  0  0  0  0  0  0  0  0  0  0
   25.4922  -19.4926  -11.3413 C   0  0  0  0  0  0  0  0  0  0  0  0
   25.0739  -20.1124  -10.1864 C   0  0  0  0  0  0  0  0  0  0  0  0
   25.8156  -21.1453   -9.6693 C   0  0  0  0  0  0  0  0  0  0  0  0
   26.9784  -21.5698  -10.2959 C   0  0  0  0  0  0  0  0  0  0  0  0
   27.3633  -20.9253  -11.4478 C   0  0  0  0  0  0  0  0  0  0  0  0
   25.0185  -20.0864  -14.3183 C   0  0  0  0  0  0  0  0  0  0  0  0
   24.2840  -19.0475  -14.5850 O   0  0  0  0  0  0  0  0  0  0  0  0
   24.2659  -21.2106  -13.9691 N   0  0  0  0  0  0  0  0  0  0  0  0
   24.7216  -22.4353  -13.3714 C   0  0  0  0  0  0  0  0  0  0  0  0
   24.1726  -23.4473  -14.3680 C   0  0  0  0  0  0  0  0  0  0  0  0
   22.8079  -22.8261  -14.6989 C   0  0  0  0  0  0  0  0  0  0  0  0
   22.8239  -21.4316  -14.1282 C   0  0  1  0  0  0  0  0  0  0  0  0
   22.1088  -21.3017  -12.8510 C   0  0  0  0  0  0  0  0  0  0  0  0
   20.7364  -21.0571  -12.7488 O   0  0  0  0  0  0  0  0  0  0  0  0
   22.7243  -21.4091  -11.7591 O   0  0  0  0  0  0  0  0  0  0  0  0
  1  5  1  0
  1  2  1  0
  2  3  1  0
  4  3  1  0
  5  4  1  0
  6  7  2  0
  5  6  1  1
  8  6  1  0
  9  8  1  0
  9 10  1  1
 11 10  1  0
 11 16  1  0
 12 11  2  0
 13 12  1  0
 13 14  2  0
 14 15  1  0
 15 16  2  0
 17  9  1  0
 18 17  2  0
 19 17  1  0
 19 20  1  0
 21 20  1  0
 22 23  1  0
 22 21  1  0
 23 19  1  0
 23 24  1  1
 24 25  1  0
 26 24  2  0
M  END
$$$$
