PFP.pdb
     RDKit          3D

 26 28  0  0  1  0  0  0  0  0999 V2000
   25.5308  -19.9498  -12.5549 N   0  0  0  0  0  0  0  0  0  0  0  0
   25.8560  -19.8065  -13.9400 C   0  0  0  0  0  0  0  0  0  0  0  0
   26.5311  -21.0718  -14.3965 C   0  0  0  0  0  0  0  0  0  0  0  0
   26.9515  -21.7013  -13.0844 C   0  0  0  0  0  0  0  0  0  0  0  0
   25.7994  -21.3281  -12.1835 C   0  0  1  0  0  0  0  0  0  0  0  0
   26.1687  -21.4753  -10.7811 C   0  0  0  0  0  0  0  0  0  0  0  0
   26.2735  -22.6266  -10.2351 O   0  0  0  0  0  0  0  0  0  0  0  0
   26.4332  -20.3574   -9.9517 N   0  0  0  0  0  0  0  0  0  0  0  0
   26.7016  -20.4874   -8.5488 C   0  0  1  0  0  0  0  0  0  0  0  0
   27.8909  -19.6027   -8.2371 C   0  0  0  0  0  0  0  0  0  0  0  0
   28.2355  -19.6656   -6.7974 C   0  0  0  0  0  0  0  0  0  0  0  0
   29.1013  -20.6285   -6.3417 C   0  0  0  0  0  0  0  0  0  0  0  0
   29.4341  -20.7038   -5.0089 C   0  0  0  0  0  0  0  0  0  0  0  0
   28.8914  -19.8028   -4.1268 C   0  0  0  0  0  0  0  0  0  0  0  0
   28.0140  -18.8203   -4.5627 C   0  0  0  0  0  0  0  0  0  0  0  0
   27.7061  -18.7778   -5.9021 C   0  0  0  0  0  0  0  0  0  0  0  0
   25.6103  -20.3704   -7.6155 C   0  0  0  0  0  0  0  0  0  0  0  0
   24.7617  -19.4300   -7.9077 O   0  0  0  0  0  0  0  0  0  0  0  0
   25.2740  -21.0651   -6.4509 N   0  0  0  0  0  0  0  0  0  0  0  0
   26.0904  -21.9671   -5.6861 C   0  0  0  0  0  0  0  0  0  0  0  0
   25.1831  -23.1892   -5.6443 C   0  0  0  0  0  0  0  0  0  0  0  0
   23.8076  -22.5304   -5.4656 C   0  0  0  0  0  0  0  0  0  0  0  0
   24.0039  -21.0575   -5.7156 C   0  0  1  0  0  0  0  0  0  0  0  0
   24.0887  -20.2507   -4.4904 C   0  0  0  0  0  0  0  0  0  0  0  0
   22.9766  -19.7284   -3.8239 O   0  0  0  0  0  0  0  0  0  0  0  0
   25.2049  -19.9879   -3.9730 O   0  0  0  0  0  0  0  0  0  0  0  0
  1  5  1  0
  1  2  1  0
  2  3  1  0
  4  3  1  0
  5  4  1  0
  6  7  2  0
  5  6  1  1
  8  6  1  0
  9  8  1  0
  9 10  1  1
 11 10  1  0
 11 16  1  0
 12 11  2  0
 13 12  1  0
 13 14  2  0
 14 15  1  0
 15 16  2  0
 17  9  1  0
 18 17  2  0
 19 17  1  0
 19 20  1  0
 21 20  1  0
 22 23  1  0
 22 21  1  0
 23 19  1  0
 23 24  1  1
 24 25  1  0
 26 24  2  0
M  END
$$$$
