PFP.pdb
     RDKit          3D

 26 28  0  0  1  0  0  0  0  0999 V2000
   26.1899  -19.6561  -12.6709 N   0  0  0  0  0  0  0  0  0  0  0  0
   26.6360  -19.5378  -14.0243 C   0  0  0  0  0  0  0  0  0  0  0  0
   27.1960  -20.8679  -14.4514 C   0  0  0  0  0  0  0  0  0  0  0  0
   27.4388  -21.5541  -13.1230 C   0  0  0  0  0  0  0  0  0  0  0  0
   26.2702  -21.0597  -12.3056 C   0  0  1  0  0  0  0  0  0  0  0  0
   26.5103  -21.2618  -10.8822 C   0  0  0  0  0  0  0  0  0  0  0  0
   26.4303  -22.4213  -10.3492 O   0  0  0  0  0  0  0  0  0  0  0  0
   26.8464  -20.1915  -10.0167 N   0  0  0  0  0  0  0  0  0  0  0  0
   26.9847  -20.3633   -8.5995 C   0  0  1  0  0  0  0  0  0  0  0  0
   28.1120  -19.4584   -8.1472 C   0  0  0  0  0  0  0  0  0  0  0  0
   28.3047  -19.5444   -6.6805 C   0  0  0  0  0  0  0  0  0  0  0  0
   27.6108  -18.7021   -5.8479 C   0  0  0  0  0  0  0  0  0  0  0  0
   27.7754  -18.7659   -4.4835 C   0  0  0  0  0  0  0  0  0  0  0  0
   28.6457  -19.6849   -3.9520 C   0  0  0  0  0  0  0  0  0  0  0  0
   29.3587  -20.5472   -4.7725 C   0  0  0  0  0  0  0  0  0  0  0  0
   29.1667  -20.4525   -6.1306 C   0  0  0  0  0  0  0  0  0  0  0  0
   25.8069  -20.3084   -7.7716 C   0  0  0  0  0  0  0  0  0  0  0  0
   24.9487  -19.4004   -8.1306 O   0  0  0  0  0  0  0  0  0  0  0  0
   25.3943  -21.0358   -6.6523 N   0  0  0  0  0  0  0  0  0  0  0  0
   26.1751  -21.9132   -5.8244 C   0  0  0  0  0  0  0  0  0  0  0  0
   25.3242  -23.1745   -5.8832 C   0  0  0  0  0  0  0  0  0  0  0  0
   23.9096  -22.5799   -5.8279 C   0  0  0  0  0  0  0  0  0  0  0  0
   24.0616  -21.0959   -6.0407 C   0  0  1  0  0  0  0  0  0  0  0  0
   23.9940  -20.3059   -4.8035 C   0  0  0  0  0  0  0  0  0  0  0  0
   25.1150  -19.7894   -4.1476 O   0  0  0  0  0  0  0  0  0  0  0  0
   22.8853  -20.0535   -4.2651 O   0  0  0  0  0  0  0  0  0  0  0  0
  1  5  1  0
  1  2  1  0
  2  3  1  0
  4  3  1  0
  5  4  1  0
  6  7  2  0
  5  6  1  1
  8  6  1  0
  9  8  1  0
  9 10  1  1
 11 10  1  0
 11 16  1  0
 12 11  2  0
 13 12  1  0
 13 14  2  0
 14 15  1  0
 15 16  2  0
 17  9  1  0
 18 17  2  0
 19 17  1  0
 19 20  1  0
 21 20  1  0
 22 23  1  0
 22 21  1  0
 23 19  1  0
 23 24  1  1
 24 25  1  0
 26 24  2  0
M  END
$$$$
