PFP.pdb
     RDKit          3D

 26 28  0  0  1  0  0  0  0  0999 V2000
   23.1647  -20.8134  -11.4396 N   0  0  0  0  0  0  0  0  0  0  0  0
   22.0047  -20.3857  -12.1582 C   0  0  0  0  0  0  0  0  0  0  0  0
   22.4405  -19.3975  -13.2064 C   0  0  0  0  0  0  0  0  0  0  0  0
   23.8102  -18.9854  -12.7077 C   0  0  0  0  0  0  0  0  0  0  0  0
   24.3268  -20.2801  -12.1286 C   0  0  1  0  0  0  0  0  0  0  0  0
   25.4526  -20.0361  -11.2354 C   0  0  0  0  0  0  0  0  0  0  0  0
   26.5210  -19.4671  -11.6471 O   0  0  0  0  0  0  0  0  0  0  0  0
   25.4238  -20.4112   -9.8694 N   0  0  0  0  0  0  0  0  0  0  0  0
   26.5687  -20.2882   -9.0142 C   0  0  1  0  0  0  0  0  0  0  0  0
   26.0552  -20.0056   -7.6175 C   0  0  0  0  0  0  0  0  0  0  0  0
   27.1761  -19.7549   -6.6813 C   0  0  0  0  0  0  0  0  0  0  0  0
   27.6684  -20.7798   -5.9121 C   0  0  0  0  0  0  0  0  0  0  0  0
   28.7085  -20.5679   -5.0369 C   0  0  0  0  0  0  0  0  0  0  0  0
   29.2583  -19.3141   -4.9346 C   0  0  0  0  0  0  0  0  0  0  0  0
   28.7784  -18.2619   -5.7011 C   0  0  0  0  0  0  0  0  0  0  0  0
   27.7380  -18.5137   -6.5640 C   0  0  0  0  0  0  0  0  0  0  0  0
   27.5994  -21.2927   -9.0789 C   0  0  0  0  0  0  0  0  0  0  0  0
   27.1492  -22.5095   -9.1601 O   0  0  0  0  0  0  0  0  0  0  0  0
   28.9951  -21.2276   -9.0715 N   0  0  0  0  0  0  0  0  0  0  0  0
   29.8311  -20.0949   -8.7832 C   0  0  0  0  0  0  0  0  0  0  0  0
   30.6984  -20.0691  -10.0345 C   0  0  0  0  0  0  0  0  0  0  0  0
   30.9223  -21.5698  -10.2702 C   0  0  0  0  0  0  0  0  0  0  0  0
   29.9621  -22.2927   -9.3613 C   0  0  1  0  0  0  0  0  0  0  0  0
   30.5805  -22.8154   -8.1350 C   0  0  0  0  0  0  0  0  0  0  0  0
   30.3139  -22.3185   -6.8561 O   0  0  0  0  0  0  0  0  0  0  0  0
   31.4040  -23.7650   -8.1881 O   0  0  0  0  0  0  0  0  0  0  0  0
  1  5  1  0
  1  2  1  0
  2  3  1  0
  4  3  1  0
  5  4  1  0
  6  7  2  0
  5  6  1  1
  8  6  1  0
  9  8  1  0
  9 10  1  1
 11 10  1  0
 11 16  1  0
 12 11  2  0
 13 12  1  0
 13 14  2  0
 14 15  1  0
 15 16  2  0
 17  9  1  0
 18 17  2  0
 19 17  1  0
 19 20  1  0
 21 20  1  0
 22 23  1  0
 22 21  1  0
 23 19  1  0
 23 24  1  1
 24 25  1  0
 26 24  2  0
M  END
$$$$
