PFP.pdb
     RDKit          3D

 26 28  0  0  1  0  0  0  0  0999 V2000
   25.7680  -19.8039  -12.5016 N   0  0  0  0  0  0  0  0  0  0  0  0
   26.1131  -19.7140  -13.8864 C   0  0  0  0  0  0  0  0  0  0  0  0
   26.6321  -21.0559  -14.3283 C   0  0  0  0  0  0  0  0  0  0  0  0
   26.9688  -21.7190  -13.0086 C   0  0  0  0  0  0  0  0  0  0  0  0
   25.8669  -21.2009  -12.1165 C   0  0  1  0  0  0  0  0  0  0  0  0
   26.2108  -21.3782  -10.7112 C   0  0  0  0  0  0  0  0  0  0  0  0
   26.1462  -22.5238  -10.1470 O   0  0  0  0  0  0  0  0  0  0  0  0
   26.6357  -20.2979   -9.8988 N   0  0  0  0  0  0  0  0  0  0  0  0
   26.8792  -20.4428   -8.4928 C   0  0  1  0  0  0  0  0  0  0  0  0
   28.1006  -19.6101   -8.1623 C   0  0  0  0  0  0  0  0  0  0  0  0
   28.3823  -19.6364   -6.7078 C   0  0  0  0  0  0  0  0  0  0  0  0
   27.7986  -18.7097   -5.8802 C   0  0  0  0  0  0  0  0  0  0  0  0
   28.0471  -18.7171   -4.5271 C   0  0  0  0  0  0  0  0  0  0  0  0
   28.8901  -19.6648   -4.0019 C   0  0  0  0  0  0  0  0  0  0  0  0
   29.4922  -20.6120   -4.8175 C   0  0  0  0  0  0  0  0  0  0  0  0
   29.2188  -20.5718   -6.1644 C   0  0  0  0  0  0  0  0  0  0  0  0
   25.7812  -20.2820   -7.5740 C   0  0  0  0  0  0  0  0  0  0  0  0
   25.0063  -19.2742   -7.8456 O   0  0  0  0  0  0  0  0  0  0  0  0
   25.3749  -20.9918   -6.4413 N   0  0  0  0  0  0  0  0  0  0  0  0
   26.1084  -21.9815   -5.7014 C   0  0  0  0  0  0  0  0  0  0  0  0
   25.1104  -23.1314   -5.7180 C   0  0  0  0  0  0  0  0  0  0  0  0
   23.7863  -22.3765   -5.5317 C   0  0  0  0  0  0  0  0  0  0  0  0
   24.0978  -20.9146   -5.7226 C   0  0  1  0  0  0  0  0  0  0  0  0
   24.2243  -20.1628   -4.4663 C   0  0  0  0  0  0  0  0  0  0  0  0
   25.4476  -19.7880   -3.9034 O   0  0  0  0  0  0  0  0  0  0  0  0
   23.2008  -19.8137   -3.8234 O   0  0  0  0  0  0  0  0  0  0  0  0
  1  5  1  0
  1  2  1  0
  2  3  1  0
  4  3  1  0
  5  4  1  0
  6  7  2  0
  5  6  1  1
  8  6  1  0
  9  8  1  0
  9 10  1  1
 11 10  1  0
 11 16  1  0
 12 11  2  0
 13 12  1  0
 13 14  2  0
 14 15  1  0
 15 16  2  0
 17  9  1  0
 18 17  2  0
 19 17  1  0
 19 20  1  0
 21 20  1  0
 22 23  1  0
 22 21  1  0
 23 19  1  0
 23 24  1  1
 24 25  1  0
 26 24  2  0
M  END
$$$$
