PFP.pdb
     RDKit          3D

 26 28  0  0  1  0  0  0  0  0999 V2000
   22.8425  -21.0219  -11.4827 N   0  0  0  0  0  0  0  0  0  0  0  0
   21.6111  -20.6689  -12.1183 C   0  0  0  0  0  0  0  0  0  0  0  0
   21.8998  -19.6021  -13.1400 C   0  0  0  0  0  0  0  0  0  0  0  0
   23.2547  -19.0913  -12.6951 C   0  0  0  0  0  0  0  0  0  0  0  0
   23.9133  -20.3584  -12.2059 C   0  0  1  0  0  0  0  0  0  0  0  0
   25.0624  -20.0534  -11.3627 C   0  0  0  0  0  0  0  0  0  0  0  0
   26.0644  -19.3974  -11.8105 O   0  0  0  0  0  0  0  0  0  0  0  0
   25.1306  -20.4622  -10.0077 N   0  0  0  0  0  0  0  0  0  0  0  0
   26.3144  -20.2995   -9.2144 C   0  0  1  0  0  0  0  0  0  0  0  0
   25.8708  -20.1583   -7.7730 C   0  0  0  0  0  0  0  0  0  0  0  0
   27.0266  -19.8845   -6.8871 C   0  0  0  0  0  0  0  0  0  0  0  0
   27.6687  -20.9221   -6.2583 C   0  0  0  0  0  0  0  0  0  0  0  0
   28.7437  -20.6890   -5.4320 C   0  0  0  0  0  0  0  0  0  0  0  0
   29.1765  -19.4010   -5.2364 C   0  0  0  0  0  0  0  0  0  0  0  0
   28.5443  -18.3353   -5.8605 C   0  0  0  0  0  0  0  0  0  0  0  0
   27.4738  -18.6090   -6.6787 C   0  0  0  0  0  0  0  0  0  0  0  0
   27.4176  -21.2046   -9.4130 C   0  0  0  0  0  0  0  0  0  0  0  0
   27.0745  -22.4578   -9.4514 O   0  0  0  0  0  0  0  0  0  0  0  0
   28.7919  -21.0108   -9.5735 N   0  0  0  0  0  0  0  0  0  0  0  0
   29.5438  -19.7969   -9.4121 C   0  0  0  0  0  0  0  0  0  0  0  0
   30.2529  -19.7329  -10.7581 C   0  0  0  0  0  0  0  0  0  0  0  0
   30.5902  -21.2136  -10.9854 C   0  0  0  0  0  0  0  0  0  0  0  0
   29.8159  -21.9913   -9.9528 C   0  0  1  0  0  0  0  0  0  0  0  0
   30.6201  -22.4136   -8.7977 C   0  0  0  0  0  0  0  0  0  0  0  0
   30.4479  -21.9121   -7.5044 O   0  0  0  0  0  0  0  0  0  0  0  0
   31.5283  -23.2739   -8.9303 O   0  0  0  0  0  0  0  0  0  0  0  0
  1  5  1  0
  1  2  1  0
  2  3  1  0
  4  3  1  0
  5  4  1  0
  6  7  2  0
  5  6  1  1
  8  6  1  0
  9  8  1  0
  9 10  1  1
 11 10  1  0
 11 16  1  0
 12 11  2  0
 13 12  1  0
 13 14  2  0
 14 15  1  0
 15 16  2  0
 17  9  1  0
 18 17  2  0
 19 17  1  0
 19 20  1  0
 21 20  1  0
 22 23  1  0
 22 21  1  0
 23 19  1  0
 23 24  1  1
 24 25  1  0
 26 24  2  0
M  END
$$$$
