PFP.pdb
     RDKit          3D

 26 28  0  0  1  0  0  0  0  0999 V2000
   26.0678  -19.6869  -12.5767 N   0  0  0  0  0  0  0  0  0  0  0  0
   26.5077  -19.4631  -13.9188 C   0  0  0  0  0  0  0  0  0  0  0  0
   27.3143  -20.6573  -14.3531 C   0  0  0  0  0  0  0  0  0  0  0  0
   27.6577  -21.3098  -13.0299 C   0  0  0  0  0  0  0  0  0  0  0  0
   26.4029  -21.0570  -12.2299 C   0  0  1  0  0  0  0  0  0  0  0  0
   26.6514  -21.2362  -10.8048 C   0  0  0  0  0  0  0  0  0  0  0  0
   26.8167  -22.3976  -10.2963 O   0  0  0  0  0  0  0  0  0  0  0  0
   26.7258  -20.1396   -9.9107 N   0  0  0  0  0  0  0  0  0  0  0  0
   26.8981  -20.3107   -8.4971 C   0  0  1  0  0  0  0  0  0  0  0  0
   27.9722  -19.3378   -8.0565 C   0  0  0  0  0  0  0  0  0  0  0  0
   28.2657  -19.4907   -6.6122 C   0  0  0  0  0  0  0  0  0  0  0  0
   29.1425  -20.4590   -6.1902 C   0  0  0  0  0  0  0  0  0  0  0  0
   29.4286  -20.6172   -4.8538 C   0  0  0  0  0  0  0  0  0  0  0  0
   28.8275  -19.7943   -3.9339 C   0  0  0  0  0  0  0  0  0  0  0  0
   27.9377  -18.8083   -4.3354 C   0  0  0  0  0  0  0  0  0  0  0  0
   27.6778  -18.6816   -5.6796 C   0  0  0  0  0  0  0  0  0  0  0  0
   25.7330  -20.3368   -7.6500 C   0  0  0  0  0  0  0  0  0  0  0  0
   24.8020  -19.5012   -8.0036 O   0  0  0  0  0  0  0  0  0  0  0  0
   25.3954  -21.0810   -6.5168 N   0  0  0  0  0  0  0  0  0  0  0  0
   26.2546  -21.8859   -5.6929 C   0  0  0  0  0  0  0  0  0  0  0  0
   25.5030  -23.2098   -5.7248 C   0  0  0  0  0  0  0  0  0  0  0  0
   24.0477  -22.7256   -5.6524 C   0  0  0  0  0  0  0  0  0  0  0  0
   24.0810  -21.2369   -5.8829 C   0  0  1  0  0  0  0  0  0  0  0  0
   23.9717  -20.4404   -4.6528 C   0  0  0  0  0  0  0  0  0  0  0  0
   22.7664  -20.1955   -3.9887 O   0  0  0  0  0  0  0  0  0  0  0  0
   24.9944  -19.9284   -4.1288 O   0  0  0  0  0  0  0  0  0  0  0  0
  1  5  1  0
  1  2  1  0
  2  3  1  0
  4  3  1  0
  5  4  1  0
  6  7  2  0
  5  6  1  1
  8  6  1  0
  9  8  1  0
  9 10  1  1
 11 10  1  0
 11 16  1  0
 12 11  2  0
 13 12  1  0
 13 14  2  0
 14 15  1  0
 15 16  2  0
 17  9  1  0
 18 17  2  0
 19 17  1  0
 19 20  1  0
 21 20  1  0
 22 23  1  0
 22 21  1  0
 23 19  1  0
 23 24  1  1
 24 25  1  0
 26 24  2  0
M  END
$$$$
