PFP.pdb
     RDKit          3D

 26 28  0  0  1  0  0  0  0  0999 V2000
   25.9780  -18.4978  -13.4590 N   0  0  0  0  0  0  0  0  0  0  0  0
   25.3107  -18.6900  -14.7090 C   0  0  0  0  0  0  0  0  0  0  0  0
   24.2027  -19.6870  -14.5007 C   0  0  0  0  0  0  0  0  0  0  0  0
   24.6068  -20.3468  -13.1984 C   0  0  0  0  0  0  0  0  0  0  0  0
   25.2043  -19.1862  -12.4405 C   0  0  1  0  0  0  0  0  0  0  0  0
   26.0221  -19.6578  -11.3299 C   0  0  0  0  0  0  0  0  0  0  0  0
   26.9021  -20.5716  -11.4892 O   0  0  0  0  0  0  0  0  0  0  0  0
   25.8897  -19.1308  -10.0214 N   0  0  0  0  0  0  0  0  0  0  0  0
   26.6147  -19.6597   -8.9026 C   0  0  1  0  0  0  0  0  0  0  0  0
   26.8939  -18.5042   -7.9639 C   0  0  0  0  0  0  0  0  0  0  0  0
   27.6012  -18.9685   -6.7474 C   0  0  0  0  0  0  0  0  0  0  0  0
   28.8908  -18.5634   -6.5082 C   0  0  0  0  0  0  0  0  0  0  0  0
   29.5649  -18.9830   -5.3847 C   0  0  0  0  0  0  0  0  0  0  0  0
   28.9363  -19.8174   -4.4941 C   0  0  0  0  0  0  0  0  0  0  0  0
   27.6334  -20.2409   -4.7134 C   0  0  0  0  0  0  0  0  0  0  0  0
   26.9934  -19.7997   -5.8476 C   0  0  0  0  0  0  0  0  0  0  0  0
   26.1267  -20.8503   -8.2544 C   0  0  0  0  0  0  0  0  0  0  0  0
   24.8451  -20.8480   -8.0373 O   0  0  0  0  0  0  0  0  0  0  0  0
   26.7530  -22.0163   -7.8068 N   0  0  0  0  0  0  0  0  0  0  0  0
   28.1436  -22.2201   -7.5074 C   0  0  0  0  0  0  0  0  0  0  0  0
   28.4379  -23.4301   -8.3837 C   0  0  0  0  0  0  0  0  0  0  0  0
   27.1455  -24.2411   -8.2119 C   0  0  0  0  0  0  0  0  0  0  0  0
   26.1557  -23.3288   -7.5347 C   0  0  1  0  0  0  0  0  0  0  0  0
   26.0097  -23.5725   -6.0929 C   0  0  0  0  0  0  0  0  0  0  0  0
   26.5387  -22.7372   -5.1049 O   0  0  0  0  0  0  0  0  0  0  0  0
   25.3805  -24.5782   -5.6742 O   0  0  0  0  0  0  0  0  0  0  0  0
  1  5  1  0
  1  2  1  0
  2  3  1  0
  4  3  1  0
  5  4  1  0
  6  7  2  0
  5  6  1  1
  8  6  1  0
  9  8  1  0
  9 10  1  1
 11 10  1  0
 11 16  1  0
 12 11  2  0
 13 12  1  0
 13 14  2  0
 14 15  1  0
 15 16  2  0
 17  9  1  0
 18 17  2  0
 19 17  1  0
 19 20  1  0
 21 20  1  0
 22 23  1  0
 22 21  1  0
 23 19  1  0
 23 24  1  1
 24 25  1  0
 26 24  2  0
M  END
$$$$
