PFP.pdb
     RDKit          3D

 26 28  0  0  1  0  0  0  0  0999 V2000
   21.0114  -19.4832  -14.5147 N   0  0  0  0  0  0  0  0  0  0  0  0
   20.2372  -20.0318  -15.5845 C   0  0  0  0  0  0  0  0  0  0  0  0
   20.5894  -21.4890  -15.7188 C   0  0  0  0  0  0  0  0  0  0  0  0
   21.9068  -21.5695  -14.9755 C   0  0  0  0  0  0  0  0  0  0  0  0
   21.6841  -20.5867  -13.8517 C   0  0  1  0  0  0  0  0  0  0  0  0
   22.9509  -20.1961  -13.2456 C   0  0  0  0  0  0  0  0  0  0  0  0
   23.6343  -19.2153  -13.6994 O   0  0  0  0  0  0  0  0  0  0  0  0
   23.4899  -20.8758  -12.1254 N   0  0  0  0  0  0  0  0  0  0  0  0
   24.8368  -20.6712  -11.6770 C   0  0  1  0  0  0  0  0  0  0  0  0
   24.9067  -21.1449  -10.2400 C   0  0  0  0  0  0  0  0  0  0  0  0
   26.1979  -20.7667   -9.6194 C   0  0  0  0  0  0  0  0  0  0  0  0
   26.2310  -19.8091   -8.6363 C   0  0  0  0  0  0  0  0  0  0  0  0
   27.4195  -19.4438   -8.0474 C   0  0  0  0  0  0  0  0  0  0  0  0
   28.5849  -20.0469   -8.4509 C   0  0  0  0  0  0  0  0  0  0  0  0
   28.5777  -21.0174   -9.4424 C   0  0  0  0  0  0  0  0  0  0  0  0
   27.3701  -21.3550  -10.0066 C   0  0  0  0  0  0  0  0  0  0  0  0
   25.9248  -21.1216  -12.5072 C   0  0  0  0  0  0  0  0  0  0  0  0
   25.8744  -22.3854  -12.8071 O   0  0  0  0  0  0  0  0  0  0  0  0
   27.0326  -20.4742  -13.0601 N   0  0  0  0  0  0  0  0  0  0  0  0
   27.6193  -19.2228  -12.6669 C   0  0  0  0  0  0  0  0  0  0  0  0
   27.6091  -18.4849  -13.9988 C   0  0  0  0  0  0  0  0  0  0  0  0
   27.9799  -19.6174  -14.9672 C   0  0  0  0  0  0  0  0  0  0  0  0
   27.8744  -20.9004  -14.1841 C   0  0  1  0  0  0  0  0  0  0  0  0
   29.1675  -21.4279  -13.7268 C   0  0  0  0  0  0  0  0  0  0  0  0
   29.5576  -21.4769  -12.3855 O   0  0  0  0  0  0  0  0  0  0  0  0
   30.0056  -21.8726  -14.5529 O   0  0  0  0  0  0  0  0  0  0  0  0
  1  5  1  0
  1  2  1  0
  2  3  1  0
  4  3  1  0
  5  4  1  0
  6  7  2  0
  5  6  1  6
  8  6  1  0
  9  8  1  0
  9 10  1  1
 11 10  1  0
 11 16  1  0
 12 11  2  0
 13 12  1  0
 13 14  2  0
 14 15  1  0
 15 16  2  0
 17  9  1  0
 18 17  2  0
 19 17  1  0
 19 20  1  0
 21 20  1  0
 22 23  1  0
 22 21  1  0
 23 19  1  0
 23 24  1  1
 24 25  1  0
 26 24  2  0
M  END
$$$$
