PFP.pdb
     RDKit          3D

 26 28  0  0  1  0  0  0  0  0999 V2000
   26.2611  -19.5567  -12.5673 N   0  0  0  0  0  0  0  0  0  0  0  0
   26.7872  -19.3984  -13.8875 C   0  0  0  0  0  0  0  0  0  0  0  0
   27.4295  -20.6971  -14.2950 C   0  0  0  0  0  0  0  0  0  0  0  0
   27.6159  -21.3937  -12.9629 C   0  0  0  0  0  0  0  0  0  0  0  0
   26.3775  -20.9613  -12.2161 C   0  0  1  0  0  0  0  0  0  0  0  0
   26.5346  -21.1759  -10.7829 C   0  0  0  0  0  0  0  0  0  0  0  0
   26.4447  -22.3428  -10.2683 O   0  0  0  0  0  0  0  0  0  0  0  0
   26.7968  -20.1098   -9.8872 N   0  0  0  0  0  0  0  0  0  0  0  0
   26.8990  -20.3043   -8.4698 C   0  0  1  0  0  0  0  0  0  0  0  0
   27.9792  -19.3691   -7.9669 C   0  0  0  0  0  0  0  0  0  0  0  0
   28.2155  -19.5632   -6.5170 C   0  0  0  0  0  0  0  0  0  0  0  0
   29.1780  -20.4447   -6.0918 C   0  0  0  0  0  0  0  0  0  0  0  0
   29.4130  -20.6393   -4.7503 C   0  0  0  0  0  0  0  0  0  0  0  0
   28.6733  -19.9410   -3.8284 C   0  0  0  0  0  0  0  0  0  0  0  0
   27.6948  -19.0443   -4.2330 C   0  0  0  0  0  0  0  0  0  0  0  0
   27.4899  -18.8777   -5.5823 C   0  0  0  0  0  0  0  0  0  0  0  0
   25.6960  -20.3072   -7.6771 C   0  0  0  0  0  0  0  0  0  0  0  0
   24.8308  -19.4012   -8.0238 O   0  0  0  0  0  0  0  0  0  0  0  0
   25.2648  -21.0896   -6.6028 N   0  0  0  0  0  0  0  0  0  0  0  0
   26.0339  -22.0005   -5.8007 C   0  0  0  0  0  0  0  0  0  0  0  0
   25.1935  -23.2629   -5.9377 C   0  0  0  0  0  0  0  0  0  0  0  0
   23.7739  -22.6802   -5.8849 C   0  0  0  0  0  0  0  0  0  0  0  0
   23.9198  -21.1869   -6.0239 C   0  0  1  0  0  0  0  0  0  0  0  0
   23.8200  -20.4571   -4.7523 C   0  0  0  0  0  0  0  0  0  0  0  0
   22.6091  -20.1289   -4.1362 O   0  0  0  0  0  0  0  0  0  0  0  0
   24.8569  -20.0848   -4.1449 O   0  0  0  0  0  0  0  0  0  0  0  0
  1  5  1  0
  1  2  1  0
  2  3  1  0
  4  3  1  0
  5  4  1  0
  6  7  2  0
  5  6  1  1
  8  6  1  0
  9  8  1  0
  9 10  1  1
 11 10  1  0
 11 16  1  0
 12 11  2  0
 13 12  1  0
 13 14  2  0
 14 15  1  0
 15 16  2  0
 17  9  1  0
 18 17  2  0
 19 17  1  0
 19 20  1  0
 21 20  1  0
 22 23  1  0
 22 21  1  0
 23 19  1  0
 23 24  1  1
 24 25  1  0
 26 24  2  0
M  END
$$$$
