PFP.pdb
     RDKit          3D

 26 28  0  0  1  0  0  0  0  0999 V2000
   27.8365  -21.3478  -14.6663 N   0  0  0  0  0  0  0  0  0  0  0  0
   27.8375  -21.3507  -16.0962 C   0  0  0  0  0  0  0  0  0  0  0  0
   27.7756  -19.9228  -16.5681 C   0  0  0  0  0  0  0  0  0  0  0  0
   27.2852  -19.1983  -15.3315 C   0  0  0  0  0  0  0  0  0  0  0  0
   27.9755  -19.9687  -14.2322 C   0  0  1  0  0  0  0  0  0  0  0  0
   27.3428  -19.7137  -12.9440 C   0  0  0  0  0  0  0  0  0  0  0  0
   27.2996  -18.5386  -12.4418 O   0  0  0  0  0  0  0  0  0  0  0  0
   26.7419  -20.7472  -12.1835 N   0  0  0  0  0  0  0  0  0  0  0  0
   26.1494  -20.5112  -10.8988 C   0  0  1  0  0  0  0  0  0  0  0  0
   24.7900  -21.1793  -10.9038 C   0  0  0  0  0  0  0  0  0  0  0  0
   23.9110  -20.5848  -11.9379 C   0  0  0  0  0  0  0  0  0  0  0  0
   23.1990  -19.4448  -11.6590 C   0  0  0  0  0  0  0  0  0  0  0  0
   22.3775  -18.8771  -12.6053 C   0  0  0  0  0  0  0  0  0  0  0  0
   22.2711  -19.4612  -13.8430 C   0  0  0  0  0  0  0  0  0  0  0  0
   22.9804  -20.6137  -14.1494 C   0  0  0  0  0  0  0  0  0  0  0  0
   23.7907  -21.1507  -13.1770 C   0  0  0  0  0  0  0  0  0  0  0  0
   26.9309  -20.7579   -9.7139 C   0  0  0  0  0  0  0  0  0  0  0  0
   27.8393  -21.6762   -9.8598 O   0  0  0  0  0  0  0  0  0  0  0  0
   26.9127  -20.2089   -8.4292 N   0  0  0  0  0  0  0  0  0  0  0  0
   26.0647  -19.1670   -7.9191 C   0  0  0  0  0  0  0  0  0  0  0  0
   27.1113  -18.2010   -7.3807 C   0  0  0  0  0  0  0  0  0  0  0  0
   28.1351  -19.1770   -6.7833 C   0  0  0  0  0  0  0  0  0  0  0  0
   27.7555  -20.5491   -7.2770 C   0  0  1  0  0  0  0  0  0  0  0  0
   27.0275  -21.3579   -6.2894 C   0  0  0  0  0  0  0  0  0  0  0  0
   27.6079  -21.8776   -5.1290 O   0  0  0  0  0  0  0  0  0  0  0  0
   25.8091  -21.6249   -6.4539 O   0  0  0  0  0  0  0  0  0  0  0  0
  1  5  1  0
  1  2  1  0
  2  3  1  0
  4  3  1  0
  5  4  1  0
  6  7  2  0
  5  6  1  1
  8  6  1  0
  9  8  1  0
  9 10  1  1
 11 10  1  0
 11 16  1  0
 12 11  2  0
 13 12  1  0
 13 14  2  0
 14 15  1  0
 15 16  2  0
 17  9  1  0
 18 17  2  0
 19 17  1  0
 19 20  1  0
 21 20  1  0
 22 23  1  0
 22 21  1  0
 23 19  1  0
 23 24  1  1
 24 25  1  0
 26 24  2  0
M  END
$$$$
