PFP.pdb
     RDKit          3D

 26 28  0  0  1  0  0  0  0  0999 V2000
   28.2270  -19.5291  -17.8296 N   0  0  0  0  0  0  0  0  0  0  0  0
   29.3101  -19.3065  -18.7364 C   0  0  0  0  0  0  0  0  0  0  0  0
   30.0144  -20.6183  -18.9565 C   0  0  0  0  0  0  0  0  0  0  0  0
   29.5350  -21.4405  -17.7780 C   0  0  0  0  0  0  0  0  0  0  0  0
   28.1104  -20.9633  -17.6321 C   0  0  1  0  0  0  0  0  0  0  0  0
   27.5779  -21.3133  -16.3211 C   0  0  0  0  0  0  0  0  0  0  0  0
   27.3918  -22.5311  -15.9789 O   0  0  0  0  0  0  0  0  0  0  0  0
   27.2420  -20.3291  -15.3587 N   0  0  0  0  0  0  0  0  0  0  0  0
   26.4883  -20.6350  -14.1773 C   0  0  1  0  0  0  0  0  0  0  0  0
   27.2206  -20.0131  -13.0062 C   0  0  0  0  0  0  0  0  0  0  0  0
   26.5032  -20.2703  -11.7355 C   0  0  0  0  0  0  0  0  0  0  0  0
   25.4298  -19.4899  -11.3847 C   0  0  0  0  0  0  0  0  0  0  0  0
   24.7503  -19.7123  -10.2093 C   0  0  0  0  0  0  0  0  0  0  0  0
   25.1541  -20.7287   -9.3795 C   0  0  0  0  0  0  0  0  0  0  0  0
   26.2359  -21.5314   -9.7117 C   0  0  0  0  0  0  0  0  0  0  0  0
   26.8890  -21.2775  -10.8947 C   0  0  0  0  0  0  0  0  0  0  0  0
   25.0654  -20.4090  -14.1791 C   0  0  0  0  0  0  0  0  0  0  0  0
   24.7211  -19.2015  -14.5154 O   0  0  0  0  0  0  0  0  0  0  0  0
   23.9704  -21.2274  -13.8906 N   0  0  0  0  0  0  0  0  0  0  0  0
   23.9728  -22.5568  -13.3451 C   0  0  0  0  0  0  0  0  0  0  0  0
   23.1422  -23.2846  -14.3933 C   0  0  0  0  0  0  0  0  0  0  0  0
   22.0743  -22.2278  -14.7105 C   0  0  0  0  0  0  0  0  0  0  0  0
   22.5425  -20.9438  -14.0759 C   0  0  1  0  0  0  0  0  0  0  0  0
   21.8794  -20.6317  -12.8021 C   0  0  0  0  0  0  0  0  0  0  0  0
   22.3639  -21.0325  -11.5538 O   0  0  0  0  0  0  0  0  0  0  0  0
   20.8111  -19.9676  -12.7826 O   0  0  0  0  0  0  0  0  0  0  0  0
  1  5  1  0
  1  2  1  0
  2  3  1  0
  4  3  1  0
  5  4  1  0
  6  7  2  0
  5  6  1  1
  8  6  1  0
  9  8  1  0
  9 10  1  1
 11 10  1  0
 11 16  1  0
 12 11  2  0
 13 12  1  0
 13 14  2  0
 14 15  1  0
 15 16  2  0
 17  9  1  0
 18 17  2  0
 19 17  1  0
 19 20  1  0
 21 20  1  0
 22 23  1  0
 22 21  1  0
 23 19  1  0
 23 24  1  1
 24 25  1  0
 26 24  2  0
M  END
$$$$
