NIT.pdb
     RDKit          3D

 24 23  0  0  1  0  0  0  0  0999 V2000
   10.9947  -19.6914   15.5548 N   0  0  0  0  0  0  0  0  0  0  0  0
   10.6116  -18.3150   15.5447 C   0  0  0  0  0  0  0  0  0  0  0  0
   10.0566  -17.9000   14.4928 O   0  0  0  0  0  0  0  0  0  0  0  0
   10.8405  -17.4167   16.6787 C   0  0  0  0  0  0  0  0  0  0  0  0
   10.0241  -17.9305   17.8649 C   0  0  2  0  0  0  0  0  0  0  0  0
    8.6391  -18.0642   17.5377 N   0  0  0  0  0  0  0  0  0  0  0  0
   10.1817  -16.9235   18.9489 C   0  0  0  0  0  0  0  0  0  0  0  0
   11.3457  -16.6275   19.3125 O   0  0  0  0  0  0  0  0  0  0  0  0
    6.9243  -12.5795   19.5470 C   0  0  0  0  0  0  0  0  0  0  0  0
    8.0817  -13.5106   19.5384 C   0  0  0  0  0  0  0  0  0  0  0  0
    8.2468  -14.3708   20.7453 C   0  0  2  0  0  0  0  0  0  0  0  0
    8.4008  -13.4561   21.9469 C   0  0  0  0  0  0  0  0  0  0  0  0
    9.3296  -15.3948   20.6802 C   0  0  2  0  0  0  0  0  0  0  0  0
    9.0707  -16.3004   19.5722 N   0  0  0  0  0  0  0  0  0  0  0  0
    9.3801  -16.1346   21.9666 C   0  0  0  0  0  0  0  0  0  0  0  0
    8.3362  -16.6983   22.3696 O   0  0  0  0  0  0  0  0  0  0  0  0
   10.2945  -19.1389   22.6729 C   0  0  0  0  0  0  0  0  0  0  0  0
   11.1132  -18.3980   23.7435 C   0  0  1  0  0  0  0  0  0  0  0  0
   12.3968  -18.3146   23.2256 O   0  0  0  0  0  0  0  0  0  0  0  0
   10.5417  -17.0112   23.9548 C   0  0  2  0  0  0  0  0  0  0  0  0
   10.5607  -16.2259   22.7512 N   0  0  0  0  0  0  0  0  0  0  0  0
   11.2718  -16.3144   25.0448 C   0  0  0  0  0  0  0  0  0  0  0  0
   11.1993  -16.8036   26.3241 O   0  0  0  0  0  0  0  0  0  0  0  0
   11.9358  -15.3032   24.7927 O   0  0  0  0  0  0  0  0  0  0  0  0
  1  2  1  0
  2  3  2  0
  4  2  1  0
  5  4  1  0
  5  6  1  6
  7 14  1  0
  7  5  1  0
  8  7  2  0
 10  9  1  0
 11 10  1  0
 11 12  1  1
 13 11  1  0
 13 14  1  6
 15 13  1  0
 16 15  2  0
 18 20  1  0
 18 17  1  6
 19 18  1  0
 20 21  1  6
 21 15  1  0
 22 20  1  0
 22 23  1  0
 24 22  2  0
M  END
$$$$
