NIT.pdb
     RDKit          3D

 24 23  0  0  1  0  0  0  0  0999 V2000
   10.7432  -17.7074   13.6533 N   0  0  0  0  0  0  0  0  0  0  0  0
   10.9898  -16.3020   13.7253 C   0  0  0  0  0  0  0  0  0  0  0  0
   11.4917  -15.7722   12.6986 O   0  0  0  0  0  0  0  0  0  0  0  0
   10.6866  -15.5005   14.9132 C   0  0  0  0  0  0  0  0  0  0  0  0
   10.2531  -16.4504   16.0300 C   0  0  2  0  0  0  0  0  0  0  0  0
    8.8838  -16.8377   15.8955 N   0  0  0  0  0  0  0  0  0  0  0  0
   10.4341  -15.7064   17.3058 C   0  0  0  0  0  0  0  0  0  0  0  0
   11.5959  -15.3515   17.6205 O   0  0  0  0  0  0  0  0  0  0  0  0
    6.7829  -12.1952   19.2732 C   0  0  0  0  0  0  0  0  0  0  0  0
    8.0802  -12.8548   18.9753 C   0  0  0  0  0  0  0  0  0  0  0  0
    8.4837  -13.9621   19.8889 C   0  0  2  0  0  0  0  0  0  0  0  0
    8.6982  -13.3674   21.2690 C   0  0  0  0  0  0  0  0  0  0  0  0
    9.6462  -14.7872   19.4494 C   0  0  2  0  0  0  0  0  0  0  0  0
    9.3476  -15.3934   18.1616 N   0  0  0  0  0  0  0  0  0  0  0  0
    9.9211  -15.8277   20.4722 C   0  0  0  0  0  0  0  0  0  0  0  0
    9.1576  -16.8194   20.5317 O   0  0  0  0  0  0  0  0  0  0  0  0
   10.5031  -18.4218   20.4436 C   0  0  0  0  0  0  0  0  0  0  0  0
   11.6504  -18.1062   21.4181 C   0  0  1  0  0  0  0  0  0  0  0  0
   12.7556  -17.8723   20.6139 O   0  0  0  0  0  0  0  0  0  0  0  0
   11.3132  -16.8663   22.2199 C   0  0  2  0  0  0  0  0  0  0  0  0
   11.0108  -15.7404   21.3792 N   0  0  0  0  0  0  0  0  0  0  0  0
   12.4225  -16.5390   23.1522 C   0  0  0  0  0  0  0  0  0  0  0  0
   12.6841  -17.3751   24.2076 O   0  0  0  0  0  0  0  0  0  0  0  0
   13.0982  -15.5203   22.9717 O   0  0  0  0  0  0  0  0  0  0  0  0
  1  2  1  0
  2  3  2  0
  4  2  1  0
  5  4  1  0
  5  6  1  6
  7 14  1  0
  7  5  1  0
  8  7  2  0
 10  9  1  0
 11 10  1  0
 11 12  1  1
 13 11  1  0
 13 14  1  6
 15 13  1  0
 16 15  2  0
 18 20  1  0
 18 17  1  6
 19 18  1  0
 20 21  1  6
 21 15  1  0
 22 20  1  0
 22 23  1  0
 24 22  2  0
M  END
$$$$
