NIT.pdb
     RDKit          3D

 24 23  0  0  1  0  0  0  0  0999 V2000
    7.9462  -21.6970   17.9165 N   0  0  0  0  0  0  0  0  0  0  0  0
    8.3669  -20.3576   17.6509 C   0  0  0  0  0  0  0  0  0  0  0  0
    8.3363  -19.9940   16.4452 O   0  0  0  0  0  0  0  0  0  0  0  0
    8.8134  -19.4403   18.7018 C   0  0  0  0  0  0  0  0  0  0  0  0
    9.0102  -18.0593   18.0758 C   0  0  2  0  0  0  0  0  0  0  0  0
   10.0608  -18.0610   17.1067 N   0  0  0  0  0  0  0  0  0  0  0  0
    9.3669  -17.1414   19.1912 C   0  0  0  0  0  0  0  0  0  0  0  0
   10.5681  -17.0912   19.5509 O   0  0  0  0  0  0  0  0  0  0  0  0
    6.9053  -12.2695   19.8524 C   0  0  0  0  0  0  0  0  0  0  0  0
    7.9049  -13.3676   19.8111 C   0  0  0  0  0  0  0  0  0  0  0  0
    7.9397  -14.2743   20.9946 C   0  0  2  0  0  0  0  0  0  0  0  0
    8.2231  -13.4241   22.2198 C   0  0  0  0  0  0  0  0  0  0  0  0
    8.8614  -15.4435   20.9007 C   0  0  2  0  0  0  0  0  0  0  0  0
    8.4023  -16.3359   19.8481 N   0  0  0  0  0  0  0  0  0  0  0  0
    8.8966  -16.1440   22.2093 C   0  0  0  0  0  0  0  0  0  0  0  0
    7.8115  -16.5134   22.7153 O   0  0  0  0  0  0  0  0  0  0  0  0
    9.6425  -19.3218   23.1523 C   0  0  0  0  0  0  0  0  0  0  0  0
   10.5532  -18.5082   24.0873 C   0  0  1  0  0  0  0  0  0  0  0  0
   11.8063  -18.5435   23.4945 O   0  0  0  0  0  0  0  0  0  0  0  0
   10.0533  -17.0810   24.1727 C   0  0  2  0  0  0  0  0  0  0  0  0
   10.1073  -16.4088   22.9034 N   0  0  0  0  0  0  0  0  0  0  0  0
   10.8219  -16.3270   25.1961 C   0  0  0  0  0  0  0  0  0  0  0  0
   10.7646  -16.7225   26.5083 O   0  0  0  0  0  0  0  0  0  0  0  0
   11.5039  -15.3529   24.8601 O   0  0  0  0  0  0  0  0  0  0  0  0
  1  2  1  0
  2  3  2  0
  4  2  1  0
  5  4  1  0
  5  6  1  6
  7 14  1  0
  7  5  1  0
  8  7  2  0
 10  9  1  0
 11 10  1  0
 11 12  1  1
 13 11  1  0
 13 14  1  6
 15 13  1  0
 16 15  2  0
 18 20  1  0
 18 17  1  6
 19 18  1  0
 20 21  1  6
 21 15  1  0
 22 20  1  0
 22 23  1  0
 24 22  2  0
M  END
$$$$
