NIT.pdb
     RDKit          3D

 24 23  0  0  1  0  0  0  0  0999 V2000
    6.5106  -16.0215   18.8575 N   0  0  0  0  0  0  0  0  0  0  0  0
    6.4688  -16.9661   19.9287 C   0  0  0  0  0  0  0  0  0  0  0  0
    6.0113  -18.1056   19.6477 O   0  0  0  0  0  0  0  0  0  0  0  0
    6.9246  -16.6523   21.2848 C   0  0  0  0  0  0  0  0  0  0  0  0
    7.2729  -15.1645   21.3373 C   0  0  2  0  0  0  0  0  0  0  0  0
    8.1516  -14.7874   20.2749 N   0  0  0  0  0  0  0  0  0  0  0  0
    7.9496  -14.9390   22.6431 C   0  0  0  0  0  0  0  0  0  0  0  0
    9.1865  -15.1407   22.7076 O   0  0  0  0  0  0  0  0  0  0  0  0
    5.7917  -11.3695   26.0899 C   0  0  0  0  0  0  0  0  0  0  0  0
    6.8661  -12.1048   25.3745 C   0  0  0  0  0  0  0  0  0  0  0  0
    7.2534  -13.4276   25.9436 C   0  0  2  0  0  0  0  0  0  0  0  0
    8.0109  -13.1715   27.2339 C   0  0  0  0  0  0  0  0  0  0  0  0
    7.9976  -14.3438   25.0314 C   0  0  2  0  0  0  0  0  0  0  0  0
    7.2462  -14.5103   23.7975 N   0  0  0  0  0  0  0  0  0  0  0  0
    8.1982  -15.6500   25.7084 C   0  0  0  0  0  0  0  0  0  0  0  0
    7.2755  -16.4960   25.6535 O   0  0  0  0  0  0  0  0  0  0  0  0
    9.0225  -18.0077   24.4402 C   0  0  0  0  0  0  0  0  0  0  0  0
   10.0534  -18.1773   25.5688 C   0  0  1  0  0  0  0  0  0  0  0  0
   11.2479  -17.7088   25.0428 O   0  0  0  0  0  0  0  0  0  0  0  0
    9.6438  -17.3427   26.7646 C   0  0  2  0  0  0  0  0  0  0  0  0
    9.3898  -15.9730   26.4108 N   0  0  0  0  0  0  0  0  0  0  0  0
   10.6781  -17.4244   27.8277 C   0  0  0  0  0  0  0  0  0  0  0  0
   10.8175  -18.5858   28.5441 O   0  0  0  0  0  0  0  0  0  0  0  0
   11.4019  -16.4499   28.0587 O   0  0  0  0  0  0  0  0  0  0  0  0
  1  2  1  0
  2  3  2  0
  4  2  1  0
  5  4  1  0
  5  6  1  6
  7 14  1  0
  7  5  1  0
  8  7  2  0
 10  9  1  0
 11 10  1  0
 11 12  1  1
 13 11  1  0
 13 14  1  6
 15 13  1  0
 16 15  2  0
 18 20  1  0
 18 17  1  6
 19 18  1  0
 20 21  1  6
 21 15  1  0
 22 20  1  0
 22 23  1  0
 24 22  2  0
M  END
$$$$
