NIT.pdb
     RDKit          3D

 24 23  0  0  1  0  0  0  0  0999 V2000
   12.8196  -17.1318   14.0874 N   0  0  0  0  0  0  0  0  0  0  0  0
   11.5695  -16.8920   14.7363 C   0  0  0  0  0  0  0  0  0  0  0  0
   10.5611  -17.4448   14.2222 O   0  0  0  0  0  0  0  0  0  0  0  0
   11.4406  -16.0549   15.9312 C   0  0  0  0  0  0  0  0  0  0  0  0
   10.8143  -16.9013   17.0398 C   0  0  2  0  0  0  0  0  0  0  0  0
    9.4826  -17.3040   16.7117 N   0  0  0  0  0  0  0  0  0  0  0  0
   10.7869  -16.0442   18.2557 C   0  0  0  0  0  0  0  0  0  0  0  0
   11.8757  -15.5815   18.6743 O   0  0  0  0  0  0  0  0  0  0  0  0
    7.1111  -12.2358   19.2657 C   0  0  0  0  0  0  0  0  0  0  0  0
    8.3651  -13.0320   19.2475 C   0  0  0  0  0  0  0  0  0  0  0  0
    8.4973  -14.0809   20.2992 C   0  0  2  0  0  0  0  0  0  0  0  0
    8.4424  -13.3904   21.6499 C   0  0  0  0  0  0  0  0  0  0  0  0
    9.6778  -14.9853   20.1817 C   0  0  2  0  0  0  0  0  0  0  0  0
    9.5840  -15.7419   18.9433 N   0  0  0  0  0  0  0  0  0  0  0  0
    9.7152  -15.8945   21.3550 C   0  0  0  0  0  0  0  0  0  0  0  0
    8.6696  -16.5135   21.6610 O   0  0  0  0  0  0  0  0  0  0  0  0
   10.9634  -18.9822   21.5689 C   0  0  0  0  0  0  0  0  0  0  0  0
   11.6341  -18.3279   22.7886 C   0  0  1  0  0  0  0  0  0  0  0  0
   12.9141  -18.0010   22.3671 O   0  0  0  0  0  0  0  0  0  0  0  0
   10.8750  -17.0768   23.1792 C   0  0  2  0  0  0  0  0  0  0  0  0
   10.8851  -16.0868   22.1373 N   0  0  0  0  0  0  0  0  0  0  0  0
   11.4240  -16.5142   24.4397 C   0  0  0  0  0  0  0  0  0  0  0  0
   11.2658  -17.2082   25.6122 O   0  0  0  0  0  0  0  0  0  0  0  0
   12.0162  -15.4298   24.4234 O   0  0  0  0  0  0  0  0  0  0  0  0
  1  2  1  0
  2  3  2  0
  4  2  1  0
  5  4  1  0
  5  6  1  6
  7 14  1  0
  7  5  1  0
  8  7  2  0
 10  9  1  0
 11 10  1  0
 11 12  1  1
 13 11  1  0
 13 14  1  6
 15 13  1  0
 16 15  2  0
 18 20  1  0
 18 17  1  6
 19 18  1  0
 20 21  1  6
 21 15  1  0
 22 20  1  0
 22 23  1  0
 24 22  2  0
M  END
$$$$
