NIT.pdb
     RDKit          3D

 24 23  0  0  1  0  0  0  0  0999 V2000
   10.2326  -17.2357   13.1566 N   0  0  0  0  0  0  0  0  0  0  0  0
    9.1784  -16.7851   14.0092 C   0  0  0  0  0  0  0  0  0  0  0  0
    8.0058  -17.0383   13.6249 O   0  0  0  0  0  0  0  0  0  0  0  0
    9.4203  -16.0672   15.2628 C   0  0  0  0  0  0  0  0  0  0  0  0
    9.4401  -17.0889   16.4000 C   0  0  2  0  0  0  0  0  0  0  0  0
    8.1609  -17.6983   16.5881 N   0  0  0  0  0  0  0  0  0  0  0  0
    9.8172  -16.3398   17.6290 C   0  0  0  0  0  0  0  0  0  0  0  0
   11.0269  -16.0493   17.7933 O   0  0  0  0  0  0  0  0  0  0  0  0
    6.7085  -12.4433   19.8512 C   0  0  0  0  0  0  0  0  0  0  0  0
    7.9083  -13.2193   19.4452 C   0  0  0  0  0  0  0  0  0  0  0  0
    8.2759  -14.3719   20.3171 C   0  0  2  0  0  0  0  0  0  0  0  0
    8.6152  -13.8223   21.6908 C   0  0  0  0  0  0  0  0  0  0  0  0
    9.3432  -15.2756   19.7977 C   0  0  2  0  0  0  0  0  0  0  0  0
    8.8627  -15.9525   18.6037 N   0  0  0  0  0  0  0  0  0  0  0  0
    9.7076  -16.2567   20.8509 C   0  0  0  0  0  0  0  0  0  0  0  0
    8.8769  -17.1467   21.1474 O   0  0  0  0  0  0  0  0  0  0  0  0
   13.0326  -18.7942   23.3830 C   0  0  0  0  0  0  0  0  0  0  0  0
   12.7520  -17.6442   22.4010 C   0  0  1  0  0  0  0  0  0  0  0  0
   13.0862  -18.1442   21.1515 O   0  0  0  0  0  0  0  0  0  0  0  0
   11.2820  -17.2820   22.4449 C   0  0  2  0  0  0  0  0  0  0  0  0
   10.9550  -16.2232   21.5295 N   0  0  0  0  0  0  0  0  0  0  0  0
   10.8829  -16.9179   23.8287 C   0  0  0  0  0  0  0  0  0  0  0  0
   10.5165  -17.9063   24.7062 O   0  0  0  0  0  0  0  0  0  0  0  0
   10.8831  -15.7326   24.1779 O   0  0  0  0  0  0  0  0  0  0  0  0
  1  2  1  0
  2  3  2  0
  4  2  1  0
  5  4  1  0
  5  6  1  1
  7 14  1  0
  7  5  1  0
  8  7  2  0
 10  9  1  0
 11 10  1  0
 11 12  1  1
 13 11  1  0
 13 14  1  6
 15 13  1  0
 16 15  2  0
 18 20  1  0
 18 17  1  1
 19 18  1  0
 20 21  1  6
 21 15  1  0
 22 20  1  0
 22 23  1  0
 24 22  2  0
M  END
$$$$
