NIT.pdb
     RDKit          3D

 24 23  0  0  1  0  0  0  0  0999 V2000
    5.0434  -17.9159   20.5077 N   0  0  0  0  0  0  0  0  0  0  0  0
    6.4584  -17.7286   20.4448 C   0  0  0  0  0  0  0  0  0  0  0  0
    6.9972  -17.9339   19.3249 O   0  0  0  0  0  0  0  0  0  0  0  0
    7.2598  -17.3226   21.6017 C   0  0  0  0  0  0  0  0  0  0  0  0
    7.4204  -15.8027   21.5591 C   0  0  2  0  0  0  0  0  0  0  0  0
    8.2073  -15.3833   20.4419 N   0  0  0  0  0  0  0  0  0  0  0  0
    8.1088  -15.4193   22.8213 C   0  0  0  0  0  0  0  0  0  0  0  0
    9.3624  -15.4690   22.8466 O   0  0  0  0  0  0  0  0  0  0  0  0
    5.8240  -11.7333   25.9864 C   0  0  0  0  0  0  0  0  0  0  0  0
    6.8737  -12.5126   25.2810 C   0  0  0  0  0  0  0  0  0  0  0  0
    7.4049  -13.7067   25.9991 C   0  0  2  0  0  0  0  0  0  0  0  0
    8.2174  -13.2111   27.1817 C   0  0  0  0  0  0  0  0  0  0  0  0
    8.1647  -14.6881   25.1714 C   0  0  2  0  0  0  0  0  0  0  0  0
    7.3983  -15.0070   23.9773 N   0  0  0  0  0  0  0  0  0  0  0  0
    8.4225  -15.9092   25.9757 C   0  0  0  0  0  0  0  0  0  0  0  0
    7.4474  -16.4836   26.5136 O   0  0  0  0  0  0  0  0  0  0  0  0
   10.1052  -18.9815   24.7474 C   0  0  0  0  0  0  0  0  0  0  0  0
   10.7402  -18.6768   26.1146 C   0  0  1  0  0  0  0  0  0  0  0  0
   11.9752  -18.1170   25.8246 O   0  0  0  0  0  0  0  0  0  0  0  0
    9.8787  -17.6849   26.8684 C   0  0  2  0  0  0  0  0  0  0  0  0
    9.7251  -16.4462   26.1559 N   0  0  0  0  0  0  0  0  0  0  0  0
   10.4383  -17.4425   28.2229 C   0  0  0  0  0  0  0  0  0  0  0  0
   10.4674  -18.4681   29.1332 O   0  0  0  0  0  0  0  0  0  0  0  0
   10.8711  -16.3236   28.5191 O   0  0  0  0  0  0  0  0  0  0  0  0
  1  2  1  0
  2  3  2  0
  4  2  1  0
  5  4  1  0
  5  6  1  6
  7 14  1  0
  7  5  1  0
  8  7  2  0
 10  9  1  0
 11 10  1  0
 11 12  1  1
 13 11  1  0
 13 14  1  6
 15 13  1  0
 16 15  2  0
 18 20  1  0
 18 17  1  6
 19 18  1  0
 20 21  1  6
 21 15  1  0
 22 20  1  0
 22 23  1  0
 24 22  2  0
M  END
$$$$
