NIT.pdb
     RDKit          3D

 24 23  0  0  1  0  0  0  0  0999 V2000
    8.1032  -18.5796   18.7535 N   0  0  0  0  0  0  0  0  0  0  0  0
    7.4476  -17.7159   19.6839 C   0  0  0  0  0  0  0  0  0  0  0  0
    6.2979  -17.3176   19.3580 O   0  0  0  0  0  0  0  0  0  0  0  0
    8.0559  -17.3017   20.9503 C   0  0  0  0  0  0  0  0  0  0  0  0
    8.0616  -15.7735   20.9979 C   0  0  2  0  0  0  0  0  0  0  0  0
    8.9256  -15.2150   20.0056 N   0  0  0  0  0  0  0  0  0  0  0  0
    8.5543  -15.3989   22.3509 C   0  0  0  0  0  0  0  0  0  0  0  0
    9.7810  -15.5213   22.5854 O   0  0  0  0  0  0  0  0  0  0  0  0
    7.1552  -11.8514   27.1916 C   0  0  0  0  0  0  0  0  0  0  0  0
    7.9327  -12.9661   26.5921 C   0  0  0  0  0  0  0  0  0  0  0  0
    7.4798  -13.4427   25.2536 C   0  0  2  0  0  0  0  0  0  0  0  0
    6.0082  -13.7984   25.3634 C   0  0  0  0  0  0  0  0  0  0  0  0
    8.2771  -14.5462   24.6437 C   0  0  2  0  0  0  0  0  0  0  0  0
    7.6896  -14.9161   23.3659 N   0  0  0  0  0  0  0  0  0  0  0  0
    8.2968  -15.7051   25.5716 C   0  0  0  0  0  0  0  0  0  0  0  0
    7.2025  -16.2046   25.9222 O   0  0  0  0  0  0  0  0  0  0  0  0
    9.2353  -18.9224   24.8181 C   0  0  0  0  0  0  0  0  0  0  0  0
   10.0408  -18.6553   26.1007 C   0  0  1  0  0  0  0  0  0  0  0  0
   11.3227  -18.3518   25.6677 O   0  0  0  0  0  0  0  0  0  0  0  0
    9.4449  -17.4766   26.8422 C   0  0  2  0  0  0  0  0  0  0  0  0
    9.5027  -16.2641   26.0726 N   0  0  0  0  0  0  0  0  0  0  0  0
   10.1223  -17.2968   28.1519 C   0  0  0  0  0  0  0  0  0  0  0  0
    9.9924  -18.2638   29.1159 O   0  0  0  0  0  0  0  0  0  0  0  0
   10.7945  -16.2817   28.3632 O   0  0  0  0  0  0  0  0  0  0  0  0
  1  2  1  0
  2  3  2  0
  4  2  1  0
  5  4  1  0
  5  6  1  6
  7 14  1  0
  7  5  1  0
  8  7  2  0
 10  9  1  0
 11 10  1  0
 11 12  1  1
 13 11  1  0
 13 14  1  6
 15 13  1  0
 16 15  2  0
 18 20  1  0
 18 17  1  6
 19 18  1  0
 20 21  1  6
 21 15  1  0
 22 20  1  0
 22 23  1  0
 24 22  2  0
M  END
$$$$
