NIT.pdb
     RDKit          3D

 24 23  0  0  1  0  0  0  0  0999 V2000
    7.4510  -21.3130   18.4466 N   0  0  0  0  0  0  0  0  0  0  0  0
    8.5218  -20.5423   17.8981 C   0  0  0  0  0  0  0  0  0  0  0  0
    8.8927  -20.8542   16.7354 O   0  0  0  0  0  0  0  0  0  0  0  0
    9.1687  -19.4478   18.6254 C   0  0  0  0  0  0  0  0  0  0  0  0
    8.4072  -18.1578   18.3195 C   0  0  2  0  0  0  0  0  0  0  0  0
    8.6394  -17.7089   16.9825 N   0  0  0  0  0  0  0  0  0  0  0  0
    8.9101  -17.1376   19.2788 C   0  0  0  0  0  0  0  0  0  0  0  0
   10.1275  -17.1646   19.5821 O   0  0  0  0  0  0  0  0  0  0  0  0
    6.8397  -12.0390   19.5830 C   0  0  0  0  0  0  0  0  0  0  0  0
    7.7680  -13.1987   19.5922 C   0  0  0  0  0  0  0  0  0  0  0  0
    7.8332  -13.9829   20.8588 C   0  0  2  0  0  0  0  0  0  0  0  0
    8.2917  -13.0444   21.9603 C   0  0  0  0  0  0  0  0  0  0  0  0
    8.6450  -15.2339   20.8170 C   0  0  2  0  0  0  0  0  0  0  0  0
    8.0650  -16.1527   19.8504 N   0  0  0  0  0  0  0  0  0  0  0  0
    8.6758  -15.8416   22.1714 C   0  0  0  0  0  0  0  0  0  0  0  0
    7.6390  -16.4038   22.5944 O   0  0  0  0  0  0  0  0  0  0  0  0
    8.4236  -18.3120   23.0790 C   0  0  0  0  0  0  0  0  0  0  0  0
    9.6928  -18.0781   23.9156 C   0  0  1  0  0  0  0  0  0  0  0  0
   10.7377  -18.5306   23.1241 O   0  0  0  0  0  0  0  0  0  0  0  0
    9.8523  -16.5989   24.1994 C   0  0  2  0  0  0  0  0  0  0  0  0
    9.8299  -15.8090   22.9988 N   0  0  0  0  0  0  0  0  0  0  0  0
   11.1028  -16.3534   24.9629 C   0  0  0  0  0  0  0  0  0  0  0  0
   12.1091  -15.6190   24.3890 O   0  0  0  0  0  0  0  0  0  0  0  0
   11.2273  -16.8108   26.1040 O   0  0  0  0  0  0  0  0  0  0  0  0
  1  2  1  0
  2  3  2  0
  4  2  1  0
  5  4  1  0
  5  6  1  6
  7 14  1  0
  7  5  1  0
  8  7  2  0
 10  9  1  0
 11 10  1  0
 11 12  1  1
 13 11  1  0
 13 14  1  6
 15 13  1  0
 16 15  2  0
 18 20  1  0
 18 17  1  6
 19 18  1  0
 20 21  1  6
 21 15  1  0
 22 20  1  0
 22 23  1  0
 24 22  2  0
M  END
$$$$
