NIT.pdb
     RDKit          3D

 24 23  0  0  1  0  0  0  0  0999 V2000
    8.3894  -21.2939   17.7366 N   0  0  0  0  0  0  0  0  0  0  0  0
    9.3487  -20.3937   17.1792 C   0  0  0  0  0  0  0  0  0  0  0  0
    9.5975  -20.5358   15.9526 O   0  0  0  0  0  0  0  0  0  0  0  0
   10.0194  -19.3572   17.9674 C   0  0  0  0  0  0  0  0  0  0  0  0
    9.4001  -18.0075   17.6033 C   0  0  2  0  0  0  0  0  0  0  0  0
    9.9150  -17.5032   16.3690 N   0  0  0  0  0  0  0  0  0  0  0  0
    9.7545  -17.0735   18.7060 C   0  0  0  0  0  0  0  0  0  0  0  0
   10.9705  -16.8472   18.9178 O   0  0  0  0  0  0  0  0  0  0  0  0
    6.6686  -12.7187   19.9835 C   0  0  0  0  0  0  0  0  0  0  0  0
    7.8856  -13.5518   19.8055 C   0  0  0  0  0  0  0  0  0  0  0  0
    8.1590  -14.5584   20.8712 C   0  0  2  0  0  0  0  0  0  0  0  0
    8.4318  -13.8043   22.1600 C   0  0  0  0  0  0  0  0  0  0  0  0
    9.2245  -15.5591   20.5732 C   0  0  2  0  0  0  0  0  0  0  0  0
    8.7718  -16.4435   19.5112 N   0  0  0  0  0  0  0  0  0  0  0  0
    9.5313  -16.3276   21.8060 C   0  0  0  0  0  0  0  0  0  0  0  0
    8.6824  -17.1510   22.2200 O   0  0  0  0  0  0  0  0  0  0  0  0
   12.7350  -18.1420   25.0745 C   0  0  0  0  0  0  0  0  0  0  0  0
   12.5058  -17.1928   23.8863 C   0  0  1  0  0  0  0  0  0  0  0  0
   13.1110  -17.8135   22.8039 O   0  0  0  0  0  0  0  0  0  0  0  0
   11.0201  -17.0354   23.6372 C   0  0  2  0  0  0  0  0  0  0  0  0
   10.7437  -16.1643   22.5279 N   0  0  0  0  0  0  0  0  0  0  0  0
   10.3412  -16.5483   24.8655 C   0  0  0  0  0  0  0  0  0  0  0  0
    9.8710  -17.4559   25.7802 O   0  0  0  0  0  0  0  0  0  0  0  0
   10.2048  -15.3346   25.0535 O   0  0  0  0  0  0  0  0  0  0  0  0
  1  2  1  0
  2  3  2  0
  4  2  1  0
  5  4  1  0
  5  6  1  6
  7 14  1  0
  7  5  1  0
  8  7  2  0
 10  9  1  0
 11 10  1  0
 11 12  1  1
 13 11  1  0
 13 14  1  6
 15 13  1  0
 16 15  2  0
 18 20  1  0
 18 17  1  1
 19 18  1  0
 20 21  1  6
 21 15  1  0
 22 20  1  0
 22 23  1  0
 24 22  2  0
M  END
$$$$
