NIT.pdb
     RDKit          3D

 24 23  0  0  1  0  0  0  0  0999 V2000
    7.4244  -18.4808   18.8592 N   0  0  0  0  0  0  0  0  0  0  0  0
    7.2949  -17.1834   19.4435 C   0  0  0  0  0  0  0  0  0  0  0  0
    6.6410  -16.3368   18.7784 O   0  0  0  0  0  0  0  0  0  0  0  0
    7.8799  -16.8322   20.7396 C   0  0  0  0  0  0  0  0  0  0  0  0
    8.0594  -15.3145   20.7849 C   0  0  2  0  0  0  0  0  0  0  0  0
    8.9948  -14.8613   19.8036 N   0  0  0  0  0  0  0  0  0  0  0  0
    8.5735  -14.9944   22.1439 C   0  0  0  0  0  0  0  0  0  0  0  0
    9.8037  -15.1255   22.3538 O   0  0  0  0  0  0  0  0  0  0  0  0
    7.2774  -11.7215   27.1981 C   0  0  0  0  0  0  0  0  0  0  0  0
    8.0407  -12.8013   26.5214 C   0  0  0  0  0  0  0  0  0  0  0  0
    7.5058  -13.2662   25.2094 C   0  0  2  0  0  0  0  0  0  0  0  0
    6.0811  -13.7400   25.4330 C   0  0  0  0  0  0  0  0  0  0  0  0
    8.3255  -14.2823   24.4874 C   0  0  2  0  0  0  0  0  0  0  0  0
    7.7249  -14.5534   23.1911 N   0  0  0  0  0  0  0  0  0  0  0  0
    8.4001  -15.5198   25.3046 C   0  0  0  0  0  0  0  0  0  0  0  0
    7.3348  -16.1271   25.5623 O   0  0  0  0  0  0  0  0  0  0  0  0
    9.9408  -18.5891   24.3500 C   0  0  0  0  0  0  0  0  0  0  0  0
   10.4969  -18.3275   25.7599 C   0  0  1  0  0  0  0  0  0  0  0  0
   11.7706  -17.8175   25.5588 O   0  0  0  0  0  0  0  0  0  0  0  0
    9.6300  -17.3084   26.4701 C   0  0  2  0  0  0  0  0  0  0  0  0
    9.6266  -16.0364   25.8010 N   0  0  0  0  0  0  0  0  0  0  0  0
   10.0675  -17.1551   27.8814 C   0  0  0  0  0  0  0  0  0  0  0  0
    9.9680  -18.2223   28.7372 O   0  0  0  0  0  0  0  0  0  0  0  0
   10.5154  -16.0720   28.2730 O   0  0  0  0  0  0  0  0  0  0  0  0
  1  2  1  0
  2  3  2  0
  4  2  1  0
  5  4  1  0
  5  6  1  6
  7 14  1  0
  7  5  1  0
  8  7  2  0
 10  9  1  0
 11 10  1  0
 11 12  1  1
 13 11  1  0
 13 14  1  6
 15 13  1  0
 16 15  2  0
 18 20  1  0
 18 17  1  6
 19 18  1  0
 20 21  1  6
 21 15  1  0
 22 20  1  0
 22 23  1  0
 24 22  2  0
M  END
$$$$
