NIT.pdb
     RDKit          3D

 24 23  0  0  1  0  0  0  0  0999 V2000
   11.1778  -18.5367   16.4871 N   0  0  0  0  0  0  0  0  0  0  0  0
   11.5392  -18.4403   17.8660 C   0  0  0  0  0  0  0  0  0  0  0  0
   12.1717  -19.4187   18.3448 O   0  0  0  0  0  0  0  0  0  0  0  0
   11.2046  -17.2817   18.6973 C   0  0  0  0  0  0  0  0  0  0  0  0
   10.7065  -17.7940   20.0491 C   0  0  2  0  0  0  0  0  0  0  0  0
    9.5103  -18.5651   19.9162 N   0  0  0  0  0  0  0  0  0  0  0  0
   10.4296  -16.5892   20.8769 C   0  0  0  0  0  0  0  0  0  0  0  0
   11.3952  -15.8452   21.1751 O   0  0  0  0  0  0  0  0  0  0  0  0
    6.7187  -13.0181   19.8273 C   0  0  0  0  0  0  0  0  0  0  0  0
    7.9391  -13.6645   20.3746 C   0  0  0  0  0  0  0  0  0  0  0  0
    7.8071  -14.2930   21.7204 C   0  0  2  0  0  0  0  0  0  0  0  0
    7.4406  -13.1993   22.7072 C   0  0  0  0  0  0  0  0  0  0  0  0
    8.9723  -15.0992   22.1872 C   0  0  2  0  0  0  0  0  0  0  0  0
    9.1260  -16.2647   21.3312 N   0  0  0  0  0  0  0  0  0  0  0  0
    8.7513  -15.5052   23.5982 C   0  0  0  0  0  0  0  0  0  0  0  0
    8.5287  -14.6103   24.4465 O   0  0  0  0  0  0  0  0  0  0  0  0
    6.0112  -17.2837   24.9551 C   0  0  0  0  0  0  0  0  0  0  0  0
    7.2309  -18.0445   25.5018 C   0  0  1  0  0  0  0  0  0  0  0  0
    7.3511  -19.1656   24.6945 O   0  0  0  0  0  0  0  0  0  0  0  0
    8.4681  -17.1786   25.3843 C   0  0  2  0  0  0  0  0  0  0  0  0
    8.7827  -16.8618   24.0182 N   0  0  0  0  0  0  0  0  0  0  0  0
    9.6226  -17.8381   26.0468 C   0  0  0  0  0  0  0  0  0  0  0  0
    9.5309  -18.1864   27.3703 O   0  0  0  0  0  0  0  0  0  0  0  0
   10.6529  -18.0668   25.4042 O   0  0  0  0  0  0  0  0  0  0  0  0
  1  2  1  0
  2  3  2  0
  4  2  1  0
  5  4  1  0
  5  6  1  6
  7 14  1  0
  7  5  1  0
  8  7  2  0
 10  9  1  0
 11 10  1  0
 11 12  1  1
 13 11  1  0
 13 14  1  6
 15 13  1  0
 16 15  2  0
 18 20  1  0
 18 17  1  6
 19 18  1  0
 20 21  1  6
 21 15  1  0
 22 20  1  0
 22 23  1  0
 24 22  2  0
M  END
$$$$
