NIT.pdb
     RDKit          3D

 24 23  0  0  1  0  0  0  0  0999 V2000
   10.7899  -19.3684   15.7349 N   0  0  0  0  0  0  0  0  0  0  0  0
   10.5719  -18.0170   15.3256 C   0  0  0  0  0  0  0  0  0  0  0  0
   11.0075  -17.7040   14.1858 O   0  0  0  0  0  0  0  0  0  0  0  0
    9.8851  -17.0322   16.1646 C   0  0  0  0  0  0  0  0  0  0  0  0
    9.5026  -17.7118   17.4796 C   0  0  2  0  0  0  0  0  0  0  0  0
    8.1193  -18.0704   17.5088 N   0  0  0  0  0  0  0  0  0  0  0  0
    9.7810  -16.7244   18.5573 C   0  0  0  0  0  0  0  0  0  0  0  0
   10.9778  -16.4239   18.7855 O   0  0  0  0  0  0  0  0  0  0  0  0
    6.8635  -12.2701   19.6420 C   0  0  0  0  0  0  0  0  0  0  0  0
    8.0011  -13.2210   19.5507 C   0  0  0  0  0  0  0  0  0  0  0  0
    8.1143  -14.2233   20.6490 C   0  0  2  0  0  0  0  0  0  0  0  0
    8.3293  -13.4649   21.9463 C   0  0  0  0  0  0  0  0  0  0  0  0
    9.1297  -15.2990   20.4560 C   0  0  2  0  0  0  0  0  0  0  0  0
    8.7477  -16.1244   19.3212 N   0  0  0  0  0  0  0  0  0  0  0  0
    9.2205  -16.1129   21.6945 C   0  0  0  0  0  0  0  0  0  0  0  0
    8.2972  -16.9227   21.9428 O   0  0  0  0  0  0  0  0  0  0  0  0
   11.5360  -19.3066   23.9897 C   0  0  0  0  0  0  0  0  0  0  0  0
   11.1193  -18.3008   22.9033 C   0  0  1  0  0  0  0  0  0  0  0  0
   10.1526  -18.9550   22.1546 O   0  0  0  0  0  0  0  0  0  0  0  0
   10.5330  -17.0633   23.5506 C   0  0  2  0  0  0  0  0  0  0  0  0
   10.3086  -16.0075   22.6016 N   0  0  0  0  0  0  0  0  0  0  0  0
   11.4098  -16.5956   24.6547 C   0  0  0  0  0  0  0  0  0  0  0  0
   11.3803  -17.2481   25.8608 O   0  0  0  0  0  0  0  0  0  0  0  0
   12.1557  -15.6260   24.4800 O   0  0  0  0  0  0  0  0  0  0  0  0
  1  2  1  0
  2  3  2  0
  4  2  1  0
  5  4  1  0
  5  6  1  6
  7 14  1  0
  7  5  1  0
  8  7  2  0
 10  9  1  0
 11 10  1  0
 11 12  1  1
 13 11  1  0
 13 14  1  6
 15 13  1  0
 16 15  2  0
 18 20  1  0
 18 17  1  1
 19 18  1  0
 20 21  1  6
 21 15  1  0
 22 20  1  0
 22 23  1  0
 24 22  2  0
M  END
$$$$
