NIT.pdb
     RDKit          3D

 24 23  0  0  1  0  0  0  0  0999 V2000
    6.6303  -16.3698   18.7734 N   0  0  0  0  0  0  0  0  0  0  0  0
    6.5200  -17.2472   19.8956 C   0  0  0  0  0  0  0  0  0  0  0  0
    5.9506  -18.3509   19.6847 O   0  0  0  0  0  0  0  0  0  0  0  0
    7.0304  -16.9065   21.2256 C   0  0  0  0  0  0  0  0  0  0  0  0
    7.4283  -15.4303   21.2186 C   0  0  2  0  0  0  0  0  0  0  0  0
    8.4033  -15.1484   20.2122 N   0  0  0  0  0  0  0  0  0  0  0  0
    8.0052  -15.1461   22.5603 C   0  0  0  0  0  0  0  0  0  0  0  0
    9.2403  -15.3050   22.7156 O   0  0  0  0  0  0  0  0  0  0  0  0
    5.9444  -11.2730   25.8212 C   0  0  0  0  0  0  0  0  0  0  0  0
    6.8679  -12.1938   25.1098 C   0  0  0  0  0  0  0  0  0  0  0  0
    7.0867  -13.5274   25.7401 C   0  0  2  0  0  0  0  0  0  0  0  0
    7.7052  -13.2965   27.1070 C   0  0  0  0  0  0  0  0  0  0  0  0
    7.8622  -14.5159   24.9358 C   0  0  2  0  0  0  0  0  0  0  0  0
    7.2103  -14.7087   23.6502 N   0  0  0  0  0  0  0  0  0  0  0  0
    7.9452  -15.7961   25.6835 C   0  0  0  0  0  0  0  0  0  0  0  0
    6.9357  -16.5380   25.7060 O   0  0  0  0  0  0  0  0  0  0  0  0
    8.5355  -18.3117   24.5199 C   0  0  0  0  0  0  0  0  0  0  0  0
    9.5561  -18.5105   25.6532 C   0  0  1  0  0  0  0  0  0  0  0  0
   10.7841  -18.1862   25.0968 O   0  0  0  0  0  0  0  0  0  0  0  0
    9.2358  -17.5736   26.7995 C   0  0  2  0  0  0  0  0  0  0  0  0
    9.1194  -16.2073   26.3690 N   0  0  0  0  0  0  0  0  0  0  0  0
   10.2599  -17.6991   27.8682 C   0  0  0  0  0  0  0  0  0  0  0  0
   10.3192  -18.8497   28.6125 O   0  0  0  0  0  0  0  0  0  0  0  0
   11.0472  -16.7703   28.0787 O   0  0  0  0  0  0  0  0  0  0  0  0
  1  2  1  0
  2  3  2  0
  4  2  1  0
  5  4  1  0
  5  6  1  6
  7 14  1  0
  7  5  1  0
  8  7  2  0
 10  9  1  0
 11 10  1  0
 11 12  1  1
 13 11  1  0
 13 14  1  6
 15 13  1  0
 16 15  2  0
 18 20  1  0
 18 17  1  6
 19 18  1  0
 20 21  1  6
 21 15  1  0
 22 20  1  0
 22 23  1  0
 24 22  2  0
M  END
$$$$
