NIT.pdb
     RDKit          3D

 24 23  0  0  1  0  0  0  0  0999 V2000
    8.4484  -20.1381   16.5885 N   0  0  0  0  0  0  0  0  0  0  0  0
    8.9360  -20.4902   17.8844 C   0  0  0  0  0  0  0  0  0  0  0  0
    8.8311  -21.7032   18.2074 O   0  0  0  0  0  0  0  0  0  0  0  0
    9.5275  -19.5156   18.8042 C   0  0  0  0  0  0  0  0  0  0  0  0
    9.4513  -18.1362   18.1492 C   0  0  2  0  0  0  0  0  0  0  0  0
   10.4174  -17.9901   17.1060 N   0  0  0  0  0  0  0  0  0  0  0  0
    9.7302  -17.1465   19.2245 C   0  0  0  0  0  0  0  0  0  0  0  0
   10.9270  -16.9468   19.5448 O   0  0  0  0  0  0  0  0  0  0  0  0
    6.7833  -12.5413   19.9733 C   0  0  0  0  0  0  0  0  0  0  0  0
    7.9069  -13.5111   19.9134 C   0  0  0  0  0  0  0  0  0  0  0  0
    8.0327  -14.4488   21.0661 C   0  0  2  0  0  0  0  0  0  0  0  0
    8.2160  -13.6155   22.3216 C   0  0  0  0  0  0  0  0  0  0  0  0
    9.0755  -15.5083   20.9416 C   0  0  2  0  0  0  0  0  0  0  0  0
    8.6974  -16.4352   19.8868 N   0  0  0  0  0  0  0  0  0  0  0  0
    9.2125  -16.2137   22.2409 C   0  0  0  0  0  0  0  0  0  0  0  0
    8.2311  -16.8629   22.6714 O   0  0  0  0  0  0  0  0  0  0  0  0
   12.9207  -17.5545   23.6104 C   0  0  0  0  0  0  0  0  0  0  0  0
   11.5382  -18.1602   23.9062 C   0  0  1  0  0  0  0  0  0  0  0  0
   11.7094  -18.9086   25.0610 O   0  0  0  0  0  0  0  0  0  0  0  0
   10.5347  -17.0509   24.1440 C   0  0  2  0  0  0  0  0  0  0  0  0
   10.4075  -16.1796   23.0081 N   0  0  0  0  0  0  0  0  0  0  0  0
   10.9014  -16.2768   25.3577 C   0  0  0  0  0  0  0  0  0  0  0  0
   10.8991  -16.8993   26.5799 O   0  0  0  0  0  0  0  0  0  0  0  0
   11.2038  -15.0828   25.2584 O   0  0  0  0  0  0  0  0  0  0  0  0
  1  2  1  0
  2  3  2  0
  4  2  1  0
  5  4  1  0
  5  6  1  6
  7 14  1  0
  7  5  1  0
  8  7  2  0
 10  9  1  0
 11 10  1  0
 11 12  1  1
 13 11  1  0
 13 14  1  6
 15 13  1  0
 16 15  2  0
 18 20  1  0
 18 17  1  1
 19 18  1  0
 20 21  1  6
 21 15  1  0
 22 20  1  0
 22 23  1  0
 24 22  2  0
M  END
$$$$
