NIT.pdb
     RDKit          3D

 24 23  0  0  1  0  0  0  0  0999 V2000
    5.0320  -17.6025   19.9558 N   0  0  0  0  0  0  0  0  0  0  0  0
    6.4476  -17.4562   19.8291 C   0  0  0  0  0  0  0  0  0  0  0  0
    6.9250  -17.6419   18.6783 O   0  0  0  0  0  0  0  0  0  0  0  0
    7.3163  -17.1116   20.9569 C   0  0  0  0  0  0  0  0  0  0  0  0
    7.5778  -15.6058   20.9131 C   0  0  2  0  0  0  0  0  0  0  0  0
    8.4717  -15.2531   19.8550 N   0  0  0  0  0  0  0  0  0  0  0  0
    8.1931  -15.2499   22.2203 C   0  0  0  0  0  0  0  0  0  0  0  0
    9.4267  -15.4331   22.3595 O   0  0  0  0  0  0  0  0  0  0  0  0
    7.1544  -11.8620   27.3043 C   0  0  0  0  0  0  0  0  0  0  0  0
    7.9170  -12.9073   26.5746 C   0  0  0  0  0  0  0  0  0  0  0  0
    7.3546  -13.3413   25.2634 C   0  0  2  0  0  0  0  0  0  0  0  0
    5.9215  -13.7829   25.4988 C   0  0  0  0  0  0  0  0  0  0  0  0
    8.1400  -14.3673   24.5179 C   0  0  2  0  0  0  0  0  0  0  0  0
    7.4356  -14.7189   23.2951 N   0  0  0  0  0  0  0  0  0  0  0  0
    8.3282  -15.5606   25.3811 C   0  0  0  0  0  0  0  0  0  0  0  0
    7.3106  -16.1807   25.7684 O   0  0  0  0  0  0  0  0  0  0  0  0
   10.0392  -18.5709   24.4050 C   0  0  0  0  0  0  0  0  0  0  0  0
   10.6074  -18.2608   25.8001 C   0  0  1  0  0  0  0  0  0  0  0  0
   11.8586  -17.7098   25.5681 O   0  0  0  0  0  0  0  0  0  0  0  0
    9.7156  -17.2592   26.5040 C   0  0  2  0  0  0  0  0  0  0  0  0
    9.6110  -16.0215   25.7809 N   0  0  0  0  0  0  0  0  0  0  0  0
   10.2041  -17.0171   27.8858 C   0  0  0  0  0  0  0  0  0  0  0  0
   10.1959  -18.0458   28.7930 O   0  0  0  0  0  0  0  0  0  0  0  0
   10.6120  -15.8958   28.2071 O   0  0  0  0  0  0  0  0  0  0  0  0
  1  2  1  0
  2  3  2  0
  4  2  1  0
  5  4  1  0
  5  6  1  6
  7 14  1  0
  7  5  1  0
  8  7  2  0
 10  9  1  0
 11 10  1  0
 11 12  1  1
 13 11  1  0
 13 14  1  6
 15 13  1  0
 16 15  2  0
 18 20  1  0
 18 17  1  6
 19 18  1  0
 20 21  1  6
 21 15  1  0
 22 20  1  0
 22 23  1  0
 24 22  2  0
M  END
$$$$
