TYL.pdb
     RDKit          3D

 28 28  0  0  1  0  0  0  0  0999 V2000
   28.4140  -22.2325  -17.0541 C   0  0  0  0  0  0  0  0  0  0  0  0
   29.0656  -20.8768  -17.3319 C   0  0  1  0  0  0  0  0  0  0  0  0
   30.2008  -21.1400  -18.1004 O   0  0  0  0  0  0  0  0  0  0  0  0
   28.0815  -20.0656  -18.1240 C   0  0  2  0  0  0  0  0  0  0  0  0
   28.7381  -18.8586  -18.5788 N   0  0  0  0  0  0  0  0  0  0  0  0
   26.8625  -19.7187  -17.4055 C   0  0  0  0  0  0  0  0  0  0  0  0
   26.9009  -18.8105  -16.5288 O   0  0  0  0  0  0  0  0  0  0  0  0
   18.4157  -18.8711  -14.7808 O   0  0  0  0  0  0  0  0  0  0  0  0
   19.5761  -19.1832  -15.4768 C   0  0  0  0  0  0  0  0  0  0  0  0
   20.1295  -20.4401  -15.4884 C   0  0  0  0  0  0  0  0  0  0  0  0
   21.2794  -20.6927  -16.1946 C   0  0  0  0  0  0  0  0  0  0  0  0
   21.9371  -19.6981  -16.9277 C   0  0  0  0  0  0  0  0  0  0  0  0
   23.1791  -20.0302  -17.6468 C   0  0  0  0  0  0  0  0  0  0  0  0
   24.4364  -19.9040  -16.8555 C   0  0  2  0  0  0  0  0  0  0  0  0
   25.5994  -20.3349  -17.6155 N   0  0  0  0  0  0  0  0  0  0  0  0
   24.3351  -20.7062  -15.6114 C   0  0  0  0  0  0  0  0  0  0  0  0
   24.4800  -21.9702  -15.7496 O   0  0  0  0  0  0  0  0  0  0  0  0
   21.3714  -18.4291  -16.9109 C   0  0  0  0  0  0  0  0  0  0  0  0
   20.2168  -18.1994  -16.1951 C   0  0  0  0  0  0  0  0  0  0  0  0
   24.9727  -20.2620   -9.6341 C   0  0  0  0  0  0  0  0  0  0  0  0
   25.0181  -21.2241  -10.8160 C   0  0  2  0  0  0  0  0  0  0  0  0
   26.2174  -22.1155  -10.6392 C   0  0  0  0  0  0  0  0  0  0  0  0
   25.0367  -20.4772  -12.1208 C   0  0  0  0  0  0  0  0  0  0  0  0
   24.0851  -20.9997  -13.1403 C   0  0  2  0  0  0  0  0  0  0  0  0
   24.0983  -20.1677  -14.3461 N   0  0  0  0  0  0  0  0  0  0  0  0
   22.7098  -21.0080  -12.5892 C   0  0  0  0  0  0  0  0  0  0  0  0
   22.3381  -22.0007  -11.8653 O   0  0  0  0  0  0  0  0  0  0  0  0
   21.7634  -20.0377  -12.7737 O   0  0  0  0  0  0  0  0  0  0  0  0
  2  1  1  6
  2  3  1  0
  4  2  1  0
  4  5  1  1
  6  7  2  0
  6  4  1  0
  9  8  1  0
 10  9  2  0
 11 10  1  0
 12 18  1  0
 12 11  2  0
 14 13  1  6
 13 12  1  0
 14 15  1  0
 15  6  1  0
 16 14  1  0
 17 16  2  0
 18 19  2  0
 19  9  1  0
 21 20  1  1
 21 22  1  0
 24 23  1  1
 23 21  1  0
 24 25  1  0
 25 16  1  0
 26 28  1  0
 26 24  1  0
 27 26  2  0
M  END
$$$$
