TYL.pdb
     RDKit          3D

 28 28  0  0  1  0  0  0  0  0999 V2000
   19.5974   -8.6141  -19.8254 C   0  0  0  0  0  0  0  0  0  0  0  0
   20.7442   -9.3678  -19.1498 C   0  0  1  0  0  0  0  0  0  0  0  0
   21.4736   -9.9697  -20.1766 O   0  0  0  0  0  0  0  0  0  0  0  0
   21.5901   -8.3481  -18.4436 C   0  0  2  0  0  0  0  0  0  0  0  0
   22.8358   -8.9725  -18.0523 N   0  0  0  0  0  0  0  0  0  0  0  0
   20.9612   -7.7385  -17.2793 C   0  0  0  0  0  0  0  0  0  0  0  0
   19.8747   -7.1110  -17.4233 O   0  0  0  0  0  0  0  0  0  0  0  0
   18.1786   -5.7713   -9.0927 O   0  0  0  0  0  0  0  0  0  0  0  0
   18.8409   -6.2937  -10.1958 C   0  0  0  0  0  0  0  0  0  0  0  0
   18.3239   -7.2997  -10.9747 C   0  0  0  0  0  0  0  0  0  0  0  0
   19.0228   -7.7787  -12.0550 C   0  0  0  0  0  0  0  0  0  0  0  0
   20.2786   -7.2745  -12.4129 C   0  0  0  0  0  0  0  0  0  0  0  0
   20.9856   -7.8471  -13.5715 C   0  0  0  0  0  0  0  0  0  0  0  0
   20.7875   -7.1335  -14.8655 C   0  0  2  0  0  0  0  0  0  0  0  0
   21.4838   -7.7933  -15.9591 N   0  0  0  0  0  0  0  0  0  0  0  0
   21.2644   -5.7332  -14.7504 C   0  0  0  0  0  0  0  0  0  0  0  0
   22.5307   -5.5669  -14.8324 O   0  0  0  0  0  0  0  0  0  0  0  0
   20.7951   -6.2571  -11.6200 C   0  0  0  0  0  0  0  0  0  0  0  0
   20.0754   -5.7925  -10.5409 C   0  0  0  0  0  0  0  0  0  0  0  0
   20.9006   -0.6658  -16.3784 C   0  0  0  0  0  0  0  0  0  0  0  0
   22.0647   -1.6408  -16.2405 C   0  0  2  0  0  0  0  0  0  0  0  0
   22.9180   -1.5176  -17.4738 C   0  0  0  0  0  0  0  0  0  0  0  0
   21.5718   -3.0428  -16.0128 C   0  0  0  0  0  0  0  0  0  0  0  0
   20.9200   -3.2568  -14.6910 C   0  0  2  0  0  0  0  0  0  0  0  0
   20.4290   -4.6313  -14.5639 N   0  0  0  0  0  0  0  0  0  0  0  0
   19.7729   -2.3313  -14.5385 C   0  0  0  0  0  0  0  0  0  0  0  0
   18.6337   -2.6711  -15.0225 O   0  0  0  0  0  0  0  0  0  0  0  0
   19.7988   -1.1143  -13.9146 O   0  0  0  0  0  0  0  0  0  0  0  0
  2  1  1  6
  2  3  1  0
  4  2  1  0
  4  5  1  1
  6  7  2  0
  6  4  1  0
  9  8  1  0
 10  9  2  0
 11 10  1  0
 12 18  1  0
 12 11  2  0
 14 13  1  1
 13 12  1  0
 14 15  1  0
 15  6  1  0
 16 14  1  0
 17 16  2  0
 18 19  2  0
 19  9  1  0
 21 20  1  6
 21 22  1  0
 24 23  1  6
 23 21  1  0
 24 25  1  0
 25 16  1  0
 26 28  1  0
 26 24  1  0
 27 26  2  0
M  END
$$$$
