TYL.pdb
     RDKit          3D

 28 28  0  0  1  0  0  0  0  0999 V2000
   29.6234  -22.2231  -18.7667 C   0  0  0  0  0  0  0  0  0  0  0  0
   28.6617  -22.0666  -17.5876 C   0  0  1  0  0  0  0  0  0  0  0  0
   29.4546  -21.7986  -16.4705 O   0  0  0  0  0  0  0  0  0  0  0  0
   27.7781  -20.8907  -17.8888 C   0  0  2  0  0  0  0  0  0  0  0  0
   28.6139  -19.7652  -18.2483 N   0  0  0  0  0  0  0  0  0  0  0  0
   26.8837  -20.5094  -16.8037 C   0  0  0  0  0  0  0  0  0  0  0  0
   27.0316  -19.3844  -16.2494 O   0  0  0  0  0  0  0  0  0  0  0  0
   19.9103  -19.5500  -11.4411 O   0  0  0  0  0  0  0  0  0  0  0  0
   20.7964  -19.9739  -12.4226 C   0  0  0  0  0  0  0  0  0  0  0  0
   21.4629  -21.1733  -12.3650 C   0  0  0  0  0  0  0  0  0  0  0  0
   22.3286  -21.5424  -13.3646 C   0  0  0  0  0  0  0  0  0  0  0  0
   22.5729  -20.7283  -14.4768 C   0  0  0  0  0  0  0  0  0  0  0  0
   23.5299  -21.1740  -15.5042 C   0  0  0  0  0  0  0  0  0  0  0  0
   24.9573  -20.8261  -15.2508 C   0  0  2  0  0  0  0  0  0  0  0  0
   25.8299  -21.3213  -16.3042 N   0  0  0  0  0  0  0  0  0  0  0  0
   25.3916  -21.3853  -13.9469 C   0  0  0  0  0  0  0  0  0  0  0  0
   26.0869  -22.4582  -14.0040 O   0  0  0  0  0  0  0  0  0  0  0  0
   21.8951  -19.5164  -14.5279 C   0  0  0  0  0  0  0  0  0  0  0  0
   21.0312  -19.1674  -13.5130 C   0  0  0  0  0  0  0  0  0  0  0  0
   27.4604  -20.5167   -9.0639 C   0  0  0  0  0  0  0  0  0  0  0  0
   27.9107  -21.3886  -10.2308 C   0  0  2  0  0  0  0  0  0  0  0  0
   29.4053  -21.2617  -10.3513 C   0  0  0  0  0  0  0  0  0  0  0  0
   27.1918  -21.0118  -11.4964 C   0  0  0  0  0  0  0  0  0  0  0  0
   25.7262  -21.2747  -11.4709 C   0  0  2  0  0  0  0  0  0  0  0  0
   25.0891  -20.8179  -12.7085 N   0  0  0  0  0  0  0  0  0  0  0  0
   25.1055  -20.5605  -10.3306 C   0  0  0  0  0  0  0  0  0  0  0  0
   24.6667  -19.3679  -10.5110 O   0  0  0  0  0  0  0  0  0  0  0  0
   24.9428  -21.0537   -9.0651 O   0  0  0  0  0  0  0  0  0  0  0  0
  2  1  1  6
  2  3  1  0
  4  2  1  0
  4  5  1  1
  6  7  2  0
  6  4  1  0
  9  8  1  0
 10  9  2  0
 11 10  1  0
 12 18  1  0
 12 11  2  0
 14 13  1  6
 13 12  1  0
 14 15  1  0
 15  6  1  0
 16 14  1  0
 17 16  2  0
 18 19  2  0
 19  9  1  0
 21 20  1  1
 21 22  1  0
 24 23  1  6
 23 21  1  0
 24 25  1  0
 25 16  1  0
 26 28  1  0
 26 24  1  0
 27 26  2  0
M  END
$$$$
