TYL.pdb
     RDKit          3D

 28 28  0  0  1  0  0  0  0  0999 V2000
   26.7619  -19.8379  -17.9463 C   0  0  0  0  0  0  0  0  0  0  0  0
   27.4592  -21.1600  -18.2711 C   0  0  1  0  0  0  0  0  0  0  0  0
   28.4672  -20.8544  -19.1872 O   0  0  0  0  0  0  0  0  0  0  0  0
   28.0593  -21.6707  -16.9931 C   0  0  2  0  0  0  0  0  0  0  0  0
   28.7020  -22.9398  -17.2596 N   0  0  0  0  0  0  0  0  0  0  0  0
   27.1130  -21.8220  -15.8957 C   0  0  0  0  0  0  0  0  0  0  0  0
   26.3730  -22.8446  -15.8565 O   0  0  0  0  0  0  0  0  0  0  0  0
   22.7780  -21.0203   -8.1393 O   0  0  0  0  0  0  0  0  0  0  0  0
   23.6507  -20.8656   -9.2083 C   0  0  0  0  0  0  0  0  0  0  0  0
   24.9621  -21.2718   -9.1716 C   0  0  0  0  0  0  0  0  0  0  0  0
   25.7812  -21.0941  -10.2590 C   0  0  0  0  0  0  0  0  0  0  0  0
   25.3294  -20.4991  -11.4427 C   0  0  0  0  0  0  0  0  0  0  0  0
   26.2654  -20.3187  -12.5657 C   0  0  0  0  0  0  0  0  0  0  0  0
   25.9850  -21.1403  -13.7778 C   0  0  2  0  0  0  0  0  0  0  0  0
   26.9497  -20.8884  -14.8370 N   0  0  0  0  0  0  0  0  0  0  0  0
   24.6175  -20.8554  -14.2781 C   0  0  0  0  0  0  0  0  0  0  0  0
   24.4579  -19.7218  -14.8504 O   0  0  0  0  0  0  0  0  0  0  0  0
   24.0016  -20.0907  -11.4721 C   0  0  0  0  0  0  0  0  0  0  0  0
   23.1986  -20.2795  -10.3686 C   0  0  0  0  0  0  0  0  0  0  0  0
   20.5030  -22.5616  -17.9499 C   0  0  0  0  0  0  0  0  0  0  0  0
   20.6945  -21.7444  -16.6771 C   0  0  2  0  0  0  0  0  0  0  0  0
   20.5278  -20.2917  -17.0323 C   0  0  0  0  0  0  0  0  0  0  0  0
   22.0248  -22.0380  -16.0409 C   0  0  0  0  0  0  0  0  0  0  0  0
   22.2166  -21.4120  -14.7033 C   0  0  2  0  0  0  0  0  0  0  0  0
   23.5384  -21.7319  -14.1585 N   0  0  0  0  0  0  0  0  0  0  0  0
   21.1864  -21.9090  -13.7614 C   0  0  0  0  0  0  0  0  0  0  0  0
   19.9522  -21.6483  -13.9987 O   0  0  0  0  0  0  0  0  0  0  0  0
   21.4177  -22.6421  -12.6300 O   0  0  0  0  0  0  0  0  0  0  0  0
  2  1  1  1
  2  3  1  0
  4  2  1  0
  4  5  1  6
  6  7  2  0
  6  4  1  0
  9  8  1  0
 10  9  2  0
 11 10  1  0
 12 18  1  0
 12 11  2  0
 14 13  1  1
 13 12  1  0
 14 15  1  0
 15  6  1  0
 16 14  1  0
 17 16  2  0
 18 19  2  0
 19  9  1  0
 21 20  1  6
 21 22  1  0
 24 23  1  6
 23 21  1  0
 24 25  1  0
 25 16  1  0
 26 28  1  0
 26 24  1  0
 27 26  2  0
M  END
$$$$
