TYL.pdb
     RDKit          3D

 28 28  0  0  1  0  0  0  0  0999 V2000
   30.1354    4.5453   -5.2971 C   0  0  0  0  0  0  0  0  0  0  0  0
   29.8055    5.0332   -6.7087 C   0  0  1  0  0  0  0  0  0  0  0  0
   31.0302    5.2504   -7.3424 O   0  0  0  0  0  0  0  0  0  0  0  0
   29.0562    3.9286   -7.3961 C   0  0  2  0  0  0  0  0  0  0  0  0
   28.7774    4.3366   -8.7564 N   0  0  0  0  0  0  0  0  0  0  0  0
   27.8168    3.5350   -6.7392 C   0  0  0  0  0  0  0  0  0  0  0  0
   26.7907    4.2587   -6.8747 O   0  0  0  0  0  0  0  0  0  0  0  0
   23.4087    1.3358  -10.9665 O   0  0  0  0  0  0  0  0  0  0  0  0
   23.9586    1.2168   -9.6969 C   0  0  0  0  0  0  0  0  0  0  0  0
   23.2390    1.4207   -8.5450 C   0  0  0  0  0  0  0  0  0  0  0  0
   23.8342    1.2894   -7.3148 C   0  0  0  0  0  0  0  0  0  0  0  0
   25.1838    0.9461   -7.1729 C   0  0  0  0  0  0  0  0  0  0  0  0
   25.7666    0.8419   -5.8241 C   0  0  0  0  0  0  0  0  0  0  0  0
   26.3903    2.0875   -5.2927 C   0  0  2  0  0  0  0  0  0  0  0  0
   27.6631    2.3724   -5.9369 N   0  0  0  0  0  0  0  0  0  0  0  0
   26.5948    1.9670   -3.8280 C   0  0  0  0  0  0  0  0  0  0  0  0
   27.5230    1.1671   -3.4585 O   0  0  0  0  0  0  0  0  0  0  0  0
   25.9051    0.7416   -8.3428 C   0  0  0  0  0  0  0  0  0  0  0  0
   25.2864    0.8790   -9.5661 C   0  0  0  0  0  0  0  0  0  0  0  0
   28.3393    4.1190   -0.3944 C   0  0  0  0  0  0  0  0  0  0  0  0
   27.0191    4.7224   -0.8609 C   0  0  2  0  0  0  0  0  0  0  0  0
   26.8011    6.0008   -0.0977 C   0  0  0  0  0  0  0  0  0  0  0  0
   25.8886    3.7455   -0.6928 C   0  0  0  0  0  0  0  0  0  0  0  0
   26.0675    2.4668   -1.4349 C   0  0  2  0  0  0  0  0  0  0  0  0
   25.8510    2.6584   -2.8712 N   0  0  0  0  0  0  0  0  0  0  0  0
   25.0992    1.4587   -0.9433 C   0  0  0  0  0  0  0  0  0  0  0  0
   25.2162    1.0207    0.2575 O   0  0  0  0  0  0  0  0  0  0  0  0
   24.0582    0.9292   -1.6554 O   0  0  0  0  0  0  0  0  0  0  0  0
  2  1  1  1
  2  3  1  0
  4  2  1  0
  4  5  1  6
  6  7  2  0
  6  4  1  0
  9  8  1  0
 10  9  2  0
 11 10  1  0
 12 18  1  0
 12 11  2  0
 14 13  1  6
 13 12  1  0
 14 15  1  0
 15  6  1  0
 16 14  1  0
 17 16  2  0
 18 19  2  0
 19  9  1  0
 21 20  1  1
 21 22  1  0
 24 23  1  1
 23 21  1  0
 24 25  1  0
 25 16  1  0
 26 28  1  0
 26 24  1  0
 27 26  2  0
M  END
$$$$
