TYL.pdb
     RDKit          3D

 28 28  0  0  1  0  0  0  0  0999 V2000
   16.7601   -9.1248  -17.0383 C   0  0  0  0  0  0  0  0  0  0  0  0
   16.8155   -8.8752  -15.5302 C   0  0  1  0  0  0  0  0  0  0  0  0
   16.1018   -9.9174  -14.9361 O   0  0  0  0  0  0  0  0  0  0  0  0
   18.2591   -8.9388  -15.1227 C   0  0  2  0  0  0  0  0  0  0  0  0
   18.7706  -10.2553  -15.4388 N   0  0  0  0  0  0  0  0  0  0  0  0
   18.5074   -8.6413  -13.7183 C   0  0  0  0  0  0  0  0  0  0  0  0
   18.7926   -9.5852  -12.9293 O   0  0  0  0  0  0  0  0  0  0  0  0
   23.6948   -5.6013  -15.4410 O   0  0  0  0  0  0  0  0  0  0  0  0
   22.7203   -5.7358  -14.4609 C   0  0  0  0  0  0  0  0  0  0  0  0
   21.8357   -4.7357  -14.1396 C   0  0  0  0  0  0  0  0  0  0  0  0
   20.8914   -4.9234  -13.1608 C   0  0  0  0  0  0  0  0  0  0  0  0
   20.7830   -6.1249  -12.4509 C   0  0  0  0  0  0  0  0  0  0  0  0
   19.7610   -6.2543  -11.3979 C   0  0  0  0  0  0  0  0  0  0  0  0
   18.6202   -7.1608  -11.7137 C   0  0  2  0  0  0  0  0  0  0  0  0
   18.4536   -7.3411  -13.1475 N   0  0  0  0  0  0  0  0  0  0  0  0
   17.3661   -6.6179  -11.1357 C   0  0  0  0  0  0  0  0  0  0  0  0
   16.7184   -5.8005  -11.8773 O   0  0  0  0  0  0  0  0  0  0  0  0
   21.6815   -7.1319  -12.7815 C   0  0  0  0  0  0  0  0  0  0  0  0
   22.6205   -6.9204  -13.7673 C   0  0  0  0  0  0  0  0  0  0  0  0
   13.9270   -6.8048   -5.9468 C   0  0  0  0  0  0  0  0  0  0  0  0
   14.0082   -6.4592   -7.4295 C   0  0  2  0  0  0  0  0  0  0  0  0
   12.7664   -6.9879   -8.0949 C   0  0  0  0  0  0  0  0  0  0  0  0
   15.2704   -6.9994   -8.0424 C   0  0  0  0  0  0  0  0  0  0  0  0
   15.6132   -6.4058   -9.3645 C   0  0  2  0  0  0  0  0  0  0  0  0
   16.8786   -6.9444   -9.8697 N   0  0  0  0  0  0  0  0  0  0  0  0
   15.7445   -4.9353   -9.2384 C   0  0  0  0  0  0  0  0  0  0  0  0
   14.6938   -4.2071   -9.3527 O   0  0  0  0  0  0  0  0  0  0  0  0
   16.9039   -4.2486   -9.0031 O   0  0  0  0  0  0  0  0  0  0  0  0
  2  1  1  6
  2  3  1  0
  4  2  1  0
  4  5  1  1
  6  7  2  0
  6  4  1  0
  9  8  1  0
 10  9  2  0
 11 10  1  0
 12 18  1  0
 12 11  2  0
 14 13  1  6
 13 12  1  0
 14 15  1  0
 15  6  1  0
 16 14  1  0
 17 16  2  0
 18 19  2  0
 19  9  1  0
 21 20  1  1
 21 22  1  0
 24 23  1  1
 23 21  1  0
 24 25  1  0
 25 16  1  0
 26 28  1  0
 26 24  1  0
 27 26  2  0
M  END
$$$$
