TYL.pdb
     RDKit          3D

 28 28  0  0  1  0  0  0  0  0999 V2000
   22.7979  -14.8224  -16.9929 C   0  0  0  0  0  0  0  0  0  0  0  0
   21.7548  -15.4750  -17.9015 C   0  0  1  0  0  0  0  0  0  0  0  0
   21.9043  -16.8534  -17.7395 O   0  0  0  0  0  0  0  0  0  0  0  0
   20.4043  -15.0400  -17.4106 C   0  0  2  0  0  0  0  0  0  0  0  0
   19.3898  -15.7416  -18.1678 N   0  0  0  0  0  0  0  0  0  0  0  0
   20.1648  -13.6047  -17.4839 C   0  0  0  0  0  0  0  0  0  0  0  0
   20.1102  -13.0458  -18.6151 O   0  0  0  0  0  0  0  0  0  0  0  0
   14.1323  -11.8259  -19.2686 O   0  0  0  0  0  0  0  0  0  0  0  0
   15.2429  -11.5313  -18.4888 C   0  0  0  0  0  0  0  0  0  0  0  0
   16.0179  -10.4134  -18.6780 C   0  0  0  0  0  0  0  0  0  0  0  0
   17.1058  -10.1713  -17.8764 C   0  0  0  0  0  0  0  0  0  0  0  0
   17.4758  -11.0376  -16.8410 C   0  0  0  0  0  0  0  0  0  0  0  0
   18.6670  -10.7306  -16.0306 C   0  0  0  0  0  0  0  0  0  0  0  0
   19.9486  -11.3139  -16.5205 C   0  0  2  0  0  0  0  0  0  0  0  0
   19.9827  -12.7589  -16.3567 N   0  0  0  0  0  0  0  0  0  0  0  0
   21.0918  -10.7079  -15.7943 C   0  0  0  0  0  0  0  0  0  0  0  0
   21.5809  -11.4077  -14.8409 O   0  0  0  0  0  0  0  0  0  0  0  0
   16.6870  -12.1664  -16.6559 C   0  0  0  0  0  0  0  0  0  0  0  0
   15.6000  -12.3883  -17.4728 C   0  0  0  0  0  0  0  0  0  0  0  0
   26.2547   -8.9797  -15.9941 C   0  0  0  0  0  0  0  0  0  0  0  0
   25.2728   -9.5833  -14.9960 C   0  0  2  0  0  0  0  0  0  0  0  0
   25.9488  -10.7535  -14.3343 C   0  0  0  0  0  0  0  0  0  0  0  0
   23.9824   -9.9619  -15.6683 C   0  0  0  0  0  0  0  0  0  0  0  0
   22.8757   -8.9862  -15.4654 C   0  0  2  0  0  0  0  0  0  0  0  0
   21.6379   -9.4586  -16.0907 N   0  0  0  0  0  0  0  0  0  0  0  0
   23.2378   -7.6808  -16.0656 C   0  0  0  0  0  0  0  0  0  0  0  0
   22.9854   -7.4782  -17.3076 O   0  0  0  0  0  0  0  0  0  0  0  0
   23.8300   -6.6331  -15.4153 O   0  0  0  0  0  0  0  0  0  0  0  0
  2  1  1  1
  2  3  1  0
  4  2  1  0
  4  5  1  6
  6  7  2  0
  6  4  1  0
  9  8  1  0
 10  9  2  0
 11 10  1  0
 12 18  1  0
 12 11  2  0
 14 13  1  1
 13 12  1  0
 14 15  1  0
 15  6  1  0
 16 14  1  0
 17 16  2  0
 18 19  2  0
 19  9  1  0
 21 20  1  6
 21 22  1  0
 24 23  1  6
 23 21  1  0
 24 25  1  0
 25 16  1  0
 26 28  1  0
 26 24  1  0
 27 26  2  0
M  END
$$$$
