TYL.pdb
     RDKit          3D

 28 28  0  0  1  0  0  0  0  0999 V2000
   27.6990   -8.7891  -17.6290 C   0  0  0  0  0  0  0  0  0  0  0  0
   27.3007   -9.5925  -18.8681 C   0  0  1  0  0  0  0  0  0  0  0  0
   28.4828  -10.1278  -19.3823 O   0  0  0  0  0  0  0  0  0  0  0  0
   26.3908  -10.6948  -18.4085 C   0  0  2  0  0  0  0  0  0  0  0  0
   26.1272  -11.5730  -19.5283 N   0  0  0  0  0  0  0  0  0  0  0  0
   25.1306  -10.2423  -17.8341 C   0  0  0  0  0  0  0  0  0  0  0  0
   24.2340   -9.7857  -18.5973 O   0  0  0  0  0  0  0  0  0  0  0  0
   18.0773   -8.7932  -12.6678 O   0  0  0  0  0  0  0  0  0  0  0  0
   19.2997   -9.1934  -13.1912 C   0  0  0  0  0  0  0  0  0  0  0  0
   19.4447   -9.6932  -14.4621 C   0  0  0  0  0  0  0  0  0  0  0  0
   20.6785  -10.0739  -14.9286 C   0  0  0  0  0  0  0  0  0  0  0  0
   21.8344   -9.9741  -14.1455 C   0  0  0  0  0  0  0  0  0  0  0  0
   23.1248  -10.4198  -14.6987 C   0  0  0  0  0  0  0  0  0  0  0  0
   23.5425   -9.7640  -15.9708 C   0  0  2  0  0  0  0  0  0  0  0  0
   24.8188  -10.2732  -16.4481 N   0  0  0  0  0  0  0  0  0  0  0  0
   23.6385   -8.2961  -15.7767 C   0  0  0  0  0  0  0  0  0  0  0  0
   24.7061   -7.8774  -15.2086 O   0  0  0  0  0  0  0  0  0  0  0  0
   21.6796   -9.4678  -12.8608 C   0  0  0  0  0  0  0  0  0  0  0  0
   20.4314   -9.0921  -12.4145 C   0  0  0  0  0  0  0  0  0  0  0  0
   22.1809   -3.0779  -16.9791 C   0  0  0  0  0  0  0  0  0  0  0  0
   23.5021   -3.8170  -17.1602 C   0  0  2  0  0  0  0  0  0  0  0  0
   24.1868   -3.2470  -18.3729 C   0  0  0  0  0  0  0  0  0  0  0  0
   23.2822   -5.3009  -17.2609 C   0  0  0  0  0  0  0  0  0  0  0  0
   22.8265   -5.9408  -15.9958 C   0  0  2  0  0  0  0  0  0  0  0  0
   22.6568   -7.3856  -16.1695 N   0  0  0  0  0  0  0  0  0  0  0  0
   21.5287   -5.3616  -15.5766 C   0  0  0  0  0  0  0  0  0  0  0  0
   21.5262   -4.2683  -14.9042 O   0  0  0  0  0  0  0  0  0  0  0  0
   20.2922   -5.8836  -15.8403 O   0  0  0  0  0  0  0  0  0  0  0  0
  2  1  1  1
  2  3  1  0
  4  2  1  0
  4  5  1  6
  6  7  2  0
  6  4  1  0
  9  8  1  0
 10  9  2  0
 11 10  1  0
 12 18  1  0
 12 11  2  0
 14 13  1  1
 13 12  1  0
 14 15  1  0
 15  6  1  0
 16 14  1  0
 17 16  2  0
 18 19  2  0
 19  9  1  0
 21 20  1  6
 21 22  1  0
 24 23  1  6
 23 21  1  0
 24 25  1  0
 25 16  1  0
 26 28  1  0
 26 24  1  0
 27 26  2  0
M  END
$$$$
