TYL.pdb
     RDKit          3D

 28 28  0  0  1  0  0  0  0  0999 V2000
   28.1654  -19.3646  -18.4742 C   0  0  0  0  0  0  0  0  0  0  0  0
   28.3760  -20.8115  -18.9234 C   0  0  1  0  0  0  0  0  0  0  0  0
   29.3881  -20.7781  -19.8842 O   0  0  0  0  0  0  0  0  0  0  0  0
   28.8297  -21.5878  -17.7210 C   0  0  2  0  0  0  0  0  0  0  0  0
   29.0798  -22.9557  -18.1220 N   0  0  0  0  0  0  0  0  0  0  0  0
   27.9000  -21.5686  -16.5994 C   0  0  0  0  0  0  0  0  0  0  0  0
   26.8680  -22.2953  -16.6417 O   0  0  0  0  0  0  0  0  0  0  0  0
   24.1690  -20.4220   -8.5797 O   0  0  0  0  0  0  0  0  0  0  0  0
   25.0246  -20.4130   -9.6733 C   0  0  0  0  0  0  0  0  0  0  0  0
   26.0215  -21.3402   -9.8543 C   0  0  0  0  0  0  0  0  0  0  0  0
   26.8393  -21.2836  -10.9556 C   0  0  0  0  0  0  0  0  0  0  0  0
   26.7016  -20.2938  -11.9357 C   0  0  0  0  0  0  0  0  0  0  0  0
   27.6256  -20.2770  -13.0829 C   0  0  0  0  0  0  0  0  0  0  0  0
   27.0928  -20.8563  -14.3491 C   0  0  2  0  0  0  0  0  0  0  0  0
   28.0632  -20.7780  -15.4300 N   0  0  0  0  0  0  0  0  0  0  0  0
   25.8516  -20.1478  -14.7480 C   0  0  0  0  0  0  0  0  0  0  0  0
   26.0151  -19.0812  -15.4362 O   0  0  0  0  0  0  0  0  0  0  0  0
   25.6909  -19.3594  -11.7456 C   0  0  0  0  0  0  0  0  0  0  0  0
   24.8826  -19.4363  -10.6326 C   0  0  0  0  0  0  0  0  0  0  0  0
   21.9375  -17.9135  -16.5201 C   0  0  0  0  0  0  0  0  0  0  0  0
   22.0360  -19.3623  -16.9845 C   0  0  2  0  0  0  0  0  0  0  0  0
   20.7477  -20.0510  -16.6230 C   0  0  0  0  0  0  0  0  0  0  0  0
   23.2419  -20.0388  -16.3940 C   0  0  0  0  0  0  0  0  0  0  0  0
   23.3704  -19.8849  -14.9183 C   0  0  2  0  0  0  0  0  0  0  0  0
   24.5639  -20.5735  -14.4205 N   0  0  0  0  0  0  0  0  0  0  0  0
   22.1811  -20.4585  -14.2459 C   0  0  0  0  0  0  0  0  0  0  0  0
   21.0407  -19.8945  -14.4159 O   0  0  0  0  0  0  0  0  0  0  0  0
   22.1680  -21.5626  -13.4386 O   0  0  0  0  0  0  0  0  0  0  0  0
  2  1  1  1
  2  3  1  0
  4  2  1  0
  4  5  1  6
  6  7  2  0
  6  4  1  0
  9  8  1  0
 10  9  2  0
 11 10  1  0
 12 18  1  0
 12 11  2  0
 14 13  1  1
 13 12  1  0
 14 15  1  0
 15  6  1  0
 16 14  1  0
 17 16  2  0
 18 19  2  0
 19  9  1  0
 21 20  1  1
 21 22  1  0
 24 23  1  6
 23 21  1  0
 24 25  1  0
 25 16  1  0
 26 28  1  0
 26 24  1  0
 27 26  2  0
M  END
$$$$
