TYL.pdb
     RDKit          3D

 28 28  0  0  1  0  0  0  0  0999 V2000
   26.9166  -17.2817  -18.4643 C   0  0  0  0  0  0  0  0  0  0  0  0
   27.4124  -18.4663  -19.2951 C   0  0  1  0  0  0  0  0  0  0  0  0
   28.1376  -17.9219  -20.3565 O   0  0  0  0  0  0  0  0  0  0  0  0
   28.3166  -19.2788  -18.4139 C   0  0  2  0  0  0  0  0  0  0  0  0
   28.8691  -20.3646  -19.1952 N   0  0  0  0  0  0  0  0  0  0  0  0
   27.6795  -19.8118  -17.2170 C   0  0  0  0  0  0  0  0  0  0  0  0
   26.9955  -20.8701  -17.3019 O   0  0  0  0  0  0  0  0  0  0  0  0
   25.1917  -21.5275   -8.8593 O   0  0  0  0  0  0  0  0  0  0  0  0
   25.8117  -21.0079   -9.9880 C   0  0  0  0  0  0  0  0  0  0  0  0
   25.6304  -19.7157  -10.4163 C   0  0  0  0  0  0  0  0  0  0  0  0
   26.2693  -19.2542  -11.5405 C   0  0  0  0  0  0  0  0  0  0  0  0
   27.1251  -20.0639  -12.2964 C   0  0  0  0  0  0  0  0  0  0  0  0
   27.7634  -19.5134  -13.5045 C   0  0  0  0  0  0  0  0  0  0  0  0
   27.0862  -19.8314  -14.7941 C   0  0  2  0  0  0  0  0  0  0  0  0
   27.7666  -19.2229  -15.9267 N   0  0  0  0  0  0  0  0  0  0  0  0
   25.6781  -19.3652  -14.7558 C   0  0  0  0  0  0  0  0  0  0  0  0
   25.5115  -18.0968  -14.7196 O   0  0  0  0  0  0  0  0  0  0  0  0
   27.3033  -21.3699  -11.8569 C   0  0  0  0  0  0  0  0  0  0  0  0
   26.6516  -21.8107  -10.7259 C   0  0  0  0  0  0  0  0  0  0  0  0
   22.5875  -17.7184  -16.9098 C   0  0  0  0  0  0  0  0  0  0  0  0
   22.8614  -19.2009  -17.1370 C   0  0  2  0  0  0  0  0  0  0  0  0
   22.1473  -19.6142  -18.3954 C   0  0  0  0  0  0  0  0  0  0  0  0
   22.4513  -20.0159  -15.9419 C   0  0  0  0  0  0  0  0  0  0  0  0
   23.1999  -19.6958  -14.6949 C   0  0  2  0  0  0  0  0  0  0  0  0
   24.5694  -20.2123  -14.7574 N   0  0  0  0  0  0  0  0  0  0  0  0
   22.5198  -20.3050  -13.5279 C   0  0  0  0  0  0  0  0  0  0  0  0
   22.9079  -21.4572  -13.1162 O   0  0  0  0  0  0  0  0  0  0  0  0
   21.4902  -19.7514  -12.8177 O   0  0  0  0  0  0  0  0  0  0  0  0
  2  1  1  1
  2  3  1  0
  4  2  1  0
  4  5  1  6
  6  7  2  0
  6  4  1  0
  9  8  1  0
 10  9  2  0
 11 10  1  0
 12 18  1  0
 12 11  2  0
 14 13  1  1
 13 12  1  0
 14 15  1  0
 15  6  1  0
 16 14  1  0
 17 16  2  0
 18 19  2  0
 19  9  1  0
 21 20  1  1
 21 22  1  0
 24 23  1  6
 23 21  1  0
 24 25  1  0
 25 16  1  0
 26 28  1  0
 26 24  1  0
 27 26  2  0
M  END
$$$$
