TYL.pdb
     RDKit          3D

 28 28  0  0  1  0  0  0  0  0999 V2000
   22.1917  -10.6677  -19.1842 C   0  0  0  0  0  0  0  0  0  0  0  0
   21.4932   -9.6220  -18.3135 C   0  0  1  0  0  0  0  0  0  0  0  0
   20.2341   -9.4199  -18.8812 O   0  0  0  0  0  0  0  0  0  0  0  0
   21.3526  -10.2108  -16.9396 C   0  0  2  0  0  0  0  0  0  0  0  0
   20.6047  -11.4458  -17.0409 N   0  0  0  0  0  0  0  0  0  0  0  0
   20.7188   -9.3332  -15.9646 C   0  0  0  0  0  0  0  0  0  0  0  0
   19.4644   -9.3723  -15.8237 O   0  0  0  0  0  0  0  0  0  0  0  0
   18.8656   -3.5812   -9.4800 O   0  0  0  0  0  0  0  0  0  0  0  0
   19.5103   -4.4431  -10.3573 C   0  0  0  0  0  0  0  0  0  0  0  0
   20.2853   -4.0075  -11.4041 C   0  0  0  0  0  0  0  0  0  0  0  0
   20.9004   -4.9050  -12.2413 C   0  0  0  0  0  0  0  0  0  0  0  0
   20.7716   -6.2888  -12.0742 C   0  0  0  0  0  0  0  0  0  0  0  0
   21.4407   -7.1980  -13.0205 C   0  0  0  0  0  0  0  0  0  0  0  0
   20.6804   -7.5077  -14.2650 C   0  0  2  0  0  0  0  0  0  0  0  0
   21.4147   -8.4117  -15.1365 N   0  0  0  0  0  0  0  0  0  0  0  0
   20.3760   -6.2542  -14.9983 C   0  0  0  0  0  0  0  0  0  0  0  0
   21.2897   -5.8358  -15.7907 O   0  0  0  0  0  0  0  0  0  0  0  0
   19.9858   -6.7218  -11.0131 C   0  0  0  0  0  0  0  0  0  0  0  0
   19.3784   -5.8024  -10.1861 C   0  0  0  0  0  0  0  0  0  0  0  0
   16.8812   -2.3941  -16.8898 C   0  0  0  0  0  0  0  0  0  0  0  0
   17.7366   -3.3984  -17.6542 C   0  0  2  0  0  0  0  0  0  0  0  0
   17.0086   -3.7531  -18.9226 C   0  0  0  0  0  0  0  0  0  0  0  0
   18.0462   -4.6009  -16.8065 C   0  0  0  0  0  0  0  0  0  0  0  0
   18.9282   -4.3186  -15.6402 C   0  0  2  0  0  0  0  0  0  0  0  0
   19.1857   -5.5376  -14.8694 N   0  0  0  0  0  0  0  0  0  0  0  0
   18.2836   -3.3256  -14.7491 C   0  0  0  0  0  0  0  0  0  0  0  0
   17.3223   -3.7069  -13.9888 O   0  0  0  0  0  0  0  0  0  0  0  0
   18.6161   -2.0028  -14.6452 O   0  0  0  0  0  0  0  0  0  0  0  0
  2  1  1  6
  2  3  1  0
  4  2  1  0
  4  5  1  6
  6  7  2  0
  6  4  1  0
  9  8  1  0
 10  9  2  0
 11 10  1  0
 12 18  1  0
 12 11  2  0
 14 13  1  1
 13 12  1  0
 14 15  1  0
 15  6  1  0
 16 14  1  0
 17 16  2  0
 18 19  2  0
 19  9  1  0
 21 20  1  1
 21 22  1  0
 24 23  1  6
 23 21  1  0
 24 25  1  0
 25 16  1  0
 26 28  1  0
 26 24  1  0
 27 26  2  0
M  END
$$$$
