TYL.pdb
     RDKit          3D

 28 28  0  0  1  0  0  0  0  0999 V2000
   28.2975  -22.4860  -16.8374 C   0  0  0  0  0  0  0  0  0  0  0  0
   29.0700  -21.2464  -17.2915 C   0  0  1  0  0  0  0  0  0  0  0  0
   30.1362  -21.7121  -18.0627 O   0  0  0  0  0  0  0  0  0  0  0  0
   28.1381  -20.4281  -18.1378 C   0  0  2  0  0  0  0  0  0  0  0  0
   28.8743  -19.3088  -18.6853 N   0  0  0  0  0  0  0  0  0  0  0  0
   26.9542  -19.9420  -17.4416 C   0  0  0  0  0  0  0  0  0  0  0  0
   27.0684  -18.9844  -16.6261 O   0  0  0  0  0  0  0  0  0  0  0  0
   18.6190  -18.6202  -14.6185 O   0  0  0  0  0  0  0  0  0  0  0  0
   19.7452  -18.9858  -15.3438 C   0  0  0  0  0  0  0  0  0  0  0  0
   20.1899  -20.2818  -15.4375 C   0  0  0  0  0  0  0  0  0  0  0  0
   21.3107  -20.5867  -16.1693 C   0  0  0  0  0  0  0  0  0  0  0  0
   22.0468  -19.6080  -16.8473 C   0  0  0  0  0  0  0  0  0  0  0  0
   23.2526  -19.9989  -17.5978 C   0  0  0  0  0  0  0  0  0  0  0  0
   24.5338  -19.9374  -16.8380 C   0  0  2  0  0  0  0  0  0  0  0  0
   25.6460  -20.4708  -17.6091 N   0  0  0  0  0  0  0  0  0  0  0  0
   24.4067  -20.6935  -15.5676 C   0  0  0  0  0  0  0  0  0  0  0  0
   24.5174  -21.9650  -15.6620 O   0  0  0  0  0  0  0  0  0  0  0  0
   21.5909  -18.2992  -16.7477 C   0  0  0  0  0  0  0  0  0  0  0  0
   20.4635  -18.0173  -16.0076 C   0  0  0  0  0  0  0  0  0  0  0  0
   23.8826  -21.0593  -10.0625 C   0  0  0  0  0  0  0  0  0  0  0  0
   25.1637  -21.3005  -10.8531 C   0  0  2  0  0  0  0  0  0  0  0  0
   26.3270  -20.9626   -9.9603 C   0  0  0  0  0  0  0  0  0  0  0  0
   25.1658  -20.5121  -12.1333 C   0  0  0  0  0  0  0  0  0  0  0  0
   24.0967  -20.9004  -13.0946 C   0  0  2  0  0  0  0  0  0  0  0  0
   24.1807  -20.1057  -14.3225 N   0  0  0  0  0  0  0  0  0  0  0  0
   22.7649  -20.6824  -12.4829 C   0  0  0  0  0  0  0  0  0  0  0  0
   22.3278  -19.4817  -12.3610 O   0  0  0  0  0  0  0  0  0  0  0  0
   21.9227  -21.6563  -12.0211 O   0  0  0  0  0  0  0  0  0  0  0  0
  2  1  1  6
  2  3  1  0
  4  2  1  0
  4  5  1  1
  6  7  2  0
  6  4  1  0
  9  8  1  0
 10  9  2  0
 11 10  1  0
 12 18  1  0
 12 11  2  0
 14 13  1  6
 13 12  1  0
 14 15  1  0
 15  6  1  0
 16 14  1  0
 17 16  2  0
 18 19  2  0
 19  9  1  0
 21 20  1  1
 21 22  1  0
 24 23  1  1
 23 21  1  0
 24 25  1  0
 25 16  1  0
 26 28  1  0
 26 24  1  0
 27 26  2  0
M  END
$$$$
