TYL.pdb
     RDKit          3D

 28 28  0  0  1  0  0  0  0  0999 V2000
   24.4153  -13.6718  -17.0498 C   0  0  0  0  0  0  0  0  0  0  0  0
   23.8649  -12.2737  -17.3361 C   0  0  1  0  0  0  0  0  0  0  0  0
   24.5149  -11.8271  -18.4880 O   0  0  0  0  0  0  0  0  0  0  0  0
   22.3937  -12.4208  -17.5966 C   0  0  2  0  0  0  0  0  0  0  0  0
   22.2105  -13.3183  -18.7171 N   0  0  0  0  0  0  0  0  0  0  0  0
   21.6941  -11.1688  -17.8528 C   0  0  0  0  0  0  0  0  0  0  0  0
   21.1365  -10.9920  -18.9721 O   0  0  0  0  0  0  0  0  0  0  0  0
   16.2506  -11.6833  -13.7520 O   0  0  0  0  0  0  0  0  0  0  0  0
   17.0357  -11.0890  -14.7311 C   0  0  0  0  0  0  0  0  0  0  0  0
   17.5341  -11.7741  -15.8120 C   0  0  0  0  0  0  0  0  0  0  0  0
   18.3057  -11.1356  -16.7510 C   0  0  0  0  0  0  0  0  0  0  0  0
   18.6196   -9.7747  -16.6569 C   0  0  0  0  0  0  0  0  0  0  0  0
   19.4702   -9.1547  -17.6875 C   0  0  0  0  0  0  0  0  0  0  0  0
   20.8788   -8.8812  -17.2827 C   0  0  2  0  0  0  0  0  0  0  0  0
   21.5844  -10.1010  -16.9217 N   0  0  0  0  0  0  0  0  0  0  0  0
   20.9031   -7.9395  -16.1362 C   0  0  0  0  0  0  0  0  0  0  0  0
   21.0554   -8.4704  -14.9817 O   0  0  0  0  0  0  0  0  0  0  0  0
   18.1120   -9.0884  -15.5605 C   0  0  0  0  0  0  0  0  0  0  0  0
   17.3399   -9.7504  -14.6311 C   0  0  0  0  0  0  0  0  0  0  0  0
   21.4294   -1.8747  -14.9172 C   0  0  0  0  0  0  0  0  0  0  0  0
   21.3348   -3.2990  -14.3815 C   0  0  2  0  0  0  0  0  0  0  0  0
   22.4962   -3.5195  -13.4504 C   0  0  0  0  0  0  0  0  0  0  0  0
   21.2929   -4.2976  -15.5047 C   0  0  0  0  0  0  0  0  0  0  0  0
   20.8758   -5.6667  -15.0931 C   0  0  2  0  0  0  0  0  0  0  0  0
   20.7727   -6.5553  -16.2533 N   0  0  0  0  0  0  0  0  0  0  0  0
   19.5551   -5.6116  -14.4235 C   0  0  0  0  0  0  0  0  0  0  0  0
   18.4958   -5.7863  -15.1270 O   0  0  0  0  0  0  0  0  0  0  0  0
   19.3372   -5.3894  -13.0915 O   0  0  0  0  0  0  0  0  0  0  0  0
  2  1  1  6
  2  3  1  0
  4  2  1  0
  4  5  1  6
  6  7  2  0
  6  4  1  0
  9  8  1  0
 10  9  2  0
 11 10  1  0
 12 18  1  0
 12 11  2  0
 14 13  1  1
 13 12  1  0
 14 15  1  0
 15  6  1  0
 16 14  1  0
 17 16  2  0
 18 19  2  0
 19  9  1  0
 21 20  1  6
 21 22  1  0
 24 23  1  6
 23 21  1  0
 24 25  1  0
 25 16  1  0
 26 28  1  0
 26 24  1  0
 27 26  2  0
M  END
$$$$
