TYL.pdb
     RDKit          3D

 28 28  0  0  1  0  0  0  0  0999 V2000
   29.3031  -21.1345  -12.6979 C   0  0  0  0  0  0  0  0  0  0  0  0
   28.9013  -20.0032  -13.6457 C   0  0  1  0  0  0  0  0  0  0  0  0
   29.4785  -20.3053  -14.8803 O   0  0  0  0  0  0  0  0  0  0  0  0
   27.4041  -20.0267  -13.7552 C   0  0  2  0  0  0  0  0  0  0  0  0
   26.9954  -19.0225  -14.7139 N   0  0  0  0  0  0  0  0  0  0  0  0
   26.6999  -19.8176  -12.4970 C   0  0  0  0  0  0  0  0  0  0  0  0
   26.5510  -18.6414  -12.0619 O   0  0  0  0  0  0  0  0  0  0  0  0
   19.8568  -18.5851  -13.0339 O   0  0  0  0  0  0  0  0  0  0  0  0
   20.9137  -19.2344  -12.4096 C   0  0  0  0  0  0  0  0  0  0  0  0
   21.8057  -20.0339  -13.0814 C   0  0  0  0  0  0  0  0  0  0  0  0
   22.8333  -20.6521  -12.4131 C   0  0  0  0  0  0  0  0  0  0  0  0
   23.0223  -20.5021  -11.0343 C   0  0  0  0  0  0  0  0  0  0  0  0
   24.1328  -21.2100  -10.3743 C   0  0  0  0  0  0  0  0  0  0  0  0
   25.4630  -20.5417  -10.4552 C   0  0  2  0  0  0  0  0  0  0  0  0
   26.1518  -20.8565  -11.6973 N   0  0  0  0  0  0  0  0  0  0  0  0
   26.3070  -20.9512   -9.3056 C   0  0  0  0  0  0  0  0  0  0  0  0
   27.4622  -21.4167   -9.5998 O   0  0  0  0  0  0  0  0  0  0  0  0
   22.1158  -19.6919  -10.3617 C   0  0  0  0  0  0  0  0  0  0  0  0
   21.0925  -19.0816  -11.0535 C   0  0  0  0  0  0  0  0  0  0  0  0
   29.2696  -18.3209   -5.4799 C   0  0  0  0  0  0  0  0  0  0  0  0
   28.7418  -19.7346   -5.6976 C   0  0  2  0  0  0  0  0  0  0  0  0
   29.9259  -20.6508   -5.8483 C   0  0  0  0  0  0  0  0  0  0  0  0
   27.8114  -19.7888   -6.8775 C   0  0  0  0  0  0  0  0  0  0  0  0
   26.8797  -20.9506   -6.8711 C   0  0  2  0  0  0  0  0  0  0  0  0
   25.9152  -20.8561   -7.9698 N   0  0  0  0  0  0  0  0  0  0  0  0
   26.1333  -20.9916   -5.5918 C   0  0  0  0  0  0  0  0  0  0  0  0
   25.0055  -20.3840   -5.5124 O   0  0  0  0  0  0  0  0  0  0  0  0
   26.5300  -21.6307   -4.4493 O   0  0  0  0  0  0  0  0  0  0  0  0
  2  1  1  1
  2  3  1  0
  4  2  1  0
  4  5  1  6
  6  7  2  0
  6  4  1  0
  9  8  1  0
 10  9  2  0
 11 10  1  0
 12 18  1  0
 12 11  2  0
 14 13  1  6
 13 12  1  0
 14 15  1  0
 15  6  1  0
 16 14  1  0
 17 16  2  0
 18 19  2  0
 19  9  1  0
 21 20  1  6
 21 22  1  0
 24 23  1  1
 23 21  1  0
 24 25  1  0
 25 16  1  0
 26 28  1  0
 26 24  1  0
 27 26  2  0
M  END
$$$$
