SEP.pdb
     RDKit          3D

 23 23  0  0  1  0  0  0  0  0999 V2000
   23.7468  -15.9256  -19.3605 O   0  0  0  0  0  0  0  0  0  0  0  0
   22.4550  -16.4075  -19.5640 C   0  0  0  0  0  0  0  0  0  0  0  0
   21.7058  -16.2872  -18.2565 C   0  0  2  0  0  0  0  0  0  0  0  0
   21.3540  -14.9151  -17.9616 N   0  0  0  0  0  0  0  0  0  0  0  0
   22.5512  -16.8288  -17.1488 C   0  0  0  0  0  0  0  0  0  0  0  0
   23.2424  -16.0661  -16.4615 O   0  0  0  0  0  0  0  0  0  0  0  0
   22.5896  -18.2157  -16.8519 N   0  0  0  0  0  0  0  0  0  0  0  0
   23.3537  -18.7399  -15.8010 C   0  0  1  0  0  0  0  0  0  0  0  0
   22.6868  -19.8282  -14.9903 C   0  0  0  0  0  0  0  0  0  0  0  0
   21.4289  -19.2691  -14.3325 C   0  0  0  0  0  0  0  0  0  0  0  0
   20.7460  -20.3077  -13.5196 C   0  0  0  0  0  0  0  0  0  0  0  0
   19.5927  -20.1313  -13.0366 O   0  0  0  0  0  0  0  0  0  0  0  0
   24.7349  -19.1445  -16.1341 C   0  0  0  0  0  0  0  0  0  0  0  0
   24.7942  -20.0772  -17.0222 O   0  0  0  0  0  0  0  0  0  0  0  0
   21.4183  -21.5020  -13.2977 O   0  0  0  0  0  0  0  0  0  0  0  0
   25.9403  -18.6538  -15.6169 N   0  0  0  0  0  0  0  0  0  0  0  0
   26.0454  -17.4959  -14.7303 C   0  0  0  0  0  0  0  0  0  0  0  0
   27.4937  -17.4171  -14.2786 C   0  0  0  0  0  0  0  0  0  0  0  0
   28.0093  -18.7771  -14.5684 C   0  0  0  0  0  0  0  0  0  0  0  0
   27.2570  -19.1220  -15.8745 C   0  0  1  0  0  0  0  0  0  0  0  0
   27.4489  -20.5612  -16.0367 C   0  0  0  0  0  0  0  0  0  0  0  0
   28.6410  -20.9971  -16.5955 O   0  0  0  0  0  0  0  0  0  0  0  0
   26.6143  -21.4168  -15.7059 O   0  0  0  0  0  0  0  0  0  0  0  0
  1  2  1  0
  3  5  1  0
  3  2  1  0
  3  4  1  1
  5  6  2  0
  7  8  1  0
  7  5  1  0
  8 13  1  0
  8  9  1  6
 10 11  1  0
 10  9  1  0
 11 12  2  0
 13 14  2  0
 13 16  1  0
 15 11  1  0
 16 20  1  0
 16 17  1  0
 17 18  1  0
 19 18  1  0
 20 19  1  0
 20 21  1  1
 22 21  1  0
 23 21  2  0
M  END
$$$$
