SEP.pdb
     RDKit          3D

 23 23  0  0  1  0  0  0  0  0999 V2000
   14.8636   -8.8966  -13.1424 O   0  0  0  0  0  0  0  0  0  0  0  0
   14.7061   -8.8867  -14.5272 C   0  0  0  0  0  0  0  0  0  0  0  0
   15.3081  -10.1627  -15.0698 C   0  0  2  0  0  0  0  0  0  0  0  0
   14.7863  -11.3328  -14.3975 N   0  0  0  0  0  0  0  0  0  0  0  0
   16.7933  -10.1200  -14.9044 C   0  0  0  0  0  0  0  0  0  0  0  0
   17.4555  -11.1650  -14.9417 O   0  0  0  0  0  0  0  0  0  0  0  0
   17.4846   -8.8976  -14.7019 N   0  0  0  0  0  0  0  0  0  0  0  0
   18.8473   -8.7466  -14.9904 C   0  0  1  0  0  0  0  0  0  0  0  0
   19.2862   -9.2528  -16.3460 C   0  0  0  0  0  0  0  0  0  0  0  0
   20.8019   -9.1265  -16.4660 C   0  0  0  0  0  0  0  0  0  0  0  0
   21.2622   -9.5049  -17.8263 C   0  0  0  0  0  0  0  0  0  0  0  0
   21.0792   -8.7590  -18.8286 O   0  0  0  0  0  0  0  0  0  0  0  0
   19.4230   -7.4075  -14.7502 C   0  0  0  0  0  0  0  0  0  0  0  0
   19.0348   -6.5234  -15.6046 O   0  0  0  0  0  0  0  0  0  0  0  0
   21.9120  -10.7230  -17.9745 O   0  0  0  0  0  0  0  0  0  0  0  0
   20.3080   -7.0022  -13.7433 N   0  0  0  0  0  0  0  0  0  0  0  0
   20.8664   -7.8953  -12.7293 C   0  0  0  0  0  0  0  0  0  0  0  0
   21.8956   -7.0914  -11.9530 C   0  0  0  0  0  0  0  0  0  0  0  0
   22.1784   -5.9491  -12.8557 C   0  0  0  0  0  0  0  0  0  0  0  0
   20.7852   -5.6909  -13.4747 C   0  0  1  0  0  0  0  0  0  0  0  0
   21.0490   -4.8152  -14.6139 C   0  0  0  0  0  0  0  0  0  0  0  0
   21.1530   -3.4533  -14.3738 O   0  0  0  0  0  0  0  0  0  0  0  0
   21.1864   -5.2124  -15.7807 O   0  0  0  0  0  0  0  0  0  0  0  0
  1  2  1  0
  3  5  1  0
  3  2  1  0
  3  4  1  1
  5  6  2  0
  7  8  1  0
  7  5  1  0
  8 13  1  0
  8  9  1  6
 10 11  1  0
 10  9  1  0
 11 12  2  0
 13 14  2  0
 13 16  1  0
 15 11  1  0
 16 20  1  0
 16 17  1  0
 17 18  1  0
 19 18  1  0
 20 19  1  0
 20 21  1  6
 22 21  1  0
 23 21  2  0
M  END
$$$$
