SEP.pdb
     RDKit          3D

 23 23  0  0  1  0  0  0  0  0999 V2000
   16.7110  -26.4965    5.0568 O   0  0  0  0  0  0  0  0  0  0  0  0
   15.5345  -25.9643    4.5322 C   0  0  0  0  0  0  0  0  0  0  0  0
   15.8777  -25.2816    3.2279 C   0  0  2  0  0  0  0  0  0  0  0  0
   16.5003  -26.1917    2.2911 N   0  0  0  0  0  0  0  0  0  0  0  0
   16.8036  -24.1386    3.4949 C   0  0  0  0  0  0  0  0  0  0  0  0
   17.9732  -24.1760    3.0916 O   0  0  0  0  0  0  0  0  0  0  0  0
   16.3795  -22.9887    4.2096 N   0  0  0  0  0  0  0  0  0  0  0  0
   17.1673  -21.8348    4.3152 C   0  0  1  0  0  0  0  0  0  0  0  0
   16.5871  -20.5897    3.6831 C   0  0  0  0  0  0  0  0  0  0  0  0
   17.5923  -19.4481    3.8006 C   0  0  0  0  0  0  0  0  0  0  0  0
   17.0074  -18.1711    3.3183 C   0  0  0  0  0  0  0  0  0  0  0  0
   16.4548  -17.3481    4.1004 O   0  0  0  0  0  0  0  0  0  0  0  0
   17.6816  -21.5143    5.6624 C   0  0  0  0  0  0  0  0  0  0  0  0
   16.7506  -21.3459    6.5383 O   0  0  0  0  0  0  0  0  0  0  0  0
   17.0831  -17.8967    1.9593 O   0  0  0  0  0  0  0  0  0  0  0  0
   19.0103  -21.3754    6.0826 N   0  0  0  0  0  0  0  0  0  0  0  0
   20.1729  -21.7086    5.2611 C   0  0  0  0  0  0  0  0  0  0  0  0
   21.4010  -21.2515    6.0298 C   0  0  0  0  0  0  0  0  0  0  0  0
   20.8423  -20.2930    7.0141 C   0  0  0  0  0  0  0  0  0  0  0  0
   19.4856  -20.9526    7.3534 C   0  0  1  0  0  0  0  0  0  0  0  0
   18.7362  -19.9086    8.0482 C   0  0  0  0  0  0  0  0  0  0  0  0
   18.8731  -19.8203    9.4255 O   0  0  0  0  0  0  0  0  0  0  0  0
   17.9868  -19.0968    7.4848 O   0  0  0  0  0  0  0  0  0  0  0  0
  1  2  1  0
  3  5  1  0
  3  2  1  0
  3  4  1  6
  5  6  2  0
  7  8  1  0
  7  5  1  0
  8 13  1  0
  8  9  1  1
 10 11  1  0
 10  9  1  0
 11 12  2  0
 13 14  2  0
 13 16  1  0
 15 11  1  0
 16 20  1  0
 16 17  1  0
 17 18  1  0
 19 18  1  0
 20 19  1  0
 20 21  1  6
 22 21  1  0
 23 21  2  0
M  END
$$$$
