SEP.pdb
     RDKit          3D

 23 23  0  0  1  0  0  0  0  0999 V2000
   20.1587  -13.6649  -18.0110 O   0  0  0  0  0  0  0  0  0  0  0  0
   19.6353  -12.3734  -17.9880 C   0  0  0  0  0  0  0  0  0  0  0  0
   19.7110  -11.8695  -16.5647 C   0  0  2  0  0  0  0  0  0  0  0  0
   18.5815  -12.3117  -15.7760 N   0  0  0  0  0  0  0  0  0  0  0  0
   19.7549  -10.3752  -16.5693 C   0  0  0  0  0  0  0  0  0  0  0  0
   18.7416   -9.7222  -16.8503 O   0  0  0  0  0  0  0  0  0  0  0  0
   20.9424   -9.6646  -16.2563 N   0  0  0  0  0  0  0  0  0  0  0  0
   20.9821   -8.2669  -16.1670 C   0  0  1  0  0  0  0  0  0  0  0  0
   21.6950   -7.7116  -14.9546 C   0  0  0  0  0  0  0  0  0  0  0  0
   21.4750   -6.2034  -14.8860 C   0  0  0  0  0  0  0  0  0  0  0  0
   22.2334   -5.6049  -13.7581 C   0  0  0  0  0  0  0  0  0  0  0  0
   22.7852   -4.4725  -13.8461 O   0  0  0  0  0  0  0  0  0  0  0  0
   21.4257   -7.5458  -17.3776 C   0  0  0  0  0  0  0  0  0  0  0  0
   22.6255   -7.8469  -17.7410 O   0  0  0  0  0  0  0  0  0  0  0  0
   22.3243   -6.3338  -12.5799 O   0  0  0  0  0  0  0  0  0  0  0  0
   20.7236   -6.6085  -18.1455 N   0  0  0  0  0  0  0  0  0  0  0  0
   19.2856   -6.3674  -18.0382 C   0  0  0  0  0  0  0  0  0  0  0  0
   18.9733   -5.1682  -18.9171 C   0  0  0  0  0  0  0  0  0  0  0  0
   20.3014   -4.5354  -19.1043 C   0  0  0  0  0  0  0  0  0  0  0  0
   21.2263   -5.7723  -19.1786 C   0  0  1  0  0  0  0  0  0  0  0  0
   22.5738   -5.2299  -19.0211 C   0  0  0  0  0  0  0  0  0  0  0  0
   23.1532   -4.6061  -20.1158 O   0  0  0  0  0  0  0  0  0  0  0  0
   23.2311   -5.2916  -17.9713 O   0  0  0  0  0  0  0  0  0  0  0  0
  1  2  1  0
  3  5  1  0
  3  2  1  0
  3  4  1  1
  5  6  2  0
  7  8  1  0
  7  5  1  0
  8 13  1  0
  8  9  1  1
 10 11  1  0
 10  9  1  0
 11 12  2  0
 13 14  2  0
 13 16  1  0
 15 11  1  0
 16 20  1  0
 16 17  1  0
 17 18  1  0
 19 18  1  0
 20 19  1  0
 20 21  1  1
 22 21  1  0
 23 21  2  0
M  END
$$$$
