SEP.pdb
     RDKit          3D

 23 23  0  0  1  0  0  0  0  0999 V2000
   16.2482   -2.8168  -18.4264 O   0  0  0  0  0  0  0  0  0  0  0  0
   17.1752   -2.8046  -17.3858 C   0  0  0  0  0  0  0  0  0  0  0  0
   16.4163   -2.6076  -16.0933 C   0  0  2  0  0  0  0  0  0  0  0  0
   16.0985   -1.2151  -15.8622 N   0  0  0  0  0  0  0  0  0  0  0  0
   17.2355   -3.1224  -14.9536 C   0  0  0  0  0  0  0  0  0  0  0  0
   17.5646   -2.3665  -14.0304 O   0  0  0  0  0  0  0  0  0  0  0  0
   17.6576   -4.4756  -14.8923 N   0  0  0  0  0  0  0  0  0  0  0  0
   18.0961   -5.0743  -13.7038 C   0  0  1  0  0  0  0  0  0  0  0  0
   17.1439   -4.9732  -12.5335 C   0  0  0  0  0  0  0  0  0  0  0  0
   17.8035   -5.5673  -11.2927 C   0  0  0  0  0  0  0  0  0  0  0  0
   16.8795   -5.5346  -10.1305 C   0  0  0  0  0  0  0  0  0  0  0  0
   15.7263   -5.0255  -10.2038 O   0  0  0  0  0  0  0  0  0  0  0  0
   18.6007   -6.4583  -13.8153 C   0  0  0  0  0  0  0  0  0  0  0  0
   17.6633   -7.3372  -13.9204 O   0  0  0  0  0  0  0  0  0  0  0  0
   17.3215   -6.0878   -8.9362 O   0  0  0  0  0  0  0  0  0  0  0  0
   19.9263   -6.9098  -13.8181 N   0  0  0  0  0  0  0  0  0  0  0  0
   21.0943   -6.0353  -13.7242 C   0  0  0  0  0  0  0  0  0  0  0  0
   22.3099   -6.9368  -13.5919 C   0  0  0  0  0  0  0  0  0  0  0  0
   21.7226   -8.2307  -13.1671 C   0  0  0  0  0  0  0  0  0  0  0  0
   20.3952   -8.2437  -13.9599 C   0  0  1  0  0  0  0  0  0  0  0  0
   19.6117   -9.3106  -13.3417 C   0  0  0  0  0  0  0  0  0  0  0  0
   19.7869  -10.6018  -13.8167 O   0  0  0  0  0  0  0  0  0  0  0  0
   18.8013   -9.1349  -12.4196 O   0  0  0  0  0  0  0  0  0  0  0  0
  1  2  1  0
  3  5  1  0
  3  2  1  0
  3  4  1  1
  5  6  2  0
  7  8  1  0
  7  5  1  0
  8 13  1  0
  8  9  1  1
 10 11  1  0
 10  9  1  0
 11 12  2  0
 13 14  2  0
 13 16  1  0
 15 11  1  0
 16 20  1  0
 16 17  1  0
 17 18  1  0
 19 18  1  0
 20 19  1  0
 20 21  1  1
 22 21  1  0
 23 21  2  0
M  END
$$$$
