FPI.pdb
     RDKit          3D

 27 28  0  0  1  0  0  0  0  0999 V2000
   24.8540  -21.9859  -13.8345 N   0  0  0  0  0  0  0  0  0  0  0  0
   25.3003  -20.9651  -12.9758 C   0  0  1  0  0  0  0  0  0  0  0  0
   24.1618  -19.9765  -12.7629 C   0  0  0  0  0  0  0  0  0  0  0  0
   23.6705  -19.3703  -14.0050 C   0  0  0  0  0  0  0  0  0  0  0  0
   24.4871  -18.6357  -14.8454 C   0  0  0  0  0  0  0  0  0  0  0  0
   24.0471  -18.0602  -16.0158 C   0  0  0  0  0  0  0  0  0  0  0  0
   22.7285  -18.2069  -16.3961 C   0  0  0  0  0  0  0  0  0  0  0  0
   21.8912  -18.9311  -15.5826 C   0  0  0  0  0  0  0  0  0  0  0  0
   22.3396  -19.5014  -14.4171 C   0  0  0  0  0  0  0  0  0  0  0  0
   25.8908  -21.3157  -11.6881 C   0  0  0  0  0  0  0  0  0  0  0  0
   25.0226  -21.4966  -10.7391 O   0  0  0  0  0  0  0  0  0  0  0  0
   27.2191  -21.4873  -11.3125 N   0  0  0  0  0  0  0  0  0  0  0  0
   28.2180  -22.1923  -12.1572 C   0  0  0  0  0  0  0  0  0  0  0  0
   29.3510  -21.1647  -12.1340 C   0  0  0  0  0  0  0  0  0  0  0  0
   29.0970  -20.2873  -10.9032 C   0  0  0  0  0  0  0  0  0  0  0  0
   28.0313  -21.1504  -10.1890 C   0  0  1  0  0  0  0  0  0  0  0  0
   27.4774  -20.5187   -9.0244 C   0  0  0  0  0  0  0  0  0  0  0  0
   26.5244  -19.7225   -8.9020 O   0  0  0  0  0  0  0  0  0  0  0  0
   28.1991  -22.8359   -3.9869 C   0  0  0  0  0  0  0  0  0  0  0  0
   27.6389  -22.0242   -5.1248 C   0  0  0  0  0  0  0  0  0  0  0  0
   28.4657  -20.7833   -5.3828 C   0  0  2  0  0  0  0  0  0  0  0  0
   28.4928  -19.9779   -4.1288 C   0  0  0  0  0  0  0  0  0  0  0  0
   27.9453  -20.0203   -6.5817 C   0  0  2  0  0  0  0  0  0  0  0  0
   28.1114  -20.8407   -7.7632 N   0  0  0  0  0  0  0  0  0  0  0  0
   28.6457  -18.7284   -6.6980 C   0  0  0  0  0  0  0  0  0  0  0  0
   28.0139  -17.5722   -6.3020 O   0  0  0  0  0  0  0  0  0  0  0  0
   29.8037  -18.6789   -7.1521 O   0  0  0  0  0  0  0  0  0  0  0  0
  2  3  1  0
  2  1  1  1
  4  3  1  0
  5  4  2  0
  6  5  1  0
  7  8  1  0
  7  6  2  0
  8  9  2  0
  9  4  1  0
 10 12  1  0
 10  2  1  0
 11 10  2  0
 12 13  1  0
 14 13  1  0
 15 16  1  0
 15 14  1  0
 16 12  1  0
 17 24  1  0
 16 17  1  1
 18 17  2  0
 20 19  1  0
 21 23  1  0
 21 20  1  0
 21 22  1  1
 23 24  1  6
 25 26  1  0
 25 23  1  0
 27 25  2  0
M  END
$$$$
