FPI.pdb
     RDKit          3D

 27 28  0  0  1  0  0  0  0  0999 V2000
   25.9351  -20.0461  -16.9595 N   0  0  0  0  0  0  0  0  0  0  0  0
   26.7028  -19.5979  -15.8694 C   0  0  1  0  0  0  0  0  0  0  0  0
   26.4781  -18.1014  -15.6991 C   0  0  0  0  0  0  0  0  0  0  0  0
   27.0136  -17.2979  -16.8033 C   0  0  0  0  0  0  0  0  0  0  0  0
   28.3555  -17.2986  -17.1384 C   0  0  0  0  0  0  0  0  0  0  0  0
   28.8783  -16.5540  -18.1711 C   0  0  0  0  0  0  0  0  0  0  0  0
   28.0451  -15.7561  -18.9288 C   0  0  0  0  0  0  0  0  0  0  0  0
   26.7063  -15.7332  -18.6212 C   0  0  0  0  0  0  0  0  0  0  0  0
   26.1943  -16.4796  -17.5890 C   0  0  0  0  0  0  0  0  0  0  0  0
   26.5724  -20.2622  -14.5765 C   0  0  0  0  0  0  0  0  0  0  0  0
   25.3450  -20.4071  -14.1770 O   0  0  0  0  0  0  0  0  0  0  0  0
   27.5377  -20.7624  -13.7088 N   0  0  0  0  0  0  0  0  0  0  0  0
   28.6349  -21.6643  -14.1463 C   0  0  0  0  0  0  0  0  0  0  0  0
   29.8302  -20.9441  -13.5197 C   0  0  0  0  0  0  0  0  0  0  0  0
   29.2537  -20.0672  -12.4025 C   0  0  0  0  0  0  0  0  0  0  0  0
   27.8306  -20.6658  -12.3159 C   0  0  1  0  0  0  0  0  0  0  0  0
   26.9693  -19.9524  -11.4152 C   0  0  0  0  0  0  0  0  0  0  0  0
   26.7667  -18.7291  -11.2750 O   0  0  0  0  0  0  0  0  0  0  0  0
   22.0426  -20.5522  -11.4406 C   0  0  0  0  0  0  0  0  0  0  0  0
   23.4838  -20.2058  -11.1752 C   0  0  0  0  0  0  0  0  0  0  0  0
   23.9019  -20.6004   -9.7753 C   0  0  2  0  0  0  0  0  0  0  0  0
   22.9128  -20.0264   -8.8193 C   0  0  0  0  0  0  0  0  0  0  0  0
   25.3292  -20.1827   -9.4939 C   0  0  2  0  0  0  0  0  0  0  0  0
   26.1911  -20.7632  -10.5023 N   0  0  0  0  0  0  0  0  0  0  0  0
   25.7131  -20.5918   -8.1308 C   0  0  0  0  0  0  0  0  0  0  0  0
   25.7120  -19.6641   -7.1148 O   0  0  0  0  0  0  0  0  0  0  0  0
   26.0377  -21.7703   -7.8952 O   0  0  0  0  0  0  0  0  0  0  0  0
  2  3  1  0
  2  1  1  6
  4  3  1  0
  5  4  2  0
  6  5  1  0
  7  8  1  0
  7  6  2  0
  8  9  2  0
  9  4  1  0
 10 12  1  0
 10  2  1  0
 11 10  2  0
 12 13  1  0
 14 13  1  0
 15 16  1  0
 15 14  1  0
 16 12  1  0
 17 24  1  0
 16 17  1  1
 18 17  2  0
 20 19  1  0
 21 23  1  0
 21 20  1  0
 21 22  1  1
 23 24  1  6
 25 26  1  0
 25 23  1  0
 27 25  2  0
M  END
$$$$
