FPI.pdb
     RDKit          3D

 27 28  0  0  1  0  0  0  0  0999 V2000
   23.7373  -21.2252  -15.8407 N   0  0  0  0  0  0  0  0  0  0  0  0
   24.4483  -20.2684  -15.0941 C   0  0  1  0  0  0  0  0  0  0  0  0
   23.5165  -19.1053  -14.7813 C   0  0  0  0  0  0  0  0  0  0  0  0
   22.8290  -18.5699  -15.9612 C   0  0  0  0  0  0  0  0  0  0  0  0
   21.4653  -18.7040  -16.1495 C   0  0  0  0  0  0  0  0  0  0  0  0
   20.8004  -18.2079  -17.2477 C   0  0  0  0  0  0  0  0  0  0  0  0
   21.5040  -17.5377  -18.2278 C   0  0  0  0  0  0  0  0  0  0  0  0
   22.8605  -17.3877  -18.0704 C   0  0  0  0  0  0  0  0  0  0  0  0
   23.5148  -17.8862  -16.9713 C   0  0  0  0  0  0  0  0  0  0  0  0
   25.1452  -20.6773  -13.8788 C   0  0  0  0  0  0  0  0  0  0  0  0
   24.3571  -20.9552  -12.8845 O   0  0  0  0  0  0  0  0  0  0  0  0
   26.5031  -20.8181  -13.6119 N   0  0  0  0  0  0  0  0  0  0  0  0
   27.4466  -21.5000  -14.5357 C   0  0  0  0  0  0  0  0  0  0  0  0
   28.5538  -20.4465  -14.6022 C   0  0  0  0  0  0  0  0  0  0  0  0
   28.3798  -19.5749  -13.3534 C   0  0  0  0  0  0  0  0  0  0  0  0
   27.3953  -20.4623  -12.5570 C   0  0  1  0  0  0  0  0  0  0  0  0
   26.9228  -19.8434  -11.3505 C   0  0  0  0  0  0  0  0  0  0  0  0
   26.4076  -18.7240  -11.1540 O   0  0  0  0  0  0  0  0  0  0  0  0
   23.0681  -20.9580   -8.5518 C   0  0  0  0  0  0  0  0  0  0  0  0
   24.3440  -20.4414   -9.1624 C   0  0  0  0  0  0  0  0  0  0  0  0
   25.5369  -20.7141   -8.2721 C   0  0  2  0  0  0  0  0  0  0  0  0
   25.1966  -20.2615   -6.8932 C   0  0  0  0  0  0  0  0  0  0  0  0
   26.7904  -20.0734   -8.8279 C   0  0  2  0  0  0  0  0  0  0  0  0
   27.0531  -20.6268  -10.1399 N   0  0  0  0  0  0  0  0  0  0  0  0
   27.9160  -20.2833   -7.8995 C   0  0  0  0  0  0  0  0  0  0  0  0
   28.1278  -19.3927   -6.8724 O   0  0  0  0  0  0  0  0  0  0  0  0
   28.6744  -21.2604   -8.0404 O   0  0  0  0  0  0  0  0  0  0  0  0
  2  3  1  0
  2  1  1  1
  4  3  1  0
  5  4  2  0
  6  5  1  0
  7  8  1  0
  7  6  2  0
  8  9  2  0
  9  4  1  0
 10 12  1  0
 10  2  1  0
 11 10  2  0
 12 13  1  0
 14 13  1  0
 15 16  1  0
 15 14  1  0
 16 12  1  0
 17 24  1  0
 16 17  1  1
 18 17  2  0
 20 19  1  0
 21 23  1  0
 21 20  1  0
 21 22  1  1
 23 24  1  6
 25 26  1  0
 25 23  1  0
 27 25  2  0
M  END
$$$$
