FPI.pdb
     RDKit          3D

 27 28  0  0  1  0  0  0  0  0999 V2000
   24.2333  -21.8793  -13.3887 N   0  0  0  0  0  0  0  0  0  0  0  0
   24.9055  -20.8860  -12.6539 C   0  0  1  0  0  0  0  0  0  0  0  0
   23.9240  -19.7645  -12.3413 C   0  0  0  0  0  0  0  0  0  0  0  0
   23.2662  -19.2115  -13.5300 C   0  0  0  0  0  0  0  0  0  0  0  0
   21.9388  -19.4620  -13.8273 C   0  0  0  0  0  0  0  0  0  0  0  0
   21.3020  -18.9520  -14.9357 C   0  0  0  0  0  0  0  0  0  0  0  0
   21.9980  -18.1459  -15.8136 C   0  0  0  0  0  0  0  0  0  0  0  0
   23.3188  -17.8780  -15.5466 C   0  0  0  0  0  0  0  0  0  0  0  0
   23.9452  -18.3915  -14.4382 C   0  0  0  0  0  0  0  0  0  0  0  0
   25.6294  -21.2544  -11.4414 C   0  0  0  0  0  0  0  0  0  0  0  0
   24.8649  -21.4761  -10.4150 O   0  0  0  0  0  0  0  0  0  0  0  0
   26.9917  -21.4068  -11.2056 N   0  0  0  0  0  0  0  0  0  0  0  0
   27.8805  -22.2229  -12.0732 C   0  0  0  0  0  0  0  0  0  0  0  0
   29.0137  -21.2211  -12.3016 C   0  0  0  0  0  0  0  0  0  0  0  0
   28.9111  -20.2034  -11.1600 C   0  0  0  0  0  0  0  0  0  0  0  0
   27.9324  -20.9586  -10.2311 C   0  0  1  0  0  0  0  0  0  0  0  0
   27.5229  -20.1870   -9.0914 C   0  0  0  0  0  0  0  0  0  0  0  0
   26.8510  -19.1384   -9.0132 O   0  0  0  0  0  0  0  0  0  0  0  0
   26.7756  -22.5461   -4.1463 C   0  0  0  0  0  0  0  0  0  0  0  0
   26.7421  -21.6202   -5.3334 C   0  0  0  0  0  0  0  0  0  0  0  0
   27.9774  -20.7480   -5.3934 C   0  0  2  0  0  0  0  0  0  0  0  0
   28.0771  -20.0003   -4.1078 C   0  0  0  0  0  0  0  0  0  0  0  0
   27.9552  -19.8538   -6.6142 C   0  0  2  0  0  0  0  0  0  0  0  0
   27.9468  -20.6852   -7.7997 N   0  0  0  0  0  0  0  0  0  0  0  0
   29.1084  -18.9360   -6.5860 C   0  0  0  0  0  0  0  0  0  0  0  0
   28.9490  -17.6554   -6.1091 O   0  0  0  0  0  0  0  0  0  0  0  0
   30.2234  -19.3135   -6.9908 O   0  0  0  0  0  0  0  0  0  0  0  0
  2  3  1  0
  2  1  1  1
  4  3  1  0
  5  4  2  0
  6  5  1  0
  7  8  1  0
  7  6  2  0
  8  9  2  0
  9  4  1  0
 10 12  1  0
 10  2  1  0
 11 10  2  0
 12 13  1  0
 14 13  1  0
 15 16  1  0
 15 14  1  0
 16 12  1  0
 17 24  1  0
 16 17  1  1
 18 17  2  0
 20 19  1  0
 21 23  1  0
 21 20  1  0
 21 22  1  1
 23 24  1  6
 25 26  1  0
 25 23  1  0
 27 25  2  0
M  END
$$$$
