FPI.pdb
     RDKit          3D

 27 28  0  0  1  0  0  0  0  0999 V2000
   20.5973  -13.2323  -17.6341 N   0  0  0  0  0  0  0  0  0  0  0  0
   19.6517  -12.1910  -17.6359 C   0  0  1  0  0  0  0  0  0  0  0  0
   18.4707  -12.6052  -16.7685 C   0  0  0  0  0  0  0  0  0  0  0  0
   17.8495  -13.8667  -17.1858 C   0  0  0  0  0  0  0  0  0  0  0  0
   17.9616  -15.0294  -16.4450 C   0  0  0  0  0  0  0  0  0  0  0  0
   17.3855  -16.2227  -16.8172 C   0  0  0  0  0  0  0  0  0  0  0  0
   16.6525  -16.2933  -17.9845 C   0  0  0  0  0  0  0  0  0  0  0  0
   16.5224  -15.1554  -18.7432 C   0  0  0  0  0  0  0  0  0  0  0  0
   17.1008  -13.9696  -18.3635 C   0  0  0  0  0  0  0  0  0  0  0  0
   20.0701  -10.8391  -17.2793 C   0  0  0  0  0  0  0  0  0  0  0  0
   20.3895  -10.6962  -16.0284 O   0  0  0  0  0  0  0  0  0  0  0  0
   20.1829   -9.6877  -18.0517 N   0  0  0  0  0  0  0  0  0  0  0  0
   20.6834   -9.6936  -19.4510 C   0  0  0  0  0  0  0  0  0  0  0  0
   19.5802   -8.8768  -20.1261 C   0  0  0  0  0  0  0  0  0  0  0  0
   18.9015   -8.0808  -19.0057 C   0  0  0  0  0  0  0  0  0  0  0  0
   19.9372   -8.2933  -17.8773 C   0  0  1  0  0  0  0  0  0  0  0  0
   19.5165   -7.7572  -16.6132 C   0  0  0  0  0  0  0  0  0  0  0  0
   18.5090   -7.9988  -15.9178 O   0  0  0  0  0  0  0  0  0  0  0  0
   22.8573   -4.6690  -13.5923 C   0  0  0  0  0  0  0  0  0  0  0  0
   22.5113   -6.0016  -14.2023 C   0  0  0  0  0  0  0  0  0  0  0  0
   21.1482   -6.4817  -13.7533 C   0  0  2  0  0  0  0  0  0  0  0  0
   21.2399   -7.9450  -13.4845 C   0  0  0  0  0  0  0  0  0  0  0  0
   20.0813   -6.1168  -14.7628 C   0  0  2  0  0  0  0  0  0  0  0  0
   20.3891   -6.7658  -16.0200 N   0  0  0  0  0  0  0  0  0  0  0  0
   19.9979   -4.6513  -14.8985 C   0  0  0  0  0  0  0  0  0  0  0  0
   19.3467   -3.9135  -13.9370 O   0  0  0  0  0  0  0  0  0  0  0  0
   20.5129   -4.0795  -15.8770 O   0  0  0  0  0  0  0  0  0  0  0  0
  2  3  1  0
  2  1  1  1
  4  3  1  0
  5  4  2  0
  6  5  1  0
  7  8  1  0
  7  6  2  0
  8  9  2  0
  9  4  1  0
 10 12  1  0
 10  2  1  0
 11 10  2  0
 12 13  1  0
 14 13  1  0
 15 16  1  0
 15 14  1  0
 16 12  1  0
 17 24  1  0
 16 17  1  1
 18 17  2  0
 20 19  1  0
 21 23  1  0
 21 20  1  0
 21 22  1  6
 23 24  1  6
 25 26  1  0
 25 23  1  0
 27 25  2  0
M  END
$$$$
