FPI.pdb
     RDKit          3D

 27 28  0  0  1  0  0  0  0  0999 V2000
   21.2403  -15.4911  -17.9912 N   0  0  0  0  0  0  0  0  0  0  0  0
   21.7066  -14.1854  -18.2281 C   0  0  1  0  0  0  0  0  0  0  0  0
   21.0717  -13.6679  -19.5118 C   0  0  0  0  0  0  0  0  0  0  0  0
   21.3139  -14.5281  -20.6750 C   0  0  0  0  0  0  0  0  0  0  0  0
   20.3681  -15.4197  -21.1478 C   0  0  0  0  0  0  0  0  0  0  0  0
   20.5739  -16.2343  -22.2380 C   0  0  0  0  0  0  0  0  0  0  0  0
   21.7759  -16.1808  -22.9141 C   0  0  0  0  0  0  0  0  0  0  0  0
   22.7366  -15.3052  -22.4692 C   0  0  0  0  0  0  0  0  0  0  0  0
   22.5218  -14.4967  -21.3808 C   0  0  0  0  0  0  0  0  0  0  0  0
   21.5838  -13.1768  -17.1806 C   0  0  0  0  0  0  0  0  0  0  0  0
   20.3803  -12.7115  -17.0320 O   0  0  0  0  0  0  0  0  0  0  0  0
   22.5350  -12.6363  -16.3216 N   0  0  0  0  0  0  0  0  0  0  0  0
   23.5366  -13.4603  -15.5961 C   0  0  0  0  0  0  0  0  0  0  0  0
   24.8097  -12.6839  -15.9375 C   0  0  0  0  0  0  0  0  0  0  0  0
   24.3492  -11.2789  -16.3414 C   0  0  0  0  0  0  0  0  0  0  0  0
   22.8853  -11.3373  -15.8469 C   0  0  1  0  0  0  0  0  0  0  0  0
   22.1196  -10.1759  -16.2033 C   0  0  0  0  0  0  0  0  0  0  0  0
   21.9172   -9.6391  -17.3114 O   0  0  0  0  0  0  0  0  0  0  0  0
   17.2896   -9.6357  -15.9840 C   0  0  0  0  0  0  0  0  0  0  0  0
   18.7530   -9.3496  -16.1935 C   0  0  0  0  0  0  0  0  0  0  0  0
   19.2983   -8.4282  -15.1240 C   0  0  2  0  0  0  0  0  0  0  0  0
   18.5105   -7.1632  -15.1593 C   0  0  0  0  0  0  0  0  0  0  0  0
   20.7879   -8.2191  -15.2914 C   0  0  2  0  0  0  0  0  0  0  0  0
   21.4589   -9.4898  -15.1129 N   0  0  0  0  0  0  0  0  0  0  0  0
   21.2626   -7.2001  -14.3379 C   0  0  0  0  0  0  0  0  0  0  0  0
   21.4452   -5.9035  -14.7604 O   0  0  0  0  0  0  0  0  0  0  0  0
   21.4986   -7.5066  -13.1547 O   0  0  0  0  0  0  0  0  0  0  0  0
  2  3  1  0
  2  1  1  1
  4  3  1  0
  5  4  2  0
  6  5  1  0
  7  8  1  0
  7  6  2  0
  8  9  2  0
  9  4  1  0
 10 12  1  0
 10  2  1  0
 11 10  2  0
 12 13  1  0
 14 13  1  0
 15 16  1  0
 15 14  1  0
 16 12  1  0
 17 24  1  0
 16 17  1  6
 18 17  2  0
 20 19  1  0
 21 23  1  0
 21 20  1  0
 21 22  1  6
 23 24  1  1
 25 26  1  0
 25 23  1  0
 27 25  2  0
M  END
$$$$
