FPI.pdb
     RDKit          3D

 27 28  0  0  1  0  0  0  0  0999 V2000
   24.3566  -21.8429  -12.1753 N   0  0  0  0  0  0  0  0  0  0  0  0
   25.5855  -21.1593  -12.2046 C   0  0  1  0  0  0  0  0  0  0  0  0
   25.3614  -19.7822  -12.8147 C   0  0  0  0  0  0  0  0  0  0  0  0
   26.4836  -19.3136  -13.6348 C   0  0  0  0  0  0  0  0  0  0  0  0
   27.1681  -18.1444  -13.3566 C   0  0  0  0  0  0  0  0  0  0  0  0
   28.2244  -17.6876  -14.1116 C   0  0  0  0  0  0  0  0  0  0  0  0
   28.6445  -18.4122  -15.2085 C   0  0  0  0  0  0  0  0  0  0  0  0
   27.9850  -19.5786  -15.5118 C   0  0  0  0  0  0  0  0  0  0  0  0
   26.9323  -20.0260  -14.7525 C   0  0  0  0  0  0  0  0  0  0  0  0
   26.3658  -21.0298  -10.9782 C   0  0  0  0  0  0  0  0  0  0  0  0
   25.7485  -20.4050  -10.0212 O   0  0  0  0  0  0  0  0  0  0  0  0
   27.6509  -21.4620  -10.6671 N   0  0  0  0  0  0  0  0  0  0  0  0
   28.3812  -22.4807  -11.4653 C   0  0  0  0  0  0  0  0  0  0  0  0
   29.7133  -21.7541  -11.6595 C   0  0  0  0  0  0  0  0  0  0  0  0
   29.7807  -20.6972  -10.5515 C   0  0  0  0  0  0  0  0  0  0  0  0
   28.6204  -21.1905   -9.6563 C   0  0  1  0  0  0  0  0  0  0  0  0
   28.3353  -20.3080   -8.5600 C   0  0  0  0  0  0  0  0  0  0  0  0
   27.9586  -19.1185   -8.5452 O   0  0  0  0  0  0  0  0  0  0  0  0
   24.9002  -21.4900   -5.0244 C   0  0  0  0  0  0  0  0  0  0  0  0
   25.9504  -20.8395   -5.8855 C   0  0  0  0  0  0  0  0  0  0  0  0
   27.2785  -20.7440   -5.1662 C   0  0  2  0  0  0  0  0  0  0  0  0
   27.0503  -20.0513   -3.8662 C   0  0  0  0  0  0  0  0  0  0  0  0
   28.3223  -20.0748   -6.0342 C   0  0  2  0  0  0  0  0  0  0  0  0
   28.5051  -20.8644   -7.2341 N   0  0  0  0  0  0  0  0  0  0  0  0
   29.5769  -19.9135   -5.2774 C   0  0  0  0  0  0  0  0  0  0  0  0
   29.8569  -18.7113   -4.6697 O   0  0  0  0  0  0  0  0  0  0  0  0
   30.3827  -20.8580   -5.1858 O   0  0  0  0  0  0  0  0  0  0  0  0
  2  3  1  0
  2  1  1  1
  4  3  1  0
  5  4  2  0
  6  5  1  0
  7  8  1  0
  7  6  2  0
  8  9  2  0
  9  4  1  0
 10 12  1  0
 10  2  1  0
 11 10  2  0
 12 13  1  0
 14 13  1  0
 15 16  1  0
 15 14  1  0
 16 12  1  0
 17 24  1  0
 16 17  1  1
 18 17  2  0
 20 19  1  0
 21 23  1  0
 21 20  1  0
 21 22  1  1
 23 24  1  6
 25 26  1  0
 25 23  1  0
 27 25  2  0
M  END
$$$$
