FPI.pdb
     RDKit          3D

 27 28  0  0  1  0  0  0  0  0999 V2000
   13.2707  -19.5544    0.0255 N   0  0  0  0  0  0  0  0  0  0  0  0
   13.9399  -19.1779    1.2040 C   0  0  1  0  0  0  0  0  0  0  0  0
   12.9490  -19.2177    2.3596 C   0  0  0  0  0  0  0  0  0  0  0  0
   11.8033  -18.3192    2.1819 C   0  0  0  0  0  0  0  0  0  0  0  0
   10.5314  -18.7855    1.9026 C   0  0  0  0  0  0  0  0  0  0  0  0
    9.4427  -17.9604    1.7341 C   0  0  0  0  0  0  0  0  0  0  0  0
    9.5975  -16.5934    1.8435 C   0  0  0  0  0  0  0  0  0  0  0  0
   10.8488  -16.0983    2.1202 C   0  0  0  0  0  0  0  0  0  0  0  0
   11.9287  -16.9294    2.2867 C   0  0  0  0  0  0  0  0  0  0  0  0
   15.1662  -19.8702    1.5872 C   0  0  0  0  0  0  0  0  0  0  0  0
   15.1306  -21.1547    1.3974 O   0  0  0  0  0  0  0  0  0  0  0  0
   16.3574  -19.3854    2.1172 N   0  0  0  0  0  0  0  0  0  0  0  0
   16.9771  -18.1052    1.6865 C   0  0  0  0  0  0  0  0  0  0  0  0
   17.2318  -17.4660    3.0528 C   0  0  0  0  0  0  0  0  0  0  0  0
   17.2301  -18.6190    4.0627 C   0  0  0  0  0  0  0  0  0  0  0  0
   17.3125  -19.8149    3.0860 C   0  0  1  0  0  0  0  0  0  0  0  0
   17.1992  -21.0890    3.7387 C   0  0  0  0  0  0  0  0  0  0  0  0
   16.2179  -21.6540    4.2631 O   0  0  0  0  0  0  0  0  0  0  0  0
   20.9207  -24.6922    2.0685 C   0  0  0  0  0  0  0  0  0  0  0  0
   19.6171  -24.1594    2.6016 C   0  0  0  0  0  0  0  0  0  0  0  0
   19.6909  -23.8960    4.0900 C   0  0  2  0  0  0  0  0  0  0  0  0
   19.8616  -25.2051    4.7822 C   0  0  0  0  0  0  0  0  0  0  0  0
   18.4872  -23.1116    4.5657 C   0  0  2  0  0  0  0  0  0  0  0  0
   18.4131  -21.8741    3.8175 N   0  0  0  0  0  0  0  0  0  0  0  0
   18.5810  -22.8791    6.0184 C   0  0  0  0  0  0  0  0  0  0  0  0
   19.3431  -21.8372    6.4943 O   0  0  0  0  0  0  0  0  0  0  0  0
   17.9752  -23.6195    6.8148 O   0  0  0  0  0  0  0  0  0  0  0  0
  2  3  1  0
  2  1  1  6
  4  3  1  0
  5  4  2  0
  6  5  1  0
  7  8  1  0
  7  6  2  0
  8  9  2  0
  9  4  1  0
 10 12  1  0
 10  2  1  0
 11 10  2  0
 12 13  1  0
 14 13  1  0
 15 16  1  0
 15 14  1  0
 16 12  1  0
 17 24  1  0
 16 17  1  1
 18 17  2  0
 20 19  1  0
 21 23  1  0
 21 20  1  0
 21 22  1  1
 23 24  1  6
 25 26  1  0
 25 23  1  0
 27 25  2  0
M  END
$$$$
