FPI.pdb
     RDKit          3D

 27 28  0  0  1  0  0  0  0  0999 V2000
   28.1170  -20.7693  -14.7904 N   0  0  0  0  0  0  0  0  0  0  0  0
   27.0729  -21.0625  -13.8947 C   0  0  1  0  0  0  0  0  0  0  0  0
   27.2775  -20.2461  -12.6256 C   0  0  0  0  0  0  0  0  0  0  0  0
   28.4986  -20.5964  -11.8924 C   0  0  0  0  0  0  0  0  0  0  0  0
   29.7256  -20.0266  -12.1799 C   0  0  0  0  0  0  0  0  0  0  0  0
   30.8827  -20.3395  -11.5034 C   0  0  0  0  0  0  0  0  0  0  0  0
   30.8477  -21.2660  -10.4811 C   0  0  0  0  0  0  0  0  0  0  0  0
   29.6437  -21.8505  -10.1709 C   0  0  0  0  0  0  0  0  0  0  0  0
   28.4949  -21.5317  -10.8515 C   0  0  0  0  0  0  0  0  0  0  0  0
   25.6883  -20.9379  -14.3385 C   0  0  0  0  0  0  0  0  0  0  0  0
   25.3482  -19.7317  -14.6800 O   0  0  0  0  0  0  0  0  0  0  0  0
   24.6810  -21.8899  -14.4560 N   0  0  0  0  0  0  0  0  0  0  0  0
   24.9418  -23.3099  -14.8082 C   0  0  0  0  0  0  0  0  0  0  0  0
   24.1413  -24.0037  -13.7047 C   0  0  0  0  0  0  0  0  0  0  0  0
   23.1287  -22.9671  -13.2053 C   0  0  0  0  0  0  0  0  0  0  0  0
   23.2599  -21.9172  -14.3330 C   0  0  1  0  0  0  0  0  0  0  0  0
   22.5045  -20.7214  -14.0851 C   0  0  0  0  0  0  0  0  0  0  0  0
   22.5799  -19.8836  -13.1634 O   0  0  0  0  0  0  0  0  0  0  0  0
   18.9957  -18.6963  -18.0078 C   0  0  0  0  0  0  0  0  0  0  0  0
   20.2352  -19.2119  -17.3255 C   0  0  0  0  0  0  0  0  0  0  0  0
   20.5405  -18.4334  -16.0643 C   0  0  2  0  0  0  0  0  0  0  0  0
   21.8367  -17.7244  -16.2621 C   0  0  0  0  0  0  0  0  0  0  0  0
   20.5224  -19.3349  -14.8487 C   0  0  2  0  0  0  0  0  0  0  0  0
   21.4728  -20.4083  -15.0515 N   0  0  0  0  0  0  0  0  0  0  0  0
   19.1563  -19.8374  -14.6160 C   0  0  0  0  0  0  0  0  0  0  0  0
   18.2794  -19.1004  -13.8539 O   0  0  0  0  0  0  0  0  0  0  0  0
   18.7933  -20.9233  -15.1046 O   0  0  0  0  0  0  0  0  0  0  0  0
  2  3  1  0
  2  1  1  6
  4  3  1  0
  5  4  2  0
  6  5  1  0
  7  8  1  0
  7  6  2  0
  8  9  2  0
  9  4  1  0
 10 12  1  0
 10  2  1  0
 11 10  2  0
 12 13  1  0
 14 13  1  0
 15 16  1  0
 15 14  1  0
 16 12  1  0
 17 24  1  0
 16 17  1  1
 18 17  2  0
 20 19  1  0
 21 23  1  0
 21 20  1  0
 21 22  1  6
 23 24  1  6
 25 26  1  0
 25 23  1  0
 27 25  2  0
M  END
$$$$
