FPI.pdb
     RDKit          3D

 27 28  0  0  1  0  0  0  0  0999 V2000
   24.4106  -18.9550  -16.9852 N   0  0  0  0  0  0  0  0  0  0  0  0
   25.1174  -18.8006  -15.7789 C   0  0  1  0  0  0  0  0  0  0  0  0
   24.2170  -18.0934  -14.7749 C   0  0  0  0  0  0  0  0  0  0  0  0
   23.8069  -16.7502  -15.1982 C   0  0  0  0  0  0  0  0  0  0  0  0
   22.5299  -16.4729  -15.6514 C   0  0  0  0  0  0  0  0  0  0  0  0
   22.1240  -15.2201  -16.0515 C   0  0  0  0  0  0  0  0  0  0  0  0
   23.0149  -14.1669  -16.0093 C   0  0  0  0  0  0  0  0  0  0  0  0
   24.2917  -14.4095  -15.5638 C   0  0  0  0  0  0  0  0  0  0  0  0
   24.6871  -15.6628  -15.1669 C   0  0  0  0  0  0  0  0  0  0  0  0
   25.7300  -19.9664  -15.1501 C   0  0  0  0  0  0  0  0  0  0  0  0
   24.9159  -20.9636  -14.9766 O   0  0  0  0  0  0  0  0  0  0  0  0
   27.0314  -20.1845  -14.7100 N   0  0  0  0  0  0  0  0  0  0  0  0
   28.2281  -19.6689  -15.4245 C   0  0  0  0  0  0  0  0  0  0  0  0
   28.9695  -19.0178  -14.2555 C   0  0  0  0  0  0  0  0  0  0  0  0
   28.4112  -19.6726  -12.9870 C   0  0  0  0  0  0  0  0  0  0  0  0
   27.6591  -20.8641  -13.6239 C   0  0  1  0  0  0  0  0  0  0  0  0
   26.8978  -21.6268  -12.6748 C   0  0  0  0  0  0  0  0  0  0  0  0
   27.0815  -22.7701  -12.2098 O   0  0  0  0  0  0  0  0  0  0  0  0
   26.7619  -20.3261   -7.4078 C   0  0  0  0  0  0  0  0  0  0  0  0
   25.7969  -20.9274   -8.3951 C   0  0  0  0  0  0  0  0  0  0  0  0
   26.2485  -20.7023   -9.8218 C   0  0  2  0  0  0  0  0  0  0  0  0
   26.5436  -19.2508   -9.9888 C   0  0  0  0  0  0  0  0  0  0  0  0
   25.2280  -21.2303  -10.8069 C   0  0  2  0  0  0  0  0  0  0  0  0
   25.7094  -20.9869  -12.1507 N   0  0  0  0  0  0  0  0  0  0  0  0
   23.9190  -20.5986  -10.5615 C   0  0  0  0  0  0  0  0  0  0  0  0
   23.1364  -21.0348   -9.5174 O   0  0  0  0  0  0  0  0  0  0  0  0
   23.5191  -19.6742  -11.2932 O   0  0  0  0  0  0  0  0  0  0  0  0
  2  3  1  0
  2  1  1  6
  4  3  1  0
  5  4  2  0
  6  5  1  0
  7  8  1  0
  7  6  2  0
  8  9  2  0
  9  4  1  0
 10 12  1  0
 10  2  1  0
 11 10  2  0
 12 13  1  0
 14 13  1  0
 15 16  1  0
 15 14  1  0
 16 12  1  0
 17 24  1  0
 16 17  1  1
 18 17  2  0
 20 19  1  0
 21 23  1  0
 21 20  1  0
 21 22  1  6
 23 24  1  6
 25 26  1  0
 25 23  1  0
 27 25  2  0
M  END
$$$$
