FPI.pdb
     RDKit          3D

 27 28  0  0  1  0  0  0  0  0999 V2000
   25.0365  -22.0864  -12.3323 N   0  0  0  0  0  0  0  0  0  0  0  0
   25.8878  -21.0908  -11.8198 C   0  0  1  0  0  0  0  0  0  0  0  0
   25.1119  -19.7831  -11.7369 C   0  0  0  0  0  0  0  0  0  0  0  0
   24.5396  -19.3575  -13.0186 C   0  0  0  0  0  0  0  0  0  0  0  0
   23.1896  -19.4635  -13.2999 C   0  0  0  0  0  0  0  0  0  0  0  0
   22.6319  -19.0688  -14.4947 C   0  0  0  0  0  0  0  0  0  0  0  0
   23.4363  -18.5362  -15.4817 C   0  0  0  0  0  0  0  0  0  0  0  0
   24.7823  -18.4176  -15.2334 C   0  0  0  0  0  0  0  0  0  0  0  0
   25.3292  -18.8142  -14.0383 C   0  0  0  0  0  0  0  0  0  0  0  0
   26.5905  -21.3231  -10.5620 C   0  0  0  0  0  0  0  0  0  0  0  0
   25.8282  -21.2690   -9.5117 O   0  0  0  0  0  0  0  0  0  0  0  0
   27.9308  -21.5915  -10.3044 N   0  0  0  0  0  0  0  0  0  0  0  0
   28.7411  -22.5363  -11.1163 C   0  0  0  0  0  0  0  0  0  0  0  0
   29.9664  -21.6618  -11.3886 C   0  0  0  0  0  0  0  0  0  0  0  0
   29.9566  -20.5764  -10.3063 C   0  0  0  0  0  0  0  0  0  0  0  0
   28.9056  -21.1812   -9.3469 C   0  0  1  0  0  0  0  0  0  0  0  0
   28.5666  -20.3111   -8.2559 C   0  0  0  0  0  0  0  0  0  0  0  0
   28.0851  -19.1600   -8.2480 O   0  0  0  0  0  0  0  0  0  0  0  0
   25.1193  -21.3101   -4.8609 C   0  0  0  0  0  0  0  0  0  0  0  0
   26.2128  -20.6504   -5.6587 C   0  0  0  0  0  0  0  0  0  0  0  0
   27.5243  -20.6418   -4.9036 C   0  0  2  0  0  0  0  0  0  0  0  0
   27.3029  -19.9497   -3.6021 C   0  0  0  0  0  0  0  0  0  0  0  0
   28.6292  -20.0278   -5.7360 C   0  0  2  0  0  0  0  0  0  0  0  0
   28.8147  -20.8300   -6.9271 N   0  0  0  0  0  0  0  0  0  0  0  0
   29.8632  -19.9252   -4.9362 C   0  0  0  0  0  0  0  0  0  0  0  0
   30.1679  -18.7432   -4.3014 O   0  0  0  0  0  0  0  0  0  0  0  0
   30.6292  -20.9010   -4.8327 O   0  0  0  0  0  0  0  0  0  0  0  0
  2  3  1  0
  2  1  1  1
  4  3  1  0
  5  4  2  0
  6  5  1  0
  7  8  1  0
  7  6  2  0
  8  9  2  0
  9  4  1  0
 10 12  1  0
 10  2  1  0
 11 10  2  0
 12 13  1  0
 14 13  1  0
 15 16  1  0
 15 14  1  0
 16 12  1  0
 17 24  1  0
 16 17  1  1
 18 17  2  0
 20 19  1  0
 21 23  1  0
 21 20  1  0
 21 22  1  1
 23 24  1  6
 25 26  1  0
 25 23  1  0
 27 25  2  0
M  END
$$$$
