FPI.pdb
     RDKit          3D

 27 28  0  0  1  0  0  0  0  0999 V2000
   25.4470  -19.6546  -15.3163 N   0  0  0  0  0  0  0  0  0  0  0  0
   25.9370  -19.1222  -14.1101 C   0  0  1  0  0  0  0  0  0  0  0  0
   24.9946  -18.0193  -13.6471 C   0  0  0  0  0  0  0  0  0  0  0  0
   24.6878  -17.0333  -14.6888 C   0  0  0  0  0  0  0  0  0  0  0  0
   25.6420  -16.1713  -15.1983 C   0  0  0  0  0  0  0  0  0  0  0  0
   25.3760  -15.2404  -16.1766 C   0  0  0  0  0  0  0  0  0  0  0  0
   24.1009  -15.1387  -16.6949 C   0  0  0  0  0  0  0  0  0  0  0  0
   23.1300  -15.9809  -16.2097 C   0  0  0  0  0  0  0  0  0  0  0  0
   23.4052  -16.9063  -15.2336 C   0  0  0  0  0  0  0  0  0  0  0  0
   26.2280  -20.0171  -12.9947 C   0  0  0  0  0  0  0  0  0  0  0  0
   25.2856  -20.0753  -12.1026 O   0  0  0  0  0  0  0  0  0  0  0  0
   27.3386  -20.8122  -12.7315 N   0  0  0  0  0  0  0  0  0  0  0  0
   28.0322  -21.6108  -13.7753 C   0  0  0  0  0  0  0  0  0  0  0  0
   29.4778  -21.1860  -13.5113 C   0  0  0  0  0  0  0  0  0  0  0  0
   29.5016  -20.6459  -12.0770 C   0  0  0  0  0  0  0  0  0  0  0  0
   28.1241  -21.1522  -11.5900 C   0  0  1  0  0  0  0  0  0  0  0  0
   27.7806  -20.6855  -10.2761 C   0  0  0  0  0  0  0  0  0  0  0  0
   28.4760  -20.1411   -9.3946 O   0  0  0  0  0  0  0  0  0  0  0  0
   28.6180  -20.1378   -6.3750 C   0  0  0  0  0  0  0  0  0  0  0  0
   27.9998  -19.8005   -7.7060 C   0  0  0  0  0  0  0  0  0  0  0  0
   26.4918  -19.9203   -7.6652 C   0  0  2  0  0  0  0  0  0  0  0  0
   26.0736  -19.9981   -6.2366 C   0  0  0  0  0  0  0  0  0  0  0  0
   26.0144  -21.0885   -8.5007 C   0  0  2  0  0  0  0  0  0  0  0  0
   26.3999  -20.8636   -9.8781 N   0  0  0  0  0  0  0  0  0  0  0  0
   24.5571  -21.2518   -8.3500 C   0  0  0  0  0  0  0  0  0  0  0  0
   23.7341  -21.0645   -9.4364 O   0  0  0  0  0  0  0  0  0  0  0  0
   24.0688  -21.5578   -7.2466 O   0  0  0  0  0  0  0  0  0  0  0  0
  2  3  1  0
  2  1  1  6
  4  3  1  0
  5  4  2  0
  6  5  1  0
  7  8  1  0
  7  6  2  0
  8  9  2  0
  9  4  1  0
 10 12  1  0
 10  2  1  0
 11 10  2  0
 12 13  1  0
 14 13  1  0
 15 16  1  0
 15 14  1  0
 16 12  1  0
 17 24  1  0
 16 17  1  1
 18 17  2  0
 20 19  1  0
 21 23  1  0
 21 20  1  0
 21 22  1  1
 23 24  1  6
 25 26  1  0
 25 23  1  0
 27 25  2  0
M  END
$$$$
