FPI.pdb
     RDKit          3D

 27 28  0  0  1  0  0  0  0  0999 V2000
   24.4249  -22.2367  -13.5704 N   0  0  0  0  0  0  0  0  0  0  0  0
   24.9771  -21.2508  -12.7329 C   0  0  1  0  0  0  0  0  0  0  0  0
   23.8412  -20.4537  -12.1057 C   0  0  0  0  0  0  0  0  0  0  0  0
   22.8960  -19.9078  -13.0855 C   0  0  0  0  0  0  0  0  0  0  0  0
   23.2470  -18.9133  -13.9803 C   0  0  0  0  0  0  0  0  0  0  0  0
   22.3766  -18.3885  -14.9085 C   0  0  0  0  0  0  0  0  0  0  0  0
   21.0808  -18.8591  -14.9733 C   0  0  0  0  0  0  0  0  0  0  0  0
   20.7007  -19.8472  -14.0978 C   0  0  0  0  0  0  0  0  0  0  0  0
   21.5762  -20.3643  -13.1754 C   0  0  0  0  0  0  0  0  0  0  0  0
   25.9320  -21.6376  -11.6994 C   0  0  0  0  0  0  0  0  0  0  0  0
   25.4393  -22.4242  -10.7908 O   0  0  0  0  0  0  0  0  0  0  0  0
   27.2721  -21.3062  -11.5283 N   0  0  0  0  0  0  0  0  0  0  0  0
   28.3184  -21.6030  -12.5411 C   0  0  0  0  0  0  0  0  0  0  0  0
   28.9889  -20.2311  -12.6333 C   0  0  0  0  0  0  0  0  0  0  0  0
   28.6230  -19.4969  -11.3384 C   0  0  0  0  0  0  0  0  0  0  0  0
   28.0664  -20.6845  -10.5194 C   0  0  1  0  0  0  0  0  0  0  0  0
   27.5043  -20.2896   -9.2583 C   0  0  0  0  0  0  0  0  0  0  0  0
   26.4757  -19.6358   -8.9911 O   0  0  0  0  0  0  0  0  0  0  0  0
   29.2529  -21.2961   -3.3183 C   0  0  0  0  0  0  0  0  0  0  0  0
   28.3520  -20.6302   -4.3245 C   0  0  0  0  0  0  0  0  0  0  0  0
   28.7439  -20.9849   -5.7425 C   0  0  2  0  0  0  0  0  0  0  0  0
   30.1929  -20.6786   -5.9111 C   0  0  0  0  0  0  0  0  0  0  0  0
   27.8554  -20.2823   -6.7462 C   0  0  2  0  0  0  0  0  0  0  0  0
   28.2327  -20.7061   -8.0783 N   0  0  0  0  0  0  0  0  0  0  0  0
   27.9615  -18.8219   -6.5756 C   0  0  0  0  0  0  0  0  0  0  0  0
   28.7524  -18.0912   -7.4319 O   0  0  0  0  0  0  0  0  0  0  0  0
   27.3402  -18.2481   -5.6622 O   0  0  0  0  0  0  0  0  0  0  0  0
  2  3  1  0
  2  1  1  1
  4  3  1  0
  5  4  2  0
  6  5  1  0
  7  8  1  0
  7  6  2  0
  8  9  2  0
  9  4  1  0
 10 12  1  0
 10  2  1  0
 11 10  2  0
 12 13  1  0
 14 13  1  0
 15 16  1  0
 15 14  1  0
 16 12  1  0
 17 24  1  0
 16 17  1  1
 18 17  2  0
 20 19  1  0
 21 23  1  0
 21 20  1  0
 21 22  1  6
 23 24  1  6
 25 26  1  0
 25 23  1  0
 27 25  2  0
M  END
$$$$
