FPI.pdb
     RDKit          3D

 27 28  0  0  1  0  0  0  0  0999 V2000
   25.1538  -20.1006  -19.5280 N   0  0  0  0  0  0  0  0  0  0  0  0
   24.9681  -19.4083  -18.3177 C   0  0  1  0  0  0  0  0  0  0  0  0
   23.4734  -19.2682  -18.0621 C   0  0  0  0  0  0  0  0  0  0  0  0
   22.7903  -18.4051  -19.0316 C   0  0  0  0  0  0  0  0  0  0  0  0
   21.9910  -18.9108  -20.0407 C   0  0  0  0  0  0  0  0  0  0  0  0
   21.3398  -18.1191  -20.9592 C   0  0  0  0  0  0  0  0  0  0  0  0
   21.4723  -16.7469  -20.8949 C   0  0  0  0  0  0  0  0  0  0  0  0
   22.2598  -16.2130  -19.9037 C   0  0  0  0  0  0  0  0  0  0  0  0
   22.9053  -17.0111  -18.9921 C   0  0  0  0  0  0  0  0  0  0  0  0
   25.6286  -19.8862  -17.1073 C   0  0  0  0  0  0  0  0  0  0  0  0
   25.6412  -21.1794  -16.9862 O   0  0  0  0  0  0  0  0  0  0  0  0
   26.2425  -19.1911  -16.0705 N   0  0  0  0  0  0  0  0  0  0  0  0
   27.2920  -18.1624  -16.2913 C   0  0  0  0  0  0  0  0  0  0  0  0
   26.7321  -17.0293  -15.4295 C   0  0  0  0  0  0  0  0  0  0  0  0
   25.7681  -17.6919  -14.4390 C   0  0  0  0  0  0  0  0  0  0  0  0
   26.1657  -19.1718  -14.6461 C   0  0  1  0  0  0  0  0  0  0  0  0
   25.3280  -20.0900  -13.9267 C   0  0  0  0  0  0  0  0  0  0  0  0
   24.2880  -20.6881  -14.2700 O   0  0  0  0  0  0  0  0  0  0  0  0
   26.2500  -20.4207   -8.1755 C   0  0  0  0  0  0  0  0  0  0  0  0
   25.7743  -20.1464   -9.5777 C   0  0  0  0  0  0  0  0  0  0  0  0
   25.6829  -21.4182  -10.3928 C   0  0  2  0  0  0  0  0  0  0  0  0
   27.0665  -21.9300  -10.6061 C   0  0  0  0  0  0  0  0  0  0  0  0
   24.9170  -21.1888  -11.6778 C   0  0  2  0  0  0  0  0  0  0  0  0
   25.7333  -20.3925  -12.5701 N   0  0  0  0  0  0  0  0  0  0  0  0
   23.6234  -20.5459  -11.3840 C   0  0  0  0  0  0  0  0  0  0  0  0
   22.5709  -21.3073  -10.9308 O   0  0  0  0  0  0  0  0  0  0  0  0
   23.4793  -19.3198  -11.5437 O   0  0  0  0  0  0  0  0  0  0  0  0
  2  3  1  0
  2  1  1  6
  4  3  1  0
  5  4  2  0
  6  5  1  0
  7  8  1  0
  7  6  2  0
  8  9  2  0
  9  4  1  0
 10 12  1  0
 10  2  1  0
 11 10  2  0
 12 13  1  0
 14 13  1  0
 15 16  1  0
 15 14  1  0
 16 12  1  0
 17 24  1  0
 16 17  1  6
 18 17  2  0
 20 19  1  0
 21 23  1  0
 21 20  1  0
 21 22  1  6
 23 24  1  6
 25 26  1  0
 25 23  1  0
 27 25  2  0
M  END
$$$$
