ALL.pdb
     RDKit          3D

 22 21  0  0  1  0  0  0  0  0999 V2000
    7.5130  -19.1499   23.4178 C   0  0  0  0  0  0  0  0  0  0  0  0
    7.3200  -17.8856   22.6211 C   0  0  2  0  0  0  0  0  0  0  0  0
    7.6049  -18.1297   21.2157 N   0  0  0  0  0  0  0  0  0  0  0  0
    8.1409  -16.7920   23.1647 C   0  0  0  0  0  0  0  0  0  0  0  0
    9.2601  -16.5784   22.6327 O   0  0  0  0  0  0  0  0  0  0  0  0
    5.6540  -12.5804   25.8266 C   0  0  0  0  0  0  0  0  0  0  0  0
    6.4894  -13.3380   24.8207 C   0  0  1  0  0  0  0  0  0  0  0  0
    6.9825  -12.2908   23.8082 C   0  0  0  0  0  0  0  0  0  0  0  0
    7.7077  -13.8878   25.5076 C   0  0  0  0  0  0  0  0  0  0  0  0
    8.5250  -14.8138   24.6487 C   0  0  2  0  0  0  0  0  0  0  0  0
    7.7359  -15.9754   24.2465 N   0  0  0  0  0  0  0  0  0  0  0  0
    9.7287  -15.3153   25.3542 C   0  0  0  0  0  0  0  0  0  0  0  0
   10.8084  -14.6883   25.1768 O   0  0  0  0  0  0  0  0  0  0  0  0
    9.5218  -14.9542   30.1739 C   0  0  0  0  0  0  0  0  0  0  0  0
    9.9835  -15.1365   28.7717 C   0  0  1  0  0  0  0  0  0  0  0  0
   10.7991  -13.9163   28.3262 C   0  0  0  0  0  0  0  0  0  0  0  0
   10.6160  -16.4030   28.4082 C   0  0  0  0  0  0  0  0  0  0  0  0
   10.9298  -16.7689   27.0161 C   0  0  2  0  0  0  0  0  0  0  0  0
    9.7198  -16.4366   26.1963 N   0  0  0  0  0  0  0  0  0  0  0  0
   11.2110  -18.1688   26.6938 C   0  0  0  0  0  0  0  0  0  0  0  0
   12.1640  -18.7922   27.2194 O   0  0  0  0  0  0  0  0  0  0  0  0
   10.4208  -18.8733   25.7787 O   0  0  0  0  0  0  0  0  0  0  0  0
  2  1  1  1
  2  3  1  0
  4  2  1  0
  4  5  2  0
  7  6  1  1
  7  8  1  0
  7  9  1  0
 10  9  1  1
 10 11  1  0
 10 12  1  0
 11  4  1  0
 12 13  2  0
 12 19  1  0
 15 14  1  1
 15 16  1  0
 17 15  1  0
 18 17  1  1
 19 18  1  0
 20 22  1  0
 20 18  1  0
 21 20  2  0
M  END
$$$$
