ALL.pdb
     RDKit          3D

 22 21  0  0  1  0  0  0  0  0999 V2000
    9.8961  -16.0745   19.3409 C   0  0  0  0  0  0  0  0  0  0  0  0
    9.7249  -16.9705   20.5403 C   0  0  2  0  0  0  0  0  0  0  0  0
    8.4739  -17.7063   20.4423 N   0  0  0  0  0  0  0  0  0  0  0  0
    9.8095  -16.1975   21.7895 C   0  0  0  0  0  0  0  0  0  0  0  0
   10.8958  -15.6200   22.0495 O   0  0  0  0  0  0  0  0  0  0  0  0
    8.0659  -12.4059   24.8411 C   0  0  0  0  0  0  0  0  0  0  0  0
    7.5592  -13.7056   25.4220 C   0  0  1  0  0  0  0  0  0  0  0  0
    6.1083  -13.4367   25.8548 C   0  0  0  0  0  0  0  0  0  0  0  0
    7.5049  -14.7421   24.3351 C   0  0  0  0  0  0  0  0  0  0  0  0
    8.8569  -15.2312   23.8923 C   0  0  2  0  0  0  0  0  0  0  0  0
    8.7375  -16.0723   22.7041 N   0  0  0  0  0  0  0  0  0  0  0  0
    9.5329  -16.0332   24.9402 C   0  0  0  0  0  0  0  0  0  0  0  0
   10.0150  -17.1470   24.5974 O   0  0  0  0  0  0  0  0  0  0  0  0
    9.8815  -13.6646   29.9352 C   0  0  0  0  0  0  0  0  0  0  0  0
   10.1431  -14.2358   28.5869 C   0  0  1  0  0  0  0  0  0  0  0  0
   11.0709  -13.3058   27.7953 C   0  0  0  0  0  0  0  0  0  0  0  0
   10.5356  -15.6406   28.4924 C   0  0  0  0  0  0  0  0  0  0  0  0
   10.5152  -16.3924   27.2257 C   0  0  2  0  0  0  0  0  0  0  0  0
    9.6582  -15.6150   26.2728 N   0  0  0  0  0  0  0  0  0  0  0  0
    9.9449  -17.7405   27.2067 C   0  0  0  0  0  0  0  0  0  0  0  0
    8.7947  -17.9681   26.7614 O   0  0  0  0  0  0  0  0  0  0  0  0
   10.6667  -18.8382   27.6885 O   0  0  0  0  0  0  0  0  0  0  0  0
  2  1  1  6
  2  3  1  0
  4  2  1  0
  4  5  2  0
  7  6  1  6
  7  8  1  0
  7  9  1  0
 10  9  1  1
 10 11  1  0
 10 12  1  0
 11  4  1  0
 12 13  2  0
 12 19  1  0
 15 14  1  1
 15 16  1  0
 17 15  1  0
 18 17  1  1
 19 18  1  0
 20 22  1  0
 20 18  1  0
 21 20  2  0
M  END
$$$$
