ALL.pdb
     RDKit          3D

 22 21  0  0  1  0  0  0  0  0999 V2000
    7.2694  -19.2006   23.0099 C   0  0  0  0  0  0  0  0  0  0  0  0
    7.4414  -18.5170   21.6780 C   0  0  2  0  0  0  0  0  0  0  0  0
    7.8718  -19.4769   20.6734 N   0  0  0  0  0  0  0  0  0  0  0  0
    8.3723  -17.3825   21.7864 C   0  0  0  0  0  0  0  0  0  0  0  0
    9.6046  -17.6320   21.7766 O   0  0  0  0  0  0  0  0  0  0  0  0
    7.1961  -12.5280   19.6583 C   0  0  0  0  0  0  0  0  0  0  0  0
    7.8944  -13.8067   20.0593 C   0  0  1  0  0  0  0  0  0  0  0  0
    9.1374  -13.9083   19.1596 C   0  0  0  0  0  0  0  0  0  0  0  0
    8.3887  -13.6749   21.4724 C   0  0  0  0  0  0  0  0  0  0  0  0
    8.9233  -14.9559   22.0523 C   0  0  2  0  0  0  0  0  0  0  0  0
    7.9523  -16.0364   21.8992 N   0  0  0  0  0  0  0  0  0  0  0  0
    9.2278  -14.8318   23.4980 C   0  0  0  0  0  0  0  0  0  0  0  0
   10.2175  -14.1211   23.8235 O   0  0  0  0  0  0  0  0  0  0  0  0
    5.7347  -12.7830   26.5152 C   0  0  0  0  0  0  0  0  0  0  0  0
    7.1090  -13.2038   26.1320 C   0  0  1  0  0  0  0  0  0  0  0  0
    8.1172  -12.1149   26.5199 C   0  0  0  0  0  0  0  0  0  0  0  0
    7.5537  -14.5451   26.5053 C   0  0  0  0  0  0  0  0  0  0  0  0
    8.7643  -15.1704   25.9450 C   0  0  2  0  0  0  0  0  0  0  0  0
    8.4765  -15.4586   24.5026 N   0  0  0  0  0  0  0  0  0  0  0  0
    9.2190  -16.4525   26.4857 C   0  0  0  0  0  0  0  0  0  0  0  0
    9.5188  -16.5936   27.6953 O   0  0  0  0  0  0  0  0  0  0  0  0
    9.3379  -17.5814   25.6673 O   0  0  0  0  0  0  0  0  0  0  0  0
  2  1  1  1
  2  3  1  0
  4  2  1  0
  4  5  2  0
  7  6  1  6
  7  8  1  0
  7  9  1  0
 10  9  1  1
 10 11  1  0
 10 12  1  0
 11  4  1  0
 12 13  2  0
 12 19  1  0
 15 14  1  1
 15 16  1  0
 17 15  1  0
 18 17  1  1
 19 18  1  0
 20 22  1  0
 20 18  1  0
 21 20  2  0
M  END
$$$$
