ALL.pdb
     RDKit          3D

 22 21  0  0  1  0  0  0  0  0999 V2000
    9.6833  -18.3788   21.0786 C   0  0  0  0  0  0  0  0  0  0  0  0
    9.0564  -17.0511   20.7397 C   0  0  2  0  0  0  0  0  0  0  0  0
    9.6690  -16.4981   19.5419 N   0  0  0  0  0  0  0  0  0  0  0  0
    9.1440  -16.1232   21.8785 C   0  0  0  0  0  0  0  0  0  0  0  0
   10.2179  -15.4886   22.0366 O   0  0  0  0  0  0  0  0  0  0  0  0
    7.4855  -12.1328   24.8825 C   0  0  0  0  0  0  0  0  0  0  0  0
    6.9472  -13.4319   25.4358 C   0  0  1  0  0  0  0  0  0  0  0  0
    5.4979  -13.1413   25.8597 C   0  0  0  0  0  0  0  0  0  0  0  0
    6.8828  -14.4481   24.3305 C   0  0  0  0  0  0  0  0  0  0  0  0
    8.2284  -14.9636   23.8983 C   0  0  2  0  0  0  0  0  0  0  0  0
    8.0880  -15.9112   22.7955 N   0  0  0  0  0  0  0  0  0  0  0  0
    8.9402  -15.6602   24.9967 C   0  0  0  0  0  0  0  0  0  0  0  0
    8.9157  -16.9210   24.9959 O   0  0  0  0  0  0  0  0  0  0  0  0
   12.3498  -15.9306   29.6457 C   0  0  0  0  0  0  0  0  0  0  0  0
   11.0239  -15.2675   29.5239 C   0  0  1  0  0  0  0  0  0  0  0  0
   10.8887  -14.1686   30.5855 C   0  0  0  0  0  0  0  0  0  0  0  0
   10.5846  -14.8317   28.1997 C   0  0  0  0  0  0  0  0  0  0  0  0
   10.3148  -15.7717   27.0979 C   0  0  2  0  0  0  0  0  0  0  0  0
    9.6283  -14.9903   26.0186 N   0  0  0  0  0  0  0  0  0  0  0  0
    9.4297  -16.9130   27.3361 C   0  0  0  0  0  0  0  0  0  0  0  0
    9.8740  -18.0745   27.4992 O   0  0  0  0  0  0  0  0  0  0  0  0
    8.0408  -16.7521   27.3921 O   0  0  0  0  0  0  0  0  0  0  0  0
  2  1  1  1
  2  3  1  0
  4  2  1  0
  4  5  2  0
  7  6  1  6
  7  8  1  0
  7  9  1  0
 10  9  1  1
 10 11  1  0
 10 12  1  0
 11  4  1  0
 12 13  2  0
 12 19  1  0
 15 14  1  6
 15 16  1  0
 17 15  1  0
 18 17  1  1
 19 18  1  0
 20 22  1  0
 20 18  1  0
 21 20  2  0
M  END
$$$$
