ALL.pdb
     RDKit          3D

 22 21  0  0  1  0  0  0  0  0999 V2000
    6.2507  -18.6525   23.6906 C   0  0  0  0  0  0  0  0  0  0  0  0
    6.6160  -18.4246   22.2466 C   0  0  2  0  0  0  0  0  0  0  0  0
    6.9476  -19.6886   21.6074 N   0  0  0  0  0  0  0  0  0  0  0  0
    7.7103  -17.4478   22.1296 C   0  0  0  0  0  0  0  0  0  0  0  0
    8.8879  -17.8872   22.0978 O   0  0  0  0  0  0  0  0  0  0  0  0
    7.0416  -12.6651   19.5747 C   0  0  0  0  0  0  0  0  0  0  0  0
    7.6168  -13.9901   20.0185 C   0  0  1  0  0  0  0  0  0  0  0  0
    8.7587  -14.3037   19.0374 C   0  0  0  0  0  0  0  0  0  0  0  0
    8.2408  -13.8255   21.3756 C   0  0  0  0  0  0  0  0  0  0  0  0
    8.6329  -15.1237   22.0269 C   0  0  2  0  0  0  0  0  0  0  0  0
    7.5040  -16.0505   22.0508 N   0  0  0  0  0  0  0  0  0  0  0  0
    9.0838  -14.9342   23.4265 C   0  0  0  0  0  0  0  0  0  0  0  0
   10.2556  -14.5038   23.6051 O   0  0  0  0  0  0  0  0  0  0  0  0
    5.8721  -12.3179   26.5751 C   0  0  0  0  0  0  0  0  0  0  0  0
    7.1786  -12.8203   26.0717 C   0  0  1  0  0  0  0  0  0  0  0  0
    8.2345  -11.7112   26.1584 C   0  0  0  0  0  0  0  0  0  0  0  0
    7.6663  -14.1055   26.5685 C   0  0  0  0  0  0  0  0  0  0  0  0
    8.7563  -14.8524   25.9172 C   0  0  2  0  0  0  0  0  0  0  0  0
    8.2784  -15.2072   24.5415 N   0  0  0  0  0  0  0  0  0  0  0  0
    9.1866  -16.1288   26.4902 C   0  0  0  0  0  0  0  0  0  0  0  0
    9.6966  -16.2045   27.6336 O   0  0  0  0  0  0  0  0  0  0  0  0
    9.0446  -17.3256   25.7791 O   0  0  0  0  0  0  0  0  0  0  0  0
  2  1  1  1
  2  3  1  0
  4  2  1  0
  4  5  2  0
  7  6  1  6
  7  8  1  0
  7  9  1  0
 10  9  1  1
 10 11  1  0
 10 12  1  0
 11  4  1  0
 12 13  2  0
 12 19  1  0
 15 14  1  1
 15 16  1  0
 17 15  1  0
 18 17  1  1
 19 18  1  0
 20 22  1  0
 20 18  1  0
 21 20  2  0
M  END
$$$$
