ALL.pdb
     RDKit          3D

 22 21  0  0  1  0  0  0  0  0999 V2000
    8.4497  -19.1588   19.4393 C   0  0  0  0  0  0  0  0  0  0  0  0
    8.2462  -18.8045   20.8897 C   0  0  2  0  0  0  0  0  0  0  0  0
    6.8271  -18.7946   21.2094 N   0  0  0  0  0  0  0  0  0  0  0  0
    8.8894  -17.5208   21.2120 C   0  0  0  0  0  0  0  0  0  0  0  0
   10.1451  -17.4680   21.1732 O   0  0  0  0  0  0  0  0  0  0  0  0
    6.8980  -12.7372   19.4354 C   0  0  0  0  0  0  0  0  0  0  0  0
    7.8789  -13.8330   19.7828 C   0  0  1  0  0  0  0  0  0  0  0  0
    9.2458  -13.3550   19.2651 C   0  0  0  0  0  0  0  0  0  0  0  0
    7.9910  -13.9369   21.2778 C   0  0  0  0  0  0  0  0  0  0  0  0
    8.8549  -15.0761   21.7458 C   0  0  2  0  0  0  0  0  0  0  0  0
    8.1705  -16.3531   21.5592 N   0  0  0  0  0  0  0  0  0  0  0  0
    9.2017  -14.9621   23.1828 C   0  0  0  0  0  0  0  0  0  0  0  0
   10.1632  -14.2058   23.4892 O   0  0  0  0  0  0  0  0  0  0  0  0
    5.8544  -12.8133   26.2745 C   0  0  0  0  0  0  0  0  0  0  0  0
    7.2228  -13.2810   25.9259 C   0  0  1  0  0  0  0  0  0  0  0  0
    8.2680  -12.3173   26.5015 C   0  0  0  0  0  0  0  0  0  0  0  0
    7.5575  -14.6843   26.1605 C   0  0  0  0  0  0  0  0  0  0  0  0
    8.7828  -15.3120   25.6363 C   0  0  2  0  0  0  0  0  0  0  0  0
    8.5192  -15.6461   24.1991 N   0  0  0  0  0  0  0  0  0  0  0  0
    9.2438  -16.5722   26.2212 C   0  0  0  0  0  0  0  0  0  0  0  0
    9.4183  -16.7059   27.4560 O   0  0  0  0  0  0  0  0  0  0  0  0
    9.5102  -17.6874   25.4191 O   0  0  0  0  0  0  0  0  0  0  0  0
  2  1  1  6
  2  3  1  0
  4  2  1  0
  4  5  2  0
  7  6  1  1
  7  8  1  0
  7  9  1  0
 10  9  1  1
 10 11  1  0
 10 12  1  0
 11  4  1  0
 12 13  2  0
 12 19  1  0
 15 14  1  1
 15 16  1  0
 17 15  1  0
 18 17  1  1
 19 18  1  0
 20 22  1  0
 20 18  1  0
 21 20  2  0
M  END
$$$$
