ALL.pdb
     RDKit          3D

 22 21  0  0  1  0  0  0  0  0999 V2000
    9.1101  -20.1045   18.3528 C   0  0  0  0  0  0  0  0  0  0  0  0
    9.3878  -18.9249   17.4572 C   0  0  2  0  0  0  0  0  0  0  0  0
   10.4522  -19.2466   16.5194 N   0  0  0  0  0  0  0  0  0  0  0  0
    9.7002  -17.7255   18.2503 C   0  0  0  0  0  0  0  0  0  0  0  0
   10.8855  -17.5733   18.6415 O   0  0  0  0  0  0  0  0  0  0  0  0
    9.2559  -12.4939   19.5664 C   0  0  0  0  0  0  0  0  0  0  0  0
    8.2769  -13.3829   20.2978 C   0  0  1  0  0  0  0  0  0  0  0  0
    6.9695  -12.5792   20.3958 C   0  0  0  0  0  0  0  0  0  0  0  0
    7.9838  -14.5909   19.4533 C   0  0  0  0  0  0  0  0  0  0  0  0
    9.0985  -15.6009   19.4281 C   0  0  2  0  0  0  0  0  0  0  0  0
    8.7409  -16.7431   18.5905 N   0  0  0  0  0  0  0  0  0  0  0  0
    9.4135  -16.1210   20.7803 C   0  0  0  0  0  0  0  0  0  0  0  0
    8.5508  -16.8547   21.3351 O   0  0  0  0  0  0  0  0  0  0  0  0
   11.2429  -20.4311   23.0348 C   0  0  0  0  0  0  0  0  0  0  0  0
   11.2852  -19.0000   23.4385 C   0  0  1  0  0  0  0  0  0  0  0  0
   12.6002  -18.7008   24.1690 C   0  0  0  0  0  0  0  0  0  0  0  0
   10.9498  -17.9869   22.4398 C   0  0  0  0  0  0  0  0  0  0  0  0
   10.9286  -16.5448   22.7405 C   0  0  2  0  0  0  0  0  0  0  0  0
   10.6083  -15.8384   21.4579 N   0  0  0  0  0  0  0  0  0  0  0  0
   12.1537  -15.8977   23.2129 C   0  0  0  0  0  0  0  0  0  0  0  0
   12.4114  -15.7766   24.4343 O   0  0  0  0  0  0  0  0  0  0  0  0
   13.0941  -15.3845   22.3127 O   0  0  0  0  0  0  0  0  0  0  0  0
  2  1  1  1
  2  3  1  0
  4  2  1  0
  4  5  2  0
  7  6  1  6
  7  8  1  0
  7  9  1  0
 10  9  1  1
 10 11  1  0
 10 12  1  0
 11  4  1  0
 12 13  2  0
 12 19  1  0
 15 14  1  6
 15 16  1  0
 17 15  1  0
 18 17  1  6
 19 18  1  0
 20 22  1  0
 20 18  1  0
 21 20  2  0
M  END
$$$$
