IFE.pdb
     RDKit          3D

 29 29  0  0  1  0  0  0  0  0999 V2000
    9.1744  -20.2752   18.5954 C   0  0  0  0  0  0  0  0  0  0  0  0
    9.0793  -18.7902   18.6138 C   0  0  0  0  0  0  0  0  0  0  0  0
    9.3077  -18.1562   19.9612 C   0  0  2  0  0  0  0  0  0  0  0  0
    8.4223  -18.6855   21.0379 C   0  0  0  0  0  0  0  0  0  0  0  0
    9.0619  -16.6693   19.8231 C   0  0  2  0  0  0  0  0  0  0  0  0
    9.9523  -16.1955   18.7814 N   0  0  0  0  0  0  0  0  0  0  0  0
    9.2833  -15.9310   21.1009 C   0  0  0  0  0  0  0  0  0  0  0  0
   10.4570  -15.7532   21.5091 O   0  0  0  0  0  0  0  0  0  0  0  0
    8.2164  -15.4239   21.8694 N   0  0  0  0  0  0  0  0  0  0  0  0
    8.2948  -14.7823   23.1326 C   0  0  1  0  0  0  0  0  0  0  0  0
    7.1205  -13.9536   23.4989 C   0  0  0  0  0  0  0  0  0  0  0  0
    7.1760  -13.3686   24.8372 C   0  0  0  0  0  0  0  0  0  0  0  0
    6.3138  -13.7554   25.8397 C   0  0  0  0  0  0  0  0  0  0  0  0
    6.3786  -13.1889   27.1107 C   0  0  0  0  0  0  0  0  0  0  0  0
    7.3128  -12.2203   27.4013 C   0  0  0  0  0  0  0  0  0  0  0  0
    8.1806  -11.8255   26.4062 C   0  0  0  0  0  0  0  0  0  0  0  0
    8.1059  -12.4005   25.1363 C   0  0  0  0  0  0  0  0  0  0  0  0
    8.5463  -15.7702   24.2458 C   0  0  0  0  0  0  0  0  0  0  0  0
    7.7226  -16.6568   24.5767 O   0  0  0  0  0  0  0  0  0  0  0  0
    9.7524  -15.7491   24.9923 N   0  0  0  0  0  0  0  0  0  0  0  0
   10.0850  -16.8223   25.9482 C   0  0  1  0  0  0  0  0  0  0  0  0
   11.4790  -17.3053   25.7299 C   0  0  0  0  0  0  0  0  0  0  0  0
   11.7486  -17.9643   24.4257 C   0  0  0  0  0  0  0  0  0  0  0  0
   13.1517  -18.4090   24.2754 C   0  0  0  0  0  0  0  0  0  0  0  0
   13.8125  -19.0126   25.1568 O   0  0  0  0  0  0  0  0  0  0  0  0
    9.9869  -16.2224   27.2995 C   0  0  0  0  0  0  0  0  0  0  0  0
    9.6811  -14.8833   27.5364 O   0  0  0  0  0  0  0  0  0  0  0  0
   13.8303  -18.1614   23.0852 O   0  0  0  0  0  0  0  0  0  0  0  0
   10.1849  -16.9300   28.3181 O   0  0  0  0  0  0  0  0  0  0  0  0
  2  1  1  0
  3  2  1  0
  3  4  1  1
  5  3  1  0
  5  6  1  6
  7  5  1  0
  7  8  2  0
  9  7  1  0
 10  9  1  0
 10 11  1  1
 12 11  1  0
 12 17  2  0
 13 12  1  0
 14 13  2  0
 14 15  1  0
 15 16  2  0
 16 17  1  0
 18 10  1  0
 19 18  2  0
 20 18  1  0
 21 20  1  0
 21 26  1  0
 21 22  1  6
 23 22  1  0
 23 24  1  0
 24 25  2  0
 26 27  1  0
 28 24  1  0
 29 26  2  0
M  END
$$$$
