IFE.pdb
     RDKit          3D

 29 29  0  0  1  0  0  0  0  0999 V2000
    9.3367  -20.1182   18.1658 C   0  0  0  0  0  0  0  0  0  0  0  0
    8.9802  -18.6783   18.2850 C   0  0  0  0  0  0  0  0  0  0  0  0
    9.1934  -18.0828   19.6523 C   0  0  2  0  0  0  0  0  0  0  0  0
    8.4445  -18.7767   20.7390 C   0  0  0  0  0  0  0  0  0  0  0  0
    8.7454  -16.6380   19.6052 C   0  0  2  0  0  0  0  0  0  0  0  0
    9.4411  -16.0228   18.4916 N   0  0  0  0  0  0  0  0  0  0  0  0
    9.0172  -15.9121   20.8803 C   0  0  0  0  0  0  0  0  0  0  0  0
   10.1933  -15.8604   21.3159 O   0  0  0  0  0  0  0  0  0  0  0  0
    7.9955  -15.2795   21.6165 N   0  0  0  0  0  0  0  0  0  0  0  0
    8.1008  -14.6894   22.9026 C   0  0  1  0  0  0  0  0  0  0  0  0
    6.9364  -13.8738   23.3253 C   0  0  0  0  0  0  0  0  0  0  0  0
    7.0366  -13.3128   24.6713 C   0  0  0  0  0  0  0  0  0  0  0  0
    7.7669  -12.1750   24.9358 C   0  0  0  0  0  0  0  0  0  0  0  0
    7.8534  -11.6518   26.2239 C   0  0  0  0  0  0  0  0  0  0  0  0
    7.2067  -12.2621   27.2749 C   0  0  0  0  0  0  0  0  0  0  0  0
    6.4731  -13.4010   27.0223 C   0  0  0  0  0  0  0  0  0  0  0  0
    6.3939  -13.9159   25.7271 C   0  0  0  0  0  0  0  0  0  0  0  0
    8.3716  -15.7218   23.9700 C   0  0  0  0  0  0  0  0  0  0  0  0
    7.6078  -16.6905   24.1985 O   0  0  0  0  0  0  0  0  0  0  0  0
    9.5284  -15.6511   24.7881 N   0  0  0  0  0  0  0  0  0  0  0  0
    9.9272  -16.7751   25.6563 C   0  0  1  0  0  0  0  0  0  0  0  0
   11.2288  -17.3481   25.2073 C   0  0  0  0  0  0  0  0  0  0  0  0
   12.3158  -16.3728   24.9337 C   0  0  0  0  0  0  0  0  0  0  0  0
   13.2436  -16.8159   23.8698 C   0  0  0  0  0  0  0  0  0  0  0  0
   13.0318  -17.7733   23.0846 O   0  0  0  0  0  0  0  0  0  0  0  0
   10.0898  -16.2133   27.0177 C   0  0  0  0  0  0  0  0  0  0  0  0
    9.9028  -14.8683   27.3322 O   0  0  0  0  0  0  0  0  0  0  0  0
   14.4536  -16.1517   23.6886 O   0  0  0  0  0  0  0  0  0  0  0  0
   10.4157  -16.9614   27.9724 O   0  0  0  0  0  0  0  0  0  0  0  0
  2  1  1  0
  3  2  1  0
  3  4  1  1
  5  3  1  0
  5  6  1  6
  7  5  1  0
  7  8  2  0
  9  7  1  0
 10  9  1  0
 10 11  1  1
 12 11  1  0
 12 17  2  0
 13 12  1  0
 14 13  2  0
 14 15  1  0
 15 16  2  0
 16 17  1  0
 18 10  1  0
 19 18  2  0
 20 18  1  0
 21 20  1  0
 21 26  1  0
 21 22  1  6
 23 22  1  0
 23 24  1  0
 24 25  2  0
 26 27  1  0
 28 24  1  0
 29 26  2  0
M  END
$$$$
