IFE.pdb
     RDKit          3D

 29 29  0  0  1  0  0  0  0  0999 V2000
    6.4012  -12.1706   18.6850 C   0  0  0  0  0  0  0  0  0  0  0  0
    6.9046  -13.4722   19.2016 C   0  0  0  0  0  0  0  0  0  0  0  0
    7.5650  -13.4057   20.5541 C   0  0  2  0  0  0  0  0  0  0  0  0
    8.7467  -12.4981   20.6073 C   0  0  0  0  0  0  0  0  0  0  0  0
    8.0142  -14.8034   20.9215 C   0  0  2  0  0  0  0  0  0  0  0  0
    6.8270  -15.6359   20.9195 N   0  0  0  0  0  0  0  0  0  0  0  0
    8.7078  -14.8537   22.2417 C   0  0  0  0  0  0  0  0  0  0  0  0
    9.8702  -14.3902   22.3399 O   0  0  0  0  0  0  0  0  0  0  0  0
    8.1013  -15.4057   23.3878 N   0  0  0  0  0  0  0  0  0  0  0  0
    8.6584  -15.5141   24.6883 C   0  0  1  0  0  0  0  0  0  0  0  0
    7.7018  -15.3320   25.8071 C   0  0  0  0  0  0  0  0  0  0  0  0
    7.3871  -13.9405   26.1247 C   0  0  0  0  0  0  0  0  0  0  0  0
    8.3637  -13.0299   26.4639 C   0  0  0  0  0  0  0  0  0  0  0  0
    8.0488  -11.7066   26.7642 C   0  0  0  0  0  0  0  0  0  0  0  0
    6.7437  -11.2699   26.7296 C   0  0  0  0  0  0  0  0  0  0  0  0
    5.7582  -12.1720   26.3915 C   0  0  0  0  0  0  0  0  0  0  0  0
    6.0862  -13.4956   26.0927 C   0  0  0  0  0  0  0  0  0  0  0  0
    9.3725  -16.8298   24.8818 C   0  0  0  0  0  0  0  0  0  0  0  0
    8.7851  -17.9384   24.8716 O   0  0  0  0  0  0  0  0  0  0  0  0
   10.7748  -16.8846   25.0890 N   0  0  0  0  0  0  0  0  0  0  0  0
   11.4952  -18.1708   25.1445 C   0  0  1  0  0  0  0  0  0  0  0  0
   12.8270  -18.0545   24.4836 C   0  0  0  0  0  0  0  0  0  0  0  0
   13.6694  -16.9044   24.9024 C   0  0  0  0  0  0  0  0  0  0  0  0
   14.9485  -16.8181   24.1637 C   0  0  0  0  0  0  0  0  0  0  0  0
   15.8201  -17.7220   24.1282 O   0  0  0  0  0  0  0  0  0  0  0  0
   11.6928  -18.4766   26.5808 C   0  0  0  0  0  0  0  0  0  0  0  0
   12.2760  -19.6510   27.0536 O   0  0  0  0  0  0  0  0  0  0  0  0
   15.2511  -15.6680   23.4400 O   0  0  0  0  0  0  0  0  0  0  0  0
   11.3254  -17.6538   27.4557 O   0  0  0  0  0  0  0  0  0  0  0  0
  2  1  1  0
  3  2  1  0
  3  4  1  6
  5  3  1  0
  5  6  1  1
  7  5  1  0
  7  8  2  0
  9  7  1  0
 10  9  1  0
 10 11  1  1
 12 11  1  0
 12 17  2  0
 13 12  1  0
 14 13  2  0
 14 15  1  0
 15 16  2  0
 16 17  1  0
 18 10  1  0
 19 18  2  0
 20 18  1  0
 21 20  1  0
 21 26  1  0
 21 22  1  6
 23 22  1  0
 23 24  1  0
 24 25  2  0
 26 27  1  0
 28 24  1  0
 29 26  2  0
M  END
$$$$
