IFE.pdb
     RDKit          3D

 29 29  0  0  1  0  0  0  0  0999 V2000
    8.5957  -17.6445   16.5717 C   0  0  0  0  0  0  0  0  0  0  0  0
    8.1704  -16.3443   17.1575 C   0  0  0  0  0  0  0  0  0  0  0  0
    8.6631  -16.0877   18.5579 C   0  0  2  0  0  0  0  0  0  0  0  0
    8.4374  -17.2234   19.4973 C   0  0  0  0  0  0  0  0  0  0  0  0
    7.9377  -14.8709   19.0904 C   0  0  2  0  0  0  0  0  0  0  0  0
    8.2193  -13.7841   18.1727 N   0  0  0  0  0  0  0  0  0  0  0  0
    8.3475  -14.5233   20.4824 C   0  0  0  0  0  0  0  0  0  0  0  0
    9.5122  -14.1038   20.6904 O   0  0  0  0  0  0  0  0  0  0  0  0
    7.4693  -14.6498   21.5773 N   0  0  0  0  0  0  0  0  0  0  0  0
    7.7414  -14.3513   22.9375 C   0  0  1  0  0  0  0  0  0  0  0  0
    6.5703  -13.9245   23.7415 C   0  0  0  0  0  0  0  0  0  0  0  0
    6.8781  -13.5413   25.1180 C   0  0  0  0  0  0  0  0  0  0  0  0
    7.5150  -12.3581   25.4216 C   0  0  0  0  0  0  0  0  0  0  0  0
    7.8019  -12.0060   26.7386 C   0  0  0  0  0  0  0  0  0  0  0  0
    7.4541  -12.8370   27.7796 C   0  0  0  0  0  0  0  0  0  0  0  0
    6.8164  -14.0234   27.4878 C   0  0  0  0  0  0  0  0  0  0  0  0
    6.5343  -14.3653   26.1641 C   0  0  0  0  0  0  0  0  0  0  0  0
    8.4053  -15.5099   23.6413 C   0  0  0  0  0  0  0  0  0  0  0  0
    7.9294  -16.6707   23.6530 O   0  0  0  0  0  0  0  0  0  0  0  0
    9.6283  -15.3451   24.3409 N   0  0  0  0  0  0  0  0  0  0  0  0
   10.3674  -16.5014   24.8823 C   0  0  1  0  0  0  0  0  0  0  0  0
   11.8362  -16.3154   24.7030 C   0  0  0  0  0  0  0  0  0  0  0  0
   12.4676  -17.0957   23.6075 C   0  0  0  0  0  0  0  0  0  0  0  0
   13.8522  -16.6678   23.3091 C   0  0  0  0  0  0  0  0  0  0  0  0
   14.4849  -15.7876   23.9439 O   0  0  0  0  0  0  0  0  0  0  0  0
   10.0594  -16.5521   26.3308 C   0  0  0  0  0  0  0  0  0  0  0  0
   10.3552  -17.6389   27.1520 O   0  0  0  0  0  0  0  0  0  0  0  0
   14.5446  -17.2574   22.2550 O   0  0  0  0  0  0  0  0  0  0  0  0
    9.4977  -15.5774   26.8892 O   0  0  0  0  0  0  0  0  0  0  0  0
  2  1  1  0
  3  2  1  0
  3  4  1  1
  5  3  1  0
  5  6  1  6
  7  5  1  0
  7  8  2  0
  9  7  1  0
 10  9  1  0
 10 11  1  1
 12 11  1  0
 12 17  2  0
 13 12  1  0
 14 13  2  0
 14 15  1  0
 15 16  2  0
 16 17  1  0
 18 10  1  0
 19 18  2  0
 20 18  1  0
 21 20  1  0
 21 26  1  0
 21 22  1  1
 23 22  1  0
 23 24  1  0
 24 25  2  0
 26 27  1  0
 28 24  1  0
 29 26  2  0
M  END
$$$$
