IFE.pdb
     RDKit          3D

 29 29  0  0  1  0  0  0  0  0999 V2000
    9.0173  -19.9849   18.0853 C   0  0  0  0  0  0  0  0  0  0  0  0
    8.7732  -18.5219   18.2062 C   0  0  0  0  0  0  0  0  0  0  0  0
    9.0481  -17.9431   19.5697 C   0  0  2  0  0  0  0  0  0  0  0  0
    8.3259  -18.6322   20.6773 C   0  0  0  0  0  0  0  0  0  0  0  0
    8.6273  -16.4895   19.5513 C   0  0  2  0  0  0  0  0  0  0  0  0
    9.3161  -15.8711   18.4353 N   0  0  0  0  0  0  0  0  0  0  0  0
    8.9342  -15.7881   20.8321 C   0  0  0  0  0  0  0  0  0  0  0  0
   10.1307  -15.6689   21.1927 O   0  0  0  0  0  0  0  0  0  0  0  0
    7.9237  -15.2521   21.6553 N   0  0  0  0  0  0  0  0  0  0  0  0
    8.0833  -14.6392   22.9252 C   0  0  1  0  0  0  0  0  0  0  0  0
    6.8876  -13.9321   23.4448 C   0  0  0  0  0  0  0  0  0  0  0  0
    7.0433  -13.3657   24.7832 C   0  0  0  0  0  0  0  0  0  0  0  0
    6.4571  -13.9377   25.8909 C   0  0  0  0  0  0  0  0  0  0  0  0
    6.6143  -13.3866   27.1606 C   0  0  0  0  0  0  0  0  0  0  0  0
    7.3652  -12.2474   27.3439 C   0  0  0  0  0  0  0  0  0  0  0  0
    7.9564  -11.6664   26.2429 C   0  0  0  0  0  0  0  0  0  0  0  0
    7.7915  -12.2279   24.9755 C   0  0  0  0  0  0  0  0  0  0  0  0
    8.5423  -15.6285   23.9687 C   0  0  0  0  0  0  0  0  0  0  0  0
    7.9382  -16.7010   24.2116 O   0  0  0  0  0  0  0  0  0  0  0  0
    9.7055  -15.3943   24.7461 N   0  0  0  0  0  0  0  0  0  0  0  0
   10.3175  -16.4636   25.5575 C   0  0  1  0  0  0  0  0  0  0  0  0
   11.7969  -16.4821   25.3706 C   0  0  0  0  0  0  0  0  0  0  0  0
   12.3158  -17.4110   24.3335 C   0  0  0  0  0  0  0  0  0  0  0  0
   13.6570  -17.0369   23.8331 C   0  0  0  0  0  0  0  0  0  0  0  0
   13.9882  -17.0025   22.6219 O   0  0  0  0  0  0  0  0  0  0  0  0
   10.0124  -16.1410   26.9712 C   0  0  0  0  0  0  0  0  0  0  0  0
   10.1516  -17.0445   28.0234 O   0  0  0  0  0  0  0  0  0  0  0  0
   14.6582  -16.6894   24.7360 O   0  0  0  0  0  0  0  0  0  0  0  0
    9.6006  -14.9955   27.2805 O   0  0  0  0  0  0  0  0  0  0  0  0
  2  1  1  0
  3  2  1  0
  3  4  1  1
  5  3  1  0
  5  6  1  6
  7  5  1  0
  7  8  2  0
  9  7  1  0
 10  9  1  0
 10 11  1  1
 12 11  1  0
 12 17  2  0
 13 12  1  0
 14 13  2  0
 14 15  1  0
 15 16  2  0
 16 17  1  0
 18 10  1  0
 19 18  2  0
 20 18  1  0
 21 20  1  0
 21 26  1  0
 21 22  1  1
 23 22  1  0
 23 24  1  0
 24 25  2  0
 26 27  1  0
 28 24  1  0
 29 26  2  0
M  END
$$$$
