IFE.pdb
     RDKit          3D

 29 29  0  0  1  0  0  0  0  0999 V2000
   10.3868  -20.4234   19.0162 C   0  0  0  0  0  0  0  0  0  0  0  0
    9.8207  -19.0472   19.0276 C   0  0  0  0  0  0  0  0  0  0  0  0
    9.9921  -18.3011   20.3251 C   0  0  2  0  0  0  0  0  0  0  0  0
    9.4287  -19.0092   21.5102 C   0  0  0  0  0  0  0  0  0  0  0  0
    9.2973  -16.9637   20.1878 C   0  0  2  0  0  0  0  0  0  0  0  0
    9.8625  -16.3194   19.0183 N   0  0  0  0  0  0  0  0  0  0  0  0
    9.4511  -16.1109   21.4026 C   0  0  0  0  0  0  0  0  0  0  0  0
   10.5989  -15.7344   21.7442 O   0  0  0  0  0  0  0  0  0  0  0  0
    8.3484  -15.7111   22.1838 N   0  0  0  0  0  0  0  0  0  0  0  0
    8.3724  -14.9441   23.3773 C   0  0  1  0  0  0  0  0  0  0  0  0
    7.1018  -14.2594   23.7188 C   0  0  0  0  0  0  0  0  0  0  0  0
    7.1364  -13.4843   24.9575 C   0  0  0  0  0  0  0  0  0  0  0  0
    6.5208  -13.9212   26.1099 C   0  0  0  0  0  0  0  0  0  0  0  0
    6.5622  -13.1716   27.2833 C   0  0  0  0  0  0  0  0  0  0  0  0
    7.2243  -11.9653   27.3232 C   0  0  0  0  0  0  0  0  0  0  0  0
    7.8439  -11.5180   26.1763 C   0  0  0  0  0  0  0  0  0  0  0  0
    7.7954  -12.2781   25.0064 C   0  0  0  0  0  0  0  0  0  0  0  0
    8.8012  -15.7719   24.5644 C   0  0  0  0  0  0  0  0  0  0  0  0
    8.1636  -16.7735   24.9699 O   0  0  0  0  0  0  0  0  0  0  0  0
    9.9724  -15.4558   25.2997 N   0  0  0  0  0  0  0  0  0  0  0  0
   10.5379  -16.3942   26.2877 C   0  0  1  0  0  0  0  0  0  0  0  0
   12.0271  -16.4043   26.2084 C   0  0  0  0  0  0  0  0  0  0  0  0
   12.6112  -16.6516   24.8648 C   0  0  0  0  0  0  0  0  0  0  0  0
   14.0889  -16.5800   24.8485 C   0  0  0  0  0  0  0  0  0  0  0  0
   14.7556  -15.5610   24.5398 O   0  0  0  0  0  0  0  0  0  0  0  0
   10.1276  -15.8938   27.6207 C   0  0  0  0  0  0  0  0  0  0  0  0
   10.2910  -16.6102   28.8052 O   0  0  0  0  0  0  0  0  0  0  0  0
   14.8380  -17.7015   25.1938 O   0  0  0  0  0  0  0  0  0  0  0  0
    9.5965  -14.7611   27.7315 O   0  0  0  0  0  0  0  0  0  0  0  0
  2  1  1  0
  3  2  1  0
  3  4  1  1
  5  3  1  0
  5  6  1  6
  7  5  1  0
  7  8  2  0
  9  7  1  0
 10  9  1  0
 10 11  1  1
 12 11  1  0
 12 17  2  0
 13 12  1  0
 14 13  2  0
 14 15  1  0
 15 16  2  0
 16 17  1  0
 18 10  1  0
 19 18  2  0
 20 18  1  0
 21 20  1  0
 21 26  1  0
 21 22  1  1
 23 22  1  0
 23 24  1  0
 24 25  2  0
 26 27  1  0
 28 24  1  0
 29 26  2  0
M  END
$$$$
