IFE.pdb
     RDKit          3D

 29 29  0  0  1  0  0  0  0  0999 V2000
    8.9349  -19.7253   17.9333 C   0  0  0  0  0  0  0  0  0  0  0  0
    8.6704  -18.2727   18.1189 C   0  0  0  0  0  0  0  0  0  0  0  0
    8.9658  -17.7449   19.4987 C   0  0  2  0  0  0  0  0  0  0  0  0
    8.2678  -18.4812   20.5913 C   0  0  0  0  0  0  0  0  0  0  0  0
    8.5357  -16.2947   19.5439 C   0  0  2  0  0  0  0  0  0  0  0  0
    9.2199  -15.6238   18.4557 N   0  0  0  0  0  0  0  0  0  0  0  0
    8.8388  -15.6478   20.8540 C   0  0  0  0  0  0  0  0  0  0  0  0
   10.0342  -15.4191   21.1611 O   0  0  0  0  0  0  0  0  0  0  0  0
    7.8258  -15.2828   21.7632 N   0  0  0  0  0  0  0  0  0  0  0  0
    7.9903  -14.6937   23.0435 C   0  0  1  0  0  0  0  0  0  0  0  0
    6.7770  -14.0567   23.6110 C   0  0  0  0  0  0  0  0  0  0  0  0
    6.9741  -13.4056   24.9047 C   0  0  0  0  0  0  0  0  0  0  0  0
    6.5912  -13.9997   26.0872 C   0  0  0  0  0  0  0  0  0  0  0  0
    6.7855  -13.3670   27.3130 C   0  0  0  0  0  0  0  0  0  0  0  0
    7.3695  -12.1220   27.3761 C   0  0  0  0  0  0  0  0  0  0  0  0
    7.7566  -11.5179   26.1995 C   0  0  0  0  0  0  0  0  0  0  0  0
    7.5566  -12.1619   24.9771 C   0  0  0  0  0  0  0  0  0  0  0  0
    8.5225  -15.6848   24.0499 C   0  0  0  0  0  0  0  0  0  0  0  0
    7.8901  -16.7075   24.4078 O   0  0  0  0  0  0  0  0  0  0  0  0
    9.7928  -15.5099   24.6567 N   0  0  0  0  0  0  0  0  0  0  0  0
   10.4087  -16.5727   25.4737 C   0  0  1  0  0  0  0  0  0  0  0  0
   11.8924  -16.5554   25.3243 C   0  0  0  0  0  0  0  0  0  0  0  0
   12.4115  -16.5114   23.9328 C   0  0  0  0  0  0  0  0  0  0  0  0
   13.8891  -16.5348   23.8600 C   0  0  0  0  0  0  0  0  0  0  0  0
   14.5960  -15.6488   23.3185 O   0  0  0  0  0  0  0  0  0  0  0  0
   10.0606  -16.2708   26.8820 C   0  0  0  0  0  0  0  0  0  0  0  0
   10.2933  -17.1415   27.9452 O   0  0  0  0  0  0  0  0  0  0  0  0
   14.5908  -17.5989   24.4200 O   0  0  0  0  0  0  0  0  0  0  0  0
    9.5214  -15.1752   27.1759 O   0  0  0  0  0  0  0  0  0  0  0  0
  2  1  1  0
  3  2  1  0
  3  4  1  1
  5  3  1  0
  5  6  1  6
  7  5  1  0
  7  8  2  0
  9  7  1  0
 10  9  1  0
 10 11  1  1
 12 11  1  0
 12 17  2  0
 13 12  1  0
 14 13  2  0
 14 15  1  0
 15 16  2  0
 16 17  1  0
 18 10  1  0
 19 18  2  0
 20 18  1  0
 21 20  1  0
 21 26  1  0
 21 22  1  1
 23 22  1  0
 23 24  1  0
 24 25  2  0
 26 27  1  0
 28 24  1  0
 29 26  2  0
M  END
$$$$
