IFE.pdb
     RDKit          3D

 29 29  0  0  1  0  0  0  0  0999 V2000
    7.1943  -13.0360   16.9436 C   0  0  0  0  0  0  0  0  0  0  0  0
    7.6392  -14.1565   17.8161 C   0  0  0  0  0  0  0  0  0  0  0  0
    8.1090  -13.7454   19.1872 C   0  0  2  0  0  0  0  0  0  0  0  0
    9.2853  -12.8292   19.1752 C   0  0  0  0  0  0  0  0  0  0  0  0
    8.4835  -15.0001   19.9460 C   0  0  2  0  0  0  0  0  0  0  0  0
    7.3660  -15.9147   19.8150 N   0  0  0  0  0  0  0  0  0  0  0  0
    8.7964  -14.7304   21.3799 C   0  0  0  0  0  0  0  0  0  0  0  0
    9.8941  -14.1986   21.6769 O   0  0  0  0  0  0  0  0  0  0  0  0
    7.8992  -15.0530   22.4176 N   0  0  0  0  0  0  0  0  0  0  0  0
    8.0593  -14.7970   23.8041 C   0  0  1  0  0  0  0  0  0  0  0  0
    6.8199  -14.4261   24.5296 C   0  0  0  0  0  0  0  0  0  0  0  0
    7.0361  -13.7666   25.8159 C   0  0  0  0  0  0  0  0  0  0  0  0
    7.0655  -12.3946   25.9373 C   0  0  0  0  0  0  0  0  0  0  0  0
    7.2726  -11.7799   27.1701 C   0  0  0  0  0  0  0  0  0  0  0  0
    7.4547  -12.5323   28.3085 C   0  0  0  0  0  0  0  0  0  0  0  0
    7.4273  -13.9058   28.1991 C   0  0  0  0  0  0  0  0  0  0  0  0
    7.2190  -14.5103   26.9582 C   0  0  0  0  0  0  0  0  0  0  0  0
    8.6972  -15.9644   24.5173 C   0  0  0  0  0  0  0  0  0  0  0  0
    8.1353  -17.0782   24.6510 O   0  0  0  0  0  0  0  0  0  0  0  0
    9.9930  -15.8629   25.0856 N   0  0  0  0  0  0  0  0  0  0  0  0
   10.6997  -17.0480   25.6076 C   0  0  1  0  0  0  0  0  0  0  0  0
   11.9957  -17.2414   24.8954 C   0  0  0  0  0  0  0  0  0  0  0  0
   12.8386  -16.0296   24.7258 C   0  0  0  0  0  0  0  0  0  0  0  0
   14.0020  -16.2474   23.8378 C   0  0  0  0  0  0  0  0  0  0  0  0
   15.0706  -16.8124   24.1793 O   0  0  0  0  0  0  0  0  0  0  0  0
   10.9701  -16.7756   27.0387 C   0  0  0  0  0  0  0  0  0  0  0  0
   11.5061  -17.7116   27.9216 O   0  0  0  0  0  0  0  0  0  0  0  0
   13.9534  -15.8099   22.5171 O   0  0  0  0  0  0  0  0  0  0  0  0
   10.7138  -15.6457   27.5236 O   0  0  0  0  0  0  0  0  0  0  0  0
  2  1  1  0
  3  2  1  0
  3  4  1  6
  5  3  1  0
  5  6  1  1
  7  5  1  0
  7  8  2  0
  9  7  1  0
 10  9  1  0
 10 11  1  1
 12 11  1  0
 12 17  2  0
 13 12  1  0
 14 13  2  0
 14 15  1  0
 15 16  2  0
 16 17  1  0
 18 10  1  0
 19 18  2  0
 20 18  1  0
 21 20  1  0
 21 26  1  0
 21 22  1  6
 23 22  1  0
 23 24  1  0
 24 25  2  0
 26 27  1  0
 28 24  1  0
 29 26  2  0
M  END
$$$$
