IFE.pdb
     RDKit          3D

 29 29  0  0  1  0  0  0  0  0999 V2000
    6.8858  -12.2250   18.4643 C   0  0  0  0  0  0  0  0  0  0  0  0
    7.3536  -13.5232   19.0212 C   0  0  0  0  0  0  0  0  0  0  0  0
    7.9421  -13.4447   20.4059 C   0  0  2  0  0  0  0  0  0  0  0  0
    9.0963  -12.5077   20.5215 C   0  0  0  0  0  0  0  0  0  0  0  0
    8.4072  -14.8319   20.7929 C   0  0  2  0  0  0  0  0  0  0  0  0
    7.2241  -15.6688   20.8416 N   0  0  0  0  0  0  0  0  0  0  0  0
    9.1361  -14.8492   22.0948 C   0  0  0  0  0  0  0  0  0  0  0  0
   10.3444  -14.5102   22.1238 O   0  0  0  0  0  0  0  0  0  0  0  0
    8.5133  -15.2346   23.2988 N   0  0  0  0  0  0  0  0  0  0  0  0
    9.0998  -15.2969   24.5893 C   0  0  1  0  0  0  0  0  0  0  0  0
    8.2029  -14.9342   25.7136 C   0  0  0  0  0  0  0  0  0  0  0  0
    8.8669  -14.7981   27.0086 C   0  0  0  0  0  0  0  0  0  0  0  0
    9.0811  -15.8781   27.8366 C   0  0  0  0  0  0  0  0  0  0  0  0
    9.7155  -15.7331   29.0683 C   0  0  0  0  0  0  0  0  0  0  0  0
   10.1487  -14.4977   29.4943 C   0  0  0  0  0  0  0  0  0  0  0  0
    9.9398  -13.4100   28.6742 C   0  0  0  0  0  0  0  0  0  0  0  0
    9.3029  -13.5678   27.4421 C   0  0  0  0  0  0  0  0  0  0  0  0
    9.6882  -16.6583   24.8699 C   0  0  0  0  0  0  0  0  0  0  0  0
    8.9903  -17.6872   25.0381 O   0  0  0  0  0  0  0  0  0  0  0  0
   11.0907  -16.8515   24.9594 N   0  0  0  0  0  0  0  0  0  0  0  0
   11.6735  -18.1963   25.1278 C   0  0  1  0  0  0  0  0  0  0  0  0
   12.9384  -18.3209   24.3477 C   0  0  0  0  0  0  0  0  0  0  0  0
   12.8557  -17.9787   22.9042 C   0  0  0  0  0  0  0  0  0  0  0  0
   14.1524  -18.0960   22.2012 C   0  0  0  0  0  0  0  0  0  0  0  0
   15.2694  -18.1994   22.7665 O   0  0  0  0  0  0  0  0  0  0  0  0
   11.9785  -18.3410   26.5706 C   0  0  0  0  0  0  0  0  0  0  0  0
   12.3844  -19.5349   27.1645 O   0  0  0  0  0  0  0  0  0  0  0  0
   14.1852  -18.0962   20.8094 O   0  0  0  0  0  0  0  0  0  0  0  0
   11.8764  -17.3518   27.3377 O   0  0  0  0  0  0  0  0  0  0  0  0
  2  1  1  0
  3  2  1  0
  3  4  1  6
  5  3  1  0
  5  6  1  1
  7  5  1  0
  7  8  2  0
  9  7  1  0
 10  9  1  0
 10 11  1  1
 12 11  1  0
 12 17  2  0
 13 12  1  0
 14 13  2  0
 14 15  1  0
 15 16  2  0
 16 17  1  0
 18 10  1  0
 19 18  2  0
 20 18  1  0
 21 20  1  0
 21 26  1  0
 21 22  1  6
 23 22  1  0
 23 24  1  0
 24 25  2  0
 26 27  1  0
 28 24  1  0
 29 26  2  0
M  END
$$$$
