IFE.pdb
     RDKit          3D

 29 29  0  0  1  0  0  0  0  0999 V2000
    7.9077  -19.7295   18.3644 C   0  0  0  0  0  0  0  0  0  0  0  0
    8.2220  -18.2793   18.4774 C   0  0  0  0  0  0  0  0  0  0  0  0
    8.4372  -17.7842   19.8839 C   0  0  2  0  0  0  0  0  0  0  0  0
    7.2913  -18.0473   20.8008 C   0  0  0  0  0  0  0  0  0  0  0  0
    8.6702  -16.2902   19.8205 C   0  0  2  0  0  0  0  0  0  0  0  0
    9.7805  -16.0806   18.9117 N   0  0  0  0  0  0  0  0  0  0  0  0
    8.9488  -15.6965   21.1608 C   0  0  0  0  0  0  0  0  0  0  0  0
   10.0454  -15.9395   21.7214 O   0  0  0  0  0  0  0  0  0  0  0  0
    8.0202  -14.8688   21.8230 N   0  0  0  0  0  0  0  0  0  0  0  0
    8.0896  -14.3944   23.1585 C   0  0  1  0  0  0  0  0  0  0  0  0
    7.0458  -13.4119   23.5394 C   0  0  0  0  0  0  0  0  0  0  0  0
    7.0568  -13.0201   24.9475 C   0  0  0  0  0  0  0  0  0  0  0  0
    8.0519  -12.2286   25.4776 C   0  0  0  0  0  0  0  0  0  0  0  0
    8.0493  -11.8631   26.8218 C   0  0  0  0  0  0  0  0  0  0  0  0
    7.0448  -12.2861   27.6628 C   0  0  0  0  0  0  0  0  0  0  0  0
    6.0438  -13.0785   27.1435 C   0  0  0  0  0  0  0  0  0  0  0  0
    6.0574  -13.4382   25.7948 C   0  0  0  0  0  0  0  0  0  0  0  0
    8.0634  -15.5274   24.1555 C   0  0  0  0  0  0  0  0  0  0  0  0
    7.0508  -16.2393   24.3601 O   0  0  0  0  0  0  0  0  0  0  0  0
    9.2060  -15.8553   24.9296 N   0  0  0  0  0  0  0  0  0  0  0  0
    9.2214  -17.0321   25.8192 C   0  0  1  0  0  0  0  0  0  0  0  0
   10.1515  -18.0733   25.2950 C   0  0  0  0  0  0  0  0  0  0  0  0
   11.5645  -17.6551   25.1042 C   0  0  0  0  0  0  0  0  0  0  0  0
   12.3095  -18.5257   24.1681 C   0  0  0  0  0  0  0  0  0  0  0  0
   11.8396  -19.5473   23.6084 O   0  0  0  0  0  0  0  0  0  0  0  0
    9.7179  -16.5563   27.1317 C   0  0  0  0  0  0  0  0  0  0  0  0
   10.1561  -15.2553   27.3732 O   0  0  0  0  0  0  0  0  0  0  0  0
   13.6332  -18.2288   23.8550 O   0  0  0  0  0  0  0  0  0  0  0  0
    9.7627  -17.3425   28.1101 O   0  0  0  0  0  0  0  0  0  0  0  0
  2  1  1  0
  3  2  1  0
  3  4  1  1
  5  3  1  0
  5  6  1  6
  7  5  1  0
  7  8  2  0
  9  7  1  0
 10  9  1  0
 10 11  1  1
 12 11  1  0
 12 17  2  0
 13 12  1  0
 14 13  2  0
 14 15  1  0
 15 16  2  0
 16 17  1  0
 18 10  1  0
 19 18  2  0
 20 18  1  0
 21 20  1  0
 21 26  1  0
 21 22  1  6
 23 22  1  0
 23 24  1  0
 24 25  2  0
 26 27  1  0
 28 24  1  0
 29 26  2  0
M  END
$$$$
