IFE.pdb
     RDKit          3D

 29 29  0  0  1  0  0  0  0  0999 V2000
    7.7065  -13.1141   16.7654 C   0  0  0  0  0  0  0  0  0  0  0  0
    8.1869  -14.2237   17.6329 C   0  0  0  0  0  0  0  0  0  0  0  0
    8.4110  -13.8503   19.0752 C   0  0  2  0  0  0  0  0  0  0  0  0
    9.4622  -12.8121   19.2760 C   0  0  0  0  0  0  0  0  0  0  0  0
    8.8212  -15.1016   19.8211 C   0  0  2  0  0  0  0  0  0  0  0  0
    7.7761  -16.0813   19.5963 N   0  0  0  0  0  0  0  0  0  0  0  0
    9.0293  -14.8575   21.2784 C   0  0  0  0  0  0  0  0  0  0  0  0
   10.1820  -14.5858   21.6945 O   0  0  0  0  0  0  0  0  0  0  0  0
    7.9727  -14.9214   22.2087 N   0  0  0  0  0  0  0  0  0  0  0  0
    8.0184  -14.5870   23.5869 C   0  0  1  0  0  0  0  0  0  0  0  0
    6.8724  -13.7883   24.0859 C   0  0  0  0  0  0  0  0  0  0  0  0
    7.0023  -13.3251   25.4661 C   0  0  0  0  0  0  0  0  0  0  0  0
    7.8826  -12.3269   25.8216 C   0  0  0  0  0  0  0  0  0  0  0  0
    7.9955  -11.8956   27.1414 C   0  0  0  0  0  0  0  0  0  0  0  0
    7.2248  -12.4594   28.1330 C   0  0  0  0  0  0  0  0  0  0  0  0
    6.3406  -13.4589   27.7891 C   0  0  0  0  0  0  0  0  0  0  0  0
    6.2364  -13.8827   26.4631 C   0  0  0  0  0  0  0  0  0  0  0  0
    8.1572  -15.8141   24.4548 C   0  0  0  0  0  0  0  0  0  0  0  0
    7.3446  -16.7697   24.4286 O   0  0  0  0  0  0  0  0  0  0  0  0
    9.2363  -15.9560   25.3646 N   0  0  0  0  0  0  0  0  0  0  0  0
    9.5169  -17.2415   26.0317 C   0  0  1  0  0  0  0  0  0  0  0  0
   10.2723  -18.1503   25.1220 C   0  0  0  0  0  0  0  0  0  0  0  0
   11.3949  -17.5374   24.3659 C   0  0  0  0  0  0  0  0  0  0  0  0
   12.0518  -18.4780   23.4315 C   0  0  0  0  0  0  0  0  0  0  0  0
   11.4934  -19.4693   22.8992 O   0  0  0  0  0  0  0  0  0  0  0  0
   10.3596  -16.9254   27.2088 C   0  0  0  0  0  0  0  0  0  0  0  0
   10.7926  -15.6409   27.5338 O   0  0  0  0  0  0  0  0  0  0  0  0
   13.3876  -18.2894   23.0880 O   0  0  0  0  0  0  0  0  0  0  0  0
   10.7273  -17.8425   27.9841 O   0  0  0  0  0  0  0  0  0  0  0  0
  2  1  1  0
  3  2  1  0
  3  4  1  6
  5  3  1  0
  5  6  1  1
  7  5  1  0
  7  8  2  0
  9  7  1  0
 10  9  1  0
 10 11  1  1
 12 11  1  0
 12 17  2  0
 13 12  1  0
 14 13  2  0
 14 15  1  0
 15 16  2  0
 16 17  1  0
 18 10  1  0
 19 18  2  0
 20 18  1  0
 21 20  1  0
 21 26  1  0
 21 22  1  6
 23 22  1  0
 23 24  1  0
 24 25  2  0
 26 27  1  0
 28 24  1  0
 29 26  2  0
M  END
$$$$
