NRY.pdb
     RDKit          3D

 32 32  0  0  1  0  0  0  0  0999 V2000
    5.6608  -21.6714   25.6245 N   0  0  0  0  0  0  0  0  0  0  0  0
    6.3155  -20.6338   26.3279 C   0  0  0  0  0  0  0  0  0  0  0  0
    6.2591  -20.5587   27.5718 O   0  0  0  0  0  0  0  0  0  0  0  0
    7.0833  -19.6156   25.5790 C   0  0  0  0  0  0  0  0  0  0  0  0
    7.0263  -19.9973   24.1151 C   0  0  2  0  0  0  0  0  0  0  0  0
    7.5520  -21.3091   23.8861 N   0  0  0  0  0  0  0  0  0  0  0  0
    7.7751  -19.0103   23.2646 C   0  0  0  0  0  0  0  0  0  0  0  0
    8.9377  -19.3164   22.8338 O   0  0  0  0  0  0  0  0  0  0  0  0
    8.8927  -13.1264   19.4691 N   0  0  0  0  0  0  0  0  0  0  0  0
    7.8692  -13.0109   18.5004 C   0  0  0  0  0  0  0  0  0  0  0  0
    8.0630  -12.2884   17.4310 N   0  0  0  0  0  0  0  0  0  0  0  0
    6.6074  -13.6430   18.6108 N   0  0  0  0  0  0  0  0  0  0  0  0
    6.1758  -14.2511   19.8531 C   0  0  0  0  0  0  0  0  0  0  0  0
    7.2972  -15.0315   20.5276 C   0  0  0  0  0  0  0  0  0  0  0  0
    6.7697  -15.9336   21.5907 C   0  0  0  0  0  0  0  0  0  0  0  0
    7.8498  -16.7448   22.2206 C   0  0  2  0  0  0  0  0  0  0  0  0
    7.1370  -17.7821   22.9883 N   0  0  0  0  0  0  0  0  0  0  0  0
    8.8212  -16.0662   23.0568 C   0  0  0  0  0  0  0  0  0  0  0  0
    8.7029  -14.8056   23.2323 O   0  0  0  0  0  0  0  0  0  0  0  0
    7.3485  -12.1332   16.7046 O   0  0  0  0  0  0  0  0  0  0  0  0
   11.1091  -14.2634   31.0106 C   0  0  0  0  0  0  0  0  0  0  0  0
   10.6595  -14.7521   29.7914 C   0  0  0  0  0  0  0  0  0  0  0  0
   10.6711  -16.0869   29.5139 C   0  0  0  0  0  0  0  0  0  0  0  0
   10.2132  -16.5178   28.2876 C   0  0  0  0  0  0  0  0  0  0  0  0
    9.7423  -15.6555   27.3246 C   0  0  0  0  0  0  0  0  0  0  0  0
    9.2569  -16.0912   26.0058 C   0  0  1  0  0  0  0  0  0  0  0  0
   10.3784  -16.2009   25.0270 N   0  0  0  0  0  0  0  0  0  0  0  0
    9.9061  -16.6539   23.7212 C   0  0  0  0  0  0  0  0  0  0  0  0
   11.4040  -17.1345   25.4842 O   0  0  0  0  0  0  0  0  0  0  0  0
   11.2993  -18.3514   25.2216 C   0  0  0  0  0  0  0  0  0  0  0  0
    9.7427  -14.3043   27.6355 C   0  0  0  0  0  0  0  0  0  0  0  0
   10.1953  -13.8656   28.8514 O   0  0  0  0  0  0  0  0  0  0  0  0
  2  3  2  0
  2  1  1  0
  4  2  1  0
  5  4  1  0
  5  6  1  1
  7  5  1  0
  7  8  2  0
  9 10  1  0
 10 12  1  0
 11 10  2  0
 12 13  1  0
 13 14  1  0
 14 15  1  0
 16 17  1  0
 16 15  1  1
 17  7  1  0
 18 16  1  0
 19 18  2  0
 20 21  1  0
 21 22  2  0
 21 31  1  0
 22 23  1  0
 23 24  2  0
 24 25  1  0
 26 25  1  6
 26 27  1  0
 27 18  1  0
 28 26  1  0
 28 32  1  0
 29 28  2  0
 30 24  1  0
 31 30  2  0
M  END
$$$$
