NRY.pdb
     RDKit          3D

 32 32  0  0  1  0  0  0  0  0999 V2000
    9.1717  -22.6551   20.0773 N   0  0  0  0  0  0  0  0  0  0  0  0
    8.9717  -21.2743   19.8458 C   0  0  0  0  0  0  0  0  0  0  0  0
    7.9310  -20.8528   19.3023 O   0  0  0  0  0  0  0  0  0  0  0  0
   10.0134  -20.3073   20.2540 C   0  0  0  0  0  0  0  0  0  0  0  0
    9.5406  -19.6516   21.5341 C   0  0  2  0  0  0  0  0  0  0  0  0
    8.1671  -19.2556   21.4535 N   0  0  0  0  0  0  0  0  0  0  0  0
   10.3804  -18.4532   21.8756 C   0  0  0  0  0  0  0  0  0  0  0  0
   11.6462  -18.5890   21.9766 O   0  0  0  0  0  0  0  0  0  0  0  0
    8.1603  -13.3658   17.1741 N   0  0  0  0  0  0  0  0  0  0  0  0
    8.1225  -13.1261   18.5670 C   0  0  0  0  0  0  0  0  0  0  0  0
    8.3500  -11.9265   19.0279 N   0  0  0  0  0  0  0  0  0  0  0  0
    7.8469  -14.1267   19.5297 N   0  0  0  0  0  0  0  0  0  0  0  0
    7.7052  -13.8016   20.9346 C   0  0  0  0  0  0  0  0  0  0  0  0
    8.3709  -14.8381   21.8312 C   0  0  0  0  0  0  0  0  0  0  0  0
    9.8316  -14.9420   21.5519 C   0  0  0  0  0  0  0  0  0  0  0  0
   10.4809  -16.0084   22.3660 C   0  0  2  0  0  0  0  0  0  0  0  0
    9.7075  -17.2275   22.0677 N   0  0  0  0  0  0  0  0  0  0  0  0
   10.5907  -15.8096   23.7983 C   0  0  0  0  0  0  0  0  0  0  0  0
   11.2828  -14.8245   24.2281 O   0  0  0  0  0  0  0  0  0  0  0  0
    8.3334  -11.6825   20.0292 O   0  0  0  0  0  0  0  0  0  0  0  0
    4.6611  -13.6796   25.5342 C   0  0  0  0  0  0  0  0  0  0  0  0
    5.9571  -14.0747   25.8370 C   0  0  0  0  0  0  0  0  0  0  0  0
    6.2458  -15.3638   26.1737 C   0  0  0  0  0  0  0  0  0  0  0  0
    7.5495  -15.7018   26.4649 C   0  0  0  0  0  0  0  0  0  0  0  0
    8.5795  -14.7903   26.4313 C   0  0  0  0  0  0  0  0  0  0  0  0
    9.9769  -15.1256   26.7465 C   0  0  1  0  0  0  0  0  0  0  0  0
   10.3430  -16.4705   26.2123 N   0  0  0  0  0  0  0  0  0  0  0  0
   10.0007  -16.5950   24.7977 C   0  0  0  0  0  0  0  0  0  0  0  0
    9.6643  -17.5416   26.9363 O   0  0  0  0  0  0  0  0  0  0  0  0
    9.8180  -17.6527   28.1712 C   0  0  0  0  0  0  0  0  0  0  0  0
    8.2554  -13.4873   26.0856 C   0  0  0  0  0  0  0  0  0  0  0  0
    6.9628  -13.1410   25.7941 O   0  0  0  0  0  0  0  0  0  0  0  0
  2  3  2  0
  2  1  1  0
  4  2  1  0
  5  4  1  0
  5  6  1  6
  7  5  1  0
  7  8  2  0
  9 10  1  0
 10 12  1  0
 11 10  2  0
 12 13  1  0
 13 14  1  0
 14 15  1  0
 16 17  1  0
 16 15  1  6
 17  7  1  0
 18 16  1  0
 19 18  2  0
 20 21  1  0
 21 22  2  0
 21 31  1  0
 22 23  1  0
 23 24  2  0
 24 25  1  0
 26 25  1  6
 26 27  1  0
 27 18  1  0
 28 26  1  0
 28 32  1  0
 29 28  2  0
 30 24  1  0
 31 30  2  0
M  END
$$$$
