NRY.pdb
     RDKit          3D

 32 32  0  0  1  0  0  0  0  0999 V2000
   11.3650  -13.7087   17.5607 N   0  0  0  0  0  0  0  0  0  0  0  0
   11.9458  -13.4672   18.8273 C   0  0  0  0  0  0  0  0  0  0  0  0
   13.1406  -13.1258   18.9375 O   0  0  0  0  0  0  0  0  0  0  0  0
   11.1252  -13.6209   20.0480 C   0  0  0  0  0  0  0  0  0  0  0  0
    9.7610  -14.1124   19.6130 C   0  0  2  0  0  0  0  0  0  0  0  0
    9.0267  -13.0988   18.9178 N   0  0  0  0  0  0  0  0  0  0  0  0
    8.9532  -14.5893   20.7869 C   0  0  0  0  0  0  0  0  0  0  0  0
    8.3837  -13.7298   21.5406 O   0  0  0  0  0  0  0  0  0  0  0  0
   10.9757  -20.4054   21.1785 N   0  0  0  0  0  0  0  0  0  0  0  0
   10.5129  -20.7319   19.8829 C   0  0  0  0  0  0  0  0  0  0  0  0
   11.3336  -21.2472   19.0088 N   0  0  0  0  0  0  0  0  0  0  0  0
    9.1795  -20.5332   19.4512 N   0  0  0  0  0  0  0  0  0  0  0  0
    8.1967  -19.9014   20.3082 C   0  0  0  0  0  0  0  0  0  0  0  0
    8.6420  -18.5180   20.7659 C   0  0  0  0  0  0  0  0  0  0  0  0
    7.5966  -17.8572   21.5983 C   0  0  0  0  0  0  0  0  0  0  0  0
    8.0321  -16.5153   22.0792 C   0  0  2  0  0  0  0  0  0  0  0  0
    8.8711  -15.9836   20.9898 N   0  0  0  0  0  0  0  0  0  0  0  0
    8.7283  -16.4321   23.3486 C   0  0  0  0  0  0  0  0  0  0  0  0
   10.0060  -16.4725   23.3497 O   0  0  0  0  0  0  0  0  0  0  0  0
   11.0731  -21.4690   18.0366 O   0  0  0  0  0  0  0  0  0  0  0  0
    6.1268  -10.4576   25.4410 C   0  0  0  0  0  0  0  0  0  0  0  0
    6.6531  -11.6948   25.7872 C   0  0  0  0  0  0  0  0  0  0  0  0
    7.8852  -12.0878   25.3559 C   0  0  0  0  0  0  0  0  0  0  0  0
    8.3595  -13.3266   25.7294 C   0  0  0  0  0  0  0  0  0  0  0  0
    7.6401  -14.1901   26.5229 C   0  0  0  0  0  0  0  0  0  0  0  0
    8.1217  -15.5203   26.9272 C   0  0  2  0  0  0  0  0  0  0  0  0
    8.9232  -16.1572   25.8410 N   0  0  0  0  0  0  0  0  0  0  0  0
    8.1424  -16.3016   24.6150 C   0  0  0  0  0  0  0  0  0  0  0  0
    9.4020  -17.4810   26.2291 O   0  0  0  0  0  0  0  0  0  0  0  0
   10.1902  -17.6003   27.1910 C   0  0  0  0  0  0  0  0  0  0  0  0
    6.3908  -13.7629   26.9461 C   0  0  0  0  0  0  0  0  0  0  0  0
    5.9103  -12.5335   26.5808 O   0  0  0  0  0  0  0  0  0  0  0  0
  2  3  2  0
  2  1  1  0
  4  2  1  0
  5  4  1  0
  5  6  1  1
  7  5  1  0
  7  8  2  0
  9 10  1  0
 10 12  1  0
 11 10  2  0
 12 13  1  0
 13 14  1  0
 14 15  1  0
 16 17  1  0
 16 15  1  6
 17  7  1  0
 18 16  1  0
 19 18  2  0
 20 21  1  0
 21 22  2  0
 21 31  1  0
 22 23  1  0
 23 24  2  0
 24 25  1  0
 26 25  1  6
 26 27  1  0
 27 18  1  0
 28 26  1  0
 28 32  1  0
 29 28  2  0
 30 24  1  0
 31 30  2  0
M  END
$$$$
