NRY.pdb
     RDKit          3D

 32 32  0  0  1  0  0  0  0  0999 V2000
    9.6021  -12.6052   18.3750 N   0  0  0  0  0  0  0  0  0  0  0  0
    8.2077  -12.7525   18.1907 C   0  0  0  0  0  0  0  0  0  0  0  0
    7.6667  -12.4840   17.0992 O   0  0  0  0  0  0  0  0  0  0  0  0
    7.3701  -13.2338   19.3105 C   0  0  0  0  0  0  0  0  0  0  0  0
    8.2933  -13.4956   20.4814 C   0  0  2  0  0  0  0  0  0  0  0  0
    9.6233  -13.8057   20.0518 N   0  0  0  0  0  0  0  0  0  0  0  0
    7.7791  -14.6153   21.3417 C   0  0  0  0  0  0  0  0  0  0  0  0
    6.6303  -14.5027   21.8882 O   0  0  0  0  0  0  0  0  0  0  0  0
    7.8136  -20.9840   19.2927 N   0  0  0  0  0  0  0  0  0  0  0  0
    7.0037  -20.1931   18.4454 C   0  0  0  0  0  0  0  0  0  0  0  0
    5.9796  -20.7277   17.8382 N   0  0  0  0  0  0  0  0  0  0  0  0
    7.2312  -18.8176   18.1999 N   0  0  0  0  0  0  0  0  0  0  0  0
    7.4207  -17.8796   19.2879 C   0  0  0  0  0  0  0  0  0  0  0  0
    7.4147  -18.5704   20.6460 C   0  0  0  0  0  0  0  0  0  0  0  0
    8.5329  -18.0892   21.5065 C   0  0  0  0  0  0  0  0  0  0  0  0
    8.1481  -16.8889   22.3020 C   0  0  2  0  0  0  0  0  0  0  0  0
    8.6117  -15.7443   21.4968 N   0  0  0  0  0  0  0  0  0  0  0  0
    8.6299  -16.7840   23.6658 C   0  0  0  0  0  0  0  0  0  0  0  0
    8.4178  -17.7577   24.4664 O   0  0  0  0  0  0  0  0  0  0  0  0
    5.3931  -20.2293   17.1528 O   0  0  0  0  0  0  0  0  0  0  0  0
    5.9008  -10.6610   26.3360 C   0  0  0  0  0  0  0  0  0  0  0  0
    6.5043  -11.9105   26.3832 C   0  0  0  0  0  0  0  0  0  0  0  0
    5.7687  -13.0489   26.5298 C   0  0  0  0  0  0  0  0  0  0  0  0
    6.4189  -14.2632   26.5705 C   0  0  0  0  0  0  0  0  0  0  0  0
    7.7862  -14.3786   26.4696 C   0  0  0  0  0  0  0  0  0  0  0  0
    8.5029  -15.6625   26.5192 C   0  0  2  0  0  0  0  0  0  0  0  0
    9.7043  -15.6445   25.6337 N   0  0  0  0  0  0  0  0  0  0  0  0
    9.3297  -15.7054   24.2232 C   0  0  0  0  0  0  0  0  0  0  0  0
   10.5965  -16.7665   25.9120 O   0  0  0  0  0  0  0  0  0  0  0  0
   10.8468  -17.5998   25.0154 C   0  0  0  0  0  0  0  0  0  0  0  0
    8.5074  -13.2038   26.3214 C   0  0  0  0  0  0  0  0  0  0  0  0
    7.8709  -11.9918   26.2795 O   0  0  0  0  0  0  0  0  0  0  0  0
  2  3  2  0
  2  1  1  0
  4  2  1  0
  5  4  1  0
  5  6  1  6
  7  5  1  0
  7  8  2  0
  9 10  1  0
 10 12  1  0
 11 10  2  0
 12 13  1  0
 13 14  1  0
 14 15  1  0
 16 17  1  0
 16 15  1  6
 17  7  1  0
 18 16  1  0
 19 18  2  0
 20 21  1  0
 21 22  2  0
 21 31  1  0
 22 23  1  0
 23 24  2  0
 24 25  1  0
 26 25  1  6
 26 27  1  0
 27 18  1  0
 28 26  1  0
 28 32  1  0
 29 28  2  0
 30 24  1  0
 31 30  2  0
M  END
$$$$
