NRY.pdb
     RDKit          3D

 32 32  0  0  1  0  0  0  0  0999 V2000
    7.6112  -11.8885   17.9244 N   0  0  0  0  0  0  0  0  0  0  0  0
    7.6260  -13.2950   18.0717 C   0  0  0  0  0  0  0  0  0  0  0  0
    8.0839  -14.0350   17.1780 O   0  0  0  0  0  0  0  0  0  0  0  0
    7.0895  -13.9052   19.3074 C   0  0  0  0  0  0  0  0  0  0  0  0
    8.2459  -14.0543   20.2732 C   0  0  2  0  0  0  0  0  0  0  0  0
    9.4449  -14.4668   19.6084 N   0  0  0  0  0  0  0  0  0  0  0  0
    7.9230  -15.0371   21.3631 C   0  0  0  0  0  0  0  0  0  0  0  0
    6.8584  -14.8767   22.0501 O   0  0  0  0  0  0  0  0  0  0  0  0
   10.2561  -20.8761   19.4711 N   0  0  0  0  0  0  0  0  0  0  0  0
    9.0828  -21.4825   19.9760 C   0  0  0  0  0  0  0  0  0  0  0  0
    8.2689  -22.1014   19.1650 N   0  0  0  0  0  0  0  0  0  0  0  0
    8.7149  -21.4659   21.3428 N   0  0  0  0  0  0  0  0  0  0  0  0
    9.5425  -20.8139   22.3376 C   0  0  0  0  0  0  0  0  0  0  0  0
    8.8837  -19.5585   22.8956 C   0  0  0  0  0  0  0  0  0  0  0  0
    9.0744  -18.3932   21.9856 C   0  0  0  0  0  0  0  0  0  0  0  0
    8.5339  -17.1336   22.5712 C   0  0  2  0  0  0  0  0  0  0  0  0
    8.8321  -16.0975   21.5657 N   0  0  0  0  0  0  0  0  0  0  0  0
    9.0048  -16.7264   23.8809 C   0  0  0  0  0  0  0  0  0  0  0  0
   10.2030  -16.2953   23.9936 O   0  0  0  0  0  0  0  0  0  0  0  0
    7.4160  -22.5929   19.4707 O   0  0  0  0  0  0  0  0  0  0  0  0
    6.7401  -10.4578   25.2575 C   0  0  0  0  0  0  0  0  0  0  0  0
    7.0515  -11.7269   25.7266 C   0  0  0  0  0  0  0  0  0  0  0  0
    8.3098  -12.2382   25.6089 C   0  0  0  0  0  0  0  0  0  0  0  0
    8.5641  -13.5035   26.0918 C   0  0  0  0  0  0  0  0  0  0  0  0
    7.5984  -14.2789   26.6910 C   0  0  0  0  0  0  0  0  0  0  0  0
    7.8440  -15.6351   27.2060 C   0  0  2  0  0  0  0  0  0  0  0  0
    8.8405  -16.3600   26.3637 N   0  0  0  0  0  0  0  0  0  0  0  0
    8.2714  -16.7456   25.0749 C   0  0  0  0  0  0  0  0  0  0  0  0
    9.3254  -17.5696   27.0224 O   0  0  0  0  0  0  0  0  0  0  0  0
    9.0163  -18.6919   26.5686 C   0  0  0  0  0  0  0  0  0  0  0  0
    6.3286  -13.7323   26.7965 C   0  0  0  0  0  0  0  0  0  0  0  0
    6.0654  -12.4756   26.3200 O   0  0  0  0  0  0  0  0  0  0  0  0
  2  3  2  0
  2  1  1  0
  4  2  1  0
  5  4  1  0
  5  6  1  6
  7  5  1  0
  7  8  2  0
  9 10  1  0
 10 12  1  0
 11 10  2  0
 12 13  1  0
 13 14  1  0
 14 15  1  0
 16 17  1  0
 16 15  1  6
 17  7  1  0
 18 16  1  0
 19 18  2  0
 20 21  1  0
 21 22  2  0
 21 31  1  0
 22 23  1  0
 23 24  2  0
 24 25  1  0
 26 25  1  6
 26 27  1  0
 27 18  1  0
 28 26  1  0
 28 32  1  0
 29 28  2  0
 30 24  1  0
 31 30  2  0
M  END
$$$$
