NRY.pdb
     RDKit          3D

 32 32  0  0  1  0  0  0  0  0999 V2000
    9.3140  -16.9419   13.2337 N   0  0  0  0  0  0  0  0  0  0  0  0
    8.8988  -16.3110   14.4294 C   0  0  0  0  0  0  0  0  0  0  0  0
    8.5637  -15.1095   14.4451 O   0  0  0  0  0  0  0  0  0  0  0  0
    8.8594  -17.0862   15.6882 C   0  0  0  0  0  0  0  0  0  0  0  0
    9.7550  -16.3761   16.6810 C   0  0  2  0  0  0  0  0  0  0  0  0
   11.1406  -16.6277   16.4229 N   0  0  0  0  0  0  0  0  0  0  0  0
    9.4345  -16.7817   18.0920 C   0  0  0  0  0  0  0  0  0  0  0  0
    8.2657  -16.5551   18.5542 O   0  0  0  0  0  0  0  0  0  0  0  0
   11.3164  -21.9118   17.3744 N   0  0  0  0  0  0  0  0  0  0  0  0
   11.2814  -22.8812   18.4032 C   0  0  0  0  0  0  0  0  0  0  0  0
   11.5009  -24.1367   18.1228 N   0  0  0  0  0  0  0  0  0  0  0  0
   11.0163  -22.5780   19.7603 N   0  0  0  0  0  0  0  0  0  0  0  0
   10.2925  -21.3806   20.1370 C   0  0  0  0  0  0  0  0  0  0  0  0
   10.8209  -20.1440   19.4208 C   0  0  0  0  0  0  0  0  0  0  0  0
   11.1115  -19.0413   20.3810 C   0  0  0  0  0  0  0  0  0  0  0  0
   10.1880  -17.8856   20.1995 C   0  0  2  0  0  0  0  0  0  0  0  0
   10.4630  -17.3998   18.8350 N   0  0  0  0  0  0  0  0  0  0  0  0
   10.2541  -16.7956   21.1539 C   0  0  0  0  0  0  0  0  0  0  0  0
   11.3424  -16.1320   21.2504 O   0  0  0  0  0  0  0  0  0  0  0  0
   11.5317  -24.8868   18.8290 O   0  0  0  0  0  0  0  0  0  0  0  0
    7.9351  -11.9899   17.7870 C   0  0  0  0  0  0  0  0  0  0  0  0
    8.0586  -12.5376   19.0568 C   0  0  0  0  0  0  0  0  0  0  0  0
    9.1225  -12.2426   19.8566 C   0  0  0  0  0  0  0  0  0  0  0  0
    9.1954  -12.8142   21.1084 C   0  0  0  0  0  0  0  0  0  0  0  0
    8.2364  -13.6753   21.5898 C   0  0  0  0  0  0  0  0  0  0  0  0
    8.2972  -14.3042   22.9185 C   0  0  2  0  0  0  0  0  0  0  0  0
    9.4020  -15.3052   22.9918 N   0  0  0  0  0  0  0  0  0  0  0  0
    9.2265  -16.3683   22.0055 C   0  0  0  0  0  0  0  0  0  0  0  0
    9.4826  -15.9240   24.3119 O   0  0  0  0  0  0  0  0  0  0  0  0
    9.7410  -15.2228   25.3132 C   0  0  0  0  0  0  0  0  0  0  0  0
    7.1665  -13.9563   20.7539 C   0  0  0  0  0  0  0  0  0  0  0  0
    7.0844  -13.3932   19.5082 O   0  0  0  0  0  0  0  0  0  0  0  0
  2  3  2  0
  2  1  1  0
  4  2  1  0
  5  4  1  0
  5  6  1  6
  7  5  1  0
  7  8  2  0
  9 10  1  0
 10 12  1  0
 11 10  2  0
 12 13  1  0
 13 14  1  0
 14 15  1  0
 16 17  1  0
 16 15  1  1
 17  7  1  0
 18 16  1  0
 19 18  2  0
 20 21  1  0
 21 22  2  0
 21 31  1  0
 22 23  1  0
 23 24  2  0
 24 25  1  0
 26 25  1  6
 26 27  1  0
 27 18  1  0
 28 26  1  0
 28 32  1  0
 29 28  2  0
 30 24  1  0
 31 30  2  0
M  END
$$$$
