NRY.pdb
     RDKit          3D

 32 32  0  0  1  0  0  0  0  0999 V2000
    8.7497  -12.8347   18.7559 N   0  0  0  0  0  0  0  0  0  0  0  0
    7.4363  -13.3207   18.9533 C   0  0  0  0  0  0  0  0  0  0  0  0
    6.5266  -13.0795   18.1346 O   0  0  0  0  0  0  0  0  0  0  0  0
    7.1303  -14.1310   20.1520 C   0  0  0  0  0  0  0  0  0  0  0  0
    8.3889  -14.1836   20.9918 C   0  0  2  0  0  0  0  0  0  0  0  0
    9.5035  -14.6897   20.2494 N   0  0  0  0  0  0  0  0  0  0  0  0
    8.1903  -15.0265   22.2198 C   0  0  0  0  0  0  0  0  0  0  0  0
    7.2093  -14.7723   22.9970 O   0  0  0  0  0  0  0  0  0  0  0  0
    8.2101  -19.7252   18.8778 N   0  0  0  0  0  0  0  0  0  0  0  0
    7.5613  -20.6728   19.7026 C   0  0  0  0  0  0  0  0  0  0  0  0
    6.4804  -21.2708   19.2818 N   0  0  0  0  0  0  0  0  0  0  0  0
    8.0145  -21.0313   20.9949 N   0  0  0  0  0  0  0  0  0  0  0  0
    9.0263  -20.2533   21.6808 C   0  0  0  0  0  0  0  0  0  0  0  0
    8.4185  -19.1276   22.5084 C   0  0  0  0  0  0  0  0  0  0  0  0
    9.4739  -18.2812   23.1346 C   0  0  0  0  0  0  0  0  0  0  0  0
    8.9365  -16.9699   23.5963 C   0  0  2  0  0  0  0  0  0  0  0  0
    9.1167  -16.0673   22.4446 N   0  0  0  0  0  0  0  0  0  0  0  0
    9.4947  -16.3826   24.7991 C   0  0  0  0  0  0  0  0  0  0  0  0
   10.5160  -15.6215   24.6913 O   0  0  0  0  0  0  0  0  0  0  0  0
    5.9804  -21.9974   19.8152 O   0  0  0  0  0  0  0  0  0  0  0  0
    7.0141  -10.7917   24.7117 C   0  0  0  0  0  0  0  0  0  0  0  0
    7.4833  -11.8246   25.5118 C   0  0  0  0  0  0  0  0  0  0  0  0
    8.8167  -12.0854   25.6249 C   0  0  0  0  0  0  0  0  0  0  0  0
    9.2279  -13.1230   26.4331 C   0  0  0  0  0  0  0  0  0  0  0  0
    8.3470  -13.9129   27.1353 C   0  0  0  0  0  0  0  0  0  0  0  0
    8.7617  -15.0310   27.9970 C   0  0  2  0  0  0  0  0  0  0  0  0
    9.6770  -15.9607   27.2717 N   0  0  0  0  0  0  0  0  0  0  0  0
    9.0238  -16.5540   26.1078 C   0  0  0  0  0  0  0  0  0  0  0  0
   10.1364  -17.0465   28.1331 O   0  0  0  0  0  0  0  0  0  0  0  0
    9.8369  -18.2279   27.8586 C   0  0  0  0  0  0  0  0  0  0  0  0
    6.9978  -13.6237   27.0006 C   0  0  0  0  0  0  0  0  0  0  0  0
    6.5786  -12.5945   26.2001 O   0  0  0  0  0  0  0  0  0  0  0  0
  2  3  2  0
  2  1  1  0
  4  2  1  0
  5  4  1  0
  5  6  1  6
  7  5  1  0
  7  8  2  0
  9 10  1  0
 10 12  1  0
 11 10  2  0
 12 13  1  0
 13 14  1  0
 14 15  1  0
 16 17  1  0
 16 15  1  6
 17  7  1  0
 18 16  1  0
 19 18  2  0
 20 21  1  0
 21 22  2  0
 21 31  1  0
 22 23  1  0
 23 24  2  0
 24 25  1  0
 26 25  1  6
 26 27  1  0
 27 18  1  0
 28 26  1  0
 28 32  1  0
 29 28  2  0
 30 24  1  0
 31 30  2  0
M  END
$$$$
