NRY.pdb
     RDKit          3D

 32 32  0  0  1  0  0  0  0  0999 V2000
    9.2263  -11.3320   18.0524 N   0  0  0  0  0  0  0  0  0  0  0  0
    9.5902  -12.6874   18.2271 C   0  0  0  0  0  0  0  0  0  0  0  0
   10.2454  -13.2991   17.3597 O   0  0  0  0  0  0  0  0  0  0  0  0
    9.1885  -13.3980   19.4604 C   0  0  0  0  0  0  0  0  0  0  0  0
    8.2539  -14.5162   19.0501 C   0  0  2  0  0  0  0  0  0  0  0  0
    7.0729  -14.0164   18.4136 N   0  0  0  0  0  0  0  0  0  0  0  0
    7.8595  -15.3581   20.2307 C   0  0  0  0  0  0  0  0  0  0  0  0
    7.0508  -14.8780   21.0947 O   0  0  0  0  0  0  0  0  0  0  0  0
    9.4264  -22.6971   23.0241 N   0  0  0  0  0  0  0  0  0  0  0  0
    8.0375  -22.9580   23.0702 C   0  0  0  0  0  0  0  0  0  0  0  0
    7.5727  -23.8706   23.8792 N   0  0  0  0  0  0  0  0  0  0  0  0
    7.0832  -22.2786   22.2755 N   0  0  0  0  0  0  0  0  0  0  0  0
    7.4856  -21.2881   21.2975 C   0  0  0  0  0  0  0  0  0  0  0  0
    7.6299  -19.9020   21.9136 C   0  0  0  0  0  0  0  0  0  0  0  0
    7.8642  -18.8639   20.8697 C   0  0  0  0  0  0  0  0  0  0  0  0
    8.0880  -17.5155   21.4641 C   0  0  2  0  0  0  0  0  0  0  0  0
    8.4167  -16.6520   20.3152 N   0  0  0  0  0  0  0  0  0  0  0  0
    9.0859  -17.3808   22.5077 C   0  0  0  0  0  0  0  0  0  0  0  0
   10.2580  -16.9844   22.1861 O   0  0  0  0  0  0  0  0  0  0  0  0
    6.5891  -24.1782   23.8947 O   0  0  0  0  0  0  0  0  0  0  0  0
    7.1534  -11.8449   28.7658 C   0  0  0  0  0  0  0  0  0  0  0  0
    7.3826  -12.7590   27.7463 C   0  0  0  0  0  0  0  0  0  0  0  0
    8.3598  -13.7042   27.8469 C   0  0  0  0  0  0  0  0  0  0  0  0
    8.5444  -14.5871   26.8051 C   0  0  0  0  0  0  0  0  0  0  0  0
    7.7818  -14.5568   25.6605 C   0  0  0  0  0  0  0  0  0  0  0  0
    7.9660  -15.4828   24.5321 C   0  0  1  0  0  0  0  0  0  0  0  0
    8.9076  -16.5853   24.8869 N   0  0  0  0  0  0  0  0  0  0  0  0
    8.9053  -17.6373   23.8735 C   0  0  0  0  0  0  0  0  0  0  0  0
    8.5665  -17.1943   26.1695 O   0  0  0  0  0  0  0  0  0  0  0  0
    8.8169  -16.5877   27.2326 C   0  0  0  0  0  0  0  0  0  0  0  0
    6.7959  -13.5848   25.5869 C   0  0  0  0  0  0  0  0  0  0  0  0
    6.6040  -12.7026   26.6169 O   0  0  0  0  0  0  0  0  0  0  0  0
  2  3  2  0
  2  1  1  0
  4  2  1  0
  5  4  1  0
  5  6  1  1
  7  5  1  0
  7  8  2  0
  9 10  1  0
 10 12  1  0
 11 10  2  0
 12 13  1  0
 13 14  1  0
 14 15  1  0
 16 17  1  0
 16 15  1  6
 17  7  1  0
 18 16  1  0
 19 18  2  0
 20 21  1  0
 21 22  2  0
 21 31  1  0
 22 23  1  0
 23 24  2  0
 24 25  1  0
 26 25  1  6
 26 27  1  0
 27 18  1  0
 28 26  1  0
 28 32  1  0
 29 28  2  0
 30 24  1  0
 31 30  2  0
M  END
$$$$
