NRY.pdb
     RDKit          3D

 32 32  0  0  1  0  0  0  0  0999 V2000
    8.7371  -12.8656   15.9214 N   0  0  0  0  0  0  0  0  0  0  0  0
    8.1423  -14.1033   16.2594 C   0  0  0  0  0  0  0  0  0  0  0  0
    8.0463  -15.0252   15.4245 O   0  0  0  0  0  0  0  0  0  0  0  0
    7.6224  -14.3138   17.6278 C   0  0  0  0  0  0  0  0  0  0  0  0
    8.7411  -14.9259   18.4439 C   0  0  2  0  0  0  0  0  0  0  0  0
    9.2217  -16.1419   17.8607 N   0  0  0  0  0  0  0  0  0  0  0  0
    8.3020  -15.1955   19.8554 C   0  0  0  0  0  0  0  0  0  0  0  0
    7.9436  -14.2166   20.5932 O   0  0  0  0  0  0  0  0  0  0  0  0
    5.4543  -22.1099   24.2564 N   0  0  0  0  0  0  0  0  0  0  0  0
    5.7686  -20.8038   24.6975 C   0  0  0  0  0  0  0  0  0  0  0  0
    5.9373  -20.5690   25.9701 N   0  0  0  0  0  0  0  0  0  0  0  0
    5.9179  -19.6956   23.8295 N   0  0  0  0  0  0  0  0  0  0  0  0
    5.7701  -19.8371   22.3950 C   0  0  0  0  0  0  0  0  0  0  0  0
    6.1202  -18.5524   21.6546 C   0  0  0  0  0  0  0  0  0  0  0  0
    7.5920  -18.3153   21.6414 C   0  0  0  0  0  0  0  0  0  0  0  0
    7.9234  -16.8626   21.6735 C   0  0  2  0  0  0  0  0  0  0  0  0
    8.3124  -16.5386   20.2889 N   0  0  0  0  0  0  0  0  0  0  0  0
    8.9343  -16.4081   22.6088 C   0  0  0  0  0  0  0  0  0  0  0  0
   10.1635  -16.6301   22.3369 O   0  0  0  0  0  0  0  0  0  0  0  0
    6.1831  -19.6459   26.3569 O   0  0  0  0  0  0  0  0  0  0  0  0
    5.0100  -12.1149   27.3349 C   0  0  0  0  0  0  0  0  0  0  0  0
    6.1753  -12.5474   26.7165 C   0  0  0  0  0  0  0  0  0  0  0  0
    6.2356  -12.7343   25.3674 C   0  0  0  0  0  0  0  0  0  0  0  0
    7.4178  -13.1649   24.8052 C   0  0  0  0  0  0  0  0  0  0  0  0
    8.5471  -13.4166   25.5496 C   0  0  0  0  0  0  0  0  0  0  0  0
    9.8171  -13.8850   24.9731 C   0  0  1  0  0  0  0  0  0  0  0  0
    9.7882  -15.3572   24.7282 N   0  0  0  0  0  0  0  0  0  0  0  0
    8.7116  -15.7257   23.8123 C   0  0  0  0  0  0  0  0  0  0  0  0
    9.6021  -16.1067   25.9674 O   0  0  0  0  0  0  0  0  0  0  0  0
    8.6021  -16.8428   26.1054 C   0  0  0  0  0  0  0  0  0  0  0  0
    8.4555  -13.2176   26.9186 C   0  0  0  0  0  0  0  0  0  0  0  0
    7.2853  -12.7896   27.4873 O   0  0  0  0  0  0  0  0  0  0  0  0
  2  3  2  0
  2  1  1  0
  4  2  1  0
  5  4  1  0
  5  6  1  6
  7  5  1  0
  7  8  2  0
  9 10  1  0
 10 12  1  0
 11 10  2  0
 12 13  1  0
 13 14  1  0
 14 15  1  0
 16 17  1  0
 16 15  1  6
 17  7  1  0
 18 16  1  0
 19 18  2  0
 20 21  1  0
 21 22  2  0
 21 31  1  0
 22 23  1  0
 23 24  2  0
 24 25  1  0
 26 25  1  6
 26 27  1  0
 27 18  1  0
 28 26  1  0
 28 32  1  0
 29 28  2  0
 30 24  1  0
 31 30  2  0
M  END
$$$$
