NRY.pdb
     RDKit          3D

 32 32  0  0  1  0  0  0  0  0999 V2000
    8.2711  -12.2283   17.5895 N   0  0  0  0  0  0  0  0  0  0  0  0
    7.4456  -13.3484   17.3367 C   0  0  0  0  0  0  0  0  0  0  0  0
    6.8455  -13.4789   16.2509 O   0  0  0  0  0  0  0  0  0  0  0  0
    7.2874  -14.3882   18.3764 C   0  0  0  0  0  0  0  0  0  0  0  0
    8.0335  -13.9120   19.6047 C   0  0  2  0  0  0  0  0  0  0  0  0
    9.3703  -13.5062   19.2915 N   0  0  0  0  0  0  0  0  0  0  0  0
    8.0766  -14.9773   20.6637 C   0  0  0  0  0  0  0  0  0  0  0  0
    6.9799  -15.4213   21.1444 O   0  0  0  0  0  0  0  0  0  0  0  0
   13.2360  -20.7550   22.5227 N   0  0  0  0  0  0  0  0  0  0  0  0
   12.0574  -21.2956   23.0864 C   0  0  0  0  0  0  0  0  0  0  0  0
   12.1391  -22.1943   24.0292 N   0  0  0  0  0  0  0  0  0  0  0  0
   10.7518  -20.9201   22.6884 N   0  0  0  0  0  0  0  0  0  0  0  0
   10.5291  -19.7992   21.7977 C   0  0  0  0  0  0  0  0  0  0  0  0
   10.9726  -18.4797   22.4172 C   0  0  0  0  0  0  0  0  0  0  0  0
   10.6549  -17.3265   21.5275 C   0  0  0  0  0  0  0  0  0  0  0  0
    9.4564  -16.5742   21.9956 C   0  0  2  0  0  0  0  0  0  0  0  0
    9.3495  -15.4311   21.0709 N   0  0  0  0  0  0  0  0  0  0  0  0
    9.4223  -16.1229   23.3734 C   0  0  0  0  0  0  0  0  0  0  0  0
   10.2042  -15.1752   23.7264 O   0  0  0  0  0  0  0  0  0  0  0  0
   11.3218  -22.6092   24.5005 O   0  0  0  0  0  0  0  0  0  0  0  0
    6.7870  -10.1804   26.1037 C   0  0  0  0  0  0  0  0  0  0  0  0
    6.9732  -11.5531   26.1956 C   0  0  0  0  0  0  0  0  0  0  0  0
    7.9408  -12.0863   26.9944 C   0  0  0  0  0  0  0  0  0  0  0  0
    8.0823  -13.4559   27.0483 C   0  0  0  0  0  0  0  0  0  0  0  0
    7.2857  -14.3148   26.3269 C   0  0  0  0  0  0  0  0  0  0  0  0
    7.4236  -15.7793   26.3615 C   0  0  2  0  0  0  0  0  0  0  0  0
    8.7331  -16.2117   25.7905 N   0  0  0  0  0  0  0  0  0  0  0  0
    8.5993  -16.6180   24.3939 C   0  0  0  0  0  0  0  0  0  0  0  0
    9.3018  -17.3327   26.5336 O   0  0  0  0  0  0  0  0  0  0  0  0
    9.5837  -17.1984   27.7433 C   0  0  0  0  0  0  0  0  0  0  0  0
    6.3106  -13.7436   25.5236 C   0  0  0  0  0  0  0  0  0  0  0  0
    6.1615  -12.3835   25.4631 O   0  0  0  0  0  0  0  0  0  0  0  0
  2  3  2  0
  2  1  1  0
  4  2  1  0
  5  4  1  0
  5  6  1  6
  7  5  1  0
  7  8  2  0
  9 10  1  0
 10 12  1  0
 11 10  2  0
 12 13  1  0
 13 14  1  0
 14 15  1  0
 16 17  1  0
 16 15  1  6
 17  7  1  0
 18 16  1  0
 19 18  2  0
 20 21  1  0
 21 22  2  0
 21 31  1  0
 22 23  1  0
 23 24  2  0
 24 25  1  0
 26 25  1  6
 26 27  1  0
 27 18  1  0
 28 26  1  0
 28 32  1  0
 29 28  2  0
 30 24  1  0
 31 30  2  0
M  END
$$$$
