NRY.pdb
     RDKit          3D

 32 32  0  0  1  0  0  0  0  0999 V2000
   12.6186  -20.8959   18.4289 N   0  0  0  0  0  0  0  0  0  0  0  0
   11.5873  -20.2995   19.1909 C   0  0  0  0  0  0  0  0  0  0  0  0
   10.5227  -20.9055   19.4265 O   0  0  0  0  0  0  0  0  0  0  0  0
   11.7694  -18.9310   19.7211 C   0  0  0  0  0  0  0  0  0  0  0  0
   11.4122  -18.9680   21.1918 C   0  0  2  0  0  0  0  0  0  0  0  0
   10.2442  -19.7592   21.4362 N   0  0  0  0  0  0  0  0  0  0  0  0
   11.1931  -17.5841   21.7349 C   0  0  0  0  0  0  0  0  0  0  0  0
   12.1862  -16.7859   21.8229 O   0  0  0  0  0  0  0  0  0  0  0  0
    8.0381  -12.2707   18.9311 N   0  0  0  0  0  0  0  0  0  0  0  0
    8.0543  -13.3813   18.0562 C   0  0  0  0  0  0  0  0  0  0  0  0
    8.5938  -13.2705   16.8730 N   0  0  0  0  0  0  0  0  0  0  0  0
    7.5092  -14.6465   18.3816 N   0  0  0  0  0  0  0  0  0  0  0  0
    7.1702  -14.9918   19.7474 C   0  0  0  0  0  0  0  0  0  0  0  0
    8.3230  -14.7256   20.7075 C   0  0  0  0  0  0  0  0  0  0  0  0
    8.2307  -15.5863   21.9211 C   0  0  0  0  0  0  0  0  0  0  0  0
    9.5700  -15.8570   22.5164 C   0  0  2  0  0  0  0  0  0  0  0  0
    9.8794  -17.2435   22.1222 N   0  0  0  0  0  0  0  0  0  0  0  0
    9.7353  -15.6825   23.9465 C   0  0  0  0  0  0  0  0  0  0  0  0
   10.3650  -14.6533   24.3687 O   0  0  0  0  0  0  0  0  0  0  0  0
    8.7036  -14.0564   16.2152 O   0  0  0  0  0  0  0  0  0  0  0  0
    6.3107  -10.8655   26.2961 C   0  0  0  0  0  0  0  0  0  0  0  0
    6.7517  -12.1682   26.4860 C   0  0  0  0  0  0  0  0  0  0  0  0
    5.9445  -13.2358   26.2263 C   0  0  0  0  0  0  0  0  0  0  0  0
    6.4330  -14.5077   26.4323 C   0  0  0  0  0  0  0  0  0  0  0  0
    7.7070  -14.7499   26.8917 C   0  0  0  0  0  0  0  0  0  0  0  0
    8.2472  -16.0980   27.1274 C   0  0  2  0  0  0  0  0  0  0  0  0
    9.5171  -16.3101   26.3722 N   0  0  0  0  0  0  0  0  0  0  0  0
    9.2629  -16.5370   24.9518 C   0  0  0  0  0  0  0  0  0  0  0  0
   10.2648  -17.4549   26.8848 O   0  0  0  0  0  0  0  0  0  0  0  0
   10.5786  -18.3881   26.1158 C   0  0  0  0  0  0  0  0  0  0  0  0
    8.5044  -13.6448   27.1469 C   0  0  0  0  0  0  0  0  0  0  0  0
    8.0287  -12.3764   26.9453 O   0  0  0  0  0  0  0  0  0  0  0  0
  2  3  2  0
  2  1  1  0
  4  2  1  0
  5  4  1  0
  5  6  1  6
  7  5  1  0
  7  8  2  0
  9 10  1  0
 10 12  1  0
 11 10  2  0
 12 13  1  0
 13 14  1  0
 14 15  1  0
 16 17  1  0
 16 15  1  1
 17  7  1  0
 18 16  1  0
 19 18  2  0
 20 21  1  0
 21 22  2  0
 21 31  1  0
 22 23  1  0
 23 24  2  0
 24 25  1  0
 26 25  1  6
 26 27  1  0
 27 18  1  0
 28 26  1  0
 28 32  1  0
 29 28  2  0
 30 24  1  0
 31 30  2  0
M  END
$$$$
