NRY.pdb
     RDKit          3D

 32 32  0  0  1  0  0  0  0  0999 V2000
   11.2927  -13.7014   16.7130 N   0  0  0  0  0  0  0  0  0  0  0  0
   11.9652  -13.6196   17.9544 C   0  0  0  0  0  0  0  0  0  0  0  0
   13.2069  -13.5143   18.0126 O   0  0  0  0  0  0  0  0  0  0  0  0
   11.1861  -13.6591   19.2108 C   0  0  0  0  0  0  0  0  0  0  0  0
    9.7521  -13.9724   18.8401 C   0  0  2  0  0  0  0  0  0  0  0  0
    9.1126  -12.8622   18.2012 N   0  0  0  0  0  0  0  0  0  0  0  0
    8.9523  -14.3748   20.0469 C   0  0  0  0  0  0  0  0  0  0  0  0
    8.4354  -13.4671   20.7817 O   0  0  0  0  0  0  0  0  0  0  0  0
    7.7167  -19.6852   16.8835 N   0  0  0  0  0  0  0  0  0  0  0  0
    8.8181  -20.3030   17.5196 C   0  0  0  0  0  0  0  0  0  0  0  0
    9.7407  -20.8859   16.8039 N   0  0  0  0  0  0  0  0  0  0  0  0
    8.9978  -20.3363   18.9233 N   0  0  0  0  0  0  0  0  0  0  0  0
    8.0724  -19.6698   19.8172 C   0  0  0  0  0  0  0  0  0  0  0  0
    8.5006  -18.2394   20.1207 C   0  0  0  0  0  0  0  0  0  0  0  0
    7.5639  -17.5817   21.0759 C   0  0  0  0  0  0  0  0  0  0  0  0
    8.0207  -16.2141   21.4531 C   0  0  2  0  0  0  0  0  0  0  0  0
    8.8181  -15.7567   20.3005 N   0  0  0  0  0  0  0  0  0  0  0  0
    8.7658  -16.0535   22.6869 C   0  0  0  0  0  0  0  0  0  0  0  0
   10.0329  -16.2204   22.6627 O   0  0  0  0  0  0  0  0  0  0  0  0
   10.5513  -21.3811   17.2038 O   0  0  0  0  0  0  0  0  0  0  0  0
   11.2005  -15.2368   31.0959 C   0  0  0  0  0  0  0  0  0  0  0  0
   10.5075  -15.1259   29.8980 C   0  0  0  0  0  0  0  0  0  0  0  0
   10.5473  -13.9815   29.1582 C   0  0  0  0  0  0  0  0  0  0  0  0
    9.8405  -13.9255   27.9765 C   0  0  0  0  0  0  0  0  0  0  0  0
    9.0914  -14.9797   27.5073 C   0  0  0  0  0  0  0  0  0  0  0  0
    8.3220  -14.9402   26.2538 C   0  0  1  0  0  0  0  0  0  0  0  0
    9.0613  -15.6130   25.1453 N   0  0  0  0  0  0  0  0  0  0  0  0
    8.2400  -15.7191   23.9421 C   0  0  0  0  0  0  0  0  0  0  0  0
    9.4879  -16.9583   25.5200 O   0  0  0  0  0  0  0  0  0  0  0  0
    8.6927  -17.9159   25.4124 C   0  0  0  0  0  0  0  0  0  0  0  0
    9.0701  -16.1300   28.2810 C   0  0  0  0  0  0  0  0  0  0  0  0
    9.7692  -16.1961   29.4568 O   0  0  0  0  0  0  0  0  0  0  0  0
  2  3  2  0
  2  1  1  0
  4  2  1  0
  5  4  1  0
  5  6  1  1
  7  5  1  0
  7  8  2  0
  9 10  1  0
 10 12  1  0
 11 10  2  0
 12 13  1  0
 13 14  1  0
 14 15  1  0
 16 17  1  0
 16 15  1  6
 17  7  1  0
 18 16  1  0
 19 18  2  0
 20 21  1  0
 21 22  2  0
 21 31  1  0
 22 23  1  0
 23 24  2  0
 24 25  1  0
 26 25  1  6
 26 27  1  0
 27 18  1  0
 28 26  1  0
 28 32  1  0
 29 28  2  0
 30 24  1  0
 31 30  2  0
M  END
$$$$
