NRY.pdb
     RDKit          3D

 32 32  0  0  1  0  0  0  0  0999 V2000
    8.8462  -12.7039   17.4200 N   0  0  0  0  0  0  0  0  0  0  0  0
    8.3713  -14.0315   17.3098 C   0  0  0  0  0  0  0  0  0  0  0  0
    8.6391  -14.7347   16.3149 O   0  0  0  0  0  0  0  0  0  0  0  0
    7.5407  -14.6018   18.3924 C   0  0  0  0  0  0  0  0  0  0  0  0
    8.4827  -15.0774   19.4779 C   0  0  2  0  0  0  0  0  0  0  0  0
    9.4779  -15.9701   18.9657 N   0  0  0  0  0  0  0  0  0  0  0  0
    7.7347  -15.7579   20.5895 C   0  0  0  0  0  0  0  0  0  0  0  0
    6.7702  -15.1433   21.1578 O   0  0  0  0  0  0  0  0  0  0  0  0
    3.7269  -22.7291   23.9407 N   0  0  0  0  0  0  0  0  0  0  0  0
    5.0907  -22.3802   24.0728 C   0  0  0  0  0  0  0  0  0  0  0  0
    6.0055  -23.3108   24.0567 N   0  0  0  0  0  0  0  0  0  0  0  0
    5.5506  -21.0503   24.2269 N   0  0  0  0  0  0  0  0  0  0  0  0
    5.9417  -20.2514   23.0830 C   0  0  0  0  0  0  0  0  0  0  0  0
    7.4490  -20.0364   23.0243 C   0  0  0  0  0  0  0  0  0  0  0  0
    7.8342  -19.1994   21.8523 C   0  0  0  0  0  0  0  0  0  0  0  0
    7.4748  -17.7662   22.0480 C   0  0  2  0  0  0  0  0  0  0  0  0
    8.1506  -17.0589   20.9451 N   0  0  0  0  0  0  0  0  0  0  0  0
    7.7873  -17.1462   23.3212 C   0  0  0  0  0  0  0  0  0  0  0  0
    7.0415  -17.4041   24.3269 O   0  0  0  0  0  0  0  0  0  0  0  0
    7.0153  -23.1261   24.1490 O   0  0  0  0  0  0  0  0  0  0  0  0
    6.7309  -10.2282   28.0220 C   0  0  0  0  0  0  0  0  0  0  0  0
    6.9559  -11.2463   27.1052 C   0  0  0  0  0  0  0  0  0  0  0  0
    8.2194  -11.6384   26.7758 C   0  0  0  0  0  0  0  0  0  0  0  0
    8.3856  -12.6543   25.8597 C   0  0  0  0  0  0  0  0  0  0  0  0
    7.3266  -13.2945   25.2586 C   0  0  0  0  0  0  0  0  0  0  0  0
    7.4794  -14.3751   24.2719 C   0  0  1  0  0  0  0  0  0  0  0  0
    8.7410  -15.1396   24.4999 N   0  0  0  0  0  0  0  0  0  0  0  0
    8.8515  -16.2736   23.5859 C   0  0  0  0  0  0  0  0  0  0  0  0
    8.8225  -15.6513   25.8651 O   0  0  0  0  0  0  0  0  0  0  0  0
    8.7905  -14.8583   26.8299 C   0  0  0  0  0  0  0  0  0  0  0  0
    6.0539  -12.8742   25.6135 C   0  0  0  0  0  0  0  0  0  0  0  0
    5.8777  -11.8655   26.5231 O   0  0  0  0  0  0  0  0  0  0  0  0
  2  3  2  0
  2  1  1  0
  4  2  1  0
  5  4  1  0
  5  6  1  6
  7  5  1  0
  7  8  2  0
  9 10  1  0
 10 12  1  0
 11 10  2  0
 12 13  1  0
 13 14  1  0
 14 15  1  0
 16 17  1  0
 16 15  1  1
 17  7  1  0
 18 16  1  0
 19 18  2  0
 20 21  1  0
 21 22  2  0
 21 31  1  0
 22 23  1  0
 23 24  2  0
 24 25  1  0
 26 25  1  6
 26 27  1  0
 27 18  1  0
 28 26  1  0
 28 32  1  0
 29 28  2  0
 30 24  1  0
 31 30  2  0
M  END
$$$$
