KKE.pdb
     RDKit          3D

 28 27  0  0  1  0  0  0  0  0999 V2000
    7.7086  -16.3588   19.3628 N   0  0  0  0  0  0  0  0  0  0  0  0
    9.1338  -16.1696   19.4655 C   0  0  1  0  0  0  0  0  0  0  0  0
    9.7408  -15.4299   18.3262 C   0  0  0  0  0  0  0  0  0  0  0  0
    9.0316  -15.6771   17.0471 C   0  0  0  0  0  0  0  0  0  0  0  0
    8.4700  -14.4911   16.3485 C   0  0  0  0  0  0  0  0  0  0  0  0
    7.8281  -14.8213   15.0221 C   0  0  0  0  0  0  0  0  0  0  0  0
    7.2649  -13.6226   14.4336 N   0  0  0  0  0  0  0  0  0  0  0  0
    9.4964  -15.5481   20.7882 C   0  0  0  0  0  0  0  0  0  0  0  0
   10.6920  -15.2703   21.0574 O   0  0  0  0  0  0  0  0  0  0  0  0
    8.5031  -15.2695   21.7429 N   0  0  0  0  0  0  0  0  0  0  0  0
    8.7270  -14.6662   23.0406 C   0  0  1  0  0  0  0  0  0  0  0  0
    7.4001  -14.1951   23.5569 C   0  0  0  0  0  0  0  0  0  0  0  0
    7.5835  -13.4649   24.8482 C   0  0  0  0  0  0  0  0  0  0  0  0
    6.2893  -12.8766   25.3069 C   0  0  0  0  0  0  0  0  0  0  0  0
    6.4724  -11.9914   26.5128 C   0  0  0  0  0  0  0  0  0  0  0  0
    5.2407  -11.3462   26.9125 N   0  0  0  0  0  0  0  0  0  0  0  0
    9.1991  -15.7435   23.9706 C   0  0  0  0  0  0  0  0  0  0  0  0
    8.5486  -16.8060   24.0229 O   0  0  0  0  0  0  0  0  0  0  0  0
   10.3623  -15.4877   24.7378 N   0  0  0  0  0  0  0  0  0  0  0  0
   11.0194  -16.6492   25.3638 C   0  0  1  0  0  0  0  0  0  0  0  0
   12.4243  -16.6297   24.9001 C   0  0  0  0  0  0  0  0  0  0  0  0
   13.3074  -17.7052   25.4420 C   0  0  0  0  0  0  0  0  0  0  0  0
   14.6787  -17.5389   24.9231 C   0  0  0  0  0  0  0  0  0  0  0  0
   15.4584  -16.7149   25.4905 O   0  0  0  0  0  0  0  0  0  0  0  0
   10.6902  -16.7244   26.7607 C   0  0  0  0  0  0  0  0  0  0  0  0
   10.1884  -15.7101   27.3349 O   0  0  0  0  0  0  0  0  0  0  0  0
   15.1910  -18.2310   23.8372 O   0  0  0  0  0  0  0  0  0  0  0  0
   10.8574  -17.8326   27.5949 O   0  0  0  0  0  0  0  0  0  0  0  0
  2  1  1  6
  3  4  1  0
  3  2  1  0
  4  5  1  0
  6  5  1  0
  7  6  1  0
  8  2  1  0
  8  9  2  0
 10  8  1  0
 11 10  1  0
 11 12  1  1
 13 12  1  0
 14 13  1  0
 15 14  1  0
 16 15  1  0
 17 11  1  0
 18 17  2  0
 19 17  1  0
 20 21  1  1
 20 19  1  0
 22 21  1  0
 23 22  1  0
 23 24  2  0
 25 20  1  0
 26 25  2  0
 27 23  1  0
 28 25  1  0
M  END
$$$$
