KKE.pdb
     RDKit          3D

 28 27  0  0  1  0  0  0  0  0999 V2000
   10.3721  -17.9764   19.0987 N   0  0  0  0  0  0  0  0  0  0  0  0
   11.1009  -18.3569   20.2826 C   0  0  1  0  0  0  0  0  0  0  0  0
   12.5238  -18.7180   20.0406 C   0  0  0  0  0  0  0  0  0  0  0  0
   12.8403  -18.8402   18.5966 C   0  0  0  0  0  0  0  0  0  0  0  0
   14.2292  -19.2350   18.2429 C   0  0  0  0  0  0  0  0  0  0  0  0
   14.4717  -19.3171   16.7547 C   0  0  0  0  0  0  0  0  0  0  0  0
   15.8347  -19.7377   16.4984 N   0  0  0  0  0  0  0  0  0  0  0  0
   10.9683  -17.3058   21.3526 C   0  0  0  0  0  0  0  0  0  0  0  0
   11.9316  -17.0466   22.1166 O   0  0  0  0  0  0  0  0  0  0  0  0
    9.7644  -16.5985   21.5140 N   0  0  0  0  0  0  0  0  0  0  0  0
    9.5137  -15.5779   22.5108 C   0  0  1  0  0  0  0  0  0  0  0  0
    8.3184  -14.7905   22.0632 C   0  0  0  0  0  0  0  0  0  0  0  0
    8.5209  -14.3038   20.6644 C   0  0  0  0  0  0  0  0  0  0  0  0
    7.3224  -13.5468   20.1934 C   0  0  0  0  0  0  0  0  0  0  0  0
    7.4551  -13.1282   18.7517 C   0  0  0  0  0  0  0  0  0  0  0  0
    6.2400  -12.5338   18.2385 N   0  0  0  0  0  0  0  0  0  0  0  0
    9.1287  -16.2681   23.7852 C   0  0  0  0  0  0  0  0  0  0  0  0
    8.3577  -17.2456   23.7183 O   0  0  0  0  0  0  0  0  0  0  0  0
    9.6676  -15.7648   24.9949 N   0  0  0  0  0  0  0  0  0  0  0  0
   10.0187  -16.7516   26.0321 C   0  0  1  0  0  0  0  0  0  0  0  0
   10.8515  -17.7760   25.3640 C   0  0  0  0  0  0  0  0  0  0  0  0
   11.3338  -18.8937   26.2292 C   0  0  0  0  0  0  0  0  0  0  0  0
   12.1603  -19.8233   25.4354 C   0  0  0  0  0  0  0  0  0  0  0  0
   13.4207  -19.6825   25.4343 O   0  0  0  0  0  0  0  0  0  0  0  0
   10.4578  -16.0912   27.2307 C   0  0  0  0  0  0  0  0  0  0  0  0
   10.9586  -14.9280   27.1497 O   0  0  0  0  0  0  0  0  0  0  0  0
   11.6514  -20.8628   24.6730 O   0  0  0  0  0  0  0  0  0  0  0  0
   10.3879  -16.5973   28.5310 O   0  0  0  0  0  0  0  0  0  0  0  0
  2  1  1  6
  3  4  1  0
  3  2  1  0
  4  5  1  0
  6  5  1  0
  7  6  1  0
  8  2  1  0
  8  9  2  0
 10  8  1  0
 11 10  1  0
 11 12  1  6
 13 12  1  0
 14 13  1  0
 15 14  1  0
 16 15  1  0
 17 11  1  0
 18 17  2  0
 19 17  1  0
 20 21  1  6
 20 19  1  0
 22 21  1  0
 23 22  1  0
 23 24  2  0
 25 20  1  0
 26 25  2  0
 27 23  1  0
 28 25  1  0
M  END
$$$$
