KKE.pdb
     RDKit          3D

 28 27  0  0  1  0  0  0  0  0999 V2000
    8.3832  -15.5623   18.6330 N   0  0  0  0  0  0  0  0  0  0  0  0
    7.5443  -15.8237   19.7756 C   0  0  1  0  0  0  0  0  0  0  0  0
    7.0251  -17.2157   19.8532 C   0  0  0  0  0  0  0  0  0  0  0  0
    8.1097  -18.2194   19.9813 C   0  0  0  0  0  0  0  0  0  0  0  0
    7.7146  -19.6507   19.9080 C   0  0  0  0  0  0  0  0  0  0  0  0
    8.8857  -20.6024   19.9626 C   0  0  0  0  0  0  0  0  0  0  0  0
    8.4173  -21.9694   19.8518 N   0  0  0  0  0  0  0  0  0  0  0  0
    8.2351  -15.4161   21.0500 C   0  0  0  0  0  0  0  0  0  0  0  0
    9.4765  -15.5619   21.1787 O   0  0  0  0  0  0  0  0  0  0  0  0
    7.5019  -14.8667   22.1159 N   0  0  0  0  0  0  0  0  0  0  0  0
    8.0657  -14.3143   23.3304 C   0  0  1  0  0  0  0  0  0  0  0  0
    6.9452  -13.6909   24.1082 C   0  0  0  0  0  0  0  0  0  0  0  0
    7.4780  -13.0511   25.3496 C   0  0  0  0  0  0  0  0  0  0  0  0
    6.3798  -12.3775   26.1057 C   0  0  0  0  0  0  0  0  0  0  0  0
    6.8915  -11.6969   27.3492 C   0  0  0  0  0  0  0  0  0  0  0  0
    5.8290  -11.0832   28.1159 N   0  0  0  0  0  0  0  0  0  0  0  0
    8.5859  -15.4548   24.1532 C   0  0  0  0  0  0  0  0  0  0  0  0
    7.8850  -16.4815   24.2502 O   0  0  0  0  0  0  0  0  0  0  0  0
    9.8494  -15.2961   24.7740 N   0  0  0  0  0  0  0  0  0  0  0  0
   10.4841  -16.5098   25.3186 C   0  0  1  0  0  0  0  0  0  0  0  0
   11.8144  -16.6045   24.6776 C   0  0  0  0  0  0  0  0  0  0  0  0
   12.7123  -17.6825   25.1893 C   0  0  0  0  0  0  0  0  0  0  0  0
   13.9835  -17.6759   24.4400 C   0  0  0  0  0  0  0  0  0  0  0  0
   13.9938  -18.0779   23.2372 O   0  0  0  0  0  0  0  0  0  0  0  0
   10.3329  -16.5625   26.7468 C   0  0  0  0  0  0  0  0  0  0  0  0
   10.1341  -17.6830   27.3083 O   0  0  0  0  0  0  0  0  0  0  0  0
   15.1953  -17.2539   24.9637 O   0  0  0  0  0  0  0  0  0  0  0  0
   10.3895  -15.4802   27.6284 O   0  0  0  0  0  0  0  0  0  0  0  0
  2  1  1  6
  3  4  1  0
  3  2  1  0
  4  5  1  0
  6  5  1  0
  7  6  1  0
  8  2  1  0
  8  9  2  0
 10  8  1  0
 11 10  1  0
 11 12  1  1
 13 12  1  0
 14 13  1  0
 15 14  1  0
 16 15  1  0
 17 11  1  0
 18 17  2  0
 19 17  1  0
 20 21  1  1
 20 19  1  0
 22 21  1  0
 23 22  1  0
 23 24  2  0
 25 20  1  0
 26 25  2  0
 27 23  1  0
 28 25  1  0
M  END
$$$$
