KKE.pdb
     RDKit          3D

 28 27  0  0  1  0  0  0  0  0999 V2000
    9.3620  -18.3802   17.1585 N   0  0  0  0  0  0  0  0  0  0  0  0
   10.0116  -19.0100   18.2805 C   0  0  1  0  0  0  0  0  0  0  0  0
   11.0156  -20.0438   17.9103 C   0  0  0  0  0  0  0  0  0  0  0  0
   12.1287  -19.4896   17.1017 C   0  0  0  0  0  0  0  0  0  0  0  0
   13.1992  -20.4362   16.6916 C   0  0  0  0  0  0  0  0  0  0  0  0
   14.3211  -19.7803   15.9227 C   0  0  0  0  0  0  0  0  0  0  0  0
   15.3706  -20.7448   15.6605 N   0  0  0  0  0  0  0  0  0  0  0  0
   10.5932  -17.9778   19.2097 C   0  0  0  0  0  0  0  0  0  0  0  0
   11.8201  -17.7079   19.1774 O   0  0  0  0  0  0  0  0  0  0  0  0
    9.7730  -17.3003   20.1283 N   0  0  0  0  0  0  0  0  0  0  0  0
   10.1782  -16.1821   20.9549 C   0  0  1  0  0  0  0  0  0  0  0  0
    8.9632  -15.3394   21.2056 C   0  0  0  0  0  0  0  0  0  0  0  0
    8.6334  -14.5413   19.9855 C   0  0  0  0  0  0  0  0  0  0  0  0
    7.3777  -13.7593   20.1934 C   0  0  0  0  0  0  0  0  0  0  0  0
    7.0108  -12.9540   18.9735 C   0  0  0  0  0  0  0  0  0  0  0  0
    5.7842  -12.2089   19.1560 N   0  0  0  0  0  0  0  0  0  0  0  0
   10.6115  -16.7280   22.2826 C   0  0  0  0  0  0  0  0  0  0  0  0
   10.0368  -17.7446   22.7196 O   0  0  0  0  0  0  0  0  0  0  0  0
   11.6537  -16.0521   22.9638 N   0  0  0  0  0  0  0  0  0  0  0  0
   12.4313  -16.8347   23.9413 C   0  0  1  0  0  0  0  0  0  0  0  0
   13.8562  -16.6074   23.6141 C   0  0  0  0  0  0  0  0  0  0  0  0
   14.8482  -17.2362   24.5366 C   0  0  0  0  0  0  0  0  0  0  0  0
   16.2186  -16.9685   24.0596 C   0  0  0  0  0  0  0  0  0  0  0  0
   16.6530  -15.7769   24.0651 O   0  0  0  0  0  0  0  0  0  0  0  0
   11.9240  -16.6313   25.2705 C   0  0  0  0  0  0  0  0  0  0  0  0
   11.1501  -15.6510   25.4955 O   0  0  0  0  0  0  0  0  0  0  0  0
   17.0871  -17.9434   23.5949 O   0  0  0  0  0  0  0  0  0  0  0  0
   12.1873  -17.4241   26.3904 O   0  0  0  0  0  0  0  0  0  0  0  0
  2  1  1  6
  3  4  1  0
  3  2  1  0
  4  5  1  0
  6  5  1  0
  7  6  1  0
  8  2  1  0
  8  9  2  0
 10  8  1  0
 11 10  1  0
 11 12  1  1
 13 12  1  0
 14 13  1  0
 15 14  1  0
 16 15  1  0
 17 11  1  0
 18 17  2  0
 19 17  1  0
 20 21  1  1
 20 19  1  0
 22 21  1  0
 23 22  1  0
 23 24  2  0
 25 20  1  0
 26 25  2  0
 27 23  1  0
 28 25  1  0
M  END
$$$$
