KKE.pdb
     RDKit          3D

 28 27  0  0  1  0  0  0  0  0999 V2000
    7.0177  -15.7579   19.8221 N   0  0  0  0  0  0  0  0  0  0  0  0
    8.1378  -14.8634   19.6706 C   0  0  1  0  0  0  0  0  0  0  0  0
    7.8695  -13.6807   18.8089 C   0  0  0  0  0  0  0  0  0  0  0  0
    8.5498  -13.7709   17.4939 C   0  0  0  0  0  0  0  0  0  0  0  0
    7.8109  -14.4529   16.3990 C   0  0  0  0  0  0  0  0  0  0  0  0
    8.6150  -14.5986   15.1292 C   0  0  0  0  0  0  0  0  0  0  0  0
    7.7824  -15.1463   14.0769 N   0  0  0  0  0  0  0  0  0  0  0  0
    8.6848  -14.4598   21.0142 C   0  0  0  0  0  0  0  0  0  0  0  0
    9.7817  -13.8529   21.1014 O   0  0  0  0  0  0  0  0  0  0  0  0
    7.9774  -14.7562   22.1920 N   0  0  0  0  0  0  0  0  0  0  0  0
    8.4166  -14.4515   23.5382 C   0  0  1  0  0  0  0  0  0  0  0  0
    7.1921  -14.2493   24.3801 C   0  0  0  0  0  0  0  0  0  0  0  0
    7.3740  -13.0631   25.2713 C   0  0  0  0  0  0  0  0  0  0  0  0
    6.1321  -12.8036   26.0598 C   0  0  0  0  0  0  0  0  0  0  0  0
    6.3083  -11.6565   27.0212 C   0  0  0  0  0  0  0  0  0  0  0  0
    5.0657  -11.2781   27.6582 N   0  0  0  0  0  0  0  0  0  0  0  0
    9.1196  -15.6624   24.0750 C   0  0  0  0  0  0  0  0  0  0  0  0
    8.5410  -16.7642   23.9983 O   0  0  0  0  0  0  0  0  0  0  0  0
   10.4060  -15.4802   24.6400 N   0  0  0  0  0  0  0  0  0  0  0  0
   11.1557  -16.6966   25.0020 C   0  0  1  0  0  0  0  0  0  0  0  0
   12.5270  -16.5087   24.4790 C   0  0  0  0  0  0  0  0  0  0  0  0
   13.4935  -17.6107   24.7653 C   0  0  0  0  0  0  0  0  0  0  0  0
   14.8231  -17.2659   24.2263 C   0  0  0  0  0  0  0  0  0  0  0  0
   15.5079  -16.3656   24.8000 O   0  0  0  0  0  0  0  0  0  0  0  0
   10.9169  -17.0481   26.3749 C   0  0  0  0  0  0  0  0  0  0  0  0
   10.5407  -16.1498   27.1885 O   0  0  0  0  0  0  0  0  0  0  0  0
   15.3935  -17.8655   23.1146 O   0  0  0  0  0  0  0  0  0  0  0  0
   11.0480  -18.3183   26.9419 O   0  0  0  0  0  0  0  0  0  0  0  0
  2  1  1  1
  3  4  1  0
  3  2  1  0
  4  5  1  0
  6  5  1  0
  7  6  1  0
  8  2  1  0
  8  9  2  0
 10  8  1  0
 11 10  1  0
 11 12  1  1
 13 12  1  0
 14 13  1  0
 15 14  1  0
 16 15  1  0
 17 11  1  0
 18 17  2  0
 19 17  1  0
 20 21  1  1
 20 19  1  0
 22 21  1  0
 23 22  1  0
 23 24  2  0
 25 20  1  0
 26 25  2  0
 27 23  1  0
 28 25  1  0
M  END
$$$$
