KKE.pdb
     RDKit          3D

 28 27  0  0  1  0  0  0  0  0999 V2000
    8.0537  -16.9056   18.8035 N   0  0  0  0  0  0  0  0  0  0  0  0
    8.1887  -17.6155   20.0507 C   0  0  1  0  0  0  0  0  0  0  0  0
    8.8965  -18.9198   19.9437 C   0  0  0  0  0  0  0  0  0  0  0  0
    8.0417  -19.9828   19.3612 C   0  0  0  0  0  0  0  0  0  0  0  0
    7.1203  -20.6899   20.2893 C   0  0  0  0  0  0  0  0  0  0  0  0
    6.2535  -21.7215   19.6077 C   0  0  0  0  0  0  0  0  0  0  0  0
    5.3155  -22.2848   20.5581 N   0  0  0  0  0  0  0  0  0  0  0  0
    8.8051  -16.7331   21.1037 C   0  0  0  0  0  0  0  0  0  0  0  0
   10.0343  -16.4733   21.0802 O   0  0  0  0  0  0  0  0  0  0  0  0
    8.0152  -16.1867   22.1299 N   0  0  0  0  0  0  0  0  0  0  0  0
    8.4764  -15.2669   23.1494 C   0  0  1  0  0  0  0  0  0  0  0  0
    7.2703  -14.7621   23.8841 C   0  0  0  0  0  0  0  0  0  0  0  0
    7.6893  -13.8369   24.9807 C   0  0  0  0  0  0  0  0  0  0  0  0
    6.4967  -13.3280   25.7225 C   0  0  0  0  0  0  0  0  0  0  0  0
    6.8880  -12.3968   26.8410 C   0  0  0  0  0  0  0  0  0  0  0  0
    5.7386  -11.8687   27.5433 N   0  0  0  0  0  0  0  0  0  0  0  0
    9.2919  -16.0486   24.1355 C   0  0  0  0  0  0  0  0  0  0  0  0
    8.8312  -17.1264   24.5608 O   0  0  0  0  0  0  0  0  0  0  0  0
   10.5436  -15.5123   24.5264 N   0  0  0  0  0  0  0  0  0  0  0  0
   11.3730  -16.3360   25.4242 C   0  0  1  0  0  0  0  0  0  0  0  0
   12.7787  -16.0818   25.0386 C   0  0  0  0  0  0  0  0  0  0  0  0
   13.2707  -16.8173   23.8356 C   0  0  0  0  0  0  0  0  0  0  0  0
   14.5812  -16.2815   23.4198 C   0  0  0  0  0  0  0  0  0  0  0  0
   15.4803  -16.0993   24.2955 O   0  0  0  0  0  0  0  0  0  0  0  0
   10.9314  -16.2022   26.7853 C   0  0  0  0  0  0  0  0  0  0  0  0
   11.3742  -17.0053   27.6626 O   0  0  0  0  0  0  0  0  0  0  0  0
   14.9114  -15.9545   22.1141 O   0  0  0  0  0  0  0  0  0  0  0  0
   10.0402  -15.2463   27.2792 O   0  0  0  0  0  0  0  0  0  0  0  0
  2  1  1  6
  3  4  1  0
  3  2  1  0
  4  5  1  0
  6  5  1  0
  7  6  1  0
  8  2  1  0
  8  9  2  0
 10  8  1  0
 11 10  1  0
 11 12  1  1
 13 12  1  0
 14 13  1  0
 15 14  1  0
 16 15  1  0
 17 11  1  0
 18 17  2  0
 19 17  1  0
 20 21  1  1
 20 19  1  0
 22 21  1  0
 23 22  1  0
 23 24  2  0
 25 20  1  0
 26 25  2  0
 27 23  1  0
 28 25  1  0
M  END
$$$$
