KKE.pdb
     RDKit          3D

 28 27  0  0  1  0  0  0  0  0999 V2000
    7.8307  -12.3027   18.9741 N   0  0  0  0  0  0  0  0  0  0  0  0
    7.4803  -13.5648   19.5758 C   0  0  1  0  0  0  0  0  0  0  0  0
    7.4040  -14.7027   18.6204 C   0  0  0  0  0  0  0  0  0  0  0  0
    8.5838  -14.7707   17.7239 C   0  0  0  0  0  0  0  0  0  0  0  0
    8.5552  -15.7985   16.6502 C   0  0  0  0  0  0  0  0  0  0  0  0
    8.2661  -17.1913   17.1571 C   0  0  0  0  0  0  0  0  0  0  0  0
    8.2305  -18.1235   16.0480 N   0  0  0  0  0  0  0  0  0  0  0  0
    8.3879  -13.8735   20.7369 C   0  0  0  0  0  0  0  0  0  0  0  0
    9.5670  -13.4397   20.7593 O   0  0  0  0  0  0  0  0  0  0  0  0
    7.9305  -14.6524   21.8139 N   0  0  0  0  0  0  0  0  0  0  0  0
    8.7041  -15.0067   22.9861 C   0  0  1  0  0  0  0  0  0  0  0  0
    7.8435  -15.8788   23.8510 C   0  0  0  0  0  0  0  0  0  0  0  0
    8.6491  -16.4319   24.9821 C   0  0  0  0  0  0  0  0  0  0  0  0
    7.8432  -17.4118   25.7706 C   0  0  0  0  0  0  0  0  0  0  0  0
    8.6064  -17.9370   26.9593 C   0  0  0  0  0  0  0  0  0  0  0  0
    7.8275  -18.8714   27.7426 N   0  0  0  0  0  0  0  0  0  0  0  0
    9.8609  -15.8469   22.5340 C   0  0  0  0  0  0  0  0  0  0  0  0
    9.6324  -16.8044   21.7687 O   0  0  0  0  0  0  0  0  0  0  0  0
   11.1507  -15.4999   23.0062 N   0  0  0  0  0  0  0  0  0  0  0  0
   12.2736  -16.3490   22.5693 C   0  0  1  0  0  0  0  0  0  0  0  0
   13.1456  -15.4879   21.7402 C   0  0  0  0  0  0  0  0  0  0  0  0
   14.4567  -16.0787   21.3374 C   0  0  0  0  0  0  0  0  0  0  0  0
   15.2565  -15.0767   20.6068 C   0  0  0  0  0  0  0  0  0  0  0  0
   16.3886  -15.4094   20.1419 O   0  0  0  0  0  0  0  0  0  0  0  0
   12.7959  -17.1049   23.6743 C   0  0  0  0  0  0  0  0  0  0  0  0
   12.5728  -16.7068   24.8585 O   0  0  0  0  0  0  0  0  0  0  0  0
   14.8546  -13.7690   20.3852 O   0  0  0  0  0  0  0  0  0  0  0  0
   13.5457  -18.2812   23.5954 O   0  0  0  0  0  0  0  0  0  0  0  0
  2  1  1  6
  3  4  1  0
  3  2  1  0
  4  5  1  0
  6  5  1  0
  7  6  1  0
  8  2  1  0
  8  9  2  0
 10  8  1  0
 11 10  1  0
 11 12  1  1
 13 12  1  0
 14 13  1  0
 15 14  1  0
 16 15  1  0
 17 11  1  0
 18 17  2  0
 19 17  1  0
 20 21  1  1
 20 19  1  0
 22 21  1  0
 23 22  1  0
 23 24  2  0
 25 20  1  0
 26 25  2  0
 27 23  1  0
 28 25  1  0
M  END
$$$$
