KKE.pdb
     RDKit          3D

 28 27  0  0  1  0  0  0  0  0999 V2000
    8.4888  -15.9967   18.8191 N   0  0  0  0  0  0  0  0  0  0  0  0
    8.1756  -16.7074   20.0333 C   0  0  1  0  0  0  0  0  0  0  0  0
    8.6003  -18.1332   20.0397 C   0  0  0  0  0  0  0  0  0  0  0  0
    8.0103  -18.9058   18.9194 C   0  0  0  0  0  0  0  0  0  0  0  0
    8.3422  -20.3533   18.8513 C   0  0  0  0  0  0  0  0  0  0  0  0
    7.6212  -21.0853   17.7448 C   0  0  0  0  0  0  0  0  0  0  0  0
    6.2278  -21.2679   18.0989 N   0  0  0  0  0  0  0  0  0  0  0  0
    8.6975  -15.9664   21.2358 C   0  0  0  0  0  0  0  0  0  0  0  0
    9.9315  -15.9108   21.4662 O   0  0  0  0  0  0  0  0  0  0  0  0
    7.8122  -15.3259   22.1200 N   0  0  0  0  0  0  0  0  0  0  0  0
    8.1924  -14.5989   23.3137 C   0  0  1  0  0  0  0  0  0  0  0  0
    6.9548  -13.9587   23.8684 C   0  0  0  0  0  0  0  0  0  0  0  0
    7.2888  -13.1830   25.1018 C   0  0  0  0  0  0  0  0  0  0  0  0
    6.0801  -12.4743   25.6195 C   0  0  0  0  0  0  0  0  0  0  0  0
    6.3936  -11.6531   26.8438 C   0  0  0  0  0  0  0  0  0  0  0  0
    5.2572  -10.8770   27.2902 N   0  0  0  0  0  0  0  0  0  0  0  0
    8.6585  -15.5989   24.3292 C   0  0  0  0  0  0  0  0  0  0  0  0
    7.9513  -16.6047   24.5361 O   0  0  0  0  0  0  0  0  0  0  0  0
    9.8813  -15.3390   24.9958 N   0  0  0  0  0  0  0  0  0  0  0  0
   10.5015  -16.4643   25.7181 C   0  0  1  0  0  0  0  0  0  0  0  0
   11.8023  -16.7131   25.0584 C   0  0  0  0  0  0  0  0  0  0  0  0
   12.9368  -17.0698   25.9618 C   0  0  0  0  0  0  0  0  0  0  0  0
   14.1708  -17.2488   25.1727 C   0  0  0  0  0  0  0  0  0  0  0  0
   14.7314  -18.3863   25.1520 O   0  0  0  0  0  0  0  0  0  0  0  0
   10.4048  -16.2684   27.1386 C   0  0  0  0  0  0  0  0  0  0  0  0
    9.9376  -15.1755   27.5833 O   0  0  0  0  0  0  0  0  0  0  0  0
   14.7778  -16.2444   24.4355 O   0  0  0  0  0  0  0  0  0  0  0  0
   10.7729  -17.1815   28.1299 O   0  0  0  0  0  0  0  0  0  0  0  0
  2  1  1  6
  3  4  1  0
  3  2  1  0
  4  5  1  0
  6  5  1  0
  7  6  1  0
  8  2  1  0
  8  9  2  0
 10  8  1  0
 11 10  1  0
 11 12  1  1
 13 12  1  0
 14 13  1  0
 15 14  1  0
 16 15  1  0
 17 11  1  0
 18 17  2  0
 19 17  1  0
 20 21  1  6
 20 19  1  0
 22 21  1  0
 23 22  1  0
 23 24  2  0
 25 20  1  0
 26 25  2  0
 27 23  1  0
 28 25  1  0
M  END
$$$$
