KKE.pdb
     RDKit          3D

 28 27  0  0  1  0  0  0  0  0999 V2000
    7.3382  -16.2752   18.1688 N   0  0  0  0  0  0  0  0  0  0  0  0
    8.2200  -15.1524   18.3670 C   0  0  1  0  0  0  0  0  0  0  0  0
    7.6883  -13.8558   17.8673 C   0  0  0  0  0  0  0  0  0  0  0  0
    6.9765  -13.9955   16.5734 C   0  0  0  0  0  0  0  0  0  0  0  0
    7.6228  -13.3877   15.3805 C   0  0  0  0  0  0  0  0  0  0  0  0
    6.7919  -13.4964   14.1243 C   0  0  0  0  0  0  0  0  0  0  0  0
    7.4772  -12.8532   13.0212 N   0  0  0  0  0  0  0  0  0  0  0  0
    8.6506  -15.0588   19.8068 C   0  0  0  0  0  0  0  0  0  0  0  0
    9.4823  -14.1896   20.1698 O   0  0  0  0  0  0  0  0  0  0  0  0
    8.1296  -15.9429   20.7673 N   0  0  0  0  0  0  0  0  0  0  0  0
    8.5738  -16.0513   22.1417 C   0  0  1  0  0  0  0  0  0  0  0  0
    7.6717  -17.0290   22.8342 C   0  0  0  0  0  0  0  0  0  0  0  0
    8.2201  -17.3640   24.1838 C   0  0  0  0  0  0  0  0  0  0  0  0
    7.3937  -18.4223   24.8383 C   0  0  0  0  0  0  0  0  0  0  0  0
    7.9005  -18.7556   26.2179 C   0  0  0  0  0  0  0  0  0  0  0  0
    7.1792  -19.8578   26.8164 N   0  0  0  0  0  0  0  0  0  0  0  0
    9.9462  -16.6553   22.1326 C   0  0  0  0  0  0  0  0  0  0  0  0
   10.1072  -17.7480   21.5538 O   0  0  0  0  0  0  0  0  0  0  0  0
   10.9828  -15.9439   22.7855 N   0  0  0  0  0  0  0  0  0  0  0  0
   12.3185  -16.5672   22.7951 C   0  0  1  0  0  0  0  0  0  0  0  0
   12.9705  -16.1684   21.5282 C   0  0  0  0  0  0  0  0  0  0  0  0
   13.7031  -14.8672   21.5504 C   0  0  0  0  0  0  0  0  0  0  0  0
   14.5055  -14.7208   20.3207 C   0  0  0  0  0  0  0  0  0  0  0  0
   14.1683  -13.8496   19.4628 O   0  0  0  0  0  0  0  0  0  0  0  0
   12.9605  -16.3683   24.0655 C   0  0  0  0  0  0  0  0  0  0  0  0
   14.1022  -16.8829   24.2705 O   0  0  0  0  0  0  0  0  0  0  0  0
   15.6258  -15.4814   20.0252 O   0  0  0  0  0  0  0  0  0  0  0  0
   12.4577  -15.6372   25.1447 O   0  0  0  0  0  0  0  0  0  0  0  0
  2  1  1  1
  3  4  1  0
  3  2  1  0
  4  5  1  0
  6  5  1  0
  7  6  1  0
  8  2  1  0
  8  9  2  0
 10  8  1  0
 11 10  1  0
 11 12  1  1
 13 12  1  0
 14 13  1  0
 15 14  1  0
 16 15  1  0
 17 11  1  0
 18 17  2  0
 19 17  1  0
 20 21  1  6
 20 19  1  0
 22 21  1  0
 23 22  1  0
 23 24  2  0
 25 20  1  0
 26 25  2  0
 27 23  1  0
 28 25  1  0
M  END
$$$$
