KKE.pdb
     RDKit          3D

 28 27  0  0  1  0  0  0  0  0999 V2000
    7.7867  -12.9129   18.2638 N   0  0  0  0  0  0  0  0  0  0  0  0
    7.4244  -14.0481   19.0748 C   0  0  1  0  0  0  0  0  0  0  0  0
    7.5795  -15.3637   18.3976 C   0  0  0  0  0  0  0  0  0  0  0  0
    8.6954  -15.3705   17.4203 C   0  0  0  0  0  0  0  0  0  0  0  0
    8.3801  -15.8290   16.0417 C   0  0  0  0  0  0  0  0  0  0  0  0
    9.5830  -15.8667   15.1297 C   0  0  0  0  0  0  0  0  0  0  0  0
    9.1792  -16.2621   13.7951 N   0  0  0  0  0  0  0  0  0  0  0  0
    8.1472  -14.0138   20.3953 C   0  0  0  0  0  0  0  0  0  0  0  0
    9.4006  -13.9338   20.4357 O   0  0  0  0  0  0  0  0  0  0  0  0
    7.4313  -14.0715   21.6034 N   0  0  0  0  0  0  0  0  0  0  0  0
    7.9826  -13.8351   22.9219 C   0  0  1  0  0  0  0  0  0  0  0  0
    6.8406  -13.5187   23.8411 C   0  0  0  0  0  0  0  0  0  0  0  0
    7.3599  -13.1377   25.1899 C   0  0  0  0  0  0  0  0  0  0  0  0
    6.2358  -12.7546   26.0961 C   0  0  0  0  0  0  0  0  0  0  0  0
    6.7298  -12.3490   27.4609 C   0  0  0  0  0  0  0  0  0  0  0  0
    5.6483  -11.9873   28.3512 N   0  0  0  0  0  0  0  0  0  0  0  0
    8.5858  -15.1210   23.4027 C   0  0  0  0  0  0  0  0  0  0  0  0
    7.9451  -16.1762   23.2276 O   0  0  0  0  0  0  0  0  0  0  0  0
    9.8545  -15.0587   24.0302 N   0  0  0  0  0  0  0  0  0  0  0  0
   10.4952  -16.3415   24.3718 C   0  0  1  0  0  0  0  0  0  0  0  0
   11.8682  -16.2772   23.8239 C   0  0  0  0  0  0  0  0  0  0  0  0
   12.7681  -17.4153   24.1781 C   0  0  0  0  0  0  0  0  0  0  0  0
   14.1011  -17.2069   23.5805 C   0  0  0  0  0  0  0  0  0  0  0  0
   14.6712  -16.0824   23.7185 O   0  0  0  0  0  0  0  0  0  0  0  0
   10.2501  -16.6789   25.7471 C   0  0  0  0  0  0  0  0  0  0  0  0
    9.8475  -15.7774   26.5444 O   0  0  0  0  0  0  0  0  0  0  0  0
   14.7932  -18.1696   22.8628 O   0  0  0  0  0  0  0  0  0  0  0  0
   10.4017  -17.9381   26.3330 O   0  0  0  0  0  0  0  0  0  0  0  0
  2  1  1  6
  3  4  1  0
  3  2  1  0
  4  5  1  0
  6  5  1  0
  7  6  1  0
  8  2  1  0
  8  9  2  0
 10  8  1  0
 11 10  1  0
 11 12  1  1
 13 12  1  0
 14 13  1  0
 15 14  1  0
 16 15  1  0
 17 11  1  0
 18 17  2  0
 19 17  1  0
 20 21  1  1
 20 19  1  0
 22 21  1  0
 23 22  1  0
 23 24  2  0
 25 20  1  0
 26 25  2  0
 27 23  1  0
 28 25  1  0
M  END
$$$$
