KKE.pdb
     RDKit          3D

 28 27  0  0  1  0  0  0  0  0999 V2000
    7.7290  -17.1843   20.4011 N   0  0  0  0  0  0  0  0  0  0  0  0
    9.0147  -16.5491   20.2556 C   0  0  1  0  0  0  0  0  0  0  0  0
    9.1858  -15.7875   18.9891 C   0  0  0  0  0  0  0  0  0  0  0  0
    7.9492  -15.0754   18.5839 C   0  0  0  0  0  0  0  0  0  0  0  0
    8.0734  -13.6229   18.2929 C   0  0  0  0  0  0  0  0  0  0  0  0
    7.6157  -13.2454   16.9043 C   0  0  0  0  0  0  0  0  0  0  0  0
    8.7122  -12.6497   16.1673 N   0  0  0  0  0  0  0  0  0  0  0  0
    9.3322  -15.7033   21.4603 C   0  0  0  0  0  0  0  0  0  0  0  0
   10.3609  -14.9820   21.4814 O   0  0  0  0  0  0  0  0  0  0  0  0
    8.4832  -15.7079   22.5804 N   0  0  0  0  0  0  0  0  0  0  0  0
    8.7474  -15.0451   23.8409 C   0  0  1  0  0  0  0  0  0  0  0  0
    7.4867  -14.3496   24.2607 C   0  0  0  0  0  0  0  0  0  0  0  0
    7.7291  -13.5581   25.5053 C   0  0  0  0  0  0  0  0  0  0  0  0
    6.4848  -12.8463   25.9254 C   0  0  0  0  0  0  0  0  0  0  0  0
    6.6990  -12.0348   27.1772 C   0  0  0  0  0  0  0  0  0  0  0  0
    5.4872  -11.3814   27.6220 N   0  0  0  0  0  0  0  0  0  0  0  0
    9.0229  -16.1044   24.8658 C   0  0  0  0  0  0  0  0  0  0  0  0
    8.2190  -17.0520   24.9672 O   0  0  0  0  0  0  0  0  0  0  0  0
   10.1867  -15.9637   25.6613 N   0  0  0  0  0  0  0  0  0  0  0  0
   10.5053  -17.0700   26.5818 C   0  0  1  0  0  0  0  0  0  0  0  0
   11.8796  -17.5042   26.2473 C   0  0  0  0  0  0  0  0  0  0  0  0
   12.0898  -17.9950   24.8526 C   0  0  0  0  0  0  0  0  0  0  0  0
   13.5024  -18.3762   24.6612 C   0  0  0  0  0  0  0  0  0  0  0  0
   13.7739  -19.4972   24.1337 O   0  0  0  0  0  0  0  0  0  0  0  0
   10.1308  -16.7321   27.9276 C   0  0  0  0  0  0  0  0  0  0  0  0
    9.7500  -15.5496   28.1868 O   0  0  0  0  0  0  0  0  0  0  0  0
   14.5801  -17.5833   25.0230 O   0  0  0  0  0  0  0  0  0  0  0  0
   10.1287  -17.5908   29.0296 O   0  0  0  0  0  0  0  0  0  0  0  0
  2  1  1  1
  3  4  1  0
  3  2  1  0
  4  5  1  0
  6  5  1  0
  7  6  1  0
  8  2  1  0
  8  9  2  0
 10  8  1  0
 11 10  1  0
 11 12  1  1
 13 12  1  0
 14 13  1  0
 15 14  1  0
 16 15  1  0
 17 11  1  0
 18 17  2  0
 19 17  1  0
 20 21  1  1
 20 19  1  0
 22 21  1  0
 23 22  1  0
 23 24  2  0
 25 20  1  0
 26 25  2  0
 27 23  1  0
 28 25  1  0
M  END
$$$$
