KKE.pdb
     RDKit          3D

 28 27  0  0  1  0  0  0  0  0999 V2000
   10.5821  -20.7211   16.4870 N   0  0  0  0  0  0  0  0  0  0  0  0
   10.3614  -20.5616   17.9024 C   0  0  1  0  0  0  0  0  0  0  0  0
   10.9037  -21.6661   18.7388 C   0  0  0  0  0  0  0  0  0  0  0  0
   11.8621  -22.5213   17.9971 C   0  0  0  0  0  0  0  0  0  0  0  0
   11.6198  -23.9877   18.0283 C   0  0  0  0  0  0  0  0  0  0  0  0
   12.6587  -24.7861   17.2777 C   0  0  0  0  0  0  0  0  0  0  0  0
   12.3627  -26.2012   17.3787 N   0  0  0  0  0  0  0  0  0  0  0  0
   10.8510  -19.2171   18.3714 C   0  0  0  0  0  0  0  0  0  0  0  0
   11.9817  -18.7923   18.0248 O   0  0  0  0  0  0  0  0  0  0  0  0
   10.0511  -18.4164   19.2049 N   0  0  0  0  0  0  0  0  0  0  0  0
   10.3537  -17.0600   19.6133 C   0  0  1  0  0  0  0  0  0  0  0  0
    9.0554  -16.3158   19.7123 C   0  0  0  0  0  0  0  0  0  0  0  0
    9.3141  -14.8707   19.9934 C   0  0  0  0  0  0  0  0  0  0  0  0
    8.0424  -14.0890   19.9365 C   0  0  0  0  0  0  0  0  0  0  0  0
    8.2783  -12.6181   20.1647 C   0  0  0  0  0  0  0  0  0  0  0  0
    7.0516  -11.8521   20.1215 N   0  0  0  0  0  0  0  0  0  0  0  0
   10.9302  -17.1166   20.9964 C   0  0  0  0  0  0  0  0  0  0  0  0
   10.4545  -17.9412   21.8017 O   0  0  0  0  0  0  0  0  0  0  0  0
   11.9866  -16.2249   21.3062 N   0  0  0  0  0  0  0  0  0  0  0  0
   12.5459  -16.2982   22.6680 C   0  0  1  0  0  0  0  0  0  0  0  0
   13.8104  -15.5305   22.6380 C   0  0  0  0  0  0  0  0  0  0  0  0
   14.8992  -16.0955   21.7861 C   0  0  0  0  0  0  0  0  0  0  0  0
   16.0935  -15.2320   21.8584 C   0  0  0  0  0  0  0  0  0  0  0  0
   16.9295  -15.4109   22.7952 O   0  0  0  0  0  0  0  0  0  0  0  0
   11.5286  -16.0322   23.6477 C   0  0  0  0  0  0  0  0  0  0  0  0
   11.5665  -16.6393   24.7614 O   0  0  0  0  0  0  0  0  0  0  0  0
   16.3773  -14.2164   20.9590 O   0  0  0  0  0  0  0  0  0  0  0  0
   10.4617  -15.1399   23.5158 O   0  0  0  0  0  0  0  0  0  0  0  0
  2  1  1  6
  3  4  1  0
  3  2  1  0
  4  5  1  0
  6  5  1  0
  7  6  1  0
  8  2  1  0
  8  9  2  0
 10  8  1  0
 11 10  1  0
 11 12  1  1
 13 12  1  0
 14 13  1  0
 15 14  1  0
 16 15  1  0
 17 11  1  0
 18 17  2  0
 19 17  1  0
 20 21  1  6
 20 19  1  0
 22 21  1  0
 23 22  1  0
 23 24  2  0
 25 20  1  0
 26 25  2  0
 27 23  1  0
 28 25  1  0
M  END
$$$$
