KKE.pdb
     RDKit          3D

 28 27  0  0  1  0  0  0  0  0999 V2000
    8.3503  -16.6415   18.5894 N   0  0  0  0  0  0  0  0  0  0  0  0
    7.8193  -16.9549   19.8923 C   0  0  1  0  0  0  0  0  0  0  0  0
    7.8178  -18.4052   20.2243 C   0  0  0  0  0  0  0  0  0  0  0  0
    7.4077  -19.2496   19.0758 C   0  0  0  0  0  0  0  0  0  0  0  0
    7.2183  -20.7001   19.3405 C   0  0  0  0  0  0  0  0  0  0  0  0
    6.8266  -21.4900   18.1145 C   0  0  0  0  0  0  0  0  0  0  0  0
    6.7013  -22.8942   18.4504 N   0  0  0  0  0  0  0  0  0  0  0  0
    8.5040  -16.1412   20.9582 C   0  0  0  0  0  0  0  0  0  0  0  0
    9.7514  -15.9899   20.9442 O   0  0  0  0  0  0  0  0  0  0  0  0
    7.7586  -15.5385   21.9862 N   0  0  0  0  0  0  0  0  0  0  0  0
    8.3099  -14.8278   23.1216 C   0  0  1  0  0  0  0  0  0  0  0  0
    7.1616  -14.2701   23.9088 C   0  0  0  0  0  0  0  0  0  0  0  0
    7.6721  -13.5186   25.0958 C   0  0  0  0  0  0  0  0  0  0  0  0
    6.5380  -12.9502   25.8846 C   0  0  0  0  0  0  0  0  0  0  0  0
    7.0233  -12.1238   27.0478 C   0  0  0  0  0  0  0  0  0  0  0  0
    5.9369  -11.6617   27.8841 N   0  0  0  0  0  0  0  0  0  0  0  0
    8.9946  -15.8312   24.0008 C   0  0  0  0  0  0  0  0  0  0  0  0
    8.3647  -16.8555   24.3304 O   0  0  0  0  0  0  0  0  0  0  0  0
   10.3234  -15.5531   24.4058 N   0  0  0  0  0  0  0  0  0  0  0  0
   11.0678  -16.6479   25.0539 C   0  0  1  0  0  0  0  0  0  0  0  0
   12.4771  -16.4988   24.6286 C   0  0  0  0  0  0  0  0  0  0  0  0
   13.4465  -17.4664   25.2239 C   0  0  0  0  0  0  0  0  0  0  0  0
   14.8008  -17.2096   24.6975 C   0  0  0  0  0  0  0  0  0  0  0  0
   15.2022  -17.8561   23.6828 O   0  0  0  0  0  0  0  0  0  0  0  0
   10.7089  -16.7514   26.4417 C   0  0  0  0  0  0  0  0  0  0  0  0
   10.9763  -17.8192   27.0732 O   0  0  0  0  0  0  0  0  0  0  0  0
   15.6882  -16.2941   25.2408 O   0  0  0  0  0  0  0  0  0  0  0  0
   10.0807  -15.7701   27.2125 O   0  0  0  0  0  0  0  0  0  0  0  0
  2  1  1  6
  3  4  1  0
  3  2  1  0
  4  5  1  0
  6  5  1  0
  7  6  1  0
  8  2  1  0
  8  9  2  0
 10  8  1  0
 11 10  1  0
 11 12  1  1
 13 12  1  0
 14 13  1  0
 15 14  1  0
 16 15  1  0
 17 11  1  0
 18 17  2  0
 19 17  1  0
 20 21  1  1
 20 19  1  0
 22 21  1  0
 23 22  1  0
 23 24  2  0
 25 20  1  0
 26 25  2  0
 27 23  1  0
 28 25  1  0
M  END
$$$$
