AMN.pdb
     RDKit          3D

 22 21  0  0  1  0  0  0  0  0999 V2000
    7.5409  -13.2423   19.3696 C   0  0  0  0  0  0  0  0  0  0  0  0
    7.9387  -14.5490   20.0174 C   0  0  2  0  0  0  0  0  0  0  0  0
    6.7723  -15.4038   20.0476 N   0  0  0  0  0  0  0  0  0  0  0  0
    8.5155  -14.3495   21.3697 C   0  0  0  0  0  0  0  0  0  0  0  0
    9.6817  -13.9054   21.5223 O   0  0  0  0  0  0  0  0  0  0  0  0
    5.9563  -10.7550   27.0400 C   0  0  0  0  0  0  0  0  0  0  0  0
    6.2376  -12.5191   26.7320 S   0  0  0  0  0  0  0  0  0  0  0  0
    7.1022  -12.6889   25.1218 C   0  0  0  0  0  0  0  0  0  0  0  0
    7.3238  -14.1705   24.9248 C   0  0  0  0  0  0  0  0  0  0  0  0
    8.3730  -14.4751   23.8793 C   0  0  2  0  0  0  0  0  0  0  0  0
    7.7935  -14.6445   22.5646 N   0  0  0  0  0  0  0  0  0  0  0  0
    8.9896  -15.7682   24.2663 C   0  0  0  0  0  0  0  0  0  0  0  0
    8.3588  -16.8344   24.0641 O   0  0  0  0  0  0  0  0  0  0  0  0
   13.4456  -15.6166   23.2907 N   0  0  0  0  0  0  0  0  0  0  0  0
   12.6403  -16.7766   23.4600 C   0  0  0  0  0  0  0  0  0  0  0  0
   12.2589  -17.3599   22.4137 O   0  0  0  0  0  0  0  0  0  0  0  0
   12.3247  -17.1918   24.8290 C   0  0  0  0  0  0  0  0  0  0  0  0
   10.8484  -17.1490   25.1519 C   0  0  2  0  0  0  0  0  0  0  0  0
   10.2775  -15.8531   24.8628 N   0  0  0  0  0  0  0  0  0  0  0  0
   10.5501  -17.5090   26.5350 C   0  0  0  0  0  0  0  0  0  0  0  0
   10.8385  -18.7736   27.0169 O   0  0  0  0  0  0  0  0  0  0  0  0
   10.0252  -16.6929   27.3328 O   0  0  0  0  0  0  0  0  0  0  0  0
  2  4  1  0
  2  1  1  1
  3  2  1  0
  4  5  2  0
  4 11  1  0
  7  6  1  0
  7  8  1  0
  8  9  1  0
 10  9  1  1
 10 12  1  0
 11 10  1  0
 12 19  1  0
 12 13  2  0
 14 15  1  0
 15 17  1  0
 16 15  2  0
 18 17  1  1
 18 20  1  0
 19 18  1  0
 20 21  1  0
 22 20  2  0
M  END
$$$$
