AMN.pdb
     RDKit          3D

 22 21  0  0  1  0  0  0  0  0999 V2000
    7.6374  -14.6666   19.9245 C   0  0  0  0  0  0  0  0  0  0  0  0
    8.1936  -15.7418   20.8300 C   0  0  2  0  0  0  0  0  0  0  0  0
    7.1781  -16.7596   20.9880 N   0  0  0  0  0  0  0  0  0  0  0  0
    8.6407  -15.1968   22.1355 C   0  0  0  0  0  0  0  0  0  0  0  0
    9.7393  -14.5965   22.2499 O   0  0  0  0  0  0  0  0  0  0  0  0
    6.0785  -10.4969   26.8478 C   0  0  0  0  0  0  0  0  0  0  0  0
    6.4114  -12.2744   26.9728 S   0  0  0  0  0  0  0  0  0  0  0  0
    6.8919  -12.8857   25.3102 C   0  0  0  0  0  0  0  0  0  0  0  0
    7.1904  -14.3571   25.4801 C   0  0  0  0  0  0  0  0  0  0  0  0
    8.3296  -14.8316   24.6061 C   0  0  2  0  0  0  0  0  0  0  0  0
    7.8631  -15.3176   23.3258 N   0  0  0  0  0  0  0  0  0  0  0  0
    8.9572  -15.9735   25.3163 C   0  0  0  0  0  0  0  0  0  0  0  0
    9.2777  -15.8451   26.5232 O   0  0  0  0  0  0  0  0  0  0  0  0
    6.4988  -19.3024   25.9161 N   0  0  0  0  0  0  0  0  0  0  0  0
    7.8203  -19.4425   26.4232 C   0  0  0  0  0  0  0  0  0  0  0  0
    7.9463  -19.4874   27.6731 O   0  0  0  0  0  0  0  0  0  0  0  0
    8.9159  -19.5223   25.4540 C   0  0  0  0  0  0  0  0  0  0  0  0
    9.8052  -18.2998   25.4403 C   0  0  2  0  0  0  0  0  0  0  0  0
    9.2145  -17.2201   24.6826 N   0  0  0  0  0  0  0  0  0  0  0  0
   11.1466  -18.5683   24.9304 C   0  0  0  0  0  0  0  0  0  0  0  0
   12.1675  -18.9471   25.7842 O   0  0  0  0  0  0  0  0  0  0  0  0
   11.4231  -18.4668   23.7091 O   0  0  0  0  0  0  0  0  0  0  0  0
  2  4  1  0
  2  1  1  6
  3  2  1  0
  4  5  2  0
  4 11  1  0
  7  6  1  0
  7  8  1  0
  8  9  1  0
 10  9  1  1
 10 12  1  0
 11 10  1  0
 12 19  1  0
 12 13  2  0
 14 15  1  0
 15 17  1  0
 16 15  2  0
 18 17  1  6
 18 20  1  0
 19 18  1  0
 20 21  1  0
 22 20  2  0
M  END
$$$$
