AMN.pdb
     RDKit          3D

 22 21  0  0  1  0  0  0  0  0999 V2000
    8.1865  -15.9007   18.9360 C   0  0  0  0  0  0  0  0  0  0  0  0
    8.0979  -16.7849   20.1590 C   0  0  2  0  0  0  0  0  0  0  0  0
    6.7206  -17.2006   20.3087 N   0  0  0  0  0  0  0  0  0  0  0  0
    8.6084  -16.1077   21.3763 C   0  0  0  0  0  0  0  0  0  0  0  0
    9.8292  -15.8383   21.5094 O   0  0  0  0  0  0  0  0  0  0  0  0
    6.9856  -11.3466   27.4378 C   0  0  0  0  0  0  0  0  0  0  0  0
    6.4034  -12.2878   26.0021 S   0  0  0  0  0  0  0  0  0  0  0  0
    7.7341  -13.4476   25.4992 C   0  0  0  0  0  0  0  0  0  0  0  0
    7.2588  -14.0934   24.2186 C   0  0  0  0  0  0  0  0  0  0  0  0
    8.2636  -15.0644   23.6406 C   0  0  2  0  0  0  0  0  0  0  0  0
    7.7585  -15.7249   22.4567 N   0  0  0  0  0  0  0  0  0  0  0  0
    8.4846  -16.1062   24.6741 C   0  0  0  0  0  0  0  0  0  0  0  0
    7.6562  -17.0422   24.7896 O   0  0  0  0  0  0  0  0  0  0  0  0
   11.2514  -20.1671   25.1394 N   0  0  0  0  0  0  0  0  0  0  0  0
   11.9195  -18.9578   24.8016 C   0  0  0  0  0  0  0  0  0  0  0  0
   13.1732  -19.0053   24.7234 O   0  0  0  0  0  0  0  0  0  0  0  0
   11.0971  -17.7668   24.5749 C   0  0  0  0  0  0  0  0  0  0  0  0
   10.3356  -17.3121   25.7991 C   0  0  2  0  0  0  0  0  0  0  0  0
    9.6055  -16.0901   25.5486 N   0  0  0  0  0  0  0  0  0  0  0  0
   11.1848  -17.1337   26.9731 C   0  0  0  0  0  0  0  0  0  0  0  0
   11.1193  -18.0162   28.0369 O   0  0  0  0  0  0  0  0  0  0  0  0
   11.9994  -16.1815   27.0622 O   0  0  0  0  0  0  0  0  0  0  0  0
  2  4  1  0
  2  1  1  6
  3  2  1  0
  4  5  2  0
  4 11  1  0
  7  6  1  0
  7  8  1  0
  8  9  1  0
 10  9  1  1
 10 12  1  0
 11 10  1  0
 12 19  1  0
 12 13  2  0
 14 15  1  0
 15 17  1  0
 16 15  2  0
 18 17  1  6
 18 20  1  0
 19 18  1  0
 20 21  1  0
 22 20  2  0
M  END
$$$$
