AMN.pdb
     RDKit          3D

 22 21  0  0  1  0  0  0  0  0999 V2000
    7.4669  -13.6502   19.6264 C   0  0  0  0  0  0  0  0  0  0  0  0
    7.8811  -14.8866   20.3913 C   0  0  2  0  0  0  0  0  0  0  0  0
    6.7343  -15.7643   20.4731 N   0  0  0  0  0  0  0  0  0  0  0  0
    8.4251  -14.5582   21.7320 C   0  0  0  0  0  0  0  0  0  0  0  0
    9.4766  -13.8813   21.8613 O   0  0  0  0  0  0  0  0  0  0  0  0
    6.9838  -11.4049   27.4603 C   0  0  0  0  0  0  0  0  0  0  0  0
    5.9070  -12.6684   26.7321 S   0  0  0  0  0  0  0  0  0  0  0  0
    6.5852  -13.1208   25.0877 C   0  0  0  0  0  0  0  0  0  0  0  0
    7.2861  -14.4457   25.2788 C   0  0  0  0  0  0  0  0  0  0  0  0
    8.3593  -14.6988   24.2440 C   0  0  2  0  0  0  0  0  0  0  0  0
    7.7983  -14.9835   22.9412 N   0  0  0  0  0  0  0  0  0  0  0  0
    9.0951  -15.9086   24.6882 C   0  0  0  0  0  0  0  0  0  0  0  0
    8.5553  -17.0353   24.5659 O   0  0  0  0  0  0  0  0  0  0  0  0
   13.5702  -15.5412   23.6076 N   0  0  0  0  0  0  0  0  0  0  0  0
   12.8445  -16.7267   23.9090 C   0  0  0  0  0  0  0  0  0  0  0  0
   12.5082  -17.4485   22.9363 O   0  0  0  0  0  0  0  0  0  0  0  0
   12.5519  -17.0057   25.3170 C   0  0  0  0  0  0  0  0  0  0  0  0
   11.0741  -17.0673   25.6299 C   0  0  2  0  0  0  0  0  0  0  0  0
   10.3986  -15.8466   25.2525 N   0  0  0  0  0  0  0  0  0  0  0  0
   10.7935  -17.3591   27.0326 C   0  0  0  0  0  0  0  0  0  0  0  0
   11.2856  -18.5057   27.6310 O   0  0  0  0  0  0  0  0  0  0  0  0
   10.1012  -16.5886   27.7433 O   0  0  0  0  0  0  0  0  0  0  0  0
  2  4  1  0
  2  1  1  1
  3  2  1  0
  4  5  2  0
  4 11  1  0
  7  6  1  0
  7  8  1  0
  8  9  1  0
 10  9  1  1
 10 12  1  0
 11 10  1  0
 12 19  1  0
 12 13  2  0
 14 15  1  0
 15 17  1  0
 16 15  2  0
 18 17  1  1
 18 20  1  0
 19 18  1  0
 20 21  1  0
 22 20  2  0
M  END
$$$$
