AMN.pdb
     RDKit          3D

 22 21  0  0  1  0  0  0  0  0999 V2000
    7.4483  -12.7432   19.7626 C   0  0  0  0  0  0  0  0  0  0  0  0
    7.6480  -14.1611   20.2473 C   0  0  2  0  0  0  0  0  0  0  0  0
    6.3736  -14.8411   20.1710 N   0  0  0  0  0  0  0  0  0  0  0  0
    8.2212  -14.2087   21.6149 C   0  0  0  0  0  0  0  0  0  0  0  0
    9.3880  -13.8026   21.8475 O   0  0  0  0  0  0  0  0  0  0  0  0
    6.5394  -10.9288   26.9082 C   0  0  0  0  0  0  0  0  0  0  0  0
    7.3483  -12.4974   26.4946 S   0  0  0  0  0  0  0  0  0  0  0  0
    6.2384  -13.4367   25.3745 C   0  0  0  0  0  0  0  0  0  0  0  0
    6.9267  -14.7578   25.1214 C   0  0  0  0  0  0  0  0  0  0  0  0
    8.0212  -14.6620   24.0824 C   0  0  2  0  0  0  0  0  0  0  0  0
    7.4948  -14.7106   22.7358 N   0  0  0  0  0  0  0  0  0  0  0  0
    8.8839  -15.8550   24.2688 C   0  0  0  0  0  0  0  0  0  0  0  0
    8.3964  -16.9986   24.0951 O   0  0  0  0  0  0  0  0  0  0  0  0
   13.9821  -18.2820   23.1815 N   0  0  0  0  0  0  0  0  0  0  0  0
   13.4099  -17.7828   24.3842 C   0  0  0  0  0  0  0  0  0  0  0  0
   13.7231  -18.3731   25.4489 O   0  0  0  0  0  0  0  0  0  0  0  0
   12.5101  -16.6313   24.2826 C   0  0  0  0  0  0  0  0  0  0  0  0
   11.0776  -16.9452   24.6497 C   0  0  2  0  0  0  0  0  0  0  0  0
   10.2530  -15.7583   24.6398 N   0  0  0  0  0  0  0  0  0  0  0  0
   10.9464  -17.6120   25.9418 C   0  0  0  0  0  0  0  0  0  0  0  0
   10.6927  -16.8861   27.0923 O   0  0  0  0  0  0  0  0  0  0  0  0
   11.0577  -18.8579   26.0580 O   0  0  0  0  0  0  0  0  0  0  0  0
  2  4  1  0
  2  1  1  1
  3  2  1  0
  4  5  2  0
  4 11  1  0
  7  6  1  0
  7  8  1  0
  8  9  1  0
 10  9  1  1
 10 12  1  0
 11 10  1  0
 12 19  1  0
 12 13  2  0
 14 15  1  0
 15 17  1  0
 16 15  2  0
 18 17  1  1
 18 20  1  0
 19 18  1  0
 20 21  1  0
 22 20  2  0
M  END
$$$$
