AMN.pdb
     RDKit          3D

 22 21  0  0  1  0  0  0  0  0999 V2000
    6.4196  -19.8506   22.4392 C   0  0  0  0  0  0  0  0  0  0  0  0
    5.9580  -18.5238   21.8805 C   0  0  2  0  0  0  0  0  0  0  0  0
    5.9748  -18.6187   20.4373 N   0  0  0  0  0  0  0  0  0  0  0  0
    6.7833  -17.3931   22.3719 C   0  0  0  0  0  0  0  0  0  0  0  0
    7.7697  -16.9722   21.7158 O   0  0  0  0  0  0  0  0  0  0  0  0
    7.2264  -11.1758   27.2244 C   0  0  0  0  0  0  0  0  0  0  0  0
    6.3803  -12.7199   26.7930 S   0  0  0  0  0  0  0  0  0  0  0  0
    7.4658  -13.6707   25.6588 C   0  0  0  0  0  0  0  0  0  0  0  0
    6.6130  -14.7916   25.1118 C   0  0  0  0  0  0  0  0  0  0  0  0
    7.3360  -15.6344   24.0853 C   0  0  2  0  0  0  0  0  0  0  0  0
    6.5134  -16.7219   23.6017 N   0  0  0  0  0  0  0  0  0  0  0  0
    8.5044  -16.2315   24.7786 C   0  0  0  0  0  0  0  0  0  0  0  0
    8.3524  -17.2874   25.4401 O   0  0  0  0  0  0  0  0  0  0  0  0
   13.3098  -17.9204   24.9491 N   0  0  0  0  0  0  0  0  0  0  0  0
   13.3135  -16.8178   24.0507 C   0  0  0  0  0  0  0  0  0  0  0  0
   14.3481  -16.6565   23.3550 O   0  0  0  0  0  0  0  0  0  0  0  0
   12.1206  -15.9684   24.0113 C   0  0  0  0  0  0  0  0  0  0  0  0
   10.9682  -16.5008   24.8323 C   0  0  2  0  0  0  0  0  0  0  0  0
    9.8023  -15.6534   24.7259 N   0  0  0  0  0  0  0  0  0  0  0  0
   11.3016  -16.6864   26.2415 C   0  0  0  0  0  0  0  0  0  0  0  0
   10.6162  -16.0010   27.2291 O   0  0  0  0  0  0  0  0  0  0  0  0
   12.2145  -17.4676   26.6083 O   0  0  0  0  0  0  0  0  0  0  0  0
  2  4  1  0
  2  1  1  1
  3  2  1  0
  4  5  2  0
  4 11  1  0
  7  6  1  0
  7  8  1  0
  8  9  1  0
 10  9  1  1
 10 12  1  0
 11 10  1  0
 12 19  1  0
 12 13  2  0
 14 15  1  0
 15 17  1  0
 16 15  2  0
 18 17  1  6
 18 20  1  0
 19 18  1  0
 20 21  1  0
 22 20  2  0
M  END
$$$$
