AMN.pdb
     RDKit          3D

 22 21  0  0  1  0  0  0  0  0999 V2000
    7.7315  -17.2287   20.1228 C   0  0  0  0  0  0  0  0  0  0  0  0
    7.9709  -15.7440   20.2775 C   0  0  2  0  0  0  0  0  0  0  0  0
    8.9426  -15.3441   19.2836 N   0  0  0  0  0  0  0  0  0  0  0  0
    8.4037  -15.3880   21.6512 C   0  0  0  0  0  0  0  0  0  0  0  0
    9.6197  -15.2410   21.9345 O   0  0  0  0  0  0  0  0  0  0  0  0
    7.8664  -11.4214   27.7141 C   0  0  0  0  0  0  0  0  0  0  0  0
    7.4487  -12.1022   26.0868 S   0  0  0  0  0  0  0  0  0  0  0  0
    7.1396  -13.9010   26.2803 C   0  0  0  0  0  0  0  0  0  0  0  0
    6.7240  -14.3992   24.9157 C   0  0  0  0  0  0  0  0  0  0  0  0
    7.9007  -14.7500   24.0333 C   0  0  2  0  0  0  0  0  0  0  0  0
    7.4805  -15.1926   22.7216 N   0  0  0  0  0  0  0  0  0  0  0  0
    8.5935  -15.8872   24.6884 C   0  0  0  0  0  0  0  0  0  0  0  0
    7.9826  -16.9731   24.8409 O   0  0  0  0  0  0  0  0  0  0  0  0
   12.2759  -17.4479   23.2079 N   0  0  0  0  0  0  0  0  0  0  0  0
   12.5585  -16.5366   24.2627 C   0  0  0  0  0  0  0  0  0  0  0  0
   13.2004  -15.4993   23.9593 O   0  0  0  0  0  0  0  0  0  0  0  0
   12.0816  -16.8803   25.6046 C   0  0  0  0  0  0  0  0  0  0  0  0
   10.5762  -16.9693   25.7102 C   0  0  2  0  0  0  0  0  0  0  0  0
    9.9334  -15.7995   25.1561 N   0  0  0  0  0  0  0  0  0  0  0  0
   10.1052  -17.1758   27.0766 C   0  0  0  0  0  0  0  0  0  0  0  0
   10.4164  -18.3340   27.7670 O   0  0  0  0  0  0  0  0  0  0  0  0
    9.4062  -16.3187   27.6724 O   0  0  0  0  0  0  0  0  0  0  0  0
  2  4  1  0
  2  1  1  1
  3  2  1  0
  4  5  2  0
  4 11  1  0
  7  6  1  0
  7  8  1  0
  8  9  1  0
 10  9  1  1
 10 12  1  0
 11 10  1  0
 12 19  1  0
 12 13  2  0
 14 15  1  0
 15 17  1  0
 16 15  2  0
 18 17  1  1
 18 20  1  0
 19 18  1  0
 20 21  1  0
 22 20  2  0
M  END
$$$$
