AMN.pdb
     RDKit          3D

 22 21  0  0  1  0  0  0  0  0999 V2000
    7.4131  -12.8789   19.2779 C   0  0  0  0  0  0  0  0  0  0  0  0
    7.5891  -14.2454   19.8999 C   0  0  2  0  0  0  0  0  0  0  0  0
    6.2858  -14.8673   19.9839 N   0  0  0  0  0  0  0  0  0  0  0  0
    8.2566  -14.1754   21.2230 C   0  0  0  0  0  0  0  0  0  0  0  0
    9.4715  -13.8686   21.3252 O   0  0  0  0  0  0  0  0  0  0  0  0
    7.1883  -11.2492   27.3067 C   0  0  0  0  0  0  0  0  0  0  0  0
    6.0229  -12.4166   26.5550 S   0  0  0  0  0  0  0  0  0  0  0  0
    6.5656  -12.7381   24.8313 C   0  0  0  0  0  0  0  0  0  0  0  0
    7.1993  -14.1097   24.8456 C   0  0  0  0  0  0  0  0  0  0  0  0
    8.2083  -14.3037   23.7361 C   0  0  2  0  0  0  0  0  0  0  0  0
    7.5718  -14.4476   22.4449 N   0  0  0  0  0  0  0  0  0  0  0  0
    8.9171  -15.5741   24.0294 C   0  0  0  0  0  0  0  0  0  0  0  0
    8.3454  -16.6658   23.7903 O   0  0  0  0  0  0  0  0  0  0  0  0
   13.3876  -18.5736   22.8368 N   0  0  0  0  0  0  0  0  0  0  0  0
   13.2096  -17.8369   24.0403 C   0  0  0  0  0  0  0  0  0  0  0  0
   13.7919  -18.2749   25.0647 O   0  0  0  0  0  0  0  0  0  0  0  0
   12.3690  -16.6383   23.9861 C   0  0  0  0  0  0  0  0  0  0  0  0
   10.9819  -16.8429   24.5514 C   0  0  2  0  0  0  0  0  0  0  0  0
   10.2294  -15.6092   24.5754 N   0  0  0  0  0  0  0  0  0  0  0  0
   10.9848  -17.4312   25.8876 C   0  0  0  0  0  0  0  0  0  0  0  0
   11.1952  -18.7873   26.0653 O   0  0  0  0  0  0  0  0  0  0  0  0
   10.7982  -16.7361   26.9173 O   0  0  0  0  0  0  0  0  0  0  0  0
  2  4  1  0
  2  1  1  1
  3  2  1  0
  4  5  2  0
  4 11  1  0
  7  6  1  0
  7  8  1  0
  8  9  1  0
 10  9  1  1
 10 12  1  0
 11 10  1  0
 12 19  1  0
 12 13  2  0
 14 15  1  0
 15 17  1  0
 16 15  2  0
 18 17  1  1
 18 20  1  0
 19 18  1  0
 20 21  1  0
 22 20  2  0
M  END
$$$$
