AMN.pdb
     RDKit          3D

 22 21  0  0  1  0  0  0  0  0999 V2000
    7.6533  -13.9015   19.0825 C   0  0  0  0  0  0  0  0  0  0  0  0
    7.9491  -15.1093   19.9421 C   0  0  2  0  0  0  0  0  0  0  0  0
    6.7380  -15.8944   20.0382 N   0  0  0  0  0  0  0  0  0  0  0  0
    8.4719  -14.7301   21.2778 C   0  0  0  0  0  0  0  0  0  0  0  0
    9.6354  -14.2750   21.4176 O   0  0  0  0  0  0  0  0  0  0  0  0
    6.9473  -11.4618   28.0982 C   0  0  0  0  0  0  0  0  0  0  0  0
    6.2651  -12.4411   26.7338 S   0  0  0  0  0  0  0  0  0  0  0  0
    7.6320  -13.4103   25.9846 C   0  0  0  0  0  0  0  0  0  0  0  0
    7.1157  -13.8901   24.6481 C   0  0  0  0  0  0  0  0  0  0  0  0
    8.2046  -14.4574   23.7654 C   0  0  2  0  0  0  0  0  0  0  0  0
    7.6983  -14.8560   22.4701 N   0  0  0  0  0  0  0  0  0  0  0  0
    8.7041  -15.6782   24.4455 C   0  0  0  0  0  0  0  0  0  0  0  0
    7.9616  -16.6876   24.5191 O   0  0  0  0  0  0  0  0  0  0  0  0
   11.9803  -16.9214   22.7565 N   0  0  0  0  0  0  0  0  0  0  0  0
   12.3851  -16.4862   24.0486 C   0  0  0  0  0  0  0  0  0  0  0  0
   13.1149  -15.4640   24.0999 O   0  0  0  0  0  0  0  0  0  0  0  0
   11.9214  -17.2596   25.2032 C   0  0  0  0  0  0  0  0  0  0  0  0
   10.4728  -17.0123   25.5580 C   0  0  2  0  0  0  0  0  0  0  0  0
   10.0007  -15.7552   25.0236 N   0  0  0  0  0  0  0  0  0  0  0  0
   10.2163  -17.0517   26.9947 C   0  0  0  0  0  0  0  0  0  0  0  0
   10.3977  -18.2184   27.7161 O   0  0  0  0  0  0  0  0  0  0  0  0
    9.8246  -16.0380   27.6251 O   0  0  0  0  0  0  0  0  0  0  0  0
  2  4  1  0
  2  1  1  6
  3  2  1  0
  4  5  2  0
  4 11  1  0
  7  6  1  0
  7  8  1  0
  8  9  1  0
 10  9  1  1
 10 12  1  0
 11 10  1  0
 12 19  1  0
 12 13  2  0
 14 15  1  0
 15 17  1  0
 16 15  2  0
 18 17  1  1
 18 20  1  0
 19 18  1  0
 20 21  1  0
 22 20  2  0
M  END
$$$$
