AMN.pdb
     RDKit          3D

 22 21  0  0  1  0  0  0  0  0999 V2000
    7.6617  -12.6635   19.6858 C   0  0  0  0  0  0  0  0  0  0  0  0
    7.8764  -14.1003   20.1039 C   0  0  2  0  0  0  0  0  0  0  0  0
    6.6000  -14.7779   20.0395 N   0  0  0  0  0  0  0  0  0  0  0  0
    8.4926  -14.2047   21.4494 C   0  0  0  0  0  0  0  0  0  0  0  0
    9.7043  -13.9258   21.6353 O   0  0  0  0  0  0  0  0  0  0  0  0
    5.9798  -10.9853   27.2744 C   0  0  0  0  0  0  0  0  0  0  0  0
    6.3501  -12.7272   26.9358 S   0  0  0  0  0  0  0  0  0  0  0  0
    6.9234  -12.8638   25.1975 C   0  0  0  0  0  0  0  0  0  0  0  0
    7.2377  -14.3255   24.9786 C   0  0  0  0  0  0  0  0  0  0  0  0
    8.3103  -14.5474   23.9361 C   0  0  2  0  0  0  0  0  0  0  0  0
    7.7596  -14.6218   22.6004 N   0  0  0  0  0  0  0  0  0  0  0  0
    8.9264  -15.8628   24.2399 C   0  0  0  0  0  0  0  0  0  0  0  0
    8.2518  -16.9090   24.0784 O   0  0  0  0  0  0  0  0  0  0  0  0
   11.6437  -18.1327   22.1728 N   0  0  0  0  0  0  0  0  0  0  0  0
   12.2963  -17.2345   23.0618 C   0  0  0  0  0  0  0  0  0  0  0  0
   12.9272  -16.2798   22.5414 O   0  0  0  0  0  0  0  0  0  0  0  0
   12.1797  -17.4948   24.4987 C   0  0  0  0  0  0  0  0  0  0  0  0
   10.7820  -17.2989   25.0403 C   0  0  2  0  0  0  0  0  0  0  0  0
   10.2617  -15.9913   24.7111 N   0  0  0  0  0  0  0  0  0  0  0  0
   10.6883  -17.5053   26.4826 C   0  0  0  0  0  0  0  0  0  0  0  0
   10.5440  -16.4327   27.3449 O   0  0  0  0  0  0  0  0  0  0  0  0
   10.7347  -18.6530   26.9913 O   0  0  0  0  0  0  0  0  0  0  0  0
  2  4  1  0
  2  1  1  1
  3  2  1  0
  4  5  2  0
  4 11  1  0
  7  6  1  0
  7  8  1  0
  8  9  1  0
 10  9  1  1
 10 12  1  0
 11 10  1  0
 12 19  1  0
 12 13  2  0
 14 15  1  0
 15 17  1  0
 16 15  2  0
 18 17  1  1
 18 20  1  0
 19 18  1  0
 20 21  1  0
 22 20  2  0
M  END
$$$$
