AMN.pdb
     RDKit          3D

 22 21  0  0  1  0  0  0  0  0999 V2000
    8.0351  -17.9171   20.4091 C   0  0  0  0  0  0  0  0  0  0  0  0
    8.1177  -16.4086   20.3548 C   0  0  2  0  0  0  0  0  0  0  0  0
    8.9262  -16.0482   19.2108 N   0  0  0  0  0  0  0  0  0  0  0  0
    8.6502  -15.8324   21.6141 C   0  0  0  0  0  0  0  0  0  0  0  0
    9.8863  -15.6930   21.7961 O   0  0  0  0  0  0  0  0  0  0  0  0
    6.8554  -11.5107   28.0195 C   0  0  0  0  0  0  0  0  0  0  0  0
    6.2826  -12.5276   26.6324 S   0  0  0  0  0  0  0  0  0  0  0  0
    7.7479  -13.3120   25.8535 C   0  0  0  0  0  0  0  0  0  0  0  0
    7.2264  -14.0581   24.6475 C   0  0  0  0  0  0  0  0  0  0  0  0
    8.3216  -14.7363   23.8557 C   0  0  2  0  0  0  0  0  0  0  0  0
    7.8052  -15.4063   22.6820 N   0  0  0  0  0  0  0  0  0  0  0  0
    8.9022  -15.7737   24.7439 C   0  0  0  0  0  0  0  0  0  0  0  0
    8.2691  -16.8400   24.9386 O   0  0  0  0  0  0  0  0  0  0  0  0
   13.1626  -15.7990   23.8630 N   0  0  0  0  0  0  0  0  0  0  0  0
   12.5172  -16.9302   24.4345 C   0  0  0  0  0  0  0  0  0  0  0  0
   12.2713  -17.8924   23.6638 O   0  0  0  0  0  0  0  0  0  0  0  0
   12.1951  -16.8801   25.8628 C   0  0  0  0  0  0  0  0  0  0  0  0
   10.7205  -16.7063   26.1474 C   0  0  2  0  0  0  0  0  0  0  0  0
   10.1577  -15.6109   25.3910 N   0  0  0  0  0  0  0  0  0  0  0  0
   10.4255  -16.5149   27.5644 C   0  0  0  0  0  0  0  0  0  0  0  0
    9.6461  -15.4535   27.9897 O   0  0  0  0  0  0  0  0  0  0  0  0
   10.8635  -17.2982   28.4434 O   0  0  0  0  0  0  0  0  0  0  0  0
  2  4  1  0
  2  1  1  1
  3  2  1  0
  4  5  2  0
  4 11  1  0
  7  6  1  0
  7  8  1  0
  8  9  1  0
 10  9  1  1
 10 12  1  0
 11 10  1  0
 12 19  1  0
 12 13  2  0
 14 15  1  0
 15 17  1  0
 16 15  2  0
 18 17  1  1
 18 20  1  0
 19 18  1  0
 20 21  1  0
 22 20  2  0
M  END
$$$$
