AMN.pdb
     RDKit          3D

 22 21  0  0  1  0  0  0  0  0999 V2000
    7.3603  -15.4319   18.9850 C   0  0  0  0  0  0  0  0  0  0  0  0
    7.2823  -14.0194   19.5182 C   0  0  2  0  0  0  0  0  0  0  0  0
    7.8758  -13.1395   18.5355 N   0  0  0  0  0  0  0  0  0  0  0  0
    7.9314  -13.8866   20.8457 C   0  0  0  0  0  0  0  0  0  0  0  0
    9.1565  -13.6241   20.9494 O   0  0  0  0  0  0  0  0  0  0  0  0
    6.8407  -11.9103   28.3689 C   0  0  0  0  0  0  0  0  0  0  0  0
    6.1063  -12.4453   26.8003 S   0  0  0  0  0  0  0  0  0  0  0  0
    7.4359  -13.1697   25.7627 C   0  0  0  0  0  0  0  0  0  0  0  0
    6.8170  -13.4117   24.4057 C   0  0  0  0  0  0  0  0  0  0  0  0
    7.8312  -13.8158   23.3595 C   0  0  2  0  0  0  0  0  0  0  0  0
    7.2165  -14.0459   22.0703 N   0  0  0  0  0  0  0  0  0  0  0  0
    8.4138  -15.1031   23.8134 C   0  0  0  0  0  0  0  0  0  0  0  0
    7.7654  -16.1644   23.6437 O   0  0  0  0  0  0  0  0  0  0  0  0
   11.6158  -18.8668   24.8821 N   0  0  0  0  0  0  0  0  0  0  0  0
   12.4015  -17.7900   24.3861 C   0  0  0  0  0  0  0  0  0  0  0  0
   13.6017  -18.0433   24.1111 O   0  0  0  0  0  0  0  0  0  0  0  0
   11.7516  -16.4855   24.2381 C   0  0  0  0  0  0  0  0  0  0  0  0
   10.2971  -16.4809   24.6503 C   0  0  2  0  0  0  0  0  0  0  0  0
    9.6878  -15.1875   24.4389 N   0  0  0  0  0  0  0  0  0  0  0  0
   10.0893  -16.8905   26.0361 C   0  0  0  0  0  0  0  0  0  0  0  0
   10.2342  -15.9854   27.0728 O   0  0  0  0  0  0  0  0  0  0  0  0
    9.7742  -18.0686   26.3380 O   0  0  0  0  0  0  0  0  0  0  0  0
  2  4  1  0
  2  1  1  6
  3  2  1  0
  4  5  2  0
  4 11  1  0
  7  6  1  0
  7  8  1  0
  8  9  1  0
 10  9  1  1
 10 12  1  0
 11 10  1  0
 12 19  1  0
 12 13  2  0
 14 15  1  0
 15 17  1  0
 16 15  2  0
 18 17  1  1
 18 20  1  0
 19 18  1  0
 20 21  1  0
 22 20  2  0
M  END
$$$$
