AMN.pdb
     RDKit          3D

 22 21  0  0  1  0  0  0  0  0999 V2000
    7.9250  -14.4885   19.0742 C   0  0  0  0  0  0  0  0  0  0  0  0
    8.0565  -15.6224   20.0653 C   0  0  2  0  0  0  0  0  0  0  0  0
    6.7596  -16.2486   20.1997 N   0  0  0  0  0  0  0  0  0  0  0  0
    8.5892  -15.1637   21.3718 C   0  0  0  0  0  0  0  0  0  0  0  0
    9.7829  -14.7889   21.4942 O   0  0  0  0  0  0  0  0  0  0  0  0
    6.8639  -11.4153   28.0127 C   0  0  0  0  0  0  0  0  0  0  0  0
    6.2701  -12.3917   26.6056 S   0  0  0  0  0  0  0  0  0  0  0  0
    7.7029  -13.2787   25.8782 C   0  0  0  0  0  0  0  0  0  0  0  0
    7.1946  -13.9124   24.6042 C   0  0  0  0  0  0  0  0  0  0  0  0
    8.2884  -14.5801   23.8014 C   0  0  2  0  0  0  0  0  0  0  0  0
    7.7918  -15.1196   22.5543 N   0  0  0  0  0  0  0  0  0  0  0  0
    8.7751  -15.7188   24.6191 C   0  0  0  0  0  0  0  0  0  0  0  0
    7.9589  -16.5909   25.0051 O   0  0  0  0  0  0  0  0  0  0  0  0
   11.6966  -17.9681   22.8029 N   0  0  0  0  0  0  0  0  0  0  0  0
   12.2478  -17.1474   23.8254 C   0  0  0  0  0  0  0  0  0  0  0  0
   12.9549  -16.1767   23.4539 O   0  0  0  0  0  0  0  0  0  0  0  0
   11.9479  -17.4990   25.2156 C   0  0  0  0  0  0  0  0  0  0  0  0
   10.5717  -17.0669   25.6683 C   0  0  2  0  0  0  0  0  0  0  0  0
   10.1400  -15.8666   24.9887 N   0  0  0  0  0  0  0  0  0  0  0  0
   10.4766  -16.8641   27.1110 C   0  0  0  0  0  0  0  0  0  0  0  0
   10.1838  -15.6171   27.6344 O   0  0  0  0  0  0  0  0  0  0  0  0
   10.6553  -17.8044   27.9247 O   0  0  0  0  0  0  0  0  0  0  0  0
  2  4  1  0
  2  1  1  6
  3  2  1  0
  4  5  2  0
  4 11  1  0
  7  6  1  0
  7  8  1  0
  8  9  1  0
 10  9  1  1
 10 12  1  0
 11 10  1  0
 12 19  1  0
 12 13  2  0
 14 15  1  0
 15 17  1  0
 16 15  2  0
 18 17  1  1
 18 20  1  0
 19 18  1  0
 20 21  1  0
 22 20  2  0
M  END
$$$$
