AMN.pdb
     RDKit          3D

 22 21  0  0  1  0  0  0  0  0999 V2000
    6.9271  -17.3739   19.8193 C   0  0  0  0  0  0  0  0  0  0  0  0
    7.0433  -15.8666   19.8169 C   0  0  2  0  0  0  0  0  0  0  0  0
    7.6725  -15.4708   18.5761 N   0  0  0  0  0  0  0  0  0  0  0  0
    7.7826  -15.3612   20.9997 C   0  0  0  0  0  0  0  0  0  0  0  0
    9.0304  -15.2105   20.9735 O   0  0  0  0  0  0  0  0  0  0  0  0
    7.1277  -11.5227   27.9108 C   0  0  0  0  0  0  0  0  0  0  0  0
    6.3170  -12.3935   26.5432 S   0  0  0  0  0  0  0  0  0  0  0  0
    7.6165  -13.1881   25.5191 C   0  0  0  0  0  0  0  0  0  0  0  0
    6.9011  -13.7775   24.3259 C   0  0  0  0  0  0  0  0  0  0  0  0
    7.8429  -14.4222   23.3340 C   0  0  2  0  0  0  0  0  0  0  0  0
    7.1334  -15.0192   22.2235 N   0  0  0  0  0  0  0  0  0  0  0  0
    8.5363  -15.5145   24.0609 C   0  0  0  0  0  0  0  0  0  0  0  0
    7.9495  -16.6119   24.2257 O   0  0  0  0  0  0  0  0  0  0  0  0
   12.6698  -18.8221   24.3981 N   0  0  0  0  0  0  0  0  0  0  0  0
   12.8401  -17.5939   25.0947 C   0  0  0  0  0  0  0  0  0  0  0  0
   13.6640  -17.5899   26.0441 O   0  0  0  0  0  0  0  0  0  0  0  0
   12.0472  -16.4446   24.6512 C   0  0  0  0  0  0  0  0  0  0  0  0
   10.5824  -16.5412   25.0124 C   0  0  2  0  0  0  0  0  0  0  0  0
    9.8503  -15.3708   24.5847 N   0  0  0  0  0  0  0  0  0  0  0  0
   10.3532  -16.7584   26.4378 C   0  0  0  0  0  0  0  0  0  0  0  0
    9.7147  -17.9007   26.8877 O   0  0  0  0  0  0  0  0  0  0  0  0
   10.7228  -15.9251   27.3022 O   0  0  0  0  0  0  0  0  0  0  0  0
  2  4  1  0
  2  1  1  1
  3  2  1  0
  4  5  2  0
  4 11  1  0
  7  6  1  0
  7  8  1  0
  8  9  1  0
 10  9  1  1
 10 12  1  0
 11 10  1  0
 12 19  1  0
 12 13  2  0
 14 15  1  0
 15 17  1  0
 16 15  2  0
 18 17  1  1
 18 20  1  0
 19 18  1  0
 20 21  1  0
 22 20  2  0
M  END
$$$$
