AMN.pdb
     RDKit          3D

 22 21  0  0  1  0  0  0  0  0999 V2000
    7.2861  -14.7893   19.4929 C   0  0  0  0  0  0  0  0  0  0  0  0
    7.4481  -13.5031   20.2706 C   0  0  2  0  0  0  0  0  0  0  0  0
    8.3249  -12.6345   19.5163 N   0  0  0  0  0  0  0  0  0  0  0  0
    7.9517  -13.7411   21.6457 C   0  0  0  0  0  0  0  0  0  0  0  0
    9.1840  -13.7698   21.8932 O   0  0  0  0  0  0  0  0  0  0  0  0
    7.5941  -11.9512   28.0033 C   0  0  0  0  0  0  0  0  0  0  0  0
    7.6665  -11.8863   26.1932 S   0  0  0  0  0  0  0  0  0  0  0  0
    6.1173  -12.6148   25.5312 C   0  0  0  0  0  0  0  0  0  0  0  0
    6.4634  -14.0298   25.1297 C   0  0  0  0  0  0  0  0  0  0  0  0
    7.5770  -14.0966   24.1090 C   0  0  2  0  0  0  0  0  0  0  0  0
    7.0820  -13.9493   22.7576 N   0  0  0  0  0  0  0  0  0  0  0  0
    8.1711  -15.4517   24.2225 C   0  0  0  0  0  0  0  0  0  0  0  0
    7.5346  -16.4402   23.7827 O   0  0  0  0  0  0  0  0  0  0  0  0
   12.2210  -18.9467   22.7125 N   0  0  0  0  0  0  0  0  0  0  0  0
   12.0178  -18.2801   23.9524 C   0  0  0  0  0  0  0  0  0  0  0  0
   12.4710  -18.8439   24.9804 O   0  0  0  0  0  0  0  0  0  0  0  0
   11.3027  -17.0017   23.9282 C   0  0  0  0  0  0  0  0  0  0  0  0
   10.0344  -16.9992   24.7509 C   0  0  2  0  0  0  0  0  0  0  0  0
    9.4433  -15.6819   24.8142 N   0  0  0  0  0  0  0  0  0  0  0  0
   10.2255  -17.5069   26.1064 C   0  0  0  0  0  0  0  0  0  0  0  0
   10.3516  -16.6400   27.1775 O   0  0  0  0  0  0  0  0  0  0  0  0
   10.2823  -18.7380   26.3501 O   0  0  0  0  0  0  0  0  0  0  0  0
  2  4  1  0
  2  1  1  6
  3  2  1  0
  4  5  2  0
  4 11  1  0
  7  6  1  0
  7  8  1  0
  8  9  1  0
 10  9  1  1
 10 12  1  0
 11 10  1  0
 12 19  1  0
 12 13  2  0
 14 15  1  0
 15 17  1  0
 16 15  2  0
 18 17  1  1
 18 20  1  0
 19 18  1  0
 20 21  1  0
 22 20  2  0
M  END
$$$$
