AMN.pdb
     RDKit          3D

 22 21  0  0  1  0  0  0  0  0999 V2000
    7.5877  -13.4386   19.0604 C   0  0  0  0  0  0  0  0  0  0  0  0
    8.0430  -14.6758   19.8001 C   0  0  2  0  0  0  0  0  0  0  0  0
    6.9358  -15.6059   19.8354 N   0  0  0  0  0  0  0  0  0  0  0  0
    8.5463  -14.3606   21.1597 C   0  0  0  0  0  0  0  0  0  0  0  0
    9.6163  -13.7224   21.3274 O   0  0  0  0  0  0  0  0  0  0  0  0
    6.7694  -11.7798   28.1812 C   0  0  0  0  0  0  0  0  0  0  0  0
    6.2284  -12.4832   26.6005 S   0  0  0  0  0  0  0  0  0  0  0  0
    7.6043  -13.4897   25.9204 C   0  0  0  0  0  0  0  0  0  0  0  0
    7.1572  -13.9270   24.5449 C   0  0  0  0  0  0  0  0  0  0  0  0
    8.3053  -14.3678   23.6650 C   0  0  2  0  0  0  0  0  0  0  0  0
    7.8574  -14.7559   22.3452 N   0  0  0  0  0  0  0  0  0  0  0  0
    8.8921  -15.5689   24.3093 C   0  0  0  0  0  0  0  0  0  0  0  0
    8.2588  -16.6523   24.2813 O   0  0  0  0  0  0  0  0  0  0  0  0
   13.7052  -15.7255   23.6531 N   0  0  0  0  0  0  0  0  0  0  0  0
   12.6644  -16.6580   23.9178 C   0  0  0  0  0  0  0  0  0  0  0  0
   12.2017  -17.2863   22.9323 O   0  0  0  0  0  0  0  0  0  0  0  0
   12.2218  -16.8073   25.3063 C   0  0  0  0  0  0  0  0  0  0  0  0
   10.7194  -16.7752   25.4720 C   0  0  2  0  0  0  0  0  0  0  0  0
   10.1539  -15.5459   24.9643 N   0  0  0  0  0  0  0  0  0  0  0  0
   10.2873  -16.9699   26.8529 C   0  0  0  0  0  0  0  0  0  0  0  0
   11.0445  -16.4909   27.9074 O   0  0  0  0  0  0  0  0  0  0  0  0
    9.2223  -17.5738   27.1342 O   0  0  0  0  0  0  0  0  0  0  0  0
  2  4  1  0
  2  1  1  1
  3  2  1  0
  4  5  2  0
  4 11  1  0
  7  6  1  0
  7  8  1  0
  8  9  1  0
 10  9  1  1
 10 12  1  0
 11 10  1  0
 12 19  1  0
 12 13  2  0
 14 15  1  0
 15 17  1  0
 16 15  2  0
 18 17  1  1
 18 20  1  0
 19 18  1  0
 20 21  1  0
 22 20  2  0
M  END
$$$$
