AMN.pdb
     RDKit          3D

 22 21  0  0  1  0  0  0  0  0999 V2000
    7.1888  -15.0864   19.5348 C   0  0  0  0  0  0  0  0  0  0  0  0
    7.3687  -13.7062   20.1248 C   0  0  2  0  0  0  0  0  0  0  0  0
    8.1266  -12.9143   19.1811 N   0  0  0  0  0  0  0  0  0  0  0  0
    8.0159  -13.7489   21.4591 C   0  0  0  0  0  0  0  0  0  0  0  0
    9.2674  -13.7365   21.5777 O   0  0  0  0  0  0  0  0  0  0  0  0
    6.7918  -12.3576   27.8829 C   0  0  0  0  0  0  0  0  0  0  0  0
    6.9729  -11.1908   26.5075 S   0  0  0  0  0  0  0  0  0  0  0  0
    6.4492  -12.0372   24.9653 C   0  0  0  0  0  0  0  0  0  0  0  0
    6.9519  -13.4574   25.0810 C   0  0  0  0  0  0  0  0  0  0  0  0
    7.9077  -13.8360   23.9721 C   0  0  2  0  0  0  0  0  0  0  0  0
    7.2697  -13.8056   22.6740 N   0  0  0  0  0  0  0  0  0  0  0  0
    8.3224  -15.2366   24.2339 C   0  0  0  0  0  0  0  0  0  0  0  0
    7.5600  -16.1758   23.8987 O   0  0  0  0  0  0  0  0  0  0  0  0
   11.2288  -19.4351   23.0917 N   0  0  0  0  0  0  0  0  0  0  0  0
   11.8201  -18.3956   23.8616 C   0  0  0  0  0  0  0  0  0  0  0  0
   12.8507  -18.6917   24.5177 O   0  0  0  0  0  0  0  0  0  0  0  0
   11.1836  -17.0766   23.8263 C   0  0  0  0  0  0  0  0  0  0  0  0
   10.0442  -16.9252   24.8083 C   0  0  2  0  0  0  0  0  0  0  0  0
    9.5586  -15.5647   24.8549 N   0  0  0  0  0  0  0  0  0  0  0  0
   10.3856  -17.3612   26.1592 C   0  0  0  0  0  0  0  0  0  0  0  0
   10.8083  -16.4518   27.1127 O   0  0  0  0  0  0  0  0  0  0  0  0
   10.3097  -18.5667   26.5046 O   0  0  0  0  0  0  0  0  0  0  0  0
  2  4  1  0
  2  1  1  6
  3  2  1  0
  4  5  2  0
  4 11  1  0
  7  6  1  0
  7  8  1  0
  8  9  1  0
 10  9  1  1
 10 12  1  0
 11 10  1  0
 12 19  1  0
 12 13  2  0
 14 15  1  0
 15 17  1  0
 16 15  2  0
 18 17  1  6
 18 20  1  0
 19 18  1  0
 20 21  1  0
 22 20  2  0
M  END
$$$$
