PNT.pdb
     RDKit          3D

 23 23  0  0  1  0  0  0  0  0999 V2000
    8.9673  -14.8069   19.4334 N   0  0  0  0  0  0  0  0  0  0  0  0
    8.9522  -14.3057   18.0753 C   0  0  0  0  0  0  0  0  0  0  0  0
    7.5872  -13.6581   17.9906 C   0  0  0  0  0  0  0  0  0  0  0  0
    7.4808  -12.9607   19.3222 C   0  0  0  0  0  0  0  0  0  0  0  0
    8.5019  -13.6573   20.1795 C   0  0  1  0  0  0  0  0  0  0  0  0
    7.9958  -14.0952   21.4739 C   0  0  0  0  0  0  0  0  0  0  0  0
    7.4968  -13.2560   22.2637 O   0  0  0  0  0  0  0  0  0  0  0  0
    5.9504  -18.2119   24.7152 N   0  0  0  0  0  0  0  0  0  0  0  0
    7.3451  -17.8940   24.6505 C   0  0  0  0  0  0  0  0  0  0  0  0
    8.0344  -18.0995   25.6666 O   0  0  0  0  0  0  0  0  0  0  0  0
    7.8291  -17.3479   23.3691 C   0  0  0  0  0  0  0  0  0  0  0  0
    7.5304  -15.8727   23.2173 C   0  0  2  0  0  0  0  0  0  0  0  0
    8.0186  -15.4466   21.9400 N   0  0  0  0  0  0  0  0  0  0  0  0
    8.1459  -15.1832   24.3785 C   0  0  0  0  0  0  0  0  0  0  0  0
    9.3729  -14.9560   24.2834 O   0  0  0  0  0  0  0  0  0  0  0  0
    6.6564  -11.7972   25.8760 C   0  0  0  0  0  0  0  0  0  0  0  0
    6.9382  -12.8183   26.9280 C   0  0  1  0  0  0  0  0  0  0  0  0
    5.7257  -13.4164   27.2771 O   0  0  0  0  0  0  0  0  0  0  0  0
    7.9006  -13.8727   26.5135 C   0  0  2  0  0  0  0  0  0  0  0  0
    7.4288  -14.7958   25.5265 N   0  0  0  0  0  0  0  0  0  0  0  0
    8.5715  -14.5451   27.6584 C   0  0  0  0  0  0  0  0  0  0  0  0
    9.2282  -13.8820   28.6690 O   0  0  0  0  0  0  0  0  0  0  0  0
    8.5557  -15.8121   27.7445 O   0  0  0  0  0  0  0  0  0  0  0  0
  1  5  1  0
  1  2  1  0
  2  3  1  0
  4  3  1  0
  5  6  1  1
  5  4  1  0
  6 13  1  0
  7  6  2  0
  8  9  1  0
  9 11  1  0
 10  9  2  0
 12 11  1  1
 12 14  1  0
 13 12  1  0
 14 15  2  0
 14 20  1  0
 17 16  1  6
 17 18  1  0
 19 17  1  0
 19 21  1  0
 19 20  1  1
 21 22  1  0
 23 21  2  0
M  END
$$$$
