PNT.pdb
     RDKit          3D

 23 23  0  0  1  0  0  0  0  0999 V2000
    7.6303  -15.0466   18.8355 N   0  0  0  0  0  0  0  0  0  0  0  0
    7.6279  -14.0358   17.7990 C   0  0  0  0  0  0  0  0  0  0  0  0
    7.2997  -12.7814   18.5791 C   0  0  0  0  0  0  0  0  0  0  0  0
    8.1375  -12.9484   19.8205 C   0  0  0  0  0  0  0  0  0  0  0  0
    8.4410  -14.4212   19.8585 C   0  0  1  0  0  0  0  0  0  0  0  0
    8.1690  -15.0538   21.1427 C   0  0  0  0  0  0  0  0  0  0  0  0
    6.9844  -15.1610   21.5455 O   0  0  0  0  0  0  0  0  0  0  0  0
   10.8813  -18.7259   22.0428 N   0  0  0  0  0  0  0  0  0  0  0  0
    9.8254  -18.3678   22.9412 C   0  0  0  0  0  0  0  0  0  0  0  0
    8.8591  -19.1467   23.0403 O   0  0  0  0  0  0  0  0  0  0  0  0
    9.9925  -17.0954   23.6674 C   0  0  0  0  0  0  0  0  0  0  0  0
    8.9140  -16.0893   23.3308 C   0  0  2  0  0  0  0  0  0  0  0  0
    9.1700  -15.5822   22.0161 N   0  0  0  0  0  0  0  0  0  0  0  0
    8.9254  -15.0647   24.4044 C   0  0  0  0  0  0  0  0  0  0  0  0
    9.8832  -14.2597   24.3725 O   0  0  0  0  0  0  0  0  0  0  0  0
    6.5271  -11.9785   27.2434 C   0  0  0  0  0  0  0  0  0  0  0  0
    6.5162  -13.2619   26.4809 C   0  0  1  0  0  0  0  0  0  0  0  0
    6.0269  -12.9932   25.2011 O   0  0  0  0  0  0  0  0  0  0  0  0
    7.8463  -13.9160   26.3670 C   0  0  2  0  0  0  0  0  0  0  0  0
    7.9418  -14.9740   25.4077 N   0  0  0  0  0  0  0  0  0  0  0  0
    8.4451  -14.2729   27.6812 C   0  0  0  0  0  0  0  0  0  0  0  0
    8.6817  -13.3729   28.6942 O   0  0  0  0  0  0  0  0  0  0  0  0
    8.7691  -15.4771   27.9217 O   0  0  0  0  0  0  0  0  0  0  0  0
  1  5  1  0
  1  2  1  0
  2  3  1  0
  4  3  1  0
  5  6  1  1
  5  4  1  0
  6 13  1  0
  7  6  2  0
  8  9  1  0
  9 11  1  0
 10  9  2  0
 12 11  1  1
 12 14  1  0
 13 12  1  0
 14 15  2  0
 14 20  1  0
 17 16  1  1
 17 18  1  0
 19 17  1  0
 19 21  1  0
 19 20  1  6
 21 22  1  0
 23 21  2  0
M  END
$$$$
