PNT.pdb
     RDKit          3D

 23 23  0  0  1  0  0  0  0  0999 V2000
    7.4748  -15.0126   18.8320 N   0  0  0  0  0  0  0  0  0  0  0  0
    7.9017  -14.1289   17.7677 C   0  0  0  0  0  0  0  0  0  0  0  0
    7.8937  -12.7795   18.4523 C   0  0  0  0  0  0  0  0  0  0  0  0
    8.4943  -13.0994   19.7968 C   0  0  0  0  0  0  0  0  0  0  0  0
    8.3199  -14.5879   19.9276 C   0  0  1  0  0  0  0  0  0  0  0  0
    7.7236  -15.0105   21.1883 C   0  0  0  0  0  0  0  0  0  0  0  0
    6.5101  -14.7773   21.4121 O   0  0  0  0  0  0  0  0  0  0  0  0
    6.4854  -18.0062   25.3974 N   0  0  0  0  0  0  0  0  0  0  0  0
    7.8868  -17.7341   25.2850 C   0  0  0  0  0  0  0  0  0  0  0  0
    8.5824  -17.8408   26.3121 O   0  0  0  0  0  0  0  0  0  0  0  0
    8.3696  -17.3501   23.9457 C   0  0  0  0  0  0  0  0  0  0  0  0
    7.8779  -15.9838   23.5215 C   0  0  2  0  0  0  0  0  0  0  0  0
    8.4255  -15.6923   22.2306 N   0  0  0  0  0  0  0  0  0  0  0  0
    8.2673  -15.0308   24.5905 C   0  0  0  0  0  0  0  0  0  0  0  0
    9.4374  -14.5919   24.5228 O   0  0  0  0  0  0  0  0  0  0  0  0
    6.1530  -11.8006   25.8110 C   0  0  0  0  0  0  0  0  0  0  0  0
    6.5820  -12.6909   26.9298 C   0  0  1  0  0  0  0  0  0  0  0  0
    5.4756  -13.4478   27.3206 O   0  0  0  0  0  0  0  0  0  0  0  0
    7.7023  -13.6060   26.5871 C   0  0  2  0  0  0  0  0  0  0  0  0
    7.4050  -14.6249   25.6268 N   0  0  0  0  0  0  0  0  0  0  0  0
    8.4255  -14.1284   27.7776 C   0  0  0  0  0  0  0  0  0  0  0  0
    8.9431  -13.3381   28.7775 O   0  0  0  0  0  0  0  0  0  0  0  0
    8.5929  -15.3796   27.9163 O   0  0  0  0  0  0  0  0  0  0  0  0
  1  5  1  0
  1  2  1  0
  2  3  1  0
  4  3  1  0
  5  6  1  1
  5  4  1  0
  6 13  1  0
  7  6  2  0
  8  9  1  0
  9 11  1  0
 10  9  2  0
 12 11  1  1
 12 14  1  0
 13 12  1  0
 14 15  2  0
 14 20  1  0
 17 16  1  6
 17 18  1  0
 19 17  1  0
 19 21  1  0
 19 20  1  1
 21 22  1  0
 23 21  2  0
M  END
$$$$
