PNT.pdb
     RDKit          3D

 23 23  0  0  1  0  0  0  0  0999 V2000
    9.0078  -14.8970   19.3986 N   0  0  0  0  0  0  0  0  0  0  0  0
    9.0638  -14.3864   18.0450 C   0  0  0  0  0  0  0  0  0  0  0  0
    7.7218  -13.7009   17.9080 C   0  0  0  0  0  0  0  0  0  0  0  0
    7.5780  -13.0100   19.2395 C   0  0  0  0  0  0  0  0  0  0  0  0
    8.5426  -13.7402   20.1335 C   0  0  1  0  0  0  0  0  0  0  0  0
    7.9703  -14.1729   21.4018 C   0  0  0  0  0  0  0  0  0  0  0  0
    7.4103  -13.3346   22.1505 O   0  0  0  0  0  0  0  0  0  0  0  0
    5.7404  -18.3690   24.5002 N   0  0  0  0  0  0  0  0  0  0  0  0
    7.1144  -17.9675   24.5353 C   0  0  0  0  0  0  0  0  0  0  0  0
    7.7308  -18.1025   25.6085 O   0  0  0  0  0  0  0  0  0  0  0  0
    7.6668  -17.4275   23.2792 C   0  0  0  0  0  0  0  0  0  0  0  0
    7.4521  -15.9360   23.1449 C   0  0  2  0  0  0  0  0  0  0  0  0
    7.9917  -15.5181   21.8858 N   0  0  0  0  0  0  0  0  0  0  0  0
    8.0774  -15.2987   24.3304 C   0  0  0  0  0  0  0  0  0  0  0  0
    9.3287  -15.2764   24.3344 O   0  0  0  0  0  0  0  0  0  0  0  0
    7.0308  -11.6761   25.7279 C   0  0  0  0  0  0  0  0  0  0  0  0
    7.0950  -12.7198   26.7933 C   0  0  1  0  0  0  0  0  0  0  0  0
    5.7872  -13.1134   27.0839 O   0  0  0  0  0  0  0  0  0  0  0  0
    7.8949  -13.9181   26.4271 C   0  0  2  0  0  0  0  0  0  0  0  0
    7.3441  -14.7459   25.3976 N   0  0  0  0  0  0  0  0  0  0  0  0
    8.3666  -14.6972   27.6034 C   0  0  0  0  0  0  0  0  0  0  0  0
    9.1056  -14.1687   28.6362 O   0  0  0  0  0  0  0  0  0  0  0  0
    8.0860  -15.9322   27.6969 O   0  0  0  0  0  0  0  0  0  0  0  0
  1  5  1  0
  1  2  1  0
  2  3  1  0
  4  3  1  0
  5  6  1  1
  5  4  1  0
  6 13  1  0
  7  6  2  0
  8  9  1  0
  9 11  1  0
 10  9  2  0
 12 11  1  1
 12 14  1  0
 13 12  1  0
 14 15  2  0
 14 20  1  0
 17 16  1  6
 17 18  1  0
 19 17  1  0
 19 21  1  0
 19 20  1  6
 21 22  1  0
 23 21  2  0
M  END
$$$$
