PNT.pdb
     RDKit          3D

 23 23  0  0  1  0  0  0  0  0999 V2000
    8.6805  -15.0335   19.3902 N   0  0  0  0  0  0  0  0  0  0  0  0
    8.7351  -14.4720   18.0568 C   0  0  0  0  0  0  0  0  0  0  0  0
    7.4952  -13.6052   18.0259 C   0  0  0  0  0  0  0  0  0  0  0  0
    7.5186  -12.9646   19.3897 C   0  0  0  0  0  0  0  0  0  0  0  0
    8.4190  -13.8601   20.1961 C   0  0  1  0  0  0  0  0  0  0  0  0
    7.8601  -14.2704   21.4778 C   0  0  0  0  0  0  0  0  0  0  0  0
    7.2645  -13.4292   22.1953 O   0  0  0  0  0  0  0  0  0  0  0  0
    5.8466  -17.5009   25.0868 N   0  0  0  0  0  0  0  0  0  0  0  0
    7.1488  -17.9843   24.7392 C   0  0  0  0  0  0  0  0  0  0  0  0
    7.6869  -18.8040   25.5064 O   0  0  0  0  0  0  0  0  0  0  0  0
    7.7276  -17.4546   23.4907 C   0  0  0  0  0  0  0  0  0  0  0  0
    7.4389  -15.9823   23.2964 C   0  0  2  0  0  0  0  0  0  0  0  0
    7.9336  -15.5956   22.0091 N   0  0  0  0  0  0  0  0  0  0  0  0
    8.0551  -15.2641   24.4396 C   0  0  0  0  0  0  0  0  0  0  0  0
    9.3060  -15.2236   24.4409 O   0  0  0  0  0  0  0  0  0  0  0  0
    6.9451  -11.5604   25.7021 C   0  0  0  0  0  0  0  0  0  0  0  0
    7.0195  -12.5837   26.7865 C   0  0  1  0  0  0  0  0  0  0  0  0
    5.7178  -13.0057   27.0644 O   0  0  0  0  0  0  0  0  0  0  0  0
    7.8551  -13.7673   26.4533 C   0  0  2  0  0  0  0  0  0  0  0  0
    7.3141  -14.6572   25.4714 N   0  0  0  0  0  0  0  0  0  0  0  0
    8.3787  -14.4784   27.6505 C   0  0  0  0  0  0  0  0  0  0  0  0
    8.2583  -15.8324   27.8609 O   0  0  0  0  0  0  0  0  0  0  0  0
    8.9846  -13.8275   28.5571 O   0  0  0  0  0  0  0  0  0  0  0  0
  1  5  1  0
  1  2  1  0
  2  3  1  0
  4  3  1  0
  5  6  1  1
  5  4  1  0
  6 13  1  0
  7  6  2  0
  8  9  1  0
  9 11  1  0
 10  9  2  0
 12 11  1  1
 12 14  1  0
 13 12  1  0
 14 15  2  0
 14 20  1  0
 17 16  1  6
 17 18  1  0
 19 17  1  0
 19 21  1  0
 19 20  1  1
 21 22  1  0
 23 21  2  0
M  END
$$$$
