PNT.pdb
     RDKit          3D

 23 23  0  0  1  0  0  0  0  0999 V2000
    9.0541  -14.4100   19.1966 N   0  0  0  0  0  0  0  0  0  0  0  0
    8.8319  -13.7880   17.9083 C   0  0  0  0  0  0  0  0  0  0  0  0
    7.3491  -13.4894   17.9508 C   0  0  0  0  0  0  0  0  0  0  0  0
    7.1650  -12.9833   19.3583 C   0  0  0  0  0  0  0  0  0  0  0  0
    8.3762  -13.4945   20.0894 C   0  0  1  0  0  0  0  0  0  0  0  0
    8.0741  -14.1767   21.3411 C   0  0  0  0  0  0  0  0  0  0  0  0
    7.1581  -13.7417   22.0819 O   0  0  0  0  0  0  0  0  0  0  0  0
   10.3706  -18.4299   25.0821 N   0  0  0  0  0  0  0  0  0  0  0  0
    9.1906  -17.9235   24.4483 C   0  0  0  0  0  0  0  0  0  0  0  0
    8.0964  -18.1418   25.0008 O   0  0  0  0  0  0  0  0  0  0  0  0
    9.3947  -17.1848   23.1885 C   0  0  0  0  0  0  0  0  0  0  0  0
    8.5197  -15.9547   23.0890 C   0  0  2  0  0  0  0  0  0  0  0  0
    8.7546  -15.3406   21.8166 N   0  0  0  0  0  0  0  0  0  0  0  0
    8.8379  -15.0994   24.2593 C   0  0  0  0  0  0  0  0  0  0  0  0
    9.9531  -14.5322   24.2263 O   0  0  0  0  0  0  0  0  0  0  0  0
    6.7115  -12.0715   25.6438 C   0  0  0  0  0  0  0  0  0  0  0  0
    7.0055  -13.0816   26.7029 C   0  0  1  0  0  0  0  0  0  0  0  0
    5.8638  -13.8678   26.8709 O   0  0  0  0  0  0  0  0  0  0  0  0
    8.1643  -13.9628   26.4017 C   0  0  2  0  0  0  0  0  0  0  0  0
    7.9684  -14.9150   25.3511 N   0  0  0  0  0  0  0  0  0  0  0  0
    8.7842  -14.5611   27.6145 C   0  0  0  0  0  0  0  0  0  0  0  0
    9.1758  -13.8411   28.7192 O   0  0  0  0  0  0  0  0  0  0  0  0
    8.9774  -15.8150   27.6721 O   0  0  0  0  0  0  0  0  0  0  0  0
  1  5  1  0
  1  2  1  0
  2  3  1  0
  4  3  1  0
  5  6  1  1
  5  4  1  0
  6 13  1  0
  7  6  2  0
  8  9  1  0
  9 11  1  0
 10  9  2  0
 12 11  1  1
 12 14  1  0
 13 12  1  0
 14 15  2  0
 14 20  1  0
 17 16  1  6
 17 18  1  0
 19 17  1  0
 19 21  1  0
 19 20  1  6
 21 22  1  0
 23 21  2  0
M  END
$$$$
