PNT.pdb
     RDKit          3D

 23 23  0  0  1  0  0  0  0  0999 V2000
    8.8220  -14.7602   19.2119 N   0  0  0  0  0  0  0  0  0  0  0  0
    8.6188  -14.1222   17.9283 C   0  0  0  0  0  0  0  0  0  0  0  0
    7.2645  -13.4714   18.1076 C   0  0  0  0  0  0  0  0  0  0  0  0
    7.3596  -12.9147   19.5047 C   0  0  0  0  0  0  0  0  0  0  0  0
    8.4839  -13.6941   20.1305 C   0  0  1  0  0  0  0  0  0  0  0  0
    8.1630  -14.2635   21.4328 C   0  0  0  0  0  0  0  0  0  0  0  0
    7.2466  -13.7561   22.1255 O   0  0  0  0  0  0  0  0  0  0  0  0
   10.4437  -18.5717   21.7877 N   0  0  0  0  0  0  0  0  0  0  0  0
    9.2347  -18.1471   22.4268 C   0  0  0  0  0  0  0  0  0  0  0  0
    8.1631  -18.6365   22.0239 O   0  0  0  0  0  0  0  0  0  0  0  0
    9.3844  -17.1599   23.5119 C   0  0  0  0  0  0  0  0  0  0  0  0
    8.5241  -15.9332   23.3028 C   0  0  2  0  0  0  0  0  0  0  0  0
    8.8248  -15.3908   22.0119 N   0  0  0  0  0  0  0  0  0  0  0  0
    8.7913  -15.0165   24.4389 C   0  0  0  0  0  0  0  0  0  0  0  0
    9.9202  -14.4761   24.4428 O   0  0  0  0  0  0  0  0  0  0  0  0
    6.7686  -11.8437   25.4493 C   0  0  0  0  0  0  0  0  0  0  0  0
    6.9104  -12.7745   26.6078 C   0  0  1  0  0  0  0  0  0  0  0  0
    5.7069  -13.4688   26.7466 O   0  0  0  0  0  0  0  0  0  0  0  0
    8.0238  -13.7505   26.4746 C   0  0  2  0  0  0  0  0  0  0  0  0
    7.8615  -14.7486   25.4615 N   0  0  0  0  0  0  0  0  0  0  0  0
    8.4743  -14.3158   27.7747 C   0  0  0  0  0  0  0  0  0  0  0  0
    8.8439  -13.5584   28.8619 O   0  0  0  0  0  0  0  0  0  0  0  0
    8.5317  -15.5749   27.9302 O   0  0  0  0  0  0  0  0  0  0  0  0
  1  5  1  0
  1  2  1  0
  2  3  1  0
  4  3  1  0
  5  6  1  1
  5  4  1  0
  6 13  1  0
  7  6  2  0
  8  9  1  0
  9 11  1  0
 10  9  2  0
 12 11  1  1
 12 14  1  0
 13 12  1  0
 14 15  2  0
 14 20  1  0
 17 16  1  6
 17 18  1  0
 19 17  1  0
 19 21  1  0
 19 20  1  6
 21 22  1  0
 23 21  2  0
M  END
$$$$
