PNT.pdb
     RDKit          3D

 23 23  0  0  1  0  0  0  0  0999 V2000
    7.9856  -15.3872   20.2959 N   0  0  0  0  0  0  0  0  0  0  0  0
    7.8534  -14.8845   18.9446 C   0  0  0  0  0  0  0  0  0  0  0  0
    7.0479  -13.6206   19.1529 C   0  0  0  0  0  0  0  0  0  0  0  0
    7.6845  -13.0353   20.3870 C   0  0  0  0  0  0  0  0  0  0  0  0
    8.3985  -14.2010   21.0151 C   0  0  1  0  0  0  0  0  0  0  0  0
    8.1205  -14.3767   22.4346 C   0  0  0  0  0  0  0  0  0  0  0  0
    8.4637  -13.4865   23.2512 O   0  0  0  0  0  0  0  0  0  0  0  0
    7.0804  -18.9307   25.3246 N   0  0  0  0  0  0  0  0  0  0  0  0
    6.6519  -18.1183   24.2260 C   0  0  0  0  0  0  0  0  0  0  0  0
    6.7162  -18.6078   23.0831 O   0  0  0  0  0  0  0  0  0  0  0  0
    6.1715  -16.7661   24.5653 C   0  0  0  0  0  0  0  0  0  0  0  0
    7.2434  -15.7113   24.4006 C   0  0  2  0  0  0  0  0  0  0  0  0
    7.4671  -15.5161   22.9994 N   0  0  0  0  0  0  0  0  0  0  0  0
    8.4308  -16.1763   25.1598 C   0  0  0  0  0  0  0  0  0  0  0  0
    9.2984  -16.7795   24.4891 O   0  0  0  0  0  0  0  0  0  0  0  0
    9.1594  -13.6361   28.4051 C   0  0  0  0  0  0  0  0  0  0  0  0
   10.1405  -14.2749   27.4788 C   0  0  1  0  0  0  0  0  0  0  0  0
   11.4057  -14.1712   28.0602 O   0  0  0  0  0  0  0  0  0  0  0  0
    9.8571  -15.7031   27.1791 C   0  0  2  0  0  0  0  0  0  0  0  0
    8.6036  -15.9707   26.5418 N   0  0  0  0  0  0  0  0  0  0  0  0
   10.1282  -16.6135   28.3240 C   0  0  0  0  0  0  0  0  0  0  0  0
   11.3467  -16.7252   28.9525 O   0  0  0  0  0  0  0  0  0  0  0  0
    9.1987  -17.3484   28.7806 O   0  0  0  0  0  0  0  0  0  0  0  0
  1  5  1  0
  1  2  1  0
  2  3  1  0
  4  3  1  0
  5  6  1  1
  5  4  1  0
  6 13  1  0
  7  6  2  0
  8  9  1  0
  9 11  1  0
 10  9  2  0
 12 11  1  6
 12 14  1  0
 13 12  1  0
 14 15  2  0
 14 20  1  0
 17 16  1  1
 17 18  1  0
 19 17  1  0
 19 21  1  0
 19 20  1  1
 21 22  1  0
 23 21  2  0
M  END
$$$$
