PNT.pdb
     RDKit          3D

 23 23  0  0  1  0  0  0  0  0999 V2000
    8.2197  -14.9878   19.0286 N   0  0  0  0  0  0  0  0  0  0  0  0
    8.0811  -14.1286   17.8717 C   0  0  0  0  0  0  0  0  0  0  0  0
    7.1413  -13.0578   18.3815 C   0  0  0  0  0  0  0  0  0  0  0  0
    7.6715  -12.8009   19.7685 C   0  0  0  0  0  0  0  0  0  0  0  0
    8.4819  -14.0291   20.0808 C   0  0  1  0  0  0  0  0  0  0  0  0
    8.1763  -14.6338   21.3710 C   0  0  0  0  0  0  0  0  0  0  0  0
    7.0495  -14.4494   21.8937 O   0  0  0  0  0  0  0  0  0  0  0  0
   10.9032  -18.3735   21.9667 N   0  0  0  0  0  0  0  0  0  0  0  0
    9.7361  -18.1466   22.7646 C   0  0  0  0  0  0  0  0  0  0  0  0
    8.7540  -18.8891   22.5798 O   0  0  0  0  0  0  0  0  0  0  0  0
    9.8177  -17.0413   23.7372 C   0  0  0  0  0  0  0  0  0  0  0  0
    8.8276  -15.9358   23.4436 C   0  0  2  0  0  0  0  0  0  0  0  0
    9.0808  -15.4484   22.1209 N   0  0  0  0  0  0  0  0  0  0  0  0
    8.9766  -14.9225   24.5176 C   0  0  0  0  0  0  0  0  0  0  0  0
    9.9374  -14.1317   24.3844 O   0  0  0  0  0  0  0  0  0  0  0  0
    6.7573  -12.0684   25.3948 C   0  0  0  0  0  0  0  0  0  0  0  0
    6.9439  -12.8918   26.6260 C   0  0  1  0  0  0  0  0  0  0  0  0
    5.8005  -13.6758   26.7918 O   0  0  0  0  0  0  0  0  0  0  0  0
    8.1399  -13.7741   26.5953 C   0  0  2  0  0  0  0  0  0  0  0  0
    8.1143  -14.8274   25.6264 N   0  0  0  0  0  0  0  0  0  0  0  0
    8.5672  -14.2393   27.9422 C   0  0  0  0  0  0  0  0  0  0  0  0
    8.8238  -13.4038   29.0044 O   0  0  0  0  0  0  0  0  0  0  0  0
    8.7124  -15.4811   28.1650 O   0  0  0  0  0  0  0  0  0  0  0  0
  1  5  1  0
  1  2  1  0
  2  3  1  0
  4  3  1  0
  5  6  1  1
  5  4  1  0
  6 13  1  0
  7  6  2  0
  8  9  1  0
  9 11  1  0
 10  9  2  0
 12 11  1  1
 12 14  1  0
 13 12  1  0
 14 15  2  0
 14 20  1  0
 17 16  1  6
 17 18  1  0
 19 17  1  0
 19 21  1  0
 19 20  1  6
 21 22  1  0
 23 21  2  0
M  END
$$$$
