PNT.pdb
     RDKit          3D

 23 23  0  0  1  0  0  0  0  0999 V2000
    9.3472  -14.2223   18.4580 N   0  0  0  0  0  0  0  0  0  0  0  0
    8.8494  -13.4842   17.3164 C   0  0  0  0  0  0  0  0  0  0  0  0
    7.3563  -13.7073   17.4201 C   0  0  0  0  0  0  0  0  0  0  0  0
    7.1126  -13.5578   18.8996 C   0  0  0  0  0  0  0  0  0  0  0  0
    8.4703  -13.7633   19.5139 C   0  0  1  0  0  0  0  0  0  0  0  0
    8.4906  -14.7242   20.6092 C   0  0  0  0  0  0  0  0  0  0  0  0
    7.5763  -14.7066   21.4700 O   0  0  0  0  0  0  0  0  0  0  0  0
    9.8762  -19.4851   20.6574 N   0  0  0  0  0  0  0  0  0  0  0  0
   10.6912  -18.3126   20.5508 C   0  0  0  0  0  0  0  0  0  0  0  0
   11.2458  -18.0891   19.4588 O   0  0  0  0  0  0  0  0  0  0  0  0
   10.7919  -17.4780   21.7623 C   0  0  0  0  0  0  0  0  0  0  0  0
    9.5936  -16.5726   21.9442 C   0  0  2  0  0  0  0  0  0  0  0  0
    9.4976  -15.7217   20.7961 N   0  0  0  0  0  0  0  0  0  0  0  0
    9.7799  -15.8588   23.2319 C   0  0  0  0  0  0  0  0  0  0  0  0
   10.6956  -15.0057   23.2490 O   0  0  0  0  0  0  0  0  0  0  0  0
    7.9831  -13.5081   26.9475 C   0  0  0  0  0  0  0  0  0  0  0  0
    7.8065  -14.5434   25.8865 C   0  0  1  0  0  0  0  0  0  0  0  0
    7.3661  -13.8973   24.7296 O   0  0  0  0  0  0  0  0  0  0  0  0
    9.0383  -15.3151   25.5751 C   0  0  2  0  0  0  0  0  0  0  0  0
    8.9983  -16.0989   24.3780 N   0  0  0  0  0  0  0  0  0  0  0  0
    9.5757  -16.0681   26.7402 C   0  0  0  0  0  0  0  0  0  0  0  0
   10.0246  -15.4816   27.9006 O   0  0  0  0  0  0  0  0  0  0  0  0
    9.6369  -17.3359   26.6993 O   0  0  0  0  0  0  0  0  0  0  0  0
  1  5  1  0
  1  2  1  0
  2  3  1  0
  4  3  1  0
  5  6  1  1
  5  4  1  0
  6 13  1  0
  7  6  2  0
  8  9  1  0
  9 11  1  0
 10  9  2  0
 12 11  1  6
 12 14  1  0
 13 12  1  0
 14 15  2  0
 14 20  1  0
 17 16  1  1
 17 18  1  0
 19 17  1  0
 19 21  1  0
 19 20  1  6
 21 22  1  0
 23 21  2  0
M  END
$$$$
