PNT.pdb
     RDKit          3D

 23 23  0  0  1  0  0  0  0  0999 V2000
    8.8010  -14.8227   19.4516 N   0  0  0  0  0  0  0  0  0  0  0  0
    8.8570  -14.2730   18.1135 C   0  0  0  0  0  0  0  0  0  0  0  0
    7.5640  -13.4906   18.0368 C   0  0  0  0  0  0  0  0  0  0  0  0
    7.5057  -12.8355   19.3927 C   0  0  0  0  0  0  0  0  0  0  0  0
    8.4394  -13.6609   20.2353 C   0  0  1  0  0  0  0  0  0  0  0  0
    7.8720  -14.0938   21.5057 C   0  0  0  0  0  0  0  0  0  0  0  0
    7.2404  -13.2740   22.2170 O   0  0  0  0  0  0  0  0  0  0  0  0
    6.0256  -17.5993   21.9556 N   0  0  0  0  0  0  0  0  0  0  0  0
    7.0441  -18.1955   22.7665 C   0  0  0  0  0  0  0  0  0  0  0  0
    7.1403  -19.4367   22.7571 O   0  0  0  0  0  0  0  0  0  0  0  0
    7.8868  -17.2654   23.5407 C   0  0  0  0  0  0  0  0  0  0  0  0
    7.5036  -15.8181   23.3240 C   0  0  2  0  0  0  0  0  0  0  0  0
    7.9756  -15.4190   22.0320 N   0  0  0  0  0  0  0  0  0  0  0  0
    8.0688  -15.0446   24.4575 C   0  0  0  0  0  0  0  0  0  0  0  0
    9.2993  -14.8230   24.3997 O   0  0  0  0  0  0  0  0  0  0  0  0
    6.5683  -11.5832   25.8715 C   0  0  0  0  0  0  0  0  0  0  0  0
    6.8295  -12.5920   26.9405 C   0  0  1  0  0  0  0  0  0  0  0  0
    5.6058  -13.1625   27.2964 O   0  0  0  0  0  0  0  0  0  0  0  0
    7.7737  -13.6701   26.5454 C   0  0  2  0  0  0  0  0  0  0  0  0
    7.3030  -14.5757   25.5418 N   0  0  0  0  0  0  0  0  0  0  0  0
    8.3966  -14.3655   27.7037 C   0  0  0  0  0  0  0  0  0  0  0  0
    8.4019  -15.7303   27.8759 O   0  0  0  0  0  0  0  0  0  0  0  0
    8.9728  -13.6893   28.6112 O   0  0  0  0  0  0  0  0  0  0  0  0
  1  5  1  0
  1  2  1  0
  2  3  1  0
  4  3  1  0
  5  6  1  1
  5  4  1  0
  6 13  1  0
  7  6  2  0
  8  9  1  0
  9 11  1  0
 10  9  2  0
 12 11  1  1
 12 14  1  0
 13 12  1  0
 14 15  2  0
 14 20  1  0
 17 16  1  6
 17 18  1  0
 19 17  1  0
 19 21  1  0
 19 20  1  1
 21 22  1  0
 23 21  2  0
M  END
$$$$
