PNT.pdb
     RDKit          3D

 23 23  0  0  1  0  0  0  0  0999 V2000
    9.1627  -14.0869   19.1546 N   0  0  0  0  0  0  0  0  0  0  0  0
    8.8179  -13.5036   17.8752 C   0  0  0  0  0  0  0  0  0  0  0  0
    7.3159  -13.6834   17.8382 C   0  0  0  0  0  0  0  0  0  0  0  0
    6.9164  -13.3281   19.2470 C   0  0  0  0  0  0  0  0  0  0  0  0
    8.1909  -13.4717   20.0331 C   0  0  1  0  0  0  0  0  0  0  0  0
    8.0589  -14.2734   21.2428 C   0  0  0  0  0  0  0  0  0  0  0  0
    7.0994  -14.0657   22.0258 O   0  0  0  0  0  0  0  0  0  0  0  0
    9.1103  -19.0277   24.1425 N   0  0  0  0  0  0  0  0  0  0  0  0
    9.9786  -17.8898   24.1032 C   0  0  0  0  0  0  0  0  0  0  0  0
   10.6756  -17.6571   25.1083 O   0  0  0  0  0  0  0  0  0  0  0  0
    9.9584  -17.0987   22.8589 C   0  0  0  0  0  0  0  0  0  0  0  0
    8.8920  -16.0258   22.8709 C   0  0  2  0  0  0  0  0  0  0  0  0
    8.9598  -15.3140   21.6299 N   0  0  0  0  0  0  0  0  0  0  0  0
    9.1263  -15.1937   24.0772 C   0  0  0  0  0  0  0  0  0  0  0  0
   10.1395  -14.4600   24.0388 O   0  0  0  0  0  0  0  0  0  0  0  0
    7.0608  -12.3951   25.5528 C   0  0  0  0  0  0  0  0  0  0  0  0
    7.2829  -13.4286   26.6070 C   0  0  1  0  0  0  0  0  0  0  0  0
    6.1137  -14.1840   26.7165 O   0  0  0  0  0  0  0  0  0  0  0  0
    8.4279  -14.3382   26.3391 C   0  0  2  0  0  0  0  0  0  0  0  0
    8.2867  -15.2031   25.2074 N   0  0  0  0  0  0  0  0  0  0  0  0
    8.9156  -15.0491   27.5514 C   0  0  0  0  0  0  0  0  0  0  0  0
    9.2663  -14.4252   28.7262 O   0  0  0  0  0  0  0  0  0  0  0  0
    9.0258  -16.3142   27.5405 O   0  0  0  0  0  0  0  0  0  0  0  0
  1  5  1  0
  1  2  1  0
  2  3  1  0
  4  3  1  0
  5  6  1  1
  5  4  1  0
  6 13  1  0
  7  6  2  0
  8  9  1  0
  9 11  1  0
 10  9  2  0
 12 11  1  6
 12 14  1  0
 13 12  1  0
 14 15  2  0
 14 20  1  0
 17 16  1  6
 17 18  1  0
 19 17  1  0
 19 21  1  0
 19 20  1  6
 21 22  1  0
 23 21  2  0
M  END
$$$$
