GQF.pdb
     RDKit          3D

 25 25  0  0  1  0  0  0  0  0999 V2000
   13.4565  -14.2710  -14.5898 N   0  0  0  0  0  0  0  0  0  0  0  0
   14.6041  -13.6227  -14.0145 C   0  0  0  0  0  0  0  0  0  0  0  0
   14.3510  -12.1513  -13.8198 C   0  0  0  0  0  0  0  0  0  0  0  0
   13.8169  -11.4752  -14.7476 O   0  0  0  0  0  0  0  0  0  0  0  0
   12.7310   -8.6181   -9.1026 N   0  0  0  0  0  0  0  0  0  0  0  0
   11.9603   -9.5440   -9.8289 C   0  0  0  0  0  0  0  0  0  0  0  0
   10.7687   -9.8196   -9.5005 O   0  0  0  0  0  0  0  0  0  0  0  0
   12.5902  -10.1990  -11.0080 C   0  0  0  0  0  0  0  0  0  0  0  0
   14.0335   -9.7613  -11.0877 C   0  0  0  0  0  0  0  0  0  0  0  0
   14.6318  -10.0512  -12.4460 C   0  0  2  0  0  0  0  0  0  0  0  0
   14.6975  -11.4938  -12.6140 N   0  0  0  0  0  0  0  0  0  0  0  0
   15.9888   -9.4434  -12.4567 C   0  0  0  0  0  0  0  0  0  0  0  0
   16.8741   -9.8983  -11.7119 O   0  0  0  0  0  0  0  0  0  0  0  0
   16.2582   -8.3493  -13.3180 N   0  0  0  0  0  0  0  0  0  0  0  0
   17.5281   -7.6063  -13.2859 C   0  0  1  0  0  0  0  0  0  0  0  0
   18.5011   -8.2196  -14.2742 C   0  0  0  0  0  0  0  0  0  0  0  0
   19.7864   -7.5135  -14.3680 C   0  0  0  0  0  0  0  0  0  0  0  0
   20.8556   -7.8686  -13.5608 C   0  0  0  0  0  0  0  0  0  0  0  0
   22.0716   -7.2197  -13.6444 C   0  0  0  0  0  0  0  0  0  0  0  0
   22.2703   -6.1925  -14.5343 C   0  0  0  0  0  0  0  0  0  0  0  0
   21.2152   -5.8279  -15.3441 C   0  0  0  0  0  0  0  0  0  0  0  0
   19.9919   -6.4844  -15.2567 C   0  0  0  0  0  0  0  0  0  0  0  0
   17.3222   -6.1717  -13.4490 C   0  0  0  0  0  0  0  0  0  0  0  0
   18.1814   -5.2698  -12.8463 O   0  0  0  0  0  0  0  0  0  0  0  0
   16.3749   -5.6584  -14.1296 O   0  0  0  0  0  0  0  0  0  0  0  0
  1  2  1  0
  3  2  1  0
  4  3  2  0
  5  6  1  0
  6  7  2  0
  8  9  1  0
  8  6  1  0
 10  9  1  1
 10 11  1  0
 10 12  1  0
 11  3  1  0
 12 13  2  0
 12 14  1  0
 14 15  1  0
 15 16  1  6
 15 23  1  0
 16 17  1  0
 17 22  2  0
 18 19  2  0
 18 17  1  0
 19 20  1  0
 20 21  2  0
 22 21  1  0
 23 24  1  0
 25 23  2  0
M  END
$$$$
