GQF.pdb
     RDKit          3D

 25 25  0  0  1  0  0  0  0  0999 V2000
   27.6289  -17.2414  -15.2697 N   0  0  0  0  0  0  0  0  0  0  0  0
   27.8949  -18.4915  -14.6106 C   0  0  0  0  0  0  0  0  0  0  0  0
   26.8537  -18.7805  -13.5620 C   0  0  0  0  0  0  0  0  0  0  0  0
   26.0099  -17.8898  -13.2490 O   0  0  0  0  0  0  0  0  0  0  0  0
   23.2073  -22.7025  -13.7216 N   0  0  0  0  0  0  0  0  0  0  0  0
   24.5231  -22.8739  -14.1886 C   0  0  0  0  0  0  0  0  0  0  0  0
   24.7750  -23.5361  -15.2382 O   0  0  0  0  0  0  0  0  0  0  0  0
   25.6248  -22.2487  -13.4066 C   0  0  0  0  0  0  0  0  0  0  0  0
   25.0243  -21.5164  -12.2300 C   0  0  0  0  0  0  0  0  0  0  0  0
   25.8622  -20.3238  -11.8266 C   0  0  2  0  0  0  0  0  0  0  0  0
   26.7903  -20.0352  -12.9078 N   0  0  0  0  0  0  0  0  0  0  0  0
   26.5827  -20.7055  -10.5831 C   0  0  0  0  0  0  0  0  0  0  0  0
   27.5758  -21.4503  -10.6499 O   0  0  0  0  0  0  0  0  0  0  0  0
   26.1278  -20.2147   -9.3326 N   0  0  0  0  0  0  0  0  0  0  0  0
   26.7857  -20.5508   -8.0598 C   0  0  1  0  0  0  0  0  0  0  0  0
   27.4802  -19.3216   -7.5064 C   0  0  0  0  0  0  0  0  0  0  0  0
   28.1560  -19.5420   -6.2203 C   0  0  0  0  0  0  0  0  0  0  0  0
   27.7204  -18.9070   -5.0680 C   0  0  0  0  0  0  0  0  0  0  0  0
   28.3403  -19.1117   -3.8511 C   0  0  0  0  0  0  0  0  0  0  0  0
   29.4174  -19.9560   -3.7343 C   0  0  0  0  0  0  0  0  0  0  0  0
   29.8621  -20.5948   -4.8727 C   0  0  0  0  0  0  0  0  0  0  0  0
   29.2347  -20.3859   -6.0966 C   0  0  0  0  0  0  0  0  0  0  0  0
   25.8689  -21.1994   -7.1294 C   0  0  0  0  0  0  0  0  0  0  0  0
   26.3584  -21.9101   -6.0477 O   0  0  0  0  0  0  0  0  0  0  0  0
   24.5993  -21.1645   -7.2356 O   0  0  0  0  0  0  0  0  0  0  0  0
  1  2  1  0
  3  2  1  0
  4  3  2  0
  5  6  1  0
  6  7  2  0
  8  9  1  0
  8  6  1  0
 10  9  1  6
 10 11  1  0
 10 12  1  0
 11  3  1  0
 12 13  2  0
 12 14  1  0
 14 15  1  0
 15 16  1  1
 15 23  1  0
 16 17  1  0
 17 22  2  0
 18 19  2  0
 18 17  1  0
 19 20  1  0
 20 21  2  0
 22 21  1  0
 23 24  1  0
 25 23  2  0
M  END
$$$$
