GQF.pdb
     RDKit          3D

 25 25  0  0  1  0  0  0  0  0999 V2000
   25.7099  -18.6622  -16.2082 N   0  0  0  0  0  0  0  0  0  0  0  0
   26.3552  -18.2435  -14.9932 C   0  0  0  0  0  0  0  0  0  0  0  0
   25.6616  -18.8208  -13.7878 C   0  0  0  0  0  0  0  0  0  0  0  0
   24.6093  -18.2741  -13.3438 O   0  0  0  0  0  0  0  0  0  0  0  0
   24.4746  -24.4870  -12.8968 N   0  0  0  0  0  0  0  0  0  0  0  0
   23.8938  -23.5229  -13.7407 C   0  0  0  0  0  0  0  0  0  0  0  0
   23.1724  -23.8521  -14.7280 O   0  0  0  0  0  0  0  0  0  0  0  0
   24.1530  -22.0885  -13.4386 C   0  0  0  0  0  0  0  0  0  0  0  0
   25.1686  -22.0074  -12.3235 C   0  0  0  0  0  0  0  0  0  0  0  0
   25.5060  -20.5744  -11.9775 C   0  0  2  0  0  0  0  0  0  0  0  0
   26.1586  -19.9716  -13.1283 N   0  0  0  0  0  0  0  0  0  0  0  0
   26.4155  -20.6187  -10.8020 C   0  0  0  0  0  0  0  0  0  0  0  0
   27.6024  -20.9560  -10.9531 O   0  0  0  0  0  0  0  0  0  0  0  0
   25.9176  -20.2752   -9.5192 N   0  0  0  0  0  0  0  0  0  0  0  0
   26.7131  -20.4283   -8.2906 C   0  0  1  0  0  0  0  0  0  0  0  0
   26.9775  -19.0644   -7.6828 C   0  0  0  0  0  0  0  0  0  0  0  0
   27.7613  -19.1025   -6.4405 C   0  0  0  0  0  0  0  0  0  0  0  0
   27.2088  -19.5819   -5.2633 C   0  0  0  0  0  0  0  0  0  0  0  0
   27.9364  -19.6318   -4.0907 C   0  0  0  0  0  0  0  0  0  0  0  0
   29.2416  -19.2065   -4.0445 C   0  0  0  0  0  0  0  0  0  0  0  0
   29.8049  -18.7268   -5.2084 C   0  0  0  0  0  0  0  0  0  0  0  0
   29.0684  -18.6784   -6.3875 C   0  0  0  0  0  0  0  0  0  0  0  0
   26.1176  -21.3947   -7.3749 C   0  0  0  0  0  0  0  0  0  0  0  0
   24.7489  -21.5981   -7.3672 O   0  0  0  0  0  0  0  0  0  0  0  0
   26.7828  -22.0969   -6.5450 O   0  0  0  0  0  0  0  0  0  0  0  0
  1  2  1  0
  3  2  1  0
  4  3  2  0
  5  6  1  0
  6  7  2  0
  8  9  1  0
  8  6  1  0
 10  9  1  6
 10 11  1  0
 10 12  1  0
 11  3  1  0
 12 13  2  0
 12 14  1  0
 14 15  1  0
 15 16  1  1
 15 23  1  0
 16 17  1  0
 17 22  2  0
 18 19  2  0
 18 17  1  0
 19 20  1  0
 20 21  2  0
 22 21  1  0
 23 24  1  0
 25 23  2  0
M  END
$$$$
