GQF.pdb
     RDKit          3D

 25 25  0  0  1  0  0  0  0  0999 V2000
   17.9819  -12.6929  -15.7582 N   0  0  0  0  0  0  0  0  0  0  0  0
   18.9890  -12.1770  -16.6459 C   0  0  0  0  0  0  0  0  0  0  0  0
   20.0805  -11.4812  -15.8767 C   0  0  0  0  0  0  0  0  0  0  0  0
   19.8683  -11.0967  -14.6891 O   0  0  0  0  0  0  0  0  0  0  0  0
   26.0863  -12.0251  -16.8324 N   0  0  0  0  0  0  0  0  0  0  0  0
   26.1338  -11.0789  -15.7925 C   0  0  0  0  0  0  0  0  0  0  0  0
   27.2203  -10.7801  -15.2148 O   0  0  0  0  0  0  0  0  0  0  0  0
   24.8574  -10.4305  -15.3844 C   0  0  0  0  0  0  0  0  0  0  0  0
   23.7327  -11.0294  -16.1953 C   0  0  0  0  0  0  0  0  0  0  0  0
   22.3896  -10.4627  -15.7926 C   0  0  2  0  0  0  0  0  0  0  0  0
   21.3531  -11.2416  -16.4505 N   0  0  0  0  0  0  0  0  0  0  0  0
   22.3685   -9.0456  -16.2425 C   0  0  0  0  0  0  0  0  0  0  0  0
   22.2096   -8.7835  -17.4473 O   0  0  0  0  0  0  0  0  0  0  0  0
   22.5305   -8.0070  -15.2903 N   0  0  0  0  0  0  0  0  0  0  0  0
   22.4005   -6.5829  -15.6375 C   0  0  1  0  0  0  0  0  0  0  0  0
   21.9695   -5.7984  -14.4134 C   0  0  0  0  0  0  0  0  0  0  0  0
   21.6931   -4.3794  -14.6766 C   0  0  0  0  0  0  0  0  0  0  0  0
   20.4205   -3.9530  -15.0221 C   0  0  0  0  0  0  0  0  0  0  0  0
   20.1445   -2.6216  -15.2634 C   0  0  0  0  0  0  0  0  0  0  0  0
   21.1244   -1.6636  -15.1703 C   0  0  0  0  0  0  0  0  0  0  0  0
   22.3958   -2.0731  -14.8274 C   0  0  0  0  0  0  0  0  0  0  0  0
   22.6695   -3.4153  -14.5850 C   0  0  0  0  0  0  0  0  0  0  0  0
   23.5987   -6.0723  -16.2937 C   0  0  0  0  0  0  0  0  0  0  0  0
   23.4947   -5.3164  -17.4481 O   0  0  0  0  0  0  0  0  0  0  0  0
   24.7849   -6.2744  -15.8735 O   0  0  0  0  0  0  0  0  0  0  0  0
  1  2  1  0
  3  2  1  0
  4  3  2  0
  5  6  1  0
  6  7  2  0
  8  9  1  0
  8  6  1  0
 10  9  1  6
 10 11  1  0
 10 12  1  0
 11  3  1  0
 12 13  2  0
 12 14  1  0
 14 15  1  0
 15 16  1  1
 15 23  1  0
 16 17  1  0
 17 22  2  0
 18 19  2  0
 18 17  1  0
 19 20  1  0
 20 21  2  0
 22 21  1  0
 23 24  1  0
 25 23  2  0
M  END
$$$$
