GQF.pdb
     RDKit          3D

 25 25  0  0  1  0  0  0  0  0999 V2000
   30.4249  -24.3189  -17.4077 N   0  0  0  0  0  0  0  0  0  0  0  0
   29.3678  -24.6866  -16.5046 C   0  0  0  0  0  0  0  0  0  0  0  0
   28.1116  -23.9111  -16.8007 C   0  0  0  0  0  0  0  0  0  0  0  0
   27.9447  -23.3936  -17.9443 O   0  0  0  0  0  0  0  0  0  0  0  0
   22.8934  -24.9340  -15.7766 N   0  0  0  0  0  0  0  0  0  0  0  0
   23.9173  -25.8947  -15.8638 C   0  0  0  0  0  0  0  0  0  0  0  0
   23.7925  -27.0471  -15.3539 O   0  0  0  0  0  0  0  0  0  0  0  0
   25.1662  -25.5160  -16.5799 C   0  0  0  0  0  0  0  0  0  0  0  0
   25.0469  -24.0786  -17.0281 C   0  0  0  0  0  0  0  0  0  0  0  0
   25.8061  -23.1429  -16.1142 C   0  0  2  0  0  0  0  0  0  0  0  0
   27.0990  -23.7417  -15.8249 N   0  0  0  0  0  0  0  0  0  0  0  0
   24.9913  -22.9930  -14.8794 C   0  0  0  0  0  0  0  0  0  0  0  0
   25.0417  -23.8677  -13.9975 O   0  0  0  0  0  0  0  0  0  0  0  0
   24.1642  -21.8518  -14.7216 N   0  0  0  0  0  0  0  0  0  0  0  0
   23.2700  -21.6716  -13.5667 C   0  0  1  0  0  0  0  0  0  0  0  0
   23.4825  -20.2942  -12.9692 C   0  0  0  0  0  0  0  0  0  0  0  0
   22.5489  -19.9598  -11.8848 C   0  0  0  0  0  0  0  0  0  0  0  0
   22.8373  -20.2873  -10.5694 C   0  0  0  0  0  0  0  0  0  0  0  0
   21.9734  -19.9714   -9.5394 C   0  0  0  0  0  0  0  0  0  0  0  0
   20.7895  -19.3176   -9.7789 C   0  0  0  0  0  0  0  0  0  0  0  0
   20.4889  -18.9854  -11.0833 C   0  0  0  0  0  0  0  0  0  0  0  0
   21.3621  -19.3054  -12.1178 C   0  0  0  0  0  0  0  0  0  0  0  0
   21.8841  -21.9808  -13.8995 C   0  0  0  0  0  0  0  0  0  0  0  0
   21.4111  -21.7735  -15.1833 O   0  0  0  0  0  0  0  0  0  0  0  0
   21.0362  -22.4454  -13.0692 O   0  0  0  0  0  0  0  0  0  0  0  0
  1  2  1  0
  3  2  1  0
  4  3  2  0
  5  6  1  0
  6  7  2  0
  8  9  1  0
  8  6  1  0
 10  9  1  6
 10 11  1  0
 10 12  1  0
 11  3  1  0
 12 13  2  0
 12 14  1  0
 14 15  1  0
 15 16  1  6
 15 23  1  0
 16 17  1  0
 17 22  2  0
 18 19  2  0
 18 17  1  0
 19 20  1  0
 20 21  2  0
 22 21  1  0
 23 24  1  0
 25 23  2  0
M  END
$$$$
