GQF.pdb
     RDKit          3D

 25 25  0  0  1  0  0  0  0  0999 V2000
   27.0011  -19.9801  -19.1776 N   0  0  0  0  0  0  0  0  0  0  0  0
   25.5864  -20.2133  -19.0674 C   0  0  0  0  0  0  0  0  0  0  0  0
   25.1006  -19.9312  -17.6704 C   0  0  0  0  0  0  0  0  0  0  0  0
   25.8289  -20.2272  -16.6778 O   0  0  0  0  0  0  0  0  0  0  0  0
   20.6816  -15.8673  -16.5851 N   0  0  0  0  0  0  0  0  0  0  0  0
   22.0254  -15.5154  -16.8072 C   0  0  0  0  0  0  0  0  0  0  0  0
   22.3558  -14.3469  -17.1664 O   0  0  0  0  0  0  0  0  0  0  0  0
   23.0610  -16.5657  -16.6062 C   0  0  0  0  0  0  0  0  0  0  0  0
   22.3710  -17.8571  -16.2351 C   0  0  0  0  0  0  0  0  0  0  0  0
   23.3541  -18.9986  -16.1030 C   0  0  2  0  0  0  0  0  0  0  0  0
   23.8370  -19.3372  -17.4319 N   0  0  0  0  0  0  0  0  0  0  0  0
   22.6147  -20.1341  -15.4910 C   0  0  0  0  0  0  0  0  0  0  0  0
   21.8824  -20.8464  -16.1994 O   0  0  0  0  0  0  0  0  0  0  0  0
   22.7533  -20.3922  -14.1033 N   0  0  0  0  0  0  0  0  0  0  0  0
   22.1015  -21.5314  -13.4376 C   0  0  1  0  0  0  0  0  0  0  0  0
   23.1530  -22.4105  -12.7886 C   0  0  0  0  0  0  0  0  0  0  0  0
   24.0167  -21.7059  -11.8311 C   0  0  0  0  0  0  0  0  0  0  0  0
   25.3194  -21.3671  -12.1613 C   0  0  0  0  0  0  0  0  0  0  0  0
   26.1392  -20.6972  -11.2748 C   0  0  0  0  0  0  0  0  0  0  0  0
   25.6944  -20.3389  -10.0257 C   0  0  0  0  0  0  0  0  0  0  0  0
   24.4001  -20.6696   -9.6829 C   0  0  0  0  0  0  0  0  0  0  0  0
   23.5775  -21.3444  -10.5791 C   0  0  0  0  0  0  0  0  0  0  0  0
   21.0354  -21.0991  -12.5411 C   0  0  0  0  0  0  0  0  0  0  0  0
   20.1112  -22.0117  -12.0638 O   0  0  0  0  0  0  0  0  0  0  0  0
   20.8780  -19.8982  -12.1447 O   0  0  0  0  0  0  0  0  0  0  0  0
  1  2  1  0
  3  2  1  0
  4  3  2  0
  5  6  1  0
  6  7  2  0
  8  9  1  0
  8  6  1  0
 10  9  1  6
 10 11  1  0
 10 12  1  0
 11  3  1  0
 12 13  2  0
 12 14  1  0
 14 15  1  0
 15 16  1  1
 15 23  1  0
 16 17  1  0
 17 22  2  0
 18 19  2  0
 18 17  1  0
 19 20  1  0
 20 21  2  0
 22 21  1  0
 23 24  1  0
 25 23  2  0
M  END
$$$$
