GQF.pdb
     RDKit          3D

 25 25  0  0  1  0  0  0  0  0999 V2000
   22.3356  -11.0902  -16.3661 N   0  0  0  0  0  0  0  0  0  0  0  0
   20.9653  -10.8267  -16.7138 C   0  0  0  0  0  0  0  0  0  0  0  0
   20.6405   -9.3649  -16.5563 C   0  0  0  0  0  0  0  0  0  0  0  0
   21.2873   -8.5004  -17.2177 O   0  0  0  0  0  0  0  0  0  0  0  0
   15.1716   -8.2706  -14.8960 N   0  0  0  0  0  0  0  0  0  0  0  0
   15.4636   -8.0302  -16.2510 C   0  0  0  0  0  0  0  0  0  0  0  0
   14.5849   -8.1604  -17.1535 O   0  0  0  0  0  0  0  0  0  0  0  0
   16.8495   -7.6135  -16.5996 C   0  0  0  0  0  0  0  0  0  0  0  0
   17.6701   -7.5634  -15.3326 C   0  0  0  0  0  0  0  0  0  0  0  0
   19.1534   -7.5479  -15.6272 C   0  0  2  0  0  0  0  0  0  0  0  0
   19.6199   -8.9239  -15.6787 N   0  0  0  0  0  0  0  0  0  0  0  0
   19.8037   -6.7977  -14.5202 C   0  0  0  0  0  0  0  0  0  0  0  0
   19.7077   -7.2147  -13.3530 O   0  0  0  0  0  0  0  0  0  0  0  0
   20.5273   -5.6126  -14.8090 N   0  0  0  0  0  0  0  0  0  0  0  0
   21.2906   -4.8783  -13.7873 C   0  0  1  0  0  0  0  0  0  0  0  0
   22.5899   -5.6066  -13.5022 C   0  0  0  0  0  0  0  0  0  0  0  0
   23.3900   -5.8977  -14.6999 C   0  0  0  0  0  0  0  0  0  0  0  0
   24.0685   -4.8896  -15.3664 C   0  0  0  0  0  0  0  0  0  0  0  0
   24.8312   -5.1502  -16.4877 C   0  0  0  0  0  0  0  0  0  0  0  0
   24.9479   -6.4237  -16.9888 C   0  0  0  0  0  0  0  0  0  0  0  0
   24.2780   -7.4371  -16.3360 C   0  0  0  0  0  0  0  0  0  0  0  0
   23.5109   -7.1704  -15.2066 C   0  0  0  0  0  0  0  0  0  0  0  0
   21.4484   -3.4707  -14.1345 C   0  0  0  0  0  0  0  0  0  0  0  0
   22.0176   -2.5884  -13.2332 O   0  0  0  0  0  0  0  0  0  0  0  0
   21.0891   -2.9645  -15.2476 O   0  0  0  0  0  0  0  0  0  0  0  0
  1  2  1  0
  3  2  1  0
  4  3  2  0
  5  6  1  0
  6  7  2  0
  8  9  1  0
  8  6  1  0
 10  9  1  1
 10 11  1  0
 10 12  1  0
 11  3  1  0
 12 13  2  0
 12 14  1  0
 14 15  1  0
 15 16  1  6
 15 23  1  0
 16 17  1  0
 17 22  2  0
 18 19  2  0
 18 17  1  0
 19 20  1  0
 20 21  2  0
 22 21  1  0
 23 24  1  0
 25 23  2  0
M  END
$$$$
