GQF.pdb
     RDKit          3D

 25 25  0  0  1  0  0  0  0  0999 V2000
   27.9137  -20.7664  -16.6302 N   0  0  0  0  0  0  0  0  0  0  0  0
   28.2347  -21.1779  -15.2902 C   0  0  0  0  0  0  0  0  0  0  0  0
   27.3870  -20.4460  -14.2838 C   0  0  0  0  0  0  0  0  0  0  0  0
   26.8958  -19.3161  -14.5758 O   0  0  0  0  0  0  0  0  0  0  0  0
   24.1347  -24.1074  -13.7535 N   0  0  0  0  0  0  0  0  0  0  0  0
   23.7706  -22.8433  -13.2552 C   0  0  0  0  0  0  0  0  0  0  0  0
   22.7897  -22.1988  -13.7307 O   0  0  0  0  0  0  0  0  0  0  0  0
   24.5788  -22.2767  -12.1409 C   0  0  0  0  0  0  0  0  0  0  0  0
   24.8006  -20.8064  -12.4064 C   0  0  0  0  0  0  0  0  0  0  0  0
   26.2076  -20.3801  -12.0519 C   0  0  2  0  0  0  0  0  0  0  0  0
   27.1203  -20.9917  -13.0042 N   0  0  0  0  0  0  0  0  0  0  0  0
   26.4671  -20.8612  -10.6690 C   0  0  0  0  0  0  0  0  0  0  0  0
   26.7162  -22.0629  -10.4708 O   0  0  0  0  0  0  0  0  0  0  0  0
   26.4272  -19.9419   -9.5898 N   0  0  0  0  0  0  0  0  0  0  0  0
   26.8050  -20.3115   -8.2163 C   0  0  1  0  0  0  0  0  0  0  0  0
   27.7400  -19.2625   -7.6464 C   0  0  0  0  0  0  0  0  0  0  0  0
   28.1087  -19.4866   -6.2417 C   0  0  0  0  0  0  0  0  0  0  0  0
   27.5042  -18.7679   -5.2224 C   0  0  0  0  0  0  0  0  0  0  0  0
   27.8345  -18.9745   -3.8976 C   0  0  0  0  0  0  0  0  0  0  0  0
   28.7790  -19.9040   -3.5363 C   0  0  0  0  0  0  0  0  0  0  0  0
   29.3891  -20.6267   -4.5399 C   0  0  0  0  0  0  0  0  0  0  0  0
   29.0534  -20.4156   -5.8733 C   0  0  0  0  0  0  0  0  0  0  0  0
   25.6375  -20.5961   -7.3899 C   0  0  0  0  0  0  0  0  0  0  0  0
   24.4170  -20.0122   -7.6804 O   0  0  0  0  0  0  0  0  0  0  0  0
   25.6497  -21.3710   -6.3782 O   0  0  0  0  0  0  0  0  0  0  0  0
  1  2  1  0
  3  2  1  0
  4  3  2  0
  5  6  1  0
  6  7  2  0
  8  9  1  0
  8  6  1  0
 10  9  1  6
 10 11  1  0
 10 12  1  0
 11  3  1  0
 12 13  2  0
 12 14  1  0
 14 15  1  0
 15 16  1  1
 15 23  1  0
 16 17  1  0
 17 22  2  0
 18 19  2  0
 18 17  1  0
 19 20  1  0
 20 21  2  0
 22 21  1  0
 23 24  1  0
 25 23  2  0
M  END
$$$$
