GQF.pdb
     RDKit          3D

 25 25  0  0  1  0  0  0  0  0999 V2000
   25.3087  -17.3385  -17.8025 N   0  0  0  0  0  0  0  0  0  0  0  0
   24.9234  -17.2373  -16.4207 C   0  0  0  0  0  0  0  0  0  0  0  0
   25.0554  -18.5664  -15.7254 C   0  0  0  0  0  0  0  0  0  0  0  0
   24.3447  -19.5460  -16.0975 O   0  0  0  0  0  0  0  0  0  0  0  0
   28.8277  -21.0998  -16.4528 N   0  0  0  0  0  0  0  0  0  0  0  0
   28.4526  -21.2116  -15.1016 C   0  0  0  0  0  0  0  0  0  0  0  0
   28.0735  -22.3136  -14.6061 O   0  0  0  0  0  0  0  0  0  0  0  0
   28.5140  -19.9855  -14.2597 C   0  0  0  0  0  0  0  0  0  0  0  0
   27.4059  -20.0491  -13.2353 C   0  0  0  0  0  0  0  0  0  0  0  0
   26.0409  -19.9844  -13.8831 C   0  0  2  0  0  0  0  0  0  0  0  0
   25.9627  -18.7544  -14.6541 N   0  0  0  0  0  0  0  0  0  0  0  0
   25.0416  -19.9969  -12.7821 C   0  0  0  0  0  0  0  0  0  0  0  0
   25.2062  -19.2637  -11.7918 O   0  0  0  0  0  0  0  0  0  0  0  0
   23.9099  -20.8467  -12.8744 N   0  0  0  0  0  0  0  0  0  0  0  0
   22.8160  -20.8235  -11.8902 C   0  0  1  0  0  0  0  0  0  0  0  0
   22.3151  -19.4023  -11.7202 C   0  0  0  0  0  0  0  0  0  0  0  0
   21.3724  -18.9696  -12.7611 C   0  0  0  0  0  0  0  0  0  0  0  0
   20.0087  -18.9319  -12.5169 C   0  0  0  0  0  0  0  0  0  0  0  0
   19.1122  -18.5190  -13.4827 C   0  0  0  0  0  0  0  0  0  0  0  0
   19.5384  -18.1280  -14.7285 C   0  0  0  0  0  0  0  0  0  0  0  0
   20.8929  -18.1605  -14.9861 C   0  0  0  0  0  0  0  0  0  0  0  0
   21.7925  -18.5769  -14.0102 C   0  0  0  0  0  0  0  0  0  0  0  0
   21.7785  -21.7979  -12.2084 C   0  0  0  0  0  0  0  0  0  0  0  0
   20.7425  -22.0300  -11.3209 O   0  0  0  0  0  0  0  0  0  0  0  0
   21.7466  -22.4830  -13.2825 O   0  0  0  0  0  0  0  0  0  0  0  0
  1  2  1  0
  3  2  1  0
  4  3  2  0
  5  6  1  0
  6  7  2  0
  8  9  1  0
  8  6  1  0
 10  9  1  1
 10 11  1  0
 10 12  1  0
 11  3  1  0
 12 13  2  0
 12 14  1  0
 14 15  1  0
 15 16  1  6
 15 23  1  0
 16 17  1  0
 17 22  2  0
 18 19  2  0
 18 17  1  0
 19 20  1  0
 20 21  2  0
 22 21  1  0
 23 24  1  0
 25 23  2  0
M  END
$$$$
