PWM.pdb
     RDKit          3D

 30 32  0  0  1  0  0  0  0  0999 V2000
    8.5683  -18.8561   19.6018 N   0  0  0  0  0  0  0  0  0  0  0  0
    8.5018  -19.2898   18.1998 C   0  0  0  0  0  0  0  0  0  0  0  0
    8.7797  -18.0300   17.3992 C   0  0  0  0  0  0  0  0  0  0  0  0
    9.4707  -17.1141   18.3841 C   0  0  0  0  0  0  0  0  0  0  0  0
    9.7557  -18.0185   19.5468 C   0  0  1  0  0  0  0  0  0  0  0  0
    9.9654  -17.2846   20.8144 C   0  0  0  0  0  0  0  0  0  0  0  0
   11.1149  -16.8495   21.0651 O   0  0  0  0  0  0  0  0  0  0  0  0
    8.9317  -17.0617   21.7358 N   0  0  0  0  0  0  0  0  0  0  0  0
    8.9974  -16.0173   22.7891 C   0  0  1  0  0  0  0  0  0  0  0  0
    7.7454  -15.1935   22.7271 C   0  0  0  0  0  0  0  0  0  0  0  0
    7.8462  -13.9962   23.5681 C   0  0  0  0  0  0  0  0  0  0  0  0
    8.7256  -12.9279   23.3655 C   0  0  0  0  0  0  0  0  0  0  0  0
    8.5305  -12.0487   24.3549 N   0  0  0  0  0  0  0  0  0  0  0  0
    7.5810  -12.4791   25.1855 C   0  0  0  0  0  0  0  0  0  0  0  0
    7.0096  -11.9639   26.3422 C   0  0  0  0  0  0  0  0  0  0  0  0
    6.0246  -12.6319   27.0184 C   0  0  0  0  0  0  0  0  0  0  0  0
    5.5725  -13.8512   26.5556 C   0  0  0  0  0  0  0  0  0  0  0  0
    6.1481  -14.3555   25.4028 C   0  0  0  0  0  0  0  0  0  0  0  0
    7.1420  -13.6808   24.7211 C   0  0  0  0  0  0  0  0  0  0  0  0
    9.2266  -16.7137   24.0623 C   0  0  0  0  0  0  0  0  0  0  0  0
    8.6633  -17.8455   24.2271 O   0  0  0  0  0  0  0  0  0  0  0  0
    9.7910  -14.1723   29.0427 C   0  0  0  0  0  0  0  0  0  0  0  0
   11.3165  -13.7904   28.1329 S   0  0  0  0  0  0  0  0  0  0  0  0
   11.5094  -14.9382   26.7207 C   0  0  0  0  0  0  0  0  0  0  0  0
   11.3162  -16.3664   27.1766 C   0  0  0  0  0  0  0  0  0  0  0  0
   10.3984  -17.1318   26.2469 C   0  0  2  0  0  0  0  0  0  0  0  0
   10.0183  -16.2660   25.1446 N   0  0  0  0  0  0  0  0  0  0  0  0
    9.2719  -17.7509   26.9466 C   0  0  0  0  0  0  0  0  0  0  0  0
    8.0969  -17.3377   26.6695 O   0  0  0  0  0  0  0  0  0  0  0  0
    9.3453  -18.7561   27.8947 O   0  0  0  0  0  0  0  0  0  0  0  0
  1  2  1  0
  3  2  1  0
  4  3  1  0
  5  4  1  0
  5  1  1  0
  6  7  2  0
  5  6  1  1
  8  6  1  0
  9  8  1  0
 10 11  1  0
  9 10  1  1
 11 12  2  0
 11 19  1  0
 12 13  1  0
 13 14  1  0
 14 15  2  0
 15 16  1  0
 17 16  2  0
 18 17  1  0
 19 18  2  0
 19 14  1  0
 20 27  1  0
 20  9  1  0
 21 20  2  0
 22 23  1  0
 23 24  1  0
 26 25  1  1
 25 24  1  0
 26 27  1  0
 28 26  1  0
 29 28  2  0
 30 28  1  0
M  END
$$$$
