PWM.pdb
     RDKit          3D

 30 32  0  0  1  0  0  0  0  0999 V2000
    8.1499  -15.8813   18.8928 N   0  0  0  0  0  0  0  0  0  0  0  0
    8.1878  -16.7569   17.7138 C   0  0  0  0  0  0  0  0  0  0  0  0
    9.4972  -17.5143   17.8457 C   0  0  0  0  0  0  0  0  0  0  0  0
    9.8477  -17.3893   19.3112 C   0  0  0  0  0  0  0  0  0  0  0  0
    8.5977  -16.8169   19.9119 C   0  0  1  0  0  0  0  0  0  0  0  0
    8.8334  -16.1417   21.2073 C   0  0  0  0  0  0  0  0  0  0  0  0
    9.0585  -14.9077   21.2010 O   0  0  0  0  0  0  0  0  0  0  0  0
    8.8138  -16.8290   22.4297 N   0  0  0  0  0  0  0  0  0  0  0  0
    9.2632  -16.2211   23.7076 C   0  0  1  0  0  0  0  0  0  0  0  0
    8.3651  -16.7005   24.8093 C   0  0  0  0  0  0  0  0  0  0  0  0
    7.2879  -15.7430   25.0811 C   0  0  0  0  0  0  0  0  0  0  0  0
    5.9383  -16.0619   25.2610 C   0  0  0  0  0  0  0  0  0  0  0  0
    5.2741  -14.9178   25.4601 N   0  0  0  0  0  0  0  0  0  0  0  0
    6.1071  -13.8779   25.4206 C   0  0  0  0  0  0  0  0  0  0  0  0
    5.9399  -12.5061   25.5617 C   0  0  0  0  0  0  0  0  0  0  0  0
    6.9951  -11.6387   25.4723 C   0  0  0  0  0  0  0  0  0  0  0  0
    8.2673  -12.1191   25.2362 C   0  0  0  0  0  0  0  0  0  0  0  0
    8.4231  -13.4870   25.0973 C   0  0  0  0  0  0  0  0  0  0  0  0
    7.3579  -14.3616   25.1876 C   0  0  0  0  0  0  0  0  0  0  0  0
   10.6833  -16.5639   23.8633 C   0  0  0  0  0  0  0  0  0  0  0  0
   11.0571  -17.7225   23.4847 O   0  0  0  0  0  0  0  0  0  0  0  0
   11.2095  -14.3061   29.6790 C   0  0  0  0  0  0  0  0  0  0  0  0
   10.4944  -13.5169   28.2070 S   0  0  0  0  0  0  0  0  0  0  0  0
   11.3603  -14.0944   26.7018 C   0  0  0  0  0  0  0  0  0  0  0  0
   11.6466  -15.5755   26.7981 C   0  0  0  0  0  0  0  0  0  0  0  0
   12.4310  -16.0732   25.6026 C   0  0  2  0  0  0  0  0  0  0  0  0
   11.7030  -15.7391   24.3911 N   0  0  0  0  0  0  0  0  0  0  0  0
   12.8018  -17.4844   25.7163 C   0  0  0  0  0  0  0  0  0  0  0  0
   14.0349  -17.7895   25.5953 O   0  0  0  0  0  0  0  0  0  0  0  0
   11.9423  -18.5443   25.9456 O   0  0  0  0  0  0  0  0  0  0  0  0
  1  2  1  0
  3  2  1  0
  4  3  1  0
  5  4  1  0
  5  1  1  0
  6  7  2  0
  5  6  1  1
  8  6  1  0
  9  8  1  0
 10 11  1  0
  9 10  1  1
 11 12  2  0
 11 19  1  0
 12 13  1  0
 13 14  1  0
 14 15  2  0
 15 16  1  0
 17 16  2  0
 18 17  1  0
 19 18  2  0
 19 14  1  0
 20 27  1  0
 20  9  1  0
 21 20  2  0
 22 23  1  0
 23 24  1  0
 26 25  1  1
 25 24  1  0
 26 27  1  0
 28 26  1  0
 29 28  2  0
 30 28  1  0
M  END
$$$$
