PWM.pdb
     RDKit          3D

 30 32  0  0  1  0  0  0  0  0999 V2000
    8.0537  -15.9262   20.2087 N   0  0  0  0  0  0  0  0  0  0  0  0
    7.7797  -15.5702   18.8100 C   0  0  0  0  0  0  0  0  0  0  0  0
    7.7275  -14.0527   18.8080 C   0  0  0  0  0  0  0  0  0  0  0  0
    8.4642  -13.6583   20.0682 C   0  0  0  0  0  0  0  0  0  0  0  0
    9.0850  -14.9485   20.5167 C   0  0  1  0  0  0  0  0  0  0  0  0
    9.4321  -14.9557   21.9551 C   0  0  0  0  0  0  0  0  0  0  0  0
   10.2324  -14.0867   22.3768 O   0  0  0  0  0  0  0  0  0  0  0  0
    8.9011  -15.8927   22.8536 N   0  0  0  0  0  0  0  0  0  0  0  0
    9.0400  -15.7704   24.3268 C   0  0  1  0  0  0  0  0  0  0  0  0
    7.8024  -16.3194   24.9728 C   0  0  0  0  0  0  0  0  0  0  0  0
    6.7966  -15.2734   25.1854 C   0  0  0  0  0  0  0  0  0  0  0  0
    5.4182  -15.4158   24.9970 C   0  0  0  0  0  0  0  0  0  0  0  0
    4.8477  -14.2364   25.2680 N   0  0  0  0  0  0  0  0  0  0  0  0
    5.7684  -13.3389   25.6198 C   0  0  0  0  0  0  0  0  0  0  0  0
    5.7149  -12.0011   25.9900 C   0  0  0  0  0  0  0  0  0  0  0  0
    6.8440  -11.2960   26.3088 C   0  0  0  0  0  0  0  0  0  0  0  0
    8.0786  -11.9118   26.2679 C   0  0  0  0  0  0  0  0  0  0  0  0
    8.1210  -13.2445   25.8981 C   0  0  0  0  0  0  0  0  0  0  0  0
    6.9812  -13.9553   25.5765 C   0  0  0  0  0  0  0  0  0  0  0  0
   10.2908  -16.4490   24.6920 C   0  0  0  0  0  0  0  0  0  0  0  0
   10.8896  -17.1144   23.7842 O   0  0  0  0  0  0  0  0  0  0  0  0
   10.1729  -14.9621   29.2339 C   0  0  0  0  0  0  0  0  0  0  0  0
   11.9847  -14.8610   29.3236 S   0  0  0  0  0  0  0  0  0  0  0  0
   12.7245  -15.4449   27.7550 C   0  0  0  0  0  0  0  0  0  0  0  0
   12.5819  -16.9450   27.6353 C   0  0  0  0  0  0  0  0  0  0  0  0
   12.0079  -17.3477   26.2933 C   0  0  2  0  0  0  0  0  0  0  0  0
   10.9206  -16.4454   25.9577 N   0  0  0  0  0  0  0  0  0  0  0  0
   11.6578  -18.7674   26.2303 C   0  0  0  0  0  0  0  0  0  0  0  0
   10.4222  -19.0744   26.1450 O   0  0  0  0  0  0  0  0  0  0  0  0
   12.5397  -19.8334   26.2534 O   0  0  0  0  0  0  0  0  0  0  0  0
  1  2  1  0
  3  2  1  0
  4  3  1  0
  5  4  1  0
  5  1  1  0
  6  7  2  0
  5  6  1  1
  8  6  1  0
  9  8  1  0
 10 11  1  0
  9 10  1  1
 11 12  2  0
 11 19  1  0
 12 13  1  0
 13 14  1  0
 14 15  2  0
 15 16  1  0
 17 16  2  0
 18 17  1  0
 19 18  2  0
 19 14  1  0
 20 27  1  0
 20  9  1  0
 21 20  2  0
 22 23  1  0
 23 24  1  0
 26 25  1  1
 25 24  1  0
 26 27  1  0
 28 26  1  0
 29 28  2  0
 30 28  1  0
M  END
$$$$
