PWM.pdb
     RDKit          3D

 30 32  0  0  1  0  0  0  0  0999 V2000
    8.4013  -18.3744   19.3657 N   0  0  0  0  0  0  0  0  0  0  0  0
    8.1368  -18.9125   18.0245 C   0  0  0  0  0  0  0  0  0  0  0  0
    8.1562  -17.6955   17.1168 C   0  0  0  0  0  0  0  0  0  0  0  0
    8.9175  -16.6577   17.9103 C   0  0  0  0  0  0  0  0  0  0  0  0
    9.4792  -17.4494   19.0543 C   0  0  1  0  0  0  0  0  0  0  0  0
    9.8334  -16.6111   20.2210 C   0  0  0  0  0  0  0  0  0  0  0  0
   10.8436  -15.8721   20.1359 O   0  0  0  0  0  0  0  0  0  0  0  0
    9.0847  -16.6153   21.4069 N   0  0  0  0  0  0  0  0  0  0  0  0
    9.3666  -15.7051   22.5455 C   0  0  1  0  0  0  0  0  0  0  0  0
    8.2907  -14.6614   22.6035 C   0  0  0  0  0  0  0  0  0  0  0  0
    7.5600  -14.7112   23.8742 C   0  0  0  0  0  0  0  0  0  0  0  0
    7.1521  -15.8733   24.5365 C   0  0  0  0  0  0  0  0  0  0  0  0
    6.4959  -15.5014   25.6415 N   0  0  0  0  0  0  0  0  0  0  0  0
    6.4525  -14.1726   25.7374 C   0  0  0  0  0  0  0  0  0  0  0  0
    5.9071  -13.2928   26.6637 C   0  0  0  0  0  0  0  0  0  0  0  0
    6.0087  -11.9358   26.5152 C   0  0  0  0  0  0  0  0  0  0  0  0
    6.6665  -11.4069   25.4231 C   0  0  0  0  0  0  0  0  0  0  0  0
    7.2062  -12.2917   24.5064 C   0  0  0  0  0  0  0  0  0  0  0  0
    7.1033  -13.6608   24.6570 C   0  0  0  0  0  0  0  0  0  0  0  0
    9.4862  -16.5486   23.7425 C   0  0  0  0  0  0  0  0  0  0  0  0
    9.5425  -17.8110   23.5733 O   0  0  0  0  0  0  0  0  0  0  0  0
   10.9369  -13.0971   29.1582 C   0  0  0  0  0  0  0  0  0  0  0  0
   11.5750  -14.7345   29.6196 S   0  0  0  0  0  0  0  0  0  0  0  0
   11.7426  -15.7853   28.1308 C   0  0  0  0  0  0  0  0  0  0  0  0
   10.6307  -15.4868   27.1513 C   0  0  0  0  0  0  0  0  0  0  0  0
   10.6795  -16.4082   25.9508 C   0  0  2  0  0  0  0  0  0  0  0  0
    9.5511  -16.1124   25.0857 N   0  0  0  0  0  0  0  0  0  0  0  0
   10.8029  -17.8180   26.3238 C   0  0  0  0  0  0  0  0  0  0  0  0
    9.7869  -18.5714   26.1554 O   0  0  0  0  0  0  0  0  0  0  0  0
   11.9249  -18.4341   26.8494 O   0  0  0  0  0  0  0  0  0  0  0  0
  1  2  1  0
  3  2  1  0
  4  3  1  0
  5  4  1  0
  5  1  1  0
  6  7  2  0
  5  6  1  1
  8  6  1  0
  9  8  1  0
 10 11  1  0
  9 10  1  1
 11 12  2  0
 11 19  1  0
 12 13  1  0
 13 14  1  0
 14 15  2  0
 15 16  1  0
 17 16  2  0
 18 17  1  0
 19 18  2  0
 19 14  1  0
 20 27  1  0
 20  9  1  0
 21 20  2  0
 22 23  1  0
 23 24  1  0
 26 25  1  1
 25 24  1  0
 26 27  1  0
 28 26  1  0
 29 28  2  0
 30 28  1  0
M  END
$$$$
