PWM.pdb
     RDKit          3D

 30 32  0  0  1  0  0  0  0  0999 V2000
    8.5925  -15.6104   18.8788 N   0  0  0  0  0  0  0  0  0  0  0  0
    8.5413  -15.2786   17.4486 C   0  0  0  0  0  0  0  0  0  0  0  0
    8.2130  -13.7965   17.4144 C   0  0  0  0  0  0  0  0  0  0  0  0
    8.5996  -13.3031   18.7904 C   0  0  0  0  0  0  0  0  0  0  0  0
    9.3448  -14.4681   19.3722 C   0  0  1  0  0  0  0  0  0  0  0  0
    9.3946  -14.4445   20.8509 C   0  0  0  0  0  0  0  0  0  0  0  0
   10.0660  -13.5430   21.4077 O   0  0  0  0  0  0  0  0  0  0  0  0
    8.7226  -15.3873   21.6425 N   0  0  0  0  0  0  0  0  0  0  0  0
    8.5760  -15.2519   23.1137 C   0  0  1  0  0  0  0  0  0  0  0  0
    7.3062  -15.9307   23.5342 C   0  0  0  0  0  0  0  0  0  0  0  0
    6.5593  -15.1230   24.5042 C   0  0  0  0  0  0  0  0  0  0  0  0
    5.3854  -15.5109   25.1577 C   0  0  0  0  0  0  0  0  0  0  0  0
    5.0004  -14.4942   25.9374 N   0  0  0  0  0  0  0  0  0  0  0  0
    5.8497  -13.4723   25.8307 C   0  0  0  0  0  0  0  0  0  0  0  0
    5.9127  -12.2103   26.4076 C   0  0  0  0  0  0  0  0  0  0  0  0
    6.9215  -11.3331   26.1133 C   0  0  0  0  0  0  0  0  0  0  0  0
    7.9124  -11.6923   25.2221 C   0  0  0  0  0  0  0  0  0  0  0  0
    7.8405  -12.9516   24.6531 C   0  0  0  0  0  0  0  0  0  0  0  0
    6.8222  -13.8361   24.9507 C   0  0  0  0  0  0  0  0  0  0  0  0
    9.8035  -15.7927   23.7132 C   0  0  0  0  0  0  0  0  0  0  0  0
   10.5632  -16.4980   22.9710 O   0  0  0  0  0  0  0  0  0  0  0  0
    9.7444  -15.0153   30.6075 C   0  0  0  0  0  0  0  0  0  0  0  0
   11.1730  -15.0189   29.4850 S   0  0  0  0  0  0  0  0  0  0  0  0
   10.6867  -15.6863   27.8520 C   0  0  0  0  0  0  0  0  0  0  0  0
   11.8260  -15.5458   26.8685 C   0  0  0  0  0  0  0  0  0  0  0  0
   11.4945  -16.1780   25.5333 C   0  0  2  0  0  0  0  0  0  0  0  0
   10.2493  -15.6139   25.0429 N   0  0  0  0  0  0  0  0  0  0  0  0
   11.5206  -17.6406   25.5772 C   0  0  0  0  0  0  0  0  0  0  0  0
   10.4070  -18.2600   25.5111 O   0  0  0  0  0  0  0  0  0  0  0  0
   12.6450  -18.4398   25.6846 O   0  0  0  0  0  0  0  0  0  0  0  0
  1  2  1  0
  3  2  1  0
  4  3  1  0
  5  4  1  0
  5  1  1  0
  6  7  2  0
  5  6  1  1
  8  6  1  0
  9  8  1  0
 10 11  1  0
  9 10  1  1
 11 12  2  0
 11 19  1  0
 12 13  1  0
 13 14  1  0
 14 15  2  0
 15 16  1  0
 17 16  2  0
 18 17  1  0
 19 18  2  0
 19 14  1  0
 20 27  1  0
 20  9  1  0
 21 20  2  0
 22 23  1  0
 23 24  1  0
 26 25  1  1
 25 24  1  0
 26 27  1  0
 28 26  1  0
 29 28  2  0
 30 28  1  0
M  END
$$$$
