PWM.pdb
     RDKit          3D

 30 32  0  0  1  0  0  0  0  0999 V2000
    8.2464  -15.6624   19.7694 N   0  0  0  0  0  0  0  0  0  0  0  0
    8.0144  -15.2469   18.3795 C   0  0  0  0  0  0  0  0  0  0  0  0
    7.8108  -13.7445   18.4616 C   0  0  0  0  0  0  0  0  0  0  0  0
    8.4349  -13.3611   19.7844 C   0  0  0  0  0  0  0  0  0  0  0  0
    9.1564  -14.6110   20.1945 C   0  0  1  0  0  0  0  0  0  0  0  0
    9.4240  -14.6754   21.6484 C   0  0  0  0  0  0  0  0  0  0  0  0
   10.1510  -13.7891   22.1579 O   0  0  0  0  0  0  0  0  0  0  0  0
    8.8970  -15.6846   22.4675 N   0  0  0  0  0  0  0  0  0  0  0  0
    8.8235  -15.5711   23.9461 C   0  0  1  0  0  0  0  0  0  0  0  0
    7.5832  -16.2692   24.4200 C   0  0  0  0  0  0  0  0  0  0  0  0
    6.5933  -15.3177   24.9358 C   0  0  0  0  0  0  0  0  0  0  0  0
    5.2341  -15.5805   25.1335 C   0  0  0  0  0  0  0  0  0  0  0  0
    4.6660  -14.4579   25.5885 N   0  0  0  0  0  0  0  0  0  0  0  0
    5.5702  -13.4847   25.6981 C   0  0  0  0  0  0  0  0  0  0  0  0
    5.5110  -12.1592   26.1095 C   0  0  0  0  0  0  0  0  0  0  0  0
    6.6215  -11.3589   26.1237 C   0  0  0  0  0  0  0  0  0  0  0  0
    7.8423  -11.8627   25.7225 C   0  0  0  0  0  0  0  0  0  0  0  0
    7.8905  -13.1841   25.3146 C   0  0  0  0  0  0  0  0  0  0  0  0
    6.7695  -13.9909   25.3006 C   0  0  0  0  0  0  0  0  0  0  0  0
   10.0849  -16.1072   24.4752 C   0  0  0  0  0  0  0  0  0  0  0  0
   10.8875  -16.6545   23.6496 O   0  0  0  0  0  0  0  0  0  0  0  0
   13.2391  -15.1300   30.4775 C   0  0  0  0  0  0  0  0  0  0  0  0
   11.5160  -14.9154   29.9430 S   0  0  0  0  0  0  0  0  0  0  0  0
   11.3850  -15.1566   28.1338 C   0  0  0  0  0  0  0  0  0  0  0  0
   11.9013  -16.5242   27.7491 C   0  0  0  0  0  0  0  0  0  0  0  0
   11.6927  -16.8078   26.2765 C   0  0  2  0  0  0  0  0  0  0  0  0
   10.5207  -16.0818   25.8199 N   0  0  0  0  0  0  0  0  0  0  0  0
   11.6745  -18.2393   25.9726 C   0  0  0  0  0  0  0  0  0  0  0  0
   12.7751  -18.8802   26.0498 O   0  0  0  0  0  0  0  0  0  0  0  0
   10.5705  -18.9873   25.6035 O   0  0  0  0  0  0  0  0  0  0  0  0
  1  2  1  0
  3  2  1  0
  4  3  1  0
  5  4  1  0
  5  1  1  0
  6  7  2  0
  5  6  1  1
  8  6  1  0
  9  8  1  0
 10 11  1  0
  9 10  1  1
 11 12  2  0
 11 19  1  0
 12 13  1  0
 13 14  1  0
 14 15  2  0
 15 16  1  0
 17 16  2  0
 18 17  1  0
 19 18  2  0
 19 14  1  0
 20 27  1  0
 20  9  1  0
 21 20  2  0
 22 23  1  0
 23 24  1  0
 26 25  1  1
 25 24  1  0
 26 27  1  0
 28 26  1  0
 29 28  2  0
 30 28  1  0
M  END
$$$$
