PWM.pdb
     RDKit          3D

 30 32  0  0  1  0  0  0  0  0999 V2000
    8.6137  -15.4481   18.4544 N   0  0  0  0  0  0  0  0  0  0  0  0
    8.5637  -15.0579   17.0389 C   0  0  0  0  0  0  0  0  0  0  0  0
    8.2789  -13.5667   17.0663 C   0  0  0  0  0  0  0  0  0  0  0  0
    8.6879  -13.1403   18.4580 C   0  0  0  0  0  0  0  0  0  0  0  0
    9.4021  -14.3488   18.9876 C   0  0  1  0  0  0  0  0  0  0  0  0
    9.4612  -14.3860   20.4657 C   0  0  0  0  0  0  0  0  0  0  0  0
   10.1261  -13.5007   21.0554 O   0  0  0  0  0  0  0  0  0  0  0  0
    8.8051  -15.3685   21.2215 N   0  0  0  0  0  0  0  0  0  0  0  0
    8.5347  -15.2258   22.6744 C   0  0  1  0  0  0  0  0  0  0  0  0
    7.0972  -15.5689   22.9311 C   0  0  0  0  0  0  0  0  0  0  0  0
    6.7125  -15.2759   24.3158 C   0  0  0  0  0  0  0  0  0  0  0  0
    6.1835  -16.1944   25.2279 C   0  0  0  0  0  0  0  0  0  0  0  0
    5.9404  -15.5392   26.3687 N   0  0  0  0  0  0  0  0  0  0  0  0
    6.2781  -14.2547   26.2540 C   0  0  0  0  0  0  0  0  0  0  0  0
    6.2303  -13.1673   27.1169 C   0  0  0  0  0  0  0  0  0  0  0  0
    6.6511  -11.9229   26.7319 C   0  0  0  0  0  0  0  0  0  0  0  0
    7.1394  -11.7218   25.4567 C   0  0  0  0  0  0  0  0  0  0  0  0
    7.1828  -12.8114   24.6049 C   0  0  0  0  0  0  0  0  0  0  0  0
    6.7580  -14.0667   24.9942 C   0  0  0  0  0  0  0  0  0  0  0  0
    9.5143  -16.0697   23.3723 C   0  0  0  0  0  0  0  0  0  0  0  0
   10.0156  -17.0496   22.7291 O   0  0  0  0  0  0  0  0  0  0  0  0
   10.7458  -13.0671   28.5549 C   0  0  0  0  0  0  0  0  0  0  0  0
   11.3491  -14.7525   28.8656 S   0  0  0  0  0  0  0  0  0  0  0  0
   10.7026  -15.8957   27.5913 C   0  0  0  0  0  0  0  0  0  0  0  0
   11.6615  -15.9768   26.4256 C   0  0  0  0  0  0  0  0  0  0  0  0
   11.0546  -16.7153   25.2514 C   0  0  2  0  0  0  0  0  0  0  0  0
    9.9764  -15.9142   24.6993 N   0  0  0  0  0  0  0  0  0  0  0  0
   10.6792  -18.0911   25.5805 C   0  0  0  0  0  0  0  0  0  0  0  0
   11.6147  -18.9202   25.8369 O   0  0  0  0  0  0  0  0  0  0  0  0
    9.3939  -18.5994   25.6452 O   0  0  0  0  0  0  0  0  0  0  0  0
  1  2  1  0
  3  2  1  0
  4  3  1  0
  5  4  1  0
  5  1  1  0
  6  7  2  0
  5  6  1  1
  8  6  1  0
  9  8  1  0
 10 11  1  0
  9 10  1  6
 11 12  2  0
 11 19  1  0
 12 13  1  0
 13 14  1  0
 14 15  2  0
 15 16  1  0
 17 16  2  0
 18 17  1  0
 19 18  2  0
 19 14  1  0
 20 27  1  0
 20  9  1  0
 21 20  2  0
 22 23  1  0
 23 24  1  0
 26 25  1  1
 25 24  1  0
 26 27  1  0
 28 26  1  0
 29 28  2  0
 30 28  1  0
M  END
$$$$
