PWM.pdb
     RDKit          3D

 30 32  0  0  1  0  0  0  0  0999 V2000
    8.2743  -15.5796   19.1639 N   0  0  0  0  0  0  0  0  0  0  0  0
    8.1222  -15.1828   17.7576 C   0  0  0  0  0  0  0  0  0  0  0  0
    7.9018  -13.6813   17.8088 C   0  0  0  0  0  0  0  0  0  0  0  0
    8.4429  -13.2768   19.1615 C   0  0  0  0  0  0  0  0  0  0  0  0
    9.1488  -14.5152   19.6293 C   0  0  1  0  0  0  0  0  0  0  0  0
    9.3299  -14.5600   21.0972 C   0  0  0  0  0  0  0  0  0  0  0  0
   10.0250  -13.6661   21.6369 O   0  0  0  0  0  0  0  0  0  0  0  0
    8.7557  -15.5588   21.8971 N   0  0  0  0  0  0  0  0  0  0  0  0
    8.6939  -15.4741   23.3781 C   0  0  1  0  0  0  0  0  0  0  0  0
    7.4419  -16.1549   23.8461 C   0  0  0  0  0  0  0  0  0  0  0  0
    6.6756  -15.3031   24.7617 C   0  0  0  0  0  0  0  0  0  0  0  0
    5.5278  -15.6844   25.4635 C   0  0  0  0  0  0  0  0  0  0  0  0
    5.1118  -14.6250   26.1668 N   0  0  0  0  0  0  0  0  0  0  0  0
    5.9167  -13.5817   25.9654 C   0  0  0  0  0  0  0  0  0  0  0  0
    5.9354  -12.2762   26.4396 C   0  0  0  0  0  0  0  0  0  0  0  0
    6.9030  -11.3855   26.0599 C   0  0  0  0  0  0  0  0  0  0  0  0
    7.8957  -11.7747   25.1833 C   0  0  0  0  0  0  0  0  0  0  0  0
    7.8680  -13.0771   24.7169 C   0  0  0  0  0  0  0  0  0  0  0  0
    6.8913  -13.9752   25.1006 C   0  0  0  0  0  0  0  0  0  0  0  0
    9.9468  -16.0478   23.8877 C   0  0  0  0  0  0  0  0  0  0  0  0
   10.6992  -16.6565   23.0578 O   0  0  0  0  0  0  0  0  0  0  0  0
    9.7309  -13.8146   28.6771 C   0  0  0  0  0  0  0  0  0  0  0  0
   11.5285  -14.0766   28.6489 S   0  0  0  0  0  0  0  0  0  0  0  0
   12.0464  -14.7003   27.0082 C   0  0  0  0  0  0  0  0  0  0  0  0
   12.0404  -16.2118   26.9970 C   0  0  0  0  0  0  0  0  0  0  0  0
   11.5773  -16.7602   25.6638 C   0  0  2  0  0  0  0  0  0  0  0  0
   10.4247  -15.9977   25.2173 N   0  0  0  0  0  0  0  0  0  0  0  0
   11.3722  -18.2091   25.6879 C   0  0  0  0  0  0  0  0  0  0  0  0
   10.1757  -18.6443   25.6029 O   0  0  0  0  0  0  0  0  0  0  0  0
   12.3554  -19.1768   25.7948 O   0  0  0  0  0  0  0  0  0  0  0  0
  1  2  1  0
  3  2  1  0
  4  3  1  0
  5  4  1  0
  5  1  1  0
  6  7  2  0
  5  6  1  1
  8  6  1  0
  9  8  1  0
 10 11  1  0
  9 10  1  1
 11 12  2  0
 11 19  1  0
 12 13  1  0
 13 14  1  0
 14 15  2  0
 15 16  1  0
 17 16  2  0
 18 17  1  0
 19 18  2  0
 19 14  1  0
 20 27  1  0
 20  9  1  0
 21 20  2  0
 22 23  1  0
 23 24  1  0
 26 25  1  1
 25 24  1  0
 26 27  1  0
 28 26  1  0
 29 28  2  0
 30 28  1  0
M  END
$$$$
