PWM.pdb
     RDKit          3D

 30 32  0  0  1  0  0  0  0  0999 V2000
    9.5946  -18.0191   18.9840 N   0  0  0  0  0  0  0  0  0  0  0  0
    9.7673  -18.3125   17.5549 C   0  0  0  0  0  0  0  0  0  0  0  0
    9.5397  -16.9798   16.8639 C   0  0  0  0  0  0  0  0  0  0  0  0
    9.7569  -15.9577   17.9567 C   0  0  0  0  0  0  0  0  0  0  0  0
   10.3385  -16.7731   19.0738 C   0  0  1  0  0  0  0  0  0  0  0  0
   10.1794  -16.1365   20.4000 C   0  0  0  0  0  0  0  0  0  0  0  0
   10.8415  -15.0992   20.6437 O   0  0  0  0  0  0  0  0  0  0  0  0
    9.3214  -16.6493   21.3839 N   0  0  0  0  0  0  0  0  0  0  0  0
    8.8647  -15.8562   22.5531 C   0  0  1  0  0  0  0  0  0  0  0  0
    7.3738  -15.9785   22.6632 C   0  0  0  0  0  0  0  0  0  0  0  0
    6.8825  -15.4472   23.9390 C   0  0  0  0  0  0  0  0  0  0  0  0
    6.2425  -16.1861   24.9389 C   0  0  0  0  0  0  0  0  0  0  0  0
    5.9270  -15.3422   25.9279 N   0  0  0  0  0  0  0  0  0  0  0  0
    6.3216  -14.1037   25.6326 C   0  0  0  0  0  0  0  0  0  0  0  0
    6.2409  -12.8853   26.2948 C   0  0  0  0  0  0  0  0  0  0  0  0
    6.7400  -11.7338   25.7484 C   0  0  0  0  0  0  0  0  0  0  0  0
    7.3436  -11.7621   24.5074 C   0  0  0  0  0  0  0  0  0  0  0  0
    7.4190  -12.9807   23.8562 C   0  0  0  0  0  0  0  0  0  0  0  0
    6.9151  -14.1421   24.4083 C   0  0  0  0  0  0  0  0  0  0  0  0
    9.6206  -16.3419   23.7155 C   0  0  0  0  0  0  0  0  0  0  0  0
   10.2828  -17.4230   23.5808 O   0  0  0  0  0  0  0  0  0  0  0  0
    9.4351  -14.0992   29.9329 C   0  0  0  0  0  0  0  0  0  0  0  0
   11.1554  -14.6725   29.8189 S   0  0  0  0  0  0  0  0  0  0  0  0
   11.3544  -15.7777   28.3740 C   0  0  0  0  0  0  0  0  0  0  0  0
   10.5018  -15.2939   27.2234 C   0  0  0  0  0  0  0  0  0  0  0  0
   10.5578  -16.2446   26.0463 C   0  0  2  0  0  0  0  0  0  0  0  0
    9.7025  -15.7342   24.9894 N   0  0  0  0  0  0  0  0  0  0  0  0
   10.2884  -17.6322   26.4259 C   0  0  0  0  0  0  0  0  0  0  0  0
    9.0861  -18.0514   26.3426 O   0  0  0  0  0  0  0  0  0  0  0  0
   11.2154  -18.5566   26.8740 O   0  0  0  0  0  0  0  0  0  0  0  0
  1  2  1  0
  3  2  1  0
  4  3  1  0
  5  4  1  0
  5  1  1  0
  6  7  2  0
  5  6  1  1
  8  6  1  0
  9  8  1  0
 10 11  1  0
  9 10  1  1
 11 12  2  0
 11 19  1  0
 12 13  1  0
 13 14  1  0
 14 15  2  0
 15 16  1  0
 17 16  2  0
 18 17  1  0
 19 18  2  0
 19 14  1  0
 20 27  1  0
 20  9  1  0
 21 20  2  0
 22 23  1  0
 23 24  1  0
 26 25  1  1
 25 24  1  0
 26 27  1  0
 28 26  1  0
 29 28  2  0
 30 28  1  0
M  END
$$$$
