PWM.pdb
     RDKit          3D

 30 32  0  0  1  0  0  0  0  0999 V2000
    8.6313  -18.4651   19.6112 N   0  0  0  0  0  0  0  0  0  0  0  0
    8.3665  -19.1339   18.3302 C   0  0  0  0  0  0  0  0  0  0  0  0
    8.1530  -17.9976   17.3460 C   0  0  0  0  0  0  0  0  0  0  0  0
    8.8021  -16.8065   18.0139 C   0  0  0  0  0  0  0  0  0  0  0  0
    9.5420  -17.4234   19.1642 C   0  0  1  0  0  0  0  0  0  0  0  0
    9.8409  -16.4586   20.2456 C   0  0  0  0  0  0  0  0  0  0  0  0
   10.7300  -15.5971   20.0432 O   0  0  0  0  0  0  0  0  0  0  0  0
    9.1698  -16.4754   21.4770 N   0  0  0  0  0  0  0  0  0  0  0  0
    9.3208  -15.4059   22.4959 C   0  0  1  0  0  0  0  0  0  0  0  0
    8.1223  -14.5063   22.4286 C   0  0  0  0  0  0  0  0  0  0  0  0
    7.3848  -14.4960   23.6963 C   0  0  0  0  0  0  0  0  0  0  0  0
    6.8173  -15.6116   24.3198 C   0  0  0  0  0  0  0  0  0  0  0  0
    6.2124  -15.1888   25.4357 N   0  0  0  0  0  0  0  0  0  0  0  0
    6.3518  -13.8704   25.5750 C   0  0  0  0  0  0  0  0  0  0  0  0
    5.9275  -12.9543   26.5291 C   0  0  0  0  0  0  0  0  0  0  0  0
    6.2157  -11.6202   26.4252 C   0  0  0  0  0  0  0  0  0  0  0  0
    6.9461  -11.1519   25.3517 C   0  0  0  0  0  0  0  0  0  0  0  0
    7.3639  -12.0725   24.4070 C   0  0  0  0  0  0  0  0  0  0  0  0
    7.0727  -13.4186   24.5126 C   0  0  0  0  0  0  0  0  0  0  0  0
    9.5288  -16.0767   23.7863 C   0  0  0  0  0  0  0  0  0  0  0  0
    9.7676  -17.3290   23.7703 O   0  0  0  0  0  0  0  0  0  0  0  0
   11.7510  -14.7267   31.3345 C   0  0  0  0  0  0  0  0  0  0  0  0
   10.7909  -14.1888   29.8889 S   0  0  0  0  0  0  0  0  0  0  0  0
   11.0126  -15.3735   28.5118 C   0  0  0  0  0  0  0  0  0  0  0  0
   10.1930  -14.9456   27.3160 C   0  0  0  0  0  0  0  0  0  0  0  0
   10.4114  -15.8618   26.1305 C   0  0  2  0  0  0  0  0  0  0  0  0
    9.4977  -15.4807   25.0679 N   0  0  0  0  0  0  0  0  0  0  0  0
   10.3610  -17.2787   26.4930 C   0  0  0  0  0  0  0  0  0  0  0  0
    9.2240  -17.8579   26.4815 O   0  0  0  0  0  0  0  0  0  0  0  0
   11.4345  -18.0737   26.8538 O   0  0  0  0  0  0  0  0  0  0  0  0
  1  2  1  0
  3  2  1  0
  4  3  1  0
  5  4  1  0
  5  1  1  0
  6  7  2  0
  5  6  1  1
  8  6  1  0
  9  8  1  0
 10 11  1  0
  9 10  1  1
 11 12  2  0
 11 19  1  0
 12 13  1  0
 13 14  1  0
 14 15  2  0
 15 16  1  0
 17 16  2  0
 18 17  1  0
 19 18  2  0
 19 14  1  0
 20 27  1  0
 20  9  1  0
 21 20  2  0
 22 23  1  0
 23 24  1  0
 26 25  1  1
 25 24  1  0
 26 27  1  0
 28 26  1  0
 29 28  2  0
 30 28  1  0
M  END
$$$$
