PWM.pdb
     RDKit          3D

 30 32  0  0  1  0  0  0  0  0999 V2000
    8.3740  -15.6092   18.1084 N   0  0  0  0  0  0  0  0  0  0  0  0
    8.2743  -15.3175   16.6720 C   0  0  0  0  0  0  0  0  0  0  0  0
    8.0168  -13.8225   16.6054 C   0  0  0  0  0  0  0  0  0  0  0  0
    8.4885  -13.3087   17.9470 C   0  0  0  0  0  0  0  0  0  0  0  0
    9.2021  -14.4916   18.5322 C   0  0  1  0  0  0  0  0  0  0  0  0
    9.3196  -14.4271   20.0058 C   0  0  0  0  0  0  0  0  0  0  0  0
   10.0462  -13.5345   20.5046 O   0  0  0  0  0  0  0  0  0  0  0  0
    8.6521  -15.3220   20.8547 N   0  0  0  0  0  0  0  0  0  0  0  0
    8.4805  -15.0823   22.3099 C   0  0  1  0  0  0  0  0  0  0  0  0
    7.1184  -15.5600   22.7178 C   0  0  0  0  0  0  0  0  0  0  0  0
    6.7968  -15.1610   24.0920 C   0  0  0  0  0  0  0  0  0  0  0  0
    6.2944  -16.0019   25.0900 C   0  0  0  0  0  0  0  0  0  0  0  0
    6.1089  -15.2616   26.1888 N   0  0  0  0  0  0  0  0  0  0  0  0
    6.4588  -13.9947   25.9665 C   0  0  0  0  0  0  0  0  0  0  0  0
    6.4625  -12.8468   26.7488 C   0  0  0  0  0  0  0  0  0  0  0  0
    6.8835  -11.6409   26.2566 C   0  0  0  0  0  0  0  0  0  0  0  0
    7.3200  -11.5410   24.9510 C   0  0  0  0  0  0  0  0  0  0  0  0
    7.3124  -12.6902   24.1802 C   0  0  0  0  0  0  0  0  0  0  0  0
    6.8874  -13.9066   24.6776 C   0  0  0  0  0  0  0  0  0  0  0  0
    9.6048  -15.7459   22.9839 C   0  0  0  0  0  0  0  0  0  0  0  0
    9.8093  -16.9764   22.7205 O   0  0  0  0  0  0  0  0  0  0  0  0
   11.4381  -14.1281   29.9829 C   0  0  0  0  0  0  0  0  0  0  0  0
   10.1262  -14.9524   29.0342 S   0  0  0  0  0  0  0  0  0  0  0  0
   10.8453  -15.8244   27.5950 C   0  0  0  0  0  0  0  0  0  0  0  0
   10.2972  -15.2512   26.3081 C   0  0  0  0  0  0  0  0  0  0  0  0
   10.9666  -15.8597   25.0940 C   0  0  2  0  0  0  0  0  0  0  0  0
   10.5053  -15.1643   23.9055 N   0  0  0  0  0  0  0  0  0  0  0  0
   10.8227  -17.3151   25.0379 C   0  0  0  0  0  0  0  0  0  0  0  0
   11.7885  -18.0278   25.4710 O   0  0  0  0  0  0  0  0  0  0  0  0
    9.7306  -18.0152   24.5566 O   0  0  0  0  0  0  0  0  0  0  0  0
  1  2  1  0
  3  2  1  0
  4  3  1  0
  5  4  1  0
  5  1  1  0
  6  7  2  0
  5  6  1  1
  8  6  1  0
  9  8  1  0
 10 11  1  0
  9 10  1  1
 11 12  2  0
 11 19  1  0
 12 13  1  0
 13 14  1  0
 14 15  2  0
 15 16  1  0
 17 16  2  0
 18 17  1  0
 19 18  2  0
 19 14  1  0
 20 27  1  0
 20  9  1  0
 21 20  2  0
 22 23  1  0
 23 24  1  0
 26 25  1  1
 25 24  1  0
 26 27  1  0
 28 26  1  0
 29 28  2  0
 30 28  1  0
M  END
$$$$
