PWM.pdb
     RDKit          3D

 30 32  0  0  1  0  0  0  0  0999 V2000
    7.1010  -17.0385   22.1927 N   0  0  0  0  0  0  0  0  0  0  0  0
    5.9518  -17.1372   21.2828 C   0  0  0  0  0  0  0  0  0  0  0  0
    5.9343  -15.8083   20.5484 C   0  0  0  0  0  0  0  0  0  0  0  0
    7.3380  -15.2742   20.7222 C   0  0  0  0  0  0  0  0  0  0  0  0
    8.0792  -16.4465   21.2945 C   0  0  1  0  0  0  0  0  0  0  0  0
    9.3139  -16.0579   22.0115 C   0  0  0  0  0  0  0  0  0  0  0  0
   10.3534  -15.8588   21.3382 O   0  0  0  0  0  0  0  0  0  0  0  0
    9.3600  -15.9065   23.4050 N   0  0  0  0  0  0  0  0  0  0  0  0
   10.5597  -15.4117   24.1264 C   0  0  1  0  0  0  0  0  0  0  0  0
   10.1104  -14.6065   25.3095 C   0  0  0  0  0  0  0  0  0  0  0  0
    8.6477  -14.5282   25.3836 C   0  0  0  0  0  0  0  0  0  0  0  0
    7.7671  -15.6118   25.3051 C   0  0  0  0  0  0  0  0  0  0  0  0
    6.5219  -15.1292   25.3867 N   0  0  0  0  0  0  0  0  0  0  0  0
    6.5395  -13.8023   25.5129 C   0  0  0  0  0  0  0  0  0  0  0  0
    5.5500  -12.8347   25.6324 C   0  0  0  0  0  0  0  0  0  0  0  0
    5.8530  -11.5050   25.7496 C   0  0  0  0  0  0  0  0  0  0  0  0
    7.1705  -11.0934   25.7514 C   0  0  0  0  0  0  0  0  0  0  0  0
    8.1484  -12.0650   25.6319 C   0  0  0  0  0  0  0  0  0  0  0  0
    7.8418  -13.4065   25.5136 C   0  0  0  0  0  0  0  0  0  0  0  0
   11.3781  -16.5896   24.4448 C   0  0  0  0  0  0  0  0  0  0  0  0
   12.6282  -16.5242   24.2028 O   0  0  0  0  0  0  0  0  0  0  0  0
    9.9794  -13.8809   28.4137 C   0  0  0  0  0  0  0  0  0  0  0  0
   10.5541  -15.3132   29.3724 S   0  0  0  0  0  0  0  0  0  0  0  0
   11.4162  -16.4977   28.2758 C   0  0  0  0  0  0  0  0  0  0  0  0
   10.4585  -17.0484   27.2441 C   0  0  0  0  0  0  0  0  0  0  0  0
   11.1003  -18.1353   26.4079 C   0  0  2  0  0  0  0  0  0  0  0  0
   10.9305  -17.8089   25.0030 N   0  0  0  0  0  0  0  0  0  0  0  0
   10.6455  -19.4766   26.7769 C   0  0  0  0  0  0  0  0  0  0  0  0
   11.2689  -20.0825   27.7110 O   0  0  0  0  0  0  0  0  0  0  0  0
    9.5916  -20.1719   26.2110 O   0  0  0  0  0  0  0  0  0  0  0  0
  1  2  1  0
  3  2  1  0
  4  3  1  0
  5  4  1  0
  5  1  1  0
  6  7  2  0
  5  6  1  1
  8  6  1  0
  9  8  1  0
 10 11  1  0
  9 10  1  1
 11 12  2  0
 11 19  1  0
 12 13  1  0
 13 14  1  0
 14 15  2  0
 15 16  1  0
 17 16  2  0
 18 17  1  0
 19 18  2  0
 19 14  1  0
 20 27  1  0
 20  9  1  0
 21 20  2  0
 22 23  1  0
 23 24  1  0
 26 25  1  1
 25 24  1  0
 26 27  1  0
 28 26  1  0
 29 28  2  0
 30 28  1  0
M  END
$$$$
