PWM.pdb
     RDKit          3D

 30 32  0  0  1  0  0  0  0  0999 V2000
    7.3192  -15.8946   20.8637 N   0  0  0  0  0  0  0  0  0  0  0  0
    6.7147  -15.4932   19.5863 C   0  0  0  0  0  0  0  0  0  0  0  0
    7.0274  -14.0121   19.4674 C   0  0  0  0  0  0  0  0  0  0  0  0
    8.1927  -13.8062   20.4087 C   0  0  0  0  0  0  0  0  0  0  0  0
    8.5966  -15.2075   20.7610 C   0  0  1  0  0  0  0  0  0  0  0  0
    9.3638  -15.2897   22.0237 C   0  0  0  0  0  0  0  0  0  0  0  0
   10.4310  -14.6366   22.1132 O   0  0  0  0  0  0  0  0  0  0  0  0
    8.9414  -16.0660   23.1127 N   0  0  0  0  0  0  0  0  0  0  0  0
    9.5791  -15.9969   24.4518 C   0  0  1  0  0  0  0  0  0  0  0  0
    8.5511  -16.3339   25.4910 C   0  0  0  0  0  0  0  0  0  0  0  0
    7.4983  -15.3149   25.5575 C   0  0  0  0  0  0  0  0  0  0  0  0
    6.1669  -15.4899   25.1675 C   0  0  0  0  0  0  0  0  0  0  0  0
    5.5326  -14.3272   25.3565 N   0  0  0  0  0  0  0  0  0  0  0  0
    6.3681  -13.4100   25.8439 C   0  0  0  0  0  0  0  0  0  0  0  0
    6.2263  -12.0769   26.2078 C   0  0  0  0  0  0  0  0  0  0  0  0
    7.2777  -11.3466   26.6925 C   0  0  0  0  0  0  0  0  0  0  0  0
    8.5203  -11.9313   26.8314 C   0  0  0  0  0  0  0  0  0  0  0  0
    8.6509  -13.2596   26.4662 C   0  0  0  0  0  0  0  0  0  0  0  0
    7.5895  -13.9957   25.9772 C   0  0  0  0  0  0  0  0  0  0  0  0
   10.7454  -16.8895   24.4120 C   0  0  0  0  0  0  0  0  0  0  0  0
   10.5945  -18.0362   23.8757 O   0  0  0  0  0  0  0  0  0  0  0  0
   16.8014  -15.4105   23.5079 C   0  0  0  0  0  0  0  0  0  0  0  0
   17.1436  -16.9960   24.3265 S   0  0  0  0  0  0  0  0  0  0  0  0
   15.5775  -17.8834   24.6560 C   0  0  0  0  0  0  0  0  0  0  0  0
   14.4337  -16.9019   24.7709 C   0  0  0  0  0  0  0  0  0  0  0  0
   13.1019  -17.6079   24.9129 C   0  0  2  0  0  0  0  0  0  0  0  0
   12.0414  -16.6158   24.9061 N   0  0  0  0  0  0  0  0  0  0  0  0
   13.0658  -18.5247   26.0531 C   0  0  0  0  0  0  0  0  0  0  0  0
   12.5794  -18.0933   27.1511 O   0  0  0  0  0  0  0  0  0  0  0  0
   13.5109  -19.8348   26.0690 O   0  0  0  0  0  0  0  0  0  0  0  0
  1  2  1  0
  3  2  1  0
  4  3  1  0
  5  4  1  0
  5  1  1  0
  6  7  2  0
  5  6  1  1
  8  6  1  0
  9  8  1  0
 10 11  1  0
  9 10  1  1
 11 12  2  0
 11 19  1  0
 12 13  1  0
 13 14  1  0
 14 15  2  0
 15 16  1  0
 17 16  2  0
 18 17  1  0
 19 18  2  0
 19 14  1  0
 20 27  1  0
 20  9  1  0
 21 20  2  0
 22 23  1  0
 23 24  1  0
 26 25  1  1
 25 24  1  0
 26 27  1  0
 28 26  1  0
 29 28  2  0
 30 28  1  0
M  END
$$$$
