PWM.pdb
     RDKit          3D

 30 32  0  0  1  0  0  0  0  0999 V2000
    8.3206  -17.3254   19.3213 N   0  0  0  0  0  0  0  0  0  0  0  0
    8.0652  -17.3453   17.8747 C   0  0  0  0  0  0  0  0  0  0  0  0
    7.8629  -15.8865   17.5051 C   0  0  0  0  0  0  0  0  0  0  0  0
    8.5090  -15.1268   18.6416 C   0  0  0  0  0  0  0  0  0  0  0  0
    9.2375  -16.1994   19.3965 C   0  0  1  0  0  0  0  0  0  0  0  0
    9.5294  -15.8257   20.7982 C   0  0  0  0  0  0  0  0  0  0  0  0
   10.3064  -14.8631   21.0061 O   0  0  0  0  0  0  0  0  0  0  0  0
    8.9716  -16.5053   21.8909 N   0  0  0  0  0  0  0  0  0  0  0  0
    9.0872  -16.0214   23.2899 C   0  0  1  0  0  0  0  0  0  0  0  0
    7.7118  -15.9309   23.8816 C   0  0  0  0  0  0  0  0  0  0  0  0
    7.2350  -14.5446   23.9265 C   0  0  0  0  0  0  0  0  0  0  0  0
    6.9944  -13.7277   22.8173 C   0  0  0  0  0  0  0  0  0  0  0  0
    6.5971  -12.5336   23.2715 N   0  0  0  0  0  0  0  0  0  0  0  0
    6.5650  -12.5247   24.6041 C   0  0  0  0  0  0  0  0  0  0  0  0
    6.2337  -11.5643   25.5514 C   0  0  0  0  0  0  0  0  0  0  0  0
    6.2904  -11.8266   26.8937 C   0  0  0  0  0  0  0  0  0  0  0  0
    6.6848  -13.0722   27.3390 C   0  0  0  0  0  0  0  0  0  0  0  0
    7.0125  -14.0217   26.3873 C   0  0  0  0  0  0  0  0  0  0  0  0
    6.9550  -13.7562   25.0331 C   0  0  0  0  0  0  0  0  0  0  0  0
   10.0069  -16.9362   23.9797 C   0  0  0  0  0  0  0  0  0  0  0  0
    9.8008  -18.1881   23.8542 O   0  0  0  0  0  0  0  0  0  0  0  0
   10.0466  -13.0174   28.3467 C   0  0  0  0  0  0  0  0  0  0  0  0
   10.7129  -14.5154   29.1296 S   0  0  0  0  0  0  0  0  0  0  0  0
   11.6274  -15.5136   27.8983 C   0  0  0  0  0  0  0  0  0  0  0  0
   10.6767  -16.4161   27.1456 C   0  0  0  0  0  0  0  0  0  0  0  0
   11.3879  -17.2011   26.0637 C   0  0  2  0  0  0  0  0  0  0  0  0
   11.1177  -16.5807   24.7788 N   0  0  0  0  0  0  0  0  0  0  0  0
   11.0942  -18.6338   26.1178 C   0  0  0  0  0  0  0  0  0  0  0  0
   12.0707  -19.4481   26.0096 O   0  0  0  0  0  0  0  0  0  0  0  0
    9.8472  -19.2119   26.2771 O   0  0  0  0  0  0  0  0  0  0  0  0
  1  2  1  0
  3  2  1  0
  4  3  1  0
  5  4  1  0
  5  1  1  0
  6  7  2  0
  5  6  1  1
  8  6  1  0
  9  8  1  0
 10 11  1  0
  9 10  1  1
 11 12  2  0
 11 19  1  0
 12 13  1  0
 13 14  1  0
 14 15  2  0
 15 16  1  0
 17 16  2  0
 18 17  1  0
 19 18  2  0
 19 14  1  0
 20 27  1  0
 20  9  1  0
 21 20  2  0
 22 23  1  0
 23 24  1  0
 26 25  1  1
 25 24  1  0
 26 27  1  0
 28 26  1  0
 29 28  2  0
 30 28  1  0
M  END
$$$$
