PWM.pdb
     RDKit          3D

 30 32  0  0  1  0  0  0  0  0999 V2000
    8.5050  -15.4174   18.4698 N   0  0  0  0  0  0  0  0  0  0  0  0
    8.4188  -15.0486   17.0503 C   0  0  0  0  0  0  0  0  0  0  0  0
    8.1339  -13.5572   17.0625 C   0  0  0  0  0  0  0  0  0  0  0  0
    8.5779  -13.1098   18.4368 C   0  0  0  0  0  0  0  0  0  0  0  0
    9.3060  -14.3101   18.9662 C   0  0  1  0  0  0  0  0  0  0  0  0
    9.4028  -14.3250   20.4427 C   0  0  0  0  0  0  0  0  0  0  0  0
   10.1011  -13.4448   21.0005 O   0  0  0  0  0  0  0  0  0  0  0  0
    8.7461  -15.2812   21.2311 N   0  0  0  0  0  0  0  0  0  0  0  0
    8.5057  -15.1042   22.6855 C   0  0  1  0  0  0  0  0  0  0  0  0
    7.0912  -15.5001   22.9899 C   0  0  0  0  0  0  0  0  0  0  0  0
    6.7431  -15.2228   24.3874 C   0  0  0  0  0  0  0  0  0  0  0  0
    6.2422  -16.1525   25.3040 C   0  0  0  0  0  0  0  0  0  0  0  0
    6.0278  -15.5098   26.4576 N   0  0  0  0  0  0  0  0  0  0  0  0
    6.3577  -14.2231   26.3470 C   0  0  0  0  0  0  0  0  0  0  0  0
    6.3296  -13.1447   27.2222 C   0  0  0  0  0  0  0  0  0  0  0  0
    6.7355  -11.8949   26.8388 C   0  0  0  0  0  0  0  0  0  0  0  0
    7.1884  -11.6789   25.5529 C   0  0  0  0  0  0  0  0  0  0  0  0
    7.2125  -12.7596   24.6891 C   0  0  0  0  0  0  0  0  0  0  0  0
    6.8027  -14.0204   25.0768 C   0  0  0  0  0  0  0  0  0  0  0  0
    9.5380  -15.8828   23.3832 C   0  0  0  0  0  0  0  0  0  0  0  0
   10.0235  -16.8957   22.7801 O   0  0  0  0  0  0  0  0  0  0  0  0
   10.9320  -15.2623   29.8931 C   0  0  0  0  0  0  0  0  0  0  0  0
   11.1962  -14.0189   28.5950 S   0  0  0  0  0  0  0  0  0  0  0  0
   10.6634  -14.6804   26.9741 C   0  0  0  0  0  0  0  0  0  0  0  0
   11.5397  -15.8438   26.5697 C   0  0  0  0  0  0  0  0  0  0  0  0
   11.0485  -16.4989   25.2961 C   0  0  2  0  0  0  0  0  0  0  0  0
   10.0675  -15.6305   24.6695 N   0  0  0  0  0  0  0  0  0  0  0  0
   10.5933  -17.8740   25.5058 C   0  0  0  0  0  0  0  0  0  0  0  0
   11.4557  -18.7385   25.8763 O   0  0  0  0  0  0  0  0  0  0  0  0
    9.3032  -18.3468   25.3425 O   0  0  0  0  0  0  0  0  0  0  0  0
  1  2  1  0
  3  2  1  0
  4  3  1  0
  5  4  1  0
  5  1  1  0
  6  7  2  0
  5  6  1  1
  8  6  1  0
  9  8  1  0
 10 11  1  0
  9 10  1  6
 11 12  2  0
 11 19  1  0
 12 13  1  0
 13 14  1  0
 14 15  2  0
 15 16  1  0
 17 16  2  0
 18 17  1  0
 19 18  2  0
 19 14  1  0
 20 27  1  0
 20  9  1  0
 21 20  2  0
 22 23  1  0
 23 24  1  0
 26 25  1  1
 25 24  1  0
 26 27  1  0
 28 26  1  0
 29 28  2  0
 30 28  1  0
M  END
$$$$
