PWM.pdb
     RDKit          3D

 30 32  0  0  1  0  0  0  0  0999 V2000
    7.8406  -15.1407   19.4898 N   0  0  0  0  0  0  0  0  0  0  0  0
    7.5022  -14.5702   18.1790 C   0  0  0  0  0  0  0  0  0  0  0  0
    7.5473  -13.0681   18.3959 C   0  0  0  0  0  0  0  0  0  0  0  0
    8.3859  -12.9023   19.6431 C   0  0  0  0  0  0  0  0  0  0  0  0
    8.9498  -14.2758   19.8585 C   0  0  1  0  0  0  0  0  0  0  0  0
    9.3859  -14.5115   21.2527 C   0  0  0  0  0  0  0  0  0  0  0  0
   10.3623  -13.8553   21.6880 O   0  0  0  0  0  0  0  0  0  0  0  0
    8.7500  -15.4352   22.0951 N   0  0  0  0  0  0  0  0  0  0  0  0
    9.1023  -15.6000   23.5280 C   0  0  1  0  0  0  0  0  0  0  0  0
    7.9745  -16.3051   24.2215 C   0  0  0  0  0  0  0  0  0  0  0  0
    7.0242  -15.3542   24.8079 C   0  0  0  0  0  0  0  0  0  0  0  0
    5.8513  -15.6890   25.4919 C   0  0  0  0  0  0  0  0  0  0  0  0
    5.2491  -14.5482   25.8468 N   0  0  0  0  0  0  0  0  0  0  0  0
    5.9568  -13.4958   25.4363 C   0  0  0  0  0  0  0  0  0  0  0  0
    5.7839  -12.1214   25.5399 C   0  0  0  0  0  0  0  0  0  0  0  0
    6.6886  -11.2397   25.0127 C   0  0  0  0  0  0  0  0  0  0  0  0
    7.8093  -11.7079   24.3569 C   0  0  0  0  0  0  0  0  0  0  0  0
    7.9721  -13.0785   24.2593 C   0  0  0  0  0  0  0  0  0  0  0  0
    7.0587  -13.9675   24.7915 C   0  0  0  0  0  0  0  0  0  0  0  0
   10.3955  -16.2960   23.5689 C   0  0  0  0  0  0  0  0  0  0  0  0
   10.4508  -17.4709   23.0769 O   0  0  0  0  0  0  0  0  0  0  0  0
   10.1025  -13.6892   28.5177 C   0  0  0  0  0  0  0  0  0  0  0  0
   10.7867  -15.2489   29.1502 S   0  0  0  0  0  0  0  0  0  0  0  0
   11.7757  -16.0736   27.8500 C   0  0  0  0  0  0  0  0  0  0  0  0
   11.2425  -15.7171   26.4813 C   0  0  0  0  0  0  0  0  0  0  0  0
   12.1403  -16.2357   25.3779 C   0  0  2  0  0  0  0  0  0  0  0  0
   11.6097  -15.8013   24.0976 N   0  0  0  0  0  0  0  0  0  0  0  0
   12.3832  -17.6756   25.4753 C   0  0  0  0  0  0  0  0  0  0  0  0
   13.5071  -18.0615   25.9402 O   0  0  0  0  0  0  0  0  0  0  0  0
   11.5080  -18.6834   25.1106 O   0  0  0  0  0  0  0  0  0  0  0  0
  1  2  1  0
  3  2  1  0
  4  3  1  0
  5  4  1  0
  5  1  1  0
  6  7  2  0
  5  6  1  1
  8  6  1  0
  9  8  1  0
 10 11  1  0
  9 10  1  1
 11 12  2  0
 11 19  1  0
 12 13  1  0
 13 14  1  0
 14 15  2  0
 15 16  1  0
 17 16  2  0
 18 17  1  0
 19 18  2  0
 19 14  1  0
 20 27  1  0
 20  9  1  0
 21 20  2  0
 22 23  1  0
 23 24  1  0
 26 25  1  1
 25 24  1  0
 26 27  1  0
 28 26  1  0
 29 28  2  0
 30 28  1  0
M  END
$$$$
