PWM.pdb
     RDKit          3D

 30 32  0  0  1  0  0  0  0  0999 V2000
    8.5203  -15.6269   19.0693 N   0  0  0  0  0  0  0  0  0  0  0  0
    8.4452  -15.2565   17.6497 C   0  0  0  0  0  0  0  0  0  0  0  0
    8.0479  -13.7910   17.6604 C   0  0  0  0  0  0  0  0  0  0  0  0
    8.4191  -13.3202   19.0484 C   0  0  0  0  0  0  0  0  0  0  0  0
    9.2213  -14.4654   19.5925 C   0  0  1  0  0  0  0  0  0  0  0  0
    9.2785  -14.4824   21.0710 C   0  0  0  0  0  0  0  0  0  0  0  0
    9.8579  -13.5345   21.6535 O   0  0  0  0  0  0  0  0  0  0  0  0
    8.7121  -15.5132   21.8351 N   0  0  0  0  0  0  0  0  0  0  0  0
    8.5821  -15.4480   23.3127 C   0  0  1  0  0  0  0  0  0  0  0  0
    7.3014  -16.1190   23.7120 C   0  0  0  0  0  0  0  0  0  0  0  0
    6.6000  -15.3635   24.7553 C   0  0  0  0  0  0  0  0  0  0  0  0
    5.5349  -15.8355   25.5288 C   0  0  0  0  0  0  0  0  0  0  0  0
    5.1560  -14.8452   26.3448 N   0  0  0  0  0  0  0  0  0  0  0  0
    5.9076  -13.7618   26.1493 C   0  0  0  0  0  0  0  0  0  0  0  0
    5.9326  -12.4939   26.7164 C   0  0  0  0  0  0  0  0  0  0  0  0
    6.8337  -11.5439   26.3174 C   0  0  0  0  0  0  0  0  0  0  0  0
    7.7505  -11.8328   25.3268 C   0  0  0  0  0  0  0  0  0  0  0  0
    7.7172  -13.0985   24.7685 C   0  0  0  0  0  0  0  0  0  0  0  0
    6.8076  -14.0565   25.1717 C   0  0  0  0  0  0  0  0  0  0  0  0
    9.8027  -16.0447   23.8720 C   0  0  0  0  0  0  0  0  0  0  0  0
   10.5368  -16.7329   23.0892 O   0  0  0  0  0  0  0  0  0  0  0  0
   10.7536  -15.2303   29.9672 C   0  0  0  0  0  0  0  0  0  0  0  0
   10.3636  -14.2621   28.4802 S   0  0  0  0  0  0  0  0  0  0  0  0
   11.5781  -14.6228   27.1597 C   0  0  0  0  0  0  0  0  0  0  0  0
   11.8076  -16.1130   27.0522 C   0  0  0  0  0  0  0  0  0  0  0  0
   11.4477  -16.6376   25.6783 C   0  0  2  0  0  0  0  0  0  0  0  0
   10.2672  -15.9378   25.2029 N   0  0  0  0  0  0  0  0  0  0  0  0
   11.3433  -18.0968   25.6388 C   0  0  0  0  0  0  0  0  0  0  0  0
   10.1846  -18.6086   25.4851 O   0  0  0  0  0  0  0  0  0  0  0  0
   12.3863  -18.9989   25.7521 O   0  0  0  0  0  0  0  0  0  0  0  0
  1  2  1  0
  3  2  1  0
  4  3  1  0
  5  4  1  0
  5  1  1  0
  6  7  2  0
  5  6  1  1
  8  6  1  0
  9  8  1  0
 10 11  1  0
  9 10  1  1
 11 12  2  0
 11 19  1  0
 12 13  1  0
 13 14  1  0
 14 15  2  0
 15 16  1  0
 17 16  2  0
 18 17  1  0
 19 18  2  0
 19 14  1  0
 20 27  1  0
 20  9  1  0
 21 20  2  0
 22 23  1  0
 23 24  1  0
 26 25  1  1
 25 24  1  0
 26 27  1  0
 28 26  1  0
 29 28  2  0
 30 28  1  0
M  END
$$$$
