EVV.pdb
     RDKit          3D

 24 23  0  0  1  0  0  0  0  0999 V2000
   13.2055  -17.2040   21.1967 N   0  0  0  0  0  0  0  0  0  0  0  0
   12.1627  -17.4525   22.1448 C   0  0  1  0  0  0  0  0  0  0  0  0
   12.6879  -17.9704   23.4454 C   0  0  0  0  0  0  0  0  0  0  0  0
   13.0019  -19.4235   23.4526 C   0  0  0  0  0  0  0  0  0  0  0  0
   13.4065  -19.9700   24.7571 C   0  0  0  0  0  0  0  0  0  0  0  0
   14.5199  -20.4611   25.0432 O   0  0  0  0  0  0  0  0  0  0  0  0
   11.2743  -16.2735   22.3298 C   0  0  0  0  0  0  0  0  0  0  0  0
   11.8037  -15.1513   22.5332 O   0  0  0  0  0  0  0  0  0  0  0  0
   12.4591  -19.9445   25.7938 O   0  0  0  0  0  0  0  0  0  0  0  0
    6.9867  -14.0256   21.7157 C   0  0  0  0  0  0  0  0  0  0  0  0
    7.8512  -15.2599   21.5522 C   0  0  2  0  0  0  0  0  0  0  0  0
    7.0150  -16.4568   21.9599 C   0  0  0  0  0  0  0  0  0  0  0  0
    9.0503  -15.1903   22.5048 C   0  0  2  0  0  0  0  0  0  0  0  0
    9.8685  -16.3478   22.2888 N   0  0  0  0  0  0  0  0  0  0  0  0
    8.5674  -15.0865   23.9014 C   0  0  0  0  0  0  0  0  0  0  0  0
    8.7088  -16.0486   24.6952 O   0  0  0  0  0  0  0  0  0  0  0  0
    6.1872  -12.3520   27.3834 C   0  0  0  0  0  0  0  0  0  0  0  0
    6.7434  -12.4707   25.9904 C   0  0  1  0  0  0  0  0  0  0  0  0
    7.7751  -11.3791   25.8076 C   0  0  0  0  0  0  0  0  0  0  0  0
    7.3732  -13.8428   25.7370 C   0  0  2  0  0  0  0  0  0  0  0  0
    7.9318  -13.9211   24.4103 N   0  0  0  0  0  0  0  0  0  0  0  0
    6.4738  -14.9508   26.0614 C   0  0  0  0  0  0  0  0  0  0  0  0
    5.6027  -15.2944   25.2225 O   0  0  0  0  0  0  0  0  0  0  0  0
    6.5081  -15.6674   27.2491 O   0  0  0  0  0  0  0  0  0  0  0  0
  2  1  1  6
  2  3  1  0
  3  4  1  0
  4  5  1  0
  5  6  2  0
  5  9  1  0
  7  8  2  0
  7  2  1  0
 11 10  1  1
 11 13  1  0
 12 11  1  0
 13 14  1  1
 14  7  1  0
 15 13  1  0
 15 21  1  0
 16 15  2  0
 18 20  1  0
 18 17  1  1
 19 18  1  0
 20 21  1  6
 20 22  1  0
 22 23  2  0
 22 24  1  0
M  END
$$$$
