EVV.pdb
     RDKit          3D

 24 23  0  0  1  0  0  0  0  0999 V2000
    9.5276  -18.0754   17.3836 N   0  0  0  0  0  0  0  0  0  0  0  0
    8.5581  -17.9134   18.4238 C   0  0  1  0  0  0  0  0  0  0  0  0
    8.2835  -19.1916   19.1496 C   0  0  0  0  0  0  0  0  0  0  0  0
    7.8471  -20.3163   18.2810 C   0  0  0  0  0  0  0  0  0  0  0  0
    7.6496  -21.6002   18.9713 C   0  0  0  0  0  0  0  0  0  0  0  0
    6.8848  -21.8140   19.9368 O   0  0  0  0  0  0  0  0  0  0  0  0
    8.9065  -16.8056   19.3537 C   0  0  0  0  0  0  0  0  0  0  0  0
   10.0880  -16.7289   19.7770 O   0  0  0  0  0  0  0  0  0  0  0  0
    8.3861  -22.7045   18.5118 O   0  0  0  0  0  0  0  0  0  0  0  0
    7.4296  -13.1248   19.1682 C   0  0  0  0  0  0  0  0  0  0  0  0
    7.3806  -13.6477   20.5900 C   0  0  2  0  0  0  0  0  0  0  0  0
    7.8752  -12.5395   21.4984 C   0  0  0  0  0  0  0  0  0  0  0  0
    8.3398  -14.8333   20.7461 C   0  0  2  0  0  0  0  0  0  0  0  0
    7.9812  -15.8359   19.7859 N   0  0  0  0  0  0  0  0  0  0  0  0
    8.2855  -15.3335   22.1395 C   0  0  0  0  0  0  0  0  0  0  0  0
    7.3016  -16.0053   22.5349 O   0  0  0  0  0  0  0  0  0  0  0  0
    9.9580  -18.2274   25.1045 C   0  0  0  0  0  0  0  0  0  0  0  0
    9.7137  -17.3686   23.8934 C   0  0  1  0  0  0  0  0  0  0  0  0
    8.4849  -17.8991   23.1880 C   0  0  0  0  0  0  0  0  0  0  0  0
    9.5185  -15.8956   24.2622 C   0  0  2  0  0  0  0  0  0  0  0  0
    9.3180  -15.0876   23.0853 N   0  0  0  0  0  0  0  0  0  0  0  0
   10.5639  -15.3880   25.1517 C   0  0  0  0  0  0  0  0  0  0  0  0
   10.4774  -15.6144   26.3853 O   0  0  0  0  0  0  0  0  0  0  0  0
   11.6674  -14.6599   24.7305 O   0  0  0  0  0  0  0  0  0  0  0  0
  2  1  1  6
  2  3  1  0
  3  4  1  0
  4  5  1  0
  5  6  2  0
  5  9  1  0
  7  8  2  0
  7  2  1  0
 11 10  1  6
 11 13  1  0
 12 11  1  0
 13 14  1  6
 14  7  1  0
 15 13  1  0
 15 21  1  0
 16 15  2  0
 18 20  1  0
 18 17  1  1
 19 18  1  0
 20 21  1  6
 20 22  1  0
 22 23  2  0
 22 24  1  0
M  END
$$$$
