EVV.pdb
     RDKit          3D

 24 23  0  0  1  0  0  0  0  0999 V2000
   11.5170  -16.0785   19.0466 N   0  0  0  0  0  0  0  0  0  0  0  0
   11.4578  -16.7664   20.3002 C   0  0  1  0  0  0  0  0  0  0  0  0
   12.7903  -17.2991   20.7202 C   0  0  0  0  0  0  0  0  0  0  0  0
   13.2085  -18.5432   20.0221 C   0  0  0  0  0  0  0  0  0  0  0  0
   14.4562  -19.1477   20.5140 C   0  0  0  0  0  0  0  0  0  0  0  0
   14.5683  -19.9442   21.4709 O   0  0  0  0  0  0  0  0  0  0  0  0
   10.8221  -15.9456   21.3659 C   0  0  0  0  0  0  0  0  0  0  0  0
   11.3208  -14.8229   21.6341 O   0  0  0  0  0  0  0  0  0  0  0  0
   15.6477  -18.8060   19.8534 O   0  0  0  0  0  0  0  0  0  0  0  0
    7.0642  -15.2306   21.6045 C   0  0  0  0  0  0  0  0  0  0  0  0
    7.5504  -15.6836   22.9668 C   0  0  2  0  0  0  0  0  0  0  0  0
    6.9192  -14.7718   24.0003 C   0  0  0  0  0  0  0  0  0  0  0  0
    9.0702  -15.5091   23.0660 C   0  0  2  0  0  0  0  0  0  0  0  0
    9.6886  -16.3601   22.0917 N   0  0  0  0  0  0  0  0  0  0  0  0
    9.5135  -15.8086   24.4474 C   0  0  0  0  0  0  0  0  0  0  0  0
   10.0687  -16.9027   24.7129 O   0  0  0  0  0  0  0  0  0  0  0  0
   10.2688  -14.0848   29.0993 C   0  0  0  0  0  0  0  0  0  0  0  0
    9.5641  -13.9526   27.7765 C   0  0  1  0  0  0  0  0  0  0  0  0
   10.0259  -12.6647   27.1308 C   0  0  0  0  0  0  0  0  0  0  0  0
    9.8471  -15.1399   26.8524 C   0  0  2  0  0  0  0  0  0  0  0  0
    9.3399  -14.8975   25.5249 N   0  0  0  0  0  0  0  0  0  0  0  0
    9.4179  -16.4185   27.4204 C   0  0  0  0  0  0  0  0  0  0  0  0
    8.2182  -16.7713   27.2900 O   0  0  0  0  0  0  0  0  0  0  0  0
   10.2500  -17.2911   28.1070 O   0  0  0  0  0  0  0  0  0  0  0  0
  2  1  1  6
  2  3  1  0
  3  4  1  0
  4  5  1  0
  5  6  2  0
  5  9  1  0
  7  8  2  0
  7  2  1  0
 11 10  1  6
 11 13  1  0
 12 11  1  0
 13 14  1  6
 14  7  1  0
 15 13  1  0
 15 21  1  0
 16 15  2  0
 18 20  1  0
 18 17  1  1
 19 18  1  0
 20 21  1  6
 20 22  1  0
 22 23  2  0
 22 24  1  0
M  END
$$$$
