EVV.pdb
     RDKit          3D

 24 23  0  0  1  0  0  0  0  0999 V2000
   12.2827  -17.7198   20.1760 N   0  0  0  0  0  0  0  0  0  0  0  0
   11.0783  -17.8348   20.9405 C   0  0  1  0  0  0  0  0  0  0  0  0
   11.2088  -18.8130   22.0638 C   0  0  0  0  0  0  0  0  0  0  0  0
   12.5926  -19.3005   22.3037 C   0  0  0  0  0  0  0  0  0  0  0  0
   12.7418  -20.2293   23.4346 C   0  0  0  0  0  0  0  0  0  0  0  0
   12.8998  -21.4673   23.3627 O   0  0  0  0  0  0  0  0  0  0  0  0
   10.5751  -16.5138   21.4044 C   0  0  0  0  0  0  0  0  0  0  0  0
   11.4113  -15.6076   21.6503 O   0  0  0  0  0  0  0  0  0  0  0  0
   12.7054  -19.6866   24.7297 O   0  0  0  0  0  0  0  0  0  0  0  0
    7.9231  -14.4154   19.7764 C   0  0  0  0  0  0  0  0  0  0  0  0
    7.5521  -14.5103   21.2429 C   0  0  2  0  0  0  0  0  0  0  0  0
    7.1661  -13.1189   21.7044 C   0  0  0  0  0  0  0  0  0  0  0  0
    8.7704  -14.9464   22.0650 C   0  0  2  0  0  0  0  0  0  0  0  0
    9.2086  -16.2238   21.5831 N   0  0  0  0  0  0  0  0  0  0  0  0
    8.4139  -14.9714   23.5027 C   0  0  0  0  0  0  0  0  0  0  0  0
    8.4478  -16.0485   24.1464 O   0  0  0  0  0  0  0  0  0  0  0  0
    6.6784  -12.4563   27.4913 C   0  0  0  0  0  0  0  0  0  0  0  0
    7.0910  -12.4619   26.0444 C   0  0  1  0  0  0  0  0  0  0  0  0
    8.1602  -11.4070   25.8622 C   0  0  0  0  0  0  0  0  0  0  0  0
    7.6154  -13.8300   25.6007 C   0  0  2  0  0  0  0  0  0  0  0  0
    8.0226  -13.8068   24.2179 N   0  0  0  0  0  0  0  0  0  0  0  0
    6.6984  -14.9236   25.9243 C   0  0  0  0  0  0  0  0  0  0  0  0
    5.6740  -15.0902   25.2147 O   0  0  0  0  0  0  0  0  0  0  0  0
    6.8750  -15.8105   26.9767 O   0  0  0  0  0  0  0  0  0  0  0  0
  2  1  1  1
  2  3  1  0
  3  4  1  0
  4  5  1  0
  5  6  2  0
  5  9  1  0
  7  8  2  0
  7  2  1  0
 11 10  1  6
 11 13  1  0
 12 11  1  0
 13 14  1  6
 14  7  1  0
 15 13  1  0
 15 21  1  0
 16 15  2  0
 18 20  1  0
 18 17  1  1
 19 18  1  0
 20 21  1  6
 20 22  1  0
 22 23  2  0
 22 24  1  0
M  END
$$$$
