EVV.pdb
     RDKit          3D

 24 23  0  0  1  0  0  0  0  0999 V2000
    9.4621  -16.7571   18.8234 N   0  0  0  0  0  0  0  0  0  0  0  0
   10.0265  -16.7587   20.1385 C   0  0  1  0  0  0  0  0  0  0  0  0
   11.2226  -15.8677   20.2452 C   0  0  0  0  0  0  0  0  0  0  0  0
   12.3704  -16.2656   19.3884 C   0  0  0  0  0  0  0  0  0  0  0  0
   13.6113  -15.5082   19.6131 C   0  0  0  0  0  0  0  0  0  0  0  0
   13.7746  -14.5762   20.4301 O   0  0  0  0  0  0  0  0  0  0  0  0
    9.0142  -16.4647   21.1884 C   0  0  0  0  0  0  0  0  0  0  0  0
    8.0804  -15.6689   20.9131 O   0  0  0  0  0  0  0  0  0  0  0  0
   14.7324  -15.8547   18.8409 O   0  0  0  0  0  0  0  0  0  0  0  0
    7.0662  -19.0671   23.0308 C   0  0  0  0  0  0  0  0  0  0  0  0
    7.6166  -18.1206   24.0789 C   0  0  2  0  0  0  0  0  0  0  0  0
    6.5019  -17.8397   25.0670 C   0  0  0  0  0  0  0  0  0  0  0  0
    8.0032  -16.7867   23.4298 C   0  0  2  0  0  0  0  0  0  0  0  0
    9.0463  -17.0318   22.4770 N   0  0  0  0  0  0  0  0  0  0  0  0
    8.4063  -15.8235   24.4808 C   0  0  0  0  0  0  0  0  0  0  0  0
    9.5882  -15.8024   24.9030 O   0  0  0  0  0  0  0  0  0  0  0  0
    7.0968  -12.0775   27.5599 C   0  0  0  0  0  0  0  0  0  0  0  0
    6.7351  -13.0197   26.4440 C   0  0  1  0  0  0  0  0  0  0  0  0
    6.4441  -12.1907   25.2121 C   0  0  0  0  0  0  0  0  0  0  0  0
    7.8528  -14.0249   26.1543 C   0  0  2  0  0  0  0  0  0  0  0  0
    7.5007  -14.8915   25.0573 N   0  0  0  0  0  0  0  0  0  0  0  0
    8.2971  -14.7424   27.3499 C   0  0  0  0  0  0  0  0  0  0  0  0
    7.6558  -15.7564   27.7258 O   0  0  0  0  0  0  0  0  0  0  0  0
    9.3952  -14.3830   28.1182 O   0  0  0  0  0  0  0  0  0  0  0  0
  2  1  1  6
  2  3  1  0
  3  4  1  0
  4  5  1  0
  5  6  2  0
  5  9  1  0
  7  8  2  0
  7  2  1  0
 11 10  1  6
 11 13  1  0
 12 11  1  0
 13 14  1  6
 14  7  1  0
 15 13  1  0
 15 21  1  0
 16 15  2  0
 18 20  1  0
 18 17  1  1
 19 18  1  0
 20 21  1  6
 20 22  1  0
 22 23  2  0
 22 24  1  0
M  END
$$$$
