EVV.pdb
     RDKit          3D

 24 23  0  0  1  0  0  0  0  0999 V2000
   12.2120  -16.6230   19.6849 N   0  0  0  0  0  0  0  0  0  0  0  0
   11.5322  -17.2946   20.7503 C   0  0  1  0  0  0  0  0  0  0  0  0
   12.3764  -18.3521   21.3865 C   0  0  0  0  0  0  0  0  0  0  0  0
   12.8398  -19.4170   20.4584 C   0  0  0  0  0  0  0  0  0  0  0  0
   13.5968  -20.5099   21.0879 C   0  0  0  0  0  0  0  0  0  0  0  0
   14.8335  -20.6843   21.0328 O   0  0  0  0  0  0  0  0  0  0  0  0
   10.9746  -16.3460   21.7517 C   0  0  0  0  0  0  0  0  0  0  0  0
   11.6978  -15.3944   22.1421 O   0  0  0  0  0  0  0  0  0  0  0  0
   12.8727  -21.4594   21.8276 O   0  0  0  0  0  0  0  0  0  0  0  0
    7.3213  -14.9004   21.6244 C   0  0  0  0  0  0  0  0  0  0  0  0
    7.6416  -15.4001   23.0191 C   0  0  2  0  0  0  0  0  0  0  0  0
    7.1194  -14.3703   24.0012 C   0  0  0  0  0  0  0  0  0  0  0  0
    9.1603  -15.4884   23.2086 C   0  0  2  0  0  0  0  0  0  0  0  0
    9.6766  -16.4575   22.2867 N   0  0  0  0  0  0  0  0  0  0  0  0
    9.4641  -15.8252   24.6189 C   0  0  0  0  0  0  0  0  0  0  0  0
    9.7443  -17.0050   24.9436 O   0  0  0  0  0  0  0  0  0  0  0  0
   10.2890  -14.1370   29.2779 C   0  0  0  0  0  0  0  0  0  0  0  0
    9.6823  -13.9269   27.9172 C   0  0  1  0  0  0  0  0  0  0  0  0
   10.3392  -12.7127   27.2981 C   0  0  0  0  0  0  0  0  0  0  0  0
    9.8640  -15.1475   27.0112 C   0  0  2  0  0  0  0  0  0  0  0  0
    9.4557  -14.8566   25.6595 N   0  0  0  0  0  0  0  0  0  0  0  0
    9.2554  -16.3598   27.5602 C   0  0  0  0  0  0  0  0  0  0  0  0
    8.0366  -16.5811   27.3451 O   0  0  0  0  0  0  0  0  0  0  0  0
    9.9334  -17.3051   28.3166 O   0  0  0  0  0  0  0  0  0  0  0  0
  2  1  1  6
  2  3  1  0
  3  4  1  0
  4  5  1  0
  5  6  2  0
  5  9  1  0
  7  8  2  0
  7  2  1  0
 11 10  1  6
 11 13  1  0
 12 11  1  0
 13 14  1  6
 14  7  1  0
 15 13  1  0
 15 21  1  0
 16 15  2  0
 18 20  1  0
 18 17  1  1
 19 18  1  0
 20 21  1  6
 20 22  1  0
 22 23  2  0
 22 24  1  0
M  END
$$$$
