EVV.pdb
     RDKit          3D

 24 23  0  0  1  0  0  0  0  0999 V2000
   12.7254  -16.3561   20.0456 N   0  0  0  0  0  0  0  0  0  0  0  0
   11.8609  -16.8953   21.0505 C   0  0  1  0  0  0  0  0  0  0  0  0
   12.6187  -17.5413   22.1660 C   0  0  0  0  0  0  0  0  0  0  0  0
   13.3728  -18.7622   21.7775 C   0  0  0  0  0  0  0  0  0  0  0  0
   14.1071  -19.4184   22.8702 C   0  0  0  0  0  0  0  0  0  0  0  0
   13.7275  -20.4108   23.5289 O   0  0  0  0  0  0  0  0  0  0  0  0
   10.8787  -15.8944   21.5475 C   0  0  0  0  0  0  0  0  0  0  0  0
   11.2735  -14.7179   21.7499 O   0  0  0  0  0  0  0  0  0  0  0  0
   15.3605  -18.8894   23.2197 O   0  0  0  0  0  0  0  0  0  0  0  0
    7.2788  -15.2519   20.2325 C   0  0  0  0  0  0  0  0  0  0  0  0
    7.2378  -15.4534   21.7342 C   0  0  2  0  0  0  0  0  0  0  0  0
    6.3065  -14.4037   22.3077 C   0  0  0  0  0  0  0  0  0  0  0  0
    8.6279  -15.2124   22.3340 C   0  0  2  0  0  0  0  0  0  0  0  0
    9.5269  -16.1953   21.8035 N   0  0  0  0  0  0  0  0  0  0  0  0
    8.5433  -15.2564   23.8123 C   0  0  0  0  0  0  0  0  0  0  0  0
    8.9045  -16.2826   24.4386 O   0  0  0  0  0  0  0  0  0  0  0  0
    8.0722  -11.7085   26.0995 C   0  0  0  0  0  0  0  0  0  0  0  0
    7.3148  -12.9226   26.5645 C   0  0  1  0  0  0  0  0  0  0  0  0
    5.8804  -12.7793   26.1052 C   0  0  0  0  0  0  0  0  0  0  0  0
    7.9181  -14.2205   26.0210 C   0  0  2  0  0  0  0  0  0  0  0  0
    8.0601  -14.1669   24.5873 N   0  0  0  0  0  0  0  0  0  0  0  0
    7.2210  -15.4157   26.4975 C   0  0  0  0  0  0  0  0  0  0  0  0
    6.2457  -15.8562   25.8377 O   0  0  0  0  0  0  0  0  0  0  0  0
    7.5598  -16.1162   27.6464 O   0  0  0  0  0  0  0  0  0  0  0  0
  2  1  1  6
  2  3  1  0
  3  4  1  0
  4  5  1  0
  5  6  2  0
  5  9  1  0
  7  8  2  0
  7  2  1  0
 11 10  1  6
 11 13  1  0
 12 11  1  0
 13 14  1  6
 14  7  1  0
 15 13  1  0
 15 21  1  0
 16 15  2  0
 18 20  1  0
 18 17  1  6
 19 18  1  0
 20 21  1  6
 20 22  1  0
 22 23  2  0
 22 24  1  0
M  END
$$$$
