EVV.pdb
     RDKit          3D

 24 23  0  0  1  0  0  0  0  0999 V2000
   11.5253  -17.1546   19.7497 N   0  0  0  0  0  0  0  0  0  0  0  0
   11.5620  -17.0667   21.1777 C   0  0  1  0  0  0  0  0  0  0  0  0
   12.6372  -16.1482   21.6636 C   0  0  0  0  0  0  0  0  0  0  0  0
   14.0172  -16.6850   21.5324 C   0  0  0  0  0  0  0  0  0  0  0  0
   15.0663  -15.8785   22.1749 C   0  0  0  0  0  0  0  0  0  0  0  0
   15.6730  -14.9099   21.6684 O   0  0  0  0  0  0  0  0  0  0  0  0
   10.2340  -16.7299   21.7576 C   0  0  0  0  0  0  0  0  0  0  0  0
    9.4705  -15.9734   21.1050 O   0  0  0  0  0  0  0  0  0  0  0  0
   15.4338  -16.2179   23.4875 O   0  0  0  0  0  0  0  0  0  0  0  0
    7.4384  -18.9314   22.8515 C   0  0  0  0  0  0  0  0  0  0  0  0
    7.7767  -18.0468   24.0350 C   0  0  2  0  0  0  0  0  0  0  0  0
    6.4682  -17.5824   24.6431 C   0  0  0  0  0  0  0  0  0  0  0  0
    8.5313  -16.8001   23.5592 C   0  0  2  0  0  0  0  0  0  0  0  0
    9.7854  -17.2147   23.0014 N   0  0  0  0  0  0  0  0  0  0  0  0
    8.6946  -15.8586   24.6912 C   0  0  0  0  0  0  0  0  0  0  0  0
    9.6291  -16.0125   25.5151 O   0  0  0  0  0  0  0  0  0  0  0  0
    7.1366  -11.6743   26.9939 C   0  0  0  0  0  0  0  0  0  0  0  0
    6.9122  -12.7315   25.9472 C   0  0  1  0  0  0  0  0  0  0  0  0
    6.9166  -12.0540   24.5943 C   0  0  0  0  0  0  0  0  0  0  0  0
    7.9821  -13.8255   25.9954 C   0  0  2  0  0  0  0  0  0  0  0  0
    7.8245  -14.7548   24.9045 N   0  0  0  0  0  0  0  0  0  0  0  0
    8.0792  -14.4696   27.3059 C   0  0  0  0  0  0  0  0  0  0  0  0
    7.2162  -15.3243   27.6303 O   0  0  0  0  0  0  0  0  0  0  0  0
    9.0713  -14.2046   28.2391 O   0  0  0  0  0  0  0  0  0  0  0  0
  2  1  1  6
  2  3  1  0
  3  4  1  0
  4  5  1  0
  5  6  2  0
  5  9  1  0
  7  8  2  0
  7  2  1  0
 11 10  1  6
 11 13  1  0
 12 11  1  0
 13 14  1  1
 14  7  1  0
 15 13  1  0
 15 21  1  0
 16 15  2  0
 18 20  1  0
 18 17  1  1
 19 18  1  0
 20 21  1  6
 20 22  1  0
 22 23  2  0
 22 24  1  0
M  END
$$$$
