EVV.pdb
     RDKit          3D

 24 23  0  0  1  0  0  0  0  0999 V2000
   12.2231  -16.6698   19.7591 N   0  0  0  0  0  0  0  0  0  0  0  0
   11.5718  -17.3442   20.8403 C   0  0  1  0  0  0  0  0  0  0  0  0
   12.4564  -18.3570   21.4943 C   0  0  0  0  0  0  0  0  0  0  0  0
   12.4524  -19.6946   20.8456 C   0  0  0  0  0  0  0  0  0  0  0  0
   13.2560  -20.7223   21.5254 C   0  0  0  0  0  0  0  0  0  0  0  0
   13.3289  -21.9316   21.2174 O   0  0  0  0  0  0  0  0  0  0  0  0
   10.9828  -16.3968   21.8247 C   0  0  0  0  0  0  0  0  0  0  0  0
   11.6834  -15.4292   22.2170 O   0  0  0  0  0  0  0  0  0  0  0  0
   14.0228  -20.3204   22.6316 O   0  0  0  0  0  0  0  0  0  0  0  0
    7.3541  -15.0193   21.5425 C   0  0  0  0  0  0  0  0  0  0  0  0
    7.6136  -15.4610   22.9691 C   0  0  2  0  0  0  0  0  0  0  0  0
    7.0549  -14.3897   23.8845 C   0  0  0  0  0  0  0  0  0  0  0  0
    9.1226  -15.5447   23.2259 C   0  0  2  0  0  0  0  0  0  0  0  0
    9.6791  -16.5264   22.3414 N   0  0  0  0  0  0  0  0  0  0  0  0
    9.3649  -15.8609   24.6528 C   0  0  0  0  0  0  0  0  0  0  0  0
    9.4938  -17.0525   25.0260 O   0  0  0  0  0  0  0  0  0  0  0  0
   10.1632  -14.1168   29.2969 C   0  0  0  0  0  0  0  0  0  0  0  0
    9.6276  -13.9008   27.9076 C   0  0  1  0  0  0  0  0  0  0  0  0
   10.3809  -12.7407   27.2946 C   0  0  0  0  0  0  0  0  0  0  0  0
    9.7744  -15.1491   27.0335 C   0  0  2  0  0  0  0  0  0  0  0  0
    9.4624  -14.8586   25.6563 N   0  0  0  0  0  0  0  0  0  0  0  0
    9.0542  -16.3058   27.5672 C   0  0  0  0  0  0  0  0  0  0  0  0
    7.8342  -16.4425   27.2960 O   0  0  0  0  0  0  0  0  0  0  0  0
    9.6254  -17.2853   28.3672 O   0  0  0  0  0  0  0  0  0  0  0  0
  2  1  1  6
  2  3  1  0
  3  4  1  0
  4  5  1  0
  5  6  2  0
  5  9  1  0
  7  8  2  0
  7  2  1  0
 11 10  1  6
 11 13  1  0
 12 11  1  0
 13 14  1  6
 14  7  1  0
 15 13  1  0
 15 21  1  0
 16 15  2  0
 18 20  1  0
 18 17  1  1
 19 18  1  0
 20 21  1  6
 20 22  1  0
 22 23  2  0
 22 24  1  0
M  END
$$$$
