EVV.pdb
     RDKit          3D

 24 23  0  0  1  0  0  0  0  0999 V2000
   11.2794  -16.2013   19.2194 N   0  0  0  0  0  0  0  0  0  0  0  0
   11.4239  -16.8645   20.4794 C   0  0  1  0  0  0  0  0  0  0  0  0
   12.8249  -17.3278   20.7210 C   0  0  0  0  0  0  0  0  0  0  0  0
   13.1573  -18.6418   20.1102 C   0  0  0  0  0  0  0  0  0  0  0  0
   14.5110  -19.1409   20.3972 C   0  0  0  0  0  0  0  0  0  0  0  0
   15.4256  -19.3269   19.5655 O   0  0  0  0  0  0  0  0  0  0  0  0
   10.9008  -16.0508   21.6097 C   0  0  0  0  0  0  0  0  0  0  0  0
   11.4307  -14.9337   21.8384 O   0  0  0  0  0  0  0  0  0  0  0  0
   14.8221  -19.4427   21.7334 O   0  0  0  0  0  0  0  0  0  0  0  0
    7.3603  -15.1228   21.9051 C   0  0  0  0  0  0  0  0  0  0  0  0
    7.7543  -15.6134   23.2840 C   0  0  2  0  0  0  0  0  0  0  0  0
    7.1886  -14.6338   24.2931 C   0  0  0  0  0  0  0  0  0  0  0  0
    9.2802  -15.5957   23.4308 C   0  0  2  0  0  0  0  0  0  0  0  0
    9.8410  -16.4661   22.4390 N   0  0  0  0  0  0  0  0  0  0  0  0
    9.6492  -15.9910   24.8100 C   0  0  0  0  0  0  0  0  0  0  0  0
    9.9584  -17.1798   25.0685 O   0  0  0  0  0  0  0  0  0  0  0  0
   11.2606  -13.2772   27.5503 C   0  0  0  0  0  0  0  0  0  0  0  0
   10.2295  -14.2121   28.1217 C   0  0  1  0  0  0  0  0  0  0  0  0
    8.9336  -13.4441   28.2629 C   0  0  0  0  0  0  0  0  0  0  0  0
   10.0206  -15.4465   27.2406 C   0  0  2  0  0  0  0  0  0  0  0  0
    9.6734  -15.0702   25.8930 N   0  0  0  0  0  0  0  0  0  0  0  0
    9.1028  -16.4203   27.8331 C   0  0  0  0  0  0  0  0  0  0  0  0
    7.9179  -16.4732   27.4161 O   0  0  0  0  0  0  0  0  0  0  0  0
    9.4457  -17.3093   28.8418 O   0  0  0  0  0  0  0  0  0  0  0  0
  2  1  1  6
  2  3  1  0
  3  4  1  0
  4  5  1  0
  5  6  2  0
  5  9  1  0
  7  8  2  0
  7  2  1  0
 11 10  1  6
 11 13  1  0
 12 11  1  0
 13 14  1  6
 14  7  1  0
 15 13  1  0
 15 21  1  0
 16 15  2  0
 18 20  1  0
 18 17  1  6
 19 18  1  0
 20 21  1  6
 20 22  1  0
 22 23  2  0
 22 24  1  0
M  END
$$$$
