FQY.pdb
     RDKit          3D

 33 34  0  0  1  0  0  0  0  0999 V2000
   22.9517  -19.1569  -17.7183 N   0  0  0  0  0  0  0  0  0  0  0  0
   23.9887  -19.4983  -16.7822 C   0  0  1  0  0  0  0  0  0  0  0  0
   24.1944  -18.4403  -15.7194 C   0  0  0  0  0  0  0  0  0  0  0  0
   24.8210  -17.2218  -16.2494 C   0  0  0  0  0  0  0  0  0  0  0  0
   24.1115  -16.0434  -16.2929 C   0  0  0  0  0  0  0  0  0  0  0  0
   24.7046  -14.8781  -16.7975 C   0  0  0  0  0  0  0  0  0  0  0  0
   25.9912  -14.9003  -17.2505 C   0  0  0  0  0  0  0  0  0  0  0  0
   26.7067  -16.0731  -17.2105 C   0  0  0  0  0  0  0  0  0  0  0  0
   26.1154  -17.2302  -16.7086 C   0  0  0  0  0  0  0  0  0  0  0  0
   23.6358  -20.7653  -16.0705 C   0  0  0  0  0  0  0  0  0  0  0  0
   22.4463  -21.0875  -15.8345 O   0  0  0  0  0  0  0  0  0  0  0  0
   24.7902  -26.5683  -15.4885 N   0  0  0  0  0  0  0  0  0  0  0  0
   24.4214  -26.0075  -16.7327 C   0  0  0  0  0  0  0  0  0  0  0  0
   23.9659  -26.6807  -17.6856 O   0  0  0  0  0  0  0  0  0  0  0  0
   24.5841  -24.5433  -16.9160 C   0  0  0  0  0  0  0  0  0  0  0  0
   25.1365  -23.9512  -15.6701 C   0  0  0  0  0  0  0  0  0  0  0  0
   24.2616  -22.9107  -15.0193 C   0  0  2  0  0  0  0  0  0  0  0  0
   24.6658  -21.6376  -15.6442 N   0  0  0  0  0  0  0  0  0  0  0  0
   24.5948  -22.8381  -13.5783 C   0  0  0  0  0  0  0  0  0  0  0  0
   24.5245  -23.8074  -12.7787 O   0  0  0  0  0  0  0  0  0  0  0  0
   27.2833  -19.2277   -5.9437 O   0  0  0  0  0  0  0  0  0  0  0  0
   27.0810  -19.5634   -7.2835 C   0  0  0  0  0  0  0  0  0  0  0  0
   26.1806  -18.8574   -8.0547 C   0  0  0  0  0  0  0  0  0  0  0  0
   25.9557  -19.1696   -9.4003 C   0  0  0  0  0  0  0  0  0  0  0  0
   26.6462  -20.2086   -9.9830 C   0  0  0  0  0  0  0  0  0  0  0  0
   26.4243  -20.5607  -11.4066 C   0  0  0  0  0  0  0  0  0  0  0  0
   25.2581  -21.5014  -11.5849 C   0  0  2  0  0  0  0  0  0  0  0  0
   25.0299  -21.6056  -13.0122 N   0  0  0  0  0  0  0  0  0  0  0  0
   24.0239  -21.0792  -10.9300 C   0  0  0  0  0  0  0  0  0  0  0  0
   23.7122  -21.3771   -9.6076 O   0  0  0  0  0  0  0  0  0  0  0  0
   27.5483  -20.9147   -9.2075 C   0  0  0  0  0  0  0  0  0  0  0  0
   27.7681  -20.6026   -7.8762 C   0  0  0  0  0  0  0  0  0  0  0  0
   23.1727  -20.4088  -11.5640 O   0  0  0  0  0  0  0  0  0  0  0  0
  2  1  1  6
  2  3  1  0
  4  9  1  0
  4  3  1  0
  5  4  2  0
  6  7  2  0
  6  5  1  0
  7  8  1  0
  8  9  2  0
 10  2  1  0
 10 11  2  0
 12 13  1  0
 13 15  1  0
 14 13  2  0
 15 16  1  0
 17 16  1  6
 17 18  1  0
 18 10  1  0
 19 17  1  0
 20 19  2  0
 22 23  2  0
 22 21  1  0
 24 23  1  0
 25 24  2  0
 26 25  1  0
 27 26  1  6
 27 28  1  0
 28 19  1  0
 29 27  1  0
 30 29  1  0
 31 25  1  0
 31 32  2  0
 32 22  1  0
 33 29  2  0
M  END
$$$$
