FQY.pdb
     RDKit          3D

 33 34  0  0  1  0  0  0  0  0999 V2000
   22.3998  -16.9926  -19.9958 N   0  0  0  0  0  0  0  0  0  0  0  0
   23.2208  -17.1049  -18.8204 C   0  0  1  0  0  0  0  0  0  0  0  0
   22.5288  -16.6082  -17.5691 C   0  0  0  0  0  0  0  0  0  0  0  0
   22.1294  -15.1979  -17.6666 C   0  0  0  0  0  0  0  0  0  0  0  0
   20.8034  -14.8651  -17.8243 C   0  0  0  0  0  0  0  0  0  0  0  0
   20.4170  -13.5212  -17.9178 C   0  0  0  0  0  0  0  0  0  0  0  0
   21.3515  -12.5293  -17.8535 C   0  0  0  0  0  0  0  0  0  0  0  0
   22.6779  -12.8532  -17.6961 C   0  0  0  0  0  0  0  0  0  0  0  0
   23.0599  -14.1897  -17.6034 C   0  0  0  0  0  0  0  0  0  0  0  0
   23.5744  -18.5381  -18.5808 C   0  0  0  0  0  0  0  0  0  0  0  0
   22.8015  -19.4759  -18.8933 O   0  0  0  0  0  0  0  0  0  0  0  0
   27.1264  -22.8380  -15.9354 N   0  0  0  0  0  0  0  0  0  0  0  0
   27.7307  -21.9624  -16.8662 C   0  0  0  0  0  0  0  0  0  0  0  0
   28.7695  -21.3062  -16.6232 O   0  0  0  0  0  0  0  0  0  0  0  0
   27.0980  -21.8152  -18.2012 C   0  0  0  0  0  0  0  0  0  0  0  0
   26.5309  -20.4477  -18.3274 C   0  0  0  0  0  0  0  0  0  0  0  0
   25.1286  -20.2903  -17.7976 C   0  0  2  0  0  0  0  0  0  0  0  0
   24.8163  -18.8611  -17.9837 N   0  0  0  0  0  0  0  0  0  0  0  0
   25.1314  -20.5715  -16.3438 C   0  0  0  0  0  0  0  0  0  0  0  0
   26.0636  -20.2606  -15.5574 O   0  0  0  0  0  0  0  0  0  0  0  0
   23.7632  -21.0399   -7.9677 O   0  0  0  0  0  0  0  0  0  0  0  0
   23.8994  -20.8676   -9.3463 C   0  0  0  0  0  0  0  0  0  0  0  0
   25.1322  -21.0036   -9.9511 C   0  0  0  0  0  0  0  0  0  0  0  0
   25.3010  -20.8371  -11.3304 C   0  0  0  0  0  0  0  0  0  0  0  0
   24.2141  -20.5287  -12.1173 C   0  0  0  0  0  0  0  0  0  0  0  0
   24.3672  -20.3452  -13.5811 C   0  0  0  0  0  0  0  0  0  0  0  0
   24.0638  -21.6089  -14.3477 C   0  0  2  0  0  0  0  0  0  0  0  0
   24.0230  -21.2390  -15.7483 N   0  0  0  0  0  0  0  0  0  0  0  0
   22.8085  -22.2595  -13.9853 C   0  0  0  0  0  0  0  0  0  0  0  0
   21.6747  -22.2497  -14.7909 O   0  0  0  0  0  0  0  0  0  0  0  0
   22.9794  -20.3930  -11.5083 C   0  0  0  0  0  0  0  0  0  0  0  0
   22.8163  -20.5586  -10.1430 C   0  0  0  0  0  0  0  0  0  0  0  0
   22.7091  -22.8714  -12.8936 O   0  0  0  0  0  0  0  0  0  0  0  0
  2  1  1  6
  2  3  1  0
  4  9  1  0
  4  3  1  0
  5  4  2  0
  6  7  2  0
  6  5  1  0
  7  8  1  0
  8  9  2  0
 10  2  1  0
 10 11  2  0
 12 13  1  0
 13 15  1  0
 14 13  2  0
 15 16  1  0
 17 16  1  1
 17 18  1  0
 18 10  1  0
 19 17  1  0
 20 19  2  0
 22 23  2  0
 22 21  1  0
 24 23  1  0
 25 24  2  0
 26 25  1  0
 27 26  1  1
 27 28  1  0
 28 19  1  0
 29 27  1  0
 30 29  1  0
 31 25  1  0
 31 32  2  0
 32 22  1  0
 33 29  2  0
M  END
$$$$
