FQY.pdb
     RDKit          3D

 33 34  0  0  1  0  0  0  0  0999 V2000
   29.9916  -22.1151  -18.1353 N   0  0  0  0  0  0  0  0  0  0  0  0
   29.1648  -21.5667  -17.0942 C   0  0  1  0  0  0  0  0  0  0  0  0
   29.0953  -20.0551  -17.1321 C   0  0  0  0  0  0  0  0  0  0  0  0
   28.1864  -19.5060  -16.1170 C   0  0  0  0  0  0  0  0  0  0  0  0
   28.6349  -19.2871  -14.8345 C   0  0  0  0  0  0  0  0  0  0  0  0
   27.7719  -18.7634  -13.8624 C   0  0  0  0  0  0  0  0  0  0  0  0
   26.4784  -18.4653  -14.1776 C   0  0  0  0  0  0  0  0  0  0  0  0
   26.0226  -18.6810  -15.4562 C   0  0  0  0  0  0  0  0  0  0  0  0
   26.8820  -19.2016  -16.4210 C   0  0  0  0  0  0  0  0  0  0  0  0
   27.7636  -22.0691  -17.2384 C   0  0  0  0  0  0  0  0  0  0  0  0
   27.3137  -22.4819  -18.3346 O   0  0  0  0  0  0  0  0  0  0  0  0
   27.1481  -26.7957  -16.0143 N   0  0  0  0  0  0  0  0  0  0  0  0
   25.7374  -26.7117  -15.9812 C   0  0  0  0  0  0  0  0  0  0  0  0
   24.9873  -27.7131  -15.9242 O   0  0  0  0  0  0  0  0  0  0  0  0
   25.1156  -25.3640  -16.0159 C   0  0  0  0  0  0  0  0  0  0  0  0
   26.1835  -24.3321  -16.0673 C   0  0  0  0  0  0  0  0  0  0  0  0
   25.6904  -22.9136  -16.1953 C   0  0  2  0  0  0  0  0  0  0  0  0
   26.9075  -22.0851  -16.1114 N   0  0  0  0  0  0  0  0  0  0  0  0
   24.8396  -22.5949  -15.0261 C   0  0  0  0  0  0  0  0  0  0  0  0
   25.2658  -22.1264  -13.9385 O   0  0  0  0  0  0  0  0  0  0  0  0
   20.1654  -18.2716  -18.3820 O   0  0  0  0  0  0  0  0  0  0  0  0
   20.8090  -18.8991  -17.3139 C   0  0  0  0  0  0  0  0  0  0  0  0
   20.1080  -19.2379  -16.1747 C   0  0  0  0  0  0  0  0  0  0  0  0
   20.7247  -19.8675  -15.0874 C   0  0  0  0  0  0  0  0  0  0  0  0
   22.0685  -20.1624  -15.1436 C   0  0  0  0  0  0  0  0  0  0  0  0
   22.7457  -20.8273  -14.0038 C   0  0  0  0  0  0  0  0  0  0  0  0
   22.5715  -22.3258  -14.0342 C   0  0  2  0  0  0  0  0  0  0  0  0
   23.4342  -22.8175  -15.0898 N   0  0  0  0  0  0  0  0  0  0  0  0
   21.2060  -22.7797  -14.2785 C   0  0  0  0  0  0  0  0  0  0  0  0
   20.1775  -22.6639  -13.3493 O   0  0  0  0  0  0  0  0  0  0  0  0
   22.7687  -19.8216  -16.2869 C   0  0  0  0  0  0  0  0  0  0  0  0
   22.1549  -19.1987  -17.3609 C   0  0  0  0  0  0  0  0  0  0  0  0
   20.9058  -23.3091  -15.3765 O   0  0  0  0  0  0  0  0  0  0  0  0
  2  1  1  6
  2  3  1  0
  4  9  1  0
  4  3  1  0
  5  4  2  0
  6  7  2  0
  6  5  1  0
  7  8  1  0
  8  9  2  0
 10  2  1  0
 10 11  2  0
 12 13  1  0
 13 15  1  0
 14 13  2  0
 15 16  1  0
 17 16  1  1
 17 18  1  0
 18 10  1  0
 19 17  1  0
 20 19  2  0
 22 23  2  0
 22 21  1  0
 24 23  1  0
 25 24  2  0
 26 25  1  0
 27 26  1  6
 27 28  1  0
 28 19  1  0
 29 27  1  0
 30 29  1  0
 31 25  1  0
 31 32  2  0
 32 22  1  0
 33 29  2  0
M  END
$$$$
