FQY.pdb
     RDKit          3D

 33 34  0  0  1  0  0  0  0  0999 V2000
   26.4643  -18.4411   -8.0715 N   0  0  0  0  0  0  0  0  0  0  0  0
   27.1460  -19.6418   -8.4737 C   0  0  1  0  0  0  0  0  0  0  0  0
   27.1385  -20.7105   -7.4017 C   0  0  0  0  0  0  0  0  0  0  0  0
   27.9478  -20.3429   -6.2322 C   0  0  0  0  0  0  0  0  0  0  0  0
   28.6315  -21.3116   -5.5334 C   0  0  0  0  0  0  0  0  0  0  0  0
   29.4050  -20.9662   -4.4170 C   0  0  0  0  0  0  0  0  0  0  0  0
   29.4882  -19.6662   -4.0116 C   0  0  0  0  0  0  0  0  0  0  0  0
   28.8084  -18.6927   -4.7040 C   0  0  0  0  0  0  0  0  0  0  0  0
   28.0401  -19.0381   -5.8134 C   0  0  0  0  0  0  0  0  0  0  0  0
   26.4779  -20.2287   -9.6761 C   0  0  0  0  0  0  0  0  0  0  0  0
   25.2412  -20.1312   -9.8648 O   0  0  0  0  0  0  0  0  0  0  0  0
   30.0970  -22.2959  -14.1365 N   0  0  0  0  0  0  0  0  0  0  0  0
   29.0078  -21.9312  -14.9606 C   0  0  0  0  0  0  0  0  0  0  0  0
   29.0309  -22.0099  -16.2104 O   0  0  0  0  0  0  0  0  0  0  0  0
   27.7732  -21.4288  -14.3068 C   0  0  0  0  0  0  0  0  0  0  0  0
   27.9719  -21.4066  -12.8345 C   0  0  0  0  0  0  0  0  0  0  0  0
   26.8264  -20.8230  -12.0477 C   0  0  2  0  0  0  0  0  0  0  0  0
   27.2526  -20.9183  -10.6392 N   0  0  0  0  0  0  0  0  0  0  0  0
   25.6357  -21.6854  -12.2238 C   0  0  0  0  0  0  0  0  0  0  0  0
   25.3011  -22.6107  -11.4392 O   0  0  0  0  0  0  0  0  0  0  0  0
   17.3492  -20.5600  -11.1571 O   0  0  0  0  0  0  0  0  0  0  0  0
   18.7253  -20.5732  -11.3912 C   0  0  0  0  0  0  0  0  0  0  0  0
   19.5322  -21.5074  -10.7746 C   0  0  0  0  0  0  0  0  0  0  0  0
   20.9147  -21.5463  -10.9888 C   0  0  0  0  0  0  0  0  0  0  0  0
   21.4985  -20.6319  -11.8366 C   0  0  0  0  0  0  0  0  0  0  0  0
   22.9617  -20.6509  -12.0786 C   0  0  0  0  0  0  0  0  0  0  0  0
   23.3423  -21.5982  -13.1897 C   0  0  2  0  0  0  0  0  0  0  0  0
   24.7792  -21.4916  -13.3452 N   0  0  0  0  0  0  0  0  0  0  0  0
   22.6985  -21.3299  -14.4719 C   0  0  0  0  0  0  0  0  0  0  0  0
   21.5768  -22.0135  -14.9291 O   0  0  0  0  0  0  0  0  0  0  0  0
   20.6872  -19.6964  -12.4535 C   0  0  0  0  0  0  0  0  0  0  0  0
   19.3194  -19.6612  -12.2390 C   0  0  0  0  0  0  0  0  0  0  0  0
   23.1546  -20.4400  -15.2309 O   0  0  0  0  0  0  0  0  0  0  0  0
  2  1  1  1
  2  3  1  0
  4  9  1  0
  4  3  1  0
  5  4  2  0
  6  7  2  0
  6  5  1  0
  7  8  1  0
  8  9  2  0
 10  2  1  0
 10 11  2  0
 12 13  1  0
 13 15  1  0
 14 13  2  0
 15 16  1  0
 17 16  1  6
 17 18  1  0
 18 10  1  0
 19 17  1  0
 20 19  2  0
 22 23  2  0
 22 21  1  0
 24 23  1  0
 25 24  2  0
 26 25  1  0
 27 26  1  1
 27 28  1  0
 28 19  1  0
 29 27  1  0
 30 29  1  0
 31 25  1  0
 31 32  2  0
 32 22  1  0
 33 29  2  0
M  END
$$$$
