FQY.pdb
     RDKit          3D

 33 34  0  0  1  0  0  0  0  0999 V2000
   22.8705   -9.1243  -17.5731 N   0  0  0  0  0  0  0  0  0  0  0  0
   22.6781   -9.0961  -16.1482 C   0  0  1  0  0  0  0  0  0  0  0  0
   23.8417   -8.4708  -15.4091 C   0  0  0  0  0  0  0  0  0  0  0  0
   25.0978   -9.2063  -15.6079 C   0  0  0  0  0  0  0  0  0  0  0  0
   25.3570  -10.3413  -14.8740 C   0  0  0  0  0  0  0  0  0  0  0  0
   26.5537  -11.0466  -15.0599 C   0  0  0  0  0  0  0  0  0  0  0  0
   27.4737  -10.6152  -15.9701 C   0  0  0  0  0  0  0  0  0  0  0  0
   27.2225   -9.4825  -16.7071 C   0  0  0  0  0  0  0  0  0  0  0  0
   26.0324   -8.7829  -16.5208 C   0  0  0  0  0  0  0  0  0  0  0  0
   21.4661   -8.2863  -15.8136 C   0  0  0  0  0  0  0  0  0  0  0  0
   20.7844   -7.7119  -16.6966 O   0  0  0  0  0  0  0  0  0  0  0  0
   15.4678   -8.2740  -16.2408 N   0  0  0  0  0  0  0  0  0  0  0  0
   16.4149   -8.7949  -15.3297 C   0  0  0  0  0  0  0  0  0  0  0  0
   16.5102  -10.0128  -15.0538 O   0  0  0  0  0  0  0  0  0  0  0  0
   17.3440   -7.8452  -14.6670 C   0  0  0  0  0  0  0  0  0  0  0  0
   18.7415   -8.3128  -14.8569 C   0  0  0  0  0  0  0  0  0  0  0  0
   19.7926   -7.4570  -14.1977 C   0  0  2  0  0  0  0  0  0  0  0  0
   21.0642   -8.1553  -14.4628 N   0  0  0  0  0  0  0  0  0  0  0  0
   19.5656   -7.4616  -12.7345 C   0  0  0  0  0  0  0  0  0  0  0  0
   20.1225   -8.2504  -11.9273 O   0  0  0  0  0  0  0  0  0  0  0  0
   21.2294   -0.9082  -13.1385 O   0  0  0  0  0  0  0  0  0  0  0  0
   20.9392   -2.0940  -12.4613 C   0  0  0  0  0  0  0  0  0  0  0  0
   21.5188   -3.2838  -12.8516 C   0  0  0  0  0  0  0  0  0  0  0  0
   21.2480   -4.4888  -12.1932 C   0  0  0  0  0  0  0  0  0  0  0  0
   20.3803   -4.5007  -11.1242 C   0  0  0  0  0  0  0  0  0  0  0  0
   20.0753   -5.7649  -10.4111 C   0  0  0  0  0  0  0  0  0  0  0  0
   18.6913   -6.2765  -10.7267 C   0  0  2  0  0  0  0  0  0  0  0  0
   18.6621   -6.5261  -12.1539 N   0  0  0  0  0  0  0  0  0  0  0  0
   17.6060   -5.3659  -10.3753 C   0  0  0  0  0  0  0  0  0  0  0  0
   16.7093   -4.8422  -11.3007 O   0  0  0  0  0  0  0  0  0  0  0  0
   19.8007   -3.3063  -10.7350 C   0  0  0  0  0  0  0  0  0  0  0  0
   20.0712   -2.1159  -11.3892 C   0  0  0  0  0  0  0  0  0  0  0  0
   17.4420   -5.0134   -9.1816 O   0  0  0  0  0  0  0  0  0  0  0  0
  2  1  1  6
  2  3  1  0
  4  9  1  0
  4  3  1  0
  5  4  2  0
  6  7  2  0
  6  5  1  0
  7  8  1  0
  8  9  2  0
 10  2  1  0
 10 11  2  0
 12 13  1  0
 13 15  1  0
 14 13  2  0
 15 16  1  0
 17 16  1  6
 17 18  1  0
 18 10  1  0
 19 17  1  0
 20 19  2  0
 22 23  2  0
 22 21  1  0
 24 23  1  0
 25 24  2  0
 26 25  1  0
 27 26  1  6
 27 28  1  0
 28 19  1  0
 29 27  1  0
 30 29  1  0
 31 25  1  0
 31 32  2  0
 32 22  1  0
 33 29  2  0
M  END
$$$$
