FQY.pdb
     RDKit          3D

 33 34  0  0  1  0  0  0  0  0999 V2000
   21.4409  -15.3123  -19.0759 N   0  0  0  0  0  0  0  0  0  0  0  0
   21.8890  -13.9474  -19.0078 C   0  0  1  0  0  0  0  0  0  0  0  0
   22.4071  -13.4308  -20.3329 C   0  0  0  0  0  0  0  0  0  0  0  0
   23.5798  -14.1759  -20.8099 C   0  0  0  0  0  0  0  0  0  0  0  0
   23.4164  -15.3745  -21.4661 C   0  0  0  0  0  0  0  0  0  0  0  0
   24.5318  -16.0893  -21.9233 C   0  0  0  0  0  0  0  0  0  0  0  0
   25.7909  -15.6040  -21.7224 C   0  0  0  0  0  0  0  0  0  0  0  0
   25.9629  -14.4077  -21.0680 C   0  0  0  0  0  0  0  0  0  0  0  0
   24.8528  -13.6988  -20.6144 C   0  0  0  0  0  0  0  0  0  0  0  0
   20.7547  -13.0581  -18.6089 C   0  0  0  0  0  0  0  0  0  0  0  0
   19.5934  -13.2188  -19.0560 O   0  0  0  0  0  0  0  0  0  0  0  0
   17.5702  -13.6512  -14.9068 N   0  0  0  0  0  0  0  0  0  0  0  0
   17.0551  -12.3398  -15.0218 C   0  0  0  0  0  0  0  0  0  0  0  0
   15.9869  -11.9680  -14.4839 O   0  0  0  0  0  0  0  0  0  0  0  0
   17.8234  -11.3540  -15.8232 C   0  0  0  0  0  0  0  0  0  0  0  0
   18.9491  -12.0453  -16.5033 C   0  0  0  0  0  0  0  0  0  0  0  0
   19.8314  -11.1526  -17.3377 C   0  0  2  0  0  0  0  0  0  0  0  0
   20.9843  -11.9981  -17.6995 N   0  0  0  0  0  0  0  0  0  0  0  0
   20.3268  -10.0428  -16.4918 C   0  0  0  0  0  0  0  0  0  0  0  0
   21.1741  -10.1700  -15.5700 O   0  0  0  0  0  0  0  0  0  0  0  0
   21.9479   -1.7829  -13.8569 O   0  0  0  0  0  0  0  0  0  0  0  0
   21.6874   -2.9645  -14.5531 C   0  0  0  0  0  0  0  0  0  0  0  0
   22.5419   -4.0428  -14.4480 C   0  0  0  0  0  0  0  0  0  0  0  0
   22.3081   -5.2406  -15.1331 C   0  0  0  0  0  0  0  0  0  0  0  0
   21.1975   -5.3590  -15.9383 C   0  0  0  0  0  0  0  0  0  0  0  0
   20.9286   -6.6170  -16.6765 C   0  0  0  0  0  0  0  0  0  0  0  0
   20.2453   -7.6485  -15.8128 C   0  0  2  0  0  0  0  0  0  0  0  0
   19.8387   -8.7208  -16.6989 N   0  0  0  0  0  0  0  0  0  0  0  0
   19.0801   -7.1612  -15.0812 C   0  0  0  0  0  0  0  0  0  0  0  0
   17.7927   -7.1412  -15.6073 O   0  0  0  0  0  0  0  0  0  0  0  0
   20.3425   -4.2764  -16.0419 C   0  0  0  0  0  0  0  0  0  0  0  0
   20.5773   -3.0927  -15.3622 C   0  0  0  0  0  0  0  0  0  0  0  0
   19.2085   -6.7281  -13.9099 O   0  0  0  0  0  0  0  0  0  0  0  0
  2  1  1  6
  2  3  1  0
  4  9  1  0
  4  3  1  0
  5  4  2  0
  6  7  2  0
  6  5  1  0
  7  8  1  0
  8  9  2  0
 10  2  1  0
 10 11  2  0
 12 13  1  0
 13 15  1  0
 14 13  2  0
 15 16  1  0
 17 16  1  1
 17 18  1  0
 18 10  1  0
 19 17  1  0
 20 19  2  0
 22 23  2  0
 22 21  1  0
 24 23  1  0
 25 24  2  0
 26 25  1  0
 27 26  1  6
 27 28  1  0
 28 19  1  0
 29 27  1  0
 30 29  1  0
 31 25  1  0
 31 32  2  0
 32 22  1  0
 33 29  2  0
M  END
$$$$
