FQY.pdb
     RDKit          3D

 33 34  0  0  1  0  0  0  0  0999 V2000
   27.7911  -21.6671  -15.8695 N   0  0  0  0  0  0  0  0  0  0  0  0
   26.9614  -20.6995  -15.2036 C   0  0  1  0  0  0  0  0  0  0  0  0
   26.2180  -19.7989  -16.1666 C   0  0  0  0  0  0  0  0  0  0  0  0
   27.0618  -18.7192  -16.6959 C   0  0  0  0  0  0  0  0  0  0  0  0
   27.7334  -18.8875  -17.8854 C   0  0  0  0  0  0  0  0  0  0  0  0
   28.5396  -17.8606  -18.3947 C   0  0  0  0  0  0  0  0  0  0  0  0
   28.6670  -16.6837  -17.7166 C   0  0  0  0  0  0  0  0  0  0  0  0
   27.9997  -16.5075  -16.5280 C   0  0  0  0  0  0  0  0  0  0  0  0
   27.1988  -17.5295  -16.0234 C   0  0  0  0  0  0  0  0  0  0  0  0
   25.9287  -21.3968  -14.3766 C   0  0  0  0  0  0  0  0  0  0  0  0
   26.0937  -22.5660  -13.9522 O   0  0  0  0  0  0  0  0  0  0  0  0
   26.8621  -20.1635   -9.8995 N   0  0  0  0  0  0  0  0  0  0  0  0
   25.6801  -20.7425   -9.3838 C   0  0  0  0  0  0  0  0  0  0  0  0
   25.5098  -20.9994   -8.1699 O   0  0  0  0  0  0  0  0  0  0  0  0
   24.5849  -21.0614  -10.3341 C   0  0  0  0  0  0  0  0  0  0  0  0
   25.0106  -20.7027  -11.7117 C   0  0  0  0  0  0  0  0  0  0  0  0
   24.0500  -21.1096  -12.7995 C   0  0  2  0  0  0  0  0  0  0  0  0
   24.7230  -20.7287  -14.0552 N   0  0  0  0  0  0  0  0  0  0  0  0
   22.8172  -20.2984  -12.6780 C   0  0  0  0  0  0  0  0  0  0  0  0
   22.7819  -19.0411  -12.7195 O   0  0  0  0  0  0  0  0  0  0  0  0
   18.6930  -25.5491   -9.4253 O   0  0  0  0  0  0  0  0  0  0  0  0
   18.9659  -24.2387   -9.8215 C   0  0  0  0  0  0  0  0  0  0  0  0
   18.8993  -23.8806  -11.1524 C   0  0  0  0  0  0  0  0  0  0  0  0
   19.1673  -22.5755  -11.5809 C   0  0  0  0  0  0  0  0  0  0  0  0
   19.5081  -21.6121  -10.6581 C   0  0  0  0  0  0  0  0  0  0  0  0
   19.7988  -20.2224  -11.0870 C   0  0  0  0  0  0  0  0  0  0  0  0
   20.3375  -20.1625  -12.4952 C   0  0  2  0  0  0  0  0  0  0  0  0
   21.5591  -20.9422  -12.5002 N   0  0  0  0  0  0  0  0  0  0  0  0
   20.6232  -18.8179  -12.9859 C   0  0  0  0  0  0  0  0  0  0  0  0
   19.7311  -17.7554  -12.8862 O   0  0  0  0  0  0  0  0  0  0  0  0
   19.5741  -21.9739   -9.3244 C   0  0  0  0  0  0  0  0  0  0  0  0
   19.3082  -23.2665   -8.9043 C   0  0  0  0  0  0  0  0  0  0  0  0
   21.7246  -18.5690  -13.5343 O   0  0  0  0  0  0  0  0  0  0  0  0
  2  1  1  6
  2  3  1  0
  4  9  1  0
  4  3  1  0
  5  4  2  0
  6  7  2  0
  6  5  1  0
  7  8  1  0
  8  9  2  0
 10  2  1  0
 10 11  2  0
 12 13  1  0
 13 15  1  0
 14 13  2  0
 15 16  1  0
 17 16  1  1
 17 18  1  0
 18 10  1  0
 19 17  1  0
 20 19  2  0
 22 23  2  0
 22 21  1  0
 24 23  1  0
 25 24  2  0
 26 25  1  0
 27 26  1  1
 27 28  1  0
 28 19  1  0
 29 27  1  0
 30 29  1  0
 31 25  1  0
 31 32  2  0
 32 22  1  0
 33 29  2  0
M  END
$$$$
