FQY.pdb
     RDKit          3D

 33 34  0  0  1  0  0  0  0  0999 V2000
   28.6448  -22.1116  -13.5327 N   0  0  0  0  0  0  0  0  0  0  0  0
   27.5428  -21.7026  -12.7042 C   0  0  1  0  0  0  0  0  0  0  0  0
   27.9073  -20.5875  -11.7477 C   0  0  0  0  0  0  0  0  0  0  0  0
   28.9634  -20.9761  -10.8034 C   0  0  0  0  0  0  0  0  0  0  0  0
   28.6324  -21.4737   -9.5636 C   0  0  0  0  0  0  0  0  0  0  0  0
   29.6360  -21.8459   -8.6591 C   0  0  0  0  0  0  0  0  0  0  0  0
   30.9513  -21.7189   -8.9984 C   0  0  0  0  0  0  0  0  0  0  0  0
   31.2904  -21.2229  -10.2345 C   0  0  0  0  0  0  0  0  0  0  0  0
   30.2912  -20.8534  -11.1322 C   0  0  0  0  0  0  0  0  0  0  0  0
   26.4249  -21.1941  -13.5575 C   0  0  0  0  0  0  0  0  0  0  0  0
   26.5652  -20.9921  -14.7880 O   0  0  0  0  0  0  0  0  0  0  0  0
   23.7305  -25.2642  -14.1449 N   0  0  0  0  0  0  0  0  0  0  0  0
   22.6596  -24.5767  -14.7604 C   0  0  0  0  0  0  0  0  0  0  0  0
   21.7208  -25.1529  -15.3565 O   0  0  0  0  0  0  0  0  0  0  0  0
   22.6504  -23.0935  -14.6950 C   0  0  0  0  0  0  0  0  0  0  0  0
   23.8485  -22.6279  -13.9496 C   0  0  0  0  0  0  0  0  0  0  0  0
   23.9691  -21.1318  -13.8120 C   0  0  2  0  0  0  0  0  0  0  0  0
   25.1640  -20.9282  -12.9720 N   0  0  0  0  0  0  0  0  0  0  0  0
   22.7951  -20.6231  -13.0668 C   0  0  0  0  0  0  0  0  0  0  0  0
   22.6974  -20.6058  -11.8122 O   0  0  0  0  0  0  0  0  0  0  0  0
   18.1938  -14.4320  -16.2143 O   0  0  0  0  0  0  0  0  0  0  0  0
   18.8752  -15.3159  -15.3757 C   0  0  0  0  0  0  0  0  0  0  0  0
   20.0799  -15.8640  -15.7658 C   0  0  0  0  0  0  0  0  0  0  0  0
   20.7868  -16.7528  -14.9477 C   0  0  0  0  0  0  0  0  0  0  0  0
   20.2763  -17.0982  -13.7166 C   0  0  0  0  0  0  0  0  0  0  0  0
   21.0051  -18.0397  -12.8321 C   0  0  0  0  0  0  0  0  0  0  0  0
   20.5872  -19.4718  -13.0581 C   0  0  2  0  0  0  0  0  0  0  0  0
   21.6733  -20.1073  -13.7769 N   0  0  0  0  0  0  0  0  0  0  0  0
   19.3489  -19.6374  -13.8129 C   0  0  0  0  0  0  0  0  0  0  0  0
   18.0828  -19.5677  -13.2414 O   0  0  0  0  0  0  0  0  0  0  0  0
   19.0683  -16.5472  -13.3281 C   0  0  0  0  0  0  0  0  0  0  0  0
   18.3718  -15.6679  -14.1404 C   0  0  0  0  0  0  0  0  0  0  0  0
   19.3896  -19.8567  -15.0483 O   0  0  0  0  0  0  0  0  0  0  0  0
  2  1  1  6
  2  3  1  0
  4  9  1  0
  4  3  1  0
  5  4  2  0
  6  7  2  0
  6  5  1  0
  7  8  1  0
  8  9  2  0
 10  2  1  0
 10 11  2  0
 12 13  1  0
 13 15  1  0
 14 13  2  0
 15 16  1  0
 17 16  1  1
 17 18  1  0
 18 10  1  0
 19 17  1  0
 20 19  2  0
 22 23  2  0
 22 21  1  0
 24 23  1  0
 25 24  2  0
 26 25  1  0
 27 26  1  6
 27 28  1  0
 28 19  1  0
 29 27  1  0
 30 29  1  0
 31 25  1  0
 31 32  2  0
 32 22  1  0
 33 29  2  0
M  END
$$$$
