FQY.pdb
     RDKit          3D

 33 34  0  0  1  0  0  0  0  0999 V2000
   31.1091  -30.3831  -21.5793 N   0  0  0  0  0  0  0  0  0  0  0  0
   30.4029  -29.5102  -20.6808 C   0  0  1  0  0  0  0  0  0  0  0  0
   29.6935  -28.3793  -21.3943 C   0  0  0  0  0  0  0  0  0  0  0  0
   30.6266  -27.4034  -21.9730 C   0  0  0  0  0  0  0  0  0  0  0  0
   31.0750  -27.5587  -23.2648 C   0  0  0  0  0  0  0  0  0  0  0  0
   31.9652  -26.6305  -23.8217 C   0  0  0  0  0  0  0  0  0  0  0  0
   32.3962  -25.5636  -23.0888 C   0  0  0  0  0  0  0  0  0  0  0  0
   31.9531  -25.4011  -21.7979 C   0  0  0  0  0  0  0  0  0  0  0  0
   31.0683  -26.3249  -21.2462 C   0  0  0  0  0  0  0  0  0  0  0  0
   29.3562  -30.2801  -19.9401 C   0  0  0  0  0  0  0  0  0  0  0  0
   28.8241  -31.3108  -20.4187 O   0  0  0  0  0  0  0  0  0  0  0  0
   27.9369  -32.4402  -14.5185 N   0  0  0  0  0  0  0  0  0  0  0  0
   29.0143  -32.8622  -15.3306 C   0  0  0  0  0  0  0  0  0  0  0  0
   29.6829  -33.8975  -15.1076 O   0  0  0  0  0  0  0  0  0  0  0  0
   29.3692  -32.0320  -16.5092 C   0  0  0  0  0  0  0  0  0  0  0  0
   28.4282  -30.8859  -16.6034 C   0  0  0  0  0  0  0  0  0  0  0  0
   27.8866  -30.6207  -17.9847 C   0  0  2  0  0  0  0  0  0  0  0  0
   28.9437  -29.8437  -18.6585 N   0  0  0  0  0  0  0  0  0  0  0  0
   26.6880  -29.7587  -17.8719 C   0  0  0  0  0  0  0  0  0  0  0  0
   26.7129  -28.5340  -17.5827 O   0  0  0  0  0  0  0  0  0  0  0  0
   19.7550  -25.0158  -19.0850 O   0  0  0  0  0  0  0  0  0  0  0  0
   20.8872  -25.8317  -19.0505 C   0  0  0  0  0  0  0  0  0  0  0  0
   20.9153  -27.0213  -19.7490 C   0  0  0  0  0  0  0  0  0  0  0  0
   22.0351  -27.8607  -19.7343 C   0  0  0  0  0  0  0  0  0  0  0  0
   23.1467  -27.5006  -19.0059 C   0  0  0  0  0  0  0  0  0  0  0  0
   24.3451  -28.3738  -18.9724 C   0  0  0  0  0  0  0  0  0  0  0  0
   24.2150  -29.4797  -17.9542 C   0  0  2  0  0  0  0  0  0  0  0  0
   25.3942  -30.3099  -18.0975 N   0  0  0  0  0  0  0  0  0  0  0  0
   23.0225  -30.3090  -18.0984 C   0  0  0  0  0  0  0  0  0  0  0  0
   21.8360  -30.0790  -17.4101 O   0  0  0  0  0  0  0  0  0  0  0  0
   23.1158  -26.3074  -18.3065 C   0  0  0  0  0  0  0  0  0  0  0  0
   22.0057  -25.4794  -18.3236 C   0  0  0  0  0  0  0  0  0  0  0  0
   23.0310  -31.2932  -18.8776 O   0  0  0  0  0  0  0  0  0  0  0  0
  2  1  1  6
  2  3  1  0
  4  9  1  0
  4  3  1  0
  5  4  2  0
  6  7  2  0
  6  5  1  0
  7  8  1  0
  8  9  2  0
 10  2  1  0
 10 11  2  0
 12 13  1  0
 13 15  1  0
 14 13  2  0
 15 16  1  0
 17 16  1  1
 17 18  1  0
 18 10  1  0
 19 17  1  0
 20 19  2  0
 22 23  2  0
 22 21  1  0
 24 23  1  0
 25 24  2  0
 26 25  1  0
 27 26  1  6
 27 28  1  0
 28 19  1  0
 29 27  1  0
 30 29  1  0
 31 25  1  0
 31 32  2  0
 32 22  1  0
 33 29  2  0
M  END
$$$$
