FQY.pdb
     RDKit          3D

 33 34  0  0  1  0  0  0  0  0999 V2000
   23.7173  -16.5970  -19.3748 N   0  0  0  0  0  0  0  0  0  0  0  0
   23.6367  -17.9058  -18.7840 C   0  0  1  0  0  0  0  0  0  0  0  0
   24.9938  -18.5442  -18.5796 C   0  0  0  0  0  0  0  0  0  0  0  0
   25.6737  -18.8436  -19.8470 C   0  0  0  0  0  0  0  0  0  0  0  0
   25.2889  -19.9314  -20.5969 C   0  0  0  0  0  0  0  0  0  0  0  0
   25.9342  -20.2214  -21.8067 C   0  0  0  0  0  0  0  0  0  0  0  0
   26.9504  -19.4281  -22.2531 C   0  0  0  0  0  0  0  0  0  0  0  0
   27.3408  -18.3397  -21.5102 C   0  0  0  0  0  0  0  0  0  0  0  0
   26.6981  -18.0533  -20.3079 C   0  0  0  0  0  0  0  0  0  0  0  0
   22.9912  -17.8183  -17.4378 C   0  0  0  0  0  0  0  0  0  0  0  0
   22.6631  -16.7203  -16.9267 O   0  0  0  0  0  0  0  0  0  0  0  0
   18.3686  -19.7809  -16.1214 N   0  0  0  0  0  0  0  0  0  0  0  0
   18.4250  -18.9660  -14.9676 C   0  0  0  0  0  0  0  0  0  0  0  0
   17.4723  -18.8393  -14.1645 O   0  0  0  0  0  0  0  0  0  0  0  0
   19.6814  -18.2227  -14.6967 C   0  0  0  0  0  0  0  0  0  0  0  0
   20.6232  -18.4220  -15.8285 C   0  0  0  0  0  0  0  0  0  0  0  0
   22.0065  -18.8704  -15.4321 C   0  0  2  0  0  0  0  0  0  0  0  0
   22.7366  -19.0031  -16.7066 N   0  0  0  0  0  0  0  0  0  0  0  0
   21.9164  -20.2137  -14.8157 C   0  0  0  0  0  0  0  0  0  0  0  0
   21.3227  -21.1975  -15.3292 O   0  0  0  0  0  0  0  0  0  0  0  0
   27.6415  -22.5101  -16.5920 O   0  0  0  0  0  0  0  0  0  0  0  0
   26.6956  -22.4204  -15.5692 C   0  0  0  0  0  0  0  0  0  0  0  0
   26.5602  -21.2568  -14.8400 C   0  0  0  0  0  0  0  0  0  0  0  0
   25.6216  -21.1358  -13.8089 C   0  0  0  0  0  0  0  0  0  0  0  0
   24.8042  -22.2008  -13.5036 C   0  0  0  0  0  0  0  0  0  0  0  0
   23.8030  -22.0984  -12.4140 C   0  0  0  0  0  0  0  0  0  0  0  0
   22.4271  -21.7642  -12.9354 C   0  0  2  0  0  0  0  0  0  0  0  0
   22.5290  -20.4572  -13.5531 N   0  0  0  0  0  0  0  0  0  0  0  0
   21.3772  -21.7367  -11.9218 C   0  0  0  0  0  0  0  0  0  0  0  0
   20.8849  -20.5664  -11.3537 O   0  0  0  0  0  0  0  0  0  0  0  0
   24.9421  -23.3662  -14.2362 C   0  0  0  0  0  0  0  0  0  0  0  0
   25.8722  -23.4820  -15.2559 C   0  0  0  0  0  0  0  0  0  0  0  0
   20.8666  -22.8091  -11.5154 O   0  0  0  0  0  0  0  0  0  0  0  0
  2  1  1  1
  2  3  1  0
  4  9  1  0
  4  3  1  0
  5  4  2  0
  6  7  2  0
  6  5  1  0
  7  8  1  0
  8  9  2  0
 10  2  1  0
 10 11  2  0
 12 13  1  0
 13 15  1  0
 14 13  2  0
 15 16  1  0
 17 16  1  6
 17 18  1  0
 18 10  1  0
 19 17  1  0
 20 19  2  0
 22 23  2  0
 22 21  1  0
 24 23  1  0
 25 24  2  0
 26 25  1  0
 27 26  1  1
 27 28  1  0
 28 19  1  0
 29 27  1  0
 30 29  1  0
 31 25  1  0
 31 32  2  0
 32 22  1  0
 33 29  2  0
M  END
$$$$
