FQY.pdb
     RDKit          3D

 33 34  0  0  1  0  0  0  0  0999 V2000
   24.8876  -11.1693  -18.0142 N   0  0  0  0  0  0  0  0  0  0  0  0
   24.5349  -10.7321  -16.6903 C   0  0  1  0  0  0  0  0  0  0  0  0
   25.6279   -9.9220  -16.0268 C   0  0  0  0  0  0  0  0  0  0  0  0
   26.9212  -10.6186  -16.0186 C   0  0  0  0  0  0  0  0  0  0  0  0
   27.0952  -11.7428  -15.2440 C   0  0  0  0  0  0  0  0  0  0  0  0
   28.3269  -12.4111  -15.2326 C   0  0  0  0  0  0  0  0  0  0  0  0
   29.3660  -11.9541  -15.9893 C   0  0  0  0  0  0  0  0  0  0  0  0
   29.2006  -10.8320  -16.7657 C   0  0  0  0  0  0  0  0  0  0  0  0
   27.9755  -10.1692  -16.7756 C   0  0  0  0  0  0  0  0  0  0  0  0
   23.3221   -9.8588  -16.7483 C   0  0  0  0  0  0  0  0  0  0  0  0
   22.9945   -9.2426  -17.7911 O   0  0  0  0  0  0  0  0  0  0  0  0
   18.5421  -10.7924  -16.7363 N   0  0  0  0  0  0  0  0  0  0  0  0
   17.9851   -9.8352  -15.8577 C   0  0  0  0  0  0  0  0  0  0  0  0
   16.7771   -9.5051  -15.8722 O   0  0  0  0  0  0  0  0  0  0  0  0
   18.8825   -9.1893  -14.8668 C   0  0  0  0  0  0  0  0  0  0  0  0
   20.2366   -9.7931  -14.9643 C   0  0  0  0  0  0  0  0  0  0  0  0
   21.2357   -8.9877  -15.7547 C   0  0  2  0  0  0  0  0  0  0  0  0
   22.5096   -9.7140  -15.5985 N   0  0  0  0  0  0  0  0  0  0  0  0
   21.3877   -7.6580  -15.1211 C   0  0  0  0  0  0  0  0  0  0  0  0
   22.0806   -7.4299  -14.0955 O   0  0  0  0  0  0  0  0  0  0  0  0
   23.4412    0.6731  -14.7939 O   0  0  0  0  0  0  0  0  0  0  0  0
   23.1847   -0.6942  -14.9108 C   0  0  0  0  0  0  0  0  0  0  0  0
   22.6714   -1.4046  -13.8450 C   0  0  0  0  0  0  0  0  0  0  0  0
   22.4037   -2.7756  -13.9310 C   0  0  0  0  0  0  0  0  0  0  0  0
   22.6553   -3.4462  -15.1069 C   0  0  0  0  0  0  0  0  0  0  0  0
   22.3821   -4.8994  -15.2227 C   0  0  0  0  0  0  0  0  0  0  0  0
   20.9120   -5.2139  -15.0945 C   0  0  2  0  0  0  0  0  0  0  0  0
   20.7215   -6.5278  -15.6757 N   0  0  0  0  0  0  0  0  0  0  0  0
   20.0217   -4.2630  -15.7530 C   0  0  0  0  0  0  0  0  0  0  0  0
   19.5013   -3.1346  -15.1281 O   0  0  0  0  0  0  0  0  0  0  0  0
   23.1699   -2.7315  -16.1738 C   0  0  0  0  0  0  0  0  0  0  0  0
   23.4335   -1.3748  -16.0848 C   0  0  0  0  0  0  0  0  0  0  0  0
   19.6849   -4.4408  -16.9492 O   0  0  0  0  0  0  0  0  0  0  0  0
  2  1  1  6
  2  3  1  0
  4  9  1  0
  4  3  1  0
  5  4  2  0
  6  7  2  0
  6  5  1  0
  7  8  1  0
  8  9  2  0
 10  2  1  0
 10 11  2  0
 12 13  1  0
 13 15  1  0
 14 13  2  0
 15 16  1  0
 17 16  1  1
 17 18  1  0
 18 10  1  0
 19 17  1  0
 20 19  2  0
 22 23  2  0
 22 21  1  0
 24 23  1  0
 25 24  2  0
 26 25  1  0
 27 26  1  6
 27 28  1  0
 28 19  1  0
 29 27  1  0
 30 29  1  0
 31 25  1  0
 31 32  2  0
 32 22  1  0
 33 29  2  0
M  END
$$$$
