FQY.pdb
     RDKit          3D

 33 34  0  0  1  0  0  0  0  0999 V2000
   27.2097  -18.2511   -8.5169 N   0  0  0  0  0  0  0  0  0  0  0  0
   27.3565  -19.6644   -8.7385 C   0  0  1  0  0  0  0  0  0  0  0  0
   26.9285  -20.4949   -7.5475 C   0  0  0  0  0  0  0  0  0  0  0  0
   27.7692  -20.2621   -6.3655 C   0  0  0  0  0  0  0  0  0  0  0  0
   28.8894  -19.4683   -6.4602 C   0  0  0  0  0  0  0  0  0  0  0  0
   29.6947  -19.2430   -5.3356 C   0  0  0  0  0  0  0  0  0  0  0  0
   29.3763  -19.8083   -4.1355 C   0  0  0  0  0  0  0  0  0  0  0  0
   28.2592  -20.6024   -4.0323 C   0  0  0  0  0  0  0  0  0  0  0  0
   27.4601  -20.8251   -5.1514 C   0  0  0  0  0  0  0  0  0  0  0  0
   26.5058  -20.0903   -9.8924 C   0  0  0  0  0  0  0  0  0  0  0  0
   25.2767  -19.8424   -9.9409 O   0  0  0  0  0  0  0  0  0  0  0  0
   29.2095  -22.4232  -14.8566 N   0  0  0  0  0  0  0  0  0  0  0  0
   28.0819  -21.8789  -15.5129 C   0  0  0  0  0  0  0  0  0  0  0  0
   27.9233  -21.9118  -16.7548 O   0  0  0  0  0  0  0  0  0  0  0  0
   27.0324  -21.2353  -14.6832 C   0  0  0  0  0  0  0  0  0  0  0  0
   27.4466  -21.2671  -13.2566 C   0  0  0  0  0  0  0  0  0  0  0  0
   26.4558  -20.6643  -12.2940 C   0  0  2  0  0  0  0  0  0  0  0  0
   27.0925  -20.7956  -10.9702 N   0  0  0  0  0  0  0  0  0  0  0  0
   25.2262  -21.4893  -12.2930 C   0  0  0  0  0  0  0  0  0  0  0  0
   25.0296  -22.4784  -11.5401 O   0  0  0  0  0  0  0  0  0  0  0  0
   17.0877  -19.2861  -12.0301 O   0  0  0  0  0  0  0  0  0  0  0  0
   18.3814  -19.8048  -11.9529 C   0  0  0  0  0  0  0  0  0  0  0  0
   18.5900  -21.1135  -11.5685 C   0  0  0  0  0  0  0  0  0  0  0  0
   19.8745  -21.6624  -11.4816 C   0  0  0  0  0  0  0  0  0  0  0  0
   20.9694  -20.8850  -11.7856 C   0  0  0  0  0  0  0  0  0  0  0  0
   22.3410  -21.4427  -11.6992 C   0  0  0  0  0  0  0  0  0  0  0  0
   22.8804  -21.8385  -13.0517 C   0  0  2  0  0  0  0  0  0  0  0  0
   24.1639  -21.1799  -13.1900 N   0  0  0  0  0  0  0  0  0  0  0  0
   22.0298  -21.4763  -14.1811 C   0  0  0  0  0  0  0  0  0  0  0  0
   22.2282  -20.3434  -14.9633 O   0  0  0  0  0  0  0  0  0  0  0  0
   20.7574  -19.5733  -12.1708 C   0  0  0  0  0  0  0  0  0  0  0  0
   19.4847  -19.0337  -12.2556 C   0  0  0  0  0  0  0  0  0  0  0  0
   21.0553  -22.2035  -14.4936 O   0  0  0  0  0  0  0  0  0  0  0  0
  2  1  1  1
  2  3  1  0
  4  9  1  0
  4  3  1  0
  5  4  2  0
  6  7  2  0
  6  5  1  0
  7  8  1  0
  8  9  2  0
 10  2  1  0
 10 11  2  0
 12 13  1  0
 13 15  1  0
 14 13  2  0
 15 16  1  0
 17 16  1  6
 17 18  1  0
 18 10  1  0
 19 17  1  0
 20 19  2  0
 22 23  2  0
 22 21  1  0
 24 23  1  0
 25 24  2  0
 26 25  1  0
 27 26  1  1
 27 28  1  0
 28 19  1  0
 29 27  1  0
 30 29  1  0
 31 25  1  0
 31 32  2  0
 32 22  1  0
 33 29  2  0
M  END
$$$$
