MVL.pdb
     RDKit          3D

 24 23  0  0  1  0  0  0  0  0999 V2000
    6.7458  -10.9923   25.5924 C   0  0  0  0  0  0  0  0  0  0  0  0
    5.9657  -11.7591   27.0242 S   0  0  0  0  0  0  0  0  0  0  0  0
    5.3413  -13.4030   26.6928 C   0  0  0  0  0  0  0  0  0  0  0  0
    6.4527  -14.2707   26.1531 C   0  0  0  0  0  0  0  0  0  0  0  0
    6.0117  -15.1225   24.9865 C   0  0  2  0  0  0  0  0  0  0  0  0
    5.1350  -16.1520   25.5417 N   0  0  0  0  0  0  0  0  0  0  0  0
    7.1481  -15.7506   24.2903 C   0  0  0  0  0  0  0  0  0  0  0  0
    7.5256  -16.9372   24.5100 O   0  0  0  0  0  0  0  0  0  0  0  0
   10.4204  -15.8401   20.6459 C   0  0  0  0  0  0  0  0  0  0  0  0
    9.3953  -14.9904   21.3526 C   0  0  1  0  0  0  0  0  0  0  0  0
    8.1149  -15.0241   20.5417 C   0  0  0  0  0  0  0  0  0  0  0  0
    9.0860  -15.6227   22.6849 C   0  0  2  0  0  0  0  0  0  0  0  0
    7.9077  -15.0504   23.3071 N   0  0  0  0  0  0  0  0  0  0  0  0
   10.2431  -15.6256   23.6183 C   0  0  0  0  0  0  0  0  0  0  0  0
   11.3205  -15.0377   23.3488 O   0  0  0  0  0  0  0  0  0  0  0  0
    9.4452  -14.8097   28.9214 C   0  0  0  0  0  0  0  0  0  0  0  0
    9.9166  -14.7583   27.4276 C   0  0  1  0  0  0  0  0  0  0  0  0
   10.6447  -13.4562   27.3113 C   0  0  0  0  0  0  0  0  0  0  0  0
   10.6775  -15.9891   27.1390 C   0  0  0  0  0  0  0  0  0  0  0  0
   11.3261  -16.2078   25.8353 C   0  0  2  0  0  0  0  0  0  0  0  0
   10.2026  -16.2921   24.8704 N   0  0  0  0  0  0  0  0  0  0  0  0
   12.0097  -17.4950   25.7009 C   0  0  0  0  0  0  0  0  0  0  0  0
   11.4304  -18.4728   25.1899 O   0  0  0  0  0  0  0  0  0  0  0  0
   13.3212  -17.7007   26.1258 O   0  0  0  0  0  0  0  0  0  0  0  0
  2  1  1  0
  3  2  1  0
  4  3  1  0
  5  7  1  0
  5  4  1  0
  5  6  1  1
  7  8  2  0
 10  9  1  6
 10 11  1  0
 10 12  1  0
 12 13  1  1
 13  7  1  0
 14 12  1  0
 15 14  2  0
 17 16  1  1
 17 19  1  0
 18 17  1  0
 20 19  1  1
 20 21  1  0
 20 22  1  0
 21 14  1  0
 22 24  1  0
 23 22  2  0
M  END
$$$$
