MVL.pdb
     RDKit          3D

 24 23  0  0  1  0  0  0  0  0999 V2000
    8.3122  -11.7513   19.7348 C   0  0  0  0  0  0  0  0  0  0  0  0
    8.0112  -12.4378   18.0963 S   0  0  0  0  0  0  0  0  0  0  0  0
    8.4573  -14.1654   17.9610 C   0  0  0  0  0  0  0  0  0  0  0  0
    8.2357  -14.8539   19.2862 C   0  0  0  0  0  0  0  0  0  0  0  0
    8.6974  -16.2919   19.2793 C   0  0  2  0  0  0  0  0  0  0  0  0
    7.8013  -17.0035   18.3696 N   0  0  0  0  0  0  0  0  0  0  0  0
    8.6450  -16.9035   20.6186 C   0  0  0  0  0  0  0  0  0  0  0  0
    7.5853  -17.3701   21.1267 O   0  0  0  0  0  0  0  0  0  0  0  0
   10.5189  -18.9057   24.6065 C   0  0  0  0  0  0  0  0  0  0  0  0
   10.6890  -18.5340   23.1556 C   0  0  1  0  0  0  0  0  0  0  0  0
   10.2742  -19.7235   22.3122 C   0  0  0  0  0  0  0  0  0  0  0  0
    9.7332  -17.4147   22.8331 C   0  0  2  0  0  0  0  0  0  0  0  0
    9.8046  -17.0117   21.4418 N   0  0  0  0  0  0  0  0  0  0  0  0
    9.8666  -16.2460   23.7421 C   0  0  0  0  0  0  0  0  0  0  0  0
   10.8731  -15.4940   23.7204 O   0  0  0  0  0  0  0  0  0  0  0  0
    6.2915  -12.0188   25.6122 C   0  0  0  0  0  0  0  0  0  0  0  0
    7.7409  -12.5489   25.8853 C   0  0  1  0  0  0  0  0  0  0  0  0
    7.9547  -12.3126   27.3473 C   0  0  0  0  0  0  0  0  0  0  0  0
    7.8236  -13.9413   25.4040 C   0  0  0  0  0  0  0  0  0  0  0  0
    9.0274  -14.7618   25.6183 C   0  0  2  0  0  0  0  0  0  0  0  0
    8.8663  -15.9077   24.6902 N   0  0  0  0  0  0  0  0  0  0  0  0
    9.1162  -15.3829   26.9406 C   0  0  0  0  0  0  0  0  0  0  0  0
    8.4072  -16.3657   27.2309 O   0  0  0  0  0  0  0  0  0  0  0  0
    9.9807  -14.9241   27.9331 O   0  0  0  0  0  0  0  0  0  0  0  0
  2  1  1  0
  3  2  1  0
  4  3  1  0
  5  7  1  0
  5  4  1  0
  5  6  1  6
  7  8  2  0
 10  9  1  1
 10 11  1  0
 10 12  1  0
 12 13  1  6
 13  7  1  0
 14 12  1  0
 15 14  2  0
 17 16  1  1
 17 19  1  0
 18 17  1  0
 20 19  1  1
 20 21  1  0
 20 22  1  0
 21 14  1  0
 22 24  1  0
 23 22  2  0
M  END
$$$$
