MVL.pdb
     RDKit          3D

 24 23  0  0  1  0  0  0  0  0999 V2000
    6.9395  -10.8496   26.3763 C   0  0  0  0  0  0  0  0  0  0  0  0
    5.5946  -11.6975   27.2241 S   0  0  0  0  0  0  0  0  0  0  0  0
    5.0862  -13.2074   26.4093 C   0  0  0  0  0  0  0  0  0  0  0  0
    6.2993  -13.9341   25.8806 C   0  0  0  0  0  0  0  0  0  0  0  0
    5.9375  -15.1385   25.0441 C   0  0  2  0  0  0  0  0  0  0  0  0
    5.3232  -16.0999   25.9579 N   0  0  0  0  0  0  0  0  0  0  0  0
    7.1133  -15.7424   24.3936 C   0  0  0  0  0  0  0  0  0  0  0  0
    7.6855  -16.7843   24.8248 O   0  0  0  0  0  0  0  0  0  0  0  0
   10.1643  -16.0648   20.5451 C   0  0  0  0  0  0  0  0  0  0  0  0
    9.0919  -15.2303   21.1977 C   0  0  1  0  0  0  0  0  0  0  0  0
    7.7919  -15.4682   20.4549 C   0  0  0  0  0  0  0  0  0  0  0  0
    8.8886  -15.7279   22.6054 C   0  0  2  0  0  0  0  0  0  0  0  0
    7.6914  -15.1829   23.2159 N   0  0  0  0  0  0  0  0  0  0  0  0
   10.0771  -15.5320   23.4767 C   0  0  0  0  0  0  0  0  0  0  0  0
   10.8252  -14.5279   23.3707 O   0  0  0  0  0  0  0  0  0  0  0  0
   10.7139  -13.5212   26.8584 C   0  0  0  0  0  0  0  0  0  0  0  0
   11.2641  -14.8127   27.5552 C   0  0  1  0  0  0  0  0  0  0  0  0
   10.6899  -14.7644   28.9362 C   0  0  0  0  0  0  0  0  0  0  0  0
   10.9166  -15.9759   26.7164 C   0  0  0  0  0  0  0  0  0  0  0  0
   11.5641  -16.2099   25.4148 C   0  0  2  0  0  0  0  0  0  0  0  0
   10.4402  -16.4663   24.4812 N   0  0  0  0  0  0  0  0  0  0  0  0
   12.3720  -17.4283   25.3443 C   0  0  0  0  0  0  0  0  0  0  0  0
   13.6075  -17.3825   25.4997 O   0  0  0  0  0  0  0  0  0  0  0  0
   11.8209  -18.6862   25.1055 O   0  0  0  0  0  0  0  0  0  0  0  0
  2  1  1  0
  3  2  1  0
  4  3  1  0
  5  7  1  0
  5  4  1  0
  5  6  1  1
  7  8  2  0
 10  9  1  6
 10 11  1  0
 10 12  1  0
 12 13  1  1
 13  7  1  0
 14 12  1  0
 15 14  2  0
 17 16  1  6
 17 19  1  0
 18 17  1  0
 20 19  1  1
 20 21  1  0
 20 22  1  0
 21 14  1  0
 22 24  1  0
 23 22  2  0
M  END
$$$$
