MVL.pdb
     RDKit          3D

 24 23  0  0  1  0  0  0  0  0999 V2000
    7.1853  -11.8445   27.3211 C   0  0  0  0  0  0  0  0  0  0  0  0
    5.4645  -12.2904   27.0273 S   0  0  0  0  0  0  0  0  0  0  0  0
    5.2029  -14.0565   26.9056 C   0  0  0  0  0  0  0  0  0  0  0  0
    6.3501  -14.6907   26.1565 C   0  0  0  0  0  0  0  0  0  0  0  0
    5.9082  -15.8363   25.2771 C   0  0  2  0  0  0  0  0  0  0  0  0
    5.6191  -16.9523   26.1758 N   0  0  0  0  0  0  0  0  0  0  0  0
    6.9436  -16.2279   24.3049 C   0  0  0  0  0  0  0  0  0  0  0  0
    7.2605  -17.4303   24.0760 O   0  0  0  0  0  0  0  0  0  0  0  0
    9.9870  -15.2033   20.5932 C   0  0  0  0  0  0  0  0  0  0  0  0
    8.8900  -14.6927   21.4922 C   0  0  1  0  0  0  0  0  0  0  0  0
    7.5821  -14.7671   20.7292 C   0  0  0  0  0  0  0  0  0  0  0  0
    8.7632  -15.6248   22.6693 C   0  0  2  0  0  0  0  0  0  0  0  0
    7.6667  -15.2608   23.5459 N   0  0  0  0  0  0  0  0  0  0  0  0
   10.0305  -15.7904   23.4286 C   0  0  0  0  0  0  0  0  0  0  0  0
   11.1191  -16.0592   22.8614 O   0  0  0  0  0  0  0  0  0  0  0  0
    9.8359  -14.5569   28.9462 C   0  0  0  0  0  0  0  0  0  0  0  0
    9.9896  -14.4981   27.3876 C   0  0  1  0  0  0  0  0  0  0  0  0
   10.2789  -13.0592   27.0958 C   0  0  0  0  0  0  0  0  0  0  0  0
   11.0052  -15.4895   26.9841 C   0  0  0  0  0  0  0  0  0  0  0  0
   11.3787  -15.6813   25.5727 C   0  0  2  0  0  0  0  0  0  0  0  0
   10.0892  -15.6553   24.8400 N   0  0  0  0  0  0  0  0  0  0  0  0
   11.9395  -16.9971   25.2623 C   0  0  0  0  0  0  0  0  0  0  0  0
   13.1186  -17.2721   25.5572 O   0  0  0  0  0  0  0  0  0  0  0  0
   11.2050  -18.0008   24.6329 O   0  0  0  0  0  0  0  0  0  0  0  0
  2  1  1  0
  3  2  1  0
  4  3  1  0
  5  7  1  0
  5  4  1  0
  5  6  1  1
  7  8  2  0
 10  9  1  6
 10 11  1  0
 10 12  1  0
 12 13  1  1
 13  7  1  0
 14 12  1  0
 15 14  2  0
 17 16  1  1
 17 19  1  0
 18 17  1  0
 20 19  1  1
 20 21  1  0
 20 22  1  0
 21 14  1  0
 22 24  1  0
 23 22  2  0
M  END
$$$$
