MVL.pdb
     RDKit          3D

 24 23  0  0  1  0  0  0  0  0999 V2000
    7.2245  -10.3937   26.4436 C   0  0  0  0  0  0  0  0  0  0  0  0
    5.6979  -11.0086   27.1772 S   0  0  0  0  0  0  0  0  0  0  0  0
    5.1299  -12.5404   26.4471 C   0  0  0  0  0  0  0  0  0  0  0  0
    6.3150  -13.3583   25.9931 C   0  0  0  0  0  0  0  0  0  0  0  0
    5.9083  -14.6177   25.2653 C   0  0  2  0  0  0  0  0  0  0  0  0
    5.1968  -15.4409   26.2414 N   0  0  0  0  0  0  0  0  0  0  0  0
    7.0669  -15.3559   24.7330 C   0  0  0  0  0  0  0  0  0  0  0  0
    7.5717  -16.3622   25.3086 O   0  0  0  0  0  0  0  0  0  0  0  0
   10.1279  -16.3201   20.9926 C   0  0  0  0  0  0  0  0  0  0  0  0
    9.1309  -15.3341   21.5460 C   0  0  1  0  0  0  0  0  0  0  0  0
    7.8313  -15.4990   20.7829 C   0  0  0  0  0  0  0  0  0  0  0  0
    8.8448  -15.6968   22.9803 C   0  0  2  0  0  0  0  0  0  0  0  0
    7.7038  -14.9783   23.5141 N   0  0  0  0  0  0  0  0  0  0  0  0
   10.0298  -15.5664   23.8684 C   0  0  0  0  0  0  0  0  0  0  0  0
   10.7724  -14.5529   23.8471 O   0  0  0  0  0  0  0  0  0  0  0  0
    9.9210  -15.3520   28.9576 C   0  0  0  0  0  0  0  0  0  0  0  0
   10.2844  -15.1723   27.4437 C   0  0  1  0  0  0  0  0  0  0  0  0
   10.9408  -13.8293   27.3751 C   0  0  0  0  0  0  0  0  0  0  0  0
   11.0804  -16.3390   27.0164 C   0  0  0  0  0  0  0  0  0  0  0  0
   11.6044  -16.4554   25.6452 C   0  0  2  0  0  0  0  0  0  0  0  0
   10.3955  -16.5777   24.7943 N   0  0  0  0  0  0  0  0  0  0  0  0
   12.3538  -17.6843   25.3796 C   0  0  0  0  0  0  0  0  0  0  0  0
   13.5069  -17.8357   25.8271 O   0  0  0  0  0  0  0  0  0  0  0  0
   11.8346  -18.7370   24.6278 O   0  0  0  0  0  0  0  0  0  0  0  0
  2  1  1  0
  3  2  1  0
  4  3  1  0
  5  7  1  0
  5  4  1  0
  5  6  1  1
  7  8  2  0
 10  9  1  6
 10 11  1  0
 10 12  1  0
 12 13  1  1
 13  7  1  0
 14 12  1  0
 15 14  2  0
 17 16  1  1
 17 19  1  0
 18 17  1  0
 20 19  1  1
 20 21  1  0
 20 22  1  0
 21 14  1  0
 22 24  1  0
 23 22  2  0
M  END
$$$$
