MVL.pdb
     RDKit          3D

 24 23  0  0  1  0  0  0  0  0999 V2000
    7.2837  -11.0618   26.3889 C   0  0  0  0  0  0  0  0  0  0  0  0
    5.7884  -11.9504   26.8587 S   0  0  0  0  0  0  0  0  0  0  0  0
    5.4293  -13.3425   25.7932 C   0  0  0  0  0  0  0  0  0  0  0  0
    6.6629  -14.1997   25.6422 C   0  0  0  0  0  0  0  0  0  0  0  0
    6.4549  -15.3569   24.6942 C   0  0  2  0  0  0  0  0  0  0  0  0
    5.4424  -16.2122   25.3107 N   0  0  0  0  0  0  0  0  0  0  0  0
    7.6919  -16.1243   24.4671 C   0  0  0  0  0  0  0  0  0  0  0  0
    8.0245  -17.1254   25.1642 O   0  0  0  0  0  0  0  0  0  0  0  0
   11.6197  -17.1966   21.6896 C   0  0  0  0  0  0  0  0  0  0  0  0
   10.4144  -16.3051   21.8469 C   0  0  1  0  0  0  0  0  0  0  0  0
    9.3479  -16.7789   20.8792 C   0  0  0  0  0  0  0  0  0  0  0  0
    9.8591  -16.4917   23.2352 C   0  0  2  0  0  0  0  0  0  0  0  0
    8.6087  -15.7832   23.4293 N   0  0  0  0  0  0  0  0  0  0  0  0
   10.8358  -16.1687   24.3084 C   0  0  0  0  0  0  0  0  0  0  0  0
   11.5501  -15.1355   24.2731 O   0  0  0  0  0  0  0  0  0  0  0  0
   10.2574  -14.7189   29.0928 C   0  0  0  0  0  0  0  0  0  0  0  0
   10.8392  -14.9455   27.6553 C   0  0  1  0  0  0  0  0  0  0  0  0
   11.7231  -13.7612   27.4202 C   0  0  0  0  0  0  0  0  0  0  0  0
   11.4679  -16.2798   27.6146 C   0  0  0  0  0  0  0  0  0  0  0  0
   12.1294  -16.7847   26.3999 C   0  0  2  0  0  0  0  0  0  0  0  0
   11.0219  -17.0068   25.4384 N   0  0  0  0  0  0  0  0  0  0  0  0
   12.7473  -18.1037   26.5438 C   0  0  0  0  0  0  0  0  0  0  0  0
   12.0934  -19.1406   26.3198 O   0  0  0  0  0  0  0  0  0  0  0  0
   14.0754  -18.2766   26.9303 O   0  0  0  0  0  0  0  0  0  0  0  0
  2  1  1  0
  3  2  1  0
  4  3  1  0
  5  7  1  0
  5  4  1  0
  5  6  1  1
  7  8  2  0
 10  9  1  1
 10 11  1  0
 10 12  1  0
 12 13  1  1
 13  7  1  0
 14 12  1  0
 15 14  2  0
 17 16  1  1
 17 19  1  0
 18 17  1  0
 20 19  1  1
 20 21  1  0
 20 22  1  0
 21 14  1  0
 22 24  1  0
 23 22  2  0
M  END
$$$$
