MVL.pdb
     RDKit          3D

 24 23  0  0  1  0  0  0  0  0999 V2000
    8.1566  -18.4035   28.5038 C   0  0  0  0  0  0  0  0  0  0  0  0
    6.8316  -19.5633   28.1221 S   0  0  0  0  0  0  0  0  0  0  0  0
    6.7198  -19.9603   26.3808 C   0  0  0  0  0  0  0  0  0  0  0  0
    6.3483  -18.7232   25.5992 C   0  0  0  0  0  0  0  0  0  0  0  0
    6.4629  -18.9218   24.1064 C   0  0  2  0  0  0  0  0  0  0  0  0
    7.0032  -20.2663   23.9142 N   0  0  0  0  0  0  0  0  0  0  0  0
    7.3490  -17.9281   23.4755 C   0  0  0  0  0  0  0  0  0  0  0  0
    8.5757  -18.1366   23.2510 O   0  0  0  0  0  0  0  0  0  0  0  0
    7.9826  -13.5758   21.2153 C   0  0  0  0  0  0  0  0  0  0  0  0
    7.0225  -14.6619   21.6287 C   0  0  1  0  0  0  0  0  0  0  0  0
    6.6176  -15.4312   20.3868 C   0  0  0  0  0  0  0  0  0  0  0  0
    7.7517  -15.6297   22.5243 C   0  0  2  0  0  0  0  0  0  0  0  0
    6.8730  -16.6464   23.0696 N   0  0  0  0  0  0  0  0  0  0  0  0
    8.5377  -14.9631   23.5956 C   0  0  0  0  0  0  0  0  0  0  0  0
    9.5430  -14.2525   23.3433 O   0  0  0  0  0  0  0  0  0  0  0  0
    5.7869  -12.3576   26.9954 C   0  0  0  0  0  0  0  0  0  0  0  0
    7.0168  -12.6427   26.0667 C   0  0  1  0  0  0  0  0  0  0  0  0
    7.5773  -11.2886   25.7645 C   0  0  0  0  0  0  0  0  0  0  0  0
    7.9010  -13.6056   26.7509 C   0  0  0  0  0  0  0  0  0  0  0  0
    8.9413  -14.3509   26.0225 C   0  0  2  0  0  0  0  0  0  0  0  0
    8.2017  -15.0878   24.9687 N   0  0  0  0  0  0  0  0  0  0  0  0
    9.5975  -15.4028   26.8003 C   0  0  0  0  0  0  0  0  0  0  0  0
    9.2752  -16.5976   26.6538 O   0  0  0  0  0  0  0  0  0  0  0  0
   10.6012  -15.1384   27.7307 O   0  0  0  0  0  0  0  0  0  0  0  0
  2  1  1  0
  3  2  1  0
  4  3  1  0
  5  7  1  0
  5  4  1  0
  5  6  1  1
  7  8  2  0
 10  9  1  6
 10 11  1  0
 10 12  1  0
 12 13  1  1
 13  7  1  0
 14 12  1  0
 15 14  2  0
 17 16  1  1
 17 19  1  0
 18 17  1  0
 20 19  1  1
 20 21  1  0
 20 22  1  0
 21 14  1  0
 22 24  1  0
 23 22  2  0
M  END
$$$$
