MVL.pdb
     RDKit          3D

 24 23  0  0  1  0  0  0  0  0999 V2000
    8.2105  -11.3823   20.2143 C   0  0  0  0  0  0  0  0  0  0  0  0
    7.8961  -12.1044   18.5937 S   0  0  0  0  0  0  0  0  0  0  0  0
    8.1641  -13.8730   18.5441 C   0  0  0  0  0  0  0  0  0  0  0  0
    8.1134  -14.4352   19.9443 C   0  0  0  0  0  0  0  0  0  0  0  0
    8.3895  -15.9195   19.9857 C   0  0  2  0  0  0  0  0  0  0  0  0
    7.2850  -16.5598   19.2738 N   0  0  0  0  0  0  0  0  0  0  0  0
    8.4678  -16.4365   21.3631 C   0  0  0  0  0  0  0  0  0  0  0  0
    7.4546  -16.8038   22.0244 O   0  0  0  0  0  0  0  0  0  0  0  0
   10.8989  -18.6674   24.9246 C   0  0  0  0  0  0  0  0  0  0  0  0
   10.8716  -18.1655   23.5035 C   0  0  1  0  0  0  0  0  0  0  0  0
   10.4489  -19.3121   22.6064 C   0  0  0  0  0  0  0  0  0  0  0  0
    9.8059  -17.1062   23.3905 C   0  0  2  0  0  0  0  0  0  0  0  0
    9.7113  -16.5592   22.0507 N   0  0  0  0  0  0  0  0  0  0  0  0
    9.9365  -16.0287   24.4065 C   0  0  0  0  0  0  0  0  0  0  0  0
   10.8398  -15.1574   24.3441 O   0  0  0  0  0  0  0  0  0  0  0  0
    5.8679  -13.0355   26.7077 C   0  0  0  0  0  0  0  0  0  0  0  0
    7.2987  -13.3040   26.1271 C   0  0  1  0  0  0  0  0  0  0  0  0
    7.9817  -11.9741   26.1894 C   0  0  0  0  0  0  0  0  0  0  0  0
    7.9058  -14.4146   26.8856 C   0  0  0  0  0  0  0  0  0  0  0  0
    9.2577  -14.9110   26.5783 C   0  0  2  0  0  0  0  0  0  0  0  0
    9.0498  -15.9178   25.5089 N   0  0  0  0  0  0  0  0  0  0  0  0
    9.8925  -15.6650   27.6602 C   0  0  0  0  0  0  0  0  0  0  0  0
    9.7077  -16.8921   27.7743 O   0  0  0  0  0  0  0  0  0  0  0  0
   10.7246  -15.0702   28.6072 O   0  0  0  0  0  0  0  0  0  0  0  0
  2  1  1  0
  3  2  1  0
  4  3  1  0
  5  7  1  0
  5  4  1  0
  5  6  1  6
  7  8  2  0
 10  9  1  1
 10 11  1  0
 10 12  1  0
 12 13  1  6
 13  7  1  0
 14 12  1  0
 15 14  2  0
 17 16  1  1
 17 19  1  0
 18 17  1  0
 20 19  1  1
 20 21  1  0
 20 22  1  0
 21 14  1  0
 22 24  1  0
 23 22  2  0
M  END
$$$$
