MVL.pdb
     RDKit          3D

 24 23  0  0  1  0  0  0  0  0999 V2000
    9.9999  -12.9007   28.6697 C   0  0  0  0  0  0  0  0  0  0  0  0
   10.0517  -14.5905   29.2931 S   0  0  0  0  0  0  0  0  0  0  0  0
    8.7206  -15.6134   28.6736 C   0  0  0  0  0  0  0  0  0  0  0  0
    8.9350  -15.8943   27.2058 C   0  0  0  0  0  0  0  0  0  0  0  0
    7.7193  -16.5004   26.5456 C   0  0  2  0  0  0  0  0  0  0  0  0
    7.4993  -17.7885   27.2005 N   0  0  0  0  0  0  0  0  0  0  0  0
    7.9078  -16.6972   25.0977 C   0  0  0  0  0  0  0  0  0  0  0  0
    8.0042  -17.8375   24.5599 O   0  0  0  0  0  0  0  0  0  0  0  0
    8.1260  -14.9811   20.4967 C   0  0  0  0  0  0  0  0  0  0  0  0
    7.8921  -14.6211   21.9416 C   0  0  1  0  0  0  0  0  0  0  0  0
    6.3972  -14.4950   22.1603 C   0  0  0  0  0  0  0  0  0  0  0  0
    8.3650  -15.7642   22.8021 C   0  0  2  0  0  0  0  0  0  0  0  0
    7.9942  -15.5972   24.1942 N   0  0  0  0  0  0  0  0  0  0  0  0
    9.8175  -16.0469   22.6596 C   0  0  0  0  0  0  0  0  0  0  0  0
   10.6971  -15.2472   23.0670 O   0  0  0  0  0  0  0  0  0  0  0  0
   11.2044  -19.5591   24.7620 C   0  0  0  0  0  0  0  0  0  0  0  0
   12.4076  -19.1552   23.8425 C   0  0  1  0  0  0  0  0  0  0  0  0
   13.3898  -20.2728   24.0017 C   0  0  0  0  0  0  0  0  0  0  0  0
   11.8879  -18.8970   22.4858 C   0  0  0  0  0  0  0  0  0  0  0  0
   11.7514  -17.5288   21.9589 C   0  0  2  0  0  0  0  0  0  0  0  0
   10.3003  -17.2365   22.0550 N   0  0  0  0  0  0  0  0  0  0  0  0
   12.0499  -17.3904   20.5328 C   0  0  0  0  0  0  0  0  0  0  0  0
   13.1895  -17.0619   20.1502 O   0  0  0  0  0  0  0  0  0  0  0  0
   11.0995  -17.6138   19.5379 O   0  0  0  0  0  0  0  0  0  0  0  0
  2  1  1  0
  3  2  1  0
  4  3  1  0
  5  7  1  0
  5  4  1  0
  5  6  1  1
  7  8  2  0
 10  9  1  6
 10 11  1  0
 10 12  1  0
 12 13  1  1
 13  7  1  0
 14 12  1  0
 15 14  2  0
 17 16  1  1
 17 19  1  0
 18 17  1  0
 20 19  1  6
 20 21  1  0
 20 22  1  0
 21 14  1  0
 22 24  1  0
 23 22  2  0
M  END
$$$$
