MVL.pdb
     RDKit          3D

 24 23  0  0  1  0  0  0  0  0999 V2000
    5.3093  -20.1998   24.4033 C   0  0  0  0  0  0  0  0  0  0  0  0
    4.1399  -20.8135   23.1777 S   0  0  0  0  0  0  0  0  0  0  0  0
    4.1987  -19.9135   21.6322 C   0  0  0  0  0  0  0  0  0  0  0  0
    5.4344  -19.0470   21.5941 C   0  0  0  0  0  0  0  0  0  0  0  0
    5.4413  -18.0943   20.4221 C   0  0  2  0  0  0  0  0  0  0  0  0
    5.5514  -18.9235   19.2234 N   0  0  0  0  0  0  0  0  0  0  0  0
    6.5640  -17.1422   20.4808 C   0  0  0  0  0  0  0  0  0  0  0  0
    7.7686  -17.4783   20.2936 O   0  0  0  0  0  0  0  0  0  0  0  0
    8.3788  -12.5913   20.8571 C   0  0  0  0  0  0  0  0  0  0  0  0
    7.1451  -13.4311   20.6449 C   0  0  1  0  0  0  0  0  0  0  0  0
    6.8284  -13.4377   19.1624 C   0  0  0  0  0  0  0  0  0  0  0  0
    7.4620  -14.8529   21.0307 C   0  0  2  0  0  0  0  0  0  0  0  0
    6.3622  -15.7574   20.7558 N   0  0  0  0  0  0  0  0  0  0  0  0
    7.9382  -14.9907   22.4322 C   0  0  0  0  0  0  0  0  0  0  0  0
    7.3395  -14.4529   23.3973 O   0  0  0  0  0  0  0  0  0  0  0  0
    7.8000  -18.6011   25.7449 C   0  0  0  0  0  0  0  0  0  0  0  0
    7.8916  -17.1730   25.1060 C   0  0  1  0  0  0  0  0  0  0  0  0
    7.2260  -16.2760   26.1017 C   0  0  0  0  0  0  0  0  0  0  0  0
    9.3054  -16.8987   24.7846 C   0  0  0  0  0  0  0  0  0  0  0  0
    9.7168  -15.6551   24.1120 C   0  0  2  0  0  0  0  0  0  0  0  0
    9.0975  -15.7376   22.7666 N   0  0  0  0  0  0  0  0  0  0  0  0
   11.1512  -15.5535   23.8393 C   0  0  0  0  0  0  0  0  0  0  0  0
   11.6232  -15.9535   22.7575 O   0  0  0  0  0  0  0  0  0  0  0  0
   12.0564  -15.0143   24.7519 O   0  0  0  0  0  0  0  0  0  0  0  0
  2  1  1  0
  3  2  1  0
  4  3  1  0
  5  7  1  0
  5  4  1  0
  5  6  1  6
  7  8  2  0
 10  9  1  6
 10 11  1  0
 10 12  1  0
 12 13  1  1
 13  7  1  0
 14 12  1  0
 15 14  2  0
 17 16  1  1
 17 19  1  0
 18 17  1  0
 20 19  1  1
 20 21  1  0
 20 22  1  0
 21 14  1  0
 22 24  1  0
 23 22  2  0
M  END
$$$$
