MVL.pdb
     RDKit          3D

 24 23  0  0  1  0  0  0  0  0999 V2000
    5.4371  -11.6567   25.4239 C   0  0  0  0  0  0  0  0  0  0  0  0
    5.4277  -12.6369   26.9357 S   0  0  0  0  0  0  0  0  0  0  0  0
    4.4919  -14.1550   26.7878 C   0  0  0  0  0  0  0  0  0  0  0  0
    4.8215  -14.8309   25.4787 C   0  0  0  0  0  0  0  0  0  0  0  0
    5.8492  -15.9269   25.6323 C   0  0  2  0  0  0  0  0  0  0  0  0
    6.7345  -15.5066   26.7168 N   0  0  0  0  0  0  0  0  0  0  0  0
    6.6284  -16.1407   24.4003 C   0  0  0  0  0  0  0  0  0  0  0  0
    6.4262  -17.1077   23.6111 O   0  0  0  0  0  0  0  0  0  0  0  0
    9.7877  -15.0663   20.9102 C   0  0  0  0  0  0  0  0  0  0  0  0
    8.8205  -14.5612   21.9502 C   0  0  1  0  0  0  0  0  0  0  0  0
    7.4643  -14.3973   21.2928 C   0  0  0  0  0  0  0  0  0  0  0  0
    8.6662  -15.6177   23.0135 C   0  0  2  0  0  0  0  0  0  0  0  0
    7.6775  -15.2564   24.0111 N   0  0  0  0  0  0  0  0  0  0  0  0
    9.9535  -16.0099   23.6452 C   0  0  0  0  0  0  0  0  0  0  0  0
   11.0257  -16.0741   22.9931 O   0  0  0  0  0  0  0  0  0  0  0  0
    9.8780  -15.0110   29.0058 C   0  0  0  0  0  0  0  0  0  0  0  0
   10.0917  -15.0027   27.4532 C   0  0  1  0  0  0  0  0  0  0  0  0
   10.4758  -13.5913   27.1376 C   0  0  0  0  0  0  0  0  0  0  0  0
   11.0611  -16.0618   27.1129 C   0  0  0  0  0  0  0  0  0  0  0  0
   11.3608  -16.4137   25.7149 C   0  0  2  0  0  0  0  0  0  0  0  0
   10.0510  -16.3359   25.0229 N   0  0  0  0  0  0  0  0  0  0  0  0
   11.7904  -17.7981   25.5117 C   0  0  0  0  0  0  0  0  0  0  0  0
   12.9240  -18.1716   25.8698 O   0  0  0  0  0  0  0  0  0  0  0  0
   10.9755  -18.7617   24.9197 O   0  0  0  0  0  0  0  0  0  0  0  0
  2  1  1  0
  3  2  1  0
  4  3  1  0
  5  7  1  0
  5  4  1  0
  5  6  1  1
  7  8  2  0
 10  9  1  6
 10 11  1  0
 10 12  1  0
 12 13  1  1
 13  7  1  0
 14 12  1  0
 15 14  2  0
 17 16  1  1
 17 19  1  0
 18 17  1  0
 20 19  1  1
 20 21  1  0
 20 22  1  0
 21 14  1  0
 22 24  1  0
 23 22  2  0
M  END
$$$$
