MVL.pdb
     RDKit          3D

 24 23  0  0  1  0  0  0  0  0999 V2000
    7.2126  -18.4257   28.6798 C   0  0  0  0  0  0  0  0  0  0  0  0
    6.5647  -19.9846   28.0501 S   0  0  0  0  0  0  0  0  0  0  0  0
    6.5661  -20.0802   26.2632 C   0  0  0  0  0  0  0  0  0  0  0  0
    6.3015  -18.7131   25.6799 C   0  0  0  0  0  0  0  0  0  0  0  0
    6.1914  -18.7345   24.1737 C   0  0  2  0  0  0  0  0  0  0  0  0
    6.5519  -20.0886   23.7577 N   0  0  0  0  0  0  0  0  0  0  0  0
    7.0866  -17.7556   23.5327 C   0  0  0  0  0  0  0  0  0  0  0  0
    8.2776  -18.0193   23.1998 O   0  0  0  0  0  0  0  0  0  0  0  0
    7.8226  -13.3868   21.3620 C   0  0  0  0  0  0  0  0  0  0  0  0
    6.8160  -14.3647   21.9124 C   0  0  1  0  0  0  0  0  0  0  0  0
    6.1378  -15.0515   20.7434 C   0  0  0  0  0  0  0  0  0  0  0  0
    7.5547  -15.4319   22.6779 C   0  0  2  0  0  0  0  0  0  0  0  0
    6.6612  -16.4261   23.2404 N   0  0  0  0  0  0  0  0  0  0  0  0
    8.4749  -14.8861   23.7101 C   0  0  0  0  0  0  0  0  0  0  0  0
    8.3411  -13.7281   24.1796 O   0  0  0  0  0  0  0  0  0  0  0  0
   10.5637  -13.1410   27.7902 C   0  0  0  0  0  0  0  0  0  0  0  0
   10.0634  -14.6262   27.8039 C   0  0  1  0  0  0  0  0  0  0  0  0
    9.1024  -14.6851   28.9494 C   0  0  0  0  0  0  0  0  0  0  0  0
    9.5409  -14.9517   26.4628 C   0  0  0  0  0  0  0  0  0  0  0  0
   10.4347  -15.1071   25.3030 C   0  0  2  0  0  0  0  0  0  0  0  0
    9.5607  -15.6384   24.2286 N   0  0  0  0  0  0  0  0  0  0  0  0
   11.4688  -16.1307   25.4610 C   0  0  0  0  0  0  0  0  0  0  0  0
   11.1781  -17.3415   25.4139 O   0  0  0  0  0  0  0  0  0  0  0  0
   12.8119  -15.8206   25.6682 O   0  0  0  0  0  0  0  0  0  0  0  0
  2  1  1  0
  3  2  1  0
  4  3  1  0
  5  7  1  0
  5  4  1  0
  5  6  1  6
  7  8  2  0
 10  9  1  6
 10 11  1  0
 10 12  1  0
 12 13  1  1
 13  7  1  0
 14 12  1  0
 15 14  2  0
 17 16  1  6
 17 19  1  0
 18 17  1  0
 20 19  1  1
 20 21  1  0
 20 22  1  0
 21 14  1  0
 22 24  1  0
 23 22  2  0
M  END
$$$$
