MVL.pdb
     RDKit          3D

 24 23  0  0  1  0  0  0  0  0999 V2000
    7.4297  -11.0415   26.6123 C   0  0  0  0  0  0  0  0  0  0  0  0
    5.9184  -11.7174   27.3234 S   0  0  0  0  0  0  0  0  0  0  0  0
    5.3244  -13.1727   26.4683 C   0  0  0  0  0  0  0  0  0  0  0  0
    6.4959  -13.9822   25.9665 C   0  0  0  0  0  0  0  0  0  0  0  0
    6.0717  -15.1446   25.1005 C   0  0  2  0  0  0  0  0  0  0  0  0
    5.3156  -16.0453   25.9687 N   0  0  0  0  0  0  0  0  0  0  0  0
    7.2215  -15.8563   24.5157 C   0  0  0  0  0  0  0  0  0  0  0  0
    7.6975  -16.9220   25.0019 O   0  0  0  0  0  0  0  0  0  0  0  0
   10.5131  -16.4479   20.8956 C   0  0  0  0  0  0  0  0  0  0  0  0
    9.3986  -15.5794   21.4206 C   0  0  1  0  0  0  0  0  0  0  0  0
    8.1537  -15.8645   20.6039 C   0  0  0  0  0  0  0  0  0  0  0  0
    9.0963  -15.9934   22.8376 C   0  0  2  0  0  0  0  0  0  0  0  0
    7.8824  -15.3825   23.3440 N   0  0  0  0  0  0  0  0  0  0  0  0
   10.2362  -15.7835   23.7685 C   0  0  0  0  0  0  0  0  0  0  0  0
   10.7940  -14.6652   23.9005 O   0  0  0  0  0  0  0  0  0  0  0  0
   10.9558  -13.6004   27.1542 C   0  0  0  0  0  0  0  0  0  0  0  0
   10.8562  -15.0297   27.7893 C   0  0  1  0  0  0  0  0  0  0  0  0
    9.8979  -14.8661   28.9268 C   0  0  0  0  0  0  0  0  0  0  0  0
   10.4901  -15.9850   26.7259 C   0  0  0  0  0  0  0  0  0  0  0  0
   11.5014  -16.5604   25.8234 C   0  0  2  0  0  0  0  0  0  0  0  0
   10.7648  -16.8324   24.5649 N   0  0  0  0  0  0  0  0  0  0  0  0
   12.0088  -17.8714   26.2307 C   0  0  0  0  0  0  0  0  0  0  0  0
   13.1639  -17.9946   26.6819 O   0  0  0  0  0  0  0  0  0  0  0  0
   11.2478  -19.0359   26.1418 O   0  0  0  0  0  0  0  0  0  0  0  0
  2  1  1  0
  3  2  1  0
  4  3  1  0
  5  7  1  0
  5  4  1  0
  5  6  1  1
  7  8  2  0
 10  9  1  6
 10 11  1  0
 10 12  1  0
 12 13  1  1
 13  7  1  0
 14 12  1  0
 15 14  2  0
 17 16  1  6
 17 19  1  0
 18 17  1  0
 20 19  1  1
 20 21  1  0
 20 22  1  0
 21 14  1  0
 22 24  1  0
 23 22  2  0
M  END
$$$$
