MVL.pdb
     RDKit          3D

 24 23  0  0  1  0  0  0  0  0999 V2000
    7.9616  -13.1743   18.0939 C   0  0  0  0  0  0  0  0  0  0  0  0
    8.4622  -13.2535   19.8230 S   0  0  0  0  0  0  0  0  0  0  0  0
    7.2188  -13.9785   20.8861 C   0  0  0  0  0  0  0  0  0  0  0  0
    6.5048  -15.0876   20.1518 C   0  0  0  0  0  0  0  0  0  0  0  0
    6.9308  -16.4607   20.6148 C   0  0  2  0  0  0  0  0  0  0  0  0
    6.0775  -17.4128   19.9063 N   0  0  0  0  0  0  0  0  0  0  0  0
    6.7781  -16.6335   22.0699 C   0  0  0  0  0  0  0  0  0  0  0  0
    5.6753  -16.4950   22.6726 O   0  0  0  0  0  0  0  0  0  0  0  0
    7.8896  -18.6335   26.2773 C   0  0  0  0  0  0  0  0  0  0  0  0
    8.0454  -18.5559   24.7800 C   0  0  1  0  0  0  0  0  0  0  0  0
    6.9942  -19.4479   24.1495 C   0  0  0  0  0  0  0  0  0  0  0  0
    7.7441  -17.1465   24.3400 C   0  0  2  0  0  0  0  0  0  0  0  0
    7.8816  -16.9746   22.9066 N   0  0  0  0  0  0  0  0  0  0  0  0
    8.5182  -16.1188   25.0846 C   0  0  0  0  0  0  0  0  0  0  0  0
    9.7242  -15.8753   24.8290 O   0  0  0  0  0  0  0  0  0  0  0  0
    5.8729  -11.7691   27.1946 C   0  0  0  0  0  0  0  0  0  0  0  0
    6.9019  -12.6296   26.3842 C   0  0  1  0  0  0  0  0  0  0  0  0
    7.5758  -11.6484   25.4775 C   0  0  0  0  0  0  0  0  0  0  0  0
    7.7515  -13.3613   27.3433 C   0  0  0  0  0  0  0  0  0  0  0  0
    8.7380  -14.3588   26.8960 C   0  0  2  0  0  0  0  0  0  0  0  0
    7.9435  -15.3498   26.1297 N   0  0  0  0  0  0  0  0  0  0  0  0
    9.3451  -15.1432   27.9723 C   0  0  0  0  0  0  0  0  0  0  0  0
   10.2278  -14.6490   28.7000 O   0  0  0  0  0  0  0  0  0  0  0  0
    8.9806  -16.4610   28.2435 O   0  0  0  0  0  0  0  0  0  0  0  0
  2  1  1  0
  3  2  1  0
  4  3  1  0
  5  7  1  0
  5  4  1  0
  5  6  1  6
  7  8  2  0
 10  9  1  1
 10 11  1  0
 10 12  1  0
 12 13  1  6
 13  7  1  0
 14 12  1  0
 15 14  2  0
 17 16  1  1
 17 19  1  0
 18 17  1  0
 20 19  1  1
 20 21  1  0
 20 22  1  0
 21 14  1  0
 22 24  1  0
 23 22  2  0
M  END
$$$$
