MVL.pdb
     RDKit          3D

 24 23  0  0  1  0  0  0  0  0999 V2000
    6.8068  -10.8865   26.2236 C   0  0  0  0  0  0  0  0  0  0  0  0
    5.4511  -11.7927   26.9901 S   0  0  0  0  0  0  0  0  0  0  0  0
    5.0828  -13.3401   26.1705 C   0  0  0  0  0  0  0  0  0  0  0  0
    6.3684  -14.0231   25.7705 C   0  0  0  0  0  0  0  0  0  0  0  0
    6.1335  -15.2930   24.9873 C   0  0  2  0  0  0  0  0  0  0  0  0
    5.4367  -16.2064   25.8911 N   0  0  0  0  0  0  0  0  0  0  0  0
    7.3905  -15.9054   24.5231 C   0  0  0  0  0  0  0  0  0  0  0  0
    7.8548  -16.9810   24.9989 O   0  0  0  0  0  0  0  0  0  0  0  0
   10.7881  -16.3618   21.0165 C   0  0  0  0  0  0  0  0  0  0  0  0
    9.7347  -15.4513   21.5941 C   0  0  1  0  0  0  0  0  0  0  0  0
    8.4870  -15.5731   20.7416 C   0  0  0  0  0  0  0  0  0  0  0  0
    9.3743  -15.9489   22.9701 C   0  0  2  0  0  0  0  0  0  0  0  0
    8.1773  -15.3163   23.4897 N   0  0  0  0  0  0  0  0  0  0  0  0
   10.4970  -15.8614   23.9407 C   0  0  0  0  0  0  0  0  0  0  0  0
   11.4297  -15.0295   23.8104 O   0  0  0  0  0  0  0  0  0  0  0  0
   10.2791  -14.6662   28.9735 C   0  0  0  0  0  0  0  0  0  0  0  0
   10.7269  -14.8263   27.4801 C   0  0  1  0  0  0  0  0  0  0  0  0
   11.7323  -13.7375   27.2738 C   0  0  0  0  0  0  0  0  0  0  0  0
   11.1808  -16.2158   27.2786 C   0  0  0  0  0  0  0  0  0  0  0  0
   11.7461  -16.6648   25.9953 C   0  0  2  0  0  0  0  0  0  0  0  0
   10.5848  -16.7116   25.0735 N   0  0  0  0  0  0  0  0  0  0  0  0
   12.2551  -18.0370   25.9983 C   0  0  0  0  0  0  0  0  0  0  0  0
   13.3525  -18.3075   26.5233 O   0  0  0  0  0  0  0  0  0  0  0  0
   11.5588  -19.1013   25.4280 O   0  0  0  0  0  0  0  0  0  0  0  0
  2  1  1  0
  3  2  1  0
  4  3  1  0
  5  7  1  0
  5  4  1  0
  5  6  1  1
  7  8  2  0
 10  9  1  6
 10 11  1  0
 10 12  1  0
 12 13  1  1
 13  7  1  0
 14 12  1  0
 15 14  2  0
 17 16  1  1
 17 19  1  0
 18 17  1  0
 20 19  1  1
 20 21  1  0
 20 22  1  0
 21 14  1  0
 22 24  1  0
 23 22  2  0
M  END
$$$$
