MVL.pdb
     RDKit          3D

 24 23  0  0  1  0  0  0  0  0999 V2000
    6.6907  -19.0118   27.5616 C   0  0  0  0  0  0  0  0  0  0  0  0
    6.2437  -20.5421   26.7220 S   0  0  0  0  0  0  0  0  0  0  0  0
    6.2113  -20.3867   24.9396 C   0  0  0  0  0  0  0  0  0  0  0  0
    6.8165  -19.0649   24.5325 C   0  0  0  0  0  0  0  0  0  0  0  0
    6.7630  -18.8351   23.0407 C   0  0  2  0  0  0  0  0  0  0  0  0
    7.3341  -20.0307   22.4233 N   0  0  0  0  0  0  0  0  0  0  0  0
    7.5252  -17.6431   22.6299 C   0  0  0  0  0  0  0  0  0  0  0  0
    8.7733  -17.6541   22.4273 O   0  0  0  0  0  0  0  0  0  0  0  0
    7.6842  -12.9906   21.0162 C   0  0  0  0  0  0  0  0  0  0  0  0
    6.8642  -14.2380   21.2257 C   0  0  1  0  0  0  0  0  0  0  0  0
    6.6962  -14.9229   19.8837 C   0  0  0  0  0  0  0  0  0  0  0  0
    7.6446  -15.1818   22.1037 C   0  0  2  0  0  0  0  0  0  0  0  0
    6.8948  -16.3796   22.4297 N   0  0  0  0  0  0  0  0  0  0  0  0
    8.1886  -14.5348   23.3265 C   0  0  0  0  0  0  0  0  0  0  0  0
    8.3659  -13.2930   23.4030 O   0  0  0  0  0  0  0  0  0  0  0  0
    5.4631  -12.7317   26.3735 C   0  0  0  0  0  0  0  0  0  0  0  0
    6.9577  -12.8196   25.9101 C   0  0  1  0  0  0  0  0  0  0  0  0
    7.6230  -11.6558   26.5750 C   0  0  0  0  0  0  0  0  0  0  0  0
    7.4651  -14.1668   26.2341 C   0  0  0  0  0  0  0  0  0  0  0  0
    8.7930  -14.6196   25.7871 C   0  0  2  0  0  0  0  0  0  0  0  0
    8.5414  -15.2788   24.4823 N   0  0  0  0  0  0  0  0  0  0  0  0
    9.3886  -15.6731   26.6104 C   0  0  0  0  0  0  0  0  0  0  0  0
    9.0586  -16.8647   26.4556 O   0  0  0  0  0  0  0  0  0  0  0  0
   10.3406  -15.4136   27.5950 O   0  0  0  0  0  0  0  0  0  0  0  0
  2  1  1  0
  3  2  1  0
  4  3  1  0
  5  7  1  0
  5  4  1  0
  5  6  1  6
  7  8  2  0
 10  9  1  6
 10 11  1  0
 10 12  1  0
 12 13  1  1
 13  7  1  0
 14 12  1  0
 15 14  2  0
 17 16  1  1
 17 19  1  0
 18 17  1  0
 20 19  1  1
 20 21  1  0
 20 22  1  0
 21 14  1  0
 22 24  1  0
 23 22  2  0
M  END
$$$$
