RMD.pdb
     RDKit          3D

 28 27  0  0  1  0  0  0  0  0999 V2000
    8.6782  -12.7540   15.4897 N   0  0  0  0  0  0  0  0  0  0  0  0
    8.0733  -14.0545   15.5192 C   0  0  0  0  0  0  0  0  0  0  0  0
    7.9587  -14.7324   14.4082 N   0  0  0  0  0  0  0  0  0  0  0  0
    7.5960  -14.6374   16.7113 N   0  0  0  0  0  0  0  0  0  0  0  0
    7.9089  -14.0855   17.9933 C   0  0  0  0  0  0  0  0  0  0  0  0
    7.2392  -14.9593   19.0550 C   0  0  0  0  0  0  0  0  0  0  0  0
    7.7165  -14.4251   20.3896 C   0  0  0  0  0  0  0  0  0  0  0  0
    8.4588  -15.4907   21.1765 C   0  0  2  0  0  0  0  0  0  0  0  0
    7.6708  -16.6562   21.4521 N   0  0  0  0  0  0  0  0  0  0  0  0
    8.8618  -14.8720   22.4633 C   0  0  0  0  0  0  0  0  0  0  0  0
    9.6811  -13.8904   22.4722 O   0  0  0  0  0  0  0  0  0  0  0  0
    7.5531  -15.7020   14.4434 C   0  0  0  0  0  0  0  0  0  0  0  0
    6.0816  -10.8878   26.0370 S   0  0  0  0  0  0  0  0  0  0  0  0
    6.1765  -12.3184   27.1681 C   0  0  0  0  0  0  0  0  0  0  0  0
    7.5868  -13.3918   26.7627 C   0  0  0  0  0  0  0  0  0  0  0  0
    7.3932  -14.0494   25.4130 C   0  0  1  0  0  0  0  0  0  0  0  0
    8.6487  -14.7179   24.9209 N   0  0  0  0  0  0  0  0  0  0  0  0
    8.3455  -15.3652   23.6601 C   0  0  0  0  0  0  0  0  0  0  0  0
    9.1562  -15.7404   25.8395 O   0  0  0  0  0  0  0  0  0  0  0  0
    9.1382  -15.6096   27.0872 N   0  0  0  0  0  0  0  0  0  0  0  0
    9.7000  -16.9460   25.3228 C   0  0  1  0  0  0  0  0  0  0  0  0
   10.2655  -17.9814   26.1561 C   0  0  0  0  0  0  0  0  0  0  0  0
   10.0586  -19.3002   25.4400 C   0  0  0  0  0  0  0  0  0  0  0  0
    8.6252  -19.6255   25.2856 O   0  0  0  0  0  0  0  0  0  0  0  0
    7.7363  -19.1936   26.0613 C   0  0  0  0  0  0  0  0  0  0  0  0
   11.6909  -17.6984   26.3943 O   0  0  0  0  0  0  0  0  0  0  0  0
   12.4780  -18.3561   27.3132 O   0  0  0  0  0  0  0  0  0  0  0  0
    8.2339  -20.4484   24.2405 O   0  0  0  0  0  0  0  0  0  0  0  0
  2  1  1  0
  3  2  2  0
  4  2  1  0
  5  4  1  0
  6  5  1  0
  7  6  1  0
  8  7  1  0
  8  9  1  1
 10 11  2  0
 10  8  1  0
 12 13  1  0
 14 13  1  0
 15 14  1  0
 16 17  1  0
 16 15  1  6
 17 10  1  0
 18 16  1  0
 19 18  2  0
 20 18  1  0
 21 20  1  0
 21 22  1  1
 22 23  1  0
 23 24  2  0
 25 21  1  0
 25 26  1  0
 27 23  1  0
 28 25  2  0
M  END
$$$$
