RMD.pdb
     RDKit          3D

 28 27  0  0  1  0  0  0  0  0999 V2000
    8.1257  -12.9342   16.0052 N   0  0  0  0  0  0  0  0  0  0  0  0
    7.7790  -14.3216   15.8907 C   0  0  0  0  0  0  0  0  0  0  0  0
    7.3128  -14.7732   14.7569 N   0  0  0  0  0  0  0  0  0  0  0  0
    7.9260  -15.2266   16.9622 N   0  0  0  0  0  0  0  0  0  0  0  0
    8.7902  -14.9464   18.0669 C   0  0  0  0  0  0  0  0  0  0  0  0
    7.9128  -14.6496   19.2840 C   0  0  0  0  0  0  0  0  0  0  0  0
    8.8686  -14.3066   20.4076 C   0  0  0  0  0  0  0  0  0  0  0  0
    8.9991  -15.4563   21.3909 C   0  0  2  0  0  0  0  0  0  0  0  0
    7.8199  -16.2655   21.4899 N   0  0  0  0  0  0  0  0  0  0  0  0
    9.2790  -14.8565   22.7188 C   0  0  0  0  0  0  0  0  0  0  0  0
   10.2499  -14.0363   22.8582 O   0  0  0  0  0  0  0  0  0  0  0  0
    7.0738  -15.7941   14.6757 C   0  0  0  0  0  0  0  0  0  0  0  0
    6.0827  -11.5188   27.5453 S   0  0  0  0  0  0  0  0  0  0  0  0
    5.7156  -12.0122   25.8259 C   0  0  0  0  0  0  0  0  0  0  0  0
    7.1641  -12.7695   25.0296 C   0  0  0  0  0  0  0  0  0  0  0  0
    7.5223  -14.0801   25.6972 C   0  0  2  0  0  0  0  0  0  0  0  0
    8.7826  -14.6794   25.1335 N   0  0  0  0  0  0  0  0  0  0  0  0
    8.4815  -15.1913   23.8115 C   0  0  0  0  0  0  0  0  0  0  0  0
    9.3033  -15.7890   25.9363 O   0  0  0  0  0  0  0  0  0  0  0  0
    9.4907  -15.7096   27.1743 N   0  0  0  0  0  0  0  0  0  0  0  0
    9.6198  -17.0243   25.3118 C   0  0  1  0  0  0  0  0  0  0  0  0
   10.1709  -18.1540   26.0235 C   0  0  0  0  0  0  0  0  0  0  0  0
    9.5652  -19.4054   25.4220 C   0  0  0  0  0  0  0  0  0  0  0  0
    9.8817  -20.6095   26.2183 O   0  0  0  0  0  0  0  0  0  0  0  0
   10.4893  -20.5651   27.3170 C   0  0  0  0  0  0  0  0  0  0  0  0
   11.6391  -18.1394   25.9095 O   0  0  0  0  0  0  0  0  0  0  0  0
   12.5083  -18.4217   26.9396 O   0  0  0  0  0  0  0  0  0  0  0  0
    9.4971  -21.8514   25.7364 O   0  0  0  0  0  0  0  0  0  0  0  0
  2  1  1  0
  3  2  2  0
  4  2  1  0
  5  4  1  0
  6  5  1  0
  7  6  1  0
  8  7  1  0
  8  9  1  1
 10 11  2  0
 10  8  1  0
 12 13  1  0
 14 13  1  0
 15 14  1  0
 16 17  1  0
 16 15  1  6
 17 10  1  0
 18 16  1  0
 19 18  2  0
 20 18  1  0
 21 20  1  0
 21 22  1  6
 22 23  1  0
 23 24  2  0
 25 21  1  0
 25 26  1  0
 27 23  1  0
 28 25  2  0
M  END
$$$$
