RMD.pdb
     RDKit          3D

 28 27  0  0  1  0  0  0  0  0999 V2000
    7.6210  -12.8816   15.4351 N   0  0  0  0  0  0  0  0  0  0  0  0
    8.1354  -14.2095   15.6090 C   0  0  0  0  0  0  0  0  0  0  0  0
    9.1441  -14.6057   14.8792 N   0  0  0  0  0  0  0  0  0  0  0  0
    7.5929  -15.1116   16.5474 N   0  0  0  0  0  0  0  0  0  0  0  0
    7.5092  -14.7867   17.9379 C   0  0  0  0  0  0  0  0  0  0  0  0
    8.1553  -15.9280   18.7248 C   0  0  0  0  0  0  0  0  0  0  0  0
    7.8811  -15.6295   20.1842 C   0  0  0  0  0  0  0  0  0  0  0  0
    8.7224  -14.4651   20.6764 C   0  0  2  0  0  0  0  0  0  0  0  0
    9.9539  -14.3020   19.9611 N   0  0  0  0  0  0  0  0  0  0  0  0
    9.0308  -14.7307   22.1032 C   0  0  0  0  0  0  0  0  0  0  0  0
   10.1715  -15.2046   22.4335 O   0  0  0  0  0  0  0  0  0  0  0  0
    9.5469  -15.5629   15.0449 C   0  0  0  0  0  0  0  0  0  0  0  0
    6.5719  -11.6227   27.7399 S   0  0  0  0  0  0  0  0  0  0  0  0
    6.1431  -11.5132   25.9682 C   0  0  0  0  0  0  0  0  0  0  0  0
    7.3434  -12.4105   24.9387 C   0  0  0  0  0  0  0  0  0  0  0  0
    7.3540  -13.8844   25.2839 C   0  0  2  0  0  0  0  0  0  0  0  0
    8.3757  -14.6480   24.4850 N   0  0  0  0  0  0  0  0  0  0  0  0
    8.0733  -14.4630   23.0797 C   0  0  0  0  0  0  0  0  0  0  0  0
    8.3657  -16.0871   24.7603 O   0  0  0  0  0  0  0  0  0  0  0  0
    7.7945  -16.9222   24.0184 N   0  0  0  0  0  0  0  0  0  0  0  0
    9.0247  -16.5897   25.9132 C   0  0  1  0  0  0  0  0  0  0  0  0
    9.9723  -17.6791   25.8727 C   0  0  0  0  0  0  0  0  0  0  0  0
   11.0508  -17.3024   24.8779 C   0  0  0  0  0  0  0  0  0  0  0  0
   11.7624  -18.4894   24.3593 O   0  0  0  0  0  0  0  0  0  0  0  0
   11.4767  -19.6641   24.7011 C   0  0  0  0  0  0  0  0  0  0  0  0
   10.5183  -17.9074   27.2213 O   0  0  0  0  0  0  0  0  0  0  0  0
   10.8460  -16.9110   28.1136 O   0  0  0  0  0  0  0  0  0  0  0  0
   12.7981  -18.3076   23.4555 O   0  0  0  0  0  0  0  0  0  0  0  0
  2  1  1  0
  3  2  2  0
  4  2  1  0
  5  4  1  0
  6  5  1  0
  7  6  1  0
  8  7  1  0
  8  9  1  6
 10 11  2  0
 10  8  1  0
 12 13  1  0
 14 13  1  0
 15 14  1  0
 16 17  1  0
 16 15  1  6
 17 10  1  0
 18 16  1  0
 19 18  2  0
 20 18  1  0
 21 20  1  0
 21 22  1  1
 22 23  1  0
 23 24  2  0
 25 21  1  0
 25 26  1  0
 27 23  1  0
 28 25  2  0
M  END
$$$$
