RMD.pdb
     RDKit          3D

 28 27  0  0  1  0  0  0  0  0999 V2000
    7.1044  -14.3197   16.2374 N   0  0  0  0  0  0  0  0  0  0  0  0
    8.4191  -13.7944   16.4696 C   0  0  0  0  0  0  0  0  0  0  0  0
    9.3438  -13.9594   15.5614 N   0  0  0  0  0  0  0  0  0  0  0  0
    8.7554  -13.0976   17.6486 N   0  0  0  0  0  0  0  0  0  0  0  0
    7.8082  -12.9081   18.7034 C   0  0  0  0  0  0  0  0  0  0  0  0
    7.5927  -14.2591   19.3871 C   0  0  0  0  0  0  0  0  0  0  0  0
    8.6952  -14.3798   20.4186 C   0  0  0  0  0  0  0  0  0  0  0  0
    8.6103  -15.6997   21.1646 C   0  0  2  0  0  0  0  0  0  0  0  0
    7.3323  -16.3402   21.0574 N   0  0  0  0  0  0  0  0  0  0  0  0
    8.8771  -15.4035   22.5937 C   0  0  0  0  0  0  0  0  0  0  0  0
   10.0023  -14.9081   22.9450 O   0  0  0  0  0  0  0  0  0  0  0  0
   10.2958  -13.5433   15.7235 C   0  0  0  0  0  0  0  0  0  0  0  0
    6.9263  -10.6542   26.4958 S   0  0  0  0  0  0  0  0  0  0  0  0
    7.2320  -12.4329   26.7738 C   0  0  0  0  0  0  0  0  0  0  0  0
    6.7830  -13.4191   25.3138 C   0  0  0  0  0  0  0  0  0  0  0  0
    6.9330  -14.8988   25.5960 C   0  0  2  0  0  0  0  0  0  0  0  0
    8.1692  -15.4762   24.9607 N   0  0  0  0  0  0  0  0  0  0  0  0
    7.8985  -15.6682   23.5499 C   0  0  0  0  0  0  0  0  0  0  0  0
    8.5558  -16.7725   25.5237 O   0  0  0  0  0  0  0  0  0  0  0  0
    7.7886  -17.7650   25.5474 N   0  0  0  0  0  0  0  0  0  0  0  0
    9.8528  -16.9438   26.0755 C   0  0  1  0  0  0  0  0  0  0  0  0
   10.3192  -18.1929   26.6310 C   0  0  0  0  0  0  0  0  0  0  0  0
   11.4447  -18.6879   25.7462 C   0  0  0  0  0  0  0  0  0  0  0  0
   12.1082  -19.8809   26.3125 O   0  0  0  0  0  0  0  0  0  0  0  0
   11.6437  -21.0428   26.1993 C   0  0  0  0  0  0  0  0  0  0  0  0
   10.7594  -17.9804   28.0202 O   0  0  0  0  0  0  0  0  0  0  0  0
   10.9677  -18.9849   28.9389 O   0  0  0  0  0  0  0  0  0  0  0  0
   13.2978  -19.7198   27.0062 O   0  0  0  0  0  0  0  0  0  0  0  0
  2  1  1  0
  3  2  2  0
  4  2  1  0
  5  4  1  0
  6  5  1  0
  7  6  1  0
  8  7  1  0
  8  9  1  1
 10 11  2  0
 10  8  1  0
 12 13  1  0
 14 13  1  0
 15 14  1  0
 16 17  1  0
 16 15  1  6
 17 10  1  0
 18 16  1  0
 19 18  2  0
 20 18  1  0
 21 20  1  0
 21 22  1  1
 22 23  1  0
 23 24  2  0
 25 21  1  0
 25 26  1  0
 27 23  1  0
 28 25  2  0
M  END
$$$$
