RMD.pdb
     RDKit          3D

 28 27  0  0  1  0  0  0  0  0999 V2000
   11.7225  -19.2959   20.7994 N   0  0  0  0  0  0  0  0  0  0  0  0
   11.0567  -20.2542   19.9648 C   0  0  0  0  0  0  0  0  0  0  0  0
   11.7195  -21.2915   19.5270 N   0  0  0  0  0  0  0  0  0  0  0  0
    9.7016  -20.1218   19.5973 N   0  0  0  0  0  0  0  0  0  0  0  0
    9.1205  -18.8438   19.3236 C   0  0  0  0  0  0  0  0  0  0  0  0
    8.7971  -18.1803   20.6631 C   0  0  0  0  0  0  0  0  0  0  0  0
    7.3775  -17.6674   20.5370 C   0  0  0  0  0  0  0  0  0  0  0  0
    7.3509  -16.1628   20.3336 C   0  0  2  0  0  0  0  0  0  0  0  0
    7.9980  -15.7335   19.1287 N   0  0  0  0  0  0  0  0  0  0  0  0
    8.0530  -15.5598   21.4932 C   0  0  0  0  0  0  0  0  0  0  0  0
    9.3062  -15.3157   21.4258 O   0  0  0  0  0  0  0  0  0  0  0  0
   11.2149  -22.0108   18.9492 C   0  0  0  0  0  0  0  0  0  0  0  0
    6.9799  -11.4070   28.1342 S   0  0  0  0  0  0  0  0  0  0  0  0
    6.2813  -12.2563   26.6763 C   0  0  0  0  0  0  0  0  0  0  0  0
    7.5650  -13.1546   25.7539 C   0  0  0  0  0  0  0  0  0  0  0  0
    6.9759  -13.8404   24.5397 C   0  0  1  0  0  0  0  0  0  0  0  0
    8.0007  -14.6484   23.7901 N   0  0  0  0  0  0  0  0  0  0  0  0
    7.3421  -15.2625   22.6544 C   0  0  0  0  0  0  0  0  0  0  0  0
    8.5949  -15.7180   24.5963 O   0  0  0  0  0  0  0  0  0  0  0  0
    7.9915  -16.7826   24.8729 N   0  0  0  0  0  0  0  0  0  0  0  0
    9.9134  -15.5710   25.1021 C   0  0  1  0  0  0  0  0  0  0  0  0
   10.5792  -16.5853   25.8860 C   0  0  0  0  0  0  0  0  0  0  0  0
   12.0635  -16.2858   25.8444 C   0  0  0  0  0  0  0  0  0  0  0  0
   12.6767  -16.7100   24.5684 O   0  0  0  0  0  0  0  0  0  0  0  0
   12.0375  -17.3034   23.6640 C   0  0  0  0  0  0  0  0  0  0  0  0
   10.0499  -16.5721   27.2602 O   0  0  0  0  0  0  0  0  0  0  0  0
   10.1372  -17.6245   28.1442 O   0  0  0  0  0  0  0  0  0  0  0  0
   14.0210  -16.4485   24.3516 O   0  0  0  0  0  0  0  0  0  0  0  0
  2  1  1  0
  3  2  2  0
  4  2  1  0
  5  4  1  0
  6  5  1  0
  7  6  1  0
  8  7  1  0
  8  9  1  6
 10 11  2  0
 10  8  1  0
 12 13  1  0
 14 13  1  0
 15 14  1  0
 16 17  1  0
 16 15  1  6
 17 10  1  0
 18 16  1  0
 19 18  2  0
 20 18  1  0
 21 20  1  0
 21 22  1  1
 22 23  1  0
 23 24  2  0
 25 21  1  0
 25 26  1  0
 27 23  1  0
 28 25  2  0
M  END
$$$$
