RMD.pdb
     RDKit          3D

 28 27  0  0  1  0  0  0  0  0999 V2000
    7.5910  -12.4737   18.8786 N   0  0  0  0  0  0  0  0  0  0  0  0
    8.6152  -12.9785   18.0100 C   0  0  0  0  0  0  0  0  0  0  0  0
    9.4601  -12.1445   17.4645 N   0  0  0  0  0  0  0  0  0  0  0  0
    8.7499  -14.3524   17.7215 N   0  0  0  0  0  0  0  0  0  0  0  0
    8.6871  -15.3441   18.7502 C   0  0  0  0  0  0  0  0  0  0  0  0
    7.2232  -15.4935   19.1675 C   0  0  0  0  0  0  0  0  0  0  0  0
    7.1900  -15.2261   20.6579 C   0  0  0  0  0  0  0  0  0  0  0  0
    7.6903  -16.4248   21.4445 C   0  0  2  0  0  0  0  0  0  0  0  0
    6.6495  -17.3258   21.8443 N   0  0  0  0  0  0  0  0  0  0  0  0
    8.3550  -15.8940   22.6601 C   0  0  0  0  0  0  0  0  0  0  0  0
    9.3852  -15.1447   22.5503 O   0  0  0  0  0  0  0  0  0  0  0  0
   10.2220  -12.5236   16.8468 C   0  0  0  0  0  0  0  0  0  0  0  0
    6.5247  -10.8336   26.0896 S   0  0  0  0  0  0  0  0  0  0  0  0
    6.7395  -12.5355   26.7156 C   0  0  0  0  0  0  0  0  0  0  0  0
    7.4353  -13.6284   25.4400 C   0  0  0  0  0  0  0  0  0  0  0  0
    7.6397  -15.0271   25.9817 C   0  0  2  0  0  0  0  0  0  0  0  0
    8.5702  -15.8395   25.1217 N   0  0  0  0  0  0  0  0  0  0  0  0
    7.8534  -16.2161   23.9198 C   0  0  0  0  0  0  0  0  0  0  0  0
    9.0321  -17.0684   25.7722 O   0  0  0  0  0  0  0  0  0  0  0  0
    8.2746  -18.0364   26.0236 N   0  0  0  0  0  0  0  0  0  0  0  0
   10.3953  -17.1989   26.1474 C   0  0  1  0  0  0  0  0  0  0  0  0
   10.9455  -18.4008   26.7298 C   0  0  0  0  0  0  0  0  0  0  0  0
   12.4370  -18.3885   26.4654 C   0  0  0  0  0  0  0  0  0  0  0  0
   12.7418  -18.2083   25.0305 O   0  0  0  0  0  0  0  0  0  0  0  0
   12.3601  -19.0105   24.1421 C   0  0  0  0  0  0  0  0  0  0  0  0
   10.6386  -18.4355   28.1697 O   0  0  0  0  0  0  0  0  0  0  0  0
   10.9122  -19.4961   29.0044 O   0  0  0  0  0  0  0  0  0  0  0  0
   13.4866  -17.1069   24.6371 O   0  0  0  0  0  0  0  0  0  0  0  0
  2  1  1  0
  3  2  2  0
  4  2  1  0
  5  4  1  0
  6  5  1  0
  7  6  1  0
  8  7  1  0
  8  9  1  1
 10 11  2  0
 10  8  1  0
 12 13  1  0
 14 13  1  0
 15 14  1  0
 16 17  1  0
 16 15  1  6
 17 10  1  0
 18 16  1  0
 19 18  2  0
 20 18  1  0
 21 20  1  0
 21 22  1  1
 22 23  1  0
 23 24  2  0
 25 21  1  0
 25 26  1  0
 27 23  1  0
 28 25  2  0
M  END
$$$$
