RMD.pdb
     RDKit          3D

 28 27  0  0  1  0  0  0  0  0999 V2000
    8.5069  -11.9405   18.4234 N   0  0  0  0  0  0  0  0  0  0  0  0
    8.8712  -13.3039   18.1657 C   0  0  0  0  0  0  0  0  0  0  0  0
   10.1066  -13.6834   18.3573 N   0  0  0  0  0  0  0  0  0  0  0  0
    7.9395  -14.2608   17.7127 N   0  0  0  0  0  0  0  0  0  0  0  0
    7.7985  -15.5317   18.3536 C   0  0  0  0  0  0  0  0  0  0  0  0
    7.0519  -15.3117   19.6701 C   0  0  0  0  0  0  0  0  0  0  0  0
    6.9920  -16.6679   20.3418 C   0  0  0  0  0  0  0  0  0  0  0  0
    6.2132  -16.6045   21.6438 C   0  0  2  0  0  0  0  0  0  0  0  0
    4.9319  -15.9740   21.5179 N   0  0  0  0  0  0  0  0  0  0  0  0
    7.0370  -15.8243   22.5998 C   0  0  0  0  0  0  0  0  0  0  0  0
    7.2625  -14.5841   22.3860 O   0  0  0  0  0  0  0  0  0  0  0  0
   10.3567  -14.6943   18.2110 C   0  0  0  0  0  0  0  0  0  0  0  0
    5.9988  -11.9242   26.3783 S   0  0  0  0  0  0  0  0  0  0  0  0
    6.9358  -13.0212   27.4979 C   0  0  0  0  0  0  0  0  0  0  0  0
    8.1072  -14.0637   26.5777 C   0  0  0  0  0  0  0  0  0  0  0  0
    7.3959  -14.8470   25.4950 C   0  0  1  0  0  0  0  0  0  0  0  0
    8.3435  -15.6991   24.6941 N   0  0  0  0  0  0  0  0  0  0  0  0
    7.5639  -16.4483   23.7290 C   0  0  0  0  0  0  0  0  0  0  0  0
    9.0878  -16.6600   25.5124 O   0  0  0  0  0  0  0  0  0  0  0  0
    8.5363  -17.5923   26.1454 N   0  0  0  0  0  0  0  0  0  0  0  0
   10.5003  -16.5563   25.6130 C   0  0  1  0  0  0  0  0  0  0  0  0
   11.3142  -17.4995   26.3441 C   0  0  0  0  0  0  0  0  0  0  0  0
   12.7441  -17.3180   25.8781 C   0  0  0  0  0  0  0  0  0  0  0  0
   12.8751  -17.4951   24.4167 O   0  0  0  0  0  0  0  0  0  0  0  0
   12.6260  -18.5788   23.8320 C   0  0  0  0  0  0  0  0  0  0  0  0
   11.1682  -17.2594   27.7897 O   0  0  0  0  0  0  0  0  0  0  0  0
   11.6452  -18.0946   28.7753 O   0  0  0  0  0  0  0  0  0  0  0  0
   13.2956  -16.4213   23.6468 O   0  0  0  0  0  0  0  0  0  0  0  0
  2  1  1  0
  3  2  2  0
  4  2  1  0
  5  4  1  0
  6  5  1  0
  7  6  1  0
  8  7  1  0
  8  9  1  6
 10 11  2  0
 10  8  1  0
 12 13  1  0
 14 13  1  0
 15 14  1  0
 16 17  1  0
 16 15  1  6
 17 10  1  0
 18 16  1  0
 19 18  2  0
 20 18  1  0
 21 20  1  0
 21 22  1  1
 22 23  1  0
 23 24  2  0
 25 21  1  0
 25 26  1  0
 27 23  1  0
 28 25  2  0
M  END
$$$$
