RMD.pdb
     RDKit          3D

 28 27  0  0  1  0  0  0  0  0999 V2000
    9.9825  -13.8402   17.4607 N   0  0  0  0  0  0  0  0  0  0  0  0
    8.7011  -13.5814   16.8698 C   0  0  0  0  0  0  0  0  0  0  0  0
    8.5005  -13.8894   15.6160 N   0  0  0  0  0  0  0  0  0  0  0  0
    7.6381  -13.0055   17.5959 N   0  0  0  0  0  0  0  0  0  0  0  0
    7.7719  -12.6670   18.9792 C   0  0  0  0  0  0  0  0  0  0  0  0
    8.2112  -13.9259   19.7286 C   0  0  0  0  0  0  0  0  0  0  0  0
    6.9389  -14.5590   20.2524 C   0  0  0  0  0  0  0  0  0  0  0  0
    7.2255  -15.8767   20.9504 C   0  0  2  0  0  0  0  0  0  0  0  0
    6.0455  -16.5754   21.3680 N   0  0  0  0  0  0  0  0  0  0  0  0
    8.0415  -15.5598   22.1483 C   0  0  0  0  0  0  0  0  0  0  0  0
    9.1911  -15.0164   22.0138 O   0  0  0  0  0  0  0  0  0  0  0  0
    7.5950  -13.6077   15.1616 C   0  0  0  0  0  0  0  0  0  0  0  0
    6.3511  -10.8326   26.1064 S   0  0  0  0  0  0  0  0  0  0  0  0
    7.1169  -12.4378   26.5207 C   0  0  0  0  0  0  0  0  0  0  0  0
    6.6972  -13.7098   25.2913 C   0  0  0  0  0  0  0  0  0  0  0  0
    7.3294  -15.0372   25.6519 C   0  0  2  0  0  0  0  0  0  0  0  0
    8.3045  -15.5055   24.6053 N   0  0  0  0  0  0  0  0  0  0  0  0
    7.5511  -15.8575   23.4184 C   0  0  0  0  0  0  0  0  0  0  0  0
    9.0705  -16.6848   25.0166 O   0  0  0  0  0  0  0  0  0  0  0  0
    8.5683  -17.8312   25.1042 N   0  0  0  0  0  0  0  0  0  0  0  0
   10.4476  -16.5552   25.3375 C   0  0  1  0  0  0  0  0  0  0  0  0
   11.2677  -17.6620   25.7722 C   0  0  0  0  0  0  0  0  0  0  0  0
   12.7068  -17.3073   25.4595 C   0  0  0  0  0  0  0  0  0  0  0  0
   12.9675  -17.2902   24.0048 O   0  0  0  0  0  0  0  0  0  0  0  0
   12.3329  -18.0006   23.1858 C   0  0  0  0  0  0  0  0  0  0  0  0
   11.0553  -17.8974   27.2103 O   0  0  0  0  0  0  0  0  0  0  0  0
   10.2818  -17.1047   28.0287 O   0  0  0  0  0  0  0  0  0  0  0  0
   13.9600  -16.4567   23.5120 O   0  0  0  0  0  0  0  0  0  0  0  0
  2  1  1  0
  3  2  2  0
  4  2  1  0
  5  4  1  0
  6  5  1  0
  7  6  1  0
  8  7  1  0
  8  9  1  1
 10 11  2  0
 10  8  1  0
 12 13  1  0
 14 13  1  0
 15 14  1  0
 16 17  1  0
 16 15  1  6
 17 10  1  0
 18 16  1  0
 19 18  2  0
 20 18  1  0
 21 20  1  0
 21 22  1  1
 22 23  1  0
 23 24  2  0
 25 21  1  0
 25 26  1  0
 27 23  1  0
 28 25  2  0
M  END
$$$$
