RMD.pdb
     RDKit          3D

 28 27  0  0  1  0  0  0  0  0999 V2000
    9.0793  -15.3888   16.6262 N   0  0  0  0  0  0  0  0  0  0  0  0
    8.3231  -14.3459   15.9948 C   0  0  0  0  0  0  0  0  0  0  0  0
    8.6731  -13.9314   14.8062 N   0  0  0  0  0  0  0  0  0  0  0  0
    7.2045  -13.7470   16.6102 N   0  0  0  0  0  0  0  0  0  0  0  0
    6.9079  -13.9572   17.9935 C   0  0  0  0  0  0  0  0  0  0  0  0
    7.9680  -13.2233   18.8162 C   0  0  0  0  0  0  0  0  0  0  0  0
    7.6238  -13.4924   20.2664 C   0  0  0  0  0  0  0  0  0  0  0  0
    8.1409  -14.8484   20.7135 C   0  0  2  0  0  0  0  0  0  0  0  0
    7.1337  -15.8681   20.7403 N   0  0  0  0  0  0  0  0  0  0  0  0
    8.6783  -14.6724   22.0851 C   0  0  0  0  0  0  0  0  0  0  0  0
    9.7130  -13.9464   22.2785 O   0  0  0  0  0  0  0  0  0  0  0  0
    8.1171  -13.1635   14.3512 C   0  0  0  0  0  0  0  0  0  0  0  0
    6.1614  -10.8505   26.8464 S   0  0  0  0  0  0  0  0  0  0  0  0
    6.1822  -12.6683   26.6734 C   0  0  0  0  0  0  0  0  0  0  0  0
    7.4872  -13.2107   25.5296 C   0  0  0  0  0  0  0  0  0  0  0  0
    7.5084  -14.7198   25.4128 C   0  0  2  0  0  0  0  0  0  0  0  0
    8.6009  -15.2039   24.4977 N   0  0  0  0  0  0  0  0  0  0  0  0
    8.0525  -15.3015   23.1597 C   0  0  0  0  0  0  0  0  0  0  0  0
    9.1207  -16.5232   24.8668 O   0  0  0  0  0  0  0  0  0  0  0  0
    8.4321  -17.5704   24.8114 N   0  0  0  0  0  0  0  0  0  0  0  0
   10.4627  -16.6538   25.3117 C   0  0  1  0  0  0  0  0  0  0  0  0
   11.0398  -17.9095   25.7318 C   0  0  0  0  0  0  0  0  0  0  0  0
   12.5366  -17.8116   25.5198 C   0  0  0  0  0  0  0  0  0  0  0  0
   12.8734  -17.4182   24.1356 O   0  0  0  0  0  0  0  0  0  0  0  0
   13.6826  -16.4969   23.8619 C   0  0  0  0  0  0  0  0  0  0  0  0
   10.6956  -18.1630   27.1410 O   0  0  0  0  0  0  0  0  0  0  0  0
    9.9646  -17.3080   27.9355 O   0  0  0  0  0  0  0  0  0  0  0  0
   12.2702  -18.0893   23.0828 O   0  0  0  0  0  0  0  0  0  0  0  0
  2  1  1  0
  3  2  2  0
  4  2  1  0
  5  4  1  0
  6  5  1  0
  7  6  1  0
  8  7  1  0
  8  9  1  1
 10 11  2  0
 10  8  1  0
 12 13  1  0
 14 13  1  0
 15 14  1  0
 16 17  1  0
 16 15  1  6
 17 10  1  0
 18 16  1  0
 19 18  2  0
 20 18  1  0
 21 20  1  0
 21 22  1  1
 22 23  1  0
 23 24  2  0
 25 21  1  0
 25 26  1  0
 27 23  1  0
 28 25  2  0
M  END
$$$$
