RMD.pdb
     RDKit          3D

 28 27  0  0  1  0  0  0  0  0999 V2000
    7.9768  -11.9288   20.0357 N   0  0  0  0  0  0  0  0  0  0  0  0
    8.3295  -12.7249   18.8955 C   0  0  0  0  0  0  0  0  0  0  0  0
    8.4621  -12.1498   17.7298 N   0  0  0  0  0  0  0  0  0  0  0  0
    8.5441  -14.1159   18.9841 N   0  0  0  0  0  0  0  0  0  0  0  0
    7.4647  -15.0286   19.2025 C   0  0  0  0  0  0  0  0  0  0  0  0
    7.6186  -15.6070   20.6100 C   0  0  0  0  0  0  0  0  0  0  0  0
    8.7927  -16.5611   20.5375 C   0  0  0  0  0  0  0  0  0  0  0  0
    8.9514  -17.3395   21.8316 C   0  0  2  0  0  0  0  0  0  0  0  0
    7.8066  -18.1333   22.1698 N   0  0  0  0  0  0  0  0  0  0  0  0
    9.1758  -16.3430   22.9077 C   0  0  0  0  0  0  0  0  0  0  0  0
   10.2080  -15.5890   22.8761 O   0  0  0  0  0  0  0  0  0  0  0  0
    8.6611  -12.7473   16.8876 C   0  0  0  0  0  0  0  0  0  0  0  0
    6.2091  -11.1693   25.6956 S   0  0  0  0  0  0  0  0  0  0  0  0
    6.0888  -12.5872   26.8401 C   0  0  0  0  0  0  0  0  0  0  0  0
    7.4921  -13.7251   26.6360 C   0  0  0  0  0  0  0  0  0  0  0  0
    7.3410  -14.5458   25.3730 C   0  0  1  0  0  0  0  0  0  0  0  0
    8.5465  -15.4068   25.1069 N   0  0  0  0  0  0  0  0  0  0  0  0
    8.2591  -16.2333   23.9516 C   0  0  0  0  0  0  0  0  0  0  0  0
    8.8786  -16.2959   26.2231 O   0  0  0  0  0  0  0  0  0  0  0  0
    8.9740  -15.8992   27.4095 N   0  0  0  0  0  0  0  0  0  0  0  0
    9.1086  -17.6761   25.9817 C   0  0  1  0  0  0  0  0  0  0  0  0
    9.5481  -18.5970   27.0040 C   0  0  0  0  0  0  0  0  0  0  0  0
    8.8805  -19.9287   26.7289 C   0  0  0  0  0  0  0  0  0  0  0  0
    7.8883  -20.2740   27.7684 O   0  0  0  0  0  0  0  0  0  0  0  0
    7.6499  -19.5402   28.7599 C   0  0  0  0  0  0  0  0  0  0  0  0
   11.0170  -18.6980   26.9776 O   0  0  0  0  0  0  0  0  0  0  0  0
   11.7825  -18.6984   25.8328 O   0  0  0  0  0  0  0  0  0  0  0  0
    7.1852  -21.4636   27.6544 O   0  0  0  0  0  0  0  0  0  0  0  0
  2  1  1  0
  3  2  2  0
  4  2  1  0
  5  4  1  0
  6  5  1  0
  7  6  1  0
  8  7  1  0
  8  9  1  1
 10 11  2  0
 10  8  1  0
 12 13  1  0
 14 13  1  0
 15 14  1  0
 16 17  1  0
 16 15  1  6
 17 10  1  0
 18 16  1  0
 19 18  2  0
 20 18  1  0
 21 20  1  0
 21 22  1  1
 22 23  1  0
 23 24  2  0
 25 21  1  0
 25 26  1  0
 27 23  1  0
 28 25  2  0
M  END
$$$$
