RMD.pdb
     RDKit          3D

 28 27  0  0  1  0  0  0  0  0999 V2000
    8.7028  -12.0369   18.6191 N   0  0  0  0  0  0  0  0  0  0  0  0
    9.4229  -13.2591   18.4050 C   0  0  0  0  0  0  0  0  0  0  0  0
   10.6620  -13.3512   18.8090 N   0  0  0  0  0  0  0  0  0  0  0  0
    8.8401  -14.3769   17.7728 N   0  0  0  0  0  0  0  0  0  0  0  0
    8.5931  -15.5946   18.4813 C   0  0  0  0  0  0  0  0  0  0  0  0
    7.1805  -15.5193   19.0630 C   0  0  0  0  0  0  0  0  0  0  0  0
    7.3514  -15.0970   20.5074 C   0  0  0  0  0  0  0  0  0  0  0  0
    7.2138  -16.2811   21.4481 C   0  0  2  0  0  0  0  0  0  0  0  0
    5.8596  -16.5626   21.8246 N   0  0  0  0  0  0  0  0  0  0  0  0
    7.9900  -15.9524   22.6690 C   0  0  0  0  0  0  0  0  0  0  0  0
    9.2596  -15.8159   22.6025 O   0  0  0  0  0  0  0  0  0  0  0  0
   11.1704  -14.2635   18.6868 C   0  0  0  0  0  0  0  0  0  0  0  0
    7.2107  -11.4776   27.5189 S   0  0  0  0  0  0  0  0  0  0  0  0
    5.9400  -12.1800   26.4114 C   0  0  0  0  0  0  0  0  0  0  0  0
    6.6654  -13.3611   25.2348 C   0  0  0  0  0  0  0  0  0  0  0  0
    7.1563  -14.6017   25.9500 C   0  0  2  0  0  0  0  0  0  0  0  0
    8.0628  -15.4355   25.0849 N   0  0  0  0  0  0  0  0  0  0  0  0
    7.3308  -15.7946   23.8867 C   0  0  0  0  0  0  0  0  0  0  0  0
    8.4989  -16.6753   25.7326 O   0  0  0  0  0  0  0  0  0  0  0  0
    7.6993  -17.5227   26.1979 N   0  0  0  0  0  0  0  0  0  0  0  0
    9.8850  -16.9582   25.8542 C   0  0  2  0  0  0  0  0  0  0  0  0
   10.3970  -18.1792   26.4316 C   0  0  0  0  0  0  0  0  0  0  0  0
   11.4765  -18.6988   25.5045 C   0  0  0  0  0  0  0  0  0  0  0  0
   12.5184  -17.6829   25.2463 O   0  0  0  0  0  0  0  0  0  0  0  0
   12.4972  -16.5341   25.7544 C   0  0  0  0  0  0  0  0  0  0  0  0
   10.9126  -17.9063   27.7838 O   0  0  0  0  0  0  0  0  0  0  0  0
   11.3609  -18.8686   28.6610 O   0  0  0  0  0  0  0  0  0  0  0  0
   13.5707  -18.0023   24.4018 O   0  0  0  0  0  0  0  0  0  0  0  0
  2  1  1  0
  3  2  2  0
  4  2  1  0
  5  4  1  0
  6  5  1  0
  7  6  1  0
  8  7  1  0
  8  9  1  1
 10 11  2  0
 10  8  1  0
 12 13  1  0
 14 13  1  0
 15 14  1  0
 16 17  1  0
 16 15  1  6
 17 10  1  0
 18 16  1  0
 19 18  2  0
 20 18  1  0
 21 20  1  0
 21 22  1  1
 22 23  1  0
 23 24  2  0
 25 21  1  0
 25 26  1  0
 27 23  1  0
 28 25  2  0
M  END
$$$$
