RMD.pdb
     RDKit          3D

 28 27  0  0  1  0  0  0  0  0999 V2000
    9.3877  -14.4665   17.2362 N   0  0  0  0  0  0  0  0  0  0  0  0
    8.2001  -13.7268   16.9189 C   0  0  0  0  0  0  0  0  0  0  0  0
    7.6631  -13.8556   15.7349 N   0  0  0  0  0  0  0  0  0  0  0  0
    7.5814  -12.8605   17.8440 N   0  0  0  0  0  0  0  0  0  0  0  0
    8.1235  -12.6481   19.1504 C   0  0  0  0  0  0  0  0  0  0  0  0
    7.7673  -13.8634   20.0081 C   0  0  0  0  0  0  0  0  0  0  0  0
    9.0714  -14.5956   20.2474 C   0  0  0  0  0  0  0  0  0  0  0  0
    8.8463  -15.8863   21.0151 C   0  0  2  0  0  0  0  0  0  0  0  0
    7.4747  -16.3011   21.0537 N   0  0  0  0  0  0  0  0  0  0  0  0
    9.3118  -15.6472   22.4034 C   0  0  0  0  0  0  0  0  0  0  0  0
   10.4825  -15.1781   22.6137 O   0  0  0  0  0  0  0  0  0  0  0  0
    6.8004  -13.3001   15.5044 C   0  0  0  0  0  0  0  0  0  0  0  0
    6.6617  -10.8071   26.1474 S   0  0  0  0  0  0  0  0  0  0  0  0
    6.5703  -12.6200   26.3460 C   0  0  0  0  0  0  0  0  0  0  0  0
    7.8290  -13.4617   25.3395 C   0  0  0  0  0  0  0  0  0  0  0  0
    7.7650  -14.9608   25.5398 C   0  0  2  0  0  0  0  0  0  0  0  0
    8.8880  -15.6765   24.8383 N   0  0  0  0  0  0  0  0  0  0  0  0
    8.4696  -15.9367   23.4753 C   0  0  0  0  0  0  0  0  0  0  0  0
    9.2290  -16.9607   25.4558 O   0  0  0  0  0  0  0  0  0  0  0  0
    8.4198  -17.9156   25.5414 N   0  0  0  0  0  0  0  0  0  0  0  0
   10.5284  -17.1634   25.9913 C   0  0  1  0  0  0  0  0  0  0  0  0
   10.9318  -18.3826   26.6524 C   0  0  0  0  0  0  0  0  0  0  0  0
   12.4375  -18.4885   26.5243 C   0  0  0  0  0  0  0  0  0  0  0  0
   12.8854  -18.3240   25.1255 O   0  0  0  0  0  0  0  0  0  0  0  0
   13.7682  -17.4994   24.7804 C   0  0  0  0  0  0  0  0  0  0  0  0
   10.4968  -18.3475   28.0589 O   0  0  0  0  0  0  0  0  0  0  0  0
   10.5964  -19.4037   28.9370 O   0  0  0  0  0  0  0  0  0  0  0  0
   12.3071  -19.1096   24.1402 O   0  0  0  0  0  0  0  0  0  0  0  0
  2  1  1  0
  3  2  2  0
  4  2  1  0
  5  4  1  0
  6  5  1  0
  7  6  1  0
  8  7  1  0
  8  9  1  1
 10 11  2  0
 10  8  1  0
 12 13  1  0
 14 13  1  0
 15 14  1  0
 16 17  1  0
 16 15  1  6
 17 10  1  0
 18 16  1  0
 19 18  2  0
 20 18  1  0
 21 20  1  0
 21 22  1  1
 22 23  1  0
 23 24  2  0
 25 21  1  0
 25 26  1  0
 27 23  1  0
 28 25  2  0
M  END
$$$$
