RMD.pdb
     RDKit          3D

 28 27  0  0  1  0  0  0  0  0999 V2000
    9.2794  -15.1458   15.4649 N   0  0  0  0  0  0  0  0  0  0  0  0
    8.1723  -14.2538   15.2727 C   0  0  0  0  0  0  0  0  0  0  0  0
    7.9234  -13.7913   14.0764 N   0  0  0  0  0  0  0  0  0  0  0  0
    7.3321  -13.8552   16.3328 N   0  0  0  0  0  0  0  0  0  0  0  0
    7.4981  -14.3722   17.6561 C   0  0  0  0  0  0  0  0  0  0  0  0
    8.2128  -13.3068   18.4886 C   0  0  0  0  0  0  0  0  0  0  0  0
    7.7241  -13.4974   19.9095 C   0  0  0  0  0  0  0  0  0  0  0  0
    7.9682  -14.9168   20.3908 C   0  0  2  0  0  0  0  0  0  0  0  0
    6.7790  -15.7144   20.4574 N   0  0  0  0  0  0  0  0  0  0  0  0
    8.5512  -14.8149   21.7513 C   0  0  0  0  0  0  0  0  0  0  0  0
    9.7321  -14.3501   21.9081 O   0  0  0  0  0  0  0  0  0  0  0  0
    8.5650  -14.0540   13.2858 C   0  0  0  0  0  0  0  0  0  0  0  0
    6.1077  -10.5917   26.3072 S   0  0  0  0  0  0  0  0  0  0  0  0
    6.5882  -12.3405   26.5203 C   0  0  0  0  0  0  0  0  0  0  0  0
    7.0383  -13.1028   24.9322 C   0  0  0  0  0  0  0  0  0  0  0  0
    7.2500  -14.5933   25.0907 C   0  0  2  0  0  0  0  0  0  0  0  0
    8.3449  -15.1102   24.1966 N   0  0  0  0  0  0  0  0  0  0  0  0
    7.8082  -15.2283   22.8555 C   0  0  0  0  0  0  0  0  0  0  0  0
    8.8437  -16.4282   24.5977 O   0  0  0  0  0  0  0  0  0  0  0  0
    8.1069  -17.4391   24.6937 N   0  0  0  0  0  0  0  0  0  0  0  0
   10.2207  -16.6001   24.8984 C   0  0  1  0  0  0  0  0  0  0  0  0
   10.7892  -17.8601   25.3175 C   0  0  0  0  0  0  0  0  0  0  0  0
   11.9864  -18.1324   24.4302 C   0  0  0  0  0  0  0  0  0  0  0  0
   12.9275  -16.9931   24.4080 O   0  0  0  0  0  0  0  0  0  0  0  0
   12.7121  -15.9135   25.0134 C   0  0  0  0  0  0  0  0  0  0  0  0
   11.1604  -17.7839   26.7405 O   0  0  0  0  0  0  0  0  0  0  0  0
   11.6188  -18.8451   27.4891 O   0  0  0  0  0  0  0  0  0  0  0  0
   14.1045  -17.1105   23.6846 O   0  0  0  0  0  0  0  0  0  0  0  0
  2  1  1  0
  3  2  2  0
  4  2  1  0
  5  4  1  0
  6  5  1  0
  7  6  1  0
  8  7  1  0
  8  9  1  1
 10 11  2  0
 10  8  1  0
 12 13  1  0
 14 13  1  0
 15 14  1  0
 16 17  1  0
 16 15  1  6
 17 10  1  0
 18 16  1  0
 19 18  2  0
 20 18  1  0
 21 20  1  0
 21 22  1  1
 22 23  1  0
 23 24  2  0
 25 21  1  0
 25 26  1  0
 27 23  1  0
 28 25  2  0
M  END
$$$$
