RMD.pdb
     RDKit          3D

 28 27  0  0  1  0  0  0  0  0999 V2000
    8.0725  -12.1433   18.3256 N   0  0  0  0  0  0  0  0  0  0  0  0
    7.4579  -13.4352   18.2185 C   0  0  0  0  0  0  0  0  0  0  0  0
    6.1855  -13.5628   18.4861 N   0  0  0  0  0  0  0  0  0  0  0  0
    8.1784  -14.5832   17.8288 N   0  0  0  0  0  0  0  0  0  0  0  0
    8.8340  -15.4181   18.7874 C   0  0  0  0  0  0  0  0  0  0  0  0
    9.8310  -14.5517   19.5585 C   0  0  0  0  0  0  0  0  0  0  0  0
   10.5549  -15.4933   20.4984 C   0  0  0  0  0  0  0  0  0  0  0  0
    9.5783  -16.3786   21.2522 C   0  0  2  0  0  0  0  0  0  0  0  0
    8.2102  -16.1791   20.8734 N   0  0  0  0  0  0  0  0  0  0  0  0
    9.7270  -16.0535   22.6922 C   0  0  0  0  0  0  0  0  0  0  0  0
   10.8839  -15.8014   23.1748 O   0  0  0  0  0  0  0  0  0  0  0  0
    5.7250  -14.4960   18.3349 C   0  0  0  0  0  0  0  0  0  0  0  0
    6.9155  -11.0873   26.4822 S   0  0  0  0  0  0  0  0  0  0  0  0
    7.1168  -12.8800   26.7656 C   0  0  0  0  0  0  0  0  0  0  0  0
    7.2432  -13.7894   25.1963 C   0  0  0  0  0  0  0  0  0  0  0  0
    7.4114  -15.2731   25.4453 C   0  0  2  0  0  0  0  0  0  0  0  0
    8.7319  -15.7883   24.9390 N   0  0  0  0  0  0  0  0  0  0  0  0
    8.6027  -16.0255   23.5151 C   0  0  0  0  0  0  0  0  0  0  0  0
    9.1399  -17.0471   25.5682 O   0  0  0  0  0  0  0  0  0  0  0  0
    8.3704  -18.0297   25.6959 N   0  0  0  0  0  0  0  0  0  0  0  0
   10.4617  -17.1911   26.0664 C   0  0  1  0  0  0  0  0  0  0  0  0
   10.9317  -18.3827   26.7339 C   0  0  0  0  0  0  0  0  0  0  0  0
   12.4381  -18.4222   26.5793 C   0  0  0  0  0  0  0  0  0  0  0  0
   12.8429  -18.6941   25.1841 O   0  0  0  0  0  0  0  0  0  0  0  0
   12.1176  -19.3160   24.3682 C   0  0  0  0  0  0  0  0  0  0  0  0
   10.5207  -18.3500   28.1476 O   0  0  0  0  0  0  0  0  0  0  0  0
   10.5786  -19.4253   29.0060 O   0  0  0  0  0  0  0  0  0  0  0  0
   14.0812  -18.2491   24.7471 O   0  0  0  0  0  0  0  0  0  0  0  0
  2  1  1  0
  3  2  2  0
  4  2  1  0
  5  4  1  0
  6  5  1  0
  7  6  1  0
  8  7  1  0
  8  9  1  6
 10 11  2  0
 10  8  1  0
 12 13  1  0
 14 13  1  0
 15 14  1  0
 16 17  1  0
 16 15  1  6
 17 10  1  0
 18 16  1  0
 19 18  2  0
 20 18  1  0
 21 20  1  0
 21 22  1  1
 22 23  1  0
 23 24  2  0
 25 21  1  0
 25 26  1  0
 27 23  1  0
 28 25  2  0
M  END
$$$$
