DWY.pdb
     RDKit          3D

 35 37  0  0  1  0  0  0  0  0999 V2000
   10.0996  -17.4854   18.9273 N   0  0  0  0  0  0  0  0  0  0  0  0
   11.2362  -16.9259   19.5889 C   0  0  1  0  0  0  0  0  0  0  0  0
   11.8798  -15.9116   18.6818 C   0  0  0  0  0  0  0  0  0  0  0  0
   12.4345  -16.6191   17.5065 C   0  0  0  0  0  0  0  0  0  0  0  0
   11.6884  -17.1255   16.6374 O   0  0  0  0  0  0  0  0  0  0  0  0
   10.8404  -16.3171   20.8964 C   0  0  0  0  0  0  0  0  0  0  0  0
   11.7276  -15.7860   21.6044 O   0  0  0  0  0  0  0  0  0  0  0  0
   13.8050  -16.7246   17.3624 O   0  0  0  0  0  0  0  0  0  0  0  0
    9.4941  -16.3406   21.3240 N   0  0  0  0  0  0  0  0  0  0  0  0
    9.0326  -15.8331   22.5668 C   0  0  1  0  0  0  0  0  0  0  0  0
    7.5234  -15.7691   22.7412 C   0  0  0  0  0  0  0  0  0  0  0  0
    7.1058  -15.2708   24.0696 C   0  0  0  0  0  0  0  0  0  0  0  0
    6.6976  -15.9304   25.1948 C   0  0  0  0  0  0  0  0  0  0  0  0
    6.4321  -15.0230   26.1529 N   0  0  0  0  0  0  0  0  0  0  0  0
    6.6516  -13.7798   25.7005 C   0  0  0  0  0  0  0  0  0  0  0  0
    6.5472  -12.5171   26.2421 C   0  0  0  0  0  0  0  0  0  0  0  0
    6.8574  -11.3763   25.5089 C   0  0  0  0  0  0  0  0  0  0  0  0
    7.2757  -11.5132   24.2210 C   0  0  0  0  0  0  0  0  0  0  0  0
    7.3803  -12.7973   23.6749 C   0  0  0  0  0  0  0  0  0  0  0  0
    7.0740  -13.9089   24.3998 C   0  0  0  0  0  0  0  0  0  0  0  0
    9.6767  -16.3266   23.7691 C   0  0  0  0  0  0  0  0  0  0  0  0
    9.8498  -17.5758   23.8837 O   0  0  0  0  0  0  0  0  0  0  0  0
   12.1742  -16.9710   32.2461 O   0  0  0  0  0  0  0  0  0  0  0  0
   11.8399  -16.4908   30.9870 C   0  0  0  0  0  0  0  0  0  0  0  0
   12.4965  -16.9257   29.8515 C   0  0  0  0  0  0  0  0  0  0  0  0
   12.1764  -16.4586   28.5920 C   0  0  0  0  0  0  0  0  0  0  0  0
   11.1610  -15.5150   28.4223 C   0  0  0  0  0  0  0  0  0  0  0  0
   10.8313  -15.0149   27.0697 C   0  0  0  0  0  0  0  0  0  0  0  0
   10.6821  -16.1083   26.0637 C   0  0  2  0  0  0  0  0  0  0  0  0
   10.1386  -15.5255   24.8469 N   0  0  0  0  0  0  0  0  0  0  0  0
    9.9253  -17.2799   26.5052 C   0  0  0  0  0  0  0  0  0  0  0  0
   10.5244  -18.3699   26.6806 O   0  0  0  0  0  0  0  0  0  0  0  0
   10.5137  -15.0875   29.5533 C   0  0  0  0  0  0  0  0  0  0  0  0
   10.8298  -15.5542   30.8341 C   0  0  0  0  0  0  0  0  0  0  0  0
    8.5611  -17.2851   26.7532 O   0  0  0  0  0  0  0  0  0  0  0  0
  2  3  1  0
  2  1  1  6
  4  3  1  0
  5  4  2  0
  6  7  2  0
  6  2  1  0
  8  4  1  0
  9  6  1  0
 10  9  1  0
 10 11  1  1
 12 11  1  0
 13 12  2  0
 14 13  1  0
 15 14  1  0
 15 20  2  0
 16 15  1  0
 17 16  2  0
 17 18  1  0
 18 19  2  0
 19 20  1  0
 20 12  1  0
 21 30  1  0
 21 10  1  0
 22 21  2  0
 23 24  1  0
 24 34  2  0
 25 26  2  0
 25 24  1  0
 26 27  1  0
 27 28  1  0
 27 33  2  0
 29 28  1  1
 29 31  1  0
 29 30  1  0
 31 35  1  0
 32 31  2  0
 34 33  1  0
M  END
$$$$
