DWY.pdb
     RDKit          3D

 35 37  0  0  1  0  0  0  0  0999 V2000
    9.8401  -17.6339   20.4811 N   0  0  0  0  0  0  0  0  0  0  0  0
   11.0708  -17.3404   21.1458 C   0  0  1  0  0  0  0  0  0  0  0  0
   11.9123  -16.4674   20.2538 C   0  0  0  0  0  0  0  0  0  0  0  0
   12.3629  -17.2743   19.0981 C   0  0  0  0  0  0  0  0  0  0  0  0
   11.9362  -18.4361   18.9072 O   0  0  0  0  0  0  0  0  0  0  0  0
   10.8157  -16.6876   22.4670 C   0  0  0  0  0  0  0  0  0  0  0  0
   11.5946  -15.7839   22.8505 O   0  0  0  0  0  0  0  0  0  0  0  0
   13.2741  -16.7364   18.2090 O   0  0  0  0  0  0  0  0  0  0  0  0
    9.7191  -17.0820   23.2657 N   0  0  0  0  0  0  0  0  0  0  0  0
    9.3870  -16.5086   24.5211 C   0  0  1  0  0  0  0  0  0  0  0  0
    7.9022  -16.3545   24.8112 C   0  0  0  0  0  0  0  0  0  0  0  0
    7.3481  -15.0572   24.3670 C   0  0  0  0  0  0  0  0  0  0  0  0
    6.8870  -14.6409   23.1497 C   0  0  0  0  0  0  0  0  0  0  0  0
    6.4771  -13.3634   23.2590 N   0  0  0  0  0  0  0  0  0  0  0  0
    6.6505  -12.9168   24.5115 C   0  0  0  0  0  0  0  0  0  0  0  0
    6.4073  -11.7254   25.1597 C   0  0  0  0  0  0  0  0  0  0  0  0
    6.6960  -11.5522   26.5095 C   0  0  0  0  0  0  0  0  0  0  0  0
    7.2337  -12.5896   27.2076 C   0  0  0  0  0  0  0  0  0  0  0  0
    7.4792  -13.7976   26.5454 C   0  0  0  0  0  0  0  0  0  0  0  0
    7.1938  -13.9584   25.2234 C   0  0  0  0  0  0  0  0  0  0  0  0
   10.0989  -16.9971   25.6866 C   0  0  0  0  0  0  0  0  0  0  0  0
   10.3160  -18.2415   25.7751 O   0  0  0  0  0  0  0  0  0  0  0  0
   16.2359  -16.7468   23.7005 O   0  0  0  0  0  0  0  0  0  0  0  0
   15.3464  -16.5479   24.7479 C   0  0  0  0  0  0  0  0  0  0  0  0
   15.3550  -17.3605   25.8655 C   0  0  0  0  0  0  0  0  0  0  0  0
   14.4777  -17.1764   26.9158 C   0  0  0  0  0  0  0  0  0  0  0  0
   13.5369  -16.1450   26.8819 C   0  0  0  0  0  0  0  0  0  0  0  0
   12.5961  -15.9613   28.0086 C   0  0  0  0  0  0  0  0  0  0  0  0
   11.3433  -16.7600   27.8588 C   0  0  2  0  0  0  0  0  0  0  0  0
   10.5825  -16.1961   26.7548 N   0  0  0  0  0  0  0  0  0  0  0  0
   10.5367  -16.9110   29.0701 C   0  0  0  0  0  0  0  0  0  0  0  0
    9.3700  -16.4466   29.0949 O   0  0  0  0  0  0  0  0  0  0  0  0
   13.5337  -15.3424   25.7697 C   0  0  0  0  0  0  0  0  0  0  0  0
   14.4181  -15.5199   24.6999 C   0  0  0  0  0  0  0  0  0  0  0  0
   10.9679  -17.5434   30.2263 O   0  0  0  0  0  0  0  0  0  0  0  0
  2  3  1  0
  2  1  1  6
  4  3  1  0
  5  4  2  0
  6  7  2  0
  6  2  1  0
  8  4  1  0
  9  6  1  0
 10  9  1  0
 10 11  1  1
 12 11  1  0
 13 12  2  0
 14 13  1  0
 15 14  1  0
 15 20  2  0
 16 15  1  0
 17 16  2  0
 17 18  1  0
 18 19  2  0
 19 20  1  0
 20 12  1  0
 21 30  1  0
 21 10  1  0
 22 21  2  0
 23 24  1  0
 24 34  2  0
 25 26  2  0
 25 24  1  0
 26 27  1  0
 27 28  1  0
 27 33  2  0
 29 28  1  1
 29 31  1  0
 29 30  1  0
 31 35  1  0
 32 31  2  0
 34 33  1  0
M  END
$$$$
