DWY.pdb
     RDKit          3D

 35 37  0  0  1  0  0  0  0  0999 V2000
   11.4073  -15.8366   18.2428 N   0  0  0  0  0  0  0  0  0  0  0  0
   10.6669  -16.7325   19.0745 C   0  0  1  0  0  0  0  0  0  0  0  0
   11.4712  -17.9885   19.2777 C   0  0  0  0  0  0  0  0  0  0  0  0
   11.7342  -18.5962   17.9544 C   0  0  0  0  0  0  0  0  0  0  0  0
   10.8086  -18.8070   17.1374 O   0  0  0  0  0  0  0  0  0  0  0  0
   10.3262  -16.0842   20.3785 C   0  0  0  0  0  0  0  0  0  0  0  0
   11.2069  -15.4105   20.9622 O   0  0  0  0  0  0  0  0  0  0  0  0
   13.0280  -18.9393   17.6102 O   0  0  0  0  0  0  0  0  0  0  0  0
    9.0378  -16.2286   20.9400 N   0  0  0  0  0  0  0  0  0  0  0  0
    8.6552  -15.7441   22.2183 C   0  0  1  0  0  0  0  0  0  0  0  0
    7.1602  -15.6949   22.4919 C   0  0  0  0  0  0  0  0  0  0  0  0
    6.8271  -15.2222   23.8531 C   0  0  0  0  0  0  0  0  0  0  0  0
    6.4272  -15.8980   24.9717 C   0  0  0  0  0  0  0  0  0  0  0  0
    6.2546  -15.0124   25.9706 N   0  0  0  0  0  0  0  0  0  0  0  0
    6.5278  -13.7681   25.5516 C   0  0  0  0  0  0  0  0  0  0  0  0
    6.5196  -12.5220   26.1397 C   0  0  0  0  0  0  0  0  0  0  0  0
    6.8658  -11.3748   25.4331 C   0  0  0  0  0  0  0  0  0  0  0  0
    7.2225  -11.4884   24.1245 C   0  0  0  0  0  0  0  0  0  0  0  0
    7.2294  -12.7557   23.5311 C   0  0  0  0  0  0  0  0  0  0  0  0
    6.8885  -13.8736   24.2304 C   0  0  0  0  0  0  0  0  0  0  0  0
    9.3801  -16.2509   23.3679 C   0  0  0  0  0  0  0  0  0  0  0  0
    9.6012  -17.4960   23.4325 O   0  0  0  0  0  0  0  0  0  0  0  0
   12.1477  -16.9800   31.7754 O   0  0  0  0  0  0  0  0  0  0  0  0
   11.7738  -16.4990   30.5278 C   0  0  0  0  0  0  0  0  0  0  0  0
   10.6513  -15.7095   30.3659 C   0  0  0  0  0  0  0  0  0  0  0  0
   10.2656  -15.2230   29.1325 C   0  0  0  0  0  0  0  0  0  0  0  0
   11.0106  -15.5183   27.9888 C   0  0  0  0  0  0  0  0  0  0  0  0
   10.5843  -14.9988   26.6709 C   0  0  0  0  0  0  0  0  0  0  0  0
   10.4426  -16.0696   25.6398 C   0  0  2  0  0  0  0  0  0  0  0  0
    9.8726  -15.4672   24.4448 N   0  0  0  0  0  0  0  0  0  0  0  0
    9.7134  -17.2659   26.0613 C   0  0  0  0  0  0  0  0  0  0  0  0
    8.4632  -17.2983   25.9441 O   0  0  0  0  0  0  0  0  0  0  0  0
   12.1232  -16.3024   28.1566 C   0  0  0  0  0  0  0  0  0  0  0  0
   12.5232  -16.8006   29.4016 C   0  0  0  0  0  0  0  0  0  0  0  0
   10.3072  -18.3996   26.5949 O   0  0  0  0  0  0  0  0  0  0  0  0
  2  3  1  0
  2  1  1  6
  4  3  1  0
  5  4  2  0
  6  7  2  0
  6  2  1  0
  8  4  1  0
  9  6  1  0
 10  9  1  0
 10 11  1  1
 12 11  1  0
 13 12  2  0
 14 13  1  0
 15 14  1  0
 15 20  2  0
 16 15  1  0
 17 16  2  0
 17 18  1  0
 18 19  2  0
 19 20  1  0
 20 12  1  0
 21 30  1  0
 21 10  1  0
 22 21  2  0
 23 24  1  0
 24 34  2  0
 25 26  2  0
 25 24  1  0
 26 27  1  0
 27 28  1  0
 27 33  2  0
 29 28  1  1
 29 31  1  0
 29 30  1  0
 31 35  1  0
 32 31  2  0
 34 33  1  0
M  END
$$$$
