DWY.pdb
     RDKit          3D

 35 37  0  0  1  0  0  0  0  0999 V2000
   10.5645  -19.0857   21.1870 N   0  0  0  0  0  0  0  0  0  0  0  0
   11.6611  -18.1741   21.2812 C   0  0  1  0  0  0  0  0  0  0  0  0
   11.9681  -17.6349   19.9098 C   0  0  0  0  0  0  0  0  0  0  0  0
   12.5755  -18.7182   19.1053 C   0  0  0  0  0  0  0  0  0  0  0  0
   11.8755  -19.6198   18.5903 O   0  0  0  0  0  0  0  0  0  0  0  0
   11.3523  -17.0731   22.2453 C   0  0  0  0  0  0  0  0  0  0  0  0
   12.2613  -16.2634   22.5431 O   0  0  0  0  0  0  0  0  0  0  0  0
   13.9446  -18.7375   18.9169 O   0  0  0  0  0  0  0  0  0  0  0  0
   10.0625  -16.9489   22.8081 N   0  0  0  0  0  0  0  0  0  0  0  0
    9.6753  -15.9361   23.7243 C   0  0  1  0  0  0  0  0  0  0  0  0
    8.2000  -15.5676   23.7257 C   0  0  0  0  0  0  0  0  0  0  0  0
    7.6652  -15.2785   22.3774 C   0  0  0  0  0  0  0  0  0  0  0  0
    7.0947  -16.0911   21.4382 C   0  0  0  0  0  0  0  0  0  0  0  0
    6.7627  -15.3448   20.3683 N   0  0  0  0  0  0  0  0  0  0  0  0
    7.0939  -14.0605   20.5666 C   0  0  0  0  0  0  0  0  0  0  0  0
    6.9820  -12.9037   19.8263 C   0  0  0  0  0  0  0  0  0  0  0  0
    7.4249  -11.6770   20.3105 C   0  0  0  0  0  0  0  0  0  0  0  0
    7.9839  -11.6199   21.5501 C   0  0  0  0  0  0  0  0  0  0  0  0
    8.0957  -12.7970   22.2985 C   0  0  0  0  0  0  0  0  0  0  0  0
    7.6598  -13.9939   21.8165 C   0  0  0  0  0  0  0  0  0  0  0  0
   10.1921  -16.0271   25.0765 C   0  0  0  0  0  0  0  0  0  0  0  0
   11.0762  -15.1943   25.4347 O   0  0  0  0  0  0  0  0  0  0  0  0
    7.1070  -11.2107   26.4782 O   0  0  0  0  0  0  0  0  0  0  0  0
    7.5180  -12.4732   26.8839 C   0  0  0  0  0  0  0  0  0  0  0  0
    8.7599  -12.6787   27.4541 C   0  0  0  0  0  0  0  0  0  0  0  0
    9.1842  -13.9276   27.8631 C   0  0  0  0  0  0  0  0  0  0  0  0
    8.3574  -15.0427   27.7110 C   0  0  0  0  0  0  0  0  0  0  0  0
    8.8245  -16.3775   28.1450 C   0  0  0  0  0  0  0  0  0  0  0  0
   10.0839  -16.8043   27.4655 C   0  0  2  0  0  0  0  0  0  0  0  0
    9.7919  -16.9790   26.0513 N   0  0  0  0  0  0  0  0  0  0  0  0
   10.7546  -17.9694   28.0428 C   0  0  0  0  0  0  0  0  0  0  0  0
   11.1419  -17.9280   29.2370 O   0  0  0  0  0  0  0  0  0  0  0  0
    7.1265  -14.8316   27.1443 C   0  0  0  0  0  0  0  0  0  0  0  0
    6.6865  -13.5707   26.7264 C   0  0  0  0  0  0  0  0  0  0  0  0
   11.0047  -19.1496   27.3593 O   0  0  0  0  0  0  0  0  0  0  0  0
  2  3  1  0
  2  1  1  6
  4  3  1  0
  5  4  2  0
  6  7  2  0
  6  2  1  0
  8  4  1  0
  9  6  1  0
 10  9  1  0
 10 11  1  1
 12 11  1  0
 13 12  2  0
 14 13  1  0
 15 14  1  0
 15 20  2  0
 16 15  1  0
 17 16  2  0
 17 18  1  0
 18 19  2  0
 19 20  1  0
 20 12  1  0
 21 30  1  0
 21 10  1  0
 22 21  2  0
 23 24  1  0
 24 34  2  0
 25 26  2  0
 25 24  1  0
 26 27  1  0
 27 28  1  0
 27 33  2  0
 29 28  1  1
 29 31  1  0
 29 30  1  0
 31 35  1  0
 32 31  2  0
 34 33  1  0
M  END
$$$$
