DWY.pdb
     RDKit          3D

 35 37  0  0  1  0  0  0  0  0999 V2000
    8.5638  -18.9091   19.4847 N   0  0  0  0  0  0  0  0  0  0  0  0
    9.6170  -18.0336   19.0762 C   0  0  1  0  0  0  0  0  0  0  0  0
    9.4126  -17.6634   17.6316 C   0  0  0  0  0  0  0  0  0  0  0  0
   10.5862  -16.8855   17.1764 C   0  0  0  0  0  0  0  0  0  0  0  0
   10.4590  -15.7434   16.6786 O   0  0  0  0  0  0  0  0  0  0  0  0
    9.6654  -16.8207   19.9500 C   0  0  0  0  0  0  0  0  0  0  0  0
   10.7453  -16.1921   20.0452 O   0  0  0  0  0  0  0  0  0  0  0  0
   11.8508  -17.4287   17.3024 O   0  0  0  0  0  0  0  0  0  0  0  0
    8.5172  -16.3932   20.6533 N   0  0  0  0  0  0  0  0  0  0  0  0
    8.4614  -16.1823   22.0561 C   0  0  1  0  0  0  0  0  0  0  0  0
    7.1890  -16.6438   22.7490 C   0  0  0  0  0  0  0  0  0  0  0  0
    6.8892  -15.8937   23.9879 C   0  0  0  0  0  0  0  0  0  0  0  0
    6.5841  -16.3191   25.2504 C   0  0  0  0  0  0  0  0  0  0  0  0
    6.4019  -15.2408   26.0353 N   0  0  0  0  0  0  0  0  0  0  0  0
    6.5769  -14.1109   25.3345 C   0  0  0  0  0  0  0  0  0  0  0  0
    6.5171  -12.7663   25.6298 C   0  0  0  0  0  0  0  0  0  0  0  0
    6.7579  -11.7921   24.6664 C   0  0  0  0  0  0  0  0  0  0  0  0
    7.0609  -12.1798   23.3974 C   0  0  0  0  0  0  0  0  0  0  0  0
    7.1204  -13.5463   23.1018 C   0  0  0  0  0  0  0  0  0  0  0  0
    6.8828  -14.4934   24.0511 C   0  0  0  0  0  0  0  0  0  0  0  0
    9.6356  -16.5357   22.8308 C   0  0  0  0  0  0  0  0  0  0  0  0
    9.9518  -17.7594   22.9105 O   0  0  0  0  0  0  0  0  0  0  0  0
   10.6260  -16.1504   31.3276 O   0  0  0  0  0  0  0  0  0  0  0  0
   10.4789  -15.8835   29.9730 C   0  0  0  0  0  0  0  0  0  0  0  0
    9.6525  -14.8715   29.5230 C   0  0  0  0  0  0  0  0  0  0  0  0
    9.4950  -14.5927   28.1797 C   0  0  0  0  0  0  0  0  0  0  0  0
   10.1777  -15.3377   27.2158 C   0  0  0  0  0  0  0  0  0  0  0  0
    9.9957  -15.0364   25.7790 C   0  0  0  0  0  0  0  0  0  0  0  0
   10.8911  -15.8416   24.8960 C   0  0  2  0  0  0  0  0  0  0  0  0
   10.4768  -15.6219   23.5191 N   0  0  0  0  0  0  0  0  0  0  0  0
   10.9971  -17.2634   25.2246 C   0  0  0  0  0  0  0  0  0  0  0  0
   12.1158  -17.7413   25.5377 O   0  0  0  0  0  0  0  0  0  0  0  0
   10.9959  -16.3406   27.6694 C   0  0  0  0  0  0  0  0  0  0  0  0
   11.1629  -16.6315   29.0279 C   0  0  0  0  0  0  0  0  0  0  0  0
    9.9326  -18.1517   25.2184 O   0  0  0  0  0  0  0  0  0  0  0  0
  2  3  1  0
  2  1  1  1
  4  3  1  0
  5  4  2  0
  6  7  2  0
  6  2  1  0
  8  4  1  0
  9  6  1  0
 10  9  1  0
 10 11  1  1
 12 11  1  0
 13 12  2  0
 14 13  1  0
 15 14  1  0
 15 20  2  0
 16 15  1  0
 17 16  2  0
 17 18  1  0
 18 19  2  0
 19 20  1  0
 20 12  1  0
 21 30  1  0
 21 10  1  0
 22 21  2  0
 23 24  1  0
 24 34  2  0
 25 26  2  0
 25 24  1  0
 26 27  1  0
 27 28  1  0
 27 33  2  0
 29 28  1  1
 29 31  1  0
 29 30  1  0
 31 35  1  0
 32 31  2  0
 34 33  1  0
M  END
$$$$
