DWY.pdb
     RDKit          3D

 35 37  0  0  1  0  0  0  0  0999 V2000
   10.2911  -18.8878   19.6583 N   0  0  0  0  0  0  0  0  0  0  0  0
   11.1524  -17.7691   19.4366 C   0  0  1  0  0  0  0  0  0  0  0  0
   10.9770  -17.2899   18.0205 C   0  0  0  0  0  0  0  0  0  0  0  0
   11.7874  -18.1507   17.1306 C   0  0  0  0  0  0  0  0  0  0  0  0
   12.5655  -19.0169   17.5917 O   0  0  0  0  0  0  0  0  0  0  0  0
   10.8688  -16.6799   20.4216 C   0  0  0  0  0  0  0  0  0  0  0  0
   11.6007  -15.6627   20.4191 O   0  0  0  0  0  0  0  0  0  0  0  0
   11.6853  -17.9974   15.7608 O   0  0  0  0  0  0  0  0  0  0  0  0
    9.7978  -16.7960   21.3356 N   0  0  0  0  0  0  0  0  0  0  0  0
    9.4630  -15.8242   22.3148 C   0  0  1  0  0  0  0  0  0  0  0  0
    7.9870  -15.4777   22.4318 C   0  0  0  0  0  0  0  0  0  0  0  0
    7.3607  -15.1292   21.1381 C   0  0  0  0  0  0  0  0  0  0  0  0
    6.5512  -15.8475   20.3034 C   0  0  0  0  0  0  0  0  0  0  0  0
    6.2361  -15.0795   19.2438 N   0  0  0  0  0  0  0  0  0  0  0  0
    6.8102  -13.8721   19.3477 C   0  0  0  0  0  0  0  0  0  0  0  0
    6.8209  -12.7324   18.5733 C   0  0  0  0  0  0  0  0  0  0  0  0
    7.5268  -11.5949   18.9514 C   0  0  0  0  0  0  0  0  0  0  0  0
    8.2256  -11.6099   20.1193 C   0  0  0  0  0  0  0  0  0  0  0  0
    8.2122  -12.7694   20.9027 C   0  0  0  0  0  0  0  0  0  0  0  0
    7.5187  -13.8789   20.5245 C   0  0  0  0  0  0  0  0  0  0  0  0
   10.0733  -15.9586   23.6237 C   0  0  0  0  0  0  0  0  0  0  0  0
    9.3131  -16.1299   24.6218 O   0  0  0  0  0  0  0  0  0  0  0  0
   10.4829  -14.3214   31.0771 O   0  0  0  0  0  0  0  0  0  0  0  0
   10.5881  -14.9491   29.8432 C   0  0  0  0  0  0  0  0  0  0  0  0
   10.3309  -14.2730   28.6659 C   0  0  0  0  0  0  0  0  0  0  0  0
   10.4309  -14.8822   27.4306 C   0  0  0  0  0  0  0  0  0  0  0  0
   10.8018  -16.2248   27.3297 C   0  0  0  0  0  0  0  0  0  0  0  0
   10.8981  -16.8702   26.0021 C   0  0  0  0  0  0  0  0  0  0  0  0
   12.0182  -16.3342   25.1727 C   0  0  2  0  0  0  0  0  0  0  0  0
   11.4667  -15.9150   23.8937 N   0  0  0  0  0  0  0  0  0  0  0  0
   13.1738  -17.2180   25.0171 C   0  0  0  0  0  0  0  0  0  0  0  0
   13.1626  -18.0934   24.1165 O   0  0  0  0  0  0  0  0  0  0  0  0
   11.0553  -16.8898   28.5021 C   0  0  0  0  0  0  0  0  0  0  0  0
   10.9572  -16.2823   29.7589 C   0  0  0  0  0  0  0  0  0  0  0  0
   14.3131  -17.1661   25.8056 O   0  0  0  0  0  0  0  0  0  0  0  0
  2  3  1  0
  2  1  1  1
  4  3  1  0
  5  4  2  0
  6  7  2  0
  6  2  1  0
  8  4  1  0
  9  6  1  0
 10  9  1  0
 10 11  1  1
 12 11  1  0
 13 12  2  0
 14 13  1  0
 15 14  1  0
 15 20  2  0
 16 15  1  0
 17 16  2  0
 17 18  1  0
 18 19  2  0
 19 20  1  0
 20 12  1  0
 21 30  1  0
 21 10  1  0
 22 21  2  0
 23 24  1  0
 24 34  2  0
 25 26  2  0
 25 24  1  0
 26 27  1  0
 27 28  1  0
 27 33  2  0
 29 28  1  1
 29 31  1  0
 29 30  1  0
 31 35  1  0
 32 31  2  0
 34 33  1  0
M  END
$$$$
