DWY.pdb
     RDKit          3D

 35 37  0  0  1  0  0  0  0  0999 V2000
   10.8793  -18.1928   17.9599 N   0  0  0  0  0  0  0  0  0  0  0  0
   10.1508  -18.6350   19.1072 C   0  0  1  0  0  0  0  0  0  0  0  0
   10.7884  -19.8915   19.6369 C   0  0  0  0  0  0  0  0  0  0  0  0
   10.5383  -20.9863   18.6733 C   0  0  0  0  0  0  0  0  0  0  0  0
    9.8839  -20.7945   17.6229 O   0  0  0  0  0  0  0  0  0  0  0  0
   10.1045  -17.5636   20.1497 C   0  0  0  0  0  0  0  0  0  0  0  0
   11.1617  -16.9513   20.4286 O   0  0  0  0  0  0  0  0  0  0  0  0
   11.0366  -22.2484   18.9359 O   0  0  0  0  0  0  0  0  0  0  0  0
    8.8937  -17.2489   20.8061 N   0  0  0  0  0  0  0  0  0  0  0  0
    8.7654  -16.2960   21.8504 C   0  0  1  0  0  0  0  0  0  0  0  0
    7.4157  -15.6040   21.9587 C   0  0  0  0  0  0  0  0  0  0  0  0
    7.4920  -14.2593   22.5697 C   0  0  0  0  0  0  0  0  0  0  0  0
    7.9401  -13.0664   22.0755 C   0  0  0  0  0  0  0  0  0  0  0  0
    7.7932  -12.1247   23.0261 N   0  0  0  0  0  0  0  0  0  0  0  0
    7.2607  -12.6537   24.1374 C   0  0  0  0  0  0  0  0  0  0  0  0
    6.9046  -12.1597   25.3735 C   0  0  0  0  0  0  0  0  0  0  0  0
    6.3528  -12.9733   26.3577 C   0  0  0  0  0  0  0  0  0  0  0  0
    6.1598  -14.2939   26.0904 C   0  0  0  0  0  0  0  0  0  0  0  0
    6.5230  -14.7915   24.8339 C   0  0  0  0  0  0  0  0  0  0  0  0
    7.0631  -13.9878   23.8762 C   0  0  0  0  0  0  0  0  0  0  0  0
    9.2674  -16.6691   23.1591 C   0  0  0  0  0  0  0  0  0  0  0  0
    8.9318  -17.7966   23.6278 O   0  0  0  0  0  0  0  0  0  0  0  0
   11.1506  -15.8428   31.7204 O   0  0  0  0  0  0  0  0  0  0  0  0
   11.0093  -15.6219   30.3569 C   0  0  0  0  0  0  0  0  0  0  0  0
   11.6686  -16.4036   29.4276 C   0  0  0  0  0  0  0  0  0  0  0  0
   11.5390  -16.1976   28.0683 C   0  0  0  0  0  0  0  0  0  0  0  0
   10.7231  -15.1746   27.5805 C   0  0  0  0  0  0  0  0  0  0  0  0
   10.5974  -14.9570   26.1227 C   0  0  0  0  0  0  0  0  0  0  0  0
   10.4034  -16.2250   25.3581 C   0  0  2  0  0  0  0  0  0  0  0  0
   10.1140  -15.8742   23.9764 N   0  0  0  0  0  0  0  0  0  0  0  0
    9.4221  -17.1580   25.9122 C   0  0  0  0  0  0  0  0  0  0  0  0
    9.8183  -18.2252   26.4430 O   0  0  0  0  0  0  0  0  0  0  0  0
   10.0719  -14.4025   28.5083 C   0  0  0  0  0  0  0  0  0  0  0  0
   10.1960  -14.6026   29.8877 C   0  0  0  0  0  0  0  0  0  0  0  0
    8.0507  -16.9541   25.8986 O   0  0  0  0  0  0  0  0  0  0  0  0
  2  3  1  0
  2  1  1  6
  4  3  1  0
  5  4  2  0
  6  7  2  0
  6  2  1  0
  8  4  1  0
  9  6  1  0
 10  9  1  0
 10 11  1  1
 12 11  1  0
 13 12  2  0
 14 13  1  0
 15 14  1  0
 15 20  2  0
 16 15  1  0
 17 16  2  0
 17 18  1  0
 18 19  2  0
 19 20  1  0
 20 12  1  0
 21 30  1  0
 21 10  1  0
 22 21  2  0
 23 24  1  0
 24 34  2  0
 25 26  2  0
 25 24  1  0
 26 27  1  0
 27 28  1  0
 27 33  2  0
 29 28  1  1
 29 31  1  0
 29 30  1  0
 31 35  1  0
 32 31  2  0
 34 33  1  0
M  END
$$$$
