DWY.pdb
     RDKit          3D

 35 37  0  0  1  0  0  0  0  0999 V2000
    9.3118  -18.8544   18.6823 N   0  0  0  0  0  0  0  0  0  0  0  0
   10.5639  -18.2035   18.9082 C   0  0  1  0  0  0  0  0  0  0  0  0
   11.0295  -17.5786   17.6204 C   0  0  0  0  0  0  0  0  0  0  0  0
   11.2916  -18.6584   16.6432 C   0  0  0  0  0  0  0  0  0  0  0  0
   10.3554  -19.2833   16.0942 O   0  0  0  0  0  0  0  0  0  0  0  0
   10.4420  -17.1858   19.9973 C   0  0  0  0  0  0  0  0  0  0  0  0
   11.4275  -16.4532   20.2475 O   0  0  0  0  0  0  0  0  0  0  0  0
   12.5967  -18.9864   16.3280 O   0  0  0  0  0  0  0  0  0  0  0  0
    9.2404  -17.0534   20.7285 N   0  0  0  0  0  0  0  0  0  0  0  0
    9.0465  -16.1504   21.8066 C   0  0  1  0  0  0  0  0  0  0  0  0
    7.6443  -15.5811   21.9547 C   0  0  0  0  0  0  0  0  0  0  0  0
    7.6118  -14.2683   22.6351 C   0  0  0  0  0  0  0  0  0  0  0  0
    7.9853  -13.0229   22.2141 C   0  0  0  0  0  0  0  0  0  0  0  0
    7.7512  -12.1450   23.2073 N   0  0  0  0  0  0  0  0  0  0  0  0
    7.2330  -12.7675   24.2761 C   0  0  0  0  0  0  0  0  0  0  0  0
    6.8155  -12.3650   25.5261 C   0  0  0  0  0  0  0  0  0  0  0  0
    6.3009  -13.2657   26.4531 C   0  0  0  0  0  0  0  0  0  0  0  0
    6.2077  -14.5805   26.1140 C   0  0  0  0  0  0  0  0  0  0  0  0
    6.6329  -14.9849   24.8436 C   0  0  0  0  0  0  0  0  0  0  0  0
    7.1360  -14.0964   23.9423 C   0  0  0  0  0  0  0  0  0  0  0  0
    9.5980  -16.5225   23.0955 C   0  0  0  0  0  0  0  0  0  0  0  0
    9.0136  -17.4324   23.7544 O   0  0  0  0  0  0  0  0  0  0  0  0
   10.6215  -15.2854   31.4845 O   0  0  0  0  0  0  0  0  0  0  0  0
   10.4819  -15.2403   30.1038 C   0  0  0  0  0  0  0  0  0  0  0  0
   10.0210  -16.3297   29.3896 C   0  0  0  0  0  0  0  0  0  0  0  0
    9.8763  -16.3016   28.0165 C   0  0  0  0  0  0  0  0  0  0  0  0
   10.1967  -15.1510   27.2929 C   0  0  0  0  0  0  0  0  0  0  0  0
   10.0457  -15.1338   25.8214 C   0  0  0  0  0  0  0  0  0  0  0  0
   11.0025  -16.0454   25.1260 C   0  0  2  0  0  0  0  0  0  0  0  0
   10.7510  -15.9515   23.6964 N   0  0  0  0  0  0  0  0  0  0  0  0
   11.0188  -17.4302   25.5980 C   0  0  0  0  0  0  0  0  0  0  0  0
    9.9826  -18.1312   25.4859 O   0  0  0  0  0  0  0  0  0  0  0  0
   10.6537  -14.0736   28.0080 C   0  0  0  0  0  0  0  0  0  0  0  0
   10.8041  -14.0912   29.3991 C   0  0  0  0  0  0  0  0  0  0  0  0
   12.1167  -18.0495   26.1755 O   0  0  0  0  0  0  0  0  0  0  0  0
  2  3  1  0
  2  1  1  6
  4  3  1  0
  5  4  2  0
  6  7  2  0
  6  2  1  0
  8  4  1  0
  9  6  1  0
 10  9  1  0
 10 11  1  1
 12 11  1  0
 13 12  2  0
 14 13  1  0
 15 14  1  0
 15 20  2  0
 16 15  1  0
 17 16  2  0
 17 18  1  0
 18 19  2  0
 19 20  1  0
 20 12  1  0
 21 30  1  0
 21 10  1  0
 22 21  2  0
 23 24  1  0
 24 34  2  0
 25 26  2  0
 25 24  1  0
 26 27  1  0
 27 28  1  0
 27 33  2  0
 29 28  1  1
 29 31  1  0
 29 30  1  0
 31 35  1  0
 32 31  2  0
 34 33  1  0
M  END
$$$$
