DWY.pdb
     RDKit          3D

 35 37  0  0  1  0  0  0  0  0999 V2000
    9.4137  -18.2835   18.5064 N   0  0  0  0  0  0  0  0  0  0  0  0
   10.6530  -18.1280   19.2011 C   0  0  1  0  0  0  0  0  0  0  0  0
   11.6929  -17.6202   18.2385 C   0  0  0  0  0  0  0  0  0  0  0  0
   12.1285  -18.7458   17.3823 C   0  0  0  0  0  0  0  0  0  0  0  0
   11.5060  -19.8323   17.3659 O   0  0  0  0  0  0  0  0  0  0  0  0
   10.4928  -17.2075   20.3689 C   0  0  0  0  0  0  0  0  0  0  0  0
   11.5221  -16.7685   20.9329 O   0  0  0  0  0  0  0  0  0  0  0  0
   13.2461  -18.5972   16.5828 O   0  0  0  0  0  0  0  0  0  0  0  0
    9.2073  -16.8408   20.8262 N   0  0  0  0  0  0  0  0  0  0  0  0
    8.9570  -15.9536   21.9058 C   0  0  1  0  0  0  0  0  0  0  0  0
    7.5660  -15.3414   21.9562 C   0  0  0  0  0  0  0  0  0  0  0  0
    7.5261  -14.0279   22.6347 C   0  0  0  0  0  0  0  0  0  0  0  0
    7.8696  -12.7773   22.2034 C   0  0  0  0  0  0  0  0  0  0  0  0
    7.6422  -11.9013   23.1998 N   0  0  0  0  0  0  0  0  0  0  0  0
    7.1575  -12.5299   24.2807 C   0  0  0  0  0  0  0  0  0  0  0  0
    6.7603  -12.1318   25.5386 C   0  0  0  0  0  0  0  0  0  0  0  0
    6.2808  -13.0388   26.4781 C   0  0  0  0  0  0  0  0  0  0  0  0
    6.2024  -14.3558   26.1435 C   0  0  0  0  0  0  0  0  0  0  0  0
    6.6069  -14.7559   24.8650 C   0  0  0  0  0  0  0  0  0  0  0  0
    7.0756  -13.8610   23.9515 C   0  0  0  0  0  0  0  0  0  0  0  0
    9.3927  -16.3693   23.2253 C   0  0  0  0  0  0  0  0  0  0  0  0
    9.2505  -17.5864   23.5448 O   0  0  0  0  0  0  0  0  0  0  0  0
   11.8494  -16.3784   31.7671 O   0  0  0  0  0  0  0  0  0  0  0  0
   11.4733  -16.0254   30.4781 C   0  0  0  0  0  0  0  0  0  0  0  0
   12.1803  -15.0858   29.7523 C   0  0  0  0  0  0  0  0  0  0  0  0
   11.8200  -14.7234   28.4695 C   0  0  0  0  0  0  0  0  0  0  0  0
   10.7099  -15.3050   27.8534 C   0  0  0  0  0  0  0  0  0  0  0  0
   10.3274  -14.9040   26.4818 C   0  0  0  0  0  0  0  0  0  0  0  0
   10.4038  -16.0286   25.5024 C   0  0  2  0  0  0  0  0  0  0  0  0
    9.9734  -15.5242   24.2077 N   0  0  0  0  0  0  0  0  0  0  0  0
    9.7001  -17.2532   25.8839 C   0  0  0  0  0  0  0  0  0  0  0  0
   10.3510  -18.2119   26.3685 O   0  0  0  0  0  0  0  0  0  0  0  0
   10.0126  -16.2366   28.5794 C   0  0  0  0  0  0  0  0  0  0  0  0
   10.3690  -16.6112   29.8797 C   0  0  0  0  0  0  0  0  0  0  0  0
    8.3337  -17.4471   25.7504 O   0  0  0  0  0  0  0  0  0  0  0  0
  2  3  1  0
  2  1  1  6
  4  3  1  0
  5  4  2  0
  6  7  2  0
  6  2  1  0
  8  4  1  0
  9  6  1  0
 10  9  1  0
 10 11  1  1
 12 11  1  0
 13 12  2  0
 14 13  1  0
 15 14  1  0
 15 20  2  0
 16 15  1  0
 17 16  2  0
 17 18  1  0
 18 19  2  0
 19 20  1  0
 20 12  1  0
 21 30  1  0
 21 10  1  0
 22 21  2  0
 23 24  1  0
 24 34  2  0
 25 26  2  0
 25 24  1  0
 26 27  1  0
 27 28  1  0
 27 33  2  0
 29 28  1  1
 29 31  1  0
 29 30  1  0
 31 35  1  0
 32 31  2  0
 34 33  1  0
M  END
$$$$
