DWY.pdb
     RDKit          3D

 35 37  0  0  1  0  0  0  0  0999 V2000
   11.0782  -16.5062   18.5222 N   0  0  0  0  0  0  0  0  0  0  0  0
   10.0598  -17.1557   19.2860 C   0  0  1  0  0  0  0  0  0  0  0  0
   10.3824  -18.6228   19.3834 C   0  0  0  0  0  0  0  0  0  0  0  0
   10.5301  -19.1623   18.0135 C   0  0  0  0  0  0  0  0  0  0  0  0
    9.9815  -18.6106   17.0321 O   0  0  0  0  0  0  0  0  0  0  0  0
    9.9351  -16.5321   20.6397 C   0  0  0  0  0  0  0  0  0  0  0  0
   10.9790  -16.1807   21.2373 O   0  0  0  0  0  0  0  0  0  0  0  0
   11.2891  -20.2993   17.8101 O   0  0  0  0  0  0  0  0  0  0  0  0
    8.6663  -16.3433   21.2317 N   0  0  0  0  0  0  0  0  0  0  0  0
    8.4546  -15.9402   22.5763 C   0  0  1  0  0  0  0  0  0  0  0  0
    7.0614  -15.4285   22.9069 C   0  0  0  0  0  0  0  0  0  0  0  0
    6.8928  -15.0600   24.3293 C   0  0  0  0  0  0  0  0  0  0  0  0
    6.4944  -15.7933   25.4116 C   0  0  0  0  0  0  0  0  0  0  0  0
    6.5101  -14.9993   26.4985 N   0  0  0  0  0  0  0  0  0  0  0  0
    6.9072  -13.7604   26.1732 C   0  0  0  0  0  0  0  0  0  0  0  0
    7.1009  -12.5884   26.8714 C   0  0  0  0  0  0  0  0  0  0  0  0
    7.5366  -11.4249   26.2456 C   0  0  0  0  0  0  0  0  0  0  0  0
    7.7780  -11.4468   24.9063 C   0  0  0  0  0  0  0  0  0  0  0  0
    7.5800  -12.6391   24.2010 C   0  0  0  0  0  0  0  0  0  0  0  0
    7.1527  -13.7736   24.8217 C   0  0  0  0  0  0  0  0  0  0  0  0
    8.9509  -16.8156   23.6209 C   0  0  0  0  0  0  0  0  0  0  0  0
    8.6547  -18.0453   23.5598 O   0  0  0  0  0  0  0  0  0  0  0  0
   11.5912  -23.6233   26.5503 O   0  0  0  0  0  0  0  0  0  0  0  0
   11.5330  -22.2953   26.1493 C   0  0  0  0  0  0  0  0  0  0  0  0
   10.7704  -21.9018   25.0662 C   0  0  0  0  0  0  0  0  0  0  0  0
   10.7014  -20.5856   24.6543 C   0  0  0  0  0  0  0  0  0  0  0  0
   11.4126  -19.5923   25.3309 C   0  0  0  0  0  0  0  0  0  0  0  0
   11.3383  -18.1864   24.8767 C   0  0  0  0  0  0  0  0  0  0  0  0
   10.3406  -17.3787   25.6396 C   0  0  2  0  0  0  0  0  0  0  0  0
    9.7510  -16.4148   24.7235 N   0  0  0  0  0  0  0  0  0  0  0  0
   10.8344  -16.7507   26.8653 C   0  0  0  0  0  0  0  0  0  0  0  0
   11.3523  -17.4663   27.7583 O   0  0  0  0  0  0  0  0  0  0  0  0
   12.1676  -19.9898   26.4047 C   0  0  0  0  0  0  0  0  0  0  0  0
   12.2445  -21.3205   26.8307 C   0  0  0  0  0  0  0  0  0  0  0  0
   10.7756  -15.3907   27.1290 O   0  0  0  0  0  0  0  0  0  0  0  0
  2  3  1  0
  2  1  1  6
  4  3  1  0
  5  4  2  0
  6  7  2  0
  6  2  1  0
  8  4  1  0
  9  6  1  0
 10  9  1  0
 10 11  1  1
 12 11  1  0
 13 12  2  0
 14 13  1  0
 15 14  1  0
 15 20  2  0
 16 15  1  0
 17 16  2  0
 17 18  1  0
 18 19  2  0
 19 20  1  0
 20 12  1  0
 21 30  1  0
 21 10  1  0
 22 21  2  0
 23 24  1  0
 24 34  2  0
 25 26  2  0
 25 24  1  0
 26 27  1  0
 27 28  1  0
 27 33  2  0
 29 28  1  6
 29 31  1  0
 29 30  1  0
 31 35  1  0
 32 31  2  0
 34 33  1  0
M  END
$$$$
