QYC.pdb
     RDKit          3D

 28 28  0  0  1  0  0  0  0  0999 V2000
    8.5142  -13.1634   16.8202 N   0  0  0  0  0  0  0  0  0  0  0  0
    8.7187  -14.4465   16.2850 C   0  0  0  0  0  0  0  0  0  0  0  0
    8.3084  -14.7046   15.1395 O   0  0  0  0  0  0  0  0  0  0  0  0
    9.4155  -15.4610   17.0840 C   0  0  0  0  0  0  0  0  0  0  0  0
    9.7614  -15.1031   18.4753 C   0  0  0  0  0  0  0  0  0  0  0  0
    9.5684  -16.1660   19.5207 C   0  0  2  0  0  0  0  0  0  0  0  0
    8.6115  -17.1600   19.2628 N   0  0  0  0  0  0  0  0  0  0  0  0
    9.5616  -15.5388   20.8561 C   0  0  0  0  0  0  0  0  0  0  0  0
   10.5163  -14.7664   21.1297 O   0  0  0  0  0  0  0  0  0  0  0  0
    6.8452  -11.7700   28.3074 O   0  0  0  0  0  0  0  0  0  0  0  0
    6.8976  -12.4706   27.1070 C   0  0  0  0  0  0  0  0  0  0  0  0
    7.3584  -11.8251   25.9801 C   0  0  0  0  0  0  0  0  0  0  0  0
    7.4308  -12.4723   24.7659 C   0  0  0  0  0  0  0  0  0  0  0  0
    7.0298  -13.8062   24.6762 C   0  0  0  0  0  0  0  0  0  0  0  0
    7.0960  -14.5457   23.3911 C   0  0  0  0  0  0  0  0  0  0  0  0
    8.4630  -15.0527   23.0660 C   0  0  2  0  0  0  0  0  0  0  0  0
    8.5410  -15.7772   21.8094 N   0  0  0  0  0  0  0  0  0  0  0  0
    9.0254  -15.8630   24.1815 C   0  0  0  0  0  0  0  0  0  0  0  0
    8.7002  -17.0964   24.2215 O   0  0  0  0  0  0  0  0  0  0  0  0
    6.5706  -14.4339   25.8202 C   0  0  0  0  0  0  0  0  0  0  0  0
    6.4928  -13.8001   27.0401 C   0  0  0  0  0  0  0  0  0  0  0  0
    9.8855  -15.2942   25.1597 N   0  0  0  0  0  0  0  0  0  0  0  0
   10.4160  -16.1129   26.2065 C   0  0  1  0  0  0  0  0  0  0  0  0
   11.5748  -15.4580   26.9291 C   0  0  0  0  0  0  0  0  0  0  0  0
   12.1531  -16.5352   28.2684 S   0  0  0  0  0  0  0  0  0  0  0  0
    9.3475  -16.4908   27.1713 C   0  0  0  0  0  0  0  0  0  0  0  0
    9.2197  -17.8310   27.5306 O   0  0  0  0  0  0  0  0  0  0  0  0
    8.5636  -15.6209   27.6630 O   0  0  0  0  0  0  0  0  0  0  0  0
  1  2  1  0
  2  4  1  0
  2  3  2  0
  4  5  1  0
  5  6  1  0
  6  7  1  6
  6  8  1  0
  8  9  2  0
 10 11  1  0
 11 21  2  0
 11 12  1  0
 12 13  2  0
 13 14  1  0
 14 15  1  0
 16 15  1  1
 17  8  1  0
 17 16  1  0
 18 22  1  0
 18 16  1  0
 19 18  2  0
 20 14  2  0
 21 20  1  0
 23 24  1  1
 23 26  1  0
 23 22  1  0
 24 25  1  0
 26 27  1  0
 28 26  2  0
M  END
$$$$
