QYC.pdb
     RDKit          3D

 28 28  0  0  1  0  0  0  0  0999 V2000
    8.7261  -13.2459   16.4222 N   0  0  0  0  0  0  0  0  0  0  0  0
    8.3852  -14.5885   16.1854 C   0  0  0  0  0  0  0  0  0  0  0  0
    8.1277  -14.9595   15.0265 O   0  0  0  0  0  0  0  0  0  0  0  0
    8.3411  -15.5324   17.3080 C   0  0  0  0  0  0  0  0  0  0  0  0
    8.6649  -15.0018   18.6485 C   0  0  0  0  0  0  0  0  0  0  0  0
    9.2306  -15.9722   19.6475 C   0  0  2  0  0  0  0  0  0  0  0  0
    8.7654  -17.2956   19.5979 N   0  0  0  0  0  0  0  0  0  0  0  0
    9.3044  -15.3214   20.9695 C   0  0  0  0  0  0  0  0  0  0  0  0
   10.0353  -14.3017   21.0646 O   0  0  0  0  0  0  0  0  0  0  0  0
    7.0182  -11.3617   28.3411 O   0  0  0  0  0  0  0  0  0  0  0  0
    7.0428  -12.1556   27.1993 C   0  0  0  0  0  0  0  0  0  0  0  0
    7.6450  -11.6647   26.0611 C   0  0  0  0  0  0  0  0  0  0  0  0
    7.6971  -12.4093   24.9030 C   0  0  0  0  0  0  0  0  0  0  0  0
    7.1295  -13.6842   24.8829 C   0  0  0  0  0  0  0  0  0  0  0  0
    7.1672  -14.5250   23.6604 C   0  0  0  0  0  0  0  0  0  0  0  0
    8.5267  -15.0590   23.3472 C   0  0  2  0  0  0  0  0  0  0  0  0
    8.5972  -15.8003   22.0999 N   0  0  0  0  0  0  0  0  0  0  0  0
    9.0709  -15.8648   24.4748 C   0  0  0  0  0  0  0  0  0  0  0  0
    8.5294  -17.0006   24.6883 O   0  0  0  0  0  0  0  0  0  0  0  0
    6.5304  -14.1565   26.0368 C   0  0  0  0  0  0  0  0  0  0  0  0
    6.4708  -13.4239   27.2012 C   0  0  0  0  0  0  0  0  0  0  0  0
   10.1442  -15.3957   25.2799 N   0  0  0  0  0  0  0  0  0  0  0  0
   10.5247  -16.1192   26.4543 C   0  0  1  0  0  0  0  0  0  0  0  0
    9.9732  -15.5034   27.7234 C   0  0  0  0  0  0  0  0  0  0  0  0
   10.8410  -13.9521   28.0827 S   0  0  0  0  0  0  0  0  0  0  0  0
   10.1166  -17.5465   26.3481 C   0  0  0  0  0  0  0  0  0  0  0  0
   10.6063  -18.4500   27.2891 O   0  0  0  0  0  0  0  0  0  0  0  0
    9.3401  -17.9447   25.4253 O   0  0  0  0  0  0  0  0  0  0  0  0
  1  2  1  0
  2  4  1  0
  2  3  2  0
  4  5  1  0
  5  6  1  0
  6  7  1  1
  6  8  1  0
  8  9  2  0
 10 11  1  0
 11 21  2  0
 11 12  1  0
 12 13  2  0
 13 14  1  0
 14 15  1  0
 16 15  1  1
 17  8  1  0
 17 16  1  0
 18 22  1  0
 18 16  1  0
 19 18  2  0
 20 14  2  0
 21 20  1  0
 23 24  1  1
 23 26  1  0
 23 22  1  0
 24 25  1  0
 26 27  1  0
 28 26  2  0
M  END
$$$$
