QYC.pdb
     RDKit          3D

 28 28  0  0  1  0  0  0  0  0999 V2000
   12.1460  -16.6609   16.9863 N   0  0  0  0  0  0  0  0  0  0  0  0
   11.3854  -17.8383   17.0854 C   0  0  0  0  0  0  0  0  0  0  0  0
   11.2308  -18.5538   16.0797 O   0  0  0  0  0  0  0  0  0  0  0  0
   10.7879  -18.2073   18.3738 C   0  0  0  0  0  0  0  0  0  0  0  0
   11.0780  -17.3309   19.5275 C   0  0  0  0  0  0  0  0  0  0  0  0
   10.6540  -17.8248   20.8825 C   0  0  2  0  0  0  0  0  0  0  0  0
    9.6300  -18.7837   20.9295 N   0  0  0  0  0  0  0  0  0  0  0  0
   10.5646  -16.6814   21.8106 C   0  0  0  0  0  0  0  0  0  0  0  0
   11.5386  -15.8851   21.8322 O   0  0  0  0  0  0  0  0  0  0  0  0
    7.3204  -13.1309   17.7488 O   0  0  0  0  0  0  0  0  0  0  0  0
    7.5040  -13.4548   19.0889 C   0  0  0  0  0  0  0  0  0  0  0  0
    6.8419  -14.5474   19.6055 C   0  0  0  0  0  0  0  0  0  0  0  0
    6.9882  -14.9124   20.9260 C   0  0  0  0  0  0  0  0  0  0  0  0
    7.8225  -14.1611   21.7553 C   0  0  0  0  0  0  0  0  0  0  0  0
    8.0157  -14.5201   23.1825 C   0  0  0  0  0  0  0  0  0  0  0  0
    9.2893  -15.2556   23.4439 C   0  0  2  0  0  0  0  0  0  0  0  0
    9.4465  -16.4640   22.6532 N   0  0  0  0  0  0  0  0  0  0  0  0
    9.4667  -15.5435   24.8939 C   0  0  0  0  0  0  0  0  0  0  0  0
    8.5670  -16.2520   25.4574 O   0  0  0  0  0  0  0  0  0  0  0  0
    8.4769  -13.0686   21.2154 C   0  0  0  0  0  0  0  0  0  0  0  0
    8.3405  -12.6921   19.8980 C   0  0  0  0  0  0  0  0  0  0  0  0
   10.5850  -15.0545   25.6224 N   0  0  0  0  0  0  0  0  0  0  0  0
   10.4796  -14.8404   27.0333 C   0  0  1  0  0  0  0  0  0  0  0  0
    9.4120  -13.8276   27.3917 C   0  0  0  0  0  0  0  0  0  0  0  0
    9.4076  -13.5453   29.1830 S   0  0  0  0  0  0  0  0  0  0  0  0
   10.2374  -16.1256   27.7437 C   0  0  0  0  0  0  0  0  0  0  0  0
   11.1043  -16.4909   28.7717 O   0  0  0  0  0  0  0  0  0  0  0  0
    9.2661  -16.8813   27.4296 O   0  0  0  0  0  0  0  0  0  0  0  0
  1  2  1  0
  2  4  1  0
  2  3  2  0
  4  5  1  0
  5  6  1  0
  6  7  1  6
  6  8  1  0
  8  9  2  0
 10 11  1  0
 11 21  2  0
 11 12  1  0
 12 13  2  0
 13 14  1  0
 14 15  1  0
 16 15  1  1
 17  8  1  0
 17 16  1  0
 18 22  1  0
 18 16  1  0
 19 18  2  0
 20 14  2  0
 21 20  1  0
 23 24  1  6
 23 26  1  0
 23 22  1  0
 24 25  1  0
 26 27  1  0
 28 26  2  0
M  END
$$$$
