QYC.pdb
     RDKit          3D

 28 28  0  0  1  0  0  0  0  0999 V2000
   16.3773  -20.7465   30.3090 N   0  0  0  0  0  0  0  0  0  0  0  0
   15.0721  -21.2225   30.0976 C   0  0  0  0  0  0  0  0  0  0  0  0
   14.6644  -21.3957   28.9353 O   0  0  0  0  0  0  0  0  0  0  0  0
   14.2115  -21.5107   31.2506 C   0  0  0  0  0  0  0  0  0  0  0  0
   14.7990  -21.3253   32.5937 C   0  0  0  0  0  0  0  0  0  0  0  0
   15.5393  -22.4943   33.1812 C   0  0  2  0  0  0  0  0  0  0  0  0
   14.8426  -23.7070   33.3000 N   0  0  0  0  0  0  0  0  0  0  0  0
   16.3232  -22.0381   34.3449 C   0  0  0  0  0  0  0  0  0  0  0  0
   15.6775  -21.6608   35.3567 O   0  0  0  0  0  0  0  0  0  0  0  0
   17.5835  -27.2423   38.1383 O   0  0  0  0  0  0  0  0  0  0  0  0
   18.0700  -26.0644   37.5810 C   0  0  0  0  0  0  0  0  0  0  0  0
   18.4160  -25.0261   38.4184 C   0  0  0  0  0  0  0  0  0  0  0  0
   18.9028  -23.8379   37.9189 C   0  0  0  0  0  0  0  0  0  0  0  0
   19.0479  -23.6836   36.5393 C   0  0  0  0  0  0  0  0  0  0  0  0
   19.5741  -22.4242   35.9562 C   0  0  0  0  0  0  0  0  0  0  0  0
   18.5047  -21.4988   35.4750 C   0  0  2  0  0  0  0  0  0  0  0  0
   17.7398  -22.0130   34.3523 N   0  0  0  0  0  0  0  0  0  0  0  0
   19.0479  -20.1460   35.1719 C   0  0  0  0  0  0  0  0  0  0  0  0
   18.7791  -19.6588   34.0233 O   0  0  0  0  0  0  0  0  0  0  0  0
   18.6943  -24.7389   35.7180 C   0  0  0  0  0  0  0  0  0  0  0  0
   18.2067  -25.9319   36.2027 C   0  0  0  0  0  0  0  0  0  0  0  0
   19.8304  -19.4255   36.1146 N   0  0  0  0  0  0  0  0  0  0  0  0
   20.3843  -18.1548   35.7599 C   0  0  1  0  0  0  0  0  0  0  0  0
   19.3238  -17.1387   35.3901 C   0  0  0  0  0  0  0  0  0  0  0  0
   20.1081  -15.6413   34.7333 S   0  0  0  0  0  0  0  0  0  0  0  0
   21.2464  -17.6325   36.8550 C   0  0  0  0  0  0  0  0  0  0  0  0
   21.1002  -18.1720   38.1313 O   0  0  0  0  0  0  0  0  0  0  0  0
   22.0999  -16.7159   36.6438 O   0  0  0  0  0  0  0  0  0  0  0  0
  1  2  1  0
  2  4  1  0
  2  3  2  0
  4  5  1  0
  5  6  1  0
  6  7  1  1
  6  8  1  0
  8  9  2  0
 10 11  1  0
 11 21  2  0
 11 12  1  0
 12 13  2  0
 13 14  1  0
 14 15  1  0
 16 15  1  6
 17  8  1  0
 17 16  1  0
 18 22  1  0
 18 16  1  0
 19 18  2  0
 20 14  2  0
 21 20  1  0
 23 24  1  1
 23 26  1  0
 23 22  1  0
 24 25  1  0
 26 27  1  0
 28 26  2  0
M  END
$$$$
