QYC.pdb
     RDKit          3D

 28 28  0  0  1  0  0  0  0  0999 V2000
   10.0178  -16.2549   16.6441 N   0  0  0  0  0  0  0  0  0  0  0  0
   10.0254  -17.6291   16.9376 C   0  0  0  0  0  0  0  0  0  0  0  0
   10.1071  -18.4530   16.0094 O   0  0  0  0  0  0  0  0  0  0  0  0
    9.9398  -18.0710   18.3343 C   0  0  0  0  0  0  0  0  0  0  0  0
    9.8138  -17.0218   19.3671 C   0  0  0  0  0  0  0  0  0  0  0  0
    9.6705  -17.4809   20.7913 C   0  0  2  0  0  0  0  0  0  0  0  0
    8.7477  -18.5064   21.0500 N   0  0  0  0  0  0  0  0  0  0  0  0
    9.6547  -16.3048   21.6820 C   0  0  0  0  0  0  0  0  0  0  0  0
    9.8278  -15.1796   21.1462 O   0  0  0  0  0  0  0  0  0  0  0  0
    7.9830  -12.3116   18.2840 O   0  0  0  0  0  0  0  0  0  0  0  0
    7.8348  -12.9916   19.4882 C   0  0  0  0  0  0  0  0  0  0  0  0
    8.4202  -12.4710   20.6219 C   0  0  0  0  0  0  0  0  0  0  0  0
    8.3046  -13.1041   21.8402 C   0  0  0  0  0  0  0  0  0  0  0  0
    7.5811  -14.2946   21.9270 C   0  0  0  0  0  0  0  0  0  0  0  0
    7.4243  -15.0083   23.2189 C   0  0  0  0  0  0  0  0  0  0  0  0
    8.7230  -15.4080   23.8394 C   0  0  2  0  0  0  0  0  0  0  0  0
    9.4575  -16.4059   23.0814 N   0  0  0  0  0  0  0  0  0  0  0  0
    8.5435  -15.8412   25.2526 C   0  0  0  0  0  0  0  0  0  0  0  0
    7.8719  -15.0677   26.0138 O   0  0  0  0  0  0  0  0  0  0  0  0
    7.0022  -14.7986   20.7762 C   0  0  0  0  0  0  0  0  0  0  0  0
    7.1092  -14.1770   19.5522 C   0  0  0  0  0  0  0  0  0  0  0  0
    9.0927  -17.0593   25.7371 N   0  0  0  0  0  0  0  0  0  0  0  0
    8.8807  -17.4463   27.0983 C   0  0  1  0  0  0  0  0  0  0  0  0
    7.5241  -18.0823   27.3197 C   0  0  0  0  0  0  0  0  0  0  0  0
    7.0640  -19.0715   25.8711 S   0  0  0  0  0  0  0  0  0  0  0  0
    9.9640  -18.3558   27.5614 C   0  0  0  0  0  0  0  0  0  0  0  0
    9.9328  -18.8110   28.8780 O   0  0  0  0  0  0  0  0  0  0  0  0
   10.9014  -18.7164   26.7839 O   0  0  0  0  0  0  0  0  0  0  0  0
  1  2  1  0
  2  4  1  0
  2  3  2  0
  4  5  1  0
  5  6  1  0
  6  7  1  6
  6  8  1  0
  8  9  2  0
 10 11  1  0
 11 21  2  0
 11 12  1  0
 12 13  2  0
 13 14  1  0
 14 15  1  0
 16 15  1  6
 17  8  1  0
 17 16  1  0
 18 22  1  0
 18 16  1  0
 19 18  2  0
 20 14  2  0
 21 20  1  0
 23 24  1  6
 23 26  1  0
 23 22  1  0
 24 25  1  0
 26 27  1  0
 28 26  2  0
M  END
$$$$
