QYC.pdb
     RDKit          3D

 28 28  0  0  1  0  0  0  0  0999 V2000
    9.0155  -21.5294   20.5427 N   0  0  0  0  0  0  0  0  0  0  0  0
    9.1651  -21.1620   19.1946 C   0  0  0  0  0  0  0  0  0  0  0  0
    9.1621  -22.0425   18.3161 O   0  0  0  0  0  0  0  0  0  0  0  0
    9.3196  -19.7456   18.8437 C   0  0  0  0  0  0  0  0  0  0  0  0
    9.2768  -18.7680   19.9507 C   0  0  0  0  0  0  0  0  0  0  0  0
    9.3749  -17.3142   19.5807 C   0  0  2  0  0  0  0  0  0  0  0  0
   10.2636  -16.9681   18.5509 N   0  0  0  0  0  0  0  0  0  0  0  0
    9.4016  -16.5002   20.8109 C   0  0  0  0  0  0  0  0  0  0  0  0
   10.5288  -16.2728   21.3215 O   0  0  0  0  0  0  0  0  0  0  0  0
    7.0028  -11.9463   28.0008 O   0  0  0  0  0  0  0  0  0  0  0  0
    7.0264  -12.5422   26.7443 C   0  0  0  0  0  0  0  0  0  0  0  0
    6.3342  -13.7184   26.5533 C   0  0  0  0  0  0  0  0  0  0  0  0
    6.3243  -14.3504   25.3290 C   0  0  0  0  0  0  0  0  0  0  0  0
    7.0286  -13.7885   24.2630 C   0  0  0  0  0  0  0  0  0  0  0  0
    7.0415  -14.4301   22.9247 C   0  0  0  0  0  0  0  0  0  0  0  0
    8.2501  -15.2734   22.6806 C   0  0  2  0  0  0  0  0  0  0  0  0
    8.2278  -15.9851   21.4145 N   0  0  0  0  0  0  0  0  0  0  0  0
    8.5013  -16.2093   23.8110 C   0  0  0  0  0  0  0  0  0  0  0  0
    7.7242  -17.2167   23.9116 O   0  0  0  0  0  0  0  0  0  0  0  0
    7.7163  -12.6076   24.4778 C   0  0  0  0  0  0  0  0  0  0  0  0
    7.7351  -11.9649   25.6953 C   0  0  0  0  0  0  0  0  0  0  0  0
    9.5567  -15.9956   24.7388 N   0  0  0  0  0  0  0  0  0  0  0  0
    9.8843  -17.0101   25.6933 C   0  0  1  0  0  0  0  0  0  0  0  0
   11.3205  -17.4772   25.5787 C   0  0  0  0  0  0  0  0  0  0  0  0
   11.6692  -17.9832   23.8726 S   0  0  0  0  0  0  0  0  0  0  0  0
    9.5977  -16.5427   27.0770 C   0  0  0  0  0  0  0  0  0  0  0  0
    9.8675  -17.4034   28.1390 O   0  0  0  0  0  0  0  0  0  0  0  0
    9.1179  -15.3876   27.2980 O   0  0  0  0  0  0  0  0  0  0  0  0
  1  2  1  0
  2  4  1  0
  2  3  2  0
  4  5  1  0
  5  6  1  0
  6  7  1  1
  6  8  1  0
  8  9  2  0
 10 11  1  0
 11 21  2  0
 11 12  1  0
 12 13  2  0
 13 14  1  0
 14 15  1  0
 16 15  1  1
 17  8  1  0
 17 16  1  0
 18 22  1  0
 18 16  1  0
 19 18  2  0
 20 14  2  0
 21 20  1  0
 23 24  1  1
 23 26  1  0
 23 22  1  0
 24 25  1  0
 26 27  1  0
 28 26  2  0
M  END
$$$$
