QYC.pdb
     RDKit          3D

 28 28  0  0  1  0  0  0  0  0999 V2000
    8.3069  -13.0257   17.4093 N   0  0  0  0  0  0  0  0  0  0  0  0
    8.4938  -14.3624   17.0180 C   0  0  0  0  0  0  0  0  0  0  0  0
    8.2032  -14.7073   15.8588 O   0  0  0  0  0  0  0  0  0  0  0  0
    9.0316  -15.3298   17.9814 C   0  0  0  0  0  0  0  0  0  0  0  0
    9.3430  -14.8300   19.3366 C   0  0  0  0  0  0  0  0  0  0  0  0
    9.8095  -15.8418   20.3457 C   0  0  2  0  0  0  0  0  0  0  0  0
    9.3962  -17.1712   20.1667 N   0  0  0  0  0  0  0  0  0  0  0  0
    9.6966  -15.2660   21.6994 C   0  0  0  0  0  0  0  0  0  0  0  0
   10.2232  -14.1387   21.8869 O   0  0  0  0  0  0  0  0  0  0  0  0
    6.0219  -11.0561   27.9740 O   0  0  0  0  0  0  0  0  0  0  0  0
    6.3402  -12.0718   27.0787 C   0  0  0  0  0  0  0  0  0  0  0  0
    6.6502  -13.3203   27.5726 C   0  0  0  0  0  0  0  0  0  0  0  0
    6.9728  -14.3616   26.7299 C   0  0  0  0  0  0  0  0  0  0  0  0
    6.9855  -14.1473   25.3508 C   0  0  0  0  0  0  0  0  0  0  0  0
    7.3206  -15.2404   24.4044 C   0  0  0  0  0  0  0  0  0  0  0  0
    8.7677  -15.2867   24.0369 C   0  0  2  0  0  0  0  0  0  0  0  0
    9.0329  -15.9289   22.7612 N   0  0  0  0  0  0  0  0  0  0  0  0
    9.5875  -15.8979   25.1192 C   0  0  0  0  0  0  0  0  0  0  0  0
    9.8705  -17.1367   25.0010 O   0  0  0  0  0  0  0  0  0  0  0  0
    6.6711  -12.8860   24.8776 C   0  0  0  0  0  0  0  0  0  0  0  0
    6.3468  -11.8362   25.7074 C   0  0  0  0  0  0  0  0  0  0  0  0
   10.0372  -15.1410   26.2351 N   0  0  0  0  0  0  0  0  0  0  0  0
   10.7518  -15.7861   27.2937 C   0  0  1  0  0  0  0  0  0  0  0  0
   10.9103  -14.9027   28.5138 C   0  0  0  0  0  0  0  0  0  0  0  0
   11.7866  -15.8067   29.8189 S   0  0  0  0  0  0  0  0  0  0  0  0
   10.0983  -17.0713   27.6629 C   0  0  0  0  0  0  0  0  0  0  0  0
   10.8971  -18.2015   27.8237 O   0  0  0  0  0  0  0  0  0  0  0  0
    8.8417  -17.1492   27.8303 O   0  0  0  0  0  0  0  0  0  0  0  0
  1  2  1  0
  2  4  1  0
  2  3  2  0
  4  5  1  0
  5  6  1  0
  6  7  1  1
  6  8  1  0
  8  9  2  0
 10 11  1  0
 11 21  2  0
 11 12  1  0
 12 13  2  0
 13 14  1  0
 14 15  1  0
 16 15  1  1
 17  8  1  0
 17 16  1  0
 18 22  1  0
 18 16  1  0
 19 18  2  0
 20 14  2  0
 21 20  1  0
 23 24  1  1
 23 26  1  0
 23 22  1  0
 24 25  1  0
 26 27  1  0
 28 26  2  0
M  END
$$$$
