QYC.pdb
     RDKit          3D

 28 28  0  0  1  0  0  0  0  0999 V2000
   12.6840  -22.2668   21.0498 N   0  0  0  0  0  0  0  0  0  0  0  0
   12.1670  -21.1812   21.7770 C   0  0  0  0  0  0  0  0  0  0  0  0
   12.4297  -21.0748   22.9881 O   0  0  0  0  0  0  0  0  0  0  0  0
   11.3278  -20.1884   21.0962 C   0  0  0  0  0  0  0  0  0  0  0  0
   10.7573  -19.1059   21.9244 C   0  0  0  0  0  0  0  0  0  0  0  0
    9.8408  -18.1325   21.2371 C   0  0  2  0  0  0  0  0  0  0  0  0
    9.8463  -18.1203   19.8335 N   0  0  0  0  0  0  0  0  0  0  0  0
    9.9010  -16.8332   21.9335 C   0  0  0  0  0  0  0  0  0  0  0  0
   10.9331  -16.1361   21.7547 O   0  0  0  0  0  0  0  0  0  0  0  0
    7.3180  -13.0210   17.5912 O   0  0  0  0  0  0  0  0  0  0  0  0
    7.4160  -13.3203   18.9460 C   0  0  0  0  0  0  0  0  0  0  0  0
    8.3160  -12.6186   19.7184 C   0  0  0  0  0  0  0  0  0  0  0  0
    8.4534  -12.8749   21.0652 C   0  0  0  0  0  0  0  0  0  0  0  0
    7.6662  -13.8637   21.6575 C   0  0  0  0  0  0  0  0  0  0  0  0
    7.7749  -14.1702   23.1056 C   0  0  0  0  0  0  0  0  0  0  0  0
    8.9161  -15.0748   23.4384 C   0  0  2  0  0  0  0  0  0  0  0  0
    8.8605  -16.3650   22.7734 N   0  0  0  0  0  0  0  0  0  0  0  0
    9.0698  -15.2426   24.9099 C   0  0  0  0  0  0  0  0  0  0  0  0
    8.1454  -15.8772   25.5194 O   0  0  0  0  0  0  0  0  0  0  0  0
    6.7697  -14.5554   20.8629 C   0  0  0  0  0  0  0  0  0  0  0  0
    6.6215  -14.3101   19.5161 C   0  0  0  0  0  0  0  0  0  0  0  0
   10.1926  -14.7220   25.6090 N   0  0  0  0  0  0  0  0  0  0  0  0
   10.2145  -14.7415   27.0396 C   0  0  1  0  0  0  0  0  0  0  0  0
    8.9541  -14.1653   27.6504 C   0  0  0  0  0  0  0  0  0  0  0  0
    9.3343  -12.6019   28.4870 S   0  0  0  0  0  0  0  0  0  0  0  0
   10.4534  -16.1215   27.5433 C   0  0  0  0  0  0  0  0  0  0  0  0
   10.4819  -17.1690   26.6250 O   0  0  0  0  0  0  0  0  0  0  0  0
   10.6286  -16.3522   28.7799 O   0  0  0  0  0  0  0  0  0  0  0  0
  1  2  1  0
  2  4  1  0
  2  3  2  0
  4  5  1  0
  5  6  1  0
  6  7  1  6
  6  8  1  0
  8  9  2  0
 10 11  1  0
 11 21  2  0
 11 12  1  0
 12 13  2  0
 13 14  1  0
 14 15  1  0
 16 15  1  1
 17  8  1  0
 17 16  1  0
 18 22  1  0
 18 16  1  0
 19 18  2  0
 20 14  2  0
 21 20  1  0
 23 24  1  1
 23 26  1  0
 23 22  1  0
 24 25  1  0
 26 27  1  0
 28 26  2  0
M  END
$$$$
