QYC.pdb
     RDKit          3D

 28 28  0  0  1  0  0  0  0  0999 V2000
    6.6534  -20.3705   20.5961 N   0  0  0  0  0  0  0  0  0  0  0  0
    7.2982  -20.3609   19.3475 C   0  0  0  0  0  0  0  0  0  0  0  0
    7.3983  -21.4193   18.7020 O   0  0  0  0  0  0  0  0  0  0  0  0
    7.8407  -19.1023   18.8232 C   0  0  0  0  0  0  0  0  0  0  0  0
    7.5784  -17.8768   19.6060 C   0  0  0  0  0  0  0  0  0  0  0  0
    8.5766  -16.7600   19.4787 C   0  0  2  0  0  0  0  0  0  0  0  0
    9.7057  -16.9905   18.6774 N   0  0  0  0  0  0  0  0  0  0  0  0
    8.7905  -16.1459   20.8031 C   0  0  0  0  0  0  0  0  0  0  0  0
    9.8959  -16.3648   21.3628 O   0  0  0  0  0  0  0  0  0  0  0  0
    7.5030  -11.9778   28.4903 O   0  0  0  0  0  0  0  0  0  0  0  0
    7.3603  -12.4267   27.1816 C   0  0  0  0  0  0  0  0  0  0  0  0
    8.2195  -11.9469   26.2169 C   0  0  0  0  0  0  0  0  0  0  0  0
    8.1220  -12.3583   24.9055 C   0  0  0  0  0  0  0  0  0  0  0  0
    7.1348  -13.2780   24.5483 C   0  0  0  0  0  0  0  0  0  0  0  0
    6.9960  -13.7547   23.1496 C   0  0  0  0  0  0  0  0  0  0  0  0
    8.0112  -14.7817   22.7674 C   0  0  2  0  0  0  0  0  0  0  0  0
    7.8139  -15.3426   21.4421 N   0  0  0  0  0  0  0  0  0  0  0  0
    8.1109  -15.8591   23.7901 C   0  0  0  0  0  0  0  0  0  0  0  0
    7.1658  -16.7162   23.8214 O   0  0  0  0  0  0  0  0  0  0  0  0
    6.2835  -13.7460   25.5331 C   0  0  0  0  0  0  0  0  0  0  0  0
    6.3690  -13.3440   26.8473 C   0  0  0  0  0  0  0  0  0  0  0  0
    9.2063  -15.9347   24.6928 N   0  0  0  0  0  0  0  0  0  0  0  0
    9.3002  -17.0280   25.6112 C   0  0  1  0  0  0  0  0  0  0  0  0
   10.1568  -18.1606   25.0846 C   0  0  0  0  0  0  0  0  0  0  0  0
   11.8060  -17.5384   24.6583 S   0  0  0  0  0  0  0  0  0  0  0  0
    9.8055  -16.5636   26.9319 C   0  0  0  0  0  0  0  0  0  0  0  0
    9.8271  -17.4684   27.9913 O   0  0  0  0  0  0  0  0  0  0  0  0
   10.2107  -15.3720   27.1023 O   0  0  0  0  0  0  0  0  0  0  0  0
  1  2  1  0
  2  4  1  0
  2  3  2  0
  4  5  1  0
  5  6  1  0
  6  7  1  1
  6  8  1  0
  8  9  2  0
 10 11  1  0
 11 21  2  0
 11 12  1  0
 12 13  2  0
 13 14  1  0
 14 15  1  0
 16 15  1  1
 17  8  1  0
 17 16  1  0
 18 22  1  0
 18 16  1  0
 19 18  2  0
 20 14  2  0
 21 20  1  0
 23 24  1  6
 23 26  1  0
 23 22  1  0
 24 25  1  0
 26 27  1  0
 28 26  2  0
M  END
$$$$
