QYC.pdb
     RDKit          3D

 28 28  0  0  1  0  0  0  0  0999 V2000
    6.3989  -20.2573   19.7351 N   0  0  0  0  0  0  0  0  0  0  0  0
    6.8703  -19.8854   18.4646 C   0  0  0  0  0  0  0  0  0  0  0  0
    6.6146  -20.6042   17.4821 O   0  0  0  0  0  0  0  0  0  0  0  0
    7.6540  -18.6539   18.3157 C   0  0  0  0  0  0  0  0  0  0  0  0
    7.8147  -17.8075   19.5162 C   0  0  0  0  0  0  0  0  0  0  0  0
    8.5949  -16.5330   19.3524 C   0  0  2  0  0  0  0  0  0  0  0  0
    9.6229  -16.5229   18.3968 N   0  0  0  0  0  0  0  0  0  0  0  0
    8.8916  -15.9701   20.6835 C   0  0  0  0  0  0  0  0  0  0  0  0
   10.0243  -16.2209   21.1706 O   0  0  0  0  0  0  0  0  0  0  0  0
    7.9031  -12.4521   28.7345 O   0  0  0  0  0  0  0  0  0  0  0  0
    7.7034  -12.7845   27.3987 C   0  0  0  0  0  0  0  0  0  0  0  0
    8.7642  -12.6893   26.5243 C   0  0  0  0  0  0  0  0  0  0  0  0
    8.6211  -13.0062   25.1910 C   0  0  0  0  0  0  0  0  0  0  0  0
    7.3787  -13.4313   24.7181 C   0  0  0  0  0  0  0  0  0  0  0  0
    7.1789  -13.7895   23.2916 C   0  0  0  0  0  0  0  0  0  0  0  0
    8.2149  -14.7266   22.7626 C   0  0  2  0  0  0  0  0  0  0  0  0
    7.9631  -15.1805   21.4059 N   0  0  0  0  0  0  0  0  0  0  0  0
    8.4259  -15.8817   23.6780 C   0  0  0  0  0  0  0  0  0  0  0  0
    7.5984  -16.8492   23.5888 O   0  0  0  0  0  0  0  0  0  0  0  0
    6.3282  -13.5193   25.6137 C   0  0  0  0  0  0  0  0  0  0  0  0
    6.4563  -13.2061   26.9485 C   0  0  0  0  0  0  0  0  0  0  0  0
    9.4982  -15.9111   24.6105 N   0  0  0  0  0  0  0  0  0  0  0  0
    9.8312  -17.1327   25.2771 C   0  0  1  0  0  0  0  0  0  0  0  0
   10.6943  -18.0437   24.4292 C   0  0  0  0  0  0  0  0  0  0  0  0
   11.1751  -19.5053   25.3890 S   0  0  0  0  0  0  0  0  0  0  0  0
   10.4912  -16.8568   26.5823 C   0  0  0  0  0  0  0  0  0  0  0  0
   10.7199  -17.9225   27.4504 O   0  0  0  0  0  0  0  0  0  0  0  0
   10.8428  -15.6809   26.9093 O   0  0  0  0  0  0  0  0  0  0  0  0
  1  2  1  0
  2  4  1  0
  2  3  2  0
  4  5  1  0
  5  6  1  0
  6  7  1  1
  6  8  1  0
  8  9  2  0
 10 11  1  0
 11 21  2  0
 11 12  1  0
 12 13  2  0
 13 14  1  0
 14 15  1  0
 16 15  1  1
 17  8  1  0
 17 16  1  0
 18 22  1  0
 18 16  1  0
 19 18  2  0
 20 14  2  0
 21 20  1  0
 23 24  1  6
 23 26  1  0
 23 22  1  0
 24 25  1  0
 26 27  1  0
 28 26  2  0
M  END
$$$$
