HFT.pdb
     RDKit          3D

 29 30  0  0  1  0  0  0  0  0999 V2000
   20.3599  -20.6278  -11.9768 N   0  0  0  0  0  0  0  0  0  0  0  0
   21.3279  -20.8621  -13.0072 C   0  0  1  0  0  0  0  0  0  0  0  0
   20.8927  -20.5195  -14.3875 C   0  0  0  0  0  0  0  0  0  0  0  0
   19.5891  -21.2176  -14.6638 C   0  0  0  0  0  0  0  0  0  0  0  0
   19.3691  -22.5641  -14.8494 C   0  0  0  0  0  0  0  0  0  0  0  0
   18.0436  -22.7899  -15.0590 N   0  0  0  0  0  0  0  0  0  0  0  0
   17.4693  -21.5995  -15.0014 C   0  0  0  0  0  0  0  0  0  0  0  0
   18.3728  -20.6097  -14.7618 N   0  0  0  0  0  0  0  0  0  0  0  0
   22.6738  -20.3330  -12.6499 C   0  0  0  0  0  0  0  0  0  0  0  0
   23.0701  -19.2487  -13.1117 O   0  0  0  0  0  0  0  0  0  0  0  0
   23.4968  -21.0673  -11.7915 N   0  0  0  0  0  0  0  0  0  0  0  0
   24.8425  -20.7206  -11.3889 C   0  0  1  0  0  0  0  0  0  0  0  0
   25.1995  -21.3427  -10.0991 C   0  0  0  0  0  0  0  0  0  0  0  0
   26.4190  -20.8747   -9.4697 C   0  0  0  0  0  0  0  0  0  0  0  0
   26.4095  -19.8857   -8.5198 C   0  0  0  0  0  0  0  0  0  0  0  0
   27.5781  -19.4273   -7.9185 C   0  0  0  0  0  0  0  0  0  0  0  0
   28.7809  -19.9722   -8.2750 C   0  0  0  0  0  0  0  0  0  0  0  0
   28.8400  -20.9777   -9.2339 C   0  0  0  0  0  0  0  0  0  0  0  0
   27.6375  -21.4076   -9.8121 C   0  0  0  0  0  0  0  0  0  0  0  0
   25.8237  -21.0687  -12.4687 C   0  0  0  0  0  0  0  0  0  0  0  0
   25.8649  -22.2687  -12.8383 O   0  0  0  0  0  0  0  0  0  0  0  0
   28.4351  -18.0953  -14.1030 C   0  0  0  0  0  0  0  0  0  0  0  0
   27.6311  -19.0466  -14.9728 C   0  0  1  0  0  0  0  0  0  0  0  0
   28.3634  -19.2726  -16.1324 O   0  0  0  0  0  0  0  0  0  0  0  0
   27.4200  -20.3888  -14.2945 C   0  0  2  0  0  0  0  0  0  0  0  0
   26.6849  -20.1341  -13.0766 N   0  0  0  0  0  0  0  0  0  0  0  0
   28.7607  -20.9861  -14.0712 C   0  0  0  0  0  0  0  0  0  0  0  0
   29.2729  -20.9963  -12.9304 O   0  0  0  0  0  0  0  0  0  0  0  0
   29.4650  -21.5429  -15.1231 O   0  0  0  0  0  0  0  0  0  0  0  0
  2  1  1  1
  3  2  1  0
  4  3  1  0
  4  8  1  0
  5  6  1  0
  5  4  2  0
  6  7  1  0
  7  8  2  0
  9  2  1  0
 10  9  2  0
 11  9  1  0
 12 11  1  0
 12 13  1  1
 14 13  1  0
 15 14  2  0
 16 15  1  0
 17 18  1  0
 17 16  2  0
 18 19  2  0
 19 14  1  0
 20 12  1  0
 21 20  2  0
 23 22  1  1
 23 25  1  0
 24 23  1  0
 25 26  1  1
 26 20  1  0
 27 25  1  0
 27 29  1  0
 28 27  2  0
M  END
$$$$
