HFT.pdb
     RDKit          3D

 29 30  0  0  1  0  0  0  0  0999 V2000
   28.1052  -22.8705  -16.1336 N   0  0  0  0  0  0  0  0  0  0  0  0
   27.2054  -21.7561  -16.0857 C   0  0  1  0  0  0  0  0  0  0  0  0
   26.5845  -21.3755  -17.3824 C   0  0  0  0  0  0  0  0  0  0  0  0
   27.5499  -20.5011  -18.1353 C   0  0  0  0  0  0  0  0  0  0  0  0
   28.2594  -20.8047  -19.2757 C   0  0  0  0  0  0  0  0  0  0  0  0
   29.0113  -19.7337  -19.6493 N   0  0  0  0  0  0  0  0  0  0  0  0
   28.7616  -18.7961  -18.7499 C   0  0  0  0  0  0  0  0  0  0  0  0
   27.8753  -19.2187  -17.8068 N   0  0  0  0  0  0  0  0  0  0  0  0
   26.2359  -21.8598  -14.9596 C   0  0  0  0  0  0  0  0  0  0  0  0
   25.7394  -22.9574  -14.6517 O   0  0  0  0  0  0  0  0  0  0  0  0
   25.8804  -20.7102  -14.2487 N   0  0  0  0  0  0  0  0  0  0  0  0
   25.0205  -20.6521  -13.0867 C   0  0  1  0  0  0  0  0  0  0  0  0
   25.5367  -19.7073  -12.0772 C   0  0  0  0  0  0  0  0  0  0  0  0
   26.2194  -20.2869  -10.9368 C   0  0  0  0  0  0  0  0  0  0  0  0
   27.4855  -20.8039  -11.0376 C   0  0  0  0  0  0  0  0  0  0  0  0
   28.1420  -21.3685   -9.9478 C   0  0  0  0  0  0  0  0  0  0  0  0
   27.5179  -21.4146   -8.7317 C   0  0  0  0  0  0  0  0  0  0  0  0
   26.2336  -20.9027   -8.5814 C   0  0  0  0  0  0  0  0  0  0  0  0
   25.6118  -20.3435   -9.7065 C   0  0  0  0  0  0  0  0  0  0  0  0
   23.6116  -20.3287  -13.4871 C   0  0  0  0  0  0  0  0  0  0  0  0
   23.3769  -19.1488  -13.8489 O   0  0  0  0  0  0  0  0  0  0  0  0
   21.5428  -22.0769  -16.0676 C   0  0  0  0  0  0  0  0  0  0  0  0
   20.7288  -22.0475  -14.7852 C   0  0  1  0  0  0  0  0  0  0  0  0
   20.9209  -23.2638  -14.1403 O   0  0  0  0  0  0  0  0  0  0  0  0
   21.1973  -20.9508  -13.8451 C   0  0  2  0  0  0  0  0  0  0  0  0
   22.5591  -21.2650  -13.4770 N   0  0  0  0  0  0  0  0  0  0  0  0
   20.2574  -20.9230  -12.6963 C   0  0  0  0  0  0  0  0  0  0  0  0
   20.6491  -21.2109  -11.5441 O   0  0  0  0  0  0  0  0  0  0  0  0
   18.9317  -20.5762  -12.8823 O   0  0  0  0  0  0  0  0  0  0  0  0
  2  1  1  6
  3  2  1  0
  4  3  1  0
  4  8  1  0
  5  6  1  0
  5  4  2  0
  6  7  1  0
  7  8  2  0
  9  2  1  0
 10  9  2  0
 11  9  1  0
 12 11  1  0
 12 13  1  1
 14 13  1  0
 15 14  2  0
 16 15  1  0
 17 18  1  0
 17 16  2  0
 18 19  2  0
 19 14  1  0
 20 12  1  0
 21 20  2  0
 23 22  1  6
 23 25  1  0
 24 23  1  0
 25 26  1  1
 26 20  1  0
 27 25  1  0
 27 29  1  0
 28 27  2  0
M  END
$$$$
