HFT.pdb
     RDKit          3D

 29 30  0  0  1  0  0  0  0  0999 V2000
   25.6061  -21.4788  -14.9052 N   0  0  0  0  0  0  0  0  0  0  0  0
   24.7556  -20.8938  -13.9111 C   0  0  1  0  0  0  0  0  0  0  0  0
   23.2964  -20.9709  -14.1879 C   0  0  0  0  0  0  0  0  0  0  0  0
   23.0015  -20.1625  -15.4219 C   0  0  0  0  0  0  0  0  0  0  0  0
   22.6226  -18.8411  -15.5014 C   0  0  0  0  0  0  0  0  0  0  0  0
   22.4688  -18.4835  -16.8054 N   0  0  0  0  0  0  0  0  0  0  0  0
   22.7499  -19.5705  -17.5050 C   0  0  0  0  0  0  0  0  0  0  0  0
   23.0808  -20.6202  -16.7036 N   0  0  0  0  0  0  0  0  0  0  0  0
   25.1308  -21.3087  -12.5305 C   0  0  0  0  0  0  0  0  0  0  0  0
   24.9884  -22.4884  -12.1640 O   0  0  0  0  0  0  0  0  0  0  0  0
   25.6426  -20.3597  -11.6413 N   0  0  0  0  0  0  0  0  0  0  0  0
   26.0051  -20.5872  -10.2593 C   0  0  1  0  0  0  0  0  0  0  0  0
   27.1281  -19.7242   -9.8444 C   0  0  0  0  0  0  0  0  0  0  0  0
   27.5245  -19.8016   -8.4519 C   0  0  0  0  0  0  0  0  0  0  0  0
   27.1861  -18.8273   -7.5480 C   0  0  0  0  0  0  0  0  0  0  0  0
   27.5710  -18.8929   -6.2120 C   0  0  0  0  0  0  0  0  0  0  0  0
   28.3087  -19.9573   -5.7720 C   0  0  0  0  0  0  0  0  0  0  0  0
   28.6755  -20.9695   -6.6523 C   0  0  0  0  0  0  0  0  0  0  0  0
   28.2652  -20.8611   -7.9883 C   0  0  0  0  0  0  0  0  0  0  0  0
   24.8120  -20.4214   -9.3654 C   0  0  0  0  0  0  0  0  0  0  0  0
   24.1462  -19.3635   -9.4914 O   0  0  0  0  0  0  0  0  0  0  0  0
   21.6090  -21.4829   -9.2652 C   0  0  0  0  0  0  0  0  0  0  0  0
   22.1572  -21.9940   -7.9438 C   0  0  1  0  0  0  0  0  0  0  0  0
   22.6122  -23.2905   -8.1535 O   0  0  0  0  0  0  0  0  0  0  0  0
   23.3365  -21.1658   -7.4647 C   0  0  2  0  0  0  0  0  0  0  0  0
   24.4097  -21.3751   -8.4098 N   0  0  0  0  0  0  0  0  0  0  0  0
   23.6576  -21.6117   -6.0855 C   0  0  0  0  0  0  0  0  0  0  0  0
   24.7539  -22.1562   -5.8297 O   0  0  0  0  0  0  0  0  0  0  0  0
   22.7481  -21.4301   -5.0596 O   0  0  0  0  0  0  0  0  0  0  0  0
  2  1  1  6
  3  2  1  0
  4  3  1  0
  4  8  1  0
  5  6  1  0
  5  4  2  0
  6  7  1  0
  7  8  2  0
  9  2  1  0
 10  9  2  0
 11  9  1  0
 12 11  1  0
 12 13  1  1
 14 13  1  0
 15 14  2  0
 16 15  1  0
 17 18  1  0
 17 16  2  0
 18 19  2  0
 19 14  1  0
 20 12  1  0
 21 20  2  0
 23 22  1  6
 23 25  1  0
 24 23  1  0
 25 26  1  6
 26 20  1  0
 27 25  1  0
 27 29  1  0
 28 27  2  0
M  END
$$$$
