HFT.pdb
     RDKit          3D

 29 30  0  0  1  0  0  0  0  0999 V2000
   12.1185  -20.1805    0.0116 N   0  0  0  0  0  0  0  0  0  0  0  0
   12.2574  -19.2036    1.0508 C   0  0  1  0  0  0  0  0  0  0  0  0
   10.9871  -18.6176    1.5556 C   0  0  0  0  0  0  0  0  0  0  0  0
   10.3097  -17.8980    0.4214 C   0  0  0  0  0  0  0  0  0  0  0  0
   10.7127  -16.7453   -0.2148 C   0  0  0  0  0  0  0  0  0  0  0  0
    9.8297  -16.4306   -1.2014 N   0  0  0  0  0  0  0  0  0  0  0  0
    8.9063  -17.3772   -1.1637 C   0  0  0  0  0  0  0  0  0  0  0  0
    9.1575  -18.2948   -0.1897 N   0  0  0  0  0  0  0  0  0  0  0  0
   13.1856  -19.6503    2.1268 C   0  0  0  0  0  0  0  0  0  0  0  0
   13.2413  -20.8479    2.4570 O   0  0  0  0  0  0  0  0  0  0  0  0
   13.9956  -18.7114    2.7714 N   0  0  0  0  0  0  0  0  0  0  0  0
   15.0082  -18.9913    3.7660 C   0  0  1  0  0  0  0  0  0  0  0  0
   16.3671  -18.7782    3.2310 C   0  0  0  0  0  0  0  0  0  0  0  0
   16.8899  -19.8126    2.3599 C   0  0  0  0  0  0  0  0  0  0  0  0
   17.0148  -19.6246    1.0072 C   0  0  0  0  0  0  0  0  0  0  0  0
   17.5086  -20.6172    0.1657 C   0  0  0  0  0  0  0  0  0  0  0  0
   17.8866  -21.8225    0.6902 C   0  0  0  0  0  0  0  0  0  0  0  0
   17.7779  -22.0591    2.0563 C   0  0  0  0  0  0  0  0  0  0  0  0
   17.2756  -21.0301    2.8649 C   0  0  0  0  0  0  0  0  0  0  0  0
   14.7642  -18.1888    5.0095 C   0  0  0  0  0  0  0  0  0  0  0  0
   14.7148  -16.9398    4.8831 O   0  0  0  0  0  0  0  0  0  0  0  0
   11.8513  -18.1891    7.3563 C   0  0  0  0  0  0  0  0  0  0  0  0
   13.1041  -18.5493    8.1364 C   0  0  1  0  0  0  0  0  0  0  0  0
   13.2167  -19.9347    8.1299 O   0  0  0  0  0  0  0  0  0  0  0  0
   14.3549  -17.9843    7.4864 C   0  0  2  0  0  0  0  0  0  0  0  0
   14.5915  -18.7559    6.2875 N   0  0  0  0  0  0  0  0  0  0  0  0
   15.4506  -18.0761    8.4839 C   0  0  0  0  0  0  0  0  0  0  0  0
   15.4426  -17.3593    9.5086 O   0  0  0  0  0  0  0  0  0  0  0  0
   16.4986  -18.9587    8.2960 O   0  0  0  0  0  0  0  0  0  0  0  0
  2  1  1  6
  3  2  1  0
  4  3  1  0
  4  8  1  0
  5  6  1  0
  5  4  2  0
  6  7  1  0
  7  8  2  0
  9  2  1  0
 10  9  2  0
 11  9  1  0
 12 11  1  0
 12 13  1  6
 14 13  1  0
 15 14  2  0
 16 15  1  0
 17 18  1  0
 17 16  2  0
 18 19  2  0
 19 14  1  0
 20 12  1  0
 21 20  2  0
 23 22  1  6
 23 25  1  0
 24 23  1  0
 25 26  1  6
 26 20  1  0
 27 25  1  0
 27 29  1  0
 28 27  2  0
M  END
$$$$
