HFT.pdb
     RDKit          3D

 29 30  0  0  1  0  0  0  0  0999 V2000
   28.1892  -21.3422  -14.0815 N   0  0  0  0  0  0  0  0  0  0  0  0
   27.5691  -20.3473  -13.2572 C   0  0  1  0  0  0  0  0  0  0  0  0
   26.6120  -19.4443  -13.9502 C   0  0  0  0  0  0  0  0  0  0  0  0
   27.3571  -18.6851  -15.0141 C   0  0  0  0  0  0  0  0  0  0  0  0
   28.1195  -17.5477  -14.8698 C   0  0  0  0  0  0  0  0  0  0  0  0
   28.6379  -17.1845  -16.0745 N   0  0  0  0  0  0  0  0  0  0  0  0
   28.1968  -18.0872  -16.9352 C   0  0  0  0  0  0  0  0  0  0  0  0
   27.4119  -19.0230  -16.3337 N   0  0  0  0  0  0  0  0  0  0  0  0
   27.0490  -20.9138  -11.9815 C   0  0  0  0  0  0  0  0  0  0  0  0
   26.3250  -21.9247  -11.9872 O   0  0  0  0  0  0  0  0  0  0  0  0
   27.3761  -20.2977  -10.7704 N   0  0  0  0  0  0  0  0  0  0  0  0
   26.6058  -20.3486   -9.5468 C   0  0  1  0  0  0  0  0  0  0  0  0
   27.2177  -19.5244   -8.4864 C   0  0  0  0  0  0  0  0  0  0  0  0
   26.9589  -19.9314   -7.1191 C   0  0  0  0  0  0  0  0  0  0  0  0
   25.9380  -20.7898   -6.8006 C   0  0  0  0  0  0  0  0  0  0  0  0
   25.6804  -21.1772   -5.4888 C   0  0  0  0  0  0  0  0  0  0  0  0
   26.4627  -20.6960   -4.4753 C   0  0  0  0  0  0  0  0  0  0  0  0
   27.5097  -19.8229   -4.7501 C   0  0  0  0  0  0  0  0  0  0  0  0
   27.7318  -19.4608   -6.0859 C   0  0  0  0  0  0  0  0  0  0  0  0
   25.1795  -19.9615   -9.8034 C   0  0  0  0  0  0  0  0  0  0  0  0
   24.9632  -18.7735  -10.1499 O   0  0  0  0  0  0  0  0  0  0  0  0
   23.2763  -20.0981  -12.3540 C   0  0  0  0  0  0  0  0  0  0  0  0
   22.4138  -20.8668  -11.3675 C   0  0  1  0  0  0  0  0  0  0  0  0
   22.7162  -22.2159  -11.5108 O   0  0  0  0  0  0  0  0  0  0  0  0
   22.7177  -20.4786   -9.9311 C   0  0  2  0  0  0  0  0  0  0  0  0
   24.0917  -20.8477   -9.6769 N   0  0  0  0  0  0  0  0  0  0  0  0
   21.7382  -21.1838   -9.0667 C   0  0  0  0  0  0  0  0  0  0  0  0
   22.1132  -22.0719   -8.2701 O   0  0  0  0  0  0  0  0  0  0  0  0
   20.3932  -20.8682   -9.1279 O   0  0  0  0  0  0  0  0  0  0  0  0
  2  1  1  6
  3  2  1  0
  4  3  1  0
  4  8  1  0
  5  6  1  0
  5  4  2  0
  6  7  1  0
  7  8  2  0
  9  2  1  0
 10  9  2  0
 11  9  1  0
 12 11  1  0
 12 13  1  1
 14 13  1  0
 15 14  2  0
 16 15  1  0
 17 18  1  0
 17 16  2  0
 18 19  2  0
 19 14  1  0
 20 12  1  0
 21 20  2  0
 23 22  1  6
 23 25  1  0
 24 23  1  0
 25 26  1  1
 26 20  1  0
 27 25  1  0
 27 29  1  0
 28 27  2  0
M  END
$$$$
