HFT.pdb
     RDKit          3D

 29 30  0  0  1  0  0  0  0  0999 V2000
   27.5090  -22.3007  -16.9282 N   0  0  0  0  0  0  0  0  0  0  0  0
   27.0141  -21.1669  -16.2047 C   0  0  1  0  0  0  0  0  0  0  0  0
   26.2360  -20.1840  -17.0048 C   0  0  0  0  0  0  0  0  0  0  0  0
   27.1073  -19.6836  -18.1245 C   0  0  0  0  0  0  0  0  0  0  0  0
   28.3630  -19.1251  -18.0392 C   0  0  0  0  0  0  0  0  0  0  0  0
   28.8168  -18.8191  -19.2852 N   0  0  0  0  0  0  0  0  0  0  0  0
   27.8519  -19.1863  -20.1123 C   0  0  0  0  0  0  0  0  0  0  0  0
   26.7889  -19.7195  -19.4495 N   0  0  0  0  0  0  0  0  0  0  0  0
   26.3606  -21.5547  -14.9235 C   0  0  0  0  0  0  0  0  0  0  0  0
   25.4399  -22.3904  -14.9109 O   0  0  0  0  0  0  0  0  0  0  0  0
   26.7859  -20.9682  -13.7283 N   0  0  0  0  0  0  0  0  0  0  0  0
   26.1318  -21.0717  -12.4420 C   0  0  1  0  0  0  0  0  0  0  0  0
   27.0131  -20.6197  -11.3479 C   0  0  0  0  0  0  0  0  0  0  0  0
   26.4408  -20.6133  -10.0158 C   0  0  0  0  0  0  0  0  0  0  0  0
   25.7624  -21.6946   -9.5145 C   0  0  0  0  0  0  0  0  0  0  0  0
   25.2043  -21.6905   -8.2394 C   0  0  0  0  0  0  0  0  0  0  0  0
   25.3298  -20.5809   -7.4496 C   0  0  0  0  0  0  0  0  0  0  0  0
   26.0093  -19.4604   -7.9153 C   0  0  0  0  0  0  0  0  0  0  0  0
   26.5549  -19.5103   -9.2055 C   0  0  0  0  0  0  0  0  0  0  0  0
   24.8269  -20.3320  -12.4514 C   0  0  0  0  0  0  0  0  0  0  0  0
   24.8561  -19.1260  -12.8020 O   0  0  0  0  0  0  0  0  0  0  0  0
   22.5768  -19.8190  -14.5727 C   0  0  0  0  0  0  0  0  0  0  0  0
   21.7161  -20.4085  -13.4684 C   0  0  1  0  0  0  0  0  0  0  0  0
   21.6344  -21.7785  -13.6885 O   0  0  0  0  0  0  0  0  0  0  0  0
   22.3365  -20.2002  -12.0980 C   0  0  2  0  0  0  0  0  0  0  0  0
   23.5942  -20.9121  -12.0926 N   0  0  0  0  0  0  0  0  0  0  0  0
   21.3631  -20.6962  -11.0928 C   0  0  0  0  0  0  0  0  0  0  0  0
   20.2734  -20.1088  -10.9155 O   0  0  0  0  0  0  0  0  0  0  0  0
   21.6459  -21.8188  -10.3363 O   0  0  0  0  0  0  0  0  0  0  0  0
  2  1  1  6
  3  2  1  0
  4  3  1  0
  4  8  1  0
  5  6  1  0
  5  4  2  0
  6  7  1  0
  7  8  2  0
  9  2  1  0
 10  9  2  0
 11  9  1  0
 12 11  1  0
 12 13  1  1
 14 13  1  0
 15 14  2  0
 16 15  1  0
 17 18  1  0
 17 16  2  0
 18 19  2  0
 19 14  1  0
 20 12  1  0
 21 20  2  0
 23 22  1  6
 23 25  1  0
 24 23  1  0
 25 26  1  6
 26 20  1  0
 27 25  1  0
 27 29  1  0
 28 27  2  0
M  END
$$$$
