HFT.pdb
     RDKit          3D

 29 30  0  0  1  0  0  0  0  0999 V2000
   26.5153  -21.1222  -17.0780 N   0  0  0  0  0  0  0  0  0  0  0  0
   25.1432  -20.7266  -16.9570 C   0  0  1  0  0  0  0  0  0  0  0  0
   24.3061  -20.9323  -18.1689 C   0  0  0  0  0  0  0  0  0  0  0  0
   24.9590  -20.2257  -19.3254 C   0  0  0  0  0  0  0  0  0  0  0  0
   25.3653  -20.7602  -20.5276 C   0  0  0  0  0  0  0  0  0  0  0  0
   25.8965  -19.7821  -21.3107 N   0  0  0  0  0  0  0  0  0  0  0  0
   25.8137  -18.6727  -20.5947 C   0  0  0  0  0  0  0  0  0  0  0  0
   25.2480  -18.8944  -19.3763 N   0  0  0  0  0  0  0  0  0  0  0  0
   24.5191  -21.2265  -15.7002 C   0  0  0  0  0  0  0  0  0  0  0  0
   24.5736  -22.4328  -15.4035 O   0  0  0  0  0  0  0  0  0  0  0  0
   23.8636  -20.3293  -14.8525 N   0  0  0  0  0  0  0  0  0  0  0  0
   23.2113  -20.6515  -13.6020 C   0  0  1  0  0  0  0  0  0  0  0  0
   23.5968  -19.7114  -12.5316 C   0  0  0  0  0  0  0  0  0  0  0  0
   24.3230  -20.2711  -11.4084 C   0  0  0  0  0  0  0  0  0  0  0  0
   23.8122  -20.2546  -10.1359 C   0  0  0  0  0  0  0  0  0  0  0  0
   24.5088  -20.7834   -9.0530 C   0  0  0  0  0  0  0  0  0  0  0  0
   25.7419  -21.3417   -9.2494 C   0  0  0  0  0  0  0  0  0  0  0  0
   26.3005  -21.3810  -10.5223 C   0  0  0  0  0  0  0  0  0  0  0  0
   25.5624  -20.8367  -11.5824 C   0  0  0  0  0  0  0  0  0  0  0  0
   21.7236  -20.7143  -13.7826 C   0  0  0  0  0  0  0  0  0  0  0  0
   21.2334  -20.0438  -14.7251 O   0  0  0  0  0  0  0  0  0  0  0  0
   20.0184  -24.1278  -13.6766 C   0  0  0  0  0  0  0  0  0  0  0  0
   19.4149  -22.8566  -14.2493 C   0  0  1  0  0  0  0  0  0  0  0  0
   18.0759  -23.1143  -14.5189 O   0  0  0  0  0  0  0  0  0  0  0  0
   19.4703  -21.7091  -13.2561 C   0  0  2  0  0  0  0  0  0  0  0  0
   20.8656  -21.4733  -12.9625 N   0  0  0  0  0  0  0  0  0  0  0  0
   18.6687  -22.1106  -12.0727 C   0  0  0  0  0  0  0  0  0  0  0  0
   19.2249  -22.3679  -10.9826 O   0  0  0  0  0  0  0  0  0  0  0  0
   17.2916  -22.2052  -12.1570 O   0  0  0  0  0  0  0  0  0  0  0  0
  2  1  1  6
  3  2  1  0
  4  3  1  0
  4  8  1  0
  5  6  1  0
  5  4  2  0
  6  7  1  0
  7  8  2  0
  9  2  1  0
 10  9  2  0
 11  9  1  0
 12 11  1  0
 12 13  1  1
 14 13  1  0
 15 14  2  0
 16 15  1  0
 17 18  1  0
 17 16  2  0
 18 19  2  0
 19 14  1  0
 20 12  1  0
 21 20  2  0
 23 22  1  1
 23 25  1  0
 24 23  1  0
 25 26  1  1
 26 20  1  0
 27 25  1  0
 27 29  1  0
 28 27  2  0
M  END
$$$$
