HFT.pdb
     RDKit          3D

 29 30  0  0  1  0  0  0  0  0999 V2000
   27.4826  -21.3961  -17.7943 N   0  0  0  0  0  0  0  0  0  0  0  0
   27.1594  -20.3903  -16.8259 C   0  0  1  0  0  0  0  0  0  0  0  0
   25.9789  -19.5448  -17.1474 C   0  0  0  0  0  0  0  0  0  0  0  0
   26.2329  -18.8487  -18.4566 C   0  0  0  0  0  0  0  0  0  0  0  0
   27.4424  -18.5994  -19.0656 C   0  0  0  0  0  0  0  0  0  0  0  0
   27.2392  -17.9593  -20.2492 N   0  0  0  0  0  0  0  0  0  0  0  0
   25.9276  -17.8227  -20.3559 C   0  0  0  0  0  0  0  0  0  0  0  0
   25.2722  -18.3509  -19.2859 N   0  0  0  0  0  0  0  0  0  0  0  0
   27.1592  -20.9236  -15.4350 C   0  0  0  0  0  0  0  0  0  0  0  0
   26.5331  -21.9609  -15.1556 O   0  0  0  0  0  0  0  0  0  0  0  0
   27.8662  -20.2464  -14.4377 N   0  0  0  0  0  0  0  0  0  0  0  0
   27.8431  -20.5389  -13.0210 C   0  0  1  0  0  0  0  0  0  0  0  0
   29.0088  -19.9563  -12.3282 C   0  0  0  0  0  0  0  0  0  0  0  0
   29.0714  -20.1481  -10.8924 C   0  0  0  0  0  0  0  0  0  0  0  0
   28.4847  -19.2689  -10.0186 C   0  0  0  0  0  0  0  0  0  0  0  0
   28.5488  -19.4442   -8.6393 C   0  0  0  0  0  0  0  0  0  0  0  0
   29.2131  -20.5233   -8.1247 C   0  0  0  0  0  0  0  0  0  0  0  0
   29.8238  -21.4416   -8.9719 C   0  0  0  0  0  0  0  0  0  0  0  0
   29.7329  -21.2244  -10.3538 C   0  0  0  0  0  0  0  0  0  0  0  0
   26.5481  -20.0922  -12.4099 C   0  0  0  0  0  0  0  0  0  0  0  0
   26.0059  -19.0715  -12.9022 O   0  0  0  0  0  0  0  0  0  0  0  0
   23.9344  -20.0200  -13.1940 C   0  0  0  0  0  0  0  0  0  0  0  0
   23.6042  -20.6996  -11.8761 C   0  0  1  0  0  0  0  0  0  0  0  0
   23.6406  -22.0721  -12.0929 O   0  0  0  0  0  0  0  0  0  0  0  0
   24.6294  -20.3773  -10.8032 C   0  0  2  0  0  0  0  0  0  0  0  0
   25.9225  -20.7481  -11.3315 N   0  0  0  0  0  0  0  0  0  0  0  0
   24.2427  -21.1295   -9.5830 C   0  0  0  0  0  0  0  0  0  0  0  0
   24.9632  -22.0547   -9.1485 O   0  0  0  0  0  0  0  0  0  0  0  0
   23.0782  -20.8172   -8.9057 O   0  0  0  0  0  0  0  0  0  0  0  0
  2  1  1  6
  3  2  1  0
  4  3  1  0
  4  8  1  0
  5  6  1  0
  5  4  2  0
  6  7  1  0
  7  8  2  0
  9  2  1  0
 10  9  2  0
 11  9  1  0
 12 11  1  0
 12 13  1  1
 14 13  1  0
 15 14  2  0
 16 15  1  0
 17 18  1  0
 17 16  2  0
 18 19  2  0
 19 14  1  0
 20 12  1  0
 21 20  2  0
 23 22  1  6
 23 25  1  0
 24 23  1  0
 25 26  1  6
 26 20  1  0
 27 25  1  0
 27 29  1  0
 28 27  2  0
M  END
$$$$
