HFT.pdb
     RDKit          3D

 29 30  0  0  1  0  0  0  0  0999 V2000
   14.6822  -28.0388    0.4402 N   0  0  0  0  0  0  0  0  0  0  0  0
   14.5040  -27.4580    1.7381 C   0  0  1  0  0  0  0  0  0  0  0  0
   13.4741  -28.1036    2.5951 C   0  0  0  0  0  0  0  0  0  0  0  0
   12.1610  -28.0822    1.8611 C   0  0  0  0  0  0  0  0  0  0  0  0
   11.4606  -26.9882    1.4047 C   0  0  0  0  0  0  0  0  0  0  0  0
   10.3247  -27.3974    0.7767 N   0  0  0  0  0  0  0  0  0  0  0  0
   10.3365  -28.7181    0.8514 C   0  0  0  0  0  0  0  0  0  0  0  0
   11.4379  -29.1813    1.5040 N   0  0  0  0  0  0  0  0  0  0  0  0
   15.7997  -27.2142    2.4314 C   0  0  0  0  0  0  0  0  0  0  0  0
   16.5372  -28.1646    2.7460 O   0  0  0  0  0  0  0  0  0  0  0  0
   16.1837  -25.9047    2.7332 N   0  0  0  0  0  0  0  0  0  0  0  0
   17.4745  -25.4829    3.2321 C   0  0  1  0  0  0  0  0  0  0  0  0
   18.1419  -24.5583    2.2952 C   0  0  0  0  0  0  0  0  0  0  0  0
   18.8738  -25.1630    1.1993 C   0  0  0  0  0  0  0  0  0  0  0  0
   18.2339  -25.7147    0.1191 C   0  0  0  0  0  0  0  0  0  0  0  0
   18.9315  -26.3035   -0.9315 C   0  0  0  0  0  0  0  0  0  0  0  0
   20.2984  -26.3389   -0.9003 C   0  0  0  0  0  0  0  0  0  0  0  0
   20.9908  -25.7922    0.1747 C   0  0  0  0  0  0  0  0  0  0  0  0
   20.2463  -25.2095    1.2098 C   0  0  0  0  0  0  0  0  0  0  0  0
   17.3434  -24.8912    4.6042 C   0  0  0  0  0  0  0  0  0  0  0  0
   16.7065  -23.8128    4.7031 O   0  0  0  0  0  0  0  0  0  0  0  0
   19.4127  -26.5980    7.9728 C   0  0  0  0  0  0  0  0  0  0  0  0
   18.0210  -25.9992    8.0844 C   0  0  1  0  0  0  0  0  0  0  0  0
   17.9029  -25.4503    9.3559 O   0  0  0  0  0  0  0  0  0  0  0  0
   17.8064  -24.8805    7.0800 C   0  0  2  0  0  0  0  0  0  0  0  0
   17.8895  -25.4738    5.7648 N   0  0  0  0  0  0  0  0  0  0  0  0
   18.8434  -23.8501    7.3389 C   0  0  0  0  0  0  0  0  0  0  0  0
   19.8407  -23.7465    6.5916 O   0  0  0  0  0  0  0  0  0  0  0  0
   18.7217  -22.9861    8.4118 O   0  0  0  0  0  0  0  0  0  0  0  0
  2  1  1  6
  3  2  1  0
  4  3  1  0
  4  8  1  0
  5  6  1  0
  5  4  2  0
  6  7  1  0
  7  8  2  0
  9  2  1  0
 10  9  2  0
 11  9  1  0
 12 11  1  0
 12 13  1  6
 14 13  1  0
 15 14  2  0
 16 15  1  0
 17 18  1  0
 17 16  2  0
 18 19  2  0
 19 14  1  0
 20 12  1  0
 21 20  2  0
 23 22  1  1
 23 25  1  0
 24 23  1  0
 25 26  1  6
 26 20  1  0
 27 25  1  0
 27 29  1  0
 28 27  2  0
M  END
$$$$
