HFT.pdb
     RDKit          3D

 29 30  0  0  1  0  0  0  0  0999 V2000
   19.2352  -11.4799  -16.3676 N   0  0  0  0  0  0  0  0  0  0  0  0
   18.4944  -10.3166  -16.7572 C   0  0  1  0  0  0  0  0  0  0  0  0
   17.0572  -10.5433  -17.0651 C   0  0  0  0  0  0  0  0  0  0  0  0
   16.9589  -11.5969  -18.1345 C   0  0  0  0  0  0  0  0  0  0  0  0
   17.3096  -11.4952  -19.4621 C   0  0  0  0  0  0  0  0  0  0  0  0
   17.0800  -12.6798  -20.0914 N   0  0  0  0  0  0  0  0  0  0  0  0
   16.5979  -13.4865  -19.1603 C   0  0  0  0  0  0  0  0  0  0  0  0
   16.5065  -12.8696  -17.9501 N   0  0  0  0  0  0  0  0  0  0  0  0
   18.7427   -9.1590  -15.8531 C   0  0  0  0  0  0  0  0  0  0  0  0
   18.3171   -9.1664  -14.6848 O   0  0  0  0  0  0  0  0  0  0  0  0
   19.4566   -8.0552  -16.3277 N   0  0  0  0  0  0  0  0  0  0  0  0
   19.9257   -6.9348  -15.5417 C   0  0  1  0  0  0  0  0  0  0  0  0
   21.3991   -6.9097  -15.4592 C   0  0  0  0  0  0  0  0  0  0  0  0
   22.0344   -8.0691  -14.8640 C   0  0  0  0  0  0  0  0  0  0  0  0
   21.8133   -8.4248  -13.5582 C   0  0  0  0  0  0  0  0  0  0  0  0
   22.4270   -9.5322  -12.9798 C   0  0  0  0  0  0  0  0  0  0  0  0
   23.2785  -10.3000  -13.7255 C   0  0  0  0  0  0  0  0  0  0  0  0
   23.5335   -9.9781  -15.0542 C   0  0  0  0  0  0  0  0  0  0  0  0
   22.8927   -8.8543  -15.5941 C   0  0  0  0  0  0  0  0  0  0  0  0
   19.3731   -5.6464  -16.0751 C   0  0  0  0  0  0  0  0  0  0  0  0
   19.8708   -5.2095  -17.1426 O   0  0  0  0  0  0  0  0  0  0  0  0
   16.0937   -3.7630  -14.1222 C   0  0  0  0  0  0  0  0  0  0  0  0
   16.3188   -3.6733  -15.6220 C   0  0  1  0  0  0  0  0  0  0  0  0
   15.7950   -2.4596  -16.0514 O   0  0  0  0  0  0  0  0  0  0  0  0
   17.7965   -3.6847  -15.9719 C   0  0  2  0  0  0  0  0  0  0  0  0
   18.3435   -4.9162  -15.4494 N   0  0  0  0  0  0  0  0  0  0  0  0
   18.3994   -2.4634  -15.3813 C   0  0  0  0  0  0  0  0  0  0  0  0
   19.1746   -2.5431  -14.4032 O   0  0  0  0  0  0  0  0  0  0  0  0
   18.1138   -1.2159  -15.9054 O   0  0  0  0  0  0  0  0  0  0  0  0
  2  1  1  1
  3  2  1  0
  4  3  1  0
  4  8  1  0
  5  6  1  0
  5  4  2  0
  6  7  1  0
  7  8  2  0
  9  2  1  0
 10  9  2  0
 11  9  1  0
 12 11  1  0
 12 13  1  6
 14 13  1  0
 15 14  2  0
 16 15  1  0
 17 18  1  0
 17 16  2  0
 18 19  2  0
 19 14  1  0
 20 12  1  0
 21 20  2  0
 23 22  1  1
 23 25  1  0
 24 23  1  0
 25 26  1  1
 26 20  1  0
 27 25  1  0
 27 29  1  0
 28 27  2  0
M  END
$$$$
