HFT.pdb
     RDKit          3D

 29 30  0  0  1  0  0  0  0  0999 V2000
   27.5825  -21.5433  -13.9874 N   0  0  0  0  0  0  0  0  0  0  0  0
   27.3740  -20.4984  -13.0290 C   0  0  1  0  0  0  0  0  0  0  0  0
   26.5017  -19.3802  -13.4772 C   0  0  0  0  0  0  0  0  0  0  0  0
   27.1455  -18.7197  -14.6656 C   0  0  0  0  0  0  0  0  0  0  0  0
   28.2994  -19.0878  -15.3205 C   0  0  0  0  0  0  0  0  0  0  0  0
   28.5319  -18.2377  -16.3575 N   0  0  0  0  0  0  0  0  0  0  0  0
   27.5350  -17.3683  -16.3315 C   0  0  0  0  0  0  0  0  0  0  0  0
   26.6641  -17.6229  -15.3166 N   0  0  0  0  0  0  0  0  0  0  0  0
   27.0306  -21.0285  -11.6799 C   0  0  0  0  0  0  0  0  0  0  0  0
   26.1670  -21.9135  -11.5493 O   0  0  0  0  0  0  0  0  0  0  0  0
   27.6838  -20.5205  -10.5536 N   0  0  0  0  0  0  0  0  0  0  0  0
   27.2637  -20.6722   -9.1775 C   0  0  1  0  0  0  0  0  0  0  0  0
   28.2409  -20.0790   -8.2440 C   0  0  0  0  0  0  0  0  0  0  0  0
   27.8890  -20.1007   -6.8377 C   0  0  0  0  0  0  0  0  0  0  0  0
   27.9311  -18.9695   -6.0637 C   0  0  0  0  0  0  0  0  0  0  0  0
   27.6020  -18.9866   -4.7114 C   0  0  0  0  0  0  0  0  0  0  0  0
   27.2213  -20.1610   -4.1227 C   0  0  0  0  0  0  0  0  0  0  0  0
   27.1639  -21.3339   -4.8676 C   0  0  0  0  0  0  0  0  0  0  0  0
   27.5039  -21.2685   -6.2260 C   0  0  0  0  0  0  0  0  0  0  0  0
   25.8876  -20.1091   -8.9796 C   0  0  0  0  0  0  0  0  0  0  0  0
   25.7361  -18.8810   -9.1962 O   0  0  0  0  0  0  0  0  0  0  0  0
   23.6091  -19.5471  -10.8621 C   0  0  0  0  0  0  0  0  0  0  0  0
   22.8457  -20.4293   -9.8891 C   0  0  1  0  0  0  0  0  0  0  0  0
   22.9666  -21.7414  -10.3314 O   0  0  0  0  0  0  0  0  0  0  0  0
   23.4300  -20.3614   -8.4890 C   0  0  2  0  0  0  0  0  0  0  0  0
   24.7785  -20.8751   -8.5701 N   0  0  0  0  0  0  0  0  0  0  0  0
   22.5405  -21.1513   -7.6008 C   0  0  0  0  0  0  0  0  0  0  0  0
   22.9690  -22.1643   -7.0057 O   0  0  0  0  0  0  0  0  0  0  0  0
   21.2218  -20.7778   -7.4162 O   0  0  0  0  0  0  0  0  0  0  0  0
  2  1  1  6
  3  2  1  0
  4  3  1  0
  4  8  1  0
  5  6  1  0
  5  4  2  0
  6  7  1  0
  7  8  2  0
  9  2  1  0
 10  9  2  0
 11  9  1  0
 12 11  1  0
 12 13  1  1
 14 13  1  0
 15 14  2  0
 16 15  1  0
 17 18  1  0
 17 16  2  0
 18 19  2  0
 19 14  1  0
 20 12  1  0
 21 20  2  0
 23 22  1  6
 23 25  1  0
 24 23  1  0
 25 26  1  6
 26 20  1  0
 27 25  1  0
 27 29  1  0
 28 27  2  0
M  END
$$$$
