IVV.pdb
     RDKit          3D

 23 22  0  0  1  0  0  0  0  0999 V2000
   16.0046  -12.3483  -18.8213 C   0  0  0  0  0  0  0  0  0  0  0  0
   17.4735  -12.3828  -18.5904 C   0  0  0  0  0  0  0  0  0  0  0  0
   17.9731  -11.5291  -17.4506 C   0  0  2  0  0  0  0  0  0  0  0  0
   17.5191  -10.1311  -17.6757 C   0  0  0  0  0  0  0  0  0  0  0  0
   19.4404  -11.7470  -17.2979 C   0  0  2  0  0  0  0  0  0  0  0  0
   19.5867  -13.1997  -17.0083 N   0  0  0  0  0  0  0  0  0  0  0  0
   20.1252  -11.0619  -16.2210 C   0  0  0  0  0  0  0  0  0  0  0  0
   19.6878  -11.1863  -15.0452 O   0  0  0  0  0  0  0  0  0  0  0  0
   24.0340   -9.6289  -16.4159 C   0  0  0  0  0  0  0  0  0  0  0  0
   23.3153   -9.8365  -15.1247 C   0  0  2  0  0  0  0  0  0  0  0  0
   23.3781  -11.2864  -14.6755 C   0  0  0  0  0  0  0  0  0  0  0  0
   21.8276   -9.4621  -15.2525 C   0  0  2  0  0  0  0  0  0  0  0  0
   21.2794  -10.2354  -16.3291 N   0  0  0  0  0  0  0  0  0  0  0  0
   21.6870   -8.0226  -15.3666 C   0  0  0  0  0  0  0  0  0  0  0  0
   21.7847   -7.5032  -16.5090 O   0  0  0  0  0  0  0  0  0  0  0  0
   18.9070   -5.7894  -15.0481 C   0  0  0  0  0  0  0  0  0  0  0  0
   19.9214   -5.1914  -14.1056 C   0  0  2  0  0  0  0  0  0  0  0  0
   19.9267   -3.6940  -14.3209 C   0  0  0  0  0  0  0  0  0  0  0  0
   21.2916   -5.7045  -14.4412 C   0  0  2  0  0  0  0  0  0  0  0  0
   21.4424   -7.1241  -14.2931 N   0  0  0  0  0  0  0  0  0  0  0  0
   22.2764   -4.9601  -13.6160 C   0  0  0  0  0  0  0  0  0  0  0  0
   22.5886   -5.4526  -12.4799 O   0  0  0  0  0  0  0  0  0  0  0  0
   22.8678   -3.7921  -13.9859 O   0  0  0  0  0  0  0  0  0  0  0  0
  2  3  1  0
  2  1  1  0
  3  4  1  6
  5  7  1  0
  5  3  1  0
  5  6  1  1
  7 13  1  0
  8  7  2  0
 10  9  1  6
 10 11  1  0
 10 12  1  0
 12 14  1  0
 12 13  1  6
 14 20  1  0
 14 15  2  0
 17 16  1  6
 17 19  1  0
 18 17  1  0
 19 21  1  0
 19 20  1  1
 21 22  2  0
 21 23  1  0
M  END
$$$$
