IVV.pdb
     RDKit          3D

 23 22  0  0  1  0  0  0  0  0999 V2000
   19.7242  -20.6278  -15.0041 C   0  0  0  0  0  0  0  0  0  0  0  0
   21.1431  -20.9813  -15.2757 C   0  0  0  0  0  0  0  0  0  0  0  0
   22.0062  -21.1921  -14.0558 C   0  0  2  0  0  0  0  0  0  0  0  0
   21.8168  -20.0359  -13.1400 C   0  0  0  0  0  0  0  0  0  0  0  0
   23.3999  -21.4810  -14.5005 C   0  0  2  0  0  0  0  0  0  0  0  0
   23.3083  -22.7655  -15.2471 N   0  0  0  0  0  0  0  0  0  0  0  0
   24.4124  -21.6888  -13.4859 C   0  0  0  0  0  0  0  0  0  0  0  0
   24.3494  -22.7218  -12.7659 O   0  0  0  0  0  0  0  0  0  0  0  0
   27.9028  -19.2645  -13.0596 C   0  0  0  0  0  0  0  0  0  0  0  0
   27.8379  -20.6851  -12.6070 C   0  0  2  0  0  0  0  0  0  0  0  0
   28.1699  -21.6478  -13.7342 C   0  0  0  0  0  0  0  0  0  0  0  0
   26.4279  -21.0417  -12.1023 C   0  0  2  0  0  0  0  0  0  0  0  0
   25.5164  -20.8394  -13.1912 N   0  0  0  0  0  0  0  0  0  0  0  0
   26.1376  -20.3087  -10.8844 C   0  0  0  0  0  0  0  0  0  0  0  0
   25.6138  -19.1686  -10.9858 O   0  0  0  0  0  0  0  0  0  0  0  0
   25.6940  -21.9177   -6.9493 C   0  0  0  0  0  0  0  0  0  0  0  0
   25.2047  -20.5664   -7.4072 C   0  0  2  0  0  0  0  0  0  0  0  0
   23.8967  -20.7715   -8.1390 C   0  0  0  0  0  0  0  0  0  0  0  0
   26.1828  -19.9744   -8.3799 C   0  0  2  0  0  0  0  0  0  0  0  0
   26.3897  -20.7625   -9.5615 N   0  0  0  0  0  0  0  0  0  0  0  0
   27.4561  -19.7255   -7.6578 C   0  0  0  0  0  0  0  0  0  0  0  0
   27.4633  -18.8066   -6.7708 O   0  0  0  0  0  0  0  0  0  0  0  0
   28.6132  -20.4071   -7.8751 O   0  0  0  0  0  0  0  0  0  0  0  0
  2  3  1  0
  2  1  1  0
  3  4  1  1
  5  7  1  0
  5  3  1  0
  5  6  1  1
  7 13  1  0
  8  7  2  0
 10  9  1  6
 10 11  1  0
 10 12  1  0
 12 14  1  0
 12 13  1  6
 14 20  1  0
 14 15  2  0
 17 16  1  6
 17 19  1  0
 18 17  1  0
 19 21  1  0
 19 20  1  6
 21 22  2  0
 21 23  1  0
M  END
$$$$
