IVV.pdb
     RDKit          3D

 23 22  0  0  1  0  0  0  0  0999 V2000
   12.1146  -13.4822  -15.3710 C   0  0  0  0  0  0  0  0  0  0  0  0
   13.5008  -12.9453  -15.4190 C   0  0  0  0  0  0  0  0  0  0  0  0
   13.9261  -12.1339  -14.2197 C   0  0  2  0  0  0  0  0  0  0  0  0
   12.8727  -11.1227  -13.9383 C   0  0  0  0  0  0  0  0  0  0  0  0
   15.3077  -11.6237  -14.4535 C   0  0  2  0  0  0  0  0  0  0  0  0
   16.1635  -12.8402  -14.5119 N   0  0  0  0  0  0  0  0  0  0  0  0
   15.9031  -10.7739  -13.4430 C   0  0  0  0  0  0  0  0  0  0  0  0
   16.2045  -11.2756  -12.3264 O   0  0  0  0  0  0  0  0  0  0  0  0
   17.6554   -6.8451  -14.0824 C   0  0  0  0  0  0  0  0  0  0  0  0
   18.0385   -7.9074  -13.1069 C   0  0  2  0  0  0  0  0  0  0  0  0
   18.8836   -8.9883  -13.7590 C   0  0  0  0  0  0  0  0  0  0  0  0
   16.7928   -8.5946  -12.5187 C   0  0  2  0  0  0  0  0  0  0  0  0
   16.2059   -9.3876  -13.5599 N   0  0  0  0  0  0  0  0  0  0  0  0
   15.9253   -7.6066  -11.9052 C   0  0  0  0  0  0  0  0  0  0  0  0
   15.0807   -7.0217  -12.6326 O   0  0  0  0  0  0  0  0  0  0  0  0
   15.9834   -6.6142   -7.7058 C   0  0  0  0  0  0  0  0  0  0  0  0
   14.7252   -6.4680   -8.5248 C   0  0  2  0  0  0  0  0  0  0  0  0
   13.9702   -7.7769   -8.4509 C   0  0  0  0  0  0  0  0  0  0  0  0
   15.0802   -6.2277   -9.9634 C   0  0  2  0  0  0  0  0  0  0  0  0
   15.9348   -7.2290  -10.5352 N   0  0  0  0  0  0  0  0  0  0  0  0
   15.6774   -4.8724  -10.0696 C   0  0  0  0  0  0  0  0  0  0  0  0
   16.9439   -4.7937  -10.2137 O   0  0  0  0  0  0  0  0  0  0  0  0
   14.9703   -3.7111  -10.0240 O   0  0  0  0  0  0  0  0  0  0  0  0
  2  3  1  0
  2  1  1  0
  3  4  1  6
  5  7  1  0
  5  3  1  0
  5  6  1  1
  7 13  1  0
  8  7  2  0
 10  9  1  6
 10 11  1  0
 10 12  1  0
 12 14  1  0
 12 13  1  6
 14 20  1  0
 14 15  2  0
 17 16  1  1
 17 19  1  0
 18 17  1  0
 19 21  1  0
 19 20  1  1
 21 22  2  0
 21 23  1  0
M  END
$$$$
