IVV.pdb
     RDKit          3D

 23 22  0  0  1  0  0  0  0  0999 V2000
   26.7260  -20.2624   -7.5363 C   0  0  0  0  0  0  0  0  0  0  0  0
   26.2763  -21.2089   -8.5917 C   0  0  0  0  0  0  0  0  0  0  0  0
   25.9022  -20.5811   -9.9121 C   0  0  2  0  0  0  0  0  0  0  0  0
   24.8407  -19.5686   -9.6678 C   0  0  0  0  0  0  0  0  0  0  0  0
   25.5898  -21.6665  -10.8858 C   0  0  2  0  0  0  0  0  0  0  0  0
   26.8549  -22.4388  -11.0218 N   0  0  0  0  0  0  0  0  0  0  0  0
   25.2140  -21.2895  -12.2329 C   0  0  0  0  0  0  0  0  0  0  0  0
   26.1218  -21.0162  -13.0639 O   0  0  0  0  0  0  0  0  0  0  0  0
   21.9186  -21.2367  -15.9199 C   0  0  0  0  0  0  0  0  0  0  0  0
   22.3172  -21.5773  -14.5228 C   0  0  2  0  0  0  0  0  0  0  0  0
   21.2257  -21.2239  -13.5269 C   0  0  0  0  0  0  0  0  0  0  0  0
   23.5833  -20.8078  -14.1048 C   0  0  2  0  0  0  0  0  0  0  0  0
   23.8942  -21.1890  -12.7574 N   0  0  0  0  0  0  0  0  0  0  0  0
   23.3996  -19.3877  -14.3384 C   0  0  0  0  0  0  0  0  0  0  0  0
   22.6725  -18.7417  -13.5395 O   0  0  0  0  0  0  0  0  0  0  0  0
   26.2797  -16.8974  -15.1570 C   0  0  0  0  0  0  0  0  0  0  0  0
   25.1147  -16.5511  -16.0502 C   0  0  2  0  0  0  0  0  0  0  0  0
   24.9018  -15.0553  -15.9739 C   0  0  0  0  0  0  0  0  0  0  0  0
   23.8685  -17.2150  -15.5408 C   0  0  2  0  0  0  0  0  0  0  0  0
   23.9741  -18.6396  -15.4013 N   0  0  0  0  0  0  0  0  0  0  0  0
   22.7460  -16.8340  -16.4349 C   0  0  0  0  0  0  0  0  0  0  0  0
   22.1084  -15.7621  -16.1601 O   0  0  0  0  0  0  0  0  0  0  0  0
   22.3505  -17.5463  -17.5244 O   0  0  0  0  0  0  0  0  0  0  0  0
  2  3  1  0
  2  1  1  0
  3  4  1  1
  5  7  1  0
  5  3  1  0
  5  6  1  6
  7 13  1  0
  8  7  2  0
 10  9  1  6
 10 11  1  0
 10 12  1  0
 12 14  1  0
 12 13  1  1
 14 20  1  0
 14 15  2  0
 17 16  1  1
 17 19  1  0
 18 17  1  0
 19 21  1  0
 19 20  1  6
 21 22  2  0
 21 23  1  0
M  END
$$$$
