IVV.pdb
     RDKit          3D

 23 22  0  0  1  0  0  0  0  0999 V2000
   15.6174  -15.6013  -16.7003 C   0  0  0  0  0  0  0  0  0  0  0  0
   16.5732  -14.8990  -17.5977 C   0  0  0  0  0  0  0  0  0  0  0  0
   17.4557  -13.8716  -16.9320 C   0  0  2  0  0  0  0  0  0  0  0  0
   16.5926  -12.9424  -16.1553 C   0  0  0  0  0  0  0  0  0  0  0  0
   18.3450  -13.2648  -17.9639 C   0  0  2  0  0  0  0  0  0  0  0  0
   19.1133  -14.4067  -18.5307 N   0  0  0  0  0  0  0  0  0  0  0  0
   19.3364  -12.3015  -17.5315 C   0  0  0  0  0  0  0  0  0  0  0  0
   20.2611  -12.6827  -16.7640 O   0  0  0  0  0  0  0  0  0  0  0  0
   19.9986   -8.6012  -19.4148 C   0  0  0  0  0  0  0  0  0  0  0  0
   21.0250   -9.3064  -18.5924 C   0  0  2  0  0  0  0  0  0  0  0  0
   21.7480  -10.3749  -19.3946 C   0  0  0  0  0  0  0  0  0  0  0  0
   20.3806  -10.0032  -17.3805 C   0  0  2  0  0  0  0  0  0  0  0  0
   19.4014  -10.9233  -17.8826 N   0  0  0  0  0  0  0  0  0  0  0  0
   19.8979   -9.0116  -16.4377 C   0  0  0  0  0  0  0  0  0  0  0  0
   18.7677   -8.4963  -16.6415 O   0  0  0  0  0  0  0  0  0  0  0  0
   21.5793   -8.3969  -12.6121 C   0  0  0  0  0  0  0  0  0  0  0  0
   20.1870   -7.9151  -12.9352 C   0  0  2  0  0  0  0  0  0  0  0  0
   19.2325   -9.0640  -12.6951 C   0  0  0  0  0  0  0  0  0  0  0  0
   20.1007   -7.5474  -14.3880 C   0  0  2  0  0  0  0  0  0  0  0  0
   20.5898   -8.5580  -15.2822 N   0  0  0  0  0  0  0  0  0  0  0  0
   20.8106   -6.2572  -14.5789 C   0  0  0  0  0  0  0  0  0  0  0  0
   20.3201   -5.2228  -14.0128 O   0  0  0  0  0  0  0  0  0  0  0  0
   21.9449   -6.1012  -15.3135 O   0  0  0  0  0  0  0  0  0  0  0  0
  2  3  1  0
  2  1  1  0
  3  4  1  6
  5  7  1  0
  5  3  1  0
  5  6  1  1
  7 13  1  0
  8  7  2  0
 10  9  1  6
 10 11  1  0
 10 12  1  0
 12 14  1  0
 12 13  1  6
 14 20  1  0
 14 15  2  0
 17 16  1  6
 17 19  1  0
 18 17  1  0
 19 21  1  0
 19 20  1  6
 21 22  2  0
 21 23  1  0
M  END
$$$$
