IVV.pdb
     RDKit          3D

 23 22  0  0  1  0  0  0  0  0999 V2000
   20.0119  -20.0141  -12.8971 C   0  0  0  0  0  0  0  0  0  0  0  0
   21.4610  -20.1134  -13.2169 C   0  0  0  0  0  0  0  0  0  0  0  0
   22.3200  -20.7511  -12.1525 C   0  0  2  0  0  0  0  0  0  0  0  0
   22.0007  -20.1152  -10.8467 C   0  0  0  0  0  0  0  0  0  0  0  0
   23.7429  -20.7060  -12.5963 C   0  0  2  0  0  0  0  0  0  0  0  0
   23.8014  -21.5863  -13.7951 N   0  0  0  0  0  0  0  0  0  0  0  0
   24.7575  -21.2072  -11.6922 C   0  0  0  0  0  0  0  0  0  0  0  0
   24.7396  -22.4267  -11.3733 O   0  0  0  0  0  0  0  0  0  0  0  0
   28.5749  -19.7300  -11.2482 C   0  0  0  0  0  0  0  0  0  0  0  0
   28.1169  -21.0746  -10.7907 C   0  0  2  0  0  0  0  0  0  0  0  0
   28.0030  -22.0514  -11.9486 C   0  0  0  0  0  0  0  0  0  0  0  0
   26.7311  -20.9911  -10.1258 C   0  0  2  0  0  0  0  0  0  0  0  0
   25.8173  -20.4648  -11.0982 N   0  0  0  0  0  0  0  0  0  0  0  0
   26.8240  -20.2578   -8.8773 C   0  0  0  0  0  0  0  0  0  0  0  0
   26.3840  -19.0790   -8.8446 O   0  0  0  0  0  0  0  0  0  0  0  0
   26.8139  -21.8061   -4.9118 C   0  0  0  0  0  0  0  0  0  0  0  0
   27.8834  -20.7978   -5.2501 C   0  0  2  0  0  0  0  0  0  0  0  0
   28.0097  -19.8469   -4.0803 C   0  0  0  0  0  0  0  0  0  0  0  0
   27.4643  -19.9944   -6.4469 C   0  0  2  0  0  0  0  0  0  0  0  0
   27.3723  -20.7515   -7.6627 N   0  0  0  0  0  0  0  0  0  0  0  0
   28.4010  -18.8503   -6.5838 C   0  0  0  0  0  0  0  0  0  0  0  0
   29.4338  -19.0158   -7.3165 O   0  0  0  0  0  0  0  0  0  0  0  0
   28.2353  -17.6406   -5.9839 O   0  0  0  0  0  0  0  0  0  0  0  0
  2  3  1  0
  2  1  1  0
  3  4  1  1
  5  7  1  0
  5  3  1  0
  5  6  1  6
  7 13  1  0
  8  7  2  0
 10  9  1  6
 10 11  1  0
 10 12  1  0
 12 14  1  0
 12 13  1  6
 14 20  1  0
 14 15  2  0
 17 16  1  1
 17 19  1  0
 18 17  1  0
 19 21  1  0
 19 20  1  6
 21 22  2  0
 21 23  1  0
M  END
$$$$
