IVV.pdb
     RDKit          3D

 23 22  0  0  1  0  0  0  0  0999 V2000
   39.3356   -6.5138   -6.0388 C   0  0  0  0  0  0  0  0  0  0  0  0
   39.0339   -7.9406   -6.3306 C   0  0  0  0  0  0  0  0  0  0  0  0
   38.2816   -8.1973   -7.6134 C   0  0  2  0  0  0  0  0  0  0  0  0
   36.9985   -7.4473   -7.5646 C   0  0  0  0  0  0  0  0  0  0  0  0
   38.1958   -9.6702   -7.8305 C   0  0  2  0  0  0  0  0  0  0  0  0
   37.5885  -10.2093   -6.5831 N   0  0  0  0  0  0  0  0  0  0  0  0
   39.4288  -10.4071   -8.0164 C   0  0  0  0  0  0  0  0  0  0  0  0
   39.8585  -11.1225   -7.0714 O   0  0  0  0  0  0  0  0  0  0  0  0
   41.7098  -10.2581  -11.6174 C   0  0  0  0  0  0  0  0  0  0  0  0
   41.6446  -11.5079  -10.8045 C   0  0  2  0  0  0  0  0  0  0  0  0
   40.4822  -12.3904  -11.2263 C   0  0  0  0  0  0  0  0  0  0  0  0
   41.4563  -11.1878   -9.3106 C   0  0  2  0  0  0  0  0  0  0  0  0
   40.2466  -10.4279   -9.1816 N   0  0  0  0  0  0  0  0  0  0  0  0
   42.6568  -10.5681   -8.7815 C   0  0  0  0  0  0  0  0  0  0  0  0
   42.7670   -9.3169   -8.8634 O   0  0  0  0  0  0  0  0  0  0  0  0
   45.7842  -12.6301   -6.5530 C   0  0  0  0  0  0  0  0  0  0  0  0
   45.4279  -11.1763   -6.3674 C   0  0  2  0  0  0  0  0  0  0  0  0
   44.3011  -11.1008   -5.3608 C   0  0  0  0  0  0  0  0  0  0  0  0
   44.9216  -10.6077   -7.6611 C   0  0  2  0  0  0  0  0  0  0  0  0
   43.7411  -11.2496   -8.1654 N   0  0  0  0  0  0  0  0  0  0  0  0
   46.0311  -10.6491   -8.6471 C   0  0  0  0  0  0  0  0  0  0  0  0
   45.9879  -11.5525   -9.5488 O   0  0  0  0  0  0  0  0  0  0  0  0
   47.0882   -9.7929   -8.6564 O   0  0  0  0  0  0  0  0  0  0  0  0
  2  3  1  0
  2  1  1  0
  3  4  1  1
  5  7  1  0
  5  3  1  0
  5  6  1  1
  7 13  1  0
  8  7  2  0
 10  9  1  6
 10 11  1  0
 10 12  1  0
 12 14  1  0
 12 13  1  6
 14 20  1  0
 14 15  2  0
 17 16  1  6
 17 19  1  0
 18 17  1  0
 19 21  1  0
 19 20  1  6
 21 22  2  0
 21 23  1  0
M  END
$$$$
