IVV.pdb
     RDKit          3D

 23 22  0  0  1  0  0  0  0  0999 V2000
   28.5744  -21.2747  -15.8536 C   0  0  0  0  0  0  0  0  0  0  0  0
   27.5042  -21.5895  -14.8699 C   0  0  0  0  0  0  0  0  0  0  0  0
   27.4896  -20.7324  -13.6278 C   0  0  2  0  0  0  0  0  0  0  0  0
   28.8585  -20.7223  -13.0470 C   0  0  0  0  0  0  0  0  0  0  0  0
   26.3826  -21.1940  -12.7417 C   0  0  2  0  0  0  0  0  0  0  0  0
   25.1476  -21.0493  -13.5598 N   0  0  0  0  0  0  0  0  0  0  0  0
   26.1320  -20.4574  -11.5200 C   0  0  0  0  0  0  0  0  0  0  0  0
   25.8412  -19.2330  -11.5964 O   0  0  0  0  0  0  0  0  0  0  0  0
   24.1895  -21.7598   -8.2153 C   0  0  0  0  0  0  0  0  0  0  0  0
   24.4761  -20.3491   -8.6089 C   0  0  2  0  0  0  0  0  0  0  0  0
   23.6299  -19.9153   -9.7937 C   0  0  0  0  0  0  0  0  0  0  0  0
   25.9512  -20.1756   -9.0134 C   0  0  2  0  0  0  0  0  0  0  0  0
   26.1711  -20.9652  -10.1905 N   0  0  0  0  0  0  0  0  0  0  0  0
   26.8124  -20.4655   -7.8823 C   0  0  0  0  0  0  0  0  0  0  0  0
   27.2226  -21.6461   -7.7330 O   0  0  0  0  0  0  0  0  0  0  0  0
   29.8048  -18.1680   -6.2818 C   0  0  0  0  0  0  0  0  0  0  0  0
   28.8541  -18.6897   -5.2334 C   0  0  2  0  0  0  0  0  0  0  0  0
   29.6795  -19.1975   -4.0718 C   0  0  0  0  0  0  0  0  0  0  0  0
   28.0787  -19.8515   -5.7833 C   0  0  2  0  0  0  0  0  0  0  0  0
   27.2487  -19.5271   -6.9084 N   0  0  0  0  0  0  0  0  0  0  0  0
   27.2900  -20.4446   -4.6738 C   0  0  0  0  0  0  0  0  0  0  0  0
   26.0419  -20.1783   -4.6270 O   0  0  0  0  0  0  0  0  0  0  0  0
   27.8040  -21.2504   -3.7057 O   0  0  0  0  0  0  0  0  0  0  0  0
  2  3  1  0
  2  1  1  0
  3  4  1  1
  5  7  1  0
  5  3  1  0
  5  6  1  6
  7 13  1  0
  8  7  2  0
 10  9  1  6
 10 11  1  0
 10 12  1  0
 12 14  1  0
 12 13  1  6
 14 20  1  0
 14 15  2  0
 17 16  1  6
 17 19  1  0
 18 17  1  0
 19 21  1  0
 19 20  1  6
 21 22  2  0
 21 23  1  0
M  END
$$$$
