IVV.pdb
     RDKit          3D

 23 22  0  0  1  0  0  0  0  0999 V2000
   18.8937  -17.2486  -16.1024 C   0  0  0  0  0  0  0  0  0  0  0  0
   19.9956  -18.1828  -16.4561 C   0  0  0  0  0  0  0  0  0  0  0  0
   20.5884  -18.9559  -15.3034 C   0  0  2  0  0  0  0  0  0  0  0  0
   20.8966  -18.0013  -14.2057 C   0  0  0  0  0  0  0  0  0  0  0  0
   21.7172  -19.7854  -15.8147 C   0  0  2  0  0  0  0  0  0  0  0  0
   21.0920  -20.7420  -16.7685 N   0  0  0  0  0  0  0  0  0  0  0  0
   22.4512  -20.5995  -14.8679 C   0  0  0  0  0  0  0  0  0  0  0  0
   21.8113  -21.3768  -14.1091 O   0  0  0  0  0  0  0  0  0  0  0  0
   26.5059  -21.7204  -15.2039 C   0  0  0  0  0  0  0  0  0  0  0  0
   25.4353  -22.4309  -14.4450 C   0  0  2  0  0  0  0  0  0  0  0  0
   24.5424  -23.2453  -15.3656 C   0  0  0  0  0  0  0  0  0  0  0  0
   24.5316  -21.4340  -13.6971 C   0  0  2  0  0  0  0  0  0  0  0  0
   23.8625  -20.6354  -14.6829 N   0  0  0  0  0  0  0  0  0  0  0  0
   25.3068  -20.7078  -12.7088 C   0  0  0  0  0  0  0  0  0  0  0  0
   25.6994  -19.5467  -12.9953 O   0  0  0  0  0  0  0  0  0  0  0  0
   24.7686  -20.5092   -8.7400 C   0  0  0  0  0  0  0  0  0  0  0  0
   26.2184  -20.7853   -9.0510 C   0  0  2  0  0  0  0  0  0  0  0  0
   27.0585  -19.8516   -8.2076 C   0  0  0  0  0  0  0  0  0  0  0  0
   26.4977  -20.4724  -10.4923 C   0  0  2  0  0  0  0  0  0  0  0  0
   25.6714  -21.1885  -11.4221 N   0  0  0  0  0  0  0  0  0  0  0  0
   27.9411  -20.7135  -10.7440 C   0  0  0  0  0  0  0  0  0  0  0  0
   28.2810  -21.8636  -11.1830 O   0  0  0  0  0  0  0  0  0  0  0  0
   28.9244  -19.7959  -10.5397 O   0  0  0  0  0  0  0  0  0  0  0  0
  2  3  1  0
  2  1  1  0
  3  4  1  1
  5  7  1  0
  5  3  1  0
  5  6  1  6
  7 13  1  0
  8  7  2  0
 10  9  1  6
 10 11  1  0
 10 12  1  0
 12 14  1  0
 12 13  1  6
 14 20  1  0
 14 15  2  0
 17 16  1  1
 17 19  1  0
 18 17  1  0
 19 21  1  0
 19 20  1  6
 21 22  2  0
 21 23  1  0
M  END
$$$$
