IVV.pdb
     RDKit          3D

 23 22  0  0  1  0  0  0  0  0999 V2000
   15.9514  -14.3310  -19.4960 C   0  0  0  0  0  0  0  0  0  0  0  0
   17.2681  -14.5020  -18.8260 C   0  0  0  0  0  0  0  0  0  0  0  0
   17.6634  -13.3975  -17.8766 C   0  0  2  0  0  0  0  0  0  0  0  0
   17.6102  -12.1051  -18.6102 C   0  0  0  0  0  0  0  0  0  0  0  0
   18.9612  -13.7588  -17.2369 C   0  0  2  0  0  0  0  0  0  0  0  0
   18.6921  -15.0289  -16.5089 N   0  0  0  0  0  0  0  0  0  0  0  0
   19.5140  -12.8520  -16.2520 C   0  0  0  0  0  0  0  0  0  0  0  0
   18.8517  -12.6117  -15.2065 O   0  0  0  0  0  0  0  0  0  0  0  0
   23.2117  -10.1765  -14.3402 C   0  0  0  0  0  0  0  0  0  0  0  0
   22.6805  -11.2933  -15.1755 C   0  0  2  0  0  0  0  0  0  0  0  0
   23.3566  -11.3465  -16.5349 C   0  0  0  0  0  0  0  0  0  0  0  0
   21.1699  -11.1298  -15.4230 C   0  0  2  0  0  0  0  0  0  0  0  0
   20.7643  -12.1742  -16.3186 N   0  0  0  0  0  0  0  0  0  0  0  0
   20.8822   -9.7745  -15.8536 C   0  0  0  0  0  0  0  0  0  0  0  0
   21.1426   -9.4598  -17.0442 O   0  0  0  0  0  0  0  0  0  0  0  0
   17.7076   -7.9904  -16.2182 C   0  0  0  0  0  0  0  0  0  0  0  0
   18.5512   -7.0630  -15.3796 C   0  0  2  0  0  0  0  0  0  0  0  0
   18.3795   -5.6620  -15.9239 C   0  0  0  0  0  0  0  0  0  0  0  0
   20.0002   -7.4304  -15.5168 C   0  0  2  0  0  0  0  0  0  0  0  0
   20.3217   -8.7478  -15.0466 N   0  0  0  0  0  0  0  0  0  0  0  0
   20.8055   -6.3910  -14.8268 C   0  0  0  0  0  0  0  0  0  0  0  0
   21.0763   -6.5751  -13.5924 O   0  0  0  0  0  0  0  0  0  0  0  0
   21.2738   -5.2586  -15.4175 O   0  0  0  0  0  0  0  0  0  0  0  0
  2  3  1  0
  2  1  1  0
  3  4  1  6
  5  7  1  0
  5  3  1  0
  5  6  1  1
  7 13  1  0
  8  7  2  0
 10  9  1  1
 10 11  1  0
 10 12  1  0
 12 14  1  0
 12 13  1  6
 14 20  1  0
 14 15  2  0
 17 16  1  6
 17 19  1  0
 18 17  1  0
 19 21  1  0
 19 20  1  1
 21 22  2  0
 21 23  1  0
M  END
$$$$
