IVV.pdb
     RDKit          3D

 23 22  0  0  1  0  0  0  0  0999 V2000
   20.7067  -20.0649  -12.5912 C   0  0  0  0  0  0  0  0  0  0  0  0
   22.1367  -20.2587  -12.9511 C   0  0  0  0  0  0  0  0  0  0  0  0
   23.0122  -20.8212  -11.8580 C   0  0  2  0  0  0  0  0  0  0  0  0
   22.7760  -20.0380  -10.6162 C   0  0  0  0  0  0  0  0  0  0  0  0
   24.4157  -20.8895  -12.3575 C   0  0  2  0  0  0  0  0  0  0  0  0
   24.3837  -21.8855  -13.4631 N   0  0  0  0  0  0  0  0  0  0  0  0
   25.4443  -21.3479  -11.4466 C   0  0  0  0  0  0  0  0  0  0  0  0
   25.3975  -22.5344  -11.0232 O   0  0  0  0  0  0  0  0  0  0  0  0
   29.8113  -21.6564   -9.4936 C   0  0  0  0  0  0  0  0  0  0  0  0
   28.8404  -21.1412  -10.5030 C   0  0  2  0  0  0  0  0  0  0  0  0
   29.2269  -19.7573  -10.9965 C   0  0  0  0  0  0  0  0  0  0  0  0
   27.4253  -21.0344   -9.9063 C   0  0  2  0  0  0  0  0  0  0  0  0
   26.5480  -20.5961  -10.9531 N   0  0  0  0  0  0  0  0  0  0  0  0
   27.4522  -20.2113   -8.7118 C   0  0  0  0  0  0  0  0  0  0  0  0
   27.0110  -19.0349   -8.7889 O   0  0  0  0  0  0  0  0  0  0  0  0
   26.9850  -21.5000   -4.7204 C   0  0  0  0  0  0  0  0  0  0  0  0
   28.1263  -20.5484   -4.9788 C   0  0  2  0  0  0  0  0  0  0  0  0
   28.1516  -19.5393   -3.8520 C   0  0  0  0  0  0  0  0  0  0  0  0
   27.8837  -19.7984   -6.2563 C   0  0  2  0  0  0  0  0  0  0  0  0
   27.9356  -20.6126   -7.4371 N   0  0  0  0  0  0  0  0  0  0  0  0
   28.8535  -18.6759   -6.3220 C   0  0  0  0  0  0  0  0  0  0  0  0
   29.9000  -18.8393   -7.0356 O   0  0  0  0  0  0  0  0  0  0  0  0
   28.7047  -17.4880   -5.6760 O   0  0  0  0  0  0  0  0  0  0  0  0
  2  3  1  0
  2  1  1  0
  3  4  1  1
  5  7  1  0
  5  3  1  0
  5  6  1  6
  7 13  1  0
  8  7  2  0
 10  9  1  1
 10 11  1  0
 10 12  1  0
 12 14  1  0
 12 13  1  6
 14 20  1  0
 14 15  2  0
 17 16  1  1
 17 19  1  0
 18 17  1  0
 19 21  1  0
 19 20  1  6
 21 22  2  0
 21 23  1  0
M  END
$$$$
