IVV.pdb
     RDKit          3D

 23 22  0  0  1  0  0  0  0  0999 V2000
   20.0625  -19.3361  -14.4389 C   0  0  0  0  0  0  0  0  0  0  0  0
   21.3653  -19.9673  -14.7799 C   0  0  0  0  0  0  0  0  0  0  0  0
   22.2259  -20.3595  -13.6038 C   0  0  2  0  0  0  0  0  0  0  0  0
   22.2749  -19.2159  -12.6546 C   0  0  0  0  0  0  0  0  0  0  0  0
   23.5304  -20.8698  -14.1153 C   0  0  2  0  0  0  0  0  0  0  0  0
   23.1929  -22.1135  -14.8602 N   0  0  0  0  0  0  0  0  0  0  0  0
   24.5407  -21.2527  -13.1506 C   0  0  0  0  0  0  0  0  0  0  0  0
   24.3182  -22.2365  -12.3943 O   0  0  0  0  0  0  0  0  0  0  0  0
   28.4248  -21.5318  -13.6585 C   0  0  0  0  0  0  0  0  0  0  0  0
   28.1478  -20.7279  -12.4321 C   0  0  2  0  0  0  0  0  0  0  0  0
   29.1150  -21.0659  -11.3105 C   0  0  0  0  0  0  0  0  0  0  0  0
   26.7262  -20.9941  -11.9048 C   0  0  2  0  0  0  0  0  0  0  0  0
   25.8062  -20.6337  -12.9446 N   0  0  0  0  0  0  0  0  0  0  0  0
   26.5382  -20.3283  -10.6295 C   0  0  0  0  0  0  0  0  0  0  0  0
   26.2196  -19.1105  -10.6345 O   0  0  0  0  0  0  0  0  0  0  0  0
   24.5141  -21.7611   -7.5048 C   0  0  0  0  0  0  0  0  0  0  0  0
   25.8300  -21.1828   -7.0477 C   0  0  2  0  0  0  0  0  0  0  0  0
   25.5643  -20.3438   -5.8172 C   0  0  0  0  0  0  0  0  0  0  0  0
   26.3817  -20.2744   -8.1078 C   0  0  2  0  0  0  0  0  0  0  0  0
   26.6792  -20.9297   -9.3496 N   0  0  0  0  0  0  0  0  0  0  0  0
   27.5754  -19.5891   -7.5506 C   0  0  0  0  0  0  0  0  0  0  0  0
   28.7194  -20.1021   -7.7937 O   0  0  0  0  0  0  0  0  0  0  0  0
   27.5347  -18.4548   -6.8007 O   0  0  0  0  0  0  0  0  0  0  0  0
  2  3  1  0
  2  1  1  0
  3  4  1  1
  5  7  1  0
  5  3  1  0
  5  6  1  1
  7 13  1  0
  8  7  2  0
 10  9  1  6
 10 11  1  0
 10 12  1  0
 12 14  1  0
 12 13  1  6
 14 20  1  0
 14 15  2  0
 17 16  1  6
 17 19  1  0
 18 17  1  0
 19 21  1  0
 19 20  1  6
 21 22  2  0
 21 23  1  0
M  END
$$$$
