IVV.pdb
     RDKit          3D

 23 22  0  0  1  0  0  0  0  0999 V2000
   28.4306  -19.7853   -3.6421 C   0  0  0  0  0  0  0  0  0  0  0  0
   27.4531  -19.5228   -4.7318 C   0  0  0  0  0  0  0  0  0  0  0  0
   27.6895  -20.2815   -6.0147 C   0  0  2  0  0  0  0  0  0  0  0  0
   29.1181  -20.1257   -6.3972 C   0  0  0  0  0  0  0  0  0  0  0  0
   26.6710  -19.8548   -7.0170 C   0  0  2  0  0  0  0  0  0  0  0  0
   25.3585  -20.1903   -6.4002 N   0  0  0  0  0  0  0  0  0  0  0  0
   26.6725  -20.5030   -8.3122 C   0  0  0  0  0  0  0  0  0  0  0  0
   27.7629  -20.9340   -8.7757 O   0  0  0  0  0  0  0  0  0  0  0  0
   24.2127  -22.2885  -12.2658 C   0  0  0  0  0  0  0  0  0  0  0  0
   24.2036  -21.5952  -10.9443 C   0  0  2  0  0  0  0  0  0  0  0  0
   23.4087  -20.3016  -10.9959 C   0  0  0  0  0  0  0  0  0  0  0  0
   25.6323  -21.2357  -10.4977 C   0  0  2  0  0  0  0  0  0  0  0  0
   25.5502  -20.7264   -9.1593 N   0  0  0  0  0  0  0  0  0  0  0  0
   26.2513  -20.3601  -11.4751 C   0  0  0  0  0  0  0  0  0  0  0  0
   26.0006  -19.1281  -11.4145 O   0  0  0  0  0  0  0  0  0  0  0  0
   28.9970  -21.6710  -14.5774 C   0  0  0  0  0  0  0  0  0  0  0  0
   29.1276  -20.3311  -13.8973 C   0  0  2  0  0  0  0  0  0  0  0  0
   30.0025  -20.5149  -12.6769 C   0  0  0  0  0  0  0  0  0  0  0  0
   27.7802  -19.8668  -13.4258 C   0  0  2  0  0  0  0  0  0  0  0  0
   27.1326  -20.7658  -12.5135 N   0  0  0  0  0  0  0  0  0  0  0  0
   26.9408  -19.6014  -14.6216 C   0  0  0  0  0  0  0  0  0  0  0  0
   26.0153  -20.4387  -14.8924 O   0  0  0  0  0  0  0  0  0  0  0  0
   27.0891  -18.5301  -15.4469 O   0  0  0  0  0  0  0  0  0  0  0  0
  2  3  1  0
  2  1  1  0
  3  4  1  6
  5  7  1  0
  5  3  1  0
  5  6  1  1
  7 13  1  0
  8  7  2  0
 10  9  1  6
 10 11  1  0
 10 12  1  0
 12 14  1  0
 12 13  1  1
 14 20  1  0
 14 15  2  0
 17 16  1  1
 17 19  1  0
 18 17  1  0
 19 21  1  0
 19 20  1  1
 21 22  2  0
 21 23  1  0
M  END
$$$$
