GFT.pdb
     RDKit          3D

 23 23  0  0  1  0  0  0  0  0999 V2000
   31.1283  -22.6584  -10.0242 N   0  0  0  0  0  0  0  0  0  0  0  0
   30.5441  -21.3351  -10.0881 C   0  0  0  0  0  0  0  0  0  0  0  0
   29.1307  -21.4315   -9.6395 C   0  0  0  0  0  0  0  0  0  0  0  0
   28.5347  -22.5541   -9.6594 O   0  0  0  0  0  0  0  0  0  0  0  0
   28.4194  -20.3119   -9.1880 N   0  0  0  0  0  0  0  0  0  0  0  0
   27.0086  -20.3871   -8.7763 C   0  0  1  0  0  0  0  0  0  0  0  0
   26.8492  -19.3755   -7.6817 C   0  0  0  0  0  0  0  0  0  0  0  0
   27.5879  -19.6840   -6.4487 C   0  0  0  0  0  0  0  0  0  0  0  0
   28.5843  -18.7832   -6.0621 C   0  0  0  0  0  0  0  0  0  0  0  0
   29.3329  -18.9788   -4.9212 C   0  0  0  0  0  0  0  0  0  0  0  0
   29.0935  -20.0813   -4.1502 C   0  0  0  0  0  0  0  0  0  0  0  0
   28.1134  -20.9690   -4.5288 C   0  0  0  0  0  0  0  0  0  0  0  0
   27.3622  -20.7747   -5.6716 C   0  0  0  0  0  0  0  0  0  0  0  0
   26.1465  -20.1116   -9.9375 C   0  0  0  0  0  0  0  0  0  0  0  0
   26.5984  -19.4644  -10.8945 O   0  0  0  0  0  0  0  0  0  0  0  0
   26.1189  -20.8345  -12.4561 C   0  0  0  0  0  0  0  0  0  0  0  0
   24.6654  -21.2841  -12.3238 C   0  0  1  0  0  0  0  0  0  0  0  0
   24.7070  -22.6633  -12.1205 O   0  0  0  0  0  0  0  0  0  0  0  0
   24.0078  -20.5765  -11.1579 C   0  0  2  0  0  0  0  0  0  0  0  0
   24.8086  -20.5745   -9.9785 N   0  0  0  0  0  0  0  0  0  0  0  0
   22.6278  -21.0702  -10.9260 C   0  0  0  0  0  0  0  0  0  0  0  0
   21.7051  -20.9312  -11.7818 O   0  0  0  0  0  0  0  0  0  0  0  0
   22.2770  -21.7144   -9.7489 O   0  0  0  0  0  0  0  0  0  0  0  0
  2  1  1  0
  2  3  1  0
  3  5  1  0
  3  4  2  0
  5  6  1  0
  6  7  1  1
  6 14  1  0
  8  9  2  0
  8  7  1  0
 10  9  1  0
 11 10  2  0
 12 11  1  0
 12 13  2  0
 13  8  1  0
 14 20  1  0
 15 14  2  0
 17 16  1  1
 17 18  1  0
 19 21  1  0
 19 17  1  0
 19 20  1  1
 21 23  1  0
 22 21  2  0
M  END
$$$$
