GFT.pdb
     RDKit          3D

 23 23  0  0  1  0  0  0  0  0999 V2000
   29.3040  -20.7206  -16.5281 N   0  0  0  0  0  0  0  0  0  0  0  0
   28.9276  -19.8285  -15.4515 C   0  0  0  0  0  0  0  0  0  0  0  0
   28.0725  -20.5859  -14.5011 C   0  0  0  0  0  0  0  0  0  0  0  0
   27.5645  -21.6969  -14.8527 O   0  0  0  0  0  0  0  0  0  0  0  0
   27.8011  -20.1124  -13.2105 N   0  0  0  0  0  0  0  0  0  0  0  0
   26.9323  -20.8383  -12.2705 C   0  0  1  0  0  0  0  0  0  0  0  0
   27.5220  -20.6100  -10.9115 C   0  0  0  0  0  0  0  0  0  0  0  0
   28.8910  -21.1185  -10.7433 C   0  0  0  0  0  0  0  0  0  0  0  0
   29.0951  -22.0787   -9.7481 C   0  0  0  0  0  0  0  0  0  0  0  0
   30.3399  -22.6213   -9.5111 C   0  0  0  0  0  0  0  0  0  0  0  0
   31.3997  -22.2090  -10.2688 C   0  0  0  0  0  0  0  0  0  0  0  0
   31.2012  -21.2643  -11.2486 C   0  0  0  0  0  0  0  0  0  0  0  0
   29.9545  -20.7195  -11.4876 C   0  0  0  0  0  0  0  0  0  0  0  0
   25.5554  -20.3304  -12.3874 C   0  0  0  0  0  0  0  0  0  0  0  0
   25.2948  -19.1780  -12.0091 O   0  0  0  0  0  0  0  0  0  0  0  0
   23.9135  -19.4487  -15.2306 C   0  0  0  0  0  0  0  0  0  0  0  0
   22.9170  -20.4487  -14.6485 C   0  0  1  0  0  0  0  0  0  0  0  0
   23.0843  -21.6262  -15.3771 O   0  0  0  0  0  0  0  0  0  0  0  0
   23.2014  -20.6679  -13.1776 C   0  0  2  0  0  0  0  0  0  0  0  0
   24.5236  -21.1376  -12.9255 N   0  0  0  0  0  0  0  0  0  0  0  0
   22.1537  -21.4997  -12.5355 C   0  0  0  0  0  0  0  0  0  0  0  0
   22.3919  -22.6559  -12.0776 O   0  0  0  0  0  0  0  0  0  0  0  0
   20.8492  -21.0475  -12.4040 O   0  0  0  0  0  0  0  0  0  0  0  0
  2  1  1  0
  2  3  1  0
  3  5  1  0
  3  4  2  0
  5  6  1  0
  6  7  1  1
  6 14  1  0
  8  9  2  0
  8  7  1  0
 10  9  1  0
 11 10  2  0
 12 11  1  0
 12 13  2  0
 13  8  1  0
 14 20  1  0
 15 14  2  0
 17 16  1  6
 17 18  1  0
 19 21  1  0
 19 17  1  0
 19 20  1  6
 21 23  1  0
 22 21  2  0
M  END
$$$$
