GFT.pdb
     RDKit          3D

 23 23  0  0  1  0  0  0  0  0999 V2000
   31.1582  -22.2973  -10.3446 N   0  0  0  0  0  0  0  0  0  0  0  0
   30.6036  -20.9996  -10.0206 C   0  0  0  0  0  0  0  0  0  0  0  0
   29.1973  -21.1944   -9.5816 C   0  0  0  0  0  0  0  0  0  0  0  0
   28.6874  -22.3589   -9.5867 O   0  0  0  0  0  0  0  0  0  0  0  0
   28.3998  -20.1241   -9.1555 N   0  0  0  0  0  0  0  0  0  0  0  0
   26.9897  -20.2951   -8.7712 C   0  0  1  0  0  0  0  0  0  0  0  0
   26.7686  -19.3716   -7.6114 C   0  0  0  0  0  0  0  0  0  0  0  0
   27.5227  -19.7187   -6.3982 C   0  0  0  0  0  0  0  0  0  0  0  0
   28.4261  -18.7670   -5.9168 C   0  0  0  0  0  0  0  0  0  0  0  0
   29.1801  -18.9930   -4.7851 C   0  0  0  0  0  0  0  0  0  0  0  0
   29.0396  -20.1776   -4.1186 C   0  0  0  0  0  0  0  0  0  0  0  0
   28.1512  -21.1156   -4.5906 C   0  0  0  0  0  0  0  0  0  0  0  0
   27.3947  -20.8909   -5.7243 C   0  0  0  0  0  0  0  0  0  0  0  0
   26.1287  -19.9802   -9.9232 C   0  0  0  0  0  0  0  0  0  0  0  0
   26.2498  -18.8864  -10.4960 O   0  0  0  0  0  0  0  0  0  0  0  0
   26.2638  -21.4093  -13.0041 C   0  0  0  0  0  0  0  0  0  0  0  0
   24.7743  -21.5822  -12.7150 C   0  0  1  0  0  0  0  0  0  0  0  0
   24.5953  -22.9328  -12.4160 O   0  0  0  0  0  0  0  0  0  0  0  0
   24.3664  -20.7034  -11.5515 C   0  0  2  0  0  0  0  0  0  0  0  0
   25.1639  -20.9073  -10.3874 N   0  0  0  0  0  0  0  0  0  0  0  0
   22.9095  -20.7907  -11.2840 C   0  0  0  0  0  0  0  0  0  0  0  0
   22.4464  -21.1160  -10.1514 O   0  0  0  0  0  0  0  0  0  0  0  0
   21.9741  -20.5175  -12.2708 O   0  0  0  0  0  0  0  0  0  0  0  0
  2  1  1  0
  2  3  1  0
  3  5  1  0
  3  4  2  0
  5  6  1  0
  6  7  1  1
  6 14  1  0
  8  9  2  0
  8  7  1  0
 10  9  1  0
 11 10  2  0
 12 11  1  0
 12 13  2  0
 13  8  1  0
 14 20  1  0
 15 14  2  0
 17 16  1  1
 17 18  1  0
 19 21  1  0
 19 17  1  0
 19 20  1  1
 21 23  1  0
 22 21  2  0
M  END
$$$$
