GFT.pdb
     RDKit          3D

 23 23  0  0  1  0  0  0  0  0999 V2000
   11.7759  -16.3427    3.6248 N   0  0  0  0  0  0  0  0  0  0  0  0
   12.5688  -15.7278    4.6687 C   0  0  0  0  0  0  0  0  0  0  0  0
   13.8423  -16.4841    4.7882 C   0  0  0  0  0  0  0  0  0  0  0  0
   14.0630  -17.4779    4.0269 O   0  0  0  0  0  0  0  0  0  0  0  0
   14.8248  -16.1363    5.7247 N   0  0  0  0  0  0  0  0  0  0  0  0
   16.0724  -16.9010    5.8801 C   0  0  1  0  0  0  0  0  0  0  0  0
   17.1682  -15.8813    5.9584 C   0  0  0  0  0  0  0  0  0  0  0  0
   17.5010  -15.2386    4.6789 C   0  0  0  0  0  0  0  0  0  0  0  0
   18.1665  -16.0190    3.7293 C   0  0  0  0  0  0  0  0  0  0  0  0
   18.5214  -15.5125    2.4972 C   0  0  0  0  0  0  0  0  0  0  0  0
   18.2141  -14.2149    2.1986 C   0  0  0  0  0  0  0  0  0  0  0  0
   17.5592  -13.4452    3.1316 C   0  0  0  0  0  0  0  0  0  0  0  0
   17.2027  -13.9510    4.3666 C   0  0  0  0  0  0  0  0  0  0  0  0
   15.9843  -17.7376    7.0883 C   0  0  0  0  0  0  0  0  0  0  0  0
   15.4468  -17.2821    8.1094 O   0  0  0  0  0  0  0  0  0  0  0  0
   16.0615  -22.2509    9.0642 C   0  0  0  0  0  0  0  0  0  0  0  0
   16.3436  -21.3929    7.8328 C   0  0  1  0  0  0  0  0  0  0  0  0
   15.2931  -21.6341    6.9476 O   0  0  0  0  0  0  0  0  0  0  0  0
   16.4084  -19.9313    8.2230 C   0  0  2  0  0  0  0  0  0  0  0  0
   16.5041  -19.0550    7.1026 N   0  0  0  0  0  0  0  0  0  0  0  0
   17.4520  -19.6844    9.2485 C   0  0  0  0  0  0  0  0  0  0  0  0
   18.6887  -19.7169    8.9789 O   0  0  0  0  0  0  0  0  0  0  0  0
   17.1212  -19.4031   10.5656 O   0  0  0  0  0  0  0  0  0  0  0  0
  2  1  1  0
  2  3  1  0
  3  5  1  0
  3  4  2  0
  5  6  1  0
  6  7  1  1
  6 14  1  0
  8  9  2  0
  8  7  1  0
 10  9  1  0
 11 10  2  0
 12 11  1  0
 12 13  2  0
 13  8  1  0
 14 20  1  0
 15 14  2  0
 17 16  1  1
 17 18  1  0
 19 21  1  0
 19 17  1  0
 19 20  1  6
 21 23  1  0
 22 21  2  0
M  END
$$$$
