GFT.pdb
     RDKit          3D

 23 23  0  0  1  0  0  0  0  0999 V2000
   25.9172  -22.8603  -15.2137 N   0  0  0  0  0  0  0  0  0  0  0  0
   25.4327  -21.6739  -15.8877 C   0  0  0  0  0  0  0  0  0  0  0  0
   24.2930  -21.1301  -15.1043 C   0  0  0  0  0  0  0  0  0  0  0  0
   24.1344  -21.4774  -13.8918 O   0  0  0  0  0  0  0  0  0  0  0  0
   23.3718  -20.2338  -15.6624 N   0  0  0  0  0  0  0  0  0  0  0  0
   22.2634  -19.6563  -14.8857 C   0  0  1  0  0  0  0  0  0  0  0  0
   22.2343  -18.1997  -15.2384 C   0  0  0  0  0  0  0  0  0  0  0  0
   21.1542  -17.4349  -14.5985 C   0  0  0  0  0  0  0  0  0  0  0  0
   21.3012  -17.1418  -13.2397 C   0  0  0  0  0  0  0  0  0  0  0  0
   20.3471  -16.4280  -12.5465 C   0  0  0  0  0  0  0  0  0  0  0  0
   19.2305  -15.9970  -13.2058 C   0  0  0  0  0  0  0  0  0  0  0  0
   19.0838  -16.2843  -14.5429 C   0  0  0  0  0  0  0  0  0  0  0  0
   20.0388  -16.9994  -15.2392 C   0  0  0  0  0  0  0  0  0  0  0  0
   21.0123  -20.3516  -15.2303 C   0  0  0  0  0  0  0  0  0  0  0  0
   20.7735  -20.6290  -16.4157 O   0  0  0  0  0  0  0  0  0  0  0  0
   19.9406  -23.5872  -14.5263 C   0  0  0  0  0  0  0  0  0  0  0  0
   18.7732  -22.7727  -13.9733 C   0  0  1  0  0  0  0  0  0  0  0  0
   18.9067  -22.8035  -12.5852 O   0  0  0  0  0  0  0  0  0  0  0  0
   18.8350  -21.3544  -14.4997 C   0  0  2  0  0  0  0  0  0  0  0  0
   20.0768  -20.7087  -14.2287 N   0  0  0  0  0  0  0  0  0  0  0  0
   17.6576  -20.5597  -14.0709 C   0  0  0  0  0  0  0  0  0  0  0  0
   16.4713  -20.8961  -14.3581 O   0  0  0  0  0  0  0  0  0  0  0  0
   17.7998  -19.3977  -13.3271 O   0  0  0  0  0  0  0  0  0  0  0  0
  2  1  1  0
  2  3  1  0
  3  5  1  0
  3  4  2  0
  5  6  1  0
  6  7  1  6
  6 14  1  0
  8  9  2  0
  8  7  1  0
 10  9  1  0
 11 10  2  0
 12 11  1  0
 12 13  2  0
 13  8  1  0
 14 20  1  0
 15 14  2  0
 17 16  1  6
 17 18  1  0
 19 21  1  0
 19 17  1  0
 19 20  1  1
 21 23  1  0
 22 21  2  0
M  END
$$$$
