GFT.pdb
     RDKit          3D

 23 23  0  0  1  0  0  0  0  0999 V2000
   31.6739  -22.9896  -12.0675 N   0  0  0  0  0  0  0  0  0  0  0  0
   31.5425  -21.6588  -11.5122 C   0  0  0  0  0  0  0  0  0  0  0  0
   30.4732  -21.6917  -10.4808 C   0  0  0  0  0  0  0  0  0  0  0  0
   29.7173  -22.7092  -10.3840 O   0  0  0  0  0  0  0  0  0  0  0  0
   30.2644  -20.6249   -9.5967 N   0  0  0  0  0  0  0  0  0  0  0  0
   29.1856  -20.6295   -8.5959 C   0  0  1  0  0  0  0  0  0  0  0  0
   29.6371  -19.7047   -7.5060 C   0  0  0  0  0  0  0  0  0  0  0  0
   28.8535  -19.7899   -6.2652 C   0  0  0  0  0  0  0  0  0  0  0  0
   27.6164  -19.1395   -6.2484 C   0  0  0  0  0  0  0  0  0  0  0  0
   26.8033  -19.1606   -5.1353 C   0  0  0  0  0  0  0  0  0  0  0  0
   27.2188  -19.8345   -4.0216 C   0  0  0  0  0  0  0  0  0  0  0  0
   28.4359  -20.4752   -4.0359 C   0  0  0  0  0  0  0  0  0  0  0  0
   29.2519  -20.4553   -5.1503 C   0  0  0  0  0  0  0  0  0  0  0  0
   27.9303  -20.1939   -9.2299 C   0  0  0  0  0  0  0  0  0  0  0  0
   27.9225  -19.1703   -9.9307 O   0  0  0  0  0  0  0  0  0  0  0  0
   24.2737  -21.1162  -11.9171 C   0  0  0  0  0  0  0  0  0  0  0  0
   25.5417  -21.4497  -11.1340 C   0  0  1  0  0  0  0  0  0  0  0  0
   26.6075  -21.0558  -11.9428 O   0  0  0  0  0  0  0  0  0  0  0  0
   25.5480  -20.7049   -9.8157 C   0  0  2  0  0  0  0  0  0  0  0  0
   26.7311  -20.9261   -9.0517 N   0  0  0  0  0  0  0  0  0  0  0  0
   24.3023  -20.9443   -9.0459 C   0  0  0  0  0  0  0  0  0  0  0  0
   24.3052  -21.4935   -7.9050 O   0  0  0  0  0  0  0  0  0  0  0  0
   23.0613  -20.5749   -9.5427 O   0  0  0  0  0  0  0  0  0  0  0  0
  2  1  1  0
  2  3  1  0
  3  5  1  0
  3  4  2  0
  5  6  1  0
  6  7  1  1
  6 14  1  0
  8  9  2  0
  8  7  1  0
 10  9  1  0
 11 10  2  0
 12 11  1  0
 12 13  2  0
 13  8  1  0
 14 20  1  0
 15 14  2  0
 17 16  1  6
 17 18  1  0
 19 21  1  0
 19 17  1  0
 19 20  1  1
 21 23  1  0
 22 21  2  0
M  END
$$$$
