GFT.pdb
     RDKit          3D

 23 23  0  0  1  0  0  0  0  0999 V2000
   27.3523  -24.6593  -16.6905 N   0  0  0  0  0  0  0  0  0  0  0  0
   27.3806  -23.2284  -16.4709 C   0  0  0  0  0  0  0  0  0  0  0  0
   26.5840  -22.9318  -15.2521 C   0  0  0  0  0  0  0  0  0  0  0  0
   25.5889  -23.6636  -14.9518 O   0  0  0  0  0  0  0  0  0  0  0  0
   26.8946  -21.8574  -14.4079 N   0  0  0  0  0  0  0  0  0  0  0  0
   26.1097  -21.5494  -13.2019 C   0  0  1  0  0  0  0  0  0  0  0  0
   27.0217  -20.7586  -12.3133 C   0  0  0  0  0  0  0  0  0  0  0  0
   26.4765  -20.4648  -10.9801 C   0  0  0  0  0  0  0  0  0  0  0  0
   25.9619  -21.5413  -10.2521 C   0  0  0  0  0  0  0  0  0  0  0  0
   25.4299  -21.3736   -8.9914 C   0  0  0  0  0  0  0  0  0  0  0  0
   25.4059  -20.1229   -8.4414 C   0  0  0  0  0  0  0  0  0  0  0  0
   25.9118  -19.0621   -9.1560 C   0  0  0  0  0  0  0  0  0  0  0  0
   26.4453  -19.2283  -10.4193 C   0  0  0  0  0  0  0  0  0  0  0  0
   24.8993  -20.8039  -13.5850 C   0  0  0  0  0  0  0  0  0  0  0  0
   24.9819  -19.8937  -14.4239 O   0  0  0  0  0  0  0  0  0  0  0  0
   22.8179  -21.0205  -15.7582 C   0  0  0  0  0  0  0  0  0  0  0  0
   21.7954  -21.0027  -14.6240 C   0  0  1  0  0  0  0  0  0  0  0  0
   21.3917  -22.3263  -14.4499 O   0  0  0  0  0  0  0  0  0  0  0  0
   22.4282  -20.4511  -13.3640 C   0  0  2  0  0  0  0  0  0  0  0  0
   23.6417  -21.1104  -13.0103 N   0  0  0  0  0  0  0  0  0  0  0  0
   21.4538  -20.3825  -12.2470 C   0  0  0  0  0  0  0  0  0  0  0  0
   21.5958  -21.0510  -11.1812 O   0  0  0  0  0  0  0  0  0  0  0  0
   20.3284  -19.5747  -12.3159 O   0  0  0  0  0  0  0  0  0  0  0  0
  2  1  1  0
  2  3  1  0
  3  5  1  0
  3  4  2  0
  5  6  1  0
  6  7  1  1
  6 14  1  0
  8  9  2  0
  8  7  1  0
 10  9  1  0
 11 10  2  0
 12 11  1  0
 12 13  2  0
 13  8  1  0
 14 20  1  0
 15 14  2  0
 17 16  1  6
 17 18  1  0
 19 21  1  0
 19 17  1  0
 19 20  1  1
 21 23  1  0
 22 21  2  0
M  END
$$$$
