GFT.pdb
     RDKit          3D

 23 23  0  0  1  0  0  0  0  0999 V2000
   22.3245    4.1896   -4.3322 N   0  0  0  0  0  0  0  0  0  0  0  0
   23.0645    4.9879   -3.3774 C   0  0  0  0  0  0  0  0  0  0  0  0
   23.4846    4.1016   -2.2609 C   0  0  0  0  0  0  0  0  0  0  0  0
   22.6078    3.5707   -1.5091 O   0  0  0  0  0  0  0  0  0  0  0  0
   24.8337    3.8253   -2.0026 N   0  0  0  0  0  0  0  0  0  0  0  0
   25.2640    2.9750   -0.8813 C   0  0  1  0  0  0  0  0  0  0  0  0
   26.0491    1.8560   -1.4964 C   0  0  0  0  0  0  0  0  0  0  0  0
   25.7186    0.5193   -0.9817 C   0  0  0  0  0  0  0  0  0  0  0  0
   26.4485    0.0636    0.1198 C   0  0  0  0  0  0  0  0  0  0  0  0
   26.2150   -1.1741    0.6803 C   0  0  0  0  0  0  0  0  0  0  0  0
   25.2455   -1.9740    0.1442 C   0  0  0  0  0  0  0  0  0  0  0  0
   24.5260   -1.5276   -0.9397 C   0  0  0  0  0  0  0  0  0  0  0  0
   24.7585   -0.2877   -1.5026 C   0  0  0  0  0  0  0  0  0  0  0  0
   26.0590    3.7780    0.0625 C   0  0  0  0  0  0  0  0  0  0  0  0
   26.7905    4.6821   -0.3693 O   0  0  0  0  0  0  0  0  0  0  0  0
   24.8753    5.6777    3.1415 C   0  0  0  0  0  0  0  0  0  0  0  0
   25.9710    4.7201    3.6050 C   0  0  1  0  0  0  0  0  0  0  0  0
   25.3152    3.6591    4.2291 O   0  0  0  0  0  0  0  0  0  0  0  0
   26.7797    4.2435    2.4170 C   0  0  2  0  0  0  0  0  0  0  0  0
   26.0013    3.5338    1.4564 N   0  0  0  0  0  0  0  0  0  0  0  0
   27.9956    3.5072    2.8426 C   0  0  0  0  0  0  0  0  0  0  0  0
   28.1929    2.2931    2.5424 O   0  0  0  0  0  0  0  0  0  0  0  0
   28.9856    4.1183    3.5976 O   0  0  0  0  0  0  0  0  0  0  0  0
  2  1  1  0
  2  3  1  0
  3  5  1  0
  3  4  2  0
  5  6  1  0
  6  7  1  6
  6 14  1  0
  8  9  2  0
  8  7  1  0
 10  9  1  0
 11 10  2  0
 12 11  1  0
 12 13  2  0
 13  8  1  0
 14 20  1  0
 15 14  2  0
 17 16  1  6
 17 18  1  0
 19 21  1  0
 19 17  1  0
 19 20  1  6
 21 23  1  0
 22 21  2  0
M  END
$$$$
