GFT.pdb
     RDKit          3D

 23 23  0  0  1  0  0  0  0  0999 V2000
   28.4999  -23.2318  -17.2228 N   0  0  0  0  0  0  0  0  0  0  0  0
   28.1054  -21.9161  -16.7647 C   0  0  0  0  0  0  0  0  0  0  0  0
   27.0795  -22.0847  -15.7029 C   0  0  0  0  0  0  0  0  0  0  0  0
   26.4691  -23.1931  -15.5817 O   0  0  0  0  0  0  0  0  0  0  0  0
   26.7552  -21.0496  -14.8159 N   0  0  0  0  0  0  0  0  0  0  0  0
   25.7655  -21.2143  -13.7395 C   0  0  1  0  0  0  0  0  0  0  0  0
   26.2628  -20.3802  -12.5976 C   0  0  0  0  0  0  0  0  0  0  0  0
   25.4884  -20.5163  -11.3555 C   0  0  0  0  0  0  0  0  0  0  0  0
   26.1266  -21.1260  -10.2717 C   0  0  0  0  0  0  0  0  0  0  0  0
   25.4897  -21.2995   -9.0615 C   0  0  0  0  0  0  0  0  0  0  0  0
   24.2022  -20.8640   -8.9198 C   0  0  0  0  0  0  0  0  0  0  0  0
   23.5722  -20.2637   -9.9850 C   0  0  0  0  0  0  0  0  0  0  0  0
   24.2089  -20.0889  -11.1983 C   0  0  0  0  0  0  0  0  0  0  0  0
   24.4425  -20.7873  -14.2239 C   0  0  0  0  0  0  0  0  0  0  0  0
   24.3428  -19.7471  -14.8925 O   0  0  0  0  0  0  0  0  0  0  0  0
   20.1176  -21.6166  -16.0020 C   0  0  0  0  0  0  0  0  0  0  0  0
   21.5652  -21.9483  -15.6463 C   0  0  1  0  0  0  0  0  0  0  0  0
   22.3301  -21.5573  -16.7452 O   0  0  0  0  0  0  0  0  0  0  0  0
   21.9767  -21.1995  -14.3963 C   0  0  2  0  0  0  0  0  0  0  0  0
   23.2814  -21.5463  -13.9382 N   0  0  0  0  0  0  0  0  0  0  0  0
   20.9418  -21.2926  -13.3370 C   0  0  0  0  0  0  0  0  0  0  0  0
   20.9569  -22.1978  -12.4520 O   0  0  0  0  0  0  0  0  0  0  0  0
   19.8968  -20.3837  -13.2633 O   0  0  0  0  0  0  0  0  0  0  0  0
  2  1  1  0
  2  3  1  0
  3  5  1  0
  3  4  2  0
  5  6  1  0
  6  7  1  1
  6 14  1  0
  8  9  2  0
  8  7  1  0
 10  9  1  0
 11 10  2  0
 12 11  1  0
 12 13  2  0
 13  8  1  0
 14 20  1  0
 15 14  2  0
 17 16  1  6
 17 18  1  0
 19 21  1  0
 19 17  1  0
 19 20  1  1
 21 23  1  0
 22 21  2  0
M  END
$$$$
