GFT.pdb
     RDKit          3D

 23 23  0  0  1  0  0  0  0  0999 V2000
   31.2383  -22.4221  -10.1363 N   0  0  0  0  0  0  0  0  0  0  0  0
   30.7232  -21.1162   -9.7815 C   0  0  0  0  0  0  0  0  0  0  0  0
   29.2966  -21.2712   -9.3955 C   0  0  0  0  0  0  0  0  0  0  0  0
   28.7686  -22.4273   -9.3715 O   0  0  0  0  0  0  0  0  0  0  0  0
   28.4991  -20.1717   -9.0513 N   0  0  0  0  0  0  0  0  0  0  0  0
   27.0719  -20.3057   -8.7191 C   0  0  1  0  0  0  0  0  0  0  0  0
   26.8185  -19.3300   -7.6097 C   0  0  0  0  0  0  0  0  0  0  0  0
   27.5759  -19.5918   -6.3773 C   0  0  0  0  0  0  0  0  0  0  0  0
   27.1050  -20.6121   -5.5461 C   0  0  0  0  0  0  0  0  0  0  0  0
   27.7439  -20.9387   -4.3690 C   0  0  0  0  0  0  0  0  0  0  0  0
   28.8653  -20.2467   -4.0074 C   0  0  0  0  0  0  0  0  0  0  0  0
   29.3304  -19.2422   -4.8239 C   0  0  0  0  0  0  0  0  0  0  0  0
   28.6916  -18.9136   -6.0038 C   0  0  0  0  0  0  0  0  0  0  0  0
   26.2639  -20.0284   -9.9182 C   0  0  0  0  0  0  0  0  0  0  0  0
   26.7725  -19.4164  -10.8699 O   0  0  0  0  0  0  0  0  0  0  0  0
   26.3197  -20.8321  -12.4090 C   0  0  0  0  0  0  0  0  0  0  0  0
   24.8479  -21.2312  -12.3275 C   0  0  1  0  0  0  0  0  0  0  0  0
   24.8351  -22.6039  -12.0809 O   0  0  0  0  0  0  0  0  0  0  0  0
   24.1641  -20.4667  -11.2137 C   0  0  2  0  0  0  0  0  0  0  0  0
   24.9144  -20.4499  -10.0016 N   0  0  0  0  0  0  0  0  0  0  0  0
   22.7609  -20.9112  -11.0260 C   0  0  0  0  0  0  0  0  0  0  0  0
   21.8759  -20.7577  -11.9183 O   0  0  0  0  0  0  0  0  0  0  0  0
   22.3455  -21.5225   -9.8525 O   0  0  0  0  0  0  0  0  0  0  0  0
  2  1  1  0
  2  3  1  0
  3  5  1  0
  3  4  2  0
  5  6  1  0
  6  7  1  1
  6 14  1  0
  8  9  2  0
  8  7  1  0
 10  9  1  0
 11 10  2  0
 12 11  1  0
 12 13  2  0
 13  8  1  0
 14 20  1  0
 15 14  2  0
 17 16  1  1
 17 18  1  0
 19 21  1  0
 19 17  1  0
 19 20  1  1
 21 23  1  0
 22 21  2  0
M  END
$$$$
