GFT.pdb
     RDKit          3D

 23 23  0  0  1  0  0  0  0  0999 V2000
   23.6658  -11.2698  -19.3217 N   0  0  0  0  0  0  0  0  0  0  0  0
   22.8819  -10.0888  -19.6170 C   0  0  0  0  0  0  0  0  0  0  0  0
   22.6110   -9.3820  -18.3382 C   0  0  0  0  0  0  0  0  0  0  0  0
   21.9277   -9.9530  -17.4310 O   0  0  0  0  0  0  0  0  0  0  0  0
   23.0889   -8.0881  -18.0919 N   0  0  0  0  0  0  0  0  0  0  0  0
   22.6977   -7.3160  -16.9019 C   0  0  1  0  0  0  0  0  0  0  0  0
   23.9794   -6.9294  -16.2275 C   0  0  0  0  0  0  0  0  0  0  0  0
   24.7901   -8.0612  -15.7555 C   0  0  0  0  0  0  0  0  0  0  0  0
   24.2712   -8.8197  -14.7023 C   0  0  0  0  0  0  0  0  0  0  0  0
   24.9509   -9.9030  -14.1877 C   0  0  0  0  0  0  0  0  0  0  0  0
   26.1621  -10.2423  -14.7218 C   0  0  0  0  0  0  0  0  0  0  0  0
   26.6746   -9.4973  -15.7583 C   0  0  0  0  0  0  0  0  0  0  0  0
   25.9949   -8.4116  -16.2752 C   0  0  0  0  0  0  0  0  0  0  0  0
   21.8980   -6.1517  -17.3171 C   0  0  0  0  0  0  0  0  0  0  0  0
   22.3949   -5.3099  -18.0810 O   0  0  0  0  0  0  0  0  0  0  0  0
   18.7814   -6.1742  -19.2200 C   0  0  0  0  0  0  0  0  0  0  0  0
   18.4456   -5.4034  -17.9452 C   0  0  1  0  0  0  0  0  0  0  0  0
   17.7580   -6.2979  -17.1252 O   0  0  0  0  0  0  0  0  0  0  0  0
   19.7174   -4.9173  -17.2829 C   0  0  2  0  0  0  0  0  0  0  0  0
   20.5696   -5.9782  -16.8576 N   0  0  0  0  0  0  0  0  0  0  0  0
   19.4340   -3.9306  -16.2115 C   0  0  0  0  0  0  0  0  0  0  0  0
   18.8804   -2.8162  -16.4452 O   0  0  0  0  0  0  0  0  0  0  0  0
   19.7646   -4.1828  -14.8884 O   0  0  0  0  0  0  0  0  0  0  0  0
  2  1  1  0
  2  3  1  0
  3  5  1  0
  3  4  2  0
  5  6  1  0
  6  7  1  6
  6 14  1  0
  8  9  2  0
  8  7  1  0
 10  9  1  0
 11 10  2  0
 12 11  1  0
 12 13  2  0
 13  8  1  0
 14 20  1  0
 15 14  2  0
 17 16  1  6
 17 18  1  0
 19 21  1  0
 19 17  1  0
 19 20  1  1
 21 23  1  0
 22 21  2  0
M  END
$$$$
