GFT.pdb
     RDKit          3D

 23 23  0  0  1  0  0  0  0  0999 V2000
   27.9558  -23.1361  -16.7631 N   0  0  0  0  0  0  0  0  0  0  0  0
   27.9892  -21.8754  -16.0518 C   0  0  0  0  0  0  0  0  0  0  0  0
   27.1017  -21.9902  -14.8655 C   0  0  0  0  0  0  0  0  0  0  0  0
   26.1547  -22.8382  -14.8623 O   0  0  0  0  0  0  0  0  0  0  0  0
   27.2734  -21.1848  -13.7318 N   0  0  0  0  0  0  0  0  0  0  0  0
   26.3569  -21.2361  -12.5817 C   0  0  1  0  0  0  0  0  0  0  0  0
   27.1357  -20.7051  -11.4162 C   0  0  0  0  0  0  0  0  0  0  0  0
   26.3759  -20.6133  -10.1611 C   0  0  0  0  0  0  0  0  0  0  0  0
   27.0025  -19.9818   -9.0830 C   0  0  0  0  0  0  0  0  0  0  0  0
   26.3758  -19.8414   -7.8633 C   0  0  0  0  0  0  0  0  0  0  0  0
   25.1103  -20.3324   -7.7060 C   0  0  0  0  0  0  0  0  0  0  0  0
   24.4917  -20.9542   -8.7656 C   0  0  0  0  0  0  0  0  0  0  0  0
   25.1182  -21.0957   -9.9886 C   0  0  0  0  0  0  0  0  0  0  0  0
   25.1572  -20.4359  -12.8780 C   0  0  0  0  0  0  0  0  0  0  0  0
   25.2835  -19.2563  -13.2411 O   0  0  0  0  0  0  0  0  0  0  0  0
   23.5154  -19.7608  -15.3473 C   0  0  0  0  0  0  0  0  0  0  0  0
   22.3313  -20.2925  -14.5426 C   0  0  1  0  0  0  0  0  0  0  0  0
   22.1052  -21.5894  -15.0033 O   0  0  0  0  0  0  0  0  0  0  0  0
   22.6629  -20.2845  -13.0653 C   0  0  2  0  0  0  0  0  0  0  0  0
   23.8607  -20.9924  -12.7549 N   0  0  0  0  0  0  0  0  0  0  0  0
   21.5036  -20.7087  -12.2419 C   0  0  0  0  0  0  0  0  0  0  0  0
   20.4188  -20.0566  -12.2112 O   0  0  0  0  0  0  0  0  0  0  0  0
   21.5516  -21.8516  -11.4576 O   0  0  0  0  0  0  0  0  0  0  0  0
  2  1  1  0
  2  3  1  0
  3  5  1  0
  3  4  2  0
  5  6  1  0
  6  7  1  1
  6 14  1  0
  8  9  2  0
  8  7  1  0
 10  9  1  0
 11 10  2  0
 12 11  1  0
 12 13  2  0
 13  8  1  0
 14 20  1  0
 15 14  2  0
 17 16  1  6
 17 18  1  0
 19 21  1  0
 19 17  1  0
 19 20  1  6
 21 23  1  0
 22 21  2  0
M  END
$$$$
