LHA.pdb
     RDKit          3D

 24 24  0  0  1  0  0  0  0  0999 V2000
    5.4555  -12.4354   27.0763 C   0  0  0  0  0  0  0  0  0  0  0  0
    6.8529  -13.0021   26.7908 C   0  0  2  0  0  0  0  0  0  0  0  0
    7.9032  -12.0628   27.3688 C   0  0  0  0  0  0  0  0  0  0  0  0
    7.0844  -13.1152   25.3203 C   0  0  0  0  0  0  0  0  0  0  0  0
    6.3798  -14.3233   24.7484 C   0  0  2  0  0  0  0  0  0  0  0  0
    5.5814  -15.0352   25.6910 N   0  0  0  0  0  0  0  0  0  0  0  0
    7.4211  -15.1681   24.1095 C   0  0  0  0  0  0  0  0  0  0  0  0
    7.4738  -16.4005   24.3591 O   0  0  0  0  0  0  0  0  0  0  0  0
    8.3952  -14.6671   23.2058 N   0  0  0  0  0  0  0  0  0  0  0  0
    9.3431  -15.5248   22.5225 C   0  0  1  0  0  0  0  0  0  0  0  0
    9.8393  -14.9170   21.2424 C   0  0  0  0  0  0  0  0  0  0  0  0
    8.7682  -14.6291   20.2647 C   0  0  0  0  0  0  0  0  0  0  0  0
    8.3025  -13.3776   19.9332 C   0  0  0  0  0  0  0  0  0  0  0  0
    7.3301  -13.5087   19.0108 N   0  0  0  0  0  0  0  0  0  0  0  0
    7.1746  -14.8165   18.7553 C   0  0  0  0  0  0  0  0  0  0  0  0
    8.0517  -15.4830   19.5215 N   0  0  0  0  0  0  0  0  0  0  0  0
   10.3766  -15.9187   23.4786 C   0  0  0  0  0  0  0  0  0  0  0  0
   11.2043  -15.0580   23.8727 O   0  0  0  0  0  0  0  0  0  0  0  0
   10.5674  -16.5841   26.3549 C   0  0  0  0  0  0  0  0  0  0  0  0
   11.1798  -17.4428   25.2408 C   0  0  2  0  0  0  0  0  0  0  0  0
   10.5060  -17.2400   24.0018 N   0  0  0  0  0  0  0  0  0  0  0  0
   11.2478  -18.8647   25.6742 C   0  0  0  0  0  0  0  0  0  0  0  0
   12.0315  -19.1290   26.7950 O   0  0  0  0  0  0  0  0  0  0  0  0
   10.6739  -19.8167   25.1286 O   0  0  0  0  0  0  0  0  0  0  0  0
  2  1  1  6
  3  2  1  0
  4  5  1  0
  4  2  1  0
  5  6  1  1
  7  5  1  0
  7  8  2  0
  9  7  1  0
 10  9  1  0
 10 11  1  6
 11 12  1  0
 12 13  2  0
 12 16  1  0
 13 14  1  0
 14 15  1  0
 16 15  2  0
 17 10  1  0
 18 17  2  0
 20 19  1  1
 20 21  1  0
 21 17  1  0
 22 20  1  0
 23 22  1  0
 24 22  2  0
M  END
$$$$
