LHA.pdb
     RDKit          3D

 24 24  0  0  1  0  0  0  0  0999 V2000
    8.4941  -12.9879   19.1802 C   0  0  0  0  0  0  0  0  0  0  0  0
    7.5592  -13.4683   20.2985 C   0  0  2  0  0  0  0  0  0  0  0  0
    7.1653  -12.2815   21.1679 C   0  0  0  0  0  0  0  0  0  0  0  0
    8.2456  -14.4741   21.1622 C   0  0  0  0  0  0  0  0  0  0  0  0
    8.6274  -15.7031   20.3707 C   0  0  2  0  0  0  0  0  0  0  0  0
    7.5251  -16.3740   19.7644 N   0  0  0  0  0  0  0  0  0  0  0  0
    9.4131  -16.5757   21.2804 C   0  0  0  0  0  0  0  0  0  0  0  0
    8.8231  -17.3788   22.0491 O   0  0  0  0  0  0  0  0  0  0  0  0
   10.8315  -16.5682   21.3471 N   0  0  0  0  0  0  0  0  0  0  0  0
   11.5780  -17.4416   22.2308 C   0  0  1  0  0  0  0  0  0  0  0  0
   13.0134  -17.5806   21.8130 C   0  0  0  0  0  0  0  0  0  0  0  0
   13.2036  -18.3985   20.5961 C   0  0  0  0  0  0  0  0  0  0  0  0
   12.2625  -19.2319   20.0368 C   0  0  0  0  0  0  0  0  0  0  0  0
   12.7920  -19.8074   18.9404 N   0  0  0  0  0  0  0  0  0  0  0  0
   14.0464  -19.3532   18.7986 C   0  0  0  0  0  0  0  0  0  0  0  0
   14.2822  -18.5011   19.8079 N   0  0  0  0  0  0  0  0  0  0  0  0
   11.3591  -16.9973   23.6063 C   0  0  0  0  0  0  0  0  0  0  0  0
   11.0850  -15.7891   23.8217 O   0  0  0  0  0  0  0  0  0  0  0  0
    9.6416  -16.8532   26.0515 C   0  0  0  0  0  0  0  0  0  0  0  0
   11.0862  -17.3689   26.0272 C   0  0  2  0  0  0  0  0  0  0  0  0
   11.4374  -17.8632   24.7378 N   0  0  0  0  0  0  0  0  0  0  0  0
   11.2973  -18.3416   27.1333 C   0  0  0  0  0  0  0  0  0  0  0  0
   11.7571  -19.6033   26.7632 O   0  0  0  0  0  0  0  0  0  0  0  0
   11.1008  -18.1244   28.3365 O   0  0  0  0  0  0  0  0  0  0  0  0
  2  1  1  6
  3  2  1  0
  4  5  1  0
  4  2  1  0
  5  6  1  1
  7  5  1  0
  7  8  2  0
  9  7  1  0
 10  9  1  0
 10 11  1  6
 11 12  1  0
 12 13  2  0
 12 16  1  0
 13 14  1  0
 14 15  1  0
 16 15  2  0
 17 10  1  0
 18 17  2  0
 20 19  1  6
 20 21  1  0
 21 17  1  0
 22 20  1  0
 23 22  1  0
 24 22  2  0
M  END
$$$$
