LHA.pdb
     RDKit          3D

 24 24  0  0  1  0  0  0  0  0999 V2000
    8.5974  -12.8756   18.2895 C   0  0  0  0  0  0  0  0  0  0  0  0
    7.6457  -13.4064   19.3703 C   0  0  2  0  0  0  0  0  0  0  0  0
    7.2388  -12.2607   20.2875 C   0  0  0  0  0  0  0  0  0  0  0  0
    8.3188  -14.4515   20.1968 C   0  0  0  0  0  0  0  0  0  0  0  0
    8.7785  -15.6102   19.3430 C   0  0  2  0  0  0  0  0  0  0  0  0
    7.7313  -16.2592   18.6253 N   0  0  0  0  0  0  0  0  0  0  0  0
    9.5331  -16.5296   20.2327 C   0  0  0  0  0  0  0  0  0  0  0  0
    8.9164  -17.3545   20.9560 O   0  0  0  0  0  0  0  0  0  0  0  0
   10.9497  -16.5447   20.3288 N   0  0  0  0  0  0  0  0  0  0  0  0
   11.6659  -17.4667   21.1880 C   0  0  1  0  0  0  0  0  0  0  0  0
   13.0133  -17.8299   20.6338 C   0  0  0  0  0  0  0  0  0  0  0  0
   12.9522  -18.7047   19.4435 C   0  0  0  0  0  0  0  0  0  0  0  0
   12.1037  -19.7753   19.2798 C   0  0  0  0  0  0  0  0  0  0  0  0
   12.3338  -20.3288   18.0738 N   0  0  0  0  0  0  0  0  0  0  0  0
   13.3094  -19.6284   17.4757 C   0  0  0  0  0  0  0  0  0  0  0  0
   13.6742  -18.6483   18.3163 N   0  0  0  0  0  0  0  0  0  0  0  0
   11.6652  -16.9229   22.5450 C   0  0  0  0  0  0  0  0  0  0  0  0
   12.6179  -16.1873   22.9090 O   0  0  0  0  0  0  0  0  0  0  0  0
    9.3274  -16.0630   25.2355 C   0  0  0  0  0  0  0  0  0  0  0  0
   10.7020  -16.5755   24.7867 C   0  0  2  0  0  0  0  0  0  0  0  0
   10.6336  -17.1781   23.4974 N   0  0  0  0  0  0  0  0  0  0  0  0
   11.2875  -17.4488   25.8396 C   0  0  0  0  0  0  0  0  0  0  0  0
   11.4787  -18.7846   25.4943 O   0  0  0  0  0  0  0  0  0  0  0  0
   11.6133  -17.0905   26.9793 O   0  0  0  0  0  0  0  0  0  0  0  0
  2  1  1  6
  3  2  1  0
  4  5  1  0
  4  2  1  0
  5  6  1  1
  7  5  1  0
  7  8  2  0
  9  7  1  0
 10  9  1  0
 10 11  1  6
 11 12  1  0
 12 13  2  0
 12 16  1  0
 13 14  1  0
 14 15  1  0
 16 15  2  0
 17 10  1  0
 18 17  2  0
 20 19  1  1
 20 21  1  0
 21 17  1  0
 22 20  1  0
 23 22  1  0
 24 22  2  0
M  END
$$$$
