LHA.pdb
     RDKit          3D

 24 24  0  0  1  0  0  0  0  0999 V2000
    6.1183  -12.0521   25.9735 C   0  0  0  0  0  0  0  0  0  0  0  0
    6.6635  -12.8787   27.1461 C   0  0  2  0  0  0  0  0  0  0  0  0
    7.6598  -12.0375   27.9330 C   0  0  0  0  0  0  0  0  0  0  0  0
    7.3691  -14.0964   26.6482 C   0  0  0  0  0  0  0  0  0  0  0  0
    6.4287  -14.9969   25.8816 C   0  0  2  0  0  0  0  0  0  0  0  0
    5.7489  -15.9554   26.6890 N   0  0  0  0  0  0  0  0  0  0  0  0
    7.2187  -15.6128   24.7849 C   0  0  0  0  0  0  0  0  0  0  0  0
    7.7567  -16.7384   24.9506 O   0  0  0  0  0  0  0  0  0  0  0  0
    7.4171  -15.0011   23.5189 N   0  0  0  0  0  0  0  0  0  0  0  0
    8.1240  -15.6555   22.4358 C   0  0  1  0  0  0  0  0  0  0  0  0
    7.9469  -14.9403   21.1276 C   0  0  0  0  0  0  0  0  0  0  0  0
    8.5236  -15.6598   19.9719 C   0  0  0  0  0  0  0  0  0  0  0  0
    8.1615  -16.9188   19.5512 C   0  0  0  0  0  0  0  0  0  0  0  0
    8.8983  -17.2421   18.4713 N   0  0  0  0  0  0  0  0  0  0  0  0
    9.7163  -16.2128   18.2042 C   0  0  0  0  0  0  0  0  0  0  0  0
    9.4786  -15.2619   19.1206 N   0  0  0  0  0  0  0  0  0  0  0  0
    9.5071  -15.8726   22.8565 C   0  0  0  0  0  0  0  0  0  0  0  0
   10.2076  -14.8822   23.1877 O   0  0  0  0  0  0  0  0  0  0  0  0
   11.6900  -18.4303   24.2933 C   0  0  0  0  0  0  0  0  0  0  0  0
   11.4861  -17.2690   23.3118 C   0  0  2  0  0  0  0  0  0  0  0  0
   10.1215  -17.1592   22.9167 N   0  0  0  0  0  0  0  0  0  0  0  0
   12.4432  -17.3872   22.1786 C   0  0  0  0  0  0  0  0  0  0  0  0
   11.8835  -17.5961   20.9202 O   0  0  0  0  0  0  0  0  0  0  0  0
   13.6767  -17.3161   22.2617 O   0  0  0  0  0  0  0  0  0  0  0  0
  2  1  1  6
  3  2  1  0
  4  5  1  0
  4  2  1  0
  5  6  1  1
  7  5  1  0
  7  8  2  0
  9  7  1  0
 10  9  1  0
 10 11  1  6
 11 12  1  0
 12 13  2  0
 12 16  1  0
 13 14  1  0
 14 15  1  0
 16 15  2  0
 17 10  1  0
 18 17  2  0
 20 19  1  1
 20 21  1  0
 21 17  1  0
 22 20  1  0
 23 22  1  0
 24 22  2  0
M  END
$$$$
