LHA.pdb
     RDKit          3D

 24 24  0  0  1  0  0  0  0  0999 V2000
    6.1828  -12.0949   24.8236 C   0  0  0  0  0  0  0  0  0  0  0  0
    6.2851  -12.6649   26.2449 C   0  0  2  0  0  0  0  0  0  0  0  0
    7.0131  -11.6662   27.1350 C   0  0  0  0  0  0  0  0  0  0  0  0
    7.0576  -13.9423   26.2451 C   0  0  0  0  0  0  0  0  0  0  0  0
    6.4528  -14.9459   25.2912 C   0  0  2  0  0  0  0  0  0  0  0  0
    5.3193  -15.6372   25.8109 N   0  0  0  0  0  0  0  0  0  0  0  0
    7.5486  -15.8558   24.8698 C   0  0  0  0  0  0  0  0  0  0  0  0
    7.7339  -16.9429   25.4762 O   0  0  0  0  0  0  0  0  0  0  0  0
    8.4328  -15.5769   23.7942 N   0  0  0  0  0  0  0  0  0  0  0  0
    9.4412  -16.5170   23.3463 C   0  0  1  0  0  0  0  0  0  0  0  0
   10.0688  -16.1011   22.0474 C   0  0  0  0  0  0  0  0  0  0  0  0
   11.0564  -17.0696   21.5254 C   0  0  0  0  0  0  0  0  0  0  0  0
   11.8431  -17.9007   22.2892 C   0  0  0  0  0  0  0  0  0  0  0  0
   12.6150  -18.6392   21.4691 N   0  0  0  0  0  0  0  0  0  0  0  0
   12.3301  -18.2898   20.2055 C   0  0  0  0  0  0  0  0  0  0  0  0
   11.3849  -17.3387   20.2546 N   0  0  0  0  0  0  0  0  0  0  0  0
   10.3693  -16.7539   24.4507 C   0  0  0  0  0  0  0  0  0  0  0  0
   11.0089  -15.7832   24.9303 O   0  0  0  0  0  0  0  0  0  0  0  0
   10.8914  -18.4743   27.4149 C   0  0  0  0  0  0  0  0  0  0  0  0
   11.5628  -18.1811   26.0670 C   0  0  2  0  0  0  0  0  0  0  0  0
   10.5977  -18.0386   25.0285 N   0  0  0  0  0  0  0  0  0  0  0  0
   12.6130  -19.1984   25.7903 C   0  0  0  0  0  0  0  0  0  0  0  0
   13.9176  -18.7221   25.6840 O   0  0  0  0  0  0  0  0  0  0  0  0
   12.4247  -20.4141   25.6492 O   0  0  0  0  0  0  0  0  0  0  0  0
  2  1  1  6
  3  2  1  0
  4  5  1  0
  4  2  1  0
  5  6  1  1
  7  5  1  0
  7  8  2  0
  9  7  1  0
 10  9  1  0
 10 11  1  6
 11 12  1  0
 12 13  2  0
 12 16  1  0
 13 14  1  0
 14 15  1  0
 16 15  2  0
 17 10  1  0
 18 17  2  0
 20 19  1  1
 20 21  1  0
 21 17  1  0
 22 20  1  0
 23 22  1  0
 24 22  2  0
M  END
$$$$
