LHA.pdb
     RDKit          3D

 24 24  0  0  1  0  0  0  0  0999 V2000
    5.5515  -11.8074   25.5287 C   0  0  0  0  0  0  0  0  0  0  0  0
    5.9308  -12.6374   26.7627 C   0  0  2  0  0  0  0  0  0  0  0  0
    6.5078  -11.7160   27.8293 C   0  0  0  0  0  0  0  0  0  0  0  0
    6.9652  -13.6557   26.4142 C   0  0  0  0  0  0  0  0  0  0  0  0
    6.4495  -14.6239   25.3751 C   0  0  2  0  0  0  0  0  0  0  0  0
    5.3973  -15.4692   25.8347 N   0  0  0  0  0  0  0  0  0  0  0  0
    7.6240  -15.3777   24.8667 C   0  0  0  0  0  0  0  0  0  0  0  0
    7.7799  -16.5871   25.1779 O   0  0  0  0  0  0  0  0  0  0  0  0
    8.6179  -14.8115   24.0253 N   0  0  0  0  0  0  0  0  0  0  0  0
    9.7317  -15.5788   23.5040 C   0  0  1  0  0  0  0  0  0  0  0  0
   10.3134  -14.9652   22.2633 C   0  0  0  0  0  0  0  0  0  0  0  0
    9.3138  -14.6900   21.2093 C   0  0  0  0  0  0  0  0  0  0  0  0
    8.0626  -15.2562   21.1256 C   0  0  0  0  0  0  0  0  0  0  0  0
    7.4382  -14.7656   20.0378 N   0  0  0  0  0  0  0  0  0  0  0  0
    8.2707  -13.9028   19.4358 C   0  0  0  0  0  0  0  0  0  0  0  0
    9.4024  -13.8669   20.1559 N   0  0  0  0  0  0  0  0  0  0  0  0
   10.6753  -15.8160   24.5953 C   0  0  0  0  0  0  0  0  0  0  0  0
   11.7562  -16.4099   24.3500 O   0  0  0  0  0  0  0  0  0  0  0  0
   11.3643  -14.7939   28.1210 C   0  0  0  0  0  0  0  0  0  0  0  0
   11.3557  -15.8011   26.9638 C   0  0  2  0  0  0  0  0  0  0  0  0
   10.4429  -15.4082   25.9428 N   0  0  0  0  0  0  0  0  0  0  0  0
   11.1321  -17.1757   27.4881 C   0  0  0  0  0  0  0  0  0  0  0  0
   12.0267  -17.6159   28.4608 O   0  0  0  0  0  0  0  0  0  0  0  0
   10.2302  -17.9476   27.1357 O   0  0  0  0  0  0  0  0  0  0  0  0
  2  1  1  6
  3  2  1  0
  4  5  1  0
  4  2  1  0
  5  6  1  1
  7  5  1  0
  7  8  2  0
  9  7  1  0
 10  9  1  0
 10 11  1  6
 11 12  1  0
 12 13  2  0
 12 16  1  0
 13 14  1  0
 14 15  1  0
 16 15  2  0
 17 10  1  0
 18 17  2  0
 20 19  1  1
 20 21  1  0
 21 17  1  0
 22 20  1  0
 23 22  1  0
 24 22  2  0
M  END
$$$$
