LHA.pdb
     RDKit          3D

 24 24  0  0  1  0  0  0  0  0999 V2000
    8.2639  -12.1769   18.6374 C   0  0  0  0  0  0  0  0  0  0  0  0
    7.9030  -13.5292   19.2672 C   0  0  2  0  0  0  0  0  0  0  0  0
    7.0797  -13.2927   20.5264 C   0  0  0  0  0  0  0  0  0  0  0  0
    9.1370  -14.2780   19.6483 C   0  0  0  0  0  0  0  0  0  0  0  0
    9.9905  -14.5756   18.4375 C   0  0  2  0  0  0  0  0  0  0  0  0
    9.2958  -15.2321   17.3795 N   0  0  0  0  0  0  0  0  0  0  0  0
   11.1729  -15.3348   18.9188 C   0  0  0  0  0  0  0  0  0  0  0  0
   11.2062  -16.5879   18.8064 O   0  0  0  0  0  0  0  0  0  0  0  0
   12.3078  -14.7267   19.5176 N   0  0  0  0  0  0  0  0  0  0  0  0
   13.4494  -15.4888   19.9835 C   0  0  1  0  0  0  0  0  0  0  0  0
   14.7529  -14.8300   19.6353 C   0  0  0  0  0  0  0  0  0  0  0  0
   15.1260  -14.9624   18.2108 C   0  0  0  0  0  0  0  0  0  0  0  0
   15.0561  -13.9619   17.2689 C   0  0  0  0  0  0  0  0  0  0  0  0
   15.4777  -14.4509   16.0870 N   0  0  0  0  0  0  0  0  0  0  0  0
   15.8112  -15.7379   16.2661 C   0  0  0  0  0  0  0  0  0  0  0  0
   15.5932  -16.0341   17.5565 N   0  0  0  0  0  0  0  0  0  0  0  0
   13.2513  -15.7909   21.4001 C   0  0  0  0  0  0  0  0  0  0  0  0
   13.7683  -15.0371   22.2637 O   0  0  0  0  0  0  0  0  0  0  0  0
   11.0734  -17.8477   23.6216 C   0  0  0  0  0  0  0  0  0  0  0  0
   12.3902  -17.1419   23.2727 C   0  0  2  0  0  0  0  0  0  0  0  0
   12.4947  -16.9052   21.8716 N   0  0  0  0  0  0  0  0  0  0  0  0
   13.5375  -17.8904   23.8537 C   0  0  0  0  0  0  0  0  0  0  0  0
   14.4671  -18.3925   22.9460 O   0  0  0  0  0  0  0  0  0  0  0  0
   13.7301  -18.0998   25.0589 O   0  0  0  0  0  0  0  0  0  0  0  0
  2  1  1  1
  3  2  1  0
  4  5  1  0
  4  2  1  0
  5  6  1  6
  7  5  1  0
  7  8  2  0
  9  7  1  0
 10  9  1  0
 10 11  1  1
 11 12  1  0
 12 13  2  0
 12 16  1  0
 13 14  1  0
 14 15  1  0
 16 15  2  0
 17 10  1  0
 18 17  2  0
 20 19  1  6
 20 21  1  0
 21 17  1  0
 22 20  1  0
 23 22  1  0
 24 22  2  0
M  END
$$$$
