LHA.pdb
     RDKit          3D

 24 24  0  0  1  0  0  0  0  0999 V2000
    9.4540  -12.5081   18.8946 C   0  0  0  0  0  0  0  0  0  0  0  0
    8.0730  -13.1404   19.1149 C   0  0  2  0  0  0  0  0  0  0  0  0
    7.1552  -12.1226   19.7792 C   0  0  0  0  0  0  0  0  0  0  0  0
    8.1763  -14.3314   20.0090 C   0  0  0  0  0  0  0  0  0  0  0  0
    9.0222  -15.4140   19.3802 C   0  0  2  0  0  0  0  0  0  0  0  0
    8.4483  -16.0016   18.2148 N   0  0  0  0  0  0  0  0  0  0  0  0
    9.3194  -16.4040   20.4470 C   0  0  0  0  0  0  0  0  0  0  0  0
    8.4534  -17.2559   20.7757 O   0  0  0  0  0  0  0  0  0  0  0  0
   10.5538  -16.4596   21.1467 N   0  0  0  0  0  0  0  0  0  0  0  0
   10.8434  -17.4714   22.1435 C   0  0  1  0  0  0  0  0  0  0  0  0
   12.0043  -18.3392   21.7518 C   0  0  0  0  0  0  0  0  0  0  0  0
   11.6818  -19.3279   20.7009 C   0  0  0  0  0  0  0  0  0  0  0  0
   12.0395  -19.2327   19.3757 C   0  0  0  0  0  0  0  0  0  0  0  0
   11.5741  -20.3152   18.7236 N   0  0  0  0  0  0  0  0  0  0  0  0
   10.9311  -21.0891   19.6111 C   0  0  0  0  0  0  0  0  0  0  0  0
   11.0043  -20.4791   20.8040 N   0  0  0  0  0  0  0  0  0  0  0  0
   10.9548  -16.8141   23.4445 C   0  0  0  0  0  0  0  0  0  0  0  0
   11.9363  -16.0597   23.6658 O   0  0  0  0  0  0  0  0  0  0  0  0
    9.0697  -15.6700   26.3370 C   0  0  0  0  0  0  0  0  0  0  0  0
   10.2793  -16.4345   25.7840 C   0  0  2  0  0  0  0  0  0  0  0  0
   10.0035  -16.9769   24.4956 N   0  0  0  0  0  0  0  0  0  0  0  0
   10.7475  -17.4349   26.7811 C   0  0  0  0  0  0  0  0  0  0  0  0
   11.1868  -16.9274   28.0016 O   0  0  0  0  0  0  0  0  0  0  0  0
   10.7781  -18.6619   26.6168 O   0  0  0  0  0  0  0  0  0  0  0  0
  2  1  1  1
  3  2  1  0
  4  5  1  0
  4  2  1  0
  5  6  1  6
  7  5  1  0
  7  8  2  0
  9  7  1  0
 10  9  1  0
 10 11  1  6
 11 12  1  0
 12 13  2  0
 12 16  1  0
 13 14  1  0
 14 15  1  0
 16 15  2  0
 17 10  1  0
 18 17  2  0
 20 19  1  1
 20 21  1  0
 21 17  1  0
 22 20  1  0
 23 22  1  0
 24 22  2  0
M  END
$$$$
