LHA.pdb
     RDKit          3D

 24 24  0  0  1  0  0  0  0  0999 V2000
    9.4906  -13.3110   19.6974 C   0  0  0  0  0  0  0  0  0  0  0  0
    7.9656  -13.3958   19.5462 C   0  0  2  0  0  0  0  0  0  0  0  0
    7.3882  -11.9879   19.4847 C   0  0  0  0  0  0  0  0  0  0  0  0
    7.3595  -14.0998   20.7148 C   0  0  0  0  0  0  0  0  0  0  0  0
    8.0610  -15.4102   20.9863 C   0  0  2  0  0  0  0  0  0  0  0  0
    7.7425  -16.4467   20.0605 N   0  0  0  0  0  0  0  0  0  0  0  0
    7.7646  -15.7749   22.3953 C   0  0  0  0  0  0  0  0  0  0  0  0
    6.6190  -15.5667   22.8729 O   0  0  0  0  0  0  0  0  0  0  0  0
    8.7145  -16.3620   23.2724 N   0  0  0  0  0  0  0  0  0  0  0  0
    8.3899  -16.7507   24.6306 C   0  0  1  0  0  0  0  0  0  0  0  0
    8.4803  -18.2356   24.8338 C   0  0  0  0  0  0  0  0  0  0  0  0
    7.4420  -19.0005   24.1108 C   0  0  0  0  0  0  0  0  0  0  0  0
    6.1328  -19.1461   24.5084 C   0  0  0  0  0  0  0  0  0  0  0  0
    5.4879  -19.9053   23.6022 N   0  0  0  0  0  0  0  0  0  0  0  0
    6.3641  -20.2402   22.6430 C   0  0  0  0  0  0  0  0  0  0  0  0
    7.5431  -19.6856   22.9639 N   0  0  0  0  0  0  0  0  0  0  0  0
    9.1905  -15.9368   25.5438 C   0  0  0  0  0  0  0  0  0  0  0  0
   10.4379  -15.8945   25.3905 O   0  0  0  0  0  0  0  0  0  0  0  0
    8.8512  -13.2380   28.0897 C   0  0  0  0  0  0  0  0  0  0  0  0
    9.5040  -14.5069   27.5264 C   0  0  2  0  0  0  0  0  0  0  0  0
    8.6358  -15.1744   26.6149 N   0  0  0  0  0  0  0  0  0  0  0  0
    9.9963  -15.3625   28.6398 C   0  0  0  0  0  0  0  0  0  0  0  0
   11.0230  -14.8305   29.4165 O   0  0  0  0  0  0  0  0  0  0  0  0
    9.5744  -16.4906   28.9277 O   0  0  0  0  0  0  0  0  0  0  0  0
  2  1  1  1
  3  2  1  0
  4  5  1  0
  4  2  1  0
  5  6  1  6
  7  5  1  0
  7  8  2  0
  9  7  1  0
 10  9  1  0
 10 11  1  6
 11 12  1  0
 12 13  2  0
 12 16  1  0
 13 14  1  0
 14 15  1  0
 16 15  2  0
 17 10  1  0
 18 17  2  0
 20 19  1  1
 20 21  1  0
 21 17  1  0
 22 20  1  0
 23 22  1  0
 24 22  2  0
M  END
$$$$
