LHA.pdb
     RDKit          3D

 24 24  0  0  1  0  0  0  0  0999 V2000
    9.5715  -13.2552   19.1110 C   0  0  0  0  0  0  0  0  0  0  0  0
    8.1051  -13.6957   19.2167 C   0  0  2  0  0  0  0  0  0  0  0  0
    7.2047  -12.5590   18.7512 C   0  0  0  0  0  0  0  0  0  0  0  0
    7.7544  -14.0218   20.6307 C   0  0  0  0  0  0  0  0  0  0  0  0
    8.7041  -15.0464   21.2061 C   0  0  2  0  0  0  0  0  0  0  0  0
    8.8178  -16.2382   20.4318 N   0  0  0  0  0  0  0  0  0  0  0  0
    8.2722  -15.2980   22.6048 C   0  0  0  0  0  0  0  0  0  0  0  0
    7.4392  -14.5317   23.1550 O   0  0  0  0  0  0  0  0  0  0  0  0
    8.7486  -16.3790   23.3928 N   0  0  0  0  0  0  0  0  0  0  0  0
    8.2832  -16.6279   24.7428 C   0  0  1  0  0  0  0  0  0  0  0  0
    8.0976  -18.0920   25.0190 C   0  0  0  0  0  0  0  0  0  0  0  0
    7.0288  -18.7199   24.2131 C   0  0  0  0  0  0  0  0  0  0  0  0
    5.9849  -18.0554   23.6116 C   0  0  0  0  0  0  0  0  0  0  0  0
    5.2164  -18.9529   22.9654 N   0  0  0  0  0  0  0  0  0  0  0  0
    5.7553  -20.1679   23.1480 C   0  0  0  0  0  0  0  0  0  0  0  0
    6.8520  -20.0118   23.9052 N   0  0  0  0  0  0  0  0  0  0  0  0
    9.1617  -15.9153   25.6689 C   0  0  0  0  0  0  0  0  0  0  0  0
   10.4041  -16.0944   25.5927 O   0  0  0  0  0  0  0  0  0  0  0  0
    9.1075  -13.0992   28.1291 C   0  0  0  0  0  0  0  0  0  0  0  0
    9.6117  -14.4465   27.5960 C   0  0  2  0  0  0  0  0  0  0  0  0
    8.6899  -15.0139   26.6695 N   0  0  0  0  0  0  0  0  0  0  0  0
    9.9671  -15.3412   28.7306 C   0  0  0  0  0  0  0  0  0  0  0  0
   10.9411  -14.8668   29.6061 O   0  0  0  0  0  0  0  0  0  0  0  0
    9.4755  -16.4552   28.9563 O   0  0  0  0  0  0  0  0  0  0  0  0
  2  1  1  1
  3  2  1  0
  4  5  1  0
  4  2  1  0
  5  6  1  6
  7  5  1  0
  7  8  2  0
  9  7  1  0
 10  9  1  0
 10 11  1  1
 11 12  1  0
 12 13  2  0
 12 16  1  0
 13 14  1  0
 14 15  1  0
 16 15  2  0
 17 10  1  0
 18 17  2  0
 20 19  1  1
 20 21  1  0
 21 17  1  0
 22 20  1  0
 23 22  1  0
 24 22  2  0
M  END
$$$$
