LHA.pdb
     RDKit          3D

 24 24  0  0  1  0  0  0  0  0999 V2000
    9.2807  -11.9830   19.4213 C   0  0  0  0  0  0  0  0  0  0  0  0
    8.2297  -13.0773   19.1898 C   0  0  2  0  0  0  0  0  0  0  0  0
    6.8390  -12.4850   19.3758 C   0  0  0  0  0  0  0  0  0  0  0  0
    8.4011  -14.1877   20.1728 C   0  0  0  0  0  0  0  0  0  0  0  0
    9.8118  -14.7280   20.1454 C   0  0  2  0  0  0  0  0  0  0  0  0
   10.2740  -15.0904   18.8462 N   0  0  0  0  0  0  0  0  0  0  0  0
    9.8635  -15.8500   21.1173 C   0  0  0  0  0  0  0  0  0  0  0  0
    8.8086  -16.2503   21.6748 O   0  0  0  0  0  0  0  0  0  0  0  0
   11.0596  -16.5266   21.4747 N   0  0  0  0  0  0  0  0  0  0  0  0
   11.0833  -17.6315   22.4127 C   0  0  1  0  0  0  0  0  0  0  0  0
   12.2269  -18.5700   22.1565 C   0  0  0  0  0  0  0  0  0  0  0  0
   12.0592  -19.3969   20.9424 C   0  0  0  0  0  0  0  0  0  0  0  0
   10.8605  -19.8528   20.4441 C   0  0  0  0  0  0  0  0  0  0  0  0
   11.1006  -20.5695   19.3294 N   0  0  0  0  0  0  0  0  0  0  0  0
   12.4251  -20.5736   19.1164 C   0  0  0  0  0  0  0  0  0  0  0  0
   12.9930  -19.8600   20.1007 N   0  0  0  0  0  0  0  0  0  0  0  0
   11.0036  -17.0851   23.7664 C   0  0  0  0  0  0  0  0  0  0  0  0
   11.8706  -16.2555   24.1423 O   0  0  0  0  0  0  0  0  0  0  0  0
    8.6503  -16.5906   26.5638 C   0  0  0  0  0  0  0  0  0  0  0  0
   10.0482  -16.9338   26.0330 C   0  0  2  0  0  0  0  0  0  0  0  0
    9.9864  -17.4394   24.7023 N   0  0  0  0  0  0  0  0  0  0  0  0
   10.7520  -17.8256   26.9940 C   0  0  0  0  0  0  0  0  0  0  0  0
   10.9708  -17.3063   28.2678 O   0  0  0  0  0  0  0  0  0  0  0  0
   11.1524  -18.9733   26.7574 O   0  0  0  0  0  0  0  0  0  0  0  0
  2  1  1  1
  3  2  1  0
  4  5  1  0
  4  2  1  0
  5  6  1  6
  7  5  1  0
  7  8  2  0
  9  7  1  0
 10  9  1  0
 10 11  1  1
 11 12  1  0
 12 13  2  0
 12 16  1  0
 13 14  1  0
 14 15  1  0
 16 15  2  0
 17 10  1  0
 18 17  2  0
 20 19  1  1
 20 21  1  0
 21 17  1  0
 22 20  1  0
 23 22  1  0
 24 22  2  0
M  END
$$$$
