ISA.pdb
     RDKit          3D

 20 19  0  0  1  0  0  0  0  0999 V2000
   18.6562  -11.7091  -18.1762 C   0  0  0  0  0  0  0  0  0  0  0  0
   19.8822  -10.8959  -17.7634 C   0  0  0  0  0  0  0  0  0  0  0  0
   19.5175   -9.8763  -16.7192 C   0  0  2  0  0  0  0  0  0  0  0  0
   18.3492   -9.0264  -17.1549 C   0  0  0  0  0  0  0  0  0  0  0  0
   20.6728   -9.0868  -16.2254 C   0  0  2  0  0  0  0  0  0  0  0  0
   21.6820  -10.0533  -15.7659 N   0  0  0  0  0  0  0  0  0  0  0  0
   20.3890   -8.1815  -15.0903 C   0  0  0  0  0  0  0  0  0  0  0  0
   19.8194   -8.5694  -14.0190 O   0  0  0  0  0  0  0  0  0  0  0  0
   22.5975   -5.0134  -14.4938 O   0  0  0  0  0  0  0  0  0  0  0  0
   21.6687   -5.2361  -13.5135 C   0  0  0  0  0  0  0  0  0  0  0  0
   20.4048   -5.8555  -14.1006 C   0  0  2  0  0  0  0  0  0  0  0  0
   20.7456   -6.8117  -15.1440 N   0  0  0  0  0  0  0  0  0  0  0  0
   19.6530   -4.7507  -14.7429 C   0  0  0  0  0  0  0  0  0  0  0  0
   20.0041   -4.3422  -15.9019 O   0  0  0  0  0  0  0  0  0  0  0  0
   16.6037   -2.6513  -14.0779 C   0  0  0  0  0  0  0  0  0  0  0  0
   17.9081   -2.9364  -14.8090 C   0  0  2  0  0  0  0  0  0  0  0  0
   18.5464   -4.0790  -14.1833 N   0  0  0  0  0  0  0  0  0  0  0  0
   18.7451   -1.7301  -14.7641 C   0  0  0  0  0  0  0  0  0  0  0  0
   19.8104   -1.6683  -14.1053 O   0  0  0  0  0  0  0  0  0  0  0  0
   18.3546   -0.6077  -15.4730 O   0  0  0  0  0  0  0  0  0  0  0  0
  2  3  1  0
  2  1  1  0
  3  5  1  0
  3  4  1  6
  5  7  1  0
  5  6  1  1
  7  8  2  0
 10  9  1  0
 11 10  1  6
 11 13  1  0
 12 11  1  0
 12  7  1  0
 13 17  1  0
 13 14  2  0
 16 15  1  1
 16 18  1  0
 17 16  1  0
 18 19  2  0
 18 20  1  0
M  END
$$$$
