ISA.pdb
     RDKit          3D

 20 19  0  0  1  0  0  0  0  0999 V2000
   18.9177  -11.3230  -21.4662 C   0  0  0  0  0  0  0  0  0  0  0  0
   19.9449  -11.3242  -20.3351 C   0  0  0  0  0  0  0  0  0  0  0  0
   19.4657  -10.4878  -19.1801 C   0  0  2  0  0  0  0  0  0  0  0  0
   19.0085   -9.1229  -19.6329 C   0  0  0  0  0  0  0  0  0  0  0  0
   20.4125  -10.4468  -18.0383 C   0  0  2  0  0  0  0  0  0  0  0  0
   20.6799  -11.8425  -17.6583 N   0  0  0  0  0  0  0  0  0  0  0  0
   19.9226   -9.7525  -16.8273 C   0  0  0  0  0  0  0  0  0  0  0  0
   18.7753   -9.9708  -16.3185 O   0  0  0  0  0  0  0  0  0  0  0  0
   22.1503   -9.1385  -13.8776 O   0  0  0  0  0  0  0  0  0  0  0  0
   20.8321   -8.8071  -13.7177 C   0  0  0  0  0  0  0  0  0  0  0  0
   20.3024   -8.0942  -14.9576 C   0  0  2  0  0  0  0  0  0  0  0  0
   20.7245   -8.7920  -16.1634 N   0  0  0  0  0  0  0  0  0  0  0  0
   20.9378   -6.7548  -14.9775 C   0  0  0  0  0  0  0  0  0  0  0  0
   22.1145   -6.6244  -15.4590 O   0  0  0  0  0  0  0  0  0  0  0  0
   20.0525   -3.2084  -14.0674 C   0  0  0  0  0  0  0  0  0  0  0  0
   21.0405   -4.2861  -14.4915 C   0  0  2  0  0  0  0  0  0  0  0  0
   20.3526   -5.5634  -14.5009 N   0  0  0  0  0  0  0  0  0  0  0  0
   22.1810   -4.2683  -13.5659 C   0  0  0  0  0  0  0  0  0  0  0  0
   22.3344   -5.1245  -12.6627 O   0  0  0  0  0  0  0  0  0  0  0  0
   23.1335   -3.2714  -13.6835 O   0  0  0  0  0  0  0  0  0  0  0  0
  2  3  1  0
  2  1  1  0
  3  5  1  0
  3  4  1  6
  5  7  1  0
  5  6  1  1
  7  8  2  0
 10  9  1  0
 11 10  1  1
 11 13  1  0
 12 11  1  0
 12  7  1  0
 13 17  1  0
 13 14  2  0
 16 15  1  1
 16 18  1  0
 17 16  1  0
 18 19  2  0
 18 20  1  0
M  END
$$$$
