ISA.pdb
     RDKit          3D

 20 19  0  0  1  0  0  0  0  0999 V2000
   18.9778  -14.4268  -15.5061 C   0  0  0  0  0  0  0  0  0  0  0  0
   19.8384  -13.9024  -16.6545 C   0  0  0  0  0  0  0  0  0  0  0  0
   20.3443  -12.5184  -16.3515 C   0  0  2  0  0  0  0  0  0  0  0  0
   19.2264  -11.5968  -15.9297 C   0  0  0  0  0  0  0  0  0  0  0  0
   21.2096  -11.9519  -17.4156 C   0  0  2  0  0  0  0  0  0  0  0  0
   22.2254  -12.9702  -17.7236 N   0  0  0  0  0  0  0  0  0  0  0  0
   21.9318  -10.7113  -17.0581 C   0  0  0  0  0  0  0  0  0  0  0  0
   22.9034  -10.6867  -16.2346 O   0  0  0  0  0  0  0  0  0  0  0  0
   20.7558   -7.1726  -18.8541 O   0  0  0  0  0  0  0  0  0  0  0  0
   22.0685   -7.2231  -18.4703 C   0  0  0  0  0  0  0  0  0  0  0  0
   22.2581   -8.2195  -17.3313 C   0  0  2  0  0  0  0  0  0  0  0  0
   21.5680   -9.4665  -17.6278 N   0  0  0  0  0  0  0  0  0  0  0  0
   21.6055   -7.6265  -16.1394 C   0  0  0  0  0  0  0  0  0  0  0  0
   20.3935   -7.9298  -15.8703 O   0  0  0  0  0  0  0  0  0  0  0  0
   22.5161   -5.3427  -13.2841 C   0  0  0  0  0  0  0  0  0  0  0  0
   21.5201   -6.1619  -14.0928 C   0  0  2  0  0  0  0  0  0  0  0  0
   22.2101   -6.7271  -15.2369 N   0  0  0  0  0  0  0  0  0  0  0  0
   20.4031   -5.2913  -14.4833 C   0  0  0  0  0  0  0  0  0  0  0  0
   20.2743   -4.8334  -15.6436 O   0  0  0  0  0  0  0  0  0  0  0  0
   19.4460   -4.9542  -13.5426 O   0  0  0  0  0  0  0  0  0  0  0  0
  2  3  1  0
  2  1  1  0
  3  5  1  0
  3  4  1  6
  5  7  1  0
  5  6  1  1
  7  8  2  0
 10  9  1  0
 11 10  1  6
 11 13  1  0
 12 11  1  0
 12  7  1  0
 13 17  1  0
 13 14  2  0
 16 15  1  6
 16 18  1  0
 17 16  1  0
 18 19  2  0
 18 20  1  0
M  END
$$$$
