ISA.pdb
     RDKit          3D

 20 19  0  0  1  0  0  0  0  0999 V2000
   17.8564  -13.3359  -19.8892 C   0  0  0  0  0  0  0  0  0  0  0  0
   18.9838  -13.0176  -18.9082 C   0  0  0  0  0  0  0  0  0  0  0  0
   18.5742  -11.9197  -17.9649 C   0  0  2  0  0  0  0  0  0  0  0  0
   17.9798  -10.7450  -18.7022 C   0  0  0  0  0  0  0  0  0  0  0  0
   19.6319  -11.5379  -16.9967 C   0  0  2  0  0  0  0  0  0  0  0  0
   20.0482  -12.7725  -16.3140 N   0  0  0  0  0  0  0  0  0  0  0  0
   19.2214  -10.5783  -15.9482 C   0  0  0  0  0  0  0  0  0  0  0  0
   18.2362  -10.7834  -15.1672 O   0  0  0  0  0  0  0  0  0  0  0  0
   21.8582   -7.8883  -14.6391 O   0  0  0  0  0  0  0  0  0  0  0  0
   20.7117   -7.9834  -13.8978 C   0  0  0  0  0  0  0  0  0  0  0  0
   19.5275   -8.3556  -14.7838 C   0  0  2  0  0  0  0  0  0  0  0  0
   19.9206   -9.3608  -15.7606 N   0  0  0  0  0  0  0  0  0  0  0  0
   19.1610   -7.1305  -15.5343 C   0  0  0  0  0  0  0  0  0  0  0  0
   19.8126   -6.8213  -16.5894 O   0  0  0  0  0  0  0  0  0  0  0  0
   16.4565   -4.5241  -15.5088 C   0  0  0  0  0  0  0  0  0  0  0  0
   17.8186   -5.0411  -15.9501 C   0  0  2  0  0  0  0  0  0  0  0  0
   18.1258   -6.2373  -15.1890 N   0  0  0  0  0  0  0  0  0  0  0  0
   18.8118   -3.9772  -15.7511 C   0  0  0  0  0  0  0  0  0  0  0  0
   19.7284   -4.0564  -14.8990 O   0  0  0  0  0  0  0  0  0  0  0  0
   18.7458   -2.8346  -16.5289 O   0  0  0  0  0  0  0  0  0  0  0  0
  2  3  1  0
  2  1  1  0
  3  5  1  0
  3  4  1  6
  5  7  1  0
  5  6  1  1
  7  8  2  0
 10  9  1  0
 11 10  1  1
 11 13  1  0
 12 11  1  0
 12  7  1  0
 13 17  1  0
 13 14  2  0
 16 15  1  1
 16 18  1  0
 17 16  1  0
 18 19  2  0
 18 20  1  0
M  END
$$$$
