ISA.pdb
     RDKit          3D

 20 19  0  0  1  0  0  0  0  0999 V2000
   16.6015  -13.2468  -19.2774 C   0  0  0  0  0  0  0  0  0  0  0  0
   17.5487  -13.2072  -18.0791 C   0  0  0  0  0  0  0  0  0  0  0  0
   17.6521  -11.8111  -17.5284 C   0  0  2  0  0  0  0  0  0  0  0  0
   17.9997  -10.8123  -18.6048 C   0  0  0  0  0  0  0  0  0  0  0  0
   18.5111  -11.7061  -16.3230 C   0  0  2  0  0  0  0  0  0  0  0  0
   17.9827  -12.6648  -15.3405 N   0  0  0  0  0  0  0  0  0  0  0  0
   18.5328  -10.3797  -15.6682 C   0  0  0  0  0  0  0  0  0  0  0  0
   17.4875   -9.8163  -15.2070 O   0  0  0  0  0  0  0  0  0  0  0  0
   21.2914   -6.9128  -13.6822 O   0  0  0  0  0  0  0  0  0  0  0  0
   21.2239   -8.1187  -14.3259 C   0  0  0  0  0  0  0  0  0  0  0  0
   19.8241   -8.3528  -14.8844 C   0  0  2  0  0  0  0  0  0  0  0  0
   19.7436   -9.6595  -15.5208 N   0  0  0  0  0  0  0  0  0  0  0  0
   19.6158   -7.3338  -15.9409 C   0  0  0  0  0  0  0  0  0  0  0  0
   20.2213   -7.4557  -17.0598 O   0  0  0  0  0  0  0  0  0  0  0  0
   17.3540   -4.4466  -16.6719 C   0  0  0  0  0  0  0  0  0  0  0  0
   18.6610   -5.1997  -16.8764 C   0  0  2  0  0  0  0  0  0  0  0  0
   18.7845   -6.1997  -15.8327 N   0  0  0  0  0  0  0  0  0  0  0  0
   19.7672   -4.2332  -16.8631 C   0  0  0  0  0  0  0  0  0  0  0  0
   19.8892   -3.3307  -17.7252 O   0  0  0  0  0  0  0  0  0  0  0  0
   20.7215   -4.3094  -15.8639 O   0  0  0  0  0  0  0  0  0  0  0  0
  2  3  1  0
  2  1  1  0
  3  5  1  0
  3  4  1  6
  5  7  1  0
  5  6  1  1
  7  8  2  0
 10  9  1  0
 11 10  1  6
 11 13  1  0
 12 11  1  0
 12  7  1  0
 13 17  1  0
 13 14  2  0
 16 15  1  1
 16 18  1  0
 17 16  1  0
 18 19  2  0
 18 20  1  0
M  END
$$$$
