ISA.pdb
     RDKit          3D

 20 19  0  0  1  0  0  0  0  0999 V2000
   20.1811  -14.3627  -18.5096 C   0  0  0  0  0  0  0  0  0  0  0  0
   19.3693  -13.9147  -17.2951 C   0  0  0  0  0  0  0  0  0  0  0  0
   19.3310  -12.4135  -17.2050 C   0  0  2  0  0  0  0  0  0  0  0  0
   20.7140  -11.8153  -17.2859 C   0  0  0  0  0  0  0  0  0  0  0  0
   18.5306  -11.9034  -16.0644 C   0  0  2  0  0  0  0  0  0  0  0  0
   17.2132  -12.5525  -16.1462 N   0  0  0  0  0  0  0  0  0  0  0  0
   18.2958  -10.4428  -16.0518 C   0  0  0  0  0  0  0  0  0  0  0  0
   17.6322   -9.8389  -16.9561 O   0  0  0  0  0  0  0  0  0  0  0  0
   17.9959   -8.5444  -12.6843 O   0  0  0  0  0  0  0  0  0  0  0  0
   17.6912   -7.8185  -13.8037 C   0  0  0  0  0  0  0  0  0  0  0  0
   18.6208   -8.1888  -14.9547 C   0  0  2  0  0  0  0  0  0  0  0  0
   18.8094   -9.6311  -15.0108 N   0  0  0  0  0  0  0  0  0  0  0  0
   19.9380   -7.5832  -14.6443 C   0  0  0  0  0  0  0  0  0  0  0  0
   20.7208   -8.1689  -13.8211 O   0  0  0  0  0  0  0  0  0  0  0  0
   21.9774   -4.5945  -15.6927 C   0  0  0  0  0  0  0  0  0  0  0  0
   21.7013   -5.7918  -14.7941 C   0  0  2  0  0  0  0  0  0  0  0  0
   20.4345   -6.3798  -15.1867 N   0  0  0  0  0  0  0  0  0  0  0  0
   21.7028   -5.3403  -13.3962 C   0  0  0  0  0  0  0  0  0  0  0  0
   20.6556   -5.2481  -12.7126 O   0  0  0  0  0  0  0  0  0  0  0  0
   22.9019   -4.9993  -12.7957 O   0  0  0  0  0  0  0  0  0  0  0  0
  2  3  1  0
  2  1  1  0
  3  5  1  0
  3  4  1  1
  5  7  1  0
  5  6  1  6
  7  8  2  0
 10  9  1  0
 11 10  1  1
 11 13  1  0
 12 11  1  0
 12  7  1  0
 13 17  1  0
 13 14  2  0
 16 15  1  6
 16 18  1  0
 17 16  1  0
 18 19  2  0
 18 20  1  0
M  END
$$$$
