ISA.pdb
     RDKit          3D

 20 19  0  0  1  0  0  0  0  0999 V2000
   24.7250  -19.0846  -20.4799 C   0  0  0  0  0  0  0  0  0  0  0  0
   23.9877  -18.5583  -19.2495 C   0  0  0  0  0  0  0  0  0  0  0  0
   23.2963  -19.6797  -18.5233 C   0  0  2  0  0  0  0  0  0  0  0  0
   22.5417  -20.5768  -19.4735 C   0  0  0  0  0  0  0  0  0  0  0  0
   22.4870  -19.2314  -17.3631 C   0  0  2  0  0  0  0  0  0  0  0  0
   23.4007  -18.5153  -16.4597 N   0  0  0  0  0  0  0  0  0  0  0  0
   21.8509  -20.3089  -16.5738 C   0  0  0  0  0  0  0  0  0  0  0  0
   21.2391  -21.2909  -17.1069 O   0  0  0  0  0  0  0  0  0  0  0  0
   21.8026  -19.8260  -12.5750 O   0  0  0  0  0  0  0  0  0  0  0  0
   21.7362  -21.1602  -12.8724 C   0  0  0  0  0  0  0  0  0  0  0  0
   21.3508  -21.3673  -14.3334 C   0  0  2  0  0  0  0  0  0  0  0  0
   21.8940  -20.2978  -15.1581 N   0  0  0  0  0  0  0  0  0  0  0  0
   19.8729  -21.2670  -14.3978 C   0  0  0  0  0  0  0  0  0  0  0  0
   19.3187  -20.1162  -14.3566 O   0  0  0  0  0  0  0  0  0  0  0  0
   16.9250  -23.5719  -14.8390 C   0  0  0  0  0  0  0  0  0  0  0  0
   17.5438  -22.1993  -14.6146 C   0  0  2  0  0  0  0  0  0  0  0  0
   18.9820  -22.3550  -14.5046 N   0  0  0  0  0  0  0  0  0  0  0  0
   16.9484  -21.6069  -13.4094 C   0  0  0  0  0  0  0  0  0  0  0  0
   17.4197  -21.7878  -12.2615 O   0  0  0  0  0  0  0  0  0  0  0  0
   15.8207  -20.8143  -13.5304 O   0  0  0  0  0  0  0  0  0  0  0  0
  2  3  1  0
  2  1  1  0
  3  5  1  0
  3  4  1  6
  5  7  1  0
  5  6  1  1
  7  8  2  0
 10  9  1  0
 11 10  1  1
 11 13  1  0
 12 11  1  0
 12  7  1  0
 13 17  1  0
 13 14  2  0
 16 15  1  1
 16 18  1  0
 17 16  1  0
 18 19  2  0
 18 20  1  0
M  END
$$$$
