ISA.pdb
     RDKit          3D

 20 19  0  0  1  0  0  0  0  0999 V2000
   22.6772  -12.2689  -20.8180 C   0  0  0  0  0  0  0  0  0  0  0  0
   22.3869  -12.3326  -19.3192 C   0  0  0  0  0  0  0  0  0  0  0  0
   21.4907  -11.1987  -18.9021 C   0  0  2  0  0  0  0  0  0  0  0  0
   22.0079   -9.8696  -19.3954 C   0  0  0  0  0  0  0  0  0  0  0  0
   21.1534  -11.2037  -17.4571 C   0  0  2  0  0  0  0  0  0  0  0  0
   20.6342  -12.5447  -17.1471 N   0  0  0  0  0  0  0  0  0  0  0  0
   20.1208  -10.2302  -17.0391 C   0  0  0  0  0  0  0  0  0  0  0  0
   18.9905  -10.1263  -17.6173 O   0  0  0  0  0  0  0  0  0  0  0  0
   18.5864   -9.1309  -13.4739 O   0  0  0  0  0  0  0  0  0  0  0  0
   19.3820   -8.1701  -14.0369 C   0  0  0  0  0  0  0  0  0  0  0  0
   19.4055   -8.3128  -15.5551 C   0  0  2  0  0  0  0  0  0  0  0  0
   20.3468   -9.3497  -15.9528 N   0  0  0  0  0  0  0  0  0  0  0  0
   19.9126   -7.0271  -16.0916 C   0  0  0  0  0  0  0  0  0  0  0  0
   21.1526   -6.7415  -15.9722 O   0  0  0  0  0  0  0  0  0  0  0  0
   18.6618   -4.2067  -18.2311 C   0  0  0  0  0  0  0  0  0  0  0  0
   19.6907   -4.8270  -17.2964 C   0  0  2  0  0  0  0  0  0  0  0  0
   19.1354   -6.0492  -16.7464 N   0  0  0  0  0  0  0  0  0  0  0  0
   20.0323   -3.8469  -16.2569 C   0  0  0  0  0  0  0  0  0  0  0  0
   20.6562   -2.7873  -16.5032 O   0  0  0  0  0  0  0  0  0  0  0  0
   19.6567   -4.0893  -14.9474 O   0  0  0  0  0  0  0  0  0  0  0  0
  2  3  1  0
  2  1  1  0
  3  5  1  0
  3  4  1  1
  5  7  1  0
  5  6  1  6
  7  8  2  0
 10  9  1  0
 11 10  1  1
 11 13  1  0
 12 11  1  0
 12  7  1  0
 13 17  1  0
 13 14  2  0
 16 15  1  6
 16 18  1  0
 17 16  1  0
 18 19  2  0
 18 20  1  0
M  END
$$$$
