ISA.pdb
     RDKit          3D

 20 19  0  0  1  0  0  0  0  0999 V2000
   13.8696  -13.8175  -11.2966 C   0  0  0  0  0  0  0  0  0  0  0  0
   15.1076  -13.0868  -11.8144 C   0  0  0  0  0  0  0  0  0  0  0  0
   15.4127  -11.8861  -10.9610 C   0  0  2  0  0  0  0  0  0  0  0  0
   14.1886  -11.0303  -10.7459 C   0  0  0  0  0  0  0  0  0  0  0  0
   16.6003  -11.1188  -11.4112 C   0  0  2  0  0  0  0  0  0  0  0  0
   17.7422  -12.0455  -11.3773 N   0  0  0  0  0  0  0  0  0  0  0  0
   16.9615   -9.9528  -10.5754 C   0  0  0  0  0  0  0  0  0  0  0  0
   17.4991  -10.0630   -9.4258 O   0  0  0  0  0  0  0  0  0  0  0  0
   19.2056   -6.9495  -11.4032 O   0  0  0  0  0  0  0  0  0  0  0  0
   17.9229   -6.5079  -11.2221 C   0  0  0  0  0  0  0  0  0  0  0  0
   17.1558   -7.4478  -10.2979 C   0  0  2  0  0  0  0  0  0  0  0  0
   16.7208   -8.6314  -11.0252 N   0  0  0  0  0  0  0  0  0  0  0  0
   15.9371   -6.7186   -9.8723 C   0  0  0  0  0  0  0  0  0  0  0  0
   14.9896   -6.5352  -10.7102 O   0  0  0  0  0  0  0  0  0  0  0  0
   14.5237   -5.1606   -6.7511 C   0  0  0  0  0  0  0  0  0  0  0  0
   14.5645   -5.3554   -8.2603 C   0  0  2  0  0  0  0  0  0  0  0  0
   15.7079   -6.1865   -8.5865 N   0  0  0  0  0  0  0  0  0  0  0  0
   14.6267   -4.0358   -8.9027 C   0  0  0  0  0  0  0  0  0  0  0  0
   15.6921   -3.5500   -9.3514 O   0  0  0  0  0  0  0  0  0  0  0  0
   13.4698   -3.2866   -9.0250 O   0  0  0  0  0  0  0  0  0  0  0  0
  2  3  1  0
  2  1  1  0
  3  5  1  0
  3  4  1  6
  5  7  1  0
  5  6  1  1
  7  8  2  0
 10  9  1  0
 11 10  1  6
 11 13  1  0
 12 11  1  0
 12  7  1  0
 13 17  1  0
 13 14  2  0
 16 15  1  1
 16 18  1  0
 17 16  1  0
 18 19  2  0
 18 20  1  0
M  END
$$$$
