ISA.pdb
     RDKit          3D

 20 19  0  0  1  0  0  0  0  0999 V2000
   28.7692  -19.6855  -15.4555 C   0  0  0  0  0  0  0  0  0  0  0  0
   27.3920  -20.0087  -14.8780 C   0  0  0  0  0  0  0  0  0  0  0  0
   26.3227  -19.2109  -15.5732 C   0  0  2  0  0  0  0  0  0  0  0  0
   26.6553  -17.7393  -15.6010 C   0  0  0  0  0  0  0  0  0  0  0  0
   24.9506  -19.4992  -15.0873 C   0  0  2  0  0  0  0  0  0  0  0  0
   24.7852  -20.9603  -15.1250 N   0  0  0  0  0  0  0  0  0  0  0  0
   23.8533  -18.9163  -15.8904 C   0  0  0  0  0  0  0  0  0  0  0  0
   23.7726  -19.0492  -17.1547 O   0  0  0  0  0  0  0  0  0  0  0  0
   20.4037  -18.5942  -14.2736 O   0  0  0  0  0  0  0  0  0  0  0  0
   20.4649  -17.5172  -15.1158 C   0  0  0  0  0  0  0  0  0  0  0  0
   21.6963  -17.6038  -16.0114 C   0  0  2  0  0  0  0  0  0  0  0  0
   22.8196  -18.1673  -15.2766 N   0  0  0  0  0  0  0  0  0  0  0  0
   22.0568  -16.2107  -16.3684 C   0  0  0  0  0  0  0  0  0  0  0  0
   22.3999  -15.3944  -15.4469 O   0  0  0  0  0  0  0  0  0  0  0  0
   22.6983  -14.1665  -19.4458 C   0  0  0  0  0  0  0  0  0  0  0  0
   22.3753  -14.2882  -17.9632 C   0  0  2  0  0  0  0  0  0  0  0  0
   22.0604  -15.6742  -17.6727 N   0  0  0  0  0  0  0  0  0  0  0  0
   21.2636  -13.3809  -17.6486 C   0  0  0  0  0  0  0  0  0  0  0  0
   20.0858  -13.7812  -17.4909 O   0  0  0  0  0  0  0  0  0  0  0  0
   21.5114  -12.0257  -17.5178 O   0  0  0  0  0  0  0  0  0  0  0  0
  2  3  1  0
  2  1  1  0
  3  5  1  0
  3  4  1  1
  5  7  1  0
  5  6  1  6
  7  8  2  0
 10  9  1  0
 11 10  1  1
 11 13  1  0
 12 11  1  0
 12  7  1  0
 13 17  1  0
 13 14  2  0
 16 15  1  6
 16 18  1  0
 17 16  1  0
 18 19  2  0
 18 20  1  0
M  END
$$$$
