ISA.pdb
     RDKit          3D

 20 19  0  0  1  0  0  0  0  0999 V2000
   22.6995  -13.1987  -20.3078 C   0  0  0  0  0  0  0  0  0  0  0  0
   22.0608  -13.2156  -18.9198 C   0  0  0  0  0  0  0  0  0  0  0  0
   21.0329  -12.1244  -18.7937 C   0  0  2  0  0  0  0  0  0  0  0  0
   21.5648  -10.7992  -19.2815 C   0  0  0  0  0  0  0  0  0  0  0  0
   20.3997  -12.0516  -17.4537 C   0  0  2  0  0  0  0  0  0  0  0  0
   19.8777  -13.3945  -17.1573 N   0  0  0  0  0  0  0  0  0  0  0  0
   19.2665  -11.1082  -17.3334 C   0  0  0  0  0  0  0  0  0  0  0  0
   18.3502  -11.0087  -18.2127 O   0  0  0  0  0  0  0  0  0  0  0  0
   16.7016  -10.4119  -14.4770 O   0  0  0  0  0  0  0  0  0  0  0  0
   17.5135   -9.3226  -14.6413 C   0  0  0  0  0  0  0  0  0  0  0  0
   18.0752   -9.2791  -16.0586 C   0  0  2  0  0  0  0  0  0  0  0  0
   19.1459  -10.2535  -16.2103 N   0  0  0  0  0  0  0  0  0  0  0  0
   18.6743   -7.9342  -16.2336 C   0  0  0  0  0  0  0  0  0  0  0  0
   19.7889   -7.6645  -15.6696 O   0  0  0  0  0  0  0  0  0  0  0  0
   17.9712   -4.7776  -18.1621 C   0  0  0  0  0  0  0  0  0  0  0  0
   18.7444   -5.5803  -17.1252 C   0  0  2  0  0  0  0  0  0  0  0  0
   18.1177   -6.8816  -16.9893 N   0  0  0  0  0  0  0  0  0  0  0  0
   18.7583   -4.8281  -15.8635 C   0  0  0  0  0  0  0  0  0  0  0  0
   18.1279   -5.2004  -14.8454 O   0  0  0  0  0  0  0  0  0  0  0  0
   19.4929   -3.6584  -15.7802 O   0  0  0  0  0  0  0  0  0  0  0  0
  2  3  1  0
  2  1  1  0
  3  5  1  0
  3  4  1  1
  5  7  1  0
  5  6  1  6
  7  8  2  0
 10  9  1  0
 11 10  1  1
 11 13  1  0
 12 11  1  0
 12  7  1  0
 13 17  1  0
 13 14  2  0
 16 15  1  6
 16 18  1  0
 17 16  1  0
 18 19  2  0
 18 20  1  0
M  END
$$$$
