ISA.pdb
     RDKit          3D

 20 19  0  0  1  0  0  0  0  0999 V2000
   27.9762  -11.9886  -15.9884 C   0  0  0  0  0  0  0  0  0  0  0  0
   26.4821  -12.2433  -15.7948 C   0  0  0  0  0  0  0  0  0  0  0  0
   25.6884  -10.9980  -16.0816 C   0  0  2  0  0  0  0  0  0  0  0  0
   26.2511   -9.7998  -15.3572 C   0  0  0  0  0  0  0  0  0  0  0  0
   24.2253  -11.1666  -15.9003 C   0  0  2  0  0  0  0  0  0  0  0  0
   23.8427  -12.3787  -16.6407 N   0  0  0  0  0  0  0  0  0  0  0  0
   23.3868  -10.0608  -16.4131 C   0  0  0  0  0  0  0  0  0  0  0  0
   23.3530   -9.7282  -17.6423 O   0  0  0  0  0  0  0  0  0  0  0  0
   20.2448   -8.9447  -14.2322 O   0  0  0  0  0  0  0  0  0  0  0  0
   20.2531   -8.5002  -15.5266 C   0  0  0  0  0  0  0  0  0  0  0  0
   21.6805   -8.2426  -15.9978 C   0  0  2  0  0  0  0  0  0  0  0  0
   22.5651   -9.3048  -15.5415 N   0  0  0  0  0  0  0  0  0  0  0  0
   22.1214   -6.9885  -15.3411 C   0  0  0  0  0  0  0  0  0  0  0  0
   22.8897   -7.0495  -14.3216 O   0  0  0  0  0  0  0  0  0  0  0  0
   23.4005   -3.9106  -15.8132 C   0  0  0  0  0  0  0  0  0  0  0  0
   22.2136   -4.4884  -15.0551 C   0  0  2  0  0  0  0  0  0  0  0  0
   21.7657   -5.6844  -15.7432 N   0  0  0  0  0  0  0  0  0  0  0  0
   21.1657   -3.4624  -14.9704 C   0  0  0  0  0  0  0  0  0  0  0  0
   20.1006   -3.5255  -15.6293 O   0  0  0  0  0  0  0  0  0  0  0  0
   21.3476   -2.3758  -14.1333 O   0  0  0  0  0  0  0  0  0  0  0  0
  2  3  1  0
  2  1  1  0
  3  5  1  0
  3  4  1  1
  5  7  1  0
  5  6  1  6
  7  8  2  0
 10  9  1  0
 11 10  1  1
 11 13  1  0
 12 11  1  0
 12  7  1  0
 13 17  1  0
 13 14  2  0
 16 15  1  6
 16 18  1  0
 17 16  1  0
 18 19  2  0
 18 20  1  0
M  END
$$$$
