ISA.pdb
     RDKit          3D

 20 19  0  0  1  0  0  0  0  0999 V2000
   26.4075  -14.7252  -15.3016 C   0  0  0  0  0  0  0  0  0  0  0  0
   24.8857  -14.6821  -15.4310 C   0  0  0  0  0  0  0  0  0  0  0  0
   24.4230  -13.3025  -15.8127 C   0  0  2  0  0  0  0  0  0  0  0  0
   24.9488  -12.2557  -14.8614 C   0  0  0  0  0  0  0  0  0  0  0  0
   22.9614  -13.2065  -16.0501 C   0  0  2  0  0  0  0  0  0  0  0  0
   22.6232  -14.2412  -17.0395 N   0  0  0  0  0  0  0  0  0  0  0  0
   22.4860  -11.9146  -16.5921 C   0  0  0  0  0  0  0  0  0  0  0  0
   22.7233  -11.5327  -17.7839 O   0  0  0  0  0  0  0  0  0  0  0  0
   19.4109  -10.1179  -14.7725 O   0  0  0  0  0  0  0  0  0  0  0  0
   19.7189   -9.6440  -16.0190 C   0  0  0  0  0  0  0  0  0  0  0  0
   21.2178   -9.7503  -16.2797 C   0  0  2  0  0  0  0  0  0  0  0  0
   21.7286  -11.0236  -15.7929 N   0  0  0  0  0  0  0  0  0  0  0  0
   21.8619   -8.6813  -15.4793 C   0  0  0  0  0  0  0  0  0  0  0  0
   22.1084   -8.8847  -14.2419 O   0  0  0  0  0  0  0  0  0  0  0  0
   23.2404   -5.2158  -16.0225 C   0  0  0  0  0  0  0  0  0  0  0  0
   22.9080   -6.4152  -15.1460 C   0  0  2  0  0  0  0  0  0  0  0  0
   22.2455   -7.4136  -15.9638 N   0  0  0  0  0  0  0  0  0  0  0  0
   22.0730   -5.9614  -14.0258 C   0  0  0  0  0  0  0  0  0  0  0  0
   20.8291   -6.1187  -14.0004 O   0  0  0  0  0  0  0  0  0  0  0  0
   22.6697   -5.3327  -12.9472 O   0  0  0  0  0  0  0  0  0  0  0  0
  2  3  1  0
  2  1  1  0
  3  5  1  0
  3  4  1  1
  5  7  1  0
  5  6  1  6
  7  8  2  0
 10  9  1  0
 11 10  1  1
 11 13  1  0
 12 11  1  0
 12  7  1  0
 13 17  1  0
 13 14  2  0
 16 15  1  6
 16 18  1  0
 17 16  1  0
 18 19  2  0
 18 20  1  0
M  END
$$$$
