QDR.pdb
     RDKit          3D

 29 28  0  0  1  0  0  0  0  0999 V2000
   17.3602  -14.8525  -14.3682 N   0  0  0  0  0  0  0  0  0  0  0  0
   18.0304  -14.9545  -15.6180 C   0  0  0  0  0  0  0  0  0  0  0  0
   18.6796  -16.0136  -15.8788 O   0  0  0  0  0  0  0  0  0  0  0  0
   17.9826  -13.8526  -16.6120 C   0  0  0  0  0  0  0  0  0  0  0  0
   17.1217  -12.7414  -16.0903 C   0  0  0  0  0  0  0  0  0  0  0  0
   17.1040  -11.5439  -17.0104 C   0  0  2  0  0  0  0  0  0  0  0  0
   17.2675  -12.0482  -18.3605 N   0  0  0  0  0  0  0  0  0  0  0  0
   18.2475  -10.6575  -16.6743 C   0  0  0  0  0  0  0  0  0  0  0  0
   18.3407  -10.1599  -15.5425 O   0  0  0  0  0  0  0  0  0  0  0  0
   19.2636  -10.3500  -17.6221 N   0  0  0  0  0  0  0  0  0  0  0  0
   20.3697   -9.4837  -17.3497 C   0  0  1  0  0  0  0  0  0  0  0  0
   21.5871   -9.7339  -18.1823 C   0  0  0  0  0  0  0  0  0  0  0  0
   22.7008   -8.9070  -17.7246 C   0  0  0  0  0  0  0  0  0  0  0  0
   22.5464   -8.1272  -16.7341 O   0  0  0  0  0  0  0  0  0  0  0  0
   19.9466   -8.0638  -17.5578 C   0  0  0  0  0  0  0  0  0  0  0  0
   19.6543   -7.6778  -18.7437 O   0  0  0  0  0  0  0  0  0  0  0  0
   23.9569   -8.9016  -18.3021 O   0  0  0  0  0  0  0  0  0  0  0  0
   13.0536   -4.4837  -16.6069 N   0  0  0  0  0  0  0  0  0  0  0  0
   13.8953   -5.2238  -17.4652 C   0  0  0  0  0  0  0  0  0  0  0  0
   13.3737   -6.0656  -18.3105 N   0  0  0  0  0  0  0  0  0  0  0  0
   15.3051   -5.0659  -17.4243 N   0  0  0  0  0  0  0  0  0  0  0  0
   15.9694   -4.1928  -16.4825 C   0  0  0  0  0  0  0  0  0  0  0  0
   17.4827   -4.2669  -16.6459 C   0  0  0  0  0  0  0  0  0  0  0  0
   17.9832   -5.6678  -16.5405 C   0  0  0  0  0  0  0  0  0  0  0  0
   19.4753   -5.7686  -16.7212 C   0  0  2  0  0  0  0  0  0  0  0  0
   19.8726   -7.1696  -16.4598 N   0  0  0  0  0  0  0  0  0  0  0  0
   20.1422   -4.9057  -15.7218 C   0  0  0  0  0  0  0  0  0  0  0  0
   20.9797   -5.3653  -14.7342 O   0  0  0  0  0  0  0  0  0  0  0  0
   19.9263   -3.6424  -15.7735 O   0  0  0  0  0  0  0  0  0  0  0  0
  2  1  1  0
  2  3  2  0
  4  2  1  0
  5  4  1  0
  5  6  1  0
  6  7  1  6
  8  9  2  0
  8  6  1  0
 10  8  1  0
 11 10  1  0
 12 13  1  0
 11 12  1  6
 13 17  1  0
 13 14  2  0
 15 16  2  0
 15 11  1  0
 19 20  2  0
 19 18  1  0
 21 19  1  0
 22 21  1  0
 23 22  1  0
 25 24  1  1
 24 23  1  0
 25 26  1  0
 26 15  1  0
 27 25  1  0
 28 27  1  0
 29 27  2  0
M  END
$$$$
