QDR.pdb
     RDKit          3D

 29 28  0  0  1  0  0  0  0  0999 V2000
   38.6741   -7.9034  -14.7635 N   0  0  0  0  0  0  0  0  0  0  0  0
   38.8338   -7.2619  -13.5047 C   0  0  0  0  0  0  0  0  0  0  0  0
   39.6868   -7.7247  -12.6866 O   0  0  0  0  0  0  0  0  0  0  0  0
   38.0262   -6.0716  -13.1369 C   0  0  0  0  0  0  0  0  0  0  0  0
   37.1717   -5.6644  -14.2996 C   0  0  0  0  0  0  0  0  0  0  0  0
   35.7307   -6.0842  -14.1323 C   0  0  2  0  0  0  0  0  0  0  0  0
   35.7334   -7.2795  -13.3107 N   0  0  0  0  0  0  0  0  0  0  0  0
   35.1613   -6.4052  -15.4661 C   0  0  0  0  0  0  0  0  0  0  0  0
   35.4932   -5.7458  -16.4623 O   0  0  0  0  0  0  0  0  0  0  0  0
   34.2284   -7.4642  -15.6497 N   0  0  0  0  0  0  0  0  0  0  0  0
   33.6302   -7.7880  -16.9088 C   0  0  1  0  0  0  0  0  0  0  0  0
   33.3934   -9.2471  -17.1383 C   0  0  0  0  0  0  0  0  0  0  0  0
   32.8555   -9.4755  -18.4770 C   0  0  0  0  0  0  0  0  0  0  0  0
   33.4965   -9.0699  -19.4957 O   0  0  0  0  0  0  0  0  0  0  0  0
   32.3182   -7.0787  -17.0280 C   0  0  0  0  0  0  0  0  0  0  0  0
   31.4404   -7.2534  -16.1116 O   0  0  0  0  0  0  0  0  0  0  0  0
   31.6608  -10.1205  -18.7377 O   0  0  0  0  0  0  0  0  0  0  0  0
   29.3844    0.5317  -19.6678 N   0  0  0  0  0  0  0  0  0  0  0  0
   28.2485   -0.2194  -19.2962 C   0  0  0  0  0  0  0  0  0  0  0  0
   27.0673    0.3246  -19.3597 N   0  0  0  0  0  0  0  0  0  0  0  0
   28.3703   -1.5625  -18.8539 N   0  0  0  0  0  0  0  0  0  0  0  0
   29.6461   -2.2272  -18.7080 C   0  0  0  0  0  0  0  0  0  0  0  0
   29.6007   -3.6287  -19.3049 C   0  0  0  0  0  0  0  0  0  0  0  0
   30.8868   -4.3570  -19.1064 C   0  0  0  0  0  0  0  0  0  0  0  0
   30.7425   -5.5618  -18.2137 C   0  0  2  0  0  0  0  0  0  0  0  0
   32.0593   -6.2316  -18.1353 N   0  0  0  0  0  0  0  0  0  0  0  0
   29.7810   -6.5044  -18.8264 C   0  0  0  0  0  0  0  0  0  0  0  0
   28.4233   -6.4744  -18.6171 O   0  0  0  0  0  0  0  0  0  0  0  0
   30.2394   -7.4151  -19.6046 O   0  0  0  0  0  0  0  0  0  0  0  0
  2  1  1  0
  2  3  2  0
  4  2  1  0
  5  4  1  0
  5  6  1  0
  6  7  1  1
  8  9  2  0
  8  6  1  0
 10  8  1  0
 11 10  1  0
 12 13  1  0
 11 12  1  1
 13 17  1  0
 13 14  2  0
 15 16  2  0
 15 11  1  0
 19 20  2  0
 19 18  1  0
 21 19  1  0
 22 21  1  0
 23 22  1  0
 25 24  1  6
 24 23  1  0
 25 26  1  0
 26 15  1  0
 27 25  1  0
 28 27  1  0
 29 27  2  0
M  END
$$$$
