QDR.pdb
     RDKit          3D

 29 28  0  0  1  0  0  0  0  0999 V2000
   22.3554  -20.9185  -11.0284 N   0  0  0  0  0  0  0  0  0  0  0  0
   22.6736  -20.0133   -9.9792 C   0  0  0  0  0  0  0  0  0  0  0  0
   21.7263  -19.4528   -9.3471 O   0  0  0  0  0  0  0  0  0  0  0  0
   24.0824  -19.7171   -9.6157 C   0  0  0  0  0  0  0  0  0  0  0  0
   24.9988  -20.2563  -10.6728 C   0  0  0  0  0  0  0  0  0  0  0  0
   24.5628  -21.6108  -11.1790 C   0  0  2  0  0  0  0  0  0  0  0  0
   25.6895  -22.5075  -11.0050 N   0  0  0  0  0  0  0  0  0  0  0  0
   24.2358  -21.5060  -12.6241 C   0  0  0  0  0  0  0  0  0  0  0  0
   25.1373  -21.5560  -13.4739 O   0  0  0  0  0  0  0  0  0  0  0  0
   22.8978  -21.3468  -13.0819 N   0  0  0  0  0  0  0  0  0  0  0  0
   22.5365  -21.2442  -14.4629 C   0  0  1  0  0  0  0  0  0  0  0  0
   21.0689  -21.3322  -14.7394 C   0  0  0  0  0  0  0  0  0  0  0  0
   20.8151  -21.3058  -16.1776 C   0  0  0  0  0  0  0  0  0  0  0  0
   21.6425  -21.8430  -16.9775 O   0  0  0  0  0  0  0  0  0  0  0  0
   23.0362  -19.9436  -15.0078 C   0  0  0  0  0  0  0  0  0  0  0  0
   22.6550  -18.8563  -14.4479 O   0  0  0  0  0  0  0  0  0  0  0  0
   19.7072  -20.7221  -16.7634 O   0  0  0  0  0  0  0  0  0  0  0  0
   27.1878  -22.5419  -15.5770 N   0  0  0  0  0  0  0  0  0  0  0  0
   27.8131  -21.6554  -16.4803 C   0  0  0  0  0  0  0  0  0  0  0  0
   28.0729  -22.0492  -17.6938 N   0  0  0  0  0  0  0  0  0  0  0  0
   28.1644  -20.3372  -16.0889 N   0  0  0  0  0  0  0  0  0  0  0  0
   27.3289  -19.5245  -15.2333 C   0  0  0  0  0  0  0  0  0  0  0  0
   26.7677  -18.3305  -15.9960 C   0  0  0  0  0  0  0  0  0  0  0  0
   25.8080  -18.7523  -17.0567 C   0  0  0  0  0  0  0  0  0  0  0  0
   24.3699  -18.6107  -16.6310 C   0  0  2  0  0  0  0  0  0  0  0  0
   23.9140  -19.9226  -16.1212 N   0  0  0  0  0  0  0  0  0  0  0  0
   23.5488  -18.2637  -17.8115 C   0  0  0  0  0  0  0  0  0  0  0  0
   23.1001  -16.9974  -18.1003 O   0  0  0  0  0  0  0  0  0  0  0  0
   23.2285  -19.2040  -18.6229 O   0  0  0  0  0  0  0  0  0  0  0  0
  2  1  1  0
  2  3  2  0
  4  2  1  0
  5  4  1  0
  5  6  1  0
  6  7  1  6
  8  9  2  0
  8  6  1  0
 10  8  1  0
 11 10  1  0
 12 13  1  0
 11 12  1  1
 13 17  1  0
 13 14  2  0
 15 16  2  0
 15 11  1  0
 19 20  2  0
 19 18  1  0
 21 19  1  0
 22 21  1  0
 23 22  1  0
 25 24  1  6
 24 23  1  0
 25 26  1  0
 26 15  1  0
 27 25  1  0
 28 27  1  0
 29 27  2  0
M  END
$$$$
