QDR.pdb
     RDKit          3D

 29 28  0  0  1  0  0  0  0  0999 V2000
   22.9099  -19.1116  -13.5956 N   0  0  0  0  0  0  0  0  0  0  0  0
   22.1808  -19.8647  -14.5562 C   0  0  0  0  0  0  0  0  0  0  0  0
   22.1591  -21.1296  -14.4528 O   0  0  0  0  0  0  0  0  0  0  0  0
   21.4524  -19.2007  -15.6666 C   0  0  0  0  0  0  0  0  0  0  0  0
   21.6232  -17.7148  -15.5630 C   0  0  0  0  0  0  0  0  0  0  0  0
   20.8728  -16.9705  -16.6417 C   0  0  2  0  0  0  0  0  0  0  0  0
   21.1714  -17.6344  -17.8963 N   0  0  0  0  0  0  0  0  0  0  0  0
   21.3649  -15.5702  -16.6966 C   0  0  0  0  0  0  0  0  0  0  0  0
   21.3308  -14.8558  -15.6838 O   0  0  0  0  0  0  0  0  0  0  0  0
   21.8860  -15.0034  -17.8935 N   0  0  0  0  0  0  0  0  0  0  0  0
   22.4692  -13.6986  -17.9675 C   0  0  1  0  0  0  0  0  0  0  0  0
   23.4486  -13.5074  -19.0821 C   0  0  0  0  0  0  0  0  0  0  0  0
   24.6816  -14.2431  -18.8137 C   0  0  0  0  0  0  0  0  0  0  0  0
   24.8803  -14.7506  -17.6666 O   0  0  0  0  0  0  0  0  0  0  0  0
   21.3831  -12.6813  -18.1221 C   0  0  0  0  0  0  0  0  0  0  0  0
   20.4372  -12.9146  -18.9539 O   0  0  0  0  0  0  0  0  0  0  0  0
   25.6893  -14.4401  -19.7395 O   0  0  0  0  0  0  0  0  0  0  0  0
   14.0819  -12.6093  -16.5533 N   0  0  0  0  0  0  0  0  0  0  0  0
   15.0229  -12.8882  -17.5679 C   0  0  0  0  0  0  0  0  0  0  0  0
   14.8009  -13.8626  -18.4025 N   0  0  0  0  0  0  0  0  0  0  0  0
   16.2109  -12.1224  -17.6963 N   0  0  0  0  0  0  0  0  0  0  0  0
   16.5492  -11.0429  -16.7958 C   0  0  0  0  0  0  0  0  0  0  0  0
   17.8211  -10.3357  -17.2478 C   0  0  0  0  0  0  0  0  0  0  0  0
   19.0188  -11.2152  -17.1208 C   0  0  0  0  0  0  0  0  0  0  0  0
   20.2945  -10.5247  -17.5270 C   0  0  2  0  0  0  0  0  0  0  0  0
   21.4065  -11.4860  -17.3596 N   0  0  0  0  0  0  0  0  0  0  0  0
   20.5336   -9.3800  -16.6211 C   0  0  0  0  0  0  0  0  0  0  0  0
   19.6985   -8.2952  -16.5032 O   0  0  0  0  0  0  0  0  0  0  0  0
   21.5913   -9.3936  -15.8957 O   0  0  0  0  0  0  0  0  0  0  0  0
  2  1  1  0
  2  3  2  0
  4  2  1  0
  5  4  1  0
  5  6  1  0
  6  7  1  6
  8  9  2  0
  8  6  1  0
 10  8  1  0
 11 10  1  0
 12 13  1  0
 11 12  1  6
 13 17  1  0
 13 14  2  0
 15 16  2  0
 15 11  1  0
 19 20  2  0
 19 18  1  0
 21 19  1  0
 22 21  1  0
 23 22  1  0
 25 24  1  1
 24 23  1  0
 25 26  1  0
 26 15  1  0
 27 25  1  0
 28 27  1  0
 29 27  2  0
M  END
$$$$
