QDR.pdb
     RDKit          3D

 29 28  0  0  1  0  0  0  0  0999 V2000
   32.9930  -24.8432  -18.7610 N   0  0  0  0  0  0  0  0  0  0  0  0
   31.7667  -24.9017  -19.4783 C   0  0  0  0  0  0  0  0  0  0  0  0
   31.8012  -24.9256  -20.7469 O   0  0  0  0  0  0  0  0  0  0  0  0
   30.4606  -24.9350  -18.7731 C   0  0  0  0  0  0  0  0  0  0  0  0
   30.6865  -24.8708  -17.2923 C   0  0  0  0  0  0  0  0  0  0  0  0
   29.3950  -24.8900  -16.5096 C   0  0  2  0  0  0  0  0  0  0  0  0
   28.4905  -25.7800  -17.2122 N   0  0  0  0  0  0  0  0  0  0  0  0
   28.8204  -23.5205  -16.4888 C   0  0  0  0  0  0  0  0  0  0  0  0
   29.4542  -22.5847  -15.9790 O   0  0  0  0  0  0  0  0  0  0  0  0
   27.5417  -23.2337  -17.0438 N   0  0  0  0  0  0  0  0  0  0  0  0
   26.8680  -21.9812  -16.8843 C   0  0  1  0  0  0  0  0  0  0  0  0
   26.2809  -21.4162  -18.1389 C   0  0  0  0  0  0  0  0  0  0  0  0
   25.6650  -20.1178  -17.8780 C   0  0  0  0  0  0  0  0  0  0  0  0
   26.2549  -19.2740  -17.1343 O   0  0  0  0  0  0  0  0  0  0  0  0
   25.7667  -22.1378  -15.8838 C   0  0  0  0  0  0  0  0  0  0  0  0
   24.9327  -23.0985  -16.0341 O   0  0  0  0  0  0  0  0  0  0  0  0
   24.4463  -19.7153  -18.3921 O   0  0  0  0  0  0  0  0  0  0  0  0
   23.4876  -20.9710   -7.6725 N   0  0  0  0  0  0  0  0  0  0  0  0
   24.8099  -20.7490   -8.1142 C   0  0  0  0  0  0  0  0  0  0  0  0
   25.7966  -20.8512   -7.2709 N   0  0  0  0  0  0  0  0  0  0  0  0
   25.0849  -20.4161   -9.4661 N   0  0  0  0  0  0  0  0  0  0  0  0
   24.0911  -19.8531  -10.3528 C   0  0  0  0  0  0  0  0  0  0  0  0
   23.8262  -20.7810  -11.5323 C   0  0  0  0  0  0  0  0  0  0  0  0
   24.8749  -20.6521  -12.5847 C   0  0  0  0  0  0  0  0  0  0  0  0
   24.5517  -21.4378  -13.8286 C   0  0  2  0  0  0  0  0  0  0  0  0
   25.6549  -21.2377  -14.7939 N   0  0  0  0  0  0  0  0  0  0  0  0
   23.3103  -20.9025  -14.4291 C   0  0  0  0  0  0  0  0  0  0  0  0
   22.0715  -21.4825  -14.2987 O   0  0  0  0  0  0  0  0  0  0  0  0
   23.3891  -19.8256  -15.1216 O   0  0  0  0  0  0  0  0  0  0  0  0
  2  1  1  0
  2  3  2  0
  4  2  1  0
  5  4  1  0
  5  6  1  0
  6  7  1  6
  8  9  2  0
  8  6  1  0
 10  8  1  0
 11 10  1  0
 12 13  1  0
 11 12  1  6
 13 17  1  0
 13 14  2  0
 15 16  2  0
 15 11  1  0
 19 20  2  0
 19 18  1  0
 21 19  1  0
 22 21  1  0
 23 22  1  0
 25 24  1  1
 24 23  1  0
 25 26  1  0
 26 15  1  0
 27 25  1  0
 28 27  1  0
 29 27  2  0
M  END
$$$$
