QDR.pdb
     RDKit          3D

 29 28  0  0  1  0  0  0  0  0999 V2000
   25.2166  -19.5485  -15.5429 N   0  0  0  0  0  0  0  0  0  0  0  0
   24.1843  -19.2734  -16.4811 C   0  0  0  0  0  0  0  0  0  0  0  0
   24.4835  -19.1878  -17.7117 O   0  0  0  0  0  0  0  0  0  0  0  0
   22.7766  -19.0866  -16.0475 C   0  0  0  0  0  0  0  0  0  0  0  0
   22.6794  -19.2675  -14.5623 C   0  0  0  0  0  0  0  0  0  0  0  0
   22.3395  -20.6870  -14.1744 C   0  0  2  0  0  0  0  0  0  0  0  0
   21.9640  -21.3777  -15.3934 N   0  0  0  0  0  0  0  0  0  0  0  0
   21.1837  -20.6712  -13.2417 C   0  0  0  0  0  0  0  0  0  0  0  0
   21.2589  -20.0630  -12.1638 O   0  0  0  0  0  0  0  0  0  0  0  0
   19.9654  -21.3420  -13.5436 N   0  0  0  0  0  0  0  0  0  0  0  0
   18.8649  -21.4404  -12.6341 C   0  0  1  0  0  0  0  0  0  0  0  0
   17.5138  -21.3017  -13.2610 C   0  0  0  0  0  0  0  0  0  0  0  0
   16.4755  -21.2430  -12.2352 C   0  0  0  0  0  0  0  0  0  0  0  0
   16.7009  -20.6436  -11.1384 O   0  0  0  0  0  0  0  0  0  0  0  0
   18.9205  -22.7616  -11.9342 C   0  0  0  0  0  0  0  0  0  0  0  0
   19.3786  -23.7746  -12.5705 O   0  0  0  0  0  0  0  0  0  0  0  0
   15.2201  -21.8077  -12.3631 O   0  0  0  0  0  0  0  0  0  0  0  0
   17.0285  -25.4089   -3.4652 N   0  0  0  0  0  0  0  0  0  0  0  0
   17.7390  -26.4346   -4.1254 C   0  0  0  0  0  0  0  0  0  0  0  0
   18.0965  -27.4985   -3.4654 N   0  0  0  0  0  0  0  0  0  0  0  0
   18.0714  -26.3278   -5.5010 N   0  0  0  0  0  0  0  0  0  0  0  0
   18.0150  -25.0784   -6.2266 C   0  0  0  0  0  0  0  0  0  0  0  0
   18.3610  -25.2865   -7.6960 C   0  0  0  0  0  0  0  0  0  0  0  0
   18.2883  -24.0126   -8.4679 C   0  0  0  0  0  0  0  0  0  0  0  0
   18.5867  -24.2008   -9.9324 C   0  0  2  0  0  0  0  0  0  0  0  0
   18.4739  -22.8822  -10.5938 N   0  0  0  0  0  0  0  0  0  0  0  0
   17.5704  -25.1005  -10.5206 C   0  0  0  0  0  0  0  0  0  0  0  0
   17.7406  -26.4521  -10.7003 O   0  0  0  0  0  0  0  0  0  0  0  0
   16.4538  -24.5905  -10.8922 O   0  0  0  0  0  0  0  0  0  0  0  0
  2  1  1  0
  2  3  2  0
  4  2  1  0
  5  4  1  0
  5  6  1  0
  6  7  1  6
  8  9  2  0
  8  6  1  0
 10  8  1  0
 11 10  1  0
 12 13  1  0
 11 12  1  6
 13 17  1  0
 13 14  2  0
 15 16  2  0
 15 11  1  0
 19 20  2  0
 19 18  1  0
 21 19  1  0
 22 21  1  0
 23 22  1  0
 25 24  1  1
 24 23  1  0
 25 26  1  0
 26 15  1  0
 27 25  1  0
 28 27  1  0
 29 27  2  0
M  END
$$$$
