QDR.pdb
     RDKit          3D

 29 28  0  0  1  0  0  0  0  0999 V2000
   25.5051  -18.5387  -16.9998 N   0  0  0  0  0  0  0  0  0  0  0  0
   26.7531  -19.0256  -16.5234 C   0  0  0  0  0  0  0  0  0  0  0  0
   27.7458  -19.0399  -17.3142 O   0  0  0  0  0  0  0  0  0  0  0  0
   26.9106  -19.5124  -15.1296 C   0  0  0  0  0  0  0  0  0  0  0  0
   25.6329  -19.2992  -14.3746 C   0  0  0  0  0  0  0  0  0  0  0  0
   24.9763  -20.5983  -13.9721 C   0  0  2  0  0  0  0  0  0  0  0  0
   24.8759  -21.4081  -15.1713 N   0  0  0  0  0  0  0  0  0  0  0  0
   23.6133  -20.3129  -13.4555 C   0  0  0  0  0  0  0  0  0  0  0  0
   23.4621  -19.6026  -12.4505 O   0  0  0  0  0  0  0  0  0  0  0  0
   22.4474  -20.8346  -14.0831 N   0  0  0  0  0  0  0  0  0  0  0  0
   21.1146  -20.5581  -13.6410 C   0  0  1  0  0  0  0  0  0  0  0  0
   20.1924  -20.0433  -14.7004 C   0  0  0  0  0  0  0  0  0  0  0  0
   18.9078  -19.6599  -14.1206 C   0  0  0  0  0  0  0  0  0  0  0  0
   17.8345  -19.8575  -14.7703 O   0  0  0  0  0  0  0  0  0  0  0  0
   20.5168  -21.8044  -13.0684 C   0  0  0  0  0  0  0  0  0  0  0  0
   20.7285  -22.9175  -13.6659 O   0  0  0  0  0  0  0  0  0  0  0  0
   18.7567  -19.0770  -12.8761 O   0  0  0  0  0  0  0  0  0  0  0  0
   17.0573  -26.3216   -6.9047 N   0  0  0  0  0  0  0  0  0  0  0  0
   18.3485  -25.9639   -6.4603 C   0  0  0  0  0  0  0  0  0  0  0  0
   19.0275  -26.7923   -5.7200 N   0  0  0  0  0  0  0  0  0  0  0  0
   18.9231  -24.7135   -6.8075 N   0  0  0  0  0  0  0  0  0  0  0  0
   18.2552  -23.7526   -7.6568 C   0  0  0  0  0  0  0  0  0  0  0  0
   18.5580  -24.0219   -9.1259 C   0  0  0  0  0  0  0  0  0  0  0  0
   18.9856  -22.7840   -9.8392 C   0  0  0  0  0  0  0  0  0  0  0  0
   19.2499  -23.0172  -11.3038 C   0  0  2  0  0  0  0  0  0  0  0  0
   19.7336  -21.7468  -11.8877 N   0  0  0  0  0  0  0  0  0  0  0  0
   17.9805  -23.3785  -11.9720 C   0  0  0  0  0  0  0  0  0  0  0  0
   17.5038  -24.6616  -12.0918 O   0  0  0  0  0  0  0  0  0  0  0  0
   17.2737  -22.4353  -12.4779 O   0  0  0  0  0  0  0  0  0  0  0  0
  2  1  1  0
  2  3  2  0
  4  2  1  0
  5  4  1  0
  5  6  1  0
  6  7  1  6
  8  9  2  0
  8  6  1  0
 10  8  1  0
 11 10  1  0
 12 13  1  0
 11 12  1  6
 13 17  1  0
 13 14  2  0
 15 16  2  0
 15 11  1  0
 19 20  2  0
 19 18  1  0
 21 19  1  0
 22 21  1  0
 23 22  1  0
 25 24  1  1
 24 23  1  0
 25 26  1  0
 26 15  1  0
 27 25  1  0
 28 27  1  0
 29 27  2  0
M  END
$$$$
