QDR.pdb
     RDKit          3D

 29 28  0  0  1  0  0  0  0  0999 V2000
   22.8736  -25.9729  -17.0839 N   0  0  0  0  0  0  0  0  0  0  0  0
   24.2834  -26.1425  -17.1575 C   0  0  0  0  0  0  0  0  0  0  0  0
   24.7606  -27.3179  -17.1159 O   0  0  0  0  0  0  0  0  0  0  0  0
   25.1958  -24.9777  -17.2810 C   0  0  0  0  0  0  0  0  0  0  0  0
   24.3925  -23.7294  -17.4921 C   0  0  0  0  0  0  0  0  0  0  0  0
   24.9621  -22.5437  -16.7501 C   0  0  2  0  0  0  0  0  0  0  0  0
   26.2809  -22.9312  -16.2870 N   0  0  0  0  0  0  0  0  0  0  0  0
   24.0981  -22.2435  -15.5799 C   0  0  0  0  0  0  0  0  0  0  0  0
   24.4326  -22.6138  -14.4449 O   0  0  0  0  0  0  0  0  0  0  0  0
   22.8733  -21.5310  -15.7134 N   0  0  0  0  0  0  0  0  0  0  0  0
   22.0388  -21.1696  -14.6084 C   0  0  1  0  0  0  0  0  0  0  0  0
   21.3456  -19.8511  -14.7458 C   0  0  0  0  0  0  0  0  0  0  0  0
   20.5822  -19.5443  -13.5390 C   0  0  0  0  0  0  0  0  0  0  0  0
   19.4696  -18.9385  -13.6294 O   0  0  0  0  0  0  0  0  0  0  0  0
   20.9971  -22.2254  -14.4115 C   0  0  0  0  0  0  0  0  0  0  0  0
   20.3808  -22.6789  -15.4388 O   0  0  0  0  0  0  0  0  0  0  0  0
   20.9853  -19.8701  -12.2573 O   0  0  0  0  0  0  0  0  0  0  0  0
   18.3757  -25.4111   -7.9695 N   0  0  0  0  0  0  0  0  0  0  0  0
   17.9732  -26.6829   -8.4313 C   0  0  0  0  0  0  0  0  0  0  0  0
   17.1053  -27.3717   -7.7475 N   0  0  0  0  0  0  0  0  0  0  0  0
   18.4983  -27.2266   -9.6325 N   0  0  0  0  0  0  0  0  0  0  0  0
   19.5140  -26.5600  -10.4166 C   0  0  0  0  0  0  0  0  0  0  0  0
   18.9046  -25.4526  -11.2679 C   0  0  0  0  0  0  0  0  0  0  0  0
   19.8909  -24.3731  -11.5611 C   0  0  0  0  0  0  0  0  0  0  0  0
   19.8147  -23.8852  -12.9843 C   0  0  2  0  0  0  0  0  0  0  0  0
   20.7039  -22.7096  -13.1114 N   0  0  0  0  0  0  0  0  0  0  0  0
   18.4305  -23.4502  -13.2723 C   0  0  0  0  0  0  0  0  0  0  0  0
   17.4356  -24.2792  -13.7316 O   0  0  0  0  0  0  0  0  0  0  0  0
   18.1329  -22.2167  -13.0850 O   0  0  0  0  0  0  0  0  0  0  0  0
  2  1  1  0
  2  3  2  0
  4  2  1  0
  5  4  1  0
  5  6  1  0
  6  7  1  1
  8  9  2  0
  8  6  1  0
 10  8  1  0
 11 10  1  0
 12 13  1  0
 11 12  1  6
 13 17  1  0
 13 14  2  0
 15 16  2  0
 15 11  1  0
 19 20  2  0
 19 18  1  0
 21 19  1  0
 22 21  1  0
 23 22  1  0
 25 24  1  1
 24 23  1  0
 25 26  1  0
 26 15  1  0
 27 25  1  0
 28 27  1  0
 29 27  2  0
M  END
$$$$
