QDR.pdb
     RDKit          3D

 29 28  0  0  1  0  0  0  0  0999 V2000
   30.7563  -18.0525  -20.7247 N   0  0  0  0  0  0  0  0  0  0  0  0
   29.5602  -17.4651  -21.2205 C   0  0  0  0  0  0  0  0  0  0  0  0
   29.2808  -17.5938  -22.4520 O   0  0  0  0  0  0  0  0  0  0  0  0
   28.6429  -16.7115  -20.3288 C   0  0  0  0  0  0  0  0  0  0  0  0
   29.2728  -16.5521  -18.9777 C   0  0  0  0  0  0  0  0  0  0  0  0
   29.2201  -17.8223  -18.1624 C   0  0  2  0  0  0  0  0  0  0  0  0
   29.0722  -18.9185  -19.1006 N   0  0  0  0  0  0  0  0  0  0  0  0
   28.0346  -17.7760  -17.2688 C   0  0  0  0  0  0  0  0  0  0  0  0
   27.8929  -16.8411  -16.4667 O   0  0  0  0  0  0  0  0  0  0  0  0
   27.0320  -18.7856  -17.2977 N   0  0  0  0  0  0  0  0  0  0  0  0
   25.9102  -18.8184  -16.4097 C   0  0  1  0  0  0  0  0  0  0  0  0
   24.5985  -19.1236  -17.0610 C   0  0  0  0  0  0  0  0  0  0  0  0
   23.4941  -18.8426  -16.1474 C   0  0  0  0  0  0  0  0  0  0  0  0
   23.6988  -18.1600  -15.0961 O   0  0  0  0  0  0  0  0  0  0  0  0
   26.1525  -19.8435  -15.3472 C   0  0  0  0  0  0  0  0  0  0  0  0
   26.1605  -21.0809  -15.6783 O   0  0  0  0  0  0  0  0  0  0  0  0
   22.1948  -19.2747  -16.3384 O   0  0  0  0  0  0  0  0  0  0  0  0
   22.6329  -20.9548   -8.2198 N   0  0  0  0  0  0  0  0  0  0  0  0
   23.8436  -21.4379   -7.6782 C   0  0  0  0  0  0  0  0  0  0  0  0
   23.8146  -22.3013   -6.7041 N   0  0  0  0  0  0  0  0  0  0  0  0
   25.0971  -20.9990   -8.1785 N   0  0  0  0  0  0  0  0  0  0  0  0
   25.2200  -20.0597   -9.2709 C   0  0  0  0  0  0  0  0  0  0  0  0
   25.6691  -20.7634  -10.5458 C   0  0  0  0  0  0  0  0  0  0  0  0
   25.8762  -19.8011  -11.6660 C   0  0  0  0  0  0  0  0  0  0  0  0
   26.2941  -20.4774  -12.9455 C   0  0  2  0  0  0  0  0  0  0  0  0
   26.3686  -19.4458  -14.0034 N   0  0  0  0  0  0  0  0  0  0  0  0
   25.2591  -21.4611  -13.3321 C   0  0  0  0  0  0  0  0  0  0  0  0
   25.4011  -22.8231  -13.2188 O   0  0  0  0  0  0  0  0  0  0  0  0
   24.1530  -21.0194  -13.8083 O   0  0  0  0  0  0  0  0  0  0  0  0
  2  1  1  0
  2  3  2  0
  4  2  1  0
  5  4  1  0
  5  6  1  0
  6  7  1  6
  8  9  2  0
  8  6  1  0
 10  8  1  0
 11 10  1  0
 12 13  1  0
 11 12  1  6
 13 17  1  0
 13 14  2  0
 15 16  2  0
 15 11  1  0
 19 20  2  0
 19 18  1  0
 21 19  1  0
 22 21  1  0
 23 22  1  0
 25 24  1  1
 24 23  1  0
 25 26  1  0
 26 15  1  0
 27 25  1  0
 28 27  1  0
 29 27  2  0
M  END
$$$$
