QDR.pdb
     RDKit          3D

 29 28  0  0  1  0  0  0  0  0999 V2000
   30.1962  -22.1408  -12.0568 N   0  0  0  0  0  0  0  0  0  0  0  0
   30.3822  -21.7643  -10.6985 C   0  0  0  0  0  0  0  0  0  0  0  0
   31.3759  -22.2350  -10.0642 O   0  0  0  0  0  0  0  0  0  0  0  0
   29.4417  -20.8386  -10.0181 C   0  0  0  0  0  0  0  0  0  0  0  0
   28.4709  -20.2837  -11.0170 C   0  0  0  0  0  0  0  0  0  0  0  0
   27.1588  -21.0315  -11.0241 C   0  0  2  0  0  0  0  0  0  0  0  0
   27.4468  -22.3822  -11.4676 N   0  0  0  0  0  0  0  0  0  0  0  0
   26.2362  -20.3825  -11.9904 C   0  0  0  0  0  0  0  0  0  0  0  0
   25.7934  -19.2465  -11.7649 O   0  0  0  0  0  0  0  0  0  0  0  0
   25.8313  -21.0281  -13.1923 N   0  0  0  0  0  0  0  0  0  0  0  0
   24.9190  -20.4553  -14.1345 C   0  0  1  0  0  0  0  0  0  0  0  0
   25.3960  -20.4516  -15.5524 C   0  0  0  0  0  0  0  0  0  0  0  0
   26.6136  -19.6554  -15.6823 C   0  0  0  0  0  0  0  0  0  0  0  0
   26.6409  -18.4627  -15.2466 O   0  0  0  0  0  0  0  0  0  0  0  0
   23.6227  -21.2003  -14.0810 C   0  0  0  0  0  0  0  0  0  0  0  0
   23.6486  -22.4631  -13.8675 O   0  0  0  0  0  0  0  0  0  0  0  0
   27.7836  -20.1087  -16.2627 O   0  0  0  0  0  0  0  0  0  0  0  0
   17.4240  -23.6822   -9.3282 N   0  0  0  0  0  0  0  0  0  0  0  0
   18.3602  -24.5851   -9.8767 C   0  0  0  0  0  0  0  0  0  0  0  0
   18.1478  -25.8666   -9.7878 N   0  0  0  0  0  0  0  0  0  0  0  0
   19.5330  -24.1202  -10.5269 N   0  0  0  0  0  0  0  0  0  0  0  0
   19.8271  -22.7155  -10.7035 C   0  0  0  0  0  0  0  0  0  0  0  0
   19.8433  -22.3447  -12.1815 C   0  0  0  0  0  0  0  0  0  0  0  0
   21.1064  -21.6504  -12.5644 C   0  0  0  0  0  0  0  0  0  0  0  0
   21.1361  -21.2542  -14.0174 C   0  0  2  0  0  0  0  0  0  0  0  0
   22.3943  -20.5157  -14.2631 N   0  0  0  0  0  0  0  0  0  0  0  0
   20.0044  -20.3421  -14.2925 C   0  0  0  0  0  0  0  0  0  0  0  0
   18.6962  -20.7433  -14.4171 O   0  0  0  0  0  0  0  0  0  0  0  0
   20.2548  -19.0914  -14.4273 O   0  0  0  0  0  0  0  0  0  0  0  0
  2  1  1  0
  2  3  2  0
  4  2  1  0
  5  4  1  0
  5  6  1  0
  6  7  1  6
  8  9  2  0
  8  6  1  0
 10  8  1  0
 11 10  1  0
 12 13  1  0
 11 12  1  6
 13 17  1  0
 13 14  2  0
 15 16  2  0
 15 11  1  0
 19 20  2  0
 19 18  1  0
 21 19  1  0
 22 21  1  0
 23 22  1  0
 25 24  1  1
 24 23  1  0
 25 26  1  0
 26 15  1  0
 27 25  1  0
 28 27  1  0
 29 27  2  0
M  END
$$$$
