QDR.pdb
     RDKit          3D

 29 28  0  0  1  0  0  0  0  0999 V2000
   27.2498  -24.7437  -16.5071 N   0  0  0  0  0  0  0  0  0  0  0  0
   27.7994  -23.7125  -17.3171 C   0  0  0  0  0  0  0  0  0  0  0  0
   27.8323  -23.8756  -18.5755 O   0  0  0  0  0  0  0  0  0  0  0  0
   28.3297  -22.4611  -16.7194 C   0  0  0  0  0  0  0  0  0  0  0  0
   27.1904  -21.5906  -16.2811 C   0  0  0  0  0  0  0  0  0  0  0  0
   26.4685  -20.9545  -17.4452 C   0  0  2  0  0  0  0  0  0  0  0  0
   27.3559  -19.9443  -17.9892 N   0  0  0  0  0  0  0  0  0  0  0  0
   25.2281  -20.3048  -16.9499 C   0  0  0  0  0  0  0  0  0  0  0  0
   25.2942  -19.2805  -16.2543 O   0  0  0  0  0  0  0  0  0  0  0  0
   23.9372  -20.8237  -17.2493 N   0  0  0  0  0  0  0  0  0  0  0  0
   22.7186  -20.2594  -16.7544 C   0  0  1  0  0  0  0  0  0  0  0  0
   21.5730  -20.2900  -17.7159 C   0  0  0  0  0  0  0  0  0  0  0  0
   20.4117  -19.6063  -17.1524 C   0  0  0  0  0  0  0  0  0  0  0  0
   19.2453  -20.0673  -17.3531 O   0  0  0  0  0  0  0  0  0  0  0  0
   22.3059  -20.9880  -15.5145 C   0  0  0  0  0  0  0  0  0  0  0  0
   22.1137  -22.2527  -15.5808 O   0  0  0  0  0  0  0  0  0  0  0  0
   20.4785  -18.4548  -16.3902 O   0  0  0  0  0  0  0  0  0  0  0  0
   26.0816  -20.7486   -8.0960 N   0  0  0  0  0  0  0  0  0  0  0  0
   26.7297  -20.9458   -9.3344 C   0  0  0  0  0  0  0  0  0  0  0  0
   27.9576  -21.3784   -9.3574 N   0  0  0  0  0  0  0  0  0  0  0  0
   26.0649  -20.6810  -10.5600 N   0  0  0  0  0  0  0  0  0  0  0  0
   24.6873  -20.2469  -10.6269 C   0  0  0  0  0  0  0  0  0  0  0  0
   23.9569  -20.9296  -11.7770 C   0  0  0  0  0  0  0  0  0  0  0  0
   22.5601  -20.4276  -11.9218 C   0  0  0  0  0  0  0  0  0  0  0  0
   21.8284  -21.0648  -13.0740 C   0  0  2  0  0  0  0  0  0  0  0  0
   22.1336  -20.2862  -14.2945 N   0  0  0  0  0  0  0  0  0  0  0  0
   20.3723  -20.9825  -12.8262 C   0  0  0  0  0  0  0  0  0  0  0  0
   19.6628  -21.8771  -12.0618 O   0  0  0  0  0  0  0  0  0  0  0  0
   19.7218  -20.0145  -13.3600 O   0  0  0  0  0  0  0  0  0  0  0  0
  2  1  1  0
  2  3  2  0
  4  2  1  0
  5  4  1  0
  5  6  1  0
  6  7  1  1
  8  9  2  0
  8  6  1  0
 10  8  1  0
 11 10  1  0
 12 13  1  0
 11 12  1  6
 13 17  1  0
 13 14  2  0
 15 16  2  0
 15 11  1  0
 19 20  2  0
 19 18  1  0
 21 19  1  0
 22 21  1  0
 23 22  1  0
 25 24  1  1
 24 23  1  0
 25 26  1  0
 26 15  1  0
 27 25  1  0
 28 27  1  0
 29 27  2  0
M  END
$$$$
