QDR.pdb
     RDKit          3D

 29 28  0  0  1  0  0  0  0  0999 V2000
   29.5857  -21.6964  -11.1653 N   0  0  0  0  0  0  0  0  0  0  0  0
   29.1597  -21.5354   -9.8184 C   0  0  0  0  0  0  0  0  0  0  0  0
   29.9737  -21.8077   -8.8832 O   0  0  0  0  0  0  0  0  0  0  0  0
   27.7918  -21.0587   -9.4929 C   0  0  0  0  0  0  0  0  0  0  0  0
   27.0339  -20.8009  -10.7607 C   0  0  0  0  0  0  0  0  0  0  0  0
   25.7282  -20.0822  -10.5169 C   0  0  2  0  0  0  0  0  0  0  0  0
   25.1555  -20.6479   -9.3103 N   0  0  0  0  0  0  0  0  0  0  0  0
   24.8148  -20.3351  -11.6606 C   0  0  0  0  0  0  0  0  0  0  0  0
   25.2745  -20.5457  -12.7927 O   0  0  0  0  0  0  0  0  0  0  0  0
   23.4003  -20.3453  -11.5044 N   0  0  0  0  0  0  0  0  0  0  0  0
   22.4827  -20.5659  -12.5802 C   0  0  1  0  0  0  0  0  0  0  0  0
   21.0527  -20.7189  -12.1686 C   0  0  0  0  0  0  0  0  0  0  0  0
   20.7463  -22.1192  -11.8878 C   0  0  0  0  0  0  0  0  0  0  0  0
   21.3545  -23.0398  -12.5169 O   0  0  0  0  0  0  0  0  0  0  0  0
   22.5705  -19.4254  -13.5446 C   0  0  0  0  0  0  0  0  0  0  0  0
   22.2679  -18.2501  -13.1347 O   0  0  0  0  0  0  0  0  0  0  0  0
   19.8135  -22.5424  -10.9593 O   0  0  0  0  0  0  0  0  0  0  0  0
   28.1036  -17.7854  -20.3009 N   0  0  0  0  0  0  0  0  0  0  0  0
   27.2405  -16.6771  -20.1616 C   0  0  0  0  0  0  0  0  0  0  0  0
   27.4833  -15.5838  -20.8257 N   0  0  0  0  0  0  0  0  0  0  0  0
   26.1077  -16.7329  -19.3085 N   0  0  0  0  0  0  0  0  0  0  0  0
   25.7818  -17.8956  -18.5130 C   0  0  0  0  0  0  0  0  0  0  0  0
   24.5486  -17.6395  -17.6550 C   0  0  0  0  0  0  0  0  0  0  0  0
   24.3609  -18.7009  -16.6243 C   0  0  0  0  0  0  0  0  0  0  0  0
   23.1379  -18.4774  -15.7738 C   0  0  2  0  0  0  0  0  0  0  0  0
   22.9817  -19.6484  -14.8832 N   0  0  0  0  0  0  0  0  0  0  0  0
   21.9480  -18.4016  -16.6495 C   0  0  0  0  0  0  0  0  0  0  0  0
   21.4108  -17.2319  -17.1303 O   0  0  0  0  0  0  0  0  0  0  0  0
   21.3727  -19.4980  -16.9842 O   0  0  0  0  0  0  0  0  0  0  0  0
  2  1  1  0
  2  3  2  0
  4  2  1  0
  5  4  1  0
  5  6  1  0
  6  7  1  1
  8  9  2  0
  8  6  1  0
 10  8  1  0
 11 10  1  0
 12 13  1  0
 11 12  1  1
 13 17  1  0
 13 14  2  0
 15 16  2  0
 15 11  1  0
 19 20  2  0
 19 18  1  0
 21 19  1  0
 22 21  1  0
 23 22  1  0
 25 24  1  6
 24 23  1  0
 25 26  1  0
 26 15  1  0
 27 25  1  0
 28 27  1  0
 29 27  2  0
M  END
$$$$
