QDR.pdb
     RDKit          3D

 29 28  0  0  1  0  0  0  0  0999 V2000
   30.9107  -10.6326  -16.7405 N   0  0  0  0  0  0  0  0  0  0  0  0
   30.1900  -10.4586  -17.9537 C   0  0  0  0  0  0  0  0  0  0  0  0
   30.8322  -10.1719  -19.0105 O   0  0  0  0  0  0  0  0  0  0  0  0
   28.7134  -10.6057  -18.0025 C   0  0  0  0  0  0  0  0  0  0  0  0
   28.1898  -10.8846  -16.6255 C   0  0  0  0  0  0  0  0  0  0  0  0
   26.6817  -10.9554  -16.5845 C   0  0  2  0  0  0  0  0  0  0  0  0
   26.2582  -11.6150  -17.8050 N   0  0  0  0  0  0  0  0  0  0  0  0
   26.1323   -9.5758  -16.5545 C   0  0  0  0  0  0  0  0  0  0  0  0
   26.2978   -8.8589  -15.5565 O   0  0  0  0  0  0  0  0  0  0  0  0
   25.4067   -9.0321  -17.6514 N   0  0  0  0  0  0  0  0  0  0  0  0
   24.8091   -7.7317  -17.6436 C   0  0  1  0  0  0  0  0  0  0  0  0
   25.2964   -6.8069  -18.7137 C   0  0  0  0  0  0  0  0  0  0  0  0
   26.4320   -6.0222  -18.2360 C   0  0  0  0  0  0  0  0  0  0  0  0
   27.5032   -5.9776  -18.9169 O   0  0  0  0  0  0  0  0  0  0  0  0
   23.3263   -7.8699  -17.7869 C   0  0  0  0  0  0  0  0  0  0  0  0
   22.8666   -8.6191  -18.7187 O   0  0  0  0  0  0  0  0  0  0  0  0
   26.4387   -5.2967  -17.0592 O   0  0  0  0  0  0  0  0  0  0  0  0
   17.2456  -12.0001  -13.9124 N   0  0  0  0  0  0  0  0  0  0  0  0
   16.5854  -11.2620  -14.9184 C   0  0  0  0  0  0  0  0  0  0  0  0
   15.3445  -11.5318  -15.2061 N   0  0  0  0  0  0  0  0  0  0  0  0
   17.2513  -10.2264  -15.6242 N   0  0  0  0  0  0  0  0  0  0  0  0
   18.6701   -9.9780  -15.4978 C   0  0  0  0  0  0  0  0  0  0  0  0
   19.0854   -8.7641  -16.3201 C   0  0  0  0  0  0  0  0  0  0  0  0
   20.5562   -8.5268  -16.2534 C   0  0  0  0  0  0  0  0  0  0  0  0
   20.9954   -7.3521  -17.0878 C   0  0  2  0  0  0  0  0  0  0  0  0
   22.4537   -7.1829  -16.9052 N   0  0  0  0  0  0  0  0  0  0  0  0
   20.3236   -6.1304  -16.5933 C   0  0  0  0  0  0  0  0  0  0  0  0
   20.8108   -5.3284  -15.5896 O   0  0  0  0  0  0  0  0  0  0  0  0
   19.2095   -5.7928  -17.1318 O   0  0  0  0  0  0  0  0  0  0  0  0
  2  1  1  0
  2  3  2  0
  4  2  1  0
  5  4  1  0
  5  6  1  0
  6  7  1  6
  8  9  2  0
  8  6  1  0
 10  8  1  0
 11 10  1  0
 12 13  1  0
 11 12  1  6
 13 17  1  0
 13 14  2  0
 15 16  2  0
 15 11  1  0
 19 20  2  0
 19 18  1  0
 21 19  1  0
 22 21  1  0
 23 22  1  0
 25 24  1  1
 24 23  1  0
 25 26  1  0
 26 15  1  0
 27 25  1  0
 28 27  1  0
 29 27  2  0
M  END
$$$$
