EWT.pdb
     RDKit          3D

 31 32  0  0  1  0  0  0  0  0999 V2000
   28.8254  -21.0677  -13.1759 N   0  0  0  0  0  0  0  0  0  0  0  0
   27.4592  -20.9010  -13.5617 C   0  0  1  0  0  0  0  0  0  0  0  0
   27.0436  -21.5761  -14.8263 C   0  0  0  0  0  0  0  0  0  0  0  0
   27.1705  -20.7929  -16.0745 C   0  0  0  0  0  0  0  0  0  0  0  0
   28.4650  -20.1549  -16.3436 C   0  0  0  0  0  0  0  0  0  0  0  0
   29.5659  -20.6915  -16.4936 O   0  0  0  0  0  0  0  0  0  0  0  0
   26.5356  -21.2907  -12.4301 C   0  0  0  0  0  0  0  0  0  0  0  0
   25.9026  -22.3497  -12.5441 O   0  0  0  0  0  0  0  0  0  0  0  0
   28.4485  -18.7438  -16.4439 O   0  0  0  0  0  0  0  0  0  0  0  0
   26.3895  -20.4805  -11.2739 N   0  0  0  0  0  0  0  0  0  0  0  0
   25.4587  -20.8572  -10.1978 C   0  0  1  0  0  0  0  0  0  0  0  0
   25.8917  -20.2617   -8.8955 C   0  0  0  0  0  0  0  0  0  0  0  0
   27.2458  -20.5817   -8.4730 C   0  0  0  0  0  0  0  0  0  0  0  0
   28.1549  -21.3453   -9.1678 C   0  0  0  0  0  0  0  0  0  0  0  0
   29.3042  -21.4163   -8.4437 N   0  0  0  0  0  0  0  0  0  0  0  0
   29.1729  -20.7286   -7.3090 C   0  0  0  0  0  0  0  0  0  0  0  0
   29.9891  -20.4644   -6.2336 C   0  0  0  0  0  0  0  0  0  0  0  0
   29.6020  -19.6993   -5.1523 C   0  0  0  0  0  0  0  0  0  0  0  0
   28.3236  -19.1861   -5.1799 C   0  0  0  0  0  0  0  0  0  0  0  0
   27.4938  -19.4420   -6.2504 C   0  0  0  0  0  0  0  0  0  0  0  0
   27.8973  -20.2078   -7.3207 C   0  0  0  0  0  0  0  0  0  0  0  0
   24.1334  -20.2880  -10.5569 C   0  0  0  0  0  0  0  0  0  0  0  0
   23.8288  -19.1034  -10.2540 O   0  0  0  0  0  0  0  0  0  0  0  0
   22.7211  -19.8525  -13.9540 C   0  0  0  0  0  0  0  0  0  0  0  0
   21.7913  -20.7489  -13.1715 C   0  0  1  0  0  0  0  0  0  0  0  0
   22.1125  -22.0982  -13.4080 O   0  0  0  0  0  0  0  0  0  0  0  0
   21.9248  -20.4881  -11.6777 C   0  0  2  0  0  0  0  0  0  0  0  0
   23.1778  -21.0869  -11.2586 N   0  0  0  0  0  0  0  0  0  0  0  0
   20.7901  -21.2001  -11.0093 C   0  0  0  0  0  0  0  0  0  0  0  0
   19.4863  -20.7882  -11.1478 O   0  0  0  0  0  0  0  0  0  0  0  0
   21.0184  -22.2021  -10.2999 O   0  0  0  0  0  0  0  0  0  0  0  0
  2  1  1  1
  3  2  1  0
  3  4  1  0
  5  4  1  0
  5  9  1  0
  6  5  2  0
  7  8  2  0
  7  2  1  0
 10  7  1  0
 11 10  1  0
 11 12  1  1
 12 13  1  0
 13 14  2  0
 13 21  1  0
 14 15  1  0
 15 16  1  0
 16 17  2  0
 18 17  1  0
 19 18  2  0
 20 21  2  0
 20 19  1  0
 21 16  1  0
 22 11  1  0
 23 22  2  0
 25 24  1  6
 25 27  1  0
 26 25  1  0
 27 29  1  0
 27 28  1  1
 28 22  1  0
 29 30  1  0
 31 29  2  0
M  END
$$$$
