EWT.pdb
     RDKit          3D

 31 32  0  0  1  0  0  0  0  0999 V2000
   27.8814  -37.6347   -8.4627 N   0  0  0  0  0  0  0  0  0  0  0  0
   26.9379  -37.2496   -7.4604 C   0  0  1  0  0  0  0  0  0  0  0  0
   26.1432  -38.3523   -6.8438 C   0  0  0  0  0  0  0  0  0  0  0  0
   25.0347  -38.9083   -7.6497 C   0  0  0  0  0  0  0  0  0  0  0  0
   23.8421  -39.3721   -6.9301 C   0  0  0  0  0  0  0  0  0  0  0  0
   23.6340  -39.3717   -5.7139 O   0  0  0  0  0  0  0  0  0  0  0  0
   27.6091  -36.4225   -6.3877 C   0  0  0  0  0  0  0  0  0  0  0  0
   28.8464  -36.4514   -6.3301 O   0  0  0  0  0  0  0  0  0  0  0  0
   22.7970  -39.8853   -7.7339 O   0  0  0  0  0  0  0  0  0  0  0  0
   26.8597  -35.6375   -5.4728 N   0  0  0  0  0  0  0  0  0  0  0  0
   27.5303  -34.7376   -4.5206 C   0  0  1  0  0  0  0  0  0  0  0  0
   27.1547  -33.3144   -4.7881 C   0  0  0  0  0  0  0  0  0  0  0  0
   27.0856  -32.9314   -6.1891 C   0  0  0  0  0  0  0  0  0  0  0  0
   28.0991  -33.0413   -7.1127 C   0  0  0  0  0  0  0  0  0  0  0  0
   27.6478  -32.5760   -8.3086 N   0  0  0  0  0  0  0  0  0  0  0  0
   26.3830  -32.1701   -8.1935 C   0  0  0  0  0  0  0  0  0  0  0  0
   25.4547  -31.6290   -9.0525 C   0  0  0  0  0  0  0  0  0  0  0  0
   24.1728  -31.2870   -8.6730 C   0  0  0  0  0  0  0  0  0  0  0  0
   23.8337  -31.5113   -7.3565 C   0  0  0  0  0  0  0  0  0  0  0  0
   24.7528  -32.0528   -6.4835 C   0  0  0  0  0  0  0  0  0  0  0  0
   26.0276  -32.3879   -6.8801 C   0  0  0  0  0  0  0  0  0  0  0  0
   27.0428  -35.1053   -3.1654 C   0  0  0  0  0  0  0  0  0  0  0  0
   25.8672  -34.8364   -2.8002 O   0  0  0  0  0  0  0  0  0  0  0  0
   27.5915  -38.6151   -1.3874 C   0  0  0  0  0  0  0  0  0  0  0  0
   28.1156  -37.4588   -0.5696 C   0  0  1  0  0  0  0  0  0  0  0  0
   29.4911  -37.2848   -0.8098 O   0  0  0  0  0  0  0  0  0  0  0  0
   27.4046  -36.1673   -0.9483 C   0  0  2  0  0  0  0  0  0  0  0  0
   27.9119  -35.7763   -2.2498 N   0  0  0  0  0  0  0  0  0  0  0  0
   27.8021  -35.1394    0.0649 C   0  0  0  0  0  0  0  0  0  0  0  0
   27.3278  -35.1635    1.3547 O   0  0  0  0  0  0  0  0  0  0  0  0
   28.5887  -34.2242   -0.2557 O   0  0  0  0  0  0  0  0  0  0  0  0
  2  1  1  6
  3  2  1  0
  3  4  1  0
  5  4  1  0
  5  9  1  0
  6  5  2  0
  7  8  2  0
  7  2  1  0
 10  7  1  0
 11 10  1  0
 11 12  1  6
 12 13  1  0
 13 14  2  0
 13 21  1  0
 14 15  1  0
 15 16  1  0
 16 17  2  0
 18 17  1  0
 19 18  2  0
 20 21  2  0
 20 19  1  0
 21 16  1  0
 22 11  1  0
 23 22  2  0
 25 24  1  6
 25 27  1  0
 26 25  1  0
 27 29  1  0
 27 28  1  6
 28 22  1  0
 29 30  1  0
 31 29  2  0
M  END
$$$$
