EWT.pdb
     RDKit          3D

 31 32  0  0  1  0  0  0  0  0999 V2000
   22.1349  -13.8554  -21.1530 N   0  0  0  0  0  0  0  0  0  0  0  0
   21.9225  -12.4424  -21.1177 C   0  0  1  0  0  0  0  0  0  0  0  0
   20.5164  -11.9813  -21.3129 C   0  0  0  0  0  0  0  0  0  0  0  0
   19.8418  -12.4040  -22.5594 C   0  0  0  0  0  0  0  0  0  0  0  0
   18.5785  -13.1403  -22.4281 C   0  0  0  0  0  0  0  0  0  0  0  0
   18.0516  -13.5787  -21.4022 O   0  0  0  0  0  0  0  0  0  0  0  0
   22.4990  -11.8492  -19.8523 C   0  0  0  0  0  0  0  0  0  0  0  0
   22.3537  -12.4879  -18.8006 O   0  0  0  0  0  0  0  0  0  0  0  0
   17.8747  -13.3777  -23.6322 O   0  0  0  0  0  0  0  0  0  0  0  0
   23.1834  -10.6057  -19.8559 N   0  0  0  0  0  0  0  0  0  0  0  0
   23.7765  -10.0641  -18.6225 C   0  0  1  0  0  0  0  0  0  0  0  0
   25.2049   -9.6821  -18.8496 C   0  0  0  0  0  0  0  0  0  0  0  0
   26.1976  -10.6092  -18.3307 C   0  0  0  0  0  0  0  0  0  0  0  0
   26.9544  -11.4878  -19.0708 C   0  0  0  0  0  0  0  0  0  0  0  0
   27.7617  -12.1831  -18.2251 N   0  0  0  0  0  0  0  0  0  0  0  0
   27.5561  -11.7879  -16.9684 C   0  0  0  0  0  0  0  0  0  0  0  0
   28.0776  -12.1348  -15.7436 C   0  0  0  0  0  0  0  0  0  0  0  0
   27.6827  -11.5557  -14.5550 C   0  0  0  0  0  0  0  0  0  0  0  0
   26.7123  -10.5806  -14.6310 C   0  0  0  0  0  0  0  0  0  0  0  0
   26.1798  -10.2219  -15.8508 C   0  0  0  0  0  0  0  0  0  0  0  0
   26.5862  -10.8109  -17.0267 C   0  0  0  0  0  0  0  0  0  0  0  0
   23.0107   -8.8370  -18.2802 C   0  0  0  0  0  0  0  0  0  0  0  0
   23.0441   -7.8194  -19.0225 O   0  0  0  0  0  0  0  0  0  0  0  0
   19.3609   -8.4508  -17.7997 C   0  0  0  0  0  0  0  0  0  0  0  0
   20.0336   -8.0264  -16.5160 C   0  0  1  0  0  0  0  0  0  0  0  0
   20.0627   -9.1027  -15.6101 O   0  0  0  0  0  0  0  0  0  0  0  0
   21.4691   -7.5939  -16.7795 C   0  0  2  0  0  0  0  0  0  0  0  0
   22.2181   -8.7964  -17.0911 N   0  0  0  0  0  0  0  0  0  0  0  0
   21.9872   -7.0073  -15.5033 C   0  0  0  0  0  0  0  0  0  0  0  0
   22.9399   -7.6409  -14.7418 O   0  0  0  0  0  0  0  0  0  0  0  0
   21.5502   -5.9079  -15.1036 O   0  0  0  0  0  0  0  0  0  0  0  0
  2  1  1  1
  3  2  1  0
  3  4  1  0
  5  4  1  0
  5  9  1  0
  6  5  2  0
  7  8  2  0
  7  2  1  0
 10  7  1  0
 11 10  1  0
 11 12  1  6
 12 13  1  0
 13 14  2  0
 13 21  1  0
 14 15  1  0
 15 16  1  0
 16 17  2  0
 18 17  1  0
 19 18  2  0
 20 21  2  0
 20 19  1  0
 21 16  1  0
 22 11  1  0
 23 22  2  0
 25 24  1  6
 25 27  1  0
 26 25  1  0
 27 29  1  0
 27 28  1  1
 28 22  1  0
 29 30  1  0
 31 29  2  0
M  END
$$$$
