EWT.pdb
     RDKit          3D

 31 32  0  0  1  0  0  0  0  0999 V2000
   28.0517  -22.3739  -15.5106 N   0  0  0  0  0  0  0  0  0  0  0  0
   27.9055  -21.2291  -14.6674 C   0  0  1  0  0  0  0  0  0  0  0  0
   27.7441  -19.9163  -15.3591 C   0  0  0  0  0  0  0  0  0  0  0  0
   26.8603  -19.8901  -16.5448 C   0  0  0  0  0  0  0  0  0  0  0  0
   25.4659  -19.4794  -16.3395 C   0  0  0  0  0  0  0  0  0  0  0  0
   25.0359  -18.5460  -15.6568 O   0  0  0  0  0  0  0  0  0  0  0  0
   26.7863  -21.4401  -13.6733 C   0  0  0  0  0  0  0  0  0  0  0  0
   26.0009  -22.3752  -13.8826 O   0  0  0  0  0  0  0  0  0  0  0  0
   24.4897  -20.2529  -17.0106 O   0  0  0  0  0  0  0  0  0  0  0  0
   26.6298  -20.6033  -12.5375 N   0  0  0  0  0  0  0  0  0  0  0  0
   25.6266  -20.9081  -11.5046 C   0  0  1  0  0  0  0  0  0  0  0  0
   25.9496  -20.1936  -10.2306 C   0  0  0  0  0  0  0  0  0  0  0  0
   27.2174  -20.5462   -9.6118 C   0  0  0  0  0  0  0  0  0  0  0  0
   28.2097  -21.3158  -10.1735 C   0  0  0  0  0  0  0  0  0  0  0  0
   29.2329  -21.4204   -9.2832 N   0  0  0  0  0  0  0  0  0  0  0  0
   28.9403  -20.7488   -8.1693 C   0  0  0  0  0  0  0  0  0  0  0  0
   29.5859  -20.5176   -6.9767 C   0  0  0  0  0  0  0  0  0  0  0  0
   29.0501  -19.7629   -5.9532 C   0  0  0  0  0  0  0  0  0  0  0  0
   27.7997  -19.2250   -6.1667 C   0  0  0  0  0  0  0  0  0  0  0  0
   27.1399  -19.4476   -7.3563 C   0  0  0  0  0  0  0  0  0  0  0  0
   27.6904  -20.2035   -8.3664 C   0  0  0  0  0  0  0  0  0  0  0  0
   24.3230  -20.4026  -12.0091 C   0  0  0  0  0  0  0  0  0  0  0  0
   24.0756  -19.1679  -12.0536 O   0  0  0  0  0  0  0  0  0  0  0  0
   22.7329  -21.4387  -15.2899 C   0  0  0  0  0  0  0  0  0  0  0  0
   21.7183  -21.6480  -14.1912 C   0  0  1  0  0  0  0  0  0  0  0  0
   21.7048  -22.9997  -13.8007 O   0  0  0  0  0  0  0  0  0  0  0  0
   22.0679  -20.8088  -12.9703 C   0  0  2  0  0  0  0  0  0  0  0  0
   23.3231  -21.3219  -12.4551 N   0  0  0  0  0  0  0  0  0  0  0  0
   20.9882  -21.0413  -11.9597 C   0  0  0  0  0  0  0  0  0  0  0  0
   21.2010  -21.7797  -10.8202 O   0  0  0  0  0  0  0  0  0  0  0  0
   19.8523  -20.5560  -12.1426 O   0  0  0  0  0  0  0  0  0  0  0  0
  2  1  1  6
  3  2  1  0
  3  4  1  0
  5  4  1  0
  5  9  1  0
  6  5  2  0
  7  8  2  0
  7  2  1  0
 10  7  1  0
 11 10  1  0
 11 12  1  1
 12 13  1  0
 13 14  2  0
 13 21  1  0
 14 15  1  0
 15 16  1  0
 16 17  2  0
 18 17  1  0
 19 18  2  0
 20 21  2  0
 20 19  1  0
 21 16  1  0
 22 11  1  0
 23 22  2  0
 25 24  1  6
 25 27  1  0
 26 25  1  0
 27 29  1  0
 27 28  1  1
 28 22  1  0
 29 30  1  0
 31 29  2  0
M  END
$$$$
