EWT.pdb
     RDKit          3D

 31 32  0  0  1  0  0  0  0  0999 V2000
   19.6051  -10.0201  -15.9553 N   0  0  0  0  0  0  0  0  0  0  0  0
   20.6213   -9.0171  -16.0227 C   0  0  1  0  0  0  0  0  0  0  0  0
   21.1302   -8.6841  -17.3858 C   0  0  0  0  0  0  0  0  0  0  0  0
   21.7258   -9.7908  -18.1653 C   0  0  0  0  0  0  0  0  0  0  0  0
   22.4182   -9.4433  -19.4123 C   0  0  0  0  0  0  0  0  0  0  0  0
   22.5586   -8.3297  -19.9247 O   0  0  0  0  0  0  0  0  0  0  0  0
   20.1782   -7.7619  -15.3062 C   0  0  0  0  0  0  0  0  0  0  0  0
   18.9963   -7.4134  -15.4356 O   0  0  0  0  0  0  0  0  0  0  0  0
   22.9993  -10.5236  -20.1172 O   0  0  0  0  0  0  0  0  0  0  0  0
   21.0747   -7.0008  -14.5114 N   0  0  0  0  0  0  0  0  0  0  0  0
   20.6070   -5.8295  -13.7529 C   0  0  1  0  0  0  0  0  0  0  0  0
   20.9503   -5.9701  -12.3036 C   0  0  0  0  0  0  0  0  0  0  0  0
   20.0726   -6.8304  -11.5265 C   0  0  0  0  0  0  0  0  0  0  0  0
   20.1721   -7.0884  -10.1790 C   0  0  0  0  0  0  0  0  0  0  0  0
   19.1727   -7.9410   -9.8262 N   0  0  0  0  0  0  0  0  0  0  0  0
   18.4319   -8.2434  -10.8927 C   0  0  0  0  0  0  0  0  0  0  0  0
   17.3271   -9.0323  -11.1157 C   0  0  0  0  0  0  0  0  0  0  0  0
   16.7322   -9.1794  -12.3522 C   0  0  0  0  0  0  0  0  0  0  0  0
   17.2977   -8.4865  -13.4003 C   0  0  0  0  0  0  0  0  0  0  0  0
   18.4049   -7.6920  -13.1928 C   0  0  0  0  0  0  0  0  0  0  0  0
   18.9850   -7.5573  -11.9518 C   0  0  0  0  0  0  0  0  0  0  0  0
   21.3307   -4.6495  -14.2947 C   0  0  0  0  0  0  0  0  0  0  0  0
   22.5751   -4.6811  -14.4898 O   0  0  0  0  0  0  0  0  0  0  0  0
   20.1259   -2.5374  -17.3997 C   0  0  0  0  0  0  0  0  0  0  0  0
   20.3436   -1.6773  -16.1777 C   0  0  1  0  0  0  0  0  0  0  0  0
   19.1258   -1.4916  -15.4977 O   0  0  0  0  0  0  0  0  0  0  0  0
   21.3210   -2.3432  -15.2194 C   0  0  2  0  0  0  0  0  0  0  0  0
   20.6151   -3.4513  -14.6045 N   0  0  0  0  0  0  0  0  0  0  0  0
   21.6586   -1.3304  -14.1699 C   0  0  0  0  0  0  0  0  0  0  0  0
   22.4064   -0.2114  -14.4484 O   0  0  0  0  0  0  0  0  0  0  0  0
   21.2557   -1.4924  -12.9991 O   0  0  0  0  0  0  0  0  0  0  0  0
  2  1  1  6
  3  2  1  0
  3  4  1  0
  5  4  1  0
  5  9  1  0
  6  5  2  0
  7  8  2  0
  7  2  1  0
 10  7  1  0
 11 10  1  0
 11 12  1  1
 12 13  1  0
 13 14  2  0
 13 21  1  0
 14 15  1  0
 15 16  1  0
 16 17  2  0
 18 17  1  0
 19 18  2  0
 20 21  2  0
 20 19  1  0
 21 16  1  0
 22 11  1  0
 23 22  2  0
 25 24  1  6
 25 27  1  0
 26 25  1  0
 27 29  1  0
 27 28  1  1
 28 22  1  0
 29 30  1  0
 31 29  2  0
M  END
$$$$
