EWT.pdb
     RDKit          3D

 31 32  0  0  1  0  0  0  0  0999 V2000
   28.7031  -21.8670  -14.7855 N   0  0  0  0  0  0  0  0  0  0  0  0
   27.5276  -21.0537  -14.7874 C   0  0  1  0  0  0  0  0  0  0  0  0
   26.7981  -20.9513  -16.0855 C   0  0  0  0  0  0  0  0  0  0  0  0
   27.1021  -19.7770  -16.9317 C   0  0  0  0  0  0  0  0  0  0  0  0
   27.2645  -18.4825  -16.2586 C   0  0  0  0  0  0  0  0  0  0  0  0
   28.1460  -18.1368  -15.4676 O   0  0  0  0  0  0  0  0  0  0  0  0
   26.5837  -21.4807  -13.6865 C   0  0  0  0  0  0  0  0  0  0  0  0
   26.1238  -22.6300  -13.7379 O   0  0  0  0  0  0  0  0  0  0  0  0
   26.2847  -17.5058  -16.5548 O   0  0  0  0  0  0  0  0  0  0  0  0
   26.2286  -20.6052  -12.6272 N   0  0  0  0  0  0  0  0  0  0  0  0
   25.2904  -21.0300  -11.5758 C   0  0  1  0  0  0  0  0  0  0  0  0
   25.6565  -20.4126  -10.2633 C   0  0  0  0  0  0  0  0  0  0  0  0
   26.9380  -20.8187   -9.7090 C   0  0  0  0  0  0  0  0  0  0  0  0
   27.8632  -21.6366  -10.3152 C   0  0  0  0  0  0  0  0  0  0  0  0
   28.9263  -21.7822   -9.4792 N   0  0  0  0  0  0  0  0  0  0  0  0
   28.7240  -21.0905   -8.3574 C   0  0  0  0  0  0  0  0  0  0  0  0
   29.4418  -20.8813   -7.2027 C   0  0  0  0  0  0  0  0  0  0  0  0
   28.9958  -20.0961   -6.1592 C   0  0  0  0  0  0  0  0  0  0  0  0
   27.7616  -19.5029   -6.3113 C   0  0  0  0  0  0  0  0  0  0  0  0
   27.0302  -19.7029   -7.4625 C   0  0  0  0  0  0  0  0  0  0  0  0
   27.4914  -20.4899   -8.4934 C   0  0  0  0  0  0  0  0  0  0  0  0
   23.9471  -20.5311  -11.9711 C   0  0  0  0  0  0  0  0  0  0  0  0
   23.6770  -19.3005  -11.9517 O   0  0  0  0  0  0  0  0  0  0  0  0
   22.3561  -21.0120  -15.2310 C   0  0  0  0  0  0  0  0  0  0  0  0
   21.3957  -21.5627  -14.2040 C   0  0  1  0  0  0  0  0  0  0  0  0
   21.5628  -22.9549  -14.0876 O   0  0  0  0  0  0  0  0  0  0  0  0
   21.6552  -20.9417  -12.8387 C   0  0  2  0  0  0  0  0  0  0  0  0
   22.9342  -21.4521  -12.3829 N   0  0  0  0  0  0  0  0  0  0  0  0
   20.5749  -21.4324  -11.9258 C   0  0  0  0  0  0  0  0  0  0  0  0
   20.8184  -22.3524  -10.9342 O   0  0  0  0  0  0  0  0  0  0  0  0
   19.4099  -21.0023  -12.0561 O   0  0  0  0  0  0  0  0  0  0  0  0
  2  1  1  6
  3  2  1  0
  3  4  1  0
  5  4  1  0
  5  9  1  0
  6  5  2  0
  7  8  2  0
  7  2  1  0
 10  7  1  0
 11 10  1  0
 11 12  1  1
 12 13  1  0
 13 14  2  0
 13 21  1  0
 14 15  1  0
 15 16  1  0
 16 17  2  0
 18 17  1  0
 19 18  2  0
 20 21  2  0
 20 19  1  0
 21 16  1  0
 22 11  1  0
 23 22  2  0
 25 24  1  6
 25 27  1  0
 26 25  1  0
 27 29  1  0
 27 28  1  1
 28 22  1  0
 29 30  1  0
 31 29  2  0
M  END
$$$$
