EWT.pdb
     RDKit          3D

 31 32  0  0  1  0  0  0  0  0999 V2000
   13.3917  -22.0831    5.3257 N   0  0  0  0  0  0  0  0  0  0  0  0
   14.2460  -20.9680    5.5904 C   0  0  1  0  0  0  0  0  0  0  0  0
   13.8078  -20.0449    6.6784 C   0  0  0  0  0  0  0  0  0  0  0  0
   12.5870  -19.2486    6.4276 C   0  0  0  0  0  0  0  0  0  0  0  0
   12.6627  -18.1993    5.4036 C   0  0  0  0  0  0  0  0  0  0  0  0
   13.5991  -17.9380    4.6440 O   0  0  0  0  0  0  0  0  0  0  0  0
   15.6645  -21.4306    5.8334 C   0  0  0  0  0  0  0  0  0  0  0  0
   15.8414  -22.3246    6.6728 O   0  0  0  0  0  0  0  0  0  0  0  0
   11.5149  -17.3830    5.2706 O   0  0  0  0  0  0  0  0  0  0  0  0
   16.7629  -20.8681    5.1321 N   0  0  0  0  0  0  0  0  0  0  0  0
   18.1381  -21.3283    5.3839 C   0  0  1  0  0  0  0  0  0  0  0  0
   18.8811  -21.4946    4.0962 C   0  0  0  0  0  0  0  0  0  0  0  0
   18.5157  -22.6557    3.3007 C   0  0  0  0  0  0  0  0  0  0  0  0
   17.2593  -22.9527    2.8256 C   0  0  0  0  0  0  0  0  0  0  0  0
   17.3237  -24.1204    2.1309 N   0  0  0  0  0  0  0  0  0  0  0  0
   18.5720  -24.5888    2.1387 C   0  0  0  0  0  0  0  0  0  0  0  0
   19.1975  -25.6949    1.6116 C   0  0  0  0  0  0  0  0  0  0  0  0
   20.5435  -25.9561    1.7669 C   0  0  0  0  0  0  0  0  0  0  0  0
   21.2742  -25.0418    2.4939 C   0  0  0  0  0  0  0  0  0  0  0  0
   20.6618  -23.9285    3.0286 C   0  0  0  0  0  0  0  0  0  0  0  0
   19.3173  -23.6843    2.8633 C   0  0  0  0  0  0  0  0  0  0  0  0
   18.8081  -20.2660    6.1790 C   0  0  0  0  0  0  0  0  0  0  0  0
   18.9589  -19.1033    5.7173 O   0  0  0  0  0  0  0  0  0  0  0  0
   17.9534  -18.5756    9.3084 C   0  0  0  0  0  0  0  0  0  0  0  0
   19.2410  -19.3299    9.5399 C   0  0  1  0  0  0  0  0  0  0  0  0
   18.9634  -20.6027   10.0716 O   0  0  0  0  0  0  0  0  0  0  0  0
   19.9944  -19.5206    8.2311 C   0  0  2  0  0  0  0  0  0  0  0  0
   19.2946  -20.5542    7.4920 N   0  0  0  0  0  0  0  0  0  0  0  0
   21.3642  -20.0097    8.5857 C   0  0  0  0  0  0  0  0  0  0  0  0
   21.7287  -21.3274    8.4444 O   0  0  0  0  0  0  0  0  0  0  0  0
   22.2146  -19.2080    9.0253 O   0  0  0  0  0  0  0  0  0  0  0  0
  2  1  1  1
  3  2  1  0
  3  4  1  0
  5  4  1  0
  5  9  1  0
  6  5  2  0
  7  8  2  0
  7  2  1  0
 10  7  1  0
 11 10  1  0
 11 12  1  6
 12 13  1  0
 13 14  2  0
 13 21  1  0
 14 15  1  0
 15 16  1  0
 16 17  2  0
 18 17  1  0
 19 18  2  0
 20 21  2  0
 20 19  1  0
 21 16  1  0
 22 11  1  0
 23 22  2  0
 25 24  1  6
 25 27  1  0
 26 25  1  0
 27 29  1  0
 27 28  1  6
 28 22  1  0
 29 30  1  0
 31 29  2  0
M  END
$$$$
