EWT.pdb
     RDKit          3D

 31 32  0  0  1  0  0  0  0  0999 V2000
   28.5760  -23.5411  -16.5312 N   0  0  0  0  0  0  0  0  0  0  0  0
   27.5627  -22.5367  -16.6183 C   0  0  1  0  0  0  0  0  0  0  0  0
   26.6085  -22.6594  -17.7595 C   0  0  0  0  0  0  0  0  0  0  0  0
   27.1589  -22.4488  -19.1160 C   0  0  0  0  0  0  0  0  0  0  0  0
   27.9292  -21.2212  -19.3500 C   0  0  0  0  0  0  0  0  0  0  0  0
   27.5867  -20.0531  -19.1489 O   0  0  0  0  0  0  0  0  0  0  0  0
   26.8089  -22.4270  -15.3125 C   0  0  0  0  0  0  0  0  0  0  0  0
   25.8366  -23.1767  -15.1459 O   0  0  0  0  0  0  0  0  0  0  0  0
   29.2315  -21.4003  -19.8731 O   0  0  0  0  0  0  0  0  0  0  0  0
   27.1908  -21.5017  -14.3062 N   0  0  0  0  0  0  0  0  0  0  0  0
   26.4989  -21.4666  -13.0077 C   0  0  1  0  0  0  0  0  0  0  0  0
   27.3132  -20.7216  -11.9978 C   0  0  0  0  0  0  0  0  0  0  0  0
   26.7408  -20.6343  -10.6640 C   0  0  0  0  0  0  0  0  0  0  0  0
   25.4076  -20.4850  -10.3599 C   0  0  0  0  0  0  0  0  0  0  0  0
   25.2742  -20.4408   -9.0069 N   0  0  0  0  0  0  0  0  0  0  0  0
   26.4686  -20.5559   -8.4256 C   0  0  0  0  0  0  0  0  0  0  0  0
   26.9180  -20.5764   -7.1256 C   0  0  0  0  0  0  0  0  0  0  0  0
   28.2472  -20.7123   -6.7804 C   0  0  0  0  0  0  0  0  0  0  0  0
   29.1490  -20.8317   -7.8151 C   0  0  0  0  0  0  0  0  0  0  0  0
   28.7142  -20.8128   -9.1231 C   0  0  0  0  0  0  0  0  0  0  0  0
   27.3837  -20.6764   -9.4486 C   0  0  0  0  0  0  0  0  0  0  0  0
   25.2250  -20.7304  -13.2192 C   0  0  0  0  0  0  0  0  0  0  0  0
   25.2212  -19.5060  -13.5170 O   0  0  0  0  0  0  0  0  0  0  0  0
   22.6765  -20.7676  -15.6700 C   0  0  0  0  0  0  0  0  0  0  0  0
   21.9896  -21.1842  -14.3913 C   0  0  1  0  0  0  0  0  0  0  0  0
   21.9546  -22.5878  -14.2998 O   0  0  0  0  0  0  0  0  0  0  0  0
   22.7418  -20.6521  -13.1796 C   0  0  2  0  0  0  0  0  0  0  0  0
   23.9746  -21.4106  -13.0861 N   0  0  0  0  0  0  0  0  0  0  0  0
   21.8932  -20.9405  -11.9805 C   0  0  0  0  0  0  0  0  0  0  0  0
   20.6711  -20.3414  -11.7892 O   0  0  0  0  0  0  0  0  0  0  0  0
   22.2938  -21.7488  -11.1170 O   0  0  0  0  0  0  0  0  0  0  0  0
  2  1  1  1
  3  2  1  0
  3  4  1  0
  5  4  1  0
  5  9  1  0
  6  5  2  0
  7  8  2  0
  7  2  1  0
 10  7  1  0
 11 10  1  0
 11 12  1  1
 12 13  1  0
 13 14  2  0
 13 21  1  0
 14 15  1  0
 15 16  1  0
 16 17  2  0
 18 17  1  0
 19 18  2  0
 20 21  2  0
 20 19  1  0
 21 16  1  0
 22 11  1  0
 23 22  2  0
 25 24  1  6
 25 27  1  0
 26 25  1  0
 27 29  1  0
 27 28  1  1
 28 22  1  0
 29 30  1  0
 31 29  2  0
M  END
$$$$
