EWT.pdb
     RDKit          3D

 31 32  0  0  1  0  0  0  0  0999 V2000
   26.7560  -19.4647  -14.7031 N   0  0  0  0  0  0  0  0  0  0  0  0
   26.7377  -20.8939  -14.6967 C   0  0  1  0  0  0  0  0  0  0  0  0
   28.0505  -21.5717  -14.9089 C   0  0  0  0  0  0  0  0  0  0  0  0
   28.6645  -21.4345  -16.2474 C   0  0  0  0  0  0  0  0  0  0  0  0
   28.8541  -20.0749  -16.7680 C   0  0  0  0  0  0  0  0  0  0  0  0
   29.6634  -19.2202  -16.3984 O   0  0  0  0  0  0  0  0  0  0  0  0
   26.0761  -21.4118  -13.4399 C   0  0  0  0  0  0  0  0  0  0  0  0
   25.9658  -22.6393  -13.3128 O   0  0  0  0  0  0  0  0  0  0  0  0
   27.9992  -19.6960  -17.8297 O   0  0  0  0  0  0  0  0  0  0  0  0
   25.5937  -20.5334  -12.4347 N   0  0  0  0  0  0  0  0  0  0  0  0
   24.8085  -21.0414  -11.2982 C   0  0  1  0  0  0  0  0  0  0  0  0
   25.3017  -20.4539  -10.0138 C   0  0  0  0  0  0  0  0  0  0  0  0
   26.6852  -20.7460   -9.6750 C   0  0  0  0  0  0  0  0  0  0  0  0
   27.5720  -21.4730  -10.4349 C   0  0  0  0  0  0  0  0  0  0  0  0
   28.7622  -21.5271   -9.7784 N   0  0  0  0  0  0  0  0  0  0  0  0
   28.6788  -20.8635   -8.6250 C   0  0  0  0  0  0  0  0  0  0  0  0
   29.5482  -20.5975   -7.5926 C   0  0  0  0  0  0  0  0  0  0  0  0
   29.2044  -19.8623   -6.4765 C   0  0  0  0  0  0  0  0  0  0  0  0
   27.9141  -19.3822   -6.4217 C   0  0  0  0  0  0  0  0  0  0  0  0
   27.0312  -19.6404   -7.4483 C   0  0  0  0  0  0  0  0  0  0  0  0
   27.3920  -20.3760   -8.5544 C   0  0  0  0  0  0  0  0  0  0  0  0
   23.4065  -20.5956  -11.5109 C   0  0  0  0  0  0  0  0  0  0  0  0
   22.9505  -19.5769  -10.9261 O   0  0  0  0  0  0  0  0  0  0  0  0
   21.8350  -19.7275  -14.8292 C   0  0  0  0  0  0  0  0  0  0  0  0
   21.0483  -20.8430  -14.1833 C   0  0  1  0  0  0  0  0  0  0  0  0
   21.5073  -22.0881  -14.6509 O   0  0  0  0  0  0  0  0  0  0  0  0
   21.2203  -20.8157  -12.6710 C   0  0  2  0  0  0  0  0  0  0  0  0
   22.5492  -21.3257  -12.3916 N   0  0  0  0  0  0  0  0  0  0  0  0
   20.2023  -21.7537  -12.1011 C   0  0  0  0  0  0  0  0  0  0  0  0
   18.8583  -21.4663  -12.1100 O   0  0  0  0  0  0  0  0  0  0  0  0
   20.5691  -22.8359  -11.5976 O   0  0  0  0  0  0  0  0  0  0  0  0
  2  1  1  1
  3  2  1  0
  3  4  1  0
  5  4  1  0
  5  9  1  0
  6  5  2  0
  7  8  2  0
  7  2  1  0
 10  7  1  0
 11 10  1  0
 11 12  1  1
 12 13  1  0
 13 14  2  0
 13 21  1  0
 14 15  1  0
 15 16  1  0
 16 17  2  0
 18 17  1  0
 19 18  2  0
 20 21  2  0
 20 19  1  0
 21 16  1  0
 22 11  1  0
 23 22  2  0
 25 24  1  6
 25 27  1  0
 26 25  1  0
 27 29  1  0
 27 28  1  6
 28 22  1  0
 29 30  1  0
 31 29  2  0
M  END
$$$$
