EWT.pdb
     RDKit          3D

 31 32  0  0  1  0  0  0  0  0999 V2000
   28.5268  -22.1246  -14.8427 N   0  0  0  0  0  0  0  0  0  0  0  0
   27.3379  -21.3399  -14.9609 C   0  0  1  0  0  0  0  0  0  0  0  0
   26.6098  -21.4369  -16.2603 C   0  0  0  0  0  0  0  0  0  0  0  0
   26.3630  -20.1708  -16.9838 C   0  0  0  0  0  0  0  0  0  0  0  0
   27.5345  -19.3840  -17.3886 C   0  0  0  0  0  0  0  0  0  0  0  0
   28.0700  -18.4466  -16.7914 O   0  0  0  0  0  0  0  0  0  0  0  0
   26.3987  -21.6206  -13.8101 C   0  0  0  0  0  0  0  0  0  0  0  0
   25.8716  -22.7407  -13.7590 O   0  0  0  0  0  0  0  0  0  0  0  0
   28.1254  -19.7471  -18.6217 O   0  0  0  0  0  0  0  0  0  0  0  0
   26.1219  -20.6439  -12.8180 N   0  0  0  0  0  0  0  0  0  0  0  0
   25.2666  -20.9594  -11.6625 C   0  0  1  0  0  0  0  0  0  0  0  0
   25.7136  -20.1990  -10.4542 C   0  0  0  0  0  0  0  0  0  0  0  0
   26.9939  -20.5994   -9.8930 C   0  0  0  0  0  0  0  0  0  0  0  0
   27.9693  -21.3287  -10.5326 C   0  0  0  0  0  0  0  0  0  0  0  0
   29.0125  -21.5009   -9.6769 N   0  0  0  0  0  0  0  0  0  0  0  0
   28.7492  -20.9116   -8.5103 C   0  0  0  0  0  0  0  0  0  0  0  0
   29.4236  -20.7699   -7.3197 C   0  0  0  0  0  0  0  0  0  0  0  0
   28.9153  -20.0904   -6.2315 C   0  0  0  0  0  0  0  0  0  0  0  0
   27.6627  -19.5348   -6.3754 C   0  0  0  0  0  0  0  0  0  0  0  0
   26.9743  -19.6682   -7.5622 C   0  0  0  0  0  0  0  0  0  0  0  0
   27.4974  -20.3498   -8.6375 C   0  0  0  0  0  0  0  0  0  0  0  0
   23.8910  -20.5183  -12.0127 C   0  0  0  0  0  0  0  0  0  0  0  0
   23.6205  -19.2994  -12.1822 O   0  0  0  0  0  0  0  0  0  0  0  0
   21.8420  -21.3964  -14.9359 C   0  0  0  0  0  0  0  0  0  0  0  0
   21.0648  -21.8241  -13.7138 C   0  0  1  0  0  0  0  0  0  0  0  0
   21.2908  -23.1884  -13.4538 O   0  0  0  0  0  0  0  0  0  0  0  0
   21.5076  -21.0323  -12.4915 C   0  0  2  0  0  0  0  0  0  0  0  0
   22.8467  -21.4830  -12.1633 N   0  0  0  0  0  0  0  0  0  0  0  0
   20.5774  -21.3978  -11.3769 C   0  0  0  0  0  0  0  0  0  0  0  0
   19.2589  -21.0098  -11.3689 O   0  0  0  0  0  0  0  0  0  0  0  0
   20.9968  -22.0763  -10.4162 O   0  0  0  0  0  0  0  0  0  0  0  0
  2  1  1  6
  3  2  1  0
  3  4  1  0
  5  4  1  0
  5  9  1  0
  6  5  2  0
  7  8  2  0
  7  2  1  0
 10  7  1  0
 11 10  1  0
 11 12  1  1
 12 13  1  0
 13 14  2  0
 13 21  1  0
 14 15  1  0
 15 16  1  0
 16 17  2  0
 18 17  1  0
 19 18  2  0
 20 21  2  0
 20 19  1  0
 21 16  1  0
 22 11  1  0
 23 22  2  0
 25 24  1  6
 25 27  1  0
 26 25  1  0
 27 29  1  0
 27 28  1  1
 28 22  1  0
 29 30  1  0
 31 29  2  0
M  END
$$$$
