EWT.pdb
     RDKit          3D

 31 32  0  0  1  0  0  0  0  0999 V2000
   28.1016  -21.9929  -15.7934 N   0  0  0  0  0  0  0  0  0  0  0  0
   28.1259  -20.8798  -14.8971 C   0  0  1  0  0  0  0  0  0  0  0  0
   27.7424  -19.5583  -15.4756 C   0  0  0  0  0  0  0  0  0  0  0  0
   27.0178  -19.5784  -16.7647 C   0  0  0  0  0  0  0  0  0  0  0  0
   25.5608  -19.7524  -16.7187 C   0  0  0  0  0  0  0  0  0  0  0  0
   24.8975  -20.7394  -17.0473 O   0  0  0  0  0  0  0  0  0  0  0  0
   27.3025  -21.1721  -13.6634 C   0  0  0  0  0  0  0  0  0  0  0  0
   26.3379  -21.9401  -13.7854 O   0  0  0  0  0  0  0  0  0  0  0  0
   24.8223  -18.6466  -16.2354 O   0  0  0  0  0  0  0  0  0  0  0  0
   27.6127  -20.5930  -12.4052 N   0  0  0  0  0  0  0  0  0  0  0  0
   26.8598  -20.9618  -11.1955 C   0  0  1  0  0  0  0  0  0  0  0  0
   27.6352  -20.6094   -9.9656 C   0  0  0  0  0  0  0  0  0  0  0  0
   26.9023  -20.6873   -8.7122 C   0  0  0  0  0  0  0  0  0  0  0  0
   25.6789  -21.2869   -8.5219 C   0  0  0  0  0  0  0  0  0  0  0  0
   25.3262  -21.1466   -7.2157 N   0  0  0  0  0  0  0  0  0  0  0  0
   26.2736  -20.4804   -6.5552 C   0  0  0  0  0  0  0  0  0  0  0  0
   26.4425  -20.0669   -5.2541 C   0  0  0  0  0  0  0  0  0  0  0  0
   27.5499  -19.3721   -4.8124 C   0  0  0  0  0  0  0  0  0  0  0  0
   28.5218  -19.0921   -5.7480 C   0  0  0  0  0  0  0  0  0  0  0  0
   28.3672  -19.4997   -7.0557 C   0  0  0  0  0  0  0  0  0  0  0  0
   27.2552  -20.1922   -7.4783 C   0  0  0  0  0  0  0  0  0  0  0  0
   25.6079  -20.1605  -11.2073 C   0  0  0  0  0  0  0  0  0  0  0  0
   25.6355  -18.9103  -11.3620 O   0  0  0  0  0  0  0  0  0  0  0  0
   23.8286  -19.6980  -13.6814 C   0  0  0  0  0  0  0  0  0  0  0  0
   22.7840  -20.3100  -12.7788 C   0  0  1  0  0  0  0  0  0  0  0  0
   22.7264  -21.7008  -12.9846 O   0  0  0  0  0  0  0  0  0  0  0  0
   23.1274  -20.0644  -11.3163 C   0  0  2  0  0  0  0  0  0  0  0  0
   24.3433  -20.8062  -11.0415 N   0  0  0  0  0  0  0  0  0  0  0  0
   22.0068  -20.6364  -10.5050 C   0  0  0  0  0  0  0  0  0  0  0  0
   20.7649  -20.0495  -10.4586 O   0  0  0  0  0  0  0  0  0  0  0  0
   22.1896  -21.6796   -9.8435 O   0  0  0  0  0  0  0  0  0  0  0  0
  2  1  1  6
  3  2  1  0
  3  4  1  0
  5  4  1  0
  5  9  1  0
  6  5  2  0
  7  8  2  0
  7  2  1  0
 10  7  1  0
 11 10  1  0
 11 12  1  1
 12 13  1  0
 13 14  2  0
 13 21  1  0
 14 15  1  0
 15 16  1  0
 16 17  2  0
 18 17  1  0
 19 18  2  0
 20 21  2  0
 20 19  1  0
 21 16  1  0
 22 11  1  0
 23 22  2  0
 25 24  1  6
 25 27  1  0
 26 25  1  0
 27 29  1  0
 27 28  1  1
 28 22  1  0
 29 30  1  0
 31 29  2  0
M  END
$$$$
