QVE.pdb
     RDKit          3D

 26 25  0  0  1  0  0  0  0  0999 V2000
   28.9265  -17.5247  -17.4466 N   0  0  0  0  0  0  0  0  0  0  0  0
   27.6609  -17.9961  -17.8338 C   0  0  0  0  0  0  0  0  0  0  0  0
   27.2312  -17.8577  -19.0212 O   0  0  0  0  0  0  0  0  0  0  0  0
   26.7571  -18.6773  -16.8637 C   0  0  0  0  0  0  0  0  0  0  0  0
   27.4777  -18.7871  -15.5613 C   0  0  0  0  0  0  0  0  0  0  0  0
   27.8238  -20.1378  -15.0940 C   0  0  2  0  0  0  0  0  0  0  0  0
   28.3472  -20.9886  -16.1659 N   0  0  0  0  0  0  0  0  0  0  0  0
   26.7418  -20.8808  -14.3527 C   0  0  0  0  0  0  0  0  0  0  0  0
   26.0087  -21.6163  -15.0310 O   0  0  0  0  0  0  0  0  0  0  0  0
   25.7481  -19.5045  -10.3467 C   0  0  0  0  0  0  0  0  0  0  0  0
   26.0141  -20.9818  -10.6548 C   0  0  1  0  0  0  0  0  0  0  0  0
   24.9339  -21.6868   -9.7942 C   0  0  0  0  0  0  0  0  0  0  0  0
   25.5996  -21.2954  -12.0935 C   0  0  2  0  0  0  0  0  0  0  0  0
   26.6085  -20.7109  -12.9797 N   0  0  0  0  0  0  0  0  0  0  0  0
   24.3551  -20.5548  -12.4351 C   0  0  0  0  0  0  0  0  0  0  0  0
   24.3536  -19.3048  -12.2937 O   0  0  0  0  0  0  0  0  0  0  0  0
   23.1636  -21.1483  -12.9195 N   0  0  0  0  0  0  0  0  0  0  0  0
   21.9649  -20.3702  -13.2257 C   0  0  1  0  0  0  0  0  0  0  0  0
   21.9196  -20.1797  -14.7149 C   0  0  0  0  0  0  0  0  0  0  0  0
   20.7321  -19.3629  -15.1880 C   0  0  0  0  0  0  0  0  0  0  0  0
   20.7125  -19.2375  -16.6934 C   0  0  0  0  0  0  0  0  0  0  0  0
   20.8254  -20.2399  -17.3847 O   0  0  0  0  0  0  0  0  0  0  0  0
   20.7506  -21.0553  -12.7742 C   0  0  0  0  0  0  0  0  0  0  0  0
   20.7364  -22.4333  -12.4739 O   0  0  0  0  0  0  0  0  0  0  0  0
   20.5634  -17.9913  -17.2835 O   0  0  0  0  0  0  0  0  0  0  0  0
   19.6537  -20.4984  -12.6274 O   0  0  0  0  0  0  0  0  0  0  0  0
  2  1  1  0
  2  3  2  0
  4  5  1  0
  4  2  1  0
  6  7  1  6
  6  5  1  0
  8  6  1  0
  9  8  2  0
 11 10  1  6
 11 13  1  0
 12 11  1  0
 13 15  1  0
 13 14  1  6
 14  8  1  0
 15 16  2  0
 17 18  1  0
 17 15  1  0
 18 19  1  6
 19 20  1  0
 20 21  1  0
 21 25  1  0
 21 22  2  0
 23 24  1  0
 23 18  1  0
 26 23  2  0
M  END
$$$$
