QVE.pdb
     RDKit          3D

 26 25  0  0  1  0  0  0  0  0999 V2000
   19.3310  -15.8846  -15.0761 N   0  0  0  0  0  0  0  0  0  0  0  0
   18.1552  -16.0305  -15.8312 C   0  0  0  0  0  0  0  0  0  0  0  0
   17.5606  -17.1485  -15.9318 O   0  0  0  0  0  0  0  0  0  0  0  0
   17.5521  -14.8771  -16.5578 C   0  0  0  0  0  0  0  0  0  0  0  0
   18.4361  -13.6916  -16.3552 C   0  0  0  0  0  0  0  0  0  0  0  0
   17.8102  -12.4635  -15.8431 C   0  0  2  0  0  0  0  0  0  0  0  0
   16.3717  -12.6179  -15.6111 N   0  0  0  0  0  0  0  0  0  0  0  0
   18.0529  -11.2108  -16.6457 C   0  0  0  0  0  0  0  0  0  0  0  0
   19.1544  -11.1165  -17.2081 O   0  0  0  0  0  0  0  0  0  0  0  0
   14.6978   -8.6089  -16.8350 C   0  0  0  0  0  0  0  0  0  0  0  0
   15.7090   -8.6917  -17.9834 C   0  0  1  0  0  0  0  0  0  0  0  0
   15.7716   -7.2175  -18.4603 C   0  0  0  0  0  0  0  0  0  0  0  0
   17.1084   -8.9568  -17.4256 C   0  0  2  0  0  0  0  0  0  0  0  0
   17.0639  -10.2368  -16.7151 N   0  0  0  0  0  0  0  0  0  0  0  0
   17.4240   -7.9692  -16.3584 C   0  0  0  0  0  0  0  0  0  0  0  0
   16.7957   -8.0523  -15.2717 O   0  0  0  0  0  0  0  0  0  0  0  0
   18.3899   -6.9386  -16.4650 N   0  0  0  0  0  0  0  0  0  0  0  0
   18.6931   -6.0270  -15.3635 C   0  0  1  0  0  0  0  0  0  0  0  0
   20.1793   -6.0591  -15.1484 C   0  0  0  0  0  0  0  0  0  0  0  0
   20.6609   -5.0919  -14.0836 C   0  0  0  0  0  0  0  0  0  0  0  0
   22.1534   -5.1981  -13.8752 C   0  0  0  0  0  0  0  0  0  0  0  0
   22.6397   -6.2626  -13.5205 O   0  0  0  0  0  0  0  0  0  0  0  0
   18.2631   -4.6589  -15.6654 C   0  0  0  0  0  0  0  0  0  0  0  0
   17.9447   -3.7332  -14.6501 O   0  0  0  0  0  0  0  0  0  0  0  0
   22.9639   -4.0933  -14.0897 O   0  0  0  0  0  0  0  0  0  0  0  0
   18.1373   -4.2085  -16.8126 O   0  0  0  0  0  0  0  0  0  0  0  0
  2  1  1  0
  2  3  2  0
  4  5  1  0
  4  2  1  0
  6  7  1  6
  6  5  1  0
  8  6  1  0
  9  8  2  0
 11 10  1  1
 11 13  1  0
 12 11  1  0
 13 15  1  0
 13 14  1  1
 14  8  1  0
 15 16  2  0
 17 18  1  0
 17 15  1  0
 18 19  1  6
 19 20  1  0
 20 21  1  0
 21 25  1  0
 21 22  2  0
 23 24  1  0
 23 18  1  0
 26 23  2  0
M  END
$$$$
