QVE.pdb
     RDKit          3D

 26 25  0  0  1  0  0  0  0  0999 V2000
   17.8958  -15.5086  -14.8417 N   0  0  0  0  0  0  0  0  0  0  0  0
   16.7396  -15.0295  -15.4802 C   0  0  0  0  0  0  0  0  0  0  0  0
   15.7125  -15.7601  -15.6380 O   0  0  0  0  0  0  0  0  0  0  0  0
   16.6665  -13.6382  -16.0101 C   0  0  0  0  0  0  0  0  0  0  0  0
   17.9076  -12.9209  -15.5943 C   0  0  0  0  0  0  0  0  0  0  0  0
   18.0134  -11.4971  -15.9462 C   0  0  2  0  0  0  0  0  0  0  0  0
   18.3895  -11.2886  -17.3469 N   0  0  0  0  0  0  0  0  0  0  0  0
   18.9024  -10.6596  -15.0626 C   0  0  0  0  0  0  0  0  0  0  0  0
   18.7601  -10.8007  -13.8385 O   0  0  0  0  0  0  0  0  0  0  0  0
   21.1521   -8.3164  -17.3673 C   0  0  0  0  0  0  0  0  0  0  0  0
   21.8135   -8.4761  -15.9943 C   0  0  1  0  0  0  0  0  0  0  0  0
   22.1282   -7.0049  -15.6187 C   0  0  0  0  0  0  0  0  0  0  0  0
   20.7697   -8.9036  -14.9611 C   0  0  2  0  0  0  0  0  0  0  0  0
   19.8142   -9.7829  -15.6386 N   0  0  0  0  0  0  0  0  0  0  0  0
   19.9478   -7.7312  -14.5562 C   0  0  0  0  0  0  0  0  0  0  0  0
   19.0758   -7.3143  -15.3615 O   0  0  0  0  0  0  0  0  0  0  0  0
   20.0631   -7.0455  -13.3221 N   0  0  0  0  0  0  0  0  0  0  0  0
   19.1950   -5.9272  -12.9589 C   0  0  1  0  0  0  0  0  0  0  0  0
   18.7300   -6.1572  -11.5494 C   0  0  0  0  0  0  0  0  0  0  0  0
   17.8669   -5.0358  -11.0028 C   0  0  0  0  0  0  0  0  0  0  0  0
   17.3778   -5.3452   -9.6073 C   0  0  0  0  0  0  0  0  0  0  0  0
   17.7578   -6.3627   -9.0456 O   0  0  0  0  0  0  0  0  0  0  0  0
   19.9035   -4.6474  -13.0470 C   0  0  0  0  0  0  0  0  0  0  0  0
   19.2304   -3.4357  -13.3082 O   0  0  0  0  0  0  0  0  0  0  0  0
   16.5057   -4.4756   -8.9695 O   0  0  0  0  0  0  0  0  0  0  0  0
   21.1284   -4.5216  -12.9103 O   0  0  0  0  0  0  0  0  0  0  0  0
  2  1  1  0
  2  3  2  0
  4  5  1  0
  4  2  1  0
  6  7  1  6
  6  5  1  0
  8  6  1  0
  9  8  2  0
 11 10  1  6
 11 13  1  0
 12 11  1  0
 13 15  1  0
 13 14  1  6
 14  8  1  0
 15 16  2  0
 17 18  1  0
 17 15  1  0
 18 19  1  1
 19 20  1  0
 20 21  1  0
 21 25  1  0
 21 22  2  0
 23 24  1  0
 23 18  1  0
 26 23  2  0
M  END
$$$$
