QVE.pdb
     RDKit          3D

 26 25  0  0  1  0  0  0  0  0999 V2000
   15.6644  -12.5590  -15.4821 N   0  0  0  0  0  0  0  0  0  0  0  0
   15.8028  -12.7305  -16.8697 C   0  0  0  0  0  0  0  0  0  0  0  0
   14.9538  -13.3869  -17.5494 O   0  0  0  0  0  0  0  0  0  0  0  0
   16.9604  -12.1536  -17.6107 C   0  0  0  0  0  0  0  0  0  0  0  0
   17.7807  -11.3666  -16.6435 C   0  0  0  0  0  0  0  0  0  0  0  0
   19.2413  -11.5208  -16.7164 C   0  0  2  0  0  0  0  0  0  0  0  0
   19.6523  -12.9131  -16.9150 N   0  0  0  0  0  0  0  0  0  0  0  0
   20.0287  -10.9277  -15.5760 C   0  0  0  0  0  0  0  0  0  0  0  0
   19.8158  -11.4004  -14.4492 O   0  0  0  0  0  0  0  0  0  0  0  0
   23.3726  -11.2135  -15.2391 C   0  0  0  0  0  0  0  0  0  0  0  0
   23.2673   -9.6849  -15.2562 C   0  0  1  0  0  0  0  0  0  0  0  0
   23.3603   -9.3755  -16.7728 C   0  0  0  0  0  0  0  0  0  0  0  0
   21.8474   -9.2574  -14.8807 C   0  0  2  0  0  0  0  0  0  0  0  0
   20.9302   -9.8996  -15.8249 N   0  0  0  0  0  0  0  0  0  0  0  0
   21.6691   -7.8041  -15.1452 C   0  0  0  0  0  0  0  0  0  0  0  0
   21.2218   -7.4584  -16.2690 O   0  0  0  0  0  0  0  0  0  0  0  0
   21.9569   -6.7691  -14.2220 N   0  0  0  0  0  0  0  0  0  0  0  0
   21.7197   -5.3584  -14.5220 C   0  0  1  0  0  0  0  0  0  0  0  0
   20.2340   -5.1384  -14.5068 C   0  0  0  0  0  0  0  0  0  0  0  0
   19.8257   -3.7185  -14.8509 C   0  0  0  0  0  0  0  0  0  0  0  0
   18.3230   -3.5629  -14.8612 C   0  0  0  0  0  0  0  0  0  0  0  0
   17.6150   -4.5148  -14.5649 O   0  0  0  0  0  0  0  0  0  0  0  0
   22.3625   -4.4848  -13.5364 C   0  0  0  0  0  0  0  0  0  0  0  0
   22.6008   -3.1180  -13.7904 O   0  0  0  0  0  0  0  0  0  0  0  0
   17.7543   -2.3446  -15.2018 O   0  0  0  0  0  0  0  0  0  0  0  0
   22.7509   -4.8634  -12.4225 O   0  0  0  0  0  0  0  0  0  0  0  0
  2  1  1  0
  2  3  2  0
  4  5  1  0
  4  2  1  0
  6  7  1  1
  6  5  1  0
  8  6  1  0
  9  8  2  0
 11 10  1  6
 11 13  1  0
 12 11  1  0
 13 15  1  0
 13 14  1  6
 14  8  1  0
 15 16  2  0
 17 18  1  0
 17 15  1  0
 18 19  1  1
 19 20  1  0
 20 21  1  0
 21 25  1  0
 21 22  2  0
 23 24  1  0
 23 18  1  0
 26 23  2  0
M  END
$$$$
