QVE.pdb
     RDKit          3D

 26 25  0  0  1  0  0  0  0  0999 V2000
   15.4554  -11.4359  -17.8104 N   0  0  0  0  0  0  0  0  0  0  0  0
   15.8572  -12.4104  -18.7393 C   0  0  0  0  0  0  0  0  0  0  0  0
   15.0654  -12.8513  -19.6294 O   0  0  0  0  0  0  0  0  0  0  0  0
   17.2348  -12.9795  -18.7192 C   0  0  0  0  0  0  0  0  0  0  0  0
   17.9588  -12.3928  -17.5533 C   0  0  0  0  0  0  0  0  0  0  0  0
   19.3582  -12.7988  -17.3548 C   0  0  2  0  0  0  0  0  0  0  0  0
   19.5208  -14.2538  -17.2990 N   0  0  0  0  0  0  0  0  0  0  0  0
   20.0705  -12.1734  -16.1828 C   0  0  0  0  0  0  0  0  0  0  0  0
   19.6909  -12.5188  -15.0536 O   0  0  0  0  0  0  0  0  0  0  0  0
   23.8102  -10.6544  -17.0637 C   0  0  0  0  0  0  0  0  0  0  0  0
   23.3684  -11.0221  -15.6433 C   0  0  1  0  0  0  0  0  0  0  0  0
   24.2032  -10.0372  -14.7844 C   0  0  0  0  0  0  0  0  0  0  0  0
   21.9237  -10.5738  -15.4159 C   0  0  2  0  0  0  0  0  0  0  0  0
   21.0897  -11.2557  -16.4082 N   0  0  0  0  0  0  0  0  0  0  0  0
   21.7798   -9.1336  -15.7607 C   0  0  0  0  0  0  0  0  0  0  0  0
   22.1545   -8.7588  -16.9017 O   0  0  0  0  0  0  0  0  0  0  0  0
   21.2420   -8.1427  -14.9033 N   0  0  0  0  0  0  0  0  0  0  0  0
   21.1509   -6.7352  -15.2867 C   0  0  1  0  0  0  0  0  0  0  0  0
   19.7095   -6.3292  -15.1712 C   0  0  0  0  0  0  0  0  0  0  0  0
   18.7660   -7.1974  -15.9819 C   0  0  0  0  0  0  0  0  0  0  0  0
   17.5650   -7.6179  -15.1674 C   0  0  0  0  0  0  0  0  0  0  0  0
   16.8711   -6.7663  -14.6302 O   0  0  0  0  0  0  0  0  0  0  0  0
   21.9775   -5.8889  -14.4216 C   0  0  0  0  0  0  0  0  0  0  0  0
   22.2011   -4.5248  -14.7018 O   0  0  0  0  0  0  0  0  0  0  0  0
   17.2530   -8.9629  -15.0356 O   0  0  0  0  0  0  0  0  0  0  0  0
   22.5453   -6.2902  -13.3962 O   0  0  0  0  0  0  0  0  0  0  0  0
  2  1  1  0
  2  3  2  0
  4  5  1  0
  4  2  1  0
  6  7  1  1
  6  5  1  0
  8  6  1  0
  9  8  2  0
 11 10  1  6
 11 13  1  0
 12 11  1  0
 13 15  1  0
 13 14  1  6
 14  8  1  0
 15 16  2  0
 17 18  1  0
 17 15  1  0
 18 19  1  1
 19 20  1  0
 20 21  1  0
 21 25  1  0
 21 22  2  0
 23 24  1  0
 23 18  1  0
 26 23  2  0
M  END
$$$$
