QVE.pdb
     RDKit          3D

 26 25  0  0  1  0  0  0  0  0999 V2000
   23.7044  -20.4080  -10.5624 N   0  0  0  0  0  0  0  0  0  0  0  0
   24.5319  -20.7868   -9.4920 C   0  0  0  0  0  0  0  0  0  0  0  0
   24.0569  -21.0712   -8.3488 O   0  0  0  0  0  0  0  0  0  0  0  0
   26.0123  -20.8662   -9.6469 C   0  0  0  0  0  0  0  0  0  0  0  0
   26.3696  -20.2755  -10.9702 C   0  0  0  0  0  0  0  0  0  0  0  0
   25.9058  -20.9841  -12.1723 C   0  0  2  0  0  0  0  0  0  0  0  0
   26.9285  -21.8698  -12.7348 N   0  0  0  0  0  0  0  0  0  0  0  0
   25.3342  -20.1239  -13.2703 C   0  0  0  0  0  0  0  0  0  0  0  0
   25.7103  -18.9424  -13.3027 O   0  0  0  0  0  0  0  0  0  0  0  0
   26.0020  -20.8237  -16.2495 C   0  0  0  0  0  0  0  0  0  0  0  0
   24.5342  -20.5334  -16.5803 C   0  0  1  0  0  0  0  0  0  0  0  0
   23.9652  -21.9611  -16.7863 C   0  0  0  0  0  0  0  0  0  0  0  0
   23.8105  -20.0264  -15.3318 C   0  0  2  0  0  0  0  0  0  0  0  0
   24.4291  -20.6718  -14.1716 N   0  0  0  0  0  0  0  0  0  0  0  0
   22.4117  -20.5333  -15.3160 C   0  0  0  0  0  0  0  0  0  0  0  0
   22.2150  -21.7132  -14.9263 O   0  0  0  0  0  0  0  0  0  0  0  0
   21.2719  -19.7848  -15.6997 N   0  0  0  0  0  0  0  0  0  0  0  0
   19.9204  -20.3405  -15.6744 C   0  0  1  0  0  0  0  0  0  0  0  0
   19.2171  -19.7604  -14.4807 C   0  0  0  0  0  0  0  0  0  0  0  0
   18.1565  -18.7363  -14.8378 C   0  0  0  0  0  0  0  0  0  0  0  0
   17.0235  -18.7429  -13.8383 C   0  0  0  0  0  0  0  0  0  0  0  0
   17.1217  -18.0894  -12.8094 O   0  0  0  0  0  0  0  0  0  0  0  0
   19.1817  -20.0107  -16.8965 C   0  0  0  0  0  0  0  0  0  0  0  0
   18.0072  -20.6969  -17.2693 O   0  0  0  0  0  0  0  0  0  0  0  0
   15.8793  -19.4844  -14.0922 O   0  0  0  0  0  0  0  0  0  0  0  0
   19.5206  -19.1257  -17.6945 O   0  0  0  0  0  0  0  0  0  0  0  0
  2  1  1  0
  2  3  2  0
  4  5  1  0
  4  2  1  0
  6  7  1  6
  6  5  1  0
  8  6  1  0
  9  8  2  0
 11 10  1  1
 11 13  1  0
 12 11  1  0
 13 15  1  0
 13 14  1  1
 14  8  1  0
 15 16  2  0
 17 18  1  0
 17 15  1  0
 18 19  1  1
 19 20  1  0
 20 21  1  0
 21 25  1  0
 21 22  2  0
 23 24  1  0
 23 18  1  0
 26 23  2  0
M  END
$$$$
