QVE.pdb
     RDKit          3D

 26 25  0  0  1  0  0  0  0  0999 V2000
   27.9925  -21.5071  -19.2177 N   0  0  0  0  0  0  0  0  0  0  0  0
   29.1899  -21.5562  -18.4845 C   0  0  0  0  0  0  0  0  0  0  0  0
   30.3070  -21.7845  -19.0445 O   0  0  0  0  0  0  0  0  0  0  0  0
   29.2045  -21.3486  -17.0085 C   0  0  0  0  0  0  0  0  0  0  0  0
   27.8000  -21.1108  -16.5627 C   0  0  0  0  0  0  0  0  0  0  0  0
   27.5927  -20.7447  -15.1537 C   0  0  2  0  0  0  0  0  0  0  0  0
   28.8067  -20.8953  -14.3472 N   0  0  0  0  0  0  0  0  0  0  0  0
   26.4433  -21.4242  -14.4540 C   0  0  0  0  0  0  0  0  0  0  0  0
   25.9715  -22.4286  -15.0082 O   0  0  0  0  0  0  0  0  0  0  0  0
   26.8739  -20.8839  -10.8973 C   0  0  0  0  0  0  0  0  0  0  0  0
   25.3807  -21.2260  -10.9334 C   0  0  1  0  0  0  0  0  0  0  0  0
   24.7325  -19.8647  -10.5711 C   0  0  0  0  0  0  0  0  0  0  0  0
   24.9382  -21.4706  -12.3771 C   0  0  2  0  0  0  0  0  0  0  0  0
   25.9675  -20.9083  -13.2543 N   0  0  0  0  0  0  0  0  0  0  0  0
   23.7297  -20.6577  -12.6813 C   0  0  0  0  0  0  0  0  0  0  0  0
   23.8234  -19.4059  -12.5991 O   0  0  0  0  0  0  0  0  0  0  0  0
   22.4728  -21.1840  -13.0681 N   0  0  0  0  0  0  0  0  0  0  0  0
   21.3081  -20.3371  -13.3179 C   0  0  1  0  0  0  0  0  0  0  0  0
   20.6147  -20.8731  -14.5377 C   0  0  0  0  0  0  0  0  0  0  0  0
   19.2985  -20.1830  -14.8419 C   0  0  0  0  0  0  0  0  0  0  0  0
   18.6205  -20.7928  -16.0465 C   0  0  0  0  0  0  0  0  0  0  0  0
   17.4070  -20.7020  -16.1672 O   0  0  0  0  0  0  0  0  0  0  0  0
   20.3864  -20.3425  -12.1785 C   0  0  0  0  0  0  0  0  0  0  0  0
   19.5151  -19.2650  -11.9155 O   0  0  0  0  0  0  0  0  0  0  0  0
   19.3744  -21.4475  -17.0091 O   0  0  0  0  0  0  0  0  0  0  0  0
   20.2994  -21.2693  -11.3610 O   0  0  0  0  0  0  0  0  0  0  0  0
  2  1  1  0
  2  3  2  0
  4  5  1  0
  4  2  1  0
  6  7  1  1
  6  5  1  0
  8  6  1  0
  9  8  2  0
 11 10  1  6
 11 13  1  0
 12 11  1  0
 13 15  1  0
 13 14  1  6
 14  8  1  0
 15 16  2  0
 17 18  1  0
 17 15  1  0
 18 19  1  6
 19 20  1  0
 20 21  1  0
 21 25  1  0
 21 22  2  0
 23 24  1  0
 23 18  1  0
 26 23  2  0
M  END
$$$$
