QVE.pdb
     RDKit          3D

 26 25  0  0  1  0  0  0  0  0999 V2000
   15.5217  -10.7904  -20.1689 N   0  0  0  0  0  0  0  0  0  0  0  0
   16.9188  -10.8486  -20.3056 C   0  0  0  0  0  0  0  0  0  0  0  0
   17.5575  -10.0005  -21.0029 O   0  0  0  0  0  0  0  0  0  0  0  0
   17.7190  -11.9166  -19.6415 C   0  0  0  0  0  0  0  0  0  0  0  0
   18.4714  -11.2942  -18.5126 C   0  0  0  0  0  0  0  0  0  0  0  0
   19.3708  -12.1646  -17.7407 C   0  0  2  0  0  0  0  0  0  0  0  0
   18.7856  -13.4796  -17.4670 N   0  0  0  0  0  0  0  0  0  0  0  0
   19.9155  -11.5863  -16.4597 C   0  0  0  0  0  0  0  0  0  0  0  0
   19.1745  -11.6410  -15.4665 O   0  0  0  0  0  0  0  0  0  0  0  0
   24.0359  -10.6589  -16.6018 C   0  0  0  0  0  0  0  0  0  0  0  0
   23.3137  -11.0275  -15.3015 C   0  0  1  0  0  0  0  0  0  0  0  0
   24.0708  -10.1635  -14.2600 C   0  0  0  0  0  0  0  0  0  0  0  0
   21.9009  -10.4410  -15.3075 C   0  0  2  0  0  0  0  0  0  0  0  0
   21.1868  -11.0246  -16.4453 N   0  0  0  0  0  0  0  0  0  0  0  0
   21.9562   -8.9894  -15.6297 C   0  0  0  0  0  0  0  0  0  0  0  0
   22.4454   -8.6482  -16.7374 O   0  0  0  0  0  0  0  0  0  0  0  0
   21.4903   -7.9516  -14.7858 N   0  0  0  0  0  0  0  0  0  0  0  0
   21.6205   -6.5375  -15.1319 C   0  0  1  0  0  0  0  0  0  0  0  0
   20.2538   -6.0370  -15.5032 C   0  0  0  0  0  0  0  0  0  0  0  0
   20.2179   -4.5578  -15.8377 C   0  0  0  0  0  0  0  0  0  0  0  0
   18.8342   -4.1199  -16.2573 C   0  0  0  0  0  0  0  0  0  0  0  0
   18.6601   -2.9826  -16.6715 O   0  0  0  0  0  0  0  0  0  0  0  0
   22.1489   -5.7569  -14.0098 C   0  0  0  0  0  0  0  0  0  0  0  0
   22.7984   -4.5194  -14.1991 O   0  0  0  0  0  0  0  0  0  0  0  0
   17.7713   -5.0071  -16.1751 O   0  0  0  0  0  0  0  0  0  0  0  0
   22.0796   -6.1112  -12.8247 O   0  0  0  0  0  0  0  0  0  0  0  0
  2  1  1  0
  2  3  2  0
  4  5  1  0
  4  2  1  0
  6  7  1  1
  6  5  1  0
  8  6  1  0
  9  8  2  0
 11 10  1  6
 11 13  1  0
 12 11  1  0
 13 15  1  0
 13 14  1  6
 14  8  1  0
 15 16  2  0
 17 18  1  0
 17 15  1  0
 18 19  1  1
 19 20  1  0
 20 21  1  0
 21 25  1  0
 21 22  2  0
 23 24  1  0
 23 18  1  0
 26 23  2  0
M  END
$$$$
