QVE.pdb
     RDKit          3D

 26 25  0  0  1  0  0  0  0  0999 V2000
   19.0875  -13.6727  -20.9574 N   0  0  0  0  0  0  0  0  0  0  0  0
   18.8481  -15.0539  -20.8616 C   0  0  0  0  0  0  0  0  0  0  0  0
   18.4391  -15.7313  -21.8552 O   0  0  0  0  0  0  0  0  0  0  0  0
   19.0574  -15.7902  -19.5825 C   0  0  0  0  0  0  0  0  0  0  0  0
   19.5321  -14.8120  -18.5600 C   0  0  0  0  0  0  0  0  0  0  0  0
   20.5360  -15.2810  -17.5932 C   0  0  2  0  0  0  0  0  0  0  0  0
   20.2619  -16.6360  -17.1080 N   0  0  0  0  0  0  0  0  0  0  0  0
   20.7983  -14.3752  -16.4171 C   0  0  0  0  0  0  0  0  0  0  0  0
   19.9593  -14.3941  -15.5037 O   0  0  0  0  0  0  0  0  0  0  0  0
   24.5146  -12.4607  -16.6508 C   0  0  0  0  0  0  0  0  0  0  0  0
   23.8998  -12.7452  -15.2764 C   0  0  1  0  0  0  0  0  0  0  0  0
   24.3082  -11.4812  -14.4763 C   0  0  0  0  0  0  0  0  0  0  0  0
   22.3753  -12.6505  -15.3592 C   0  0  2  0  0  0  0  0  0  0  0  0
   21.9332  -13.5730  -16.4074 N   0  0  0  0  0  0  0  0  0  0  0  0
   21.9780  -11.3120  -15.8736 C   0  0  0  0  0  0  0  0  0  0  0  0
   22.3157  -11.0053  -17.0460 O   0  0  0  0  0  0  0  0  0  0  0  0
   21.2359  -10.3495  -15.1460 N   0  0  0  0  0  0  0  0  0  0  0  0
   20.8976   -9.0376  -15.6942 C   0  0  1  0  0  0  0  0  0  0  0  0
   19.4883   -8.7255  -15.2788 C   0  0  0  0  0  0  0  0  0  0  0  0
   18.9920   -7.3801  -15.7735 C   0  0  0  0  0  0  0  0  0  0  0  0
   17.6603   -7.0218  -15.1567 C   0  0  0  0  0  0  0  0  0  0  0  0
   17.4189   -5.8566  -14.8748 O   0  0  0  0  0  0  0  0  0  0  0  0
   21.8046   -7.9987  -15.1983 C   0  0  0  0  0  0  0  0  0  0  0  0
   22.0524   -6.8137  -15.9219 O   0  0  0  0  0  0  0  0  0  0  0  0
   16.7185   -8.0113  -14.9167 O   0  0  0  0  0  0  0  0  0  0  0  0
   22.4245   -8.0722  -14.1282 O   0  0  0  0  0  0  0  0  0  0  0  0
  2  1  1  0
  2  3  2  0
  4  5  1  0
  4  2  1  0
  6  7  1  1
  6  5  1  0
  8  6  1  0
  9  8  2  0
 11 10  1  6
 11 13  1  0
 12 11  1  0
 13 15  1  0
 13 14  1  6
 14  8  1  0
 15 16  2  0
 17 18  1  0
 17 15  1  0
 18 19  1  1
 19 20  1  0
 20 21  1  0
 21 25  1  0
 21 22  2  0
 23 24  1  0
 23 18  1  0
 26 23  2  0
M  END
$$$$
