QVE.pdb
     RDKit          3D

 26 25  0  0  1  0  0  0  0  0999 V2000
   24.7234  -19.1552  -17.0016 N   0  0  0  0  0  0  0  0  0  0  0  0
   25.8712  -18.6562  -16.3631 C   0  0  0  0  0  0  0  0  0  0  0  0
   25.7970  -17.7889  -15.4381 O   0  0  0  0  0  0  0  0  0  0  0  0
   27.2352  -19.1183  -16.7478 C   0  0  0  0  0  0  0  0  0  0  0  0
   28.0091  -19.3630  -15.4952 C   0  0  0  0  0  0  0  0  0  0  0  0
   28.1092  -20.7527  -15.0251 C   0  0  2  0  0  0  0  0  0  0  0  0
   28.5050  -21.6805  -16.0877 N   0  0  0  0  0  0  0  0  0  0  0  0
   26.8995  -21.3004  -14.3117 C   0  0  0  0  0  0  0  0  0  0  0  0
   26.1497  -22.0344  -14.9734 O   0  0  0  0  0  0  0  0  0  0  0  0
   25.8627  -19.3668  -10.6902 C   0  0  0  0  0  0  0  0  0  0  0  0
   25.8848  -20.8990  -10.7009 C   0  0  1  0  0  0  0  0  0  0  0  0
   24.6017  -21.2423   -9.9007 C   0  0  0  0  0  0  0  0  0  0  0  0
   25.5871  -21.4133  -12.1104 C   0  0  2  0  0  0  0  0  0  0  0  0
   26.6754  -20.9645  -12.9818 N   0  0  0  0  0  0  0  0  0  0  0  0
   24.3870  -20.7248  -12.6580 C   0  0  0  0  0  0  0  0  0  0  0  0
   24.4846  -19.5031  -12.9418 O   0  0  0  0  0  0  0  0  0  0  0  0
   23.1344  -21.3418  -12.8959 N   0  0  0  0  0  0  0  0  0  0  0  0
   21.9857  -20.6114  -13.4281 C   0  0  1  0  0  0  0  0  0  0  0  0
   21.4918  -21.3631  -14.6310 C   0  0  0  0  0  0  0  0  0  0  0  0
   20.2583  -20.7507  -15.2670 C   0  0  0  0  0  0  0  0  0  0  0  0
   19.7829  -21.5654  -16.4471 C   0  0  0  0  0  0  0  0  0  0  0  0
   20.3824  -22.5848  -16.7583 O   0  0  0  0  0  0  0  0  0  0  0  0
   20.9134  -20.5005  -12.4353 C   0  0  0  0  0  0  0  0  0  0  0  0
   19.9395  -19.4821  -12.4960 O   0  0  0  0  0  0  0  0  0  0  0  0
   18.6705  -21.1577  -17.1681 O   0  0  0  0  0  0  0  0  0  0  0  0
   20.7761  -21.2695  -11.4737 O   0  0  0  0  0  0  0  0  0  0  0  0
  2  1  1  0
  2  3  2  0
  4  5  1  0
  4  2  1  0
  6  7  1  6
  6  5  1  0
  8  6  1  0
  9  8  2  0
 11 10  1  6
 11 13  1  0
 12 11  1  0
 13 15  1  0
 13 14  1  6
 14  8  1  0
 15 16  2  0
 17 18  1  0
 17 15  1  0
 18 19  1  6
 19 20  1  0
 20 21  1  0
 21 25  1  0
 21 22  2  0
 23 24  1  0
 23 18  1  0
 26 23  2  0
M  END
$$$$
