QVE.pdb
     RDKit          3D

 26 25  0  0  1  0  0  0  0  0999 V2000
   25.4479  -25.8057  -16.0487 N   0  0  0  0  0  0  0  0  0  0  0  0
   24.4645  -25.0311  -15.4109 C   0  0  0  0  0  0  0  0  0  0  0  0
   23.4038  -24.6723  -16.0108 O   0  0  0  0  0  0  0  0  0  0  0  0
   24.6237  -24.5866  -13.9970 C   0  0  0  0  0  0  0  0  0  0  0  0
   24.1121  -23.1884  -13.8930 C   0  0  0  0  0  0  0  0  0  0  0  0
   24.7503  -22.1719  -14.7426 C   0  0  2  0  0  0  0  0  0  0  0  0
   26.2115  -22.1838  -14.6354 N   0  0  0  0  0  0  0  0  0  0  0  0
   24.2508  -20.7594  -14.5761 C   0  0  0  0  0  0  0  0  0  0  0  0
   24.6200  -20.1564  -13.5570 O   0  0  0  0  0  0  0  0  0  0  0  0
   25.2248  -18.5296  -16.4557 C   0  0  0  0  0  0  0  0  0  0  0  0
   23.7728  -18.0535  -16.5700 C   0  0  1  0  0  0  0  0  0  0  0  0
   23.3690  -18.5933  -17.9665 C   0  0  0  0  0  0  0  0  0  0  0  0
   22.8894  -18.8424  -15.6020 C   0  0  2  0  0  0  0  0  0  0  0  0
   23.4148  -20.2082  -15.5399 N   0  0  0  0  0  0  0  0  0  0  0  0
   21.5290  -19.0114  -16.1805 C   0  0  0  0  0  0  0  0  0  0  0  0
   21.4215  -19.6425  -17.2634 O   0  0  0  0  0  0  0  0  0  0  0  0
   20.3330  -18.5219  -15.6006 N   0  0  0  0  0  0  0  0  0  0  0  0
   19.0283  -18.6723  -16.2418 C   0  0  1  0  0  0  0  0  0  0  0  0
   18.0424  -19.0510  -15.1739 C   0  0  0  0  0  0  0  0  0  0  0  0
   16.6411  -19.2985  -15.6996 C   0  0  0  0  0  0  0  0  0  0  0  0
   15.6946  -19.6866  -14.5879 C   0  0  0  0  0  0  0  0  0  0  0  0
   15.6099  -18.9810  -13.5927 O   0  0  0  0  0  0  0  0  0  0  0  0
   18.6041  -17.4299  -16.8932 C   0  0  0  0  0  0  0  0  0  0  0  0
   19.1084  -16.1712  -16.5049 O   0  0  0  0  0  0  0  0  0  0  0  0
   14.9254  -20.8350  -14.7013 O   0  0  0  0  0  0  0  0  0  0  0  0
   17.7787  -17.3770  -17.8156 O   0  0  0  0  0  0  0  0  0  0  0  0
  2  1  1  0
  2  3  2  0
  4  5  1  0
  4  2  1  0
  6  7  1  1
  6  5  1  0
  8  6  1  0
  9  8  2  0
 11 10  1  1
 11 13  1  0
 12 11  1  0
 13 15  1  0
 13 14  1  6
 14  8  1  0
 15 16  2  0
 17 18  1  0
 17 15  1  0
 18 19  1  1
 19 20  1  0
 20 21  1  0
 21 25  1  0
 21 22  2  0
 23 24  1  0
 23 18  1  0
 26 23  2  0
M  END
$$$$
