QVE.pdb
     RDKit          3D

 26 25  0  0  1  0  0  0  0  0999 V2000
   28.5375  -20.0477  -18.0802 N   0  0  0  0  0  0  0  0  0  0  0  0
   28.8796  -18.8066  -17.5174 C   0  0  0  0  0  0  0  0  0  0  0  0
   29.7434  -18.0454  -18.0540 O   0  0  0  0  0  0  0  0  0  0  0  0
   28.2472  -18.3264  -16.2559 C   0  0  0  0  0  0  0  0  0  0  0  0
   27.1834  -19.3012  -15.8737 C   0  0  0  0  0  0  0  0  0  0  0  0
   27.5687  -20.4037  -14.9802 C   0  0  2  0  0  0  0  0  0  0  0  0
   28.3938  -21.4115  -15.6512 N   0  0  0  0  0  0  0  0  0  0  0  0
   26.4429  -21.0893  -14.2489 C   0  0  0  0  0  0  0  0  0  0  0  0
   25.7711  -21.9027  -14.9012 O   0  0  0  0  0  0  0  0  0  0  0  0
   25.6196  -19.5056  -10.3904 C   0  0  0  0  0  0  0  0  0  0  0  0
   25.5896  -21.0245  -10.5908 C   0  0  1  0  0  0  0  0  0  0  0  0
   24.3502  -21.4325   -9.7529 C   0  0  0  0  0  0  0  0  0  0  0  0
   25.1841  -21.3511  -12.0291 C   0  0  2  0  0  0  0  0  0  0  0  0
   26.2053  -20.7855  -12.9136 N   0  0  0  0  0  0  0  0  0  0  0  0
   23.9489  -20.6038  -12.3894 C   0  0  0  0  0  0  0  0  0  0  0  0
   24.0192  -19.3505  -12.4714 O   0  0  0  0  0  0  0  0  0  0  0  0
   22.6906  -21.1959  -12.6585 N   0  0  0  0  0  0  0  0  0  0  0  0
   21.4995  -20.4072  -12.9675 C   0  0  1  0  0  0  0  0  0  0  0  0
   20.9862  -20.8701  -14.3010 C   0  0  0  0  0  0  0  0  0  0  0  0
   19.7282  -20.1519  -14.7513 C   0  0  0  0  0  0  0  0  0  0  0  0
   19.2225  -20.6957  -16.0670 C   0  0  0  0  0  0  0  0  0  0  0  0
   19.8044  -21.6311  -16.5978 O   0  0  0  0  0  0  0  0  0  0  0  0
   20.4619  -20.5800  -11.9472 C   0  0  0  0  0  0  0  0  0  0  0  0
   19.5070  -19.5787  -11.6736 O   0  0  0  0  0  0  0  0  0  0  0  0
   18.1024  -20.1366  -16.6638 O   0  0  0  0  0  0  0  0  0  0  0  0
   20.3400  -21.5945  -11.2465 O   0  0  0  0  0  0  0  0  0  0  0  0
  2  1  1  0
  2  3  2  0
  4  5  1  0
  4  2  1  0
  6  7  1  6
  6  5  1  0
  8  6  1  0
  9  8  2  0
 11 10  1  6
 11 13  1  0
 12 11  1  0
 13 15  1  0
 13 14  1  6
 14  8  1  0
 15 16  2  0
 17 18  1  0
 17 15  1  0
 18 19  1  6
 19 20  1  0
 20 21  1  0
 21 25  1  0
 21 22  2  0
 23 24  1  0
 23 18  1  0
 26 23  2  0
M  END
$$$$
