QVE.pdb
     RDKit          3D

 26 25  0  0  1  0  0  0  0  0999 V2000
   29.5324  -17.5059  -16.4211 N   0  0  0  0  0  0  0  0  0  0  0  0
   28.1372  -17.6149  -16.5459 C   0  0  0  0  0  0  0  0  0  0  0  0
   27.3474  -16.8723  -15.8837 O   0  0  0  0  0  0  0  0  0  0  0  0
   27.5162  -18.6156  -17.4596 C   0  0  0  0  0  0  0  0  0  0  0  0
   26.6417  -19.5064  -16.6415 C   0  0  0  0  0  0  0  0  0  0  0  0
   27.3052  -20.4967  -15.7805 C   0  0  2  0  0  0  0  0  0  0  0  0
   28.1190  -21.4494  -16.5400 N   0  0  0  0  0  0  0  0  0  0  0  0
   26.4130  -21.2524  -14.8291 C   0  0  0  0  0  0  0  0  0  0  0  0
   25.9378  -22.3206  -15.2435 O   0  0  0  0  0  0  0  0  0  0  0  0
   25.9510  -19.3269  -11.1016 C   0  0  0  0  0  0  0  0  0  0  0  0
   25.8870  -20.8565  -11.1687 C   0  0  1  0  0  0  0  0  0  0  0  0
   24.7565  -21.1733  -10.1558 C   0  0  0  0  0  0  0  0  0  0  0  0
   25.3069  -21.2938  -12.5149 C   0  0  2  0  0  0  0  0  0  0  0  0
   26.1601  -20.7331  -13.5650 N   0  0  0  0  0  0  0  0  0  0  0  0
   23.9911  -20.6357  -12.7374 C   0  0  0  0  0  0  0  0  0  0  0  0
   23.9616  -19.3796  -12.8000 O   0  0  0  0  0  0  0  0  0  0  0  0
   22.7587  -21.3161  -12.8947 N   0  0  0  0  0  0  0  0  0  0  0  0
   21.4924  -20.6145  -13.0956 C   0  0  1  0  0  0  0  0  0  0  0  0
   20.9048  -21.1065  -14.3873 C   0  0  0  0  0  0  0  0  0  0  0  0
   21.7032  -20.7020  -15.6120 C   0  0  0  0  0  0  0  0  0  0  0  0
   21.0427  -21.1786  -16.8844 C   0  0  0  0  0  0  0  0  0  0  0  0
   21.5613  -20.9310  -17.9638 O   0  0  0  0  0  0  0  0  0  0  0  0
   20.5582  -20.8678  -11.9952 C   0  0  0  0  0  0  0  0  0  0  0  0
   19.4457  -20.0358  -11.7513 O   0  0  0  0  0  0  0  0  0  0  0  0
   19.8570  -21.8956  -16.8236 O   0  0  0  0  0  0  0  0  0  0  0  0
   20.6657  -21.8089  -11.1966 O   0  0  0  0  0  0  0  0  0  0  0  0
  2  1  1  0
  2  3  2  0
  4  5  1  0
  4  2  1  0
  6  7  1  6
  6  5  1  0
  8  6  1  0
  9  8  2  0
 11 10  1  6
 11 13  1  0
 12 11  1  0
 13 15  1  0
 13 14  1  6
 14  8  1  0
 15 16  2  0
 17 18  1  0
 17 15  1  0
 18 19  1  6
 19 20  1  0
 20 21  1  0
 21 25  1  0
 21 22  2  0
 23 24  1  0
 23 18  1  0
 26 23  2  0
M  END
$$$$
