TTH.pdb
     RDKit          3D

 25 25  0  0  1  0  0  0  0  0999 V2000
    8.2054  -17.6548   14.2335 C   0  0  0  0  0  0  0  0  0  0  0  0
    8.8277  -16.9204   15.3788 C   0  0  1  0  0  0  0  0  0  0  0  0
   10.2089  -17.0492   15.3887 O   0  0  0  0  0  0  0  0  0  0  0  0
    8.4640  -15.4612   15.4224 C   0  0  2  0  0  0  0  0  0  0  0  0
    8.7317  -14.7765   14.1946 N   0  0  0  0  0  0  0  0  0  0  0  0
    9.0793  -14.7383   16.5382 C   0  0  0  0  0  0  0  0  0  0  0  0
   10.0069  -13.8862   16.3993 O   0  0  0  0  0  0  0  0  0  0  0  0
    7.3365  -12.7413   19.3451 C   0  0  0  0  0  0  0  0  0  0  0  0
    8.2335  -13.7774   19.9877 C   0  0  1  0  0  0  0  0  0  0  0  0
    7.3835  -14.7846   20.4483 O   0  0  0  0  0  0  0  0  0  0  0  0
    9.2579  -14.3105   19.0152 C   0  0  2  0  0  0  0  0  0  0  0  0
    8.6500  -14.9658   17.8818 N   0  0  0  0  0  0  0  0  0  0  0  0
   10.1970  -15.1812   19.7433 C   0  0  0  0  0  0  0  0  0  0  0  0
   10.1046  -16.4261   19.5674 O   0  0  0  0  0  0  0  0  0  0  0  0
   11.1774  -14.6455   20.6167 N   0  0  0  0  0  0  0  0  0  0  0  0
   12.0749  -15.5859   21.3029 C   0  0  1  0  0  0  0  0  0  0  0  0
   13.4352  -14.9716   21.4295 C   0  0  0  0  0  0  0  0  0  0  0  0
   14.2099  -14.8794   20.1950 C   0  0  0  0  0  0  0  0  0  0  0  0
   13.9432  -15.3046   18.9339 C   0  0  0  0  0  0  0  0  0  0  0  0
   14.9610  -14.9228   18.1056 N   0  0  0  0  0  0  0  0  0  0  0  0
   15.8395  -14.2681   18.8625 C   0  0  0  0  0  0  0  0  0  0  0  0
   15.4120  -14.2285   20.1175 N   0  0  0  0  0  0  0  0  0  0  0  0
   11.5419  -15.6896   22.7098 C   0  0  0  0  0  0  0  0  0  0  0  0
   10.5683  -15.0623   23.1307 O   0  0  0  0  0  0  0  0  0  0  0  0
   12.1640  -16.5479   23.6447 O   0  0  0  0  0  0  0  0  0  0  0  0
  2  1  1  6
  2  3  1  0
  4  2  1  0
  4  5  1  6
  6  4  1  0
  6  7  2  0
  9  8  1  6
  9 11  1  0
 10  9  1  0
 11 12  1  6
 11 13  1  0
 12  6  1  0
 13 14  2  0
 13 15  1  0
 15 16  1  0
 16 17  1  1
 17 18  1  0
 18 22  1  0
 19 18  2  0
 19 20  1  0
 20 21  1  0
 22 21  2  0
 23 25  1  0
 23 16  1  0
 24 23  2  0
M  END
$$$$
