TTH.pdb
     RDKit          3D

 25 25  0  0  1  0  0  0  0  0999 V2000
    9.0916  -12.2507   20.0533 C   0  0  0  0  0  0  0  0  0  0  0  0
    8.4294  -12.8362   18.8463 C   0  0  1  0  0  0  0  0  0  0  0  0
    8.7856  -12.1684   17.6838 O   0  0  0  0  0  0  0  0  0  0  0  0
    8.6916  -14.3077   18.6747 C   0  0  2  0  0  0  0  0  0  0  0  0
    8.1251  -14.8452   17.4754 N   0  0  0  0  0  0  0  0  0  0  0  0
    8.2754  -15.1138   19.8250 C   0  0  0  0  0  0  0  0  0  0  0  0
    7.0858  -15.5064   20.0164 O   0  0  0  0  0  0  0  0  0  0  0  0
    8.8021  -18.3719   20.6033 C   0  0  0  0  0  0  0  0  0  0  0  0
    9.2959  -17.7225   21.8784 C   0  0  1  0  0  0  0  0  0  0  0  0
   10.6872  -17.8338   21.8487 O   0  0  0  0  0  0  0  0  0  0  0  0
    8.8513  -16.2835   21.9815 C   0  0  2  0  0  0  0  0  0  0  0  0
    9.2209  -15.5101   20.8201 N   0  0  0  0  0  0  0  0  0  0  0  0
    9.3707  -15.7140   23.2368 C   0  0  0  0  0  0  0  0  0  0  0  0
    9.7255  -14.5044   23.2336 O   0  0  0  0  0  0  0  0  0  0  0  0
    9.4723  -16.4938   24.4169 N   0  0  0  0  0  0  0  0  0  0  0  0
    9.1187  -15.8578   25.6941 C   0  0  1  0  0  0  0  0  0  0  0  0
    7.6508  -15.5597   25.7110 C   0  0  0  0  0  0  0  0  0  0  0  0
    7.2849  -14.1774   26.0075 C   0  0  0  0  0  0  0  0  0  0  0  0
    8.0439  -13.0907   26.2994 C   0  0  0  0  0  0  0  0  0  0  0  0
    7.2330  -11.9991   26.4363 N   0  0  0  0  0  0  0  0  0  0  0  0
    5.9884  -12.4236   26.2267 C   0  0  0  0  0  0  0  0  0  0  0  0
    5.9934  -13.7244   25.9677 N   0  0  0  0  0  0  0  0  0  0  0  0
    9.3305  -16.9226   26.7407 C   0  0  0  0  0  0  0  0  0  0  0  0
    9.3208  -16.7133   27.9552 O   0  0  0  0  0  0  0  0  0  0  0  0
    9.5588  -18.2632   26.3555 O   0  0  0  0  0  0  0  0  0  0  0  0
  2  1  1  1
  2  3  1  0
  4  2  1  0
  4  5  1  6
  6  4  1  0
  6  7  2  0
  9  8  1  6
  9 11  1  0
 10  9  1  0
 11 12  1  6
 11 13  1  0
 12  6  1  0
 13 14  2  0
 13 15  1  0
 15 16  1  0
 16 17  1  6
 17 18  1  0
 18 22  1  0
 19 18  2  0
 19 20  1  0
 20 21  1  0
 22 21  2  0
 23 25  1  0
 23 16  1  0
 24 23  2  0
M  END
$$$$
