TTH.pdb
     RDKit          3D

 25 25  0  0  1  0  0  0  0  0999 V2000
    3.0926  -20.1044   23.0103 C   0  0  0  0  0  0  0  0  0  0  0  0
    2.7074  -21.1687   22.0320 C   0  0  1  0  0  0  0  0  0  0  0  0
    1.3314  -21.3229   21.9481 O   0  0  0  0  0  0  0  0  0  0  0  0
    3.2676  -20.9456   20.6536 C   0  0  2  0  0  0  0  0  0  0  0  0
    2.7977  -21.8968   19.6932 N   0  0  0  0  0  0  0  0  0  0  0  0
    4.7310  -20.8872   20.6196 C   0  0  0  0  0  0  0  0  0  0  0  0
    5.4765  -21.9119   20.6041 O   0  0  0  0  0  0  0  0  0  0  0  0
    6.9528  -18.3331   18.4919 C   0  0  0  0  0  0  0  0  0  0  0  0
    7.3820  -18.3249   19.9435 C   0  0  1  0  0  0  0  0  0  0  0  0
    6.9022  -17.1269   20.4761 O   0  0  0  0  0  0  0  0  0  0  0  0
    6.8488  -19.5233   20.6909 C   0  0  2  0  0  0  0  0  0  0  0  0
    5.4121  -19.6315   20.6015 N   0  0  0  0  0  0  0  0  0  0  0  0
    7.3330  -19.4708   22.0812 C   0  0  0  0  0  0  0  0  0  0  0  0
    6.6220  -18.8698   22.9312 O   0  0  0  0  0  0  0  0  0  0  0  0
    8.5588  -20.0742   22.4612 N   0  0  0  0  0  0  0  0  0  0  0  0
    8.9852  -19.9423   23.8617 C   0  0  1  0  0  0  0  0  0  0  0  0
    9.1209  -21.3044   24.4700 C   0  0  0  0  0  0  0  0  0  0  0  0
    9.7407  -21.3532   25.7913 C   0  0  0  0  0  0  0  0  0  0  0  0
    9.9568  -20.3851   26.7178 C   0  0  0  0  0  0  0  0  0  0  0  0
   10.5179  -20.9450   27.8312 N   0  0  0  0  0  0  0  0  0  0  0  0
   10.6394  -22.2470   27.5797 C   0  0  0  0  0  0  0  0  0  0  0  0
   10.1806  -22.5162   26.3647 N   0  0  0  0  0  0  0  0  0  0  0  0
   10.3840  -19.3821   23.8004 C   0  0  0  0  0  0  0  0  0  0  0  0
   11.1013  -19.1980   24.7854 O   0  0  0  0  0  0  0  0  0  0  0  0
   10.9553  -19.0296   22.5566 O   0  0  0  0  0  0  0  0  0  0  0  0
  2  1  1  1
  2  3  1  0
  4  2  1  0
  4  5  1  6
  6  4  1  0
  6  7  2  0
  9  8  1  6
  9 11  1  0
 10  9  1  0
 11 12  1  1
 11 13  1  0
 12  6  1  0
 13 14  2  0
 13 15  1  0
 15 16  1  0
 16 17  1  6
 17 18  1  0
 18 22  1  0
 19 18  2  0
 19 20  1  0
 20 21  1  0
 22 21  2  0
 23 25  1  0
 23 16  1  0
 24 23  2  0
M  END
$$$$
