TTH.pdb
     RDKit          3D

 25 25  0  0  1  0  0  0  0  0999 V2000
   11.3153  -13.7908   20.1083 C   0  0  0  0  0  0  0  0  0  0  0  0
   10.4199  -13.2362   19.0459 C   0  0  1  0  0  0  0  0  0  0  0  0
   11.1400  -12.6902   17.9935 O   0  0  0  0  0  0  0  0  0  0  0  0
    9.4368  -14.2400   18.5078 C   0  0  2  0  0  0  0  0  0  0  0  0
    8.5812  -13.7036   17.4938 N   0  0  0  0  0  0  0  0  0  0  0  0
    8.6309  -14.8844   19.5477 C   0  0  0  0  0  0  0  0  0  0  0  0
    7.4851  -14.4770   19.9043 O   0  0  0  0  0  0  0  0  0  0  0  0
    8.0785  -18.8160   20.0029 C   0  0  0  0  0  0  0  0  0  0  0  0
    8.5607  -18.1855   21.2918 C   0  0  1  0  0  0  0  0  0  0  0  0
    9.9077  -18.5341   21.4061 O   0  0  0  0  0  0  0  0  0  0  0  0
    8.3682  -16.6881   21.2878 C   0  0  2  0  0  0  0  0  0  0  0  0
    9.1124  -16.0417   20.2334 N   0  0  0  0  0  0  0  0  0  0  0  0
    8.6965  -16.1628   22.6244 C   0  0  0  0  0  0  0  0  0  0  0  0
    9.8233  -15.6209   22.7849 O   0  0  0  0  0  0  0  0  0  0  0  0
    7.7806  -16.2591   23.7028 N   0  0  0  0  0  0  0  0  0  0  0  0
    8.1239  -15.5783   24.9596 C   0  0  1  0  0  0  0  0  0  0  0  0
    6.8663  -15.1546   25.6545 C   0  0  0  0  0  0  0  0  0  0  0  0
    6.9026  -13.8418   26.2928 C   0  0  0  0  0  0  0  0  0  0  0  0
    7.8918  -12.9173   26.3889 C   0  0  0  0  0  0  0  0  0  0  0  0
    7.4136  -11.8121   27.0351 N   0  0  0  0  0  0  0  0  0  0  0  0
    6.1396  -12.0665   27.3277 C   0  0  0  0  0  0  0  0  0  0  0  0
    5.8101  -13.2755   26.8932 N   0  0  0  0  0  0  0  0  0  0  0  0
    8.7342  -16.6438   25.8351 C   0  0  0  0  0  0  0  0  0  0  0  0
    9.4191  -16.4130   26.8333 O   0  0  0  0  0  0  0  0  0  0  0  0
    8.5376  -18.0107   25.5341 O   0  0  0  0  0  0  0  0  0  0  0  0
  2  1  1  1
  2  3  1  0
  4  2  1  0
  4  5  1  6
  6  4  1  0
  6  7  2  0
  9  8  1  6
  9 11  1  0
 10  9  1  0
 11 12  1  6
 11 13  1  0
 12  6  1  0
 13 14  2  0
 13 15  1  0
 15 16  1  0
 16 17  1  1
 17 18  1  0
 18 22  1  0
 19 18  2  0
 19 20  1  0
 20 21  1  0
 22 21  2  0
 23 25  1  0
 23 16  1  0
 24 23  2  0
M  END
$$$$
