TTH.pdb
     RDKit          3D

 25 25  0  0  1  0  0  0  0  0999 V2000
   13.2191  -16.5908   17.6818 C   0  0  0  0  0  0  0  0  0  0  0  0
   12.5820  -16.3502   19.0139 C   0  0  1  0  0  0  0  0  0  0  0  0
   13.4188  -16.7070   20.0612 O   0  0  0  0  0  0  0  0  0  0  0  0
   12.1191  -14.9320   19.2085 C   0  0  2  0  0  0  0  0  0  0  0  0
   13.1595  -13.9681   19.0174 N   0  0  0  0  0  0  0  0  0  0  0  0
   11.4609  -14.7033   20.4971 C   0  0  0  0  0  0  0  0  0  0  0  0
   12.0071  -14.1024   21.4700 O   0  0  0  0  0  0  0  0  0  0  0  0
    7.4171  -14.0577   20.8196 C   0  0  0  0  0  0  0  0  0  0  0  0
    7.9412  -15.0490   21.8363 C   0  0  1  0  0  0  0  0  0  0  0  0
    7.5384  -16.3072   21.3847 O   0  0  0  0  0  0  0  0  0  0  0  0
    9.4412  -14.9602   21.9821 C   0  0  2  0  0  0  0  0  0  0  0  0
   10.1275  -15.1613   20.7282 N   0  0  0  0  0  0  0  0  0  0  0  0
    9.8741  -15.9025   23.0284 C   0  0  0  0  0  0  0  0  0  0  0  0
   10.6726  -16.8214   22.7012 O   0  0  0  0  0  0  0  0  0  0  0  0
    9.4125  -15.7878   24.3644 N   0  0  0  0  0  0  0  0  0  0  0  0
    9.8835  -16.7792   25.3423 C   0  0  1  0  0  0  0  0  0  0  0  0
   10.9149  -16.1512   26.2287 C   0  0  0  0  0  0  0  0  0  0  0  0
   10.4675  -15.0031   27.0124 C   0  0  0  0  0  0  0  0  0  0  0  0
    9.9310  -13.8142   26.6371 C   0  0  0  0  0  0  0  0  0  0  0  0
    9.6152  -13.0908   27.7528 N   0  0  0  0  0  0  0  0  0  0  0  0
    9.9581  -13.8399   28.7991 C   0  0  0  0  0  0  0  0  0  0  0  0
   10.4704  -14.9899   28.3816 N   0  0  0  0  0  0  0  0  0  0  0  0
    8.6968  -17.0564   26.2306 C   0  0  0  0  0  0  0  0  0  0  0  0
    7.6065  -16.4911   26.1282 O   0  0  0  0  0  0  0  0  0  0  0  0
    8.7898  -18.0179   27.2624 O   0  0  0  0  0  0  0  0  0  0  0  0
  2  1  1  6
  2  3  1  0
  4  2  1  0
  4  5  1  1
  6  4  1  0
  6  7  2  0
  9  8  1  6
  9 11  1  0
 10  9  1  0
 11 12  1  6
 11 13  1  0
 12  6  1  0
 13 14  2  0
 13 15  1  0
 15 16  1  0
 16 17  1  1
 17 18  1  0
 18 22  1  0
 19 18  2  0
 19 20  1  0
 20 21  1  0
 22 21  2  0
 23 25  1  0
 23 16  1  0
 24 23  2  0
M  END
$$$$
