TTH.pdb
     RDKit          3D

 25 25  0  0  1  0  0  0  0  0999 V2000
    9.9598  -18.5689   17.7240 C   0  0  0  0  0  0  0  0  0  0  0  0
   10.5670  -17.6262   16.7336 C   0  0  1  0  0  0  0  0  0  0  0  0
   10.5386  -18.1385   15.4448 O   0  0  0  0  0  0  0  0  0  0  0  0
    9.9335  -16.2616   16.7403 C   0  0  2  0  0  0  0  0  0  0  0  0
   10.3669  -15.4335   15.6566 N   0  0  0  0  0  0  0  0  0  0  0  0
   10.0984  -15.5465   18.0082 C   0  0  0  0  0  0  0  0  0  0  0  0
   11.1479  -14.9122   18.3276 O   0  0  0  0  0  0  0  0  0  0  0  0
    7.4987  -13.0898   19.7626 C   0  0  0  0  0  0  0  0  0  0  0  0
    7.9022  -14.2084   20.6993 C   0  0  1  0  0  0  0  0  0  0  0  0
    6.8311  -15.1039   20.7072 O   0  0  0  0  0  0  0  0  0  0  0  0
    9.1840  -14.8725   20.2576 C   0  0  2  0  0  0  0  0  0  0  0  0
    9.0502  -15.5284   18.9788 N   0  0  0  0  0  0  0  0  0  0  0  0
    9.6394  -15.7829   21.3225 C   0  0  0  0  0  0  0  0  0  0  0  0
    9.4544  -17.0193   21.1607 O   0  0  0  0  0  0  0  0  0  0  0  0
   10.2671  -15.2935   22.4961 N   0  0  0  0  0  0  0  0  0  0  0  0
   10.6371  -16.2658   23.5347 C   0  0  1  0  0  0  0  0  0  0  0  0
   11.9559  -15.8786   24.1303 C   0  0  0  0  0  0  0  0  0  0  0  0
   13.1347  -16.1972   23.3293 C   0  0  0  0  0  0  0  0  0  0  0  0
   13.2803  -16.4324   22.0005 C   0  0  0  0  0  0  0  0  0  0  0  0
   14.6041  -16.6238   21.7198 N   0  0  0  0  0  0  0  0  0  0  0  0
   15.2569  -16.5034   22.8742 C   0  0  0  0  0  0  0  0  0  0  0  0
   14.3989  -16.2476   23.8528 N   0  0  0  0  0  0  0  0  0  0  0  0
    9.6224  -16.0783   24.6345 C   0  0  0  0  0  0  0  0  0  0  0  0
    8.7629  -15.1952   24.6422 O   0  0  0  0  0  0  0  0  0  0  0  0
    9.6148  -16.9454   25.7507 O   0  0  0  0  0  0  0  0  0  0  0  0
  2  1  1  1
  2  3  1  0
  4  2  1  0
  4  5  1  6
  6  4  1  0
  6  7  2  0
  9  8  1  6
  9 11  1  0
 10  9  1  0
 11 12  1  6
 11 13  1  0
 12  6  1  0
 13 14  2  0
 13 15  1  0
 15 16  1  0
 16 17  1  1
 17 18  1  0
 18 22  1  0
 19 18  2  0
 19 20  1  0
 20 21  1  0
 22 21  2  0
 23 25  1  0
 23 16  1  0
 24 23  2  0
M  END
$$$$
