TTH.pdb
     RDKit          3D

 25 25  0  0  1  0  0  0  0  0999 V2000
   11.8435  -14.0220   18.0221 C   0  0  0  0  0  0  0  0  0  0  0  0
   10.9021  -14.3076   19.1493 C   0  0  1  0  0  0  0  0  0  0  0  0
   11.0644  -13.4160   20.1994 O   0  0  0  0  0  0  0  0  0  0  0  0
    9.4568  -14.3262   18.7317 C   0  0  2  0  0  0  0  0  0  0  0  0
    9.0575  -13.1447   18.0298 N   0  0  0  0  0  0  0  0  0  0  0  0
    8.5317  -14.5828   19.8382 C   0  0  0  0  0  0  0  0  0  0  0  0
    7.2738  -14.4584   19.7479 O   0  0  0  0  0  0  0  0  0  0  0  0
    6.5216  -16.2481   20.4183 C   0  0  0  0  0  0  0  0  0  0  0  0
    7.2566  -16.6080   21.6916 C   0  0  1  0  0  0  0  0  0  0  0  0
    7.9893  -17.7592   21.3964 O   0  0  0  0  0  0  0  0  0  0  0  0
    8.1470  -15.4826   22.1605 C   0  0  2  0  0  0  0  0  0  0  0  0
    9.0178  -14.9996   21.1154 N   0  0  0  0  0  0  0  0  0  0  0  0
    8.8817  -15.9248   23.3583 C   0  0  0  0  0  0  0  0  0  0  0  0
   10.1079  -16.1894   23.2341 O   0  0  0  0  0  0  0  0  0  0  0  0
    8.2386  -16.0520   24.6158 N   0  0  0  0  0  0  0  0  0  0  0  0
    9.0288  -15.7734   25.8237 C   0  0  1  0  0  0  0  0  0  0  0  0
    8.1303  -15.2244   26.8892 C   0  0  0  0  0  0  0  0  0  0  0  0
    7.5715  -13.9002   26.6311 C   0  0  0  0  0  0  0  0  0  0  0  0
    8.1017  -12.8028   26.0338 C   0  0  0  0  0  0  0  0  0  0  0  0
    7.1533  -11.8206   25.9737 N   0  0  0  0  0  0  0  0  0  0  0  0
    6.0530  -12.3224   26.5314 C   0  0  0  0  0  0  0  0  0  0  0  0
    6.2782  -13.5664   26.9326 N   0  0  0  0  0  0  0  0  0  0  0  0
    9.4782  -17.1228   26.3249 C   0  0  0  0  0  0  0  0  0  0  0  0
   10.1427  -17.2966   27.3481 O   0  0  0  0  0  0  0  0  0  0  0  0
    9.1414  -18.2952   25.6108 O   0  0  0  0  0  0  0  0  0  0  0  0
  2  1  1  6
  2  3  1  0
  4  2  1  0
  4  5  1  1
  6  4  1  0
  6  7  2  0
  9  8  1  6
  9 11  1  0
 10  9  1  0
 11 12  1  6
 11 13  1  0
 12  6  1  0
 13 14  2  0
 13 15  1  0
 15 16  1  0
 16 17  1  1
 17 18  1  0
 18 22  1  0
 19 18  2  0
 19 20  1  0
 20 21  1  0
 22 21  2  0
 23 25  1  0
 23 16  1  0
 24 23  2  0
M  END
$$$$
