TTH.pdb
     RDKit          3D

 25 25  0  0  1  0  0  0  0  0999 V2000
    8.3274  -11.8638   18.4205 C   0  0  0  0  0  0  0  0  0  0  0  0
    8.4616  -13.0504   19.3217 C   0  0  1  0  0  0  0  0  0  0  0  0
    7.5506  -13.0135   20.3672 O   0  0  0  0  0  0  0  0  0  0  0  0
    8.3389  -14.3657   18.6016 C   0  0  2  0  0  0  0  0  0  0  0  0
    7.1187  -14.4933   17.8646 N   0  0  0  0  0  0  0  0  0  0  0  0
    8.5157  -15.5289   19.4744 C   0  0  0  0  0  0  0  0  0  0  0  0
    7.5551  -16.2043   19.9508 O   0  0  0  0  0  0  0  0  0  0  0  0
    9.8996  -18.8429   19.0507 C   0  0  0  0  0  0  0  0  0  0  0  0
   10.7336  -18.2304   20.1555 C   0  0  1  0  0  0  0  0  0  0  0  0
   11.9451  -17.8693   19.5631 O   0  0  0  0  0  0  0  0  0  0  0  0
   10.0430  -17.0449   20.7855 C   0  0  2  0  0  0  0  0  0  0  0  0
    9.8222  -15.9737   19.8435 N   0  0  0  0  0  0  0  0  0  0  0  0
   10.8133  -16.6181   21.9665 C   0  0  0  0  0  0  0  0  0  0  0  0
   11.6754  -15.7115   21.8125 O   0  0  0  0  0  0  0  0  0  0  0  0
   10.5989  -17.2028   23.2406 N   0  0  0  0  0  0  0  0  0  0  0  0
   11.4998  -16.8153   24.3356 C   0  0  1  0  0  0  0  0  0  0  0  0
   10.7219  -16.0763   25.3809 C   0  0  0  0  0  0  0  0  0  0  0  0
    9.2723  -16.2469   25.3355 C   0  0  0  0  0  0  0  0  0  0  0  0
    8.3594  -15.9212   24.3854 C   0  0  0  0  0  0  0  0  0  0  0  0
    7.1233  -16.3462   24.7845 N   0  0  0  0  0  0  0  0  0  0  0  0
    7.2881  -16.9279   25.9710 C   0  0  0  0  0  0  0  0  0  0  0  0
    8.5663  -16.8814   26.3223 N   0  0  0  0  0  0  0  0  0  0  0  0
   11.9214  -18.1112   24.9813 C   0  0  0  0  0  0  0  0  0  0  0  0
   11.5579  -19.2259   24.6016 O   0  0  0  0  0  0  0  0  0  0  0  0
   12.7886  -18.1008   26.0974 O   0  0  0  0  0  0  0  0  0  0  0  0
  2  1  1  6
  2  3  1  0
  4  2  1  0
  4  5  1  1
  6  4  1  0
  6  7  2  0
  9  8  1  6
  9 11  1  0
 10  9  1  0
 11 12  1  6
 11 13  1  0
 12  6  1  0
 13 14  2  0
 13 15  1  0
 15 16  1  0
 16 17  1  1
 17 18  1  0
 18 22  1  0
 19 18  2  0
 19 20  1  0
 20 21  1  0
 22 21  2  0
 23 25  1  0
 23 16  1  0
 24 23  2  0
M  END
$$$$
