TTH.pdb
     RDKit          3D

 25 25  0  0  1  0  0  0  0  0999 V2000
    8.0897  -19.3686   19.1949 C   0  0  0  0  0  0  0  0  0  0  0  0
    9.0133  -18.9896   18.0807 C   0  0  1  0  0  0  0  0  0  0  0  0
    8.7487  -19.7043   16.9216 O   0  0  0  0  0  0  0  0  0  0  0  0
    9.0040  -17.5176   17.7702 C   0  0  2  0  0  0  0  0  0  0  0  0
    9.7610  -17.1828   16.6027 N   0  0  0  0  0  0  0  0  0  0  0  0
    9.4292  -16.6802   18.8945 C   0  0  0  0  0  0  0  0  0  0  0  0
   10.6133  -16.2556   19.0481 O   0  0  0  0  0  0  0  0  0  0  0  0
    7.5980  -13.4860   20.3001 C   0  0  0  0  0  0  0  0  0  0  0  0
    7.8348  -14.4757   21.4207 C   0  0  1  0  0  0  0  0  0  0  0  0
    6.5970  -15.0706   21.6717 O   0  0  0  0  0  0  0  0  0  0  0  0
    8.8828  -15.4978   21.0518 C   0  0  2  0  0  0  0  0  0  0  0  0
    8.4997  -16.2881   19.9062 N   0  0  0  0  0  0  0  0  0  0  0  0
    9.1850  -16.3184   22.2374 C   0  0  0  0  0  0  0  0  0  0  0  0
    8.6200  -17.4407   22.3377 O   0  0  0  0  0  0  0  0  0  0  0  0
   10.0819  -15.8685   23.2395 N   0  0  0  0  0  0  0  0  0  0  0  0
   10.3298  -16.7523   24.3877 C   0  0  1  0  0  0  0  0  0  0  0  0
   11.8062  -16.9301   24.5679 C   0  0  0  0  0  0  0  0  0  0  0  0
   12.4464  -17.8892   23.6720 C   0  0  0  0  0  0  0  0  0  0  0  0
   11.9493  -18.6372   22.6543 C   0  0  0  0  0  0  0  0  0  0  0  0
   12.9676  -19.3386   22.0723 N   0  0  0  0  0  0  0  0  0  0  0  0
   14.0768  -19.0152   22.7345 C   0  0  0  0  0  0  0  0  0  0  0  0
   13.7906  -18.1485   23.6969 N   0  0  0  0  0  0  0  0  0  0  0  0
    9.8622  -15.9777   25.5941 C   0  0  0  0  0  0  0  0  0  0  0  0
    9.8712  -16.4157   26.7459 O   0  0  0  0  0  0  0  0  0  0  0  0
    9.3728  -14.6599   25.4474 O   0  0  0  0  0  0  0  0  0  0  0  0
  2  1  1  1
  2  3  1  0
  4  2  1  0
  4  5  1  6
  6  4  1  0
  6  7  2  0
  9  8  1  6
  9 11  1  0
 10  9  1  0
 11 12  1  6
 11 13  1  0
 12  6  1  0
 13 14  2  0
 13 15  1  0
 15 16  1  0
 16 17  1  1
 17 18  1  0
 18 22  1  0
 19 18  2  0
 19 20  1  0
 20 21  1  0
 22 21  2  0
 23 25  1  0
 23 16  1  0
 24 23  2  0
M  END
$$$$
