TTH.pdb
     RDKit          3D

 25 25  0  0  1  0  0  0  0  0999 V2000
    9.4757  -12.3883   19.9032 C   0  0  0  0  0  0  0  0  0  0  0  0
    8.6898  -12.7712   18.6892 C   0  0  1  0  0  0  0  0  0  0  0  0
    8.9743  -11.9512   17.6071 O   0  0  0  0  0  0  0  0  0  0  0  0
    8.8743  -14.2088   18.2858 C   0  0  2  0  0  0  0  0  0  0  0  0
    8.2076  -14.5415   17.0639 N   0  0  0  0  0  0  0  0  0  0  0  0
    8.4981  -15.1626   19.3321 C   0  0  0  0  0  0  0  0  0  0  0  0
    7.3104  -15.5565   19.5321 O   0  0  0  0  0  0  0  0  0  0  0  0
    9.0798  -18.6522   19.7881 C   0  0  0  0  0  0  0  0  0  0  0  0
    9.7010  -18.0204   21.0154 C   0  0  1  0  0  0  0  0  0  0  0  0
   11.0767  -17.9995   20.7785 O   0  0  0  0  0  0  0  0  0  0  0  0
    9.1553  -16.6356   21.2683 C   0  0  2  0  0  0  0  0  0  0  0  0
    9.4839  -15.7138   20.2072 N   0  0  0  0  0  0  0  0  0  0  0  0
    9.6182  -16.1759   22.5891 C   0  0  0  0  0  0  0  0  0  0  0  0
   10.5864  -15.3695   22.6271 O   0  0  0  0  0  0  0  0  0  0  0  0
    9.0007  -16.6207   23.7857 N   0  0  0  0  0  0  0  0  0  0  0  0
    9.4628  -16.0407   25.0549 C   0  0  1  0  0  0  0  0  0  0  0  0
    8.2867  -15.8129   25.9542 C   0  0  0  0  0  0  0  0  0  0  0  0
    7.4777  -14.6337   25.6586 C   0  0  0  0  0  0  0  0  0  0  0  0
    7.6297  -13.6487   24.7372 C   0  0  0  0  0  0  0  0  0  0  0  0
    6.5655  -12.7945   24.8119 N   0  0  0  0  0  0  0  0  0  0  0  0
    5.7721  -13.2616   25.7741 C   0  0  0  0  0  0  0  0  0  0  0  0
    6.2966  -14.3624   26.2960 N   0  0  0  0  0  0  0  0  0  0  0  0
   10.2766  -17.1253   25.7148 C   0  0  0  0  0  0  0  0  0  0  0  0
   10.3876  -18.2723   25.2781 O   0  0  0  0  0  0  0  0  0  0  0  0
   10.9762  -16.8598   26.9139 O   0  0  0  0  0  0  0  0  0  0  0  0
  2  1  1  1
  2  3  1  0
  4  2  1  0
  4  5  1  6
  6  4  1  0
  6  7  2  0
  9  8  1  6
  9 11  1  0
 10  9  1  0
 11 12  1  6
 11 13  1  0
 12  6  1  0
 13 14  2  0
 13 15  1  0
 15 16  1  0
 16 17  1  1
 17 18  1  0
 18 22  1  0
 19 18  2  0
 19 20  1  0
 20 21  1  0
 22 21  2  0
 23 25  1  0
 23 16  1  0
 24 23  2  0
M  END
$$$$
