YKT.pdb
     RDKit          3D

 29 29  0  0  1  0  0  0  0  0999 V2000
   23.1643  -21.7753   -7.1778 O   0  0  0  0  0  0  0  0  0  0  0  0
   23.7164  -21.3437   -8.3792 C   0  0  0  0  0  0  0  0  0  0  0  0
   25.0703  -21.1104   -8.4964 C   0  0  0  0  0  0  0  0  0  0  0  0
   25.6396  -20.6839   -9.6716 C   0  0  0  0  0  0  0  0  0  0  0  0
   24.8609  -20.4756  -10.7784 C   0  0  0  0  0  0  0  0  0  0  0  0
   25.4771  -20.0194  -12.0320 C   0  0  0  0  0  0  0  0  0  0  0  0
   25.1207  -21.0263  -13.1108 C   0  0  2  0  0  0  0  0  0  0  0  0
   26.0817  -22.0827  -13.2064 N   0  0  0  0  0  0  0  0  0  0  0  0
   25.0916  -20.2934  -14.4078 C   0  0  0  0  0  0  0  0  0  0  0  0
   26.1750  -20.0156  -14.9999 O   0  0  0  0  0  0  0  0  0  0  0  0
   23.5097  -20.6938  -10.7118 C   0  0  0  0  0  0  0  0  0  0  0  0
   22.9620  -21.1244   -9.5117 C   0  0  0  0  0  0  0  0  0  0  0  0
   23.8977  -19.8860  -15.0208 N   0  0  0  0  0  0  0  0  0  0  0  0
   23.8126  -19.2172  -16.2777 C   0  0  1  0  0  0  0  0  0  0  0  0
   22.4588  -19.4741  -16.8940 C   0  0  0  0  0  0  0  0  0  0  0  0
   22.2697  -18.8824  -18.2501 C   0  0  0  0  0  0  0  0  0  0  0  0
   20.9231  -19.1984  -18.8510 C   0  0  0  0  0  0  0  0  0  0  0  0
   20.8132  -18.5821  -20.2282 C   0  0  0  0  0  0  0  0  0  0  0  0
   19.4887  -18.8326  -20.7604 N   0  0  0  0  0  0  0  0  0  0  0  0
   23.9845  -17.7420  -16.1474 C   0  0  0  0  0  0  0  0  0  0  0  0
   23.3458  -17.1133  -15.2641 O   0  0  0  0  0  0  0  0  0  0  0  0
   27.1388  -15.8777  -15.5397 C   0  0  0  0  0  0  0  0  0  0  0  0
   26.5337  -15.3112  -16.8038 C   0  0  1  0  0  0  0  0  0  0  0  0
   27.0670  -16.0784  -17.8652 O   0  0  0  0  0  0  0  0  0  0  0  0
   25.0351  -15.5532  -16.8372 C   0  0  2  0  0  0  0  0  0  0  0  0
   24.8529  -17.0024  -16.9913 N   0  0  0  0  0  0  0  0  0  0  0  0
   24.5024  -14.8545  -18.0199 C   0  0  0  0  0  0  0  0  0  0  0  0
   24.0574  -15.5082  -18.9808 O   0  0  0  0  0  0  0  0  0  0  0  0
   24.4951  -13.4804  -18.0660 O   0  0  0  0  0  0  0  0  0  0  0  0
  2  1  1  0
  2  3  2  0
  4  3  1  0
  5  4  2  0
  6  5  1  0
  7  6  1  0
  7  8  1  6
  9  7  1  0
 10  9  2  0
 11 12  2  0
 11  5  1  0
 12  2  1  0
 13  9  1  0
 14 13  1  0
 15 16  1  0
 14 15  1  1
 16 17  1  0
 18 17  1  0
 19 18  1  0
 20 14  1  0
 20 21  2  0
 23 22  1  1
 24 23  1  0
 25 23  1  0
 25 26  1  6
 26 20  1  0
 27 25  1  0
 28 27  2  0
 29 27  1  0
M  END
$$$$
