YKT.pdb
     RDKit          3D

 29 29  0  0  1  0  0  0  0  0999 V2000
   23.9726  -21.1163   -7.8185 O   0  0  0  0  0  0  0  0  0  0  0  0
   24.3776  -20.9268   -9.1355 C   0  0  0  0  0  0  0  0  0  0  0  0
   25.6888  -21.1273   -9.5120 C   0  0  0  0  0  0  0  0  0  0  0  0
   26.1136  -20.9469  -10.8059 C   0  0  0  0  0  0  0  0  0  0  0  0
   25.2275  -20.5556  -11.7736 C   0  0  0  0  0  0  0  0  0  0  0  0
   25.6893  -20.3647  -13.1554 C   0  0  0  0  0  0  0  0  0  0  0  0
   24.8506  -21.2625  -14.0471 C   0  0  2  0  0  0  0  0  0  0  0  0
   25.2538  -22.6336  -13.9704 N   0  0  0  0  0  0  0  0  0  0  0  0
   25.0360  -20.7918  -15.4487 C   0  0  0  0  0  0  0  0  0  0  0  0
   25.9466  -21.2960  -16.1683 O   0  0  0  0  0  0  0  0  0  0  0  0
   23.9133  -20.3437  -11.4485 C   0  0  0  0  0  0  0  0  0  0  0  0
   23.5124  -20.5335  -10.1337 C   0  0  0  0  0  0  0  0  0  0  0  0
   24.2347  -19.7954  -16.0251 N   0  0  0  0  0  0  0  0  0  0  0  0
   24.2432  -19.4388  -17.4062 C   0  0  1  0  0  0  0  0  0  0  0  0
   22.8634  -18.9855  -17.8176 C   0  0  0  0  0  0  0  0  0  0  0  0
   21.9250  -20.0896  -18.1711 C   0  0  0  0  0  0  0  0  0  0  0  0
   20.5883  -19.5950  -18.6639 C   0  0  0  0  0  0  0  0  0  0  0  0
   19.6758  -20.7673  -18.9497 C   0  0  0  0  0  0  0  0  0  0  0  0
   19.3098  -21.4045  -17.7006 N   0  0  0  0  0  0  0  0  0  0  0  0
   25.1964  -18.3305  -17.6994 C   0  0  0  0  0  0  0  0  0  0  0  0
   25.0452  -17.2119  -17.1434 O   0  0  0  0  0  0  0  0  0  0  0  0
   28.6883  -18.1504  -16.9963 C   0  0  0  0  0  0  0  0  0  0  0  0
   28.6038  -17.9030  -18.4851 C   0  0  1  0  0  0  0  0  0  0  0  0
   28.7197  -19.1733  -19.0953 O   0  0  0  0  0  0  0  0  0  0  0  0
   27.2267  -17.3900  -18.8671 C   0  0  2  0  0  0  0  0  0  0  0  0
   26.2865  -18.4850  -18.5943 N   0  0  0  0  0  0  0  0  0  0  0  0
   27.2497  -17.1000  -20.3114 C   0  0  0  0  0  0  0  0  0  0  0  0
   26.5630  -17.7817  -21.0940 O   0  0  0  0  0  0  0  0  0  0  0  0
   28.0285  -16.0772  -20.7988 O   0  0  0  0  0  0  0  0  0  0  0  0
  2  1  1  0
  2  3  2  0
  4  3  1  0
  5  4  2  0
  6  5  1  0
  7  6  1  0
  7  8  1  6
  9  7  1  0
 10  9  2  0
 11 12  2  0
 11  5  1  0
 12  2  1  0
 13  9  1  0
 14 13  1  0
 15 16  1  0
 14 15  1  1
 16 17  1  0
 18 17  1  0
 19 18  1  0
 20 14  1  0
 20 21  2  0
 23 22  1  1
 24 23  1  0
 25 23  1  0
 25 26  1  6
 26 20  1  0
 27 25  1  0
 28 27  2  0
 29 27  1  0
M  END
$$$$
