YKT.pdb
     RDKit          3D

 29 29  0  0  1  0  0  0  0  0999 V2000
   27.6882  -16.5998  -15.4924 O   0  0  0  0  0  0  0  0  0  0  0  0
   26.8316  -15.5620  -15.8444 C   0  0  0  0  0  0  0  0  0  0  0  0
   26.2047  -14.8000  -14.8814 C   0  0  0  0  0  0  0  0  0  0  0  0
   25.3546  -13.7699  -15.2031 C   0  0  0  0  0  0  0  0  0  0  0  0
   25.1036  -13.4682  -16.5149 C   0  0  0  0  0  0  0  0  0  0  0  0
   24.1932  -12.3650  -16.8513 C   0  0  0  0  0  0  0  0  0  0  0  0
   22.7733  -12.8769  -16.6891 C   0  0  2  0  0  0  0  0  0  0  0  0
   22.4783  -13.9531  -17.5854 N   0  0  0  0  0  0  0  0  0  0  0  0
   21.8565  -11.7423  -16.9930 C   0  0  0  0  0  0  0  0  0  0  0  0
   21.6547  -11.3985  -18.1941 O   0  0  0  0  0  0  0  0  0  0  0  0
   25.7031  -14.1970  -17.5084 C   0  0  0  0  0  0  0  0  0  0  0  0
   26.5572  -15.2318  -17.1541 C   0  0  0  0  0  0  0  0  0  0  0  0
   21.1899  -11.0186  -15.9935 N   0  0  0  0  0  0  0  0  0  0  0  0
   20.2584   -9.9652  -16.2322 C   0  0  1  0  0  0  0  0  0  0  0  0
   19.0756  -10.1198  -15.3073 C   0  0  0  0  0  0  0  0  0  0  0  0
   17.8573  -10.6968  -15.9457 C   0  0  0  0  0  0  0  0  0  0  0  0
   17.4067  -11.9849  -15.3039 C   0  0  0  0  0  0  0  0  0  0  0  0
   16.1104  -12.4497  -15.9303 C   0  0  0  0  0  0  0  0  0  0  0  0
   15.6122  -13.5994  -15.2022 N   0  0  0  0  0  0  0  0  0  0  0  0
   20.8529   -8.6186  -15.9951 C   0  0  0  0  0  0  0  0  0  0  0  0
   21.6871   -8.4577  -15.0669 O   0  0  0  0  0  0  0  0  0  0  0  0
   21.1732   -3.8683  -17.4945 C   0  0  0  0  0  0  0  0  0  0  0  0
   20.6338   -5.2698  -17.6663 C   0  0  1  0  0  0  0  0  0  0  0  0
   21.2729   -5.7921  -18.8145 O   0  0  0  0  0  0  0  0  0  0  0  0
   21.0710   -6.1585  -16.5153 C   0  0  2  0  0  0  0  0  0  0  0  0
   20.5129   -7.4900  -16.7850 N   0  0  0  0  0  0  0  0  0  0  0  0
   20.4776   -5.6084  -15.2841 C   0  0  0  0  0  0  0  0  0  0  0  0
   19.3156   -5.9165  -14.9619 O   0  0  0  0  0  0  0  0  0  0  0  0
   21.2038   -4.7543  -14.4883 O   0  0  0  0  0  0  0  0  0  0  0  0
  2  1  1  0
  2  3  2  0
  4  3  1  0
  5  4  2  0
  6  5  1  0
  7  6  1  0
  7  8  1  6
  9  7  1  0
 10  9  2  0
 11 12  2  0
 11  5  1  0
 12  2  1  0
 13  9  1  0
 14 13  1  0
 15 16  1  0
 14 15  1  1
 16 17  1  0
 18 17  1  0
 19 18  1  0
 20 14  1  0
 20 21  2  0
 23 22  1  1
 24 23  1  0
 25 23  1  0
 25 26  1  6
 26 20  1  0
 27 25  1  0
 28 27  2  0
 29 27  1  0
M  END
$$$$
