YKT.pdb
     RDKit          3D

 29 29  0  0  1  0  0  0  0  0999 V2000
   20.1457  -23.2626   -6.3333 O   0  0  0  0  0  0  0  0  0  0  0  0
   20.8614  -22.5222   -7.2682 C   0  0  0  0  0  0  0  0  0  0  0  0
   21.8429  -21.6376   -6.8740 C   0  0  0  0  0  0  0  0  0  0  0  0
   22.5636  -20.8950   -7.7775 C   0  0  0  0  0  0  0  0  0  0  0  0
   22.3201  -21.0173   -9.1194 C   0  0  0  0  0  0  0  0  0  0  0  0
   23.0950  -20.2196  -10.0798 C   0  0  0  0  0  0  0  0  0  0  0  0
   24.3958  -20.9565  -10.3435 C   0  0  2  0  0  0  0  0  0  0  0  0
   25.3686  -20.7245   -9.3197 N   0  0  0  0  0  0  0  0  0  0  0  0
   24.9375  -20.4493  -11.6356 C   0  0  0  0  0  0  0  0  0  0  0  0
   25.5991  -19.3709  -11.6624 O   0  0  0  0  0  0  0  0  0  0  0  0
   21.3543  -21.8835   -9.5605 C   0  0  0  0  0  0  0  0  0  0  0  0
   20.6420  -22.6208   -8.6253 C   0  0  0  0  0  0  0  0  0  0  0  0
   24.7478  -21.1210  -12.8521 N   0  0  0  0  0  0  0  0  0  0  0  0
   25.1879  -20.6469  -14.1234 C   0  0  1  0  0  0  0  0  0  0  0  0
   25.9744  -21.7306  -14.8202 C   0  0  0  0  0  0  0  0  0  0  0  0
   26.5444  -21.3351  -16.1405 C   0  0  0  0  0  0  0  0  0  0  0  0
   27.3594  -22.4284  -16.7846 C   0  0  0  0  0  0  0  0  0  0  0  0
   28.0316  -21.9050  -18.0347 C   0  0  0  0  0  0  0  0  0  0  0  0
   28.8614  -22.9477  -18.6043 N   0  0  0  0  0  0  0  0  0  0  0  0
   24.0517  -20.2633  -15.0093 C   0  0  0  0  0  0  0  0  0  0  0  0
   22.9768  -20.9159  -14.9661 O   0  0  0  0  0  0  0  0  0  0  0  0
   22.2731  -16.9597  -18.3028 C   0  0  0  0  0  0  0  0  0  0  0  0
   23.3986  -17.4837  -17.4405 C   0  0  1  0  0  0  0  0  0  0  0  0
   23.5778  -16.5267  -16.4152 O   0  0  0  0  0  0  0  0  0  0  0  0
   22.9847  -18.7641  -16.7368 C   0  0  2  0  0  0  0  0  0  0  0  0
   24.1312  -19.1744  -15.9155 N   0  0  0  0  0  0  0  0  0  0  0  0
   22.7285  -19.7753  -17.7772 C   0  0  0  0  0  0  0  0  0  0  0  0
   23.6799  -20.3759  -18.3090 O   0  0  0  0  0  0  0  0  0  0  0  0
   21.4398  -20.0586  -18.1634 O   0  0  0  0  0  0  0  0  0  0  0  0
  2  1  1  0
  2  3  2  0
  4  3  1  0
  5  4  2  0
  6  5  1  0
  7  6  1  0
  7  8  1  1
  9  7  1  0
 10  9  2  0
 11 12  2  0
 11  5  1  0
 12  2  1  0
 13  9  1  0
 14 13  1  0
 15 16  1  0
 14 15  1  6
 16 17  1  0
 18 17  1  0
 19 18  1  0
 20 14  1  0
 20 21  2  0
 23 22  1  6
 24 23  1  0
 25 23  1  0
 25 26  1  1
 26 20  1  0
 27 25  1  0
 28 27  2  0
 29 27  1  0
M  END
$$$$
