YKT.pdb
     RDKit          3D

 29 29  0  0  1  0  0  0  0  0999 V2000
   27.7461  -19.5326   -5.0308 O   0  0  0  0  0  0  0  0  0  0  0  0
   27.2281  -19.7131   -6.3089 C   0  0  0  0  0  0  0  0  0  0  0  0
   27.2068  -18.6786   -7.2201 C   0  0  0  0  0  0  0  0  0  0  0  0
   26.7007  -18.8314   -8.4880 C   0  0  0  0  0  0  0  0  0  0  0  0
   26.1945  -20.0396   -8.8866 C   0  0  0  0  0  0  0  0  0  0  0  0
   25.6550  -20.1955  -10.2445 C   0  0  0  0  0  0  0  0  0  0  0  0
   26.3869  -21.3536  -10.8984 C   0  0  2  0  0  0  0  0  0  0  0  0
   27.7903  -21.1044  -11.0295 N   0  0  0  0  0  0  0  0  0  0  0  0
   25.8079  -21.5308  -12.2598 C   0  0  0  0  0  0  0  0  0  0  0  0
   26.1676  -20.7672  -13.2027 O   0  0  0  0  0  0  0  0  0  0  0  0
   26.1936  -21.0984   -8.0167 C   0  0  0  0  0  0  0  0  0  0  0  0
   26.7111  -20.9151   -6.7423 C   0  0  0  0  0  0  0  0  0  0  0  0
   24.8628  -22.5234  -12.5575 N   0  0  0  0  0  0  0  0  0  0  0  0
   24.3283  -22.7786  -13.8551 C   0  0  1  0  0  0  0  0  0  0  0  0
   23.9826  -24.2427  -13.9781 C   0  0  0  0  0  0  0  0  0  0  0  0
   23.7332  -24.7084  -15.3730 C   0  0  0  0  0  0  0  0  0  0  0  0
   24.9820  -25.1885  -16.0687 C   0  0  0  0  0  0  0  0  0  0  0  0
   24.6493  -25.6479  -17.4712 C   0  0  0  0  0  0  0  0  0  0  0  0
   25.8428  -26.1829  -18.0954 N   0  0  0  0  0  0  0  0  0  0  0  0
   23.0910  -21.9911  -14.1231 C   0  0  0  0  0  0  0  0  0  0  0  0
   22.6776  -21.1654  -13.2684 O   0  0  0  0  0  0  0  0  0  0  0  0
   22.2501  -19.2038  -14.7347 C   0  0  0  0  0  0  0  0  0  0  0  0
   21.7537  -19.9114  -15.9747 C   0  0  1  0  0  0  0  0  0  0  0  0
   22.9010  -20.1617  -16.7624 O   0  0  0  0  0  0  0  0  0  0  0  0
   21.1919  -21.2780  -15.6249 C   0  0  2  0  0  0  0  0  0  0  0  0
   22.3457  -22.1349  -15.3219 N   0  0  0  0  0  0  0  0  0  0  0  0
   20.4928  -21.7855  -16.8183 C   0  0  0  0  0  0  0  0  0  0  0  0
   21.0509  -22.6133  -17.5613 O   0  0  0  0  0  0  0  0  0  0  0  0
   19.2238  -21.3473  -17.1147 O   0  0  0  0  0  0  0  0  0  0  0  0
  2  1  1  0
  2  3  2  0
  4  3  1  0
  5  4  2  0
  6  5  1  0
  7  6  1  0
  7  8  1  6
  9  7  1  0
 10  9  2  0
 11 12  2  0
 11  5  1  0
 12  2  1  0
 13  9  1  0
 14 13  1  0
 15 16  1  0
 14 15  1  1
 16 17  1  0
 18 17  1  0
 19 18  1  0
 20 14  1  0
 20 21  2  0
 23 22  1  1
 24 23  1  0
 25 23  1  0
 25 26  1  6
 26 20  1  0
 27 25  1  0
 28 27  2  0
 29 27  1  0
M  END
$$$$
