YKT.pdb
     RDKit          3D

 29 29  0  0  1  0  0  0  0  0999 V2000
   18.7309  -16.1626  -16.4068 O   0  0  0  0  0  0  0  0  0  0  0  0
   18.4356  -14.8250  -16.1657 C   0  0  0  0  0  0  0  0  0  0  0  0
   18.6313  -14.2670  -14.9201 C   0  0  0  0  0  0  0  0  0  0  0  0
   18.3475  -12.9489  -14.6568 C   0  0  0  0  0  0  0  0  0  0  0  0
   17.8533  -12.1400  -15.6448 C   0  0  0  0  0  0  0  0  0  0  0  0
   17.5522  -10.7312  -15.3555 C   0  0  0  0  0  0  0  0  0  0  0  0
   16.2858  -10.6956  -14.5191 C   0  0  2  0  0  0  0  0  0  0  0  0
   15.1467  -11.1807  -15.2373 N   0  0  0  0  0  0  0  0  0  0  0  0
   16.0410   -9.2736  -14.1472 C   0  0  0  0  0  0  0  0  0  0  0  0
   15.4099   -8.5142  -14.9386 O   0  0  0  0  0  0  0  0  0  0  0  0
   17.6417  -12.6486  -16.8995 C   0  0  0  0  0  0  0  0  0  0  0  0
   17.9372  -13.9835  -17.1368 C   0  0  0  0  0  0  0  0  0  0  0  0
   16.4843   -8.7203  -12.9371 N   0  0  0  0  0  0  0  0  0  0  0  0
   16.2703   -7.3701  -12.5302 C   0  0  1  0  0  0  0  0  0  0  0  0
   16.2935   -7.2887  -11.0231 C   0  0  0  0  0  0  0  0  0  0  0  0
   16.0628   -5.9229  -10.4698 C   0  0  0  0  0  0  0  0  0  0  0  0
   15.0291   -5.8961   -9.3720 C   0  0  0  0  0  0  0  0  0  0  0  0
   14.8113   -4.4752   -8.9006 C   0  0  0  0  0  0  0  0  0  0  0  0
   13.9547   -4.4847   -7.7317 N   0  0  0  0  0  0  0  0  0  0  0  0
   17.3170   -6.4473  -13.0553 C   0  0  0  0  0  0  0  0  0  0  0  0
   18.5307   -6.6769  -12.8155 O   0  0  0  0  0  0  0  0  0  0  0  0
   17.9935   -5.6048  -16.6007 C   0  0  0  0  0  0  0  0  0  0  0  0
   17.7235   -4.3049  -15.8781 C   0  0  1  0  0  0  0  0  0  0  0  0
   16.3256   -4.1047  -15.9519 O   0  0  0  0  0  0  0  0  0  0  0  0
   18.0400   -4.4367  -14.3989 C   0  0  2  0  0  0  0  0  0  0  0  0
   16.9984   -5.3007  -13.8279 N   0  0  0  0  0  0  0  0  0  0  0  0
   17.9512   -3.0902  -13.8078 C   0  0  0  0  0  0  0  0  0  0  0  0
   18.8312   -2.2445  -14.0513 O   0  0  0  0  0  0  0  0  0  0  0  0
   16.8980   -2.7637  -12.9866 O   0  0  0  0  0  0  0  0  0  0  0  0
  2  1  1  0
  2  3  2  0
  4  3  1  0
  5  4  2  0
  6  5  1  0
  7  6  1  0
  7  8  1  6
  9  7  1  0
 10  9  2  0
 11 12  2  0
 11  5  1  0
 12  2  1  0
 13  9  1  0
 14 13  1  0
 15 16  1  0
 14 15  1  1
 16 17  1  0
 18 17  1  0
 19 18  1  0
 20 14  1  0
 20 21  2  0
 23 22  1  6
 24 23  1  0
 25 23  1  0
 25 26  1  1
 26 20  1  0
 27 25  1  0
 28 27  2  0
 29 27  1  0
M  END
$$$$
