YKT.pdb
     RDKit          3D

 29 29  0  0  1  0  0  0  0  0999 V2000
   24.8229  -20.5792   -7.4149 O   0  0  0  0  0  0  0  0  0  0  0  0
   24.8817  -20.4533   -8.7988 C   0  0  0  0  0  0  0  0  0  0  0  0
   23.7575  -20.1389   -9.5325 C   0  0  0  0  0  0  0  0  0  0  0  0
   23.7896  -20.0089  -10.8997 C   0  0  0  0  0  0  0  0  0  0  0  0
   24.9627  -20.1920  -11.5817 C   0  0  0  0  0  0  0  0  0  0  0  0
   24.9892  -20.0512  -13.0441 C   0  0  0  0  0  0  0  0  0  0  0  0
   24.6106  -21.3948  -13.6408 C   0  0  2  0  0  0  0  0  0  0  0  0
   25.7566  -22.1573  -14.0329 N   0  0  0  0  0  0  0  0  0  0  0  0
   23.7846  -21.1245  -14.8511 C   0  0  0  0  0  0  0  0  0  0  0  0
   24.3459  -20.8074  -15.9401 O   0  0  0  0  0  0  0  0  0  0  0  0
   26.1072  -20.5059  -10.8967 C   0  0  0  0  0  0  0  0  0  0  0  0
   26.0452  -20.6308   -9.5161 C   0  0  0  0  0  0  0  0  0  0  0  0
   22.3844  -21.2052  -14.8459 N   0  0  0  0  0  0  0  0  0  0  0  0
   21.5494  -20.9761  -15.9794 C   0  0  1  0  0  0  0  0  0  0  0  0
   20.8062  -22.2445  -16.3219 C   0  0  0  0  0  0  0  0  0  0  0  0
   21.6595  -23.4658  -16.3941 C   0  0  0  0  0  0  0  0  0  0  0  0
   22.5868  -23.4702  -17.5834 C   0  0  0  0  0  0  0  0  0  0  0  0
   23.3120  -24.7951  -17.6695 C   0  0  0  0  0  0  0  0  0  0  0  0
   24.2580  -24.7524  -18.7666 N   0  0  0  0  0  0  0  0  0  0  0  0
   20.5409  -19.9060  -15.7333 C   0  0  0  0  0  0  0  0  0  0  0  0
   19.8599  -19.9196  -14.6753 O   0  0  0  0  0  0  0  0  0  0  0  0
   21.0983  -16.0301  -15.9971 C   0  0  0  0  0  0  0  0  0  0  0  0
   19.9876  -16.4974  -16.9097 C   0  0  1  0  0  0  0  0  0  0  0  0
   20.6125  -16.8594  -18.1254 O   0  0  0  0  0  0  0  0  0  0  0  0
   19.3568  -17.7726  -16.3787 C   0  0  2  0  0  0  0  0  0  0  0  0
   20.3113  -18.8537  -16.6569 N   0  0  0  0  0  0  0  0  0  0  0  0
   18.1133  -17.9973  -17.1361 C   0  0  0  0  0  0  0  0  0  0  0  0
   18.0629  -18.8941  -17.9976 O   0  0  0  0  0  0  0  0  0  0  0  0
   17.0063  -17.2186  -16.8945 O   0  0  0  0  0  0  0  0  0  0  0  0
  2  1  1  0
  2  3  2  0
  4  3  1  0
  5  4  2  0
  6  5  1  0
  7  6  1  0
  7  8  1  6
  9  7  1  0
 10  9  2  0
 11 12  2  0
 11  5  1  0
 12  2  1  0
 13  9  1  0
 14 13  1  0
 15 16  1  0
 14 15  1  1
 16 17  1  0
 18 17  1  0
 19 18  1  0
 20 14  1  0
 20 21  2  0
 23 22  1  1
 24 23  1  0
 25 23  1  0
 25 26  1  6
 26 20  1  0
 27 25  1  0
 28 27  2  0
 29 27  1  0
M  END
$$$$
