YKT.pdb
     RDKit          3D

 29 29  0  0  1  0  0  0  0  0999 V2000
   28.3634  -10.9759  -16.2094 O   0  0  0  0  0  0  0  0  0  0  0  0
   27.1693  -10.3130  -15.9465 C   0  0  0  0  0  0  0  0  0  0  0  0
   26.3038  -10.7663  -14.9736 C   0  0  0  0  0  0  0  0  0  0  0  0
   25.1188  -10.1296  -14.6950 C   0  0  0  0  0  0  0  0  0  0  0  0
   24.7605   -9.0060  -15.3907 C   0  0  0  0  0  0  0  0  0  0  0  0
   23.4915   -8.3304  -15.0871 C   0  0  0  0  0  0  0  0  0  0  0  0
   22.3937   -9.0551  -15.8449 C   0  0  2  0  0  0  0  0  0  0  0  0
   22.5473   -8.9421  -17.2634 N   0  0  0  0  0  0  0  0  0  0  0  0
   21.0994   -8.4269  -15.4570 C   0  0  0  0  0  0  0  0  0  0  0  0
   20.6750   -7.4153  -16.0879 O   0  0  0  0  0  0  0  0  0  0  0  0
   25.5877   -8.5167  -16.3675 C   0  0  0  0  0  0  0  0  0  0  0  0
   26.7783   -9.1802  -16.6275 C   0  0  0  0  0  0  0  0  0  0  0  0
   20.3086   -8.9099  -14.4042 N   0  0  0  0  0  0  0  0  0  0  0  0
   19.0106   -8.4231  -14.0686 C   0  0  1  0  0  0  0  0  0  0  0  0
   18.0924   -9.5883  -13.7897 C   0  0  0  0  0  0  0  0  0  0  0  0
   16.6943   -9.2083  -13.4352 C   0  0  0  0  0  0  0  0  0  0  0  0
   15.8010  -10.3988  -13.1929 C   0  0  0  0  0  0  0  0  0  0  0  0
   14.3713   -9.9428  -13.0013 C   0  0  0  0  0  0  0  0  0  0  0  0
   13.5174  -11.1019  -12.8349 N   0  0  0  0  0  0  0  0  0  0  0  0
   19.0274   -7.5527  -12.8582 C   0  0  0  0  0  0  0  0  0  0  0  0
   19.8747   -7.7589  -11.9511 O   0  0  0  0  0  0  0  0  0  0  0  0
   17.1201   -3.5327  -10.5908 C   0  0  0  0  0  0  0  0  0  0  0  0
   17.1540   -4.4970  -11.7544 C   0  0  1  0  0  0  0  0  0  0  0  0
   17.6435   -3.7571  -12.8555 O   0  0  0  0  0  0  0  0  0  0  0  0
   18.1751   -5.5946  -11.5130 C   0  0  2  0  0  0  0  0  0  0  0  0
   18.1129   -6.4824  -12.6814 N   0  0  0  0  0  0  0  0  0  0  0  0
   17.7563   -6.3279  -10.3058 C   0  0  0  0  0  0  0  0  0  0  0  0
   18.1639   -5.9681   -9.1863 O   0  0  0  0  0  0  0  0  0  0  0  0
   16.9153   -7.4104  -10.4114 O   0  0  0  0  0  0  0  0  0  0  0  0
  2  1  1  0
  2  3  2  0
  4  3  1  0
  5  4  2  0
  6  5  1  0
  7  6  1  0
  7  8  1  6
  9  7  1  0
 10  9  2  0
 11 12  2  0
 11  5  1  0
 12  2  1  0
 13  9  1  0
 14 13  1  0
 15 16  1  0
 14 15  1  1
 16 17  1  0
 18 17  1  0
 19 18  1  0
 20 14  1  0
 20 21  2  0
 23 22  1  1
 24 23  1  0
 25 23  1  0
 25 26  1  6
 26 20  1  0
 27 25  1  0
 28 27  2  0
 29 27  1  0
M  END
$$$$
