YKT.pdb
     RDKit          3D

 29 29  0  0  1  0  0  0  0  0999 V2000
   15.2804  -17.9670  -17.6082 O   0  0  0  0  0  0  0  0  0  0  0  0
   16.0786  -16.8501  -17.3846 C   0  0  0  0  0  0  0  0  0  0  0  0
   17.0193  -16.8387  -16.3766 C   0  0  0  0  0  0  0  0  0  0  0  0
   17.8195  -15.7484  -16.1357 C   0  0  0  0  0  0  0  0  0  0  0  0
   17.7004  -14.6228  -16.9063 C   0  0  0  0  0  0  0  0  0  0  0  0
   18.5598  -13.4605  -16.6426 C   0  0  0  0  0  0  0  0  0  0  0  0
   19.7505  -13.5488  -17.5802 C   0  0  2  0  0  0  0  0  0  0  0  0
   20.6362  -14.6185  -17.2340 N   0  0  0  0  0  0  0  0  0  0  0  0
   20.4954  -12.2629  -17.4717 C   0  0  0  0  0  0  0  0  0  0  0  0
   21.3033  -12.0806  -16.5148 O   0  0  0  0  0  0  0  0  0  0  0  0
   16.7797  -14.5857  -17.9205 C   0  0  0  0  0  0  0  0  0  0  0  0
   15.9849  -15.7016  -18.1410 C   0  0  0  0  0  0  0  0  0  0  0  0
   20.3441  -11.2196  -18.3968 N   0  0  0  0  0  0  0  0  0  0  0  0
   21.0047   -9.9579  -18.3193 C   0  0  1  0  0  0  0  0  0  0  0  0
   21.0267   -9.3163  -19.6854 C   0  0  0  0  0  0  0  0  0  0  0  0
   21.7666   -8.0230  -19.7540 C   0  0  0  0  0  0  0  0  0  0  0  0
   21.8707   -7.4745  -21.1549 C   0  0  0  0  0  0  0  0  0  0  0  0
   22.6760   -6.1938  -21.1510 C   0  0  0  0  0  0  0  0  0  0  0  0
   22.8807   -5.7530  -22.5162 N   0  0  0  0  0  0  0  0  0  0  0  0
   20.3242   -9.0186  -17.3825 C   0  0  0  0  0  0  0  0  0  0  0  0
   19.1169   -8.7159  -17.5675 O   0  0  0  0  0  0  0  0  0  0  0  0
   19.2796   -9.3600  -14.0953 C   0  0  0  0  0  0  0  0  0  0  0  0
   20.2173   -8.1766  -14.0234 C   0  0  1  0  0  0  0  0  0  0  0  0
   21.5003   -8.7147  -13.7708 O   0  0  0  0  0  0  0  0  0  0  0  0
   20.3206   -7.4902  -15.3739 C   0  0  2  0  0  0  0  0  0  0  0  0
   20.9907   -8.4405  -16.2713 N   0  0  0  0  0  0  0  0  0  0  0  0
   21.1612   -6.2934  -15.1965 C   0  0  0  0  0  0  0  0  0  0  0  0
   22.3042   -6.2574  -15.6876 O   0  0  0  0  0  0  0  0  0  0  0  0
   20.6869   -5.2140  -14.4893 O   0  0  0  0  0  0  0  0  0  0  0  0
  2  1  1  0
  2  3  2  0
  4  3  1  0
  5  4  2  0
  6  5  1  0
  7  6  1  0
  7  8  1  1
  9  7  1  0
 10  9  2  0
 11 12  2  0
 11  5  1  0
 12  2  1  0
 13  9  1  0
 14 13  1  0
 15 16  1  0
 14 15  1  6
 16 17  1  0
 18 17  1  0
 19 18  1  0
 20 14  1  0
 20 21  2  0
 23 22  1  6
 24 23  1  0
 25 23  1  0
 25 26  1  6
 26 20  1  0
 27 25  1  0
 28 27  2  0
 29 27  1  0
M  END
$$$$
