YKT.pdb
     RDKit          3D

 29 29  0  0  1  0  0  0  0  0999 V2000
   28.5696  -18.5521   -4.0345 O   0  0  0  0  0  0  0  0  0  0  0  0
   28.1554  -18.9743   -5.2933 C   0  0  0  0  0  0  0  0  0  0  0  0
   28.5696  -20.1839   -5.8095 C   0  0  0  0  0  0  0  0  0  0  0  0
   28.1746  -20.6233   -7.0497 C   0  0  0  0  0  0  0  0  0  0  0  0
   27.3429  -19.8552   -7.8199 C   0  0  0  0  0  0  0  0  0  0  0  0
   26.9248  -20.3319   -9.1454 C   0  0  0  0  0  0  0  0  0  0  0  0
   25.4246  -20.5591   -9.0985 C   0  0  2  0  0  0  0  0  0  0  0  0
   25.0610  -21.5981   -8.1837 N   0  0  0  0  0  0  0  0  0  0  0  0
   24.9949  -20.9613  -10.4674 C   0  0  0  0  0  0  0  0  0  0  0  0
   25.4223  -22.0407  -10.9711 O   0  0  0  0  0  0  0  0  0  0  0  0
   26.9042  -18.6449   -7.3504 C   0  0  0  0  0  0  0  0  0  0  0  0
   27.3192  -18.2265   -6.0941 C   0  0  0  0  0  0  0  0  0  0  0  0
   24.1210  -20.1874  -11.2448 N   0  0  0  0  0  0  0  0  0  0  0  0
   23.5854  -20.5810  -12.5069 C   0  0  1  0  0  0  0  0  0  0  0  0
   22.0827  -20.4404  -12.4821 C   0  0  0  0  0  0  0  0  0  0  0  0
   21.3593  -21.5963  -11.8776 C   0  0  0  0  0  0  0  0  0  0  0  0
   19.8597  -21.4756  -11.9816 C   0  0  0  0  0  0  0  0  0  0  0  0
   19.2006  -22.7198  -11.4282 C   0  0  0  0  0  0  0  0  0  0  0  0
   17.7645  -22.5272  -11.3973 N   0  0  0  0  0  0  0  0  0  0  0  0
   24.1055  -19.7470  -13.6280 C   0  0  0  0  0  0  0  0  0  0  0  0
   24.0671  -18.4920  -13.5442 O   0  0  0  0  0  0  0  0  0  0  0  0
   27.4800  -19.7285  -15.1147 C   0  0  0  0  0  0  0  0  0  0  0  0
   26.5251  -19.9888  -16.2572 C   0  0  1  0  0  0  0  0  0  0  0  0
   26.4099  -21.3949  -16.3522 O   0  0  0  0  0  0  0  0  0  0  0  0
   25.1327  -19.4864  -15.9187 C   0  0  2  0  0  0  0  0  0  0  0  0
   24.6518  -20.3170  -14.8069 N   0  0  0  0  0  0  0  0  0  0  0  0
   24.2863  -19.7016  -17.1051 C   0  0  0  0  0  0  0  0  0  0  0  0
   23.3567  -20.5281  -17.0647 O   0  0  0  0  0  0  0  0  0  0  0  0
   24.5199  -18.9916  -18.2591 O   0  0  0  0  0  0  0  0  0  0  0  0
  2  1  1  0
  2  3  2  0
  4  3  1  0
  5  4  2  0
  6  5  1  0
  7  6  1  0
  7  8  1  1
  9  7  1  0
 10  9  2  0
 11 12  2  0
 11  5  1  0
 12  2  1  0
 13  9  1  0
 14 13  1  0
 15 16  1  0
 14 15  1  1
 16 17  1  0
 18 17  1  0
 19 18  1  0
 20 14  1  0
 20 21  2  0
 23 22  1  1
 24 23  1  0
 25 23  1  0
 25 26  1  1
 26 20  1  0
 27 25  1  0
 28 27  2  0
 29 27  1  0
M  END
$$$$
