SVT.pdb
     RDKit          3D

 21 20  0  0  1  0  0  0  0  0999 V2000
    6.9974  -16.4807   21.0626 O   0  0  0  0  0  0  0  0  0  0  0  0
    6.2455  -15.3611   21.3141 C   0  0  0  0  0  0  0  0  0  0  0  0
    7.0511  -14.0876   21.3954 C   0  0  2  0  0  0  0  0  0  0  0  0
    7.9171  -13.9020   20.2765 N   0  0  0  0  0  0  0  0  0  0  0  0
    7.8198  -13.9931   22.6621 C   0  0  0  0  0  0  0  0  0  0  0  0
    9.0470  -14.2301   22.6647 O   0  0  0  0  0  0  0  0  0  0  0  0
    7.3248  -11.4768   25.8878 C   0  0  0  0  0  0  0  0  0  0  0  0
    7.1013  -12.9414   26.2492 C   0  0  1  0  0  0  0  0  0  0  0  0
    5.6624  -13.1642   26.4969 C   0  0  0  0  0  0  0  0  0  0  0  0
    7.7580  -13.7607   25.1946 C   0  0  2  0  0  0  0  0  0  0  0  0
    7.1802  -13.6353   23.8804 N   0  0  0  0  0  0  0  0  0  0  0  0
    8.0298  -15.1704   25.5999 C   0  0  0  0  0  0  0  0  0  0  0  0
    7.0804  -15.9941   25.5518 O   0  0  0  0  0  0  0  0  0  0  0  0
   11.8241  -16.8756   25.3476 C   0  0  0  0  0  0  0  0  0  0  0  0
   10.5271  -17.6360   25.3467 C   0  0  1  0  0  0  0  0  0  0  0  0
   10.6917  -18.9917   25.6492 O   0  0  0  0  0  0  0  0  0  0  0  0
    9.5156  -17.0650   26.3275 C   0  0  2  0  0  0  0  0  0  0  0  0
    9.2807  -15.6626   26.0409 N   0  0  0  0  0  0  0  0  0  0  0  0
   10.1326  -17.1495   27.6737 C   0  0  0  0  0  0  0  0  0  0  0  0
   10.4234  -16.0944   28.2960 O   0  0  0  0  0  0  0  0  0  0  0  0
   10.4068  -18.3706   28.2847 O   0  0  0  0  0  0  0  0  0  0  0  0
  2  3  1  0
  2  1  1  0
  3  4  1  6
  5  6  2  0
  5  3  1  0
  8  7  1  6
  8 10  1  0
  9  8  1  0
 10 12  1  0
 10 11  1  6
 11  5  1  0
 12 18  1  0
 13 12  2  0
 15 16  1  0
 15 14  1  1
 17 15  1  0
 17 18  1  6
 19 21  1  0
 19 17  1  0
 20 19  2  0
M  END
$$$$
