SVT.pdb
     RDKit          3D

 21 20  0  0  1  0  0  0  0  0999 V2000
    6.0582  -18.9781   17.6979 O   0  0  0  0  0  0  0  0  0  0  0  0
    7.4189  -18.8241   17.6143 C   0  0  0  0  0  0  0  0  0  0  0  0
    7.8518  -17.4794   17.0835 C   0  0  2  0  0  0  0  0  0  0  0  0
    8.6242  -17.5733   15.8873 N   0  0  0  0  0  0  0  0  0  0  0  0
    8.5793  -16.6839   18.1045 C   0  0  0  0  0  0  0  0  0  0  0  0
    9.7806  -16.9306   18.3459 O   0  0  0  0  0  0  0  0  0  0  0  0
    6.4391  -13.7386   20.4255 C   0  0  0  0  0  0  0  0  0  0  0  0
    7.9061  -13.5142   20.0745 C   0  0  1  0  0  0  0  0  0  0  0  0
    8.5144  -12.6248   21.0846 C   0  0  0  0  0  0  0  0  0  0  0  0
    8.5204  -14.8542   19.8708 C   0  0  2  0  0  0  0  0  0  0  0  0
    7.9291  -15.6395   18.8171 N   0  0  0  0  0  0  0  0  0  0  0  0
    8.7504  -15.6166   21.1323 C   0  0  0  0  0  0  0  0  0  0  0  0
    7.7454  -16.0218   21.7711 O   0  0  0  0  0  0  0  0  0  0  0  0
    9.7809  -18.9433   22.0980 C   0  0  0  0  0  0  0  0  0  0  0  0
   10.7700  -17.9941   22.7154 C   0  0  1  0  0  0  0  0  0  0  0  0
   11.9297  -17.8426   21.9482 O   0  0  0  0  0  0  0  0  0  0  0  0
   10.1851  -16.6096   22.9440 C   0  0  2  0  0  0  0  0  0  0  0  0
   10.0196  -15.9234   21.6768 N   0  0  0  0  0  0  0  0  0  0  0  0
   11.1829  -15.8510   23.7369 C   0  0  0  0  0  0  0  0  0  0  0  0
   11.8443  -14.9285   23.1923 O   0  0  0  0  0  0  0  0  0  0  0  0
   11.4195  -16.1246   25.0818 O   0  0  0  0  0  0  0  0  0  0  0  0
  2  3  1  0
  2  1  1  0
  3  4  1  6
  5  6  2  0
  5  3  1  0
  8  7  1  1
  8 10  1  0
  9  8  1  0
 10 12  1  0
 10 11  1  6
 11  5  1  0
 12 18  1  0
 13 12  2  0
 15 16  1  0
 15 14  1  6
 17 15  1  0
 17 18  1  6
 19 21  1  0
 19 17  1  0
 20 19  2  0
M  END
$$$$
