SVT.pdb
     RDKit          3D

 21 20  0  0  1  0  0  0  0  0999 V2000
    7.3466  -19.0984   18.8154 O   0  0  0  0  0  0  0  0  0  0  0  0
    6.6711  -18.1455   18.0958 C   0  0  0  0  0  0  0  0  0  0  0  0
    7.5553  -17.0556   17.5410 C   0  0  2  0  0  0  0  0  0  0  0  0
    8.3691  -17.4954   16.4545 N   0  0  0  0  0  0  0  0  0  0  0  0
    8.3957  -16.4290   18.5924 C   0  0  0  0  0  0  0  0  0  0  0  0
    9.5801  -16.7980   18.7447 O   0  0  0  0  0  0  0  0  0  0  0  0
    7.8639  -12.5862   19.7532 C   0  0  0  0  0  0  0  0  0  0  0  0
    8.0004  -13.4853   20.9773 C   0  0  1  0  0  0  0  0  0  0  0  0
    6.7073  -13.5324   21.6894 C   0  0  0  0  0  0  0  0  0  0  0  0
    8.5843  -14.7737   20.5148 C   0  0  2  0  0  0  0  0  0  0  0  0
    7.8732  -15.4097   19.4348 N   0  0  0  0  0  0  0  0  0  0  0  0
    8.9575  -15.7043   21.6194 C   0  0  0  0  0  0  0  0  0  0  0  0
    8.0387  -16.1511   22.3533 O   0  0  0  0  0  0  0  0  0  0  0  0
   10.2508  -19.2051   21.8034 C   0  0  0  0  0  0  0  0  0  0  0  0
   11.2332  -18.2935   22.4848 C   0  0  1  0  0  0  0  0  0  0  0  0
   12.2896  -17.9121   21.6510 O   0  0  0  0  0  0  0  0  0  0  0  0
   10.5824  -17.0251   23.0128 C   0  0  2  0  0  0  0  0  0  0  0  0
   10.2743  -16.1291   21.9146 N   0  0  0  0  0  0  0  0  0  0  0  0
   11.5903  -16.3536   23.8691 C   0  0  0  0  0  0  0  0  0  0  0  0
   12.1136  -15.2732   23.4896 O   0  0  0  0  0  0  0  0  0  0  0  0
   11.9857  -16.8810   25.0958 O   0  0  0  0  0  0  0  0  0  0  0  0
  2  3  1  0
  2  1  1  0
  3  4  1  6
  5  6  2  0
  5  3  1  0
  8  7  1  6
  8 10  1  0
  9  8  1  0
 10 12  1  0
 10 11  1  6
 11  5  1  0
 12 18  1  0
 13 12  2  0
 15 16  1  0
 15 14  1  6
 17 15  1  0
 17 18  1  6
 19 21  1  0
 19 17  1  0
 20 19  2  0
M  END
$$$$
