SVT.pdb
     RDKit          3D

 21 20  0  0  1  0  0  0  0  0999 V2000
    5.9910  -19.2164   17.6620 O   0  0  0  0  0  0  0  0  0  0  0  0
    6.9788  -18.6449   18.4235 C   0  0  0  0  0  0  0  0  0  0  0  0
    7.5849  -17.4059   17.8112 C   0  0  2  0  0  0  0  0  0  0  0  0
    8.3165  -17.6741   16.6157 N   0  0  0  0  0  0  0  0  0  0  0  0
    8.4327  -16.6630   18.7774 C   0  0  0  0  0  0  0  0  0  0  0  0
    9.6108  -17.0276   18.9805 O   0  0  0  0  0  0  0  0  0  0  0  0
    7.8214  -12.7351   19.5762 C   0  0  0  0  0  0  0  0  0  0  0  0
    8.0256  -13.5029   20.8779 C   0  0  1  0  0  0  0  0  0  0  0  0
    6.7636  -13.4980   21.6452 C   0  0  0  0  0  0  0  0  0  0  0  0
    8.6162  -14.8220   20.5234 C   0  0  2  0  0  0  0  0  0  0  0  0
    7.9245  -15.5365   19.4804 N   0  0  0  0  0  0  0  0  0  0  0  0
    8.9672  -15.6680   21.7009 C   0  0  0  0  0  0  0  0  0  0  0  0
    8.0418  -16.0114   22.4806 O   0  0  0  0  0  0  0  0  0  0  0  0
    9.8003  -19.1618   22.3126 C   0  0  0  0  0  0  0  0  0  0  0  0
   10.9684  -18.3298   22.7640 C   0  0  1  0  0  0  0  0  0  0  0  0
   11.9570  -18.2031   21.7825 O   0  0  0  0  0  0  0  0  0  0  0  0
   10.5575  -16.9287   23.1870 C   0  0  2  0  0  0  0  0  0  0  0  0
   10.2700  -16.1195   22.0180 N   0  0  0  0  0  0  0  0  0  0  0  0
   11.7296  -16.3285   23.8695 C   0  0  0  0  0  0  0  0  0  0  0  0
   12.3671  -15.3957   23.3141 O   0  0  0  0  0  0  0  0  0  0  0  0
   12.1584  -16.7645   25.1207 O   0  0  0  0  0  0  0  0  0  0  0  0
  2  3  1  0
  2  1  1  0
  3  4  1  6
  5  6  2  0
  5  3  1  0
  8  7  1  6
  8 10  1  0
  9  8  1  0
 10 12  1  0
 10 11  1  6
 11  5  1  0
 12 18  1  0
 13 12  2  0
 15 16  1  0
 15 14  1  6
 17 15  1  0
 17 18  1  6
 19 21  1  0
 19 17  1  0
 20 19  2  0
M  END
$$$$
