SVT.pdb
     RDKit          3D

 21 20  0  0  1  0  0  0  0  0999 V2000
    5.2432  -17.5301   22.2409 O   0  0  0  0  0  0  0  0  0  0  0  0
    6.5365  -17.1693   22.5222 C   0  0  0  0  0  0  0  0  0  0  0  0
    6.8950  -15.7741   22.0724 C   0  0  2  0  0  0  0  0  0  0  0  0
    7.5034  -15.7422   20.7820 N   0  0  0  0  0  0  0  0  0  0  0  0
    7.7500  -15.0708   23.0617 C   0  0  0  0  0  0  0  0  0  0  0  0
    8.9935  -15.1790   22.9982 O   0  0  0  0  0  0  0  0  0  0  0  0
    5.8133  -13.0211   26.3170 C   0  0  0  0  0  0  0  0  0  0  0  0
    7.2447  -12.6475   25.9466 C   0  0  1  0  0  0  0  0  0  0  0  0
    7.9263  -12.1036   27.1386 C   0  0  0  0  0  0  0  0  0  0  0  0
    7.8514  -13.8325   25.2816 C   0  0  2  0  0  0  0  0  0  0  0  0
    7.1750  -14.2709   24.0870 N   0  0  0  0  0  0  0  0  0  0  0  0
    8.2020  -14.9417   26.2155 C   0  0  0  0  0  0  0  0  0  0  0  0
    7.2790  -15.7024   26.6048 O   0  0  0  0  0  0  0  0  0  0  0  0
   10.4215  -17.8989   25.6225 C   0  0  0  0  0  0  0  0  0  0  0  0
   10.8990  -17.1984   26.8641 C   0  0  1  0  0  0  0  0  0  0  0  0
   11.9874  -16.3525   26.6265 O   0  0  0  0  0  0  0  0  0  0  0  0
    9.8074  -16.3701   27.5227 C   0  0  2  0  0  0  0  0  0  0  0  0
    9.5012  -15.2106   26.7068 N   0  0  0  0  0  0  0  0  0  0  0  0
   10.3617  -15.8793   28.8079 C   0  0  0  0  0  0  0  0  0  0  0  0
   10.5593  -14.6471   28.9741 O   0  0  0  0  0  0  0  0  0  0  0  0
   10.6766  -16.7431   29.8539 O   0  0  0  0  0  0  0  0  0  0  0  0
  2  3  1  0
  2  1  1  0
  3  4  1  6
  5  6  2  0
  5  3  1  0
  8  7  1  1
  8 10  1  0
  9  8  1  0
 10 12  1  0
 10 11  1  6
 11  5  1  0
 12 18  1  0
 13 12  2  0
 15 16  1  0
 15 14  1  6
 17 15  1  0
 17 18  1  6
 19 21  1  0
 19 17  1  0
 20 19  2  0
M  END
$$$$
