SVT.pdb
     RDKit          3D

 21 20  0  0  1  0  0  0  0  0999 V2000
    7.0762  -16.5966   21.4919 O   0  0  0  0  0  0  0  0  0  0  0  0
    6.3570  -15.4335   21.3820 C   0  0  0  0  0  0  0  0  0  0  0  0
    7.1920  -14.1827   21.5078 C   0  0  2  0  0  0  0  0  0  0  0  0
    8.0777  -13.9891   20.4058 N   0  0  0  0  0  0  0  0  0  0  0  0
    7.9450  -14.1402   22.7866 C   0  0  0  0  0  0  0  0  0  0  0  0
    9.1641  -14.4156   22.8006 O   0  0  0  0  0  0  0  0  0  0  0  0
    7.4651  -11.5609   25.8705 C   0  0  0  0  0  0  0  0  0  0  0  0
    7.2727  -12.9980   26.3430 C   0  0  1  0  0  0  0  0  0  0  0  0
    5.8495  -13.2113   26.6754 C   0  0  0  0  0  0  0  0  0  0  0  0
    7.8853  -13.8850   25.3170 C   0  0  2  0  0  0  0  0  0  0  0  0
    7.2994  -13.7895   24.0038 N   0  0  0  0  0  0  0  0  0  0  0  0
    8.1048  -15.2870   25.7770 C   0  0  0  0  0  0  0  0  0  0  0  0
    7.1108  -16.0562   25.8277 O   0  0  0  0  0  0  0  0  0  0  0  0
    9.8670  -18.1505   24.2735 C   0  0  0  0  0  0  0  0  0  0  0  0
   10.4647  -17.9282   25.6350 C   0  0  1  0  0  0  0  0  0  0  0  0
   11.6546  -17.1941   25.5930 O   0  0  0  0  0  0  0  0  0  0  0  0
    9.5138  -17.2100   26.5790 C   0  0  2  0  0  0  0  0  0  0  0  0
    9.3521  -15.8285   26.1674 N   0  0  0  0  0  0  0  0  0  0  0  0
   10.1603  -17.2065   27.9139 C   0  0  0  0  0  0  0  0  0  0  0  0
   10.4902  -16.1145   28.4465 O   0  0  0  0  0  0  0  0  0  0  0  0
   10.4201  -18.3837   28.6113 O   0  0  0  0  0  0  0  0  0  0  0  0
  2  3  1  0
  2  1  1  0
  3  4  1  6
  5  6  2  0
  5  3  1  0
  8  7  1  6
  8 10  1  0
  9  8  1  0
 10 12  1  0
 10 11  1  6
 11  5  1  0
 12 18  1  0
 13 12  2  0
 15 16  1  0
 15 14  1  6
 17 15  1  0
 17 18  1  6
 19 21  1  0
 19 17  1  0
 20 19  2  0
M  END
$$$$
