SVT.pdb
     RDKit          3D

 21 20  0  0  1  0  0  0  0  0999 V2000
    4.9402  -16.8980   20.5723 O   0  0  0  0  0  0  0  0  0  0  0  0
    5.8999  -16.5328   21.4821 C   0  0  0  0  0  0  0  0  0  0  0  0
    6.3751  -15.1082   21.3329 C   0  0  2  0  0  0  0  0  0  0  0  0
    6.8455  -14.8110   20.0189 N   0  0  0  0  0  0  0  0  0  0  0  0
    7.4066  -14.7552   22.3407 C   0  0  0  0  0  0  0  0  0  0  0  0
    8.6185  -14.8752   22.0593 O   0  0  0  0  0  0  0  0  0  0  0  0
    7.3303  -11.8228   25.0882 C   0  0  0  0  0  0  0  0  0  0  0  0
    7.4915  -13.1686   25.7870 C   0  0  1  0  0  0  0  0  0  0  0  0
    6.2623  -13.4683   26.5489 C   0  0  0  0  0  0  0  0  0  0  0  0
    7.9252  -14.1510   24.7567 C   0  0  2  0  0  0  0  0  0  0  0  0
    7.0376  -14.2798   23.6288 N   0  0  0  0  0  0  0  0  0  0  0  0
    8.3819  -15.4569   25.3148 C   0  0  0  0  0  0  0  0  0  0  0  0
    7.5155  -16.2293   25.7996 O   0  0  0  0  0  0  0  0  0  0  0  0
   10.5926  -18.1547   23.5382 C   0  0  0  0  0  0  0  0  0  0  0  0
   11.1461  -17.8280   24.8973 C   0  0  1  0  0  0  0  0  0  0  0  0
   12.2308  -16.9463   24.8449 O   0  0  0  0  0  0  0  0  0  0  0  0
   10.1030  -17.2200   25.8211 C   0  0  2  0  0  0  0  0  0  0  0  0
    9.7242  -15.9028   25.3461 N   0  0  0  0  0  0  0  0  0  0  0  0
   10.7523  -17.0493   27.1436 C   0  0  0  0  0  0  0  0  0  0  0  0
   10.9357  -15.8927   27.6060 O   0  0  0  0  0  0  0  0  0  0  0  0
   11.1735  -18.1366   27.9050 O   0  0  0  0  0  0  0  0  0  0  0  0
  2  3  1  0
  2  1  1  0
  3  4  1  6
  5  6  2  0
  5  3  1  0
  8  7  1  6
  8 10  1  0
  9  8  1  0
 10 12  1  0
 10 11  1  6
 11  5  1  0
 12 18  1  0
 13 12  2  0
 15 16  1  0
 15 14  1  6
 17 15  1  0
 17 18  1  6
 19 21  1  0
 19 17  1  0
 20 19  2  0
M  END
$$$$
