SVT.pdb
     RDKit          3D

 21 20  0  0  1  0  0  0  0  0999 V2000
    8.3085  -18.3857   17.1139 O   0  0  0  0  0  0  0  0  0  0  0  0
    7.8583  -17.3984   16.2744 C   0  0  0  0  0  0  0  0  0  0  0  0
    8.8637  -16.3009   16.0248 C   0  0  2  0  0  0  0  0  0  0  0  0
    9.9430  -16.7122   15.1868 N   0  0  0  0  0  0  0  0  0  0  0  0
    9.3853  -15.7233   17.2891 C   0  0  0  0  0  0  0  0  0  0  0  0
   10.5307  -16.0273   17.6865 O   0  0  0  0  0  0  0  0  0  0  0  0
    6.7364  -13.4842   19.8265 C   0  0  0  0  0  0  0  0  0  0  0  0
    8.2010  -13.0663   19.7490 C   0  0  1  0  0  0  0  0  0  0  0  0
    8.5820  -12.4025   21.0121 C   0  0  0  0  0  0  0  0  0  0  0  0
    8.9797  -14.2644   19.3333 C   0  0  2  0  0  0  0  0  0  0  0  0
    8.5995  -14.8243   18.0610 N   0  0  0  0  0  0  0  0  0  0  0  0
    9.1527  -15.2819   20.4104 C   0  0  0  0  0  0  0  0  0  0  0  0
    8.1217  -15.8284   20.8801 O   0  0  0  0  0  0  0  0  0  0  0  0
   10.7739  -18.7070   20.5614 C   0  0  0  0  0  0  0  0  0  0  0  0
   11.4173  -17.8061   21.5786 C   0  0  1  0  0  0  0  0  0  0  0  0
   12.6112  -17.2372   21.1229 O   0  0  0  0  0  0  0  0  0  0  0  0
   10.5036  -16.6716   22.0137 C   0  0  2  0  0  0  0  0  0  0  0  0
   10.3943  -15.6861   20.9550 N   0  0  0  0  0  0  0  0  0  0  0  0
   11.1602  -16.0151   23.1703 C   0  0  0  0  0  0  0  0  0  0  0  0
   11.6569  -14.8658   23.0383 O   0  0  0  0  0  0  0  0  0  0  0  0
   11.2495  -16.6314   24.4160 O   0  0  0  0  0  0  0  0  0  0  0  0
  2  3  1  0
  2  1  1  0
  3  4  1  1
  5  6  2  0
  5  3  1  0
  8  7  1  1
  8 10  1  0
  9  8  1  0
 10 12  1  0
 10 11  1  6
 11  5  1  0
 12 18  1  0
 13 12  2  0
 15 16  1  0
 15 14  1  6
 17 15  1  0
 17 18  1  6
 19 21  1  0
 19 17  1  0
 20 19  2  0
M  END
$$$$
