SVT.pdb
     RDKit          3D

 21 20  0  0  1  0  0  0  0  0999 V2000
    6.7363  -17.2281   20.7064 O   0  0  0  0  0  0  0  0  0  0  0  0
    7.2240  -16.6742   21.8629 C   0  0  0  0  0  0  0  0  0  0  0  0
    7.7072  -15.2532   21.7053 C   0  0  2  0  0  0  0  0  0  0  0  0
    8.5627  -15.0760   20.5770 N   0  0  0  0  0  0  0  0  0  0  0  0
    8.3671  -14.7481   22.9356 C   0  0  0  0  0  0  0  0  0  0  0  0
    9.5971  -14.9058   23.0918 O   0  0  0  0  0  0  0  0  0  0  0  0
    5.9284  -13.1829   26.1749 C   0  0  0  0  0  0  0  0  0  0  0  0
    7.3518  -12.6795   25.9598 C   0  0  1  0  0  0  0  0  0  0  0  0
    7.8891  -12.1852   27.2437 C   0  0  0  0  0  0  0  0  0  0  0  0
    8.1015  -13.7612   25.2652 C   0  0  2  0  0  0  0  0  0  0  0  0
    7.6193  -14.0836   23.9460 N   0  0  0  0  0  0  0  0  0  0  0  0
    8.3724  -14.9569   26.1151 C   0  0  0  0  0  0  0  0  0  0  0  0
    7.4170  -15.7368   26.3621 O   0  0  0  0  0  0  0  0  0  0  0  0
   10.4012  -18.0092   25.5730 C   0  0  0  0  0  0  0  0  0  0  0  0
   10.8893  -17.3656   26.8410 C   0  0  1  0  0  0  0  0  0  0  0  0
   12.0408  -16.5946   26.6509 O   0  0  0  0  0  0  0  0  0  0  0  0
    9.8393  -16.4738   27.4840 C   0  0  2  0  0  0  0  0  0  0  0  0
    9.6288  -15.2888   26.6745 N   0  0  0  0  0  0  0  0  0  0  0  0
   10.3943  -16.0331   28.7869 C   0  0  0  0  0  0  0  0  0  0  0  0
   10.5726  -16.8733   29.7074 O   0  0  0  0  0  0  0  0  0  0  0  0
   10.7310  -14.7046   29.0344 O   0  0  0  0  0  0  0  0  0  0  0  0
  2  3  1  0
  2  1  1  0
  3  4  1  6
  5  6  2  0
  5  3  1  0
  8  7  1  1
  8 10  1  0
  9  8  1  0
 10 12  1  0
 10 11  1  6
 11  5  1  0
 12 18  1  0
 13 12  2  0
 15 16  1  0
 15 14  1  6
 17 15  1  0
 17 18  1  6
 19 21  1  0
 19 17  1  0
 20 19  2  0
M  END
$$$$
