SVT.pdb
     RDKit          3D

 21 20  0  0  1  0  0  0  0  0999 V2000
    6.8938  -16.8664   21.4517 O   0  0  0  0  0  0  0  0  0  0  0  0
    6.3014  -15.6386   21.2983 C   0  0  0  0  0  0  0  0  0  0  0  0
    7.2743  -14.4849   21.2958 C   0  0  2  0  0  0  0  0  0  0  0  0
    8.1898  -14.5286   20.2022 N   0  0  0  0  0  0  0  0  0  0  0  0
    8.0115  -14.3734   22.5797 C   0  0  0  0  0  0  0  0  0  0  0  0
    9.1816  -14.8045   22.6651 O   0  0  0  0  0  0  0  0  0  0  0  0
    5.8962  -13.1483   26.1688 C   0  0  0  0  0  0  0  0  0  0  0  0
    7.3637  -12.7796   25.9785 C   0  0  1  0  0  0  0  0  0  0  0  0
    7.9949  -12.6082   27.3027 C   0  0  0  0  0  0  0  0  0  0  0  0
    7.9544  -13.7851   25.0540 C   0  0  2  0  0  0  0  0  0  0  0  0
    7.4058  -13.7809   23.7215 N   0  0  0  0  0  0  0  0  0  0  0  0
    8.0906  -15.1485   25.6439 C   0  0  0  0  0  0  0  0  0  0  0  0
    7.0590  -15.8634   25.7278 O   0  0  0  0  0  0  0  0  0  0  0  0
    9.6785  -18.1735   24.3974 C   0  0  0  0  0  0  0  0  0  0  0  0
   10.2881  -17.9013   25.7445 C   0  0  1  0  0  0  0  0  0  0  0  0
   11.5224  -17.2484   25.6607 O   0  0  0  0  0  0  0  0  0  0  0  0
    9.3842  -17.0643   26.6353 C   0  0  2  0  0  0  0  0  0  0  0  0
    9.2972  -15.7096   26.1242 N   0  0  0  0  0  0  0  0  0  0  0  0
   10.0376  -16.9999   27.9652 C   0  0  0  0  0  0  0  0  0  0  0  0
   10.4848  -15.9024   28.3901 O   0  0  0  0  0  0  0  0  0  0  0  0
   10.1774  -18.1248   28.7743 O   0  0  0  0  0  0  0  0  0  0  0  0
  2  3  1  0
  2  1  1  0
  3  4  1  6
  5  6  2  0
  5  3  1  0
  8  7  1  1
  8 10  1  0
  9  8  1  0
 10 12  1  0
 10 11  1  6
 11  5  1  0
 12 18  1  0
 13 12  2  0
 15 16  1  0
 15 14  1  6
 17 15  1  0
 17 18  1  6
 19 21  1  0
 19 17  1  0
 20 19  2  0
M  END
$$$$
