SVT.pdb
     RDKit          3D

 21 20  0  0  1  0  0  0  0  0999 V2000
    6.0946  -19.2807   16.6870 O   0  0  0  0  0  0  0  0  0  0  0  0
    6.9811  -18.6879   17.5499 C   0  0  0  0  0  0  0  0  0  0  0  0
    7.6705  -17.4722   16.9805 C   0  0  2  0  0  0  0  0  0  0  0  0
    8.5201  -17.7781   15.8756 N   0  0  0  0  0  0  0  0  0  0  0  0
    8.4239  -16.7211   18.0162 C   0  0  0  0  0  0  0  0  0  0  0  0
    9.6153  -17.0143   18.2546 O   0  0  0  0  0  0  0  0  0  0  0  0
    6.3355  -13.8764   20.4583 C   0  0  0  0  0  0  0  0  0  0  0  0
    7.7942  -13.6052   20.1056 C   0  0  1  0  0  0  0  0  0  0  0  0
    8.4000  -12.7701   21.1624 C   0  0  0  0  0  0  0  0  0  0  0  0
    8.4281  -14.9192   19.8119 C   0  0  2  0  0  0  0  0  0  0  0  0
    7.8098  -15.6670   18.7465 N   0  0  0  0  0  0  0  0  0  0  0  0
    8.7276  -15.7353   21.0242 C   0  0  0  0  0  0  0  0  0  0  0  0
    7.7616  -16.2411   21.6512 O   0  0  0  0  0  0  0  0  0  0  0  0
   10.1767  -19.0533   21.7339 C   0  0  0  0  0  0  0  0  0  0  0  0
   11.0257  -18.0216   22.4231 C   0  0  1  0  0  0  0  0  0  0  0  0
   12.1500  -17.6555   21.6756 O   0  0  0  0  0  0  0  0  0  0  0  0
   10.2540  -16.7521   22.7455 C   0  0  2  0  0  0  0  0  0  0  0  0
   10.0228  -15.9885   21.5341 N   0  0  0  0  0  0  0  0  0  0  0  0
   11.1234  -15.9375   23.6289 C   0  0  0  0  0  0  0  0  0  0  0  0
   11.6797  -14.9022   23.1773 O   0  0  0  0  0  0  0  0  0  0  0  0
   11.3513  -16.2797   24.9595 O   0  0  0  0  0  0  0  0  0  0  0  0
  2  3  1  0
  2  1  1  0
  3  4  1  6
  5  6  2  0
  5  3  1  0
  8  7  1  1
  8 10  1  0
  9  8  1  0
 10 12  1  0
 10 11  1  6
 11  5  1  0
 12 18  1  0
 13 12  2  0
 15 16  1  0
 15 14  1  6
 17 15  1  0
 17 18  1  6
 19 21  1  0
 19 17  1  0
 20 19  2  0
M  END
$$$$
