SVT.pdb
     RDKit          3D

 21 20  0  0  1  0  0  0  0  0999 V2000
    7.2649  -18.9266   19.2007 O   0  0  0  0  0  0  0  0  0  0  0  0
    7.8211  -18.8769   17.9476 C   0  0  0  0  0  0  0  0  0  0  0  0
    7.9808  -17.4786   17.4030 C   0  0  2  0  0  0  0  0  0  0  0  0
    8.6741  -17.4403   16.1564 N   0  0  0  0  0  0  0  0  0  0  0  0
    8.6301  -16.5694   18.3808 C   0  0  0  0  0  0  0  0  0  0  0  0
    9.8703  -16.6019   18.5327 O   0  0  0  0  0  0  0  0  0  0  0  0
    8.3209  -12.8315   21.5861 C   0  0  0  0  0  0  0  0  0  0  0  0
    7.5779  -13.6094   20.5051 C   0  0  1  0  0  0  0  0  0  0  0  0
    7.2916  -12.7077   19.3709 C   0  0  0  0  0  0  0  0  0  0  0  0
    8.3651  -14.8418   20.2292 C   0  0  2  0  0  0  0  0  0  0  0  0
    7.8608  -15.6562   19.1526 N   0  0  0  0  0  0  0  0  0  0  0  0
    8.7293  -15.6176   21.4502 C   0  0  0  0  0  0  0  0  0  0  0  0
    7.8177  -15.8892   22.2733 O   0  0  0  0  0  0  0  0  0  0  0  0
    9.7745  -19.1222   21.9257 C   0  0  0  0  0  0  0  0  0  0  0  0
   10.8450  -18.2454   22.5137 C   0  0  1  0  0  0  0  0  0  0  0  0
   11.9151  -18.0329   21.6383 O   0  0  0  0  0  0  0  0  0  0  0  0
   10.3172  -16.8833   22.9346 C   0  0  2  0  0  0  0  0  0  0  0  0
   10.0303  -16.0767   21.7637 N   0  0  0  0  0  0  0  0  0  0  0  0
   11.4103  -16.2149   23.6817 C   0  0  0  0  0  0  0  0  0  0  0  0
   11.7138  -16.6137   24.8367 O   0  0  0  0  0  0  0  0  0  0  0  0
   12.1247  -15.1463   23.1458 O   0  0  0  0  0  0  0  0  0  0  0  0
  2  3  1  0
  2  1  1  0
  3  4  1  6
  5  6  2  0
  5  3  1  0
  8  7  1  1
  8 10  1  0
  9  8  1  0
 10 12  1  0
 10 11  1  6
 11  5  1  0
 12 18  1  0
 13 12  2  0
 15 16  1  0
 15 14  1  6
 17 15  1  0
 17 18  1  6
 19 21  1  0
 19 17  1  0
 20 19  2  0
M  END
$$$$
