SVT.pdb
     RDKit          3D

 21 20  0  0  1  0  0  0  0  0999 V2000
    6.6603  -16.4892   20.1610 O   0  0  0  0  0  0  0  0  0  0  0  0
    6.6537  -15.9218   21.4101 C   0  0  0  0  0  0  0  0  0  0  0  0
    7.2298  -14.5276   21.4529 C   0  0  2  0  0  0  0  0  0  0  0  0
    8.0557  -14.2298   20.3280 N   0  0  0  0  0  0  0  0  0  0  0  0
    7.9661  -14.2662   22.7153 C   0  0  0  0  0  0  0  0  0  0  0  0
    9.2071  -14.4103   22.7534 O   0  0  0  0  0  0  0  0  0  0  0  0
    7.4283  -11.4875   25.5851 C   0  0  0  0  0  0  0  0  0  0  0  0
    7.2019  -12.8820   26.1593 C   0  0  1  0  0  0  0  0  0  0  0  0
    5.7671  -13.0517   26.4657 C   0  0  0  0  0  0  0  0  0  0  0  0
    7.8299  -13.8521   25.2215 C   0  0  2  0  0  0  0  0  0  0  0  0
    7.2798  -13.8520   23.8895 N   0  0  0  0  0  0  0  0  0  0  0  0
    8.0193  -15.2166   25.7937 C   0  0  0  0  0  0  0  0  0  0  0  0
    6.9962  -15.9162   26.0086 O   0  0  0  0  0  0  0  0  0  0  0  0
    9.7405  -18.2461   24.3740 C   0  0  0  0  0  0  0  0  0  0  0  0
   10.3411  -17.9437   25.7187 C   0  0  1  0  0  0  0  0  0  0  0  0
   11.5409  -17.2301   25.6300 O   0  0  0  0  0  0  0  0  0  0  0  0
    9.4002  -17.1528   26.6132 C   0  0  2  0  0  0  0  0  0  0  0  0
    9.2685  -15.7948   26.1205 N   0  0  0  0  0  0  0  0  0  0  0  0
   10.0397  -17.0840   27.9496 C   0  0  0  0  0  0  0  0  0  0  0  0
   10.4464  -15.9779   28.3925 O   0  0  0  0  0  0  0  0  0  0  0  0
   10.2100  -18.2141   28.7455 O   0  0  0  0  0  0  0  0  0  0  0  0
  2  3  1  0
  2  1  1  0
  3  4  1  6
  5  6  2  0
  5  3  1  0
  8  7  1  6
  8 10  1  0
  9  8  1  0
 10 12  1  0
 10 11  1  6
 11  5  1  0
 12 18  1  0
 13 12  2  0
 15 16  1  0
 15 14  1  6
 17 15  1  0
 17 18  1  6
 19 21  1  0
 19 17  1  0
 20 19  2  0
M  END
$$$$
