GGV.pdb
     RDKit          3D

 16 15  0  0  1  0  0  0  0  0999 V2000
    7.5756  -13.0211   17.9674 N   0  0  0  0  0  0  0  0  0  0  0  0
    7.4626  -12.7167   19.3672 C   0  0  0  0  0  0  0  0  0  0  0  0
    7.8884  -13.8877   20.1684 C   0  0  0  0  0  0  0  0  0  0  0  0
    7.9897  -15.0169   19.6204 O   0  0  0  0  0  0  0  0  0  0  0  0
    8.1945  -13.7923   21.5581 N   0  0  0  0  0  0  0  0  0  0  0  0
    8.8066  -14.9004   22.2165 C   0  0  0  0  0  0  0  0  0  0  0  0
    8.9680  -14.6440   23.6742 C   0  0  0  0  0  0  0  0  0  0  0  0
   10.0628  -14.9500   24.2570 O   0  0  0  0  0  0  0  0  0  0  0  0
    5.8036  -13.2451   26.2297 C   0  0  0  0  0  0  0  0  0  0  0  0
    7.2380  -12.8181   26.4474 C   0  0  2  0  0  0  0  0  0  0  0  0
    7.4615  -11.4992   25.7707 C   0  0  0  0  0  0  0  0  0  0  0  0
    8.1316  -13.9141   25.9285 C   0  0  2  0  0  0  0  0  0  0  0  0
    7.9671  -14.0717   24.4723 N   0  0  0  0  0  0  0  0  0  0  0  0
    7.8689  -15.2026   26.6127 C   0  0  0  0  0  0  0  0  0  0  0  0
    8.3689  -15.5089   27.8658 O   0  0  0  0  0  0  0  0  0  0  0  0
    7.1627  -16.0618   26.0395 O   0  0  0  0  0  0  0  0  0  0  0  0
  2  1  1  0
  3  2  1  0
  3  5  1  0
  4  3  2  0
  6  5  1  0
  7  6  1  0
  8  7  2  0
 10  9  1  6
 10 11  1  0
 10 12  1  0
 12 13  1  6
 13  7  1  0
 14 12  1  0
 14 15  1  0
 16 14  2  0
M  END
$$$$
