GGV.pdb
     RDKit          3D

 16 15  0  0  1  0  0  0  0  0999 V2000
    8.9803  -18.3672   19.0978 N   0  0  0  0  0  0  0  0  0  0  0  0
    8.9555  -16.9318   19.1593 C   0  0  0  0  0  0  0  0  0  0  0  0
    7.9580  -16.4925   20.1626 C   0  0  0  0  0  0  0  0  0  0  0  0
    6.7568  -16.8530   20.0495 O   0  0  0  0  0  0  0  0  0  0  0  0
    8.3029  -15.6645   21.2714 N   0  0  0  0  0  0  0  0  0  0  0  0
    7.2939  -15.3009   22.2125 C   0  0  0  0  0  0  0  0  0  0  0  0
    7.8720  -14.5648   23.3705 C   0  0  0  0  0  0  0  0  0  0  0  0
    9.1393  -14.4509   23.4840 O   0  0  0  0  0  0  0  0  0  0  0  0
    7.4196  -11.2501   26.9472 C   0  0  0  0  0  0  0  0  0  0  0  0
    6.7070  -12.1321   25.9465 C   0  0  2  0  0  0  0  0  0  0  0  0
    5.5080  -12.7455   26.6051 C   0  0  0  0  0  0  0  0  0  0  0  0
    7.6951  -13.1496   25.4394 C   0  0  2  0  0  0  0  0  0  0  0  0
    7.0929  -13.9712   24.3740 N   0  0  0  0  0  0  0  0  0  0  0  0
    8.1932  -14.0187   26.5320 C   0  0  0  0  0  0  0  0  0  0  0  0
    9.1788  -13.6265   27.4201 O   0  0  0  0  0  0  0  0  0  0  0  0
    7.7068  -15.1635   26.6674 O   0  0  0  0  0  0  0  0  0  0  0  0
  2  1  1  0
  3  2  1  0
  3  5  1  0
  4  3  2  0
  6  5  1  0
  7  6  1  0
  8  7  2  0
 10  9  1  1
 10 11  1  0
 10 12  1  0
 12 13  1  6
 13  7  1  0
 14 12  1  0
 14 15  1  0
 16 14  2  0
M  END
$$$$
