GGV.pdb
     RDKit          3D

 16 15  0  0  1  0  0  0  0  0999 V2000
    6.1441  -22.0611   22.3272 N   0  0  0  0  0  0  0  0  0  0  0  0
    5.7167  -21.6989   23.6505 C   0  0  0  0  0  0  0  0  0  0  0  0
    5.4742  -20.2389   23.7143 C   0  0  0  0  0  0  0  0  0  0  0  0
    5.3162  -19.6794   24.8313 O   0  0  0  0  0  0  0  0  0  0  0  0
    5.4102  -19.4230   22.5462 N   0  0  0  0  0  0  0  0  0  0  0  0
    5.3053  -18.0071   22.6878 C   0  0  0  0  0  0  0  0  0  0  0  0
    6.6323  -17.3475   22.5433 C   0  0  0  0  0  0  0  0  0  0  0  0
    7.4770  -17.7956   21.6962 O   0  0  0  0  0  0  0  0  0  0  0  0
    7.4771  -13.5108   24.1046 C   0  0  0  0  0  0  0  0  0  0  0  0
    8.1033  -14.0789   22.8506 C   0  0  2  0  0  0  0  0  0  0  0  0
    7.2179  -13.7694   21.6811 C   0  0  0  0  0  0  0  0  0  0  0  0
    8.3139  -15.5548   23.0656 C   0  0  2  0  0  0  0  0  0  0  0  0
    7.0267  -16.2339   23.2988 N   0  0  0  0  0  0  0  0  0  0  0  0
    9.2386  -15.8157   24.1943 C   0  0  0  0  0  0  0  0  0  0  0  0
   10.6135  -15.7052   24.0863 O   0  0  0  0  0  0  0  0  0  0  0  0
    8.7650  -16.1525   25.3023 O   0  0  0  0  0  0  0  0  0  0  0  0
  2  1  1  0
  3  2  1  0
  3  5  1  0
  4  3  2  0
  6  5  1  0
  7  6  1  0
  8  7  2  0
 10  9  1  1
 10 11  1  0
 10 12  1  0
 12 13  1  1
 13  7  1  0
 14 12  1  0
 14 15  1  0
 16 14  2  0
M  END
$$$$
