GGV.pdb
     RDKit          3D

 16 15  0  0  1  0  0  0  0  0999 V2000
    3.8656  -19.1802   21.8594 N   0  0  0  0  0  0  0  0  0  0  0  0
    4.0401  -17.9860   22.6392 C   0  0  0  0  0  0  0  0  0  0  0  0
    5.2064  -17.2256   22.1331 C   0  0  0  0  0  0  0  0  0  0  0  0
    5.0483  -16.3714   21.2214 O   0  0  0  0  0  0  0  0  0  0  0  0
    6.5248  -17.4208   22.6409 N   0  0  0  0  0  0  0  0  0  0  0  0
    7.6010  -16.6524   22.1049 C   0  0  0  0  0  0  0  0  0  0  0  0
    8.2149  -15.7800   23.1436 C   0  0  0  0  0  0  0  0  0  0  0  0
    9.2722  -15.1158   22.8733 O   0  0  0  0  0  0  0  0  0  0  0  0
    6.3277  -14.1250   26.4896 C   0  0  0  0  0  0  0  0  0  0  0  0
    7.6432  -13.6698   25.8985 C   0  0  2  0  0  0  0  0  0  0  0  0
    7.3678  -12.7322   24.7616 C   0  0  0  0  0  0  0  0  0  0  0  0
    8.4154  -14.8959   25.4872 C   0  0  2  0  0  0  0  0  0  0  0  0
    7.6928  -15.6358   24.4370 N   0  0  0  0  0  0  0  0  0  0  0  0
    8.6845  -15.7848   26.6425 C   0  0  0  0  0  0  0  0  0  0  0  0
    9.5147  -15.4311   27.6912 O   0  0  0  0  0  0  0  0  0  0  0  0
    8.1406  -16.9109   26.6822 O   0  0  0  0  0  0  0  0  0  0  0  0
  2  1  1  0
  3  2  1  0
  3  5  1  0
  4  3  2  0
  6  5  1  0
  7  6  1  0
  8  7  2  0
 10  9  1  6
 10 11  1  0
 10 12  1  0
 12 13  1  6
 13  7  1  0
 14 12  1  0
 14 15  1  0
 16 14  2  0
M  END
$$$$
