GGV.pdb
     RDKit          3D

 16 15  0  0  1  0  0  0  0  0999 V2000
    8.0933  -18.6683   19.3546 N   0  0  0  0  0  0  0  0  0  0  0  0
    8.5567  -17.3451   19.6696 C   0  0  0  0  0  0  0  0  0  0  0  0
    7.6617  -16.7296   20.6769 C   0  0  0  0  0  0  0  0  0  0  0  0
    6.4172  -16.9051   20.5981 O   0  0  0  0  0  0  0  0  0  0  0  0
    8.1548  -15.9325   21.7519 N   0  0  0  0  0  0  0  0  0  0  0  0
    7.2367  -15.4016   22.7065 C   0  0  0  0  0  0  0  0  0  0  0  0
    7.9477  -14.7090   23.8162 C   0  0  0  0  0  0  0  0  0  0  0  0
    9.2229  -14.7516   23.8798 O   0  0  0  0  0  0  0  0  0  0  0  0
    5.9735  -12.7926   27.1168 C   0  0  0  0  0  0  0  0  0  0  0  0
    7.2185  -12.2000   26.4953 C   0  0  2  0  0  0  0  0  0  0  0  0
    6.8146  -11.1749   25.4786 C   0  0  0  0  0  0  0  0  0  0  0  0
    8.0290  -13.3292   25.9147 C   0  0  2  0  0  0  0  0  0  0  0  0
    7.2894  -13.9920   24.8256 N   0  0  0  0  0  0  0  0  0  0  0  0
    8.4053  -14.3201   26.9509 C   0  0  0  0  0  0  0  0  0  0  0  0
    9.4171  -14.1059   27.8698 O   0  0  0  0  0  0  0  0  0  0  0  0
    7.7855  -15.4056   27.0070 O   0  0  0  0  0  0  0  0  0  0  0  0
  2  1  1  0
  3  2  1  0
  3  5  1  0
  4  3  2  0
  6  5  1  0
  7  6  1  0
  8  7  2  0
 10  9  1  6
 10 11  1  0
 10 12  1  0
 12 13  1  6
 13  7  1  0
 14 12  1  0
 14 15  1  0
 16 14  2  0
M  END
$$$$
