GGV.pdb
     RDKit          3D

 16 15  0  0  1  0  0  0  0  0999 V2000
    8.5713  -20.2386   22.6252 N   0  0  0  0  0  0  0  0  0  0  0  0
    7.1584  -19.9775   22.6014 C   0  0  0  0  0  0  0  0  0  0  0  0
    6.7866  -19.1381   23.7640 C   0  0  0  0  0  0  0  0  0  0  0  0
    7.1032  -19.5042   24.9265 O   0  0  0  0  0  0  0  0  0  0  0  0
    6.0730  -17.9112   23.6238 N   0  0  0  0  0  0  0  0  0  0  0  0
    5.8705  -17.0856   24.7699 C   0  0  0  0  0  0  0  0  0  0  0  0
    6.8735  -15.9870   24.8313 C   0  0  0  0  0  0  0  0  0  0  0  0
    7.7872  -15.9089   23.9420 O   0  0  0  0  0  0  0  0  0  0  0  0
    6.8320  -12.6659   27.6663 C   0  0  0  0  0  0  0  0  0  0  0  0
    7.1891  -12.6008   26.1982 C   0  0  2  0  0  0  0  0  0  0  0  0
    5.9465  -12.3230   25.4066 C   0  0  0  0  0  0  0  0  0  0  0  0
    7.8561  -13.8989   25.8256 C   0  0  2  0  0  0  0  0  0  0  0  0
    6.8805  -15.0037   25.8310 N   0  0  0  0  0  0  0  0  0  0  0  0
    8.9853  -14.2128   26.7333 C   0  0  0  0  0  0  0  0  0  0  0  0
   10.2151  -13.5839   26.6553 O   0  0  0  0  0  0  0  0  0  0  0  0
    8.8306  -15.0861   27.6158 O   0  0  0  0  0  0  0  0  0  0  0  0
  2  1  1  0
  3  2  1  0
  3  5  1  0
  4  3  2  0
  6  5  1  0
  7  6  1  0
  8  7  2  0
 10  9  1  1
 10 11  1  0
 10 12  1  0
 12 13  1  1
 13  7  1  0
 14 12  1  0
 14 15  1  0
 16 14  2  0
M  END
$$$$
