GGV.pdb
     RDKit          3D

 16 15  0  0  1  0  0  0  0  0999 V2000
    5.6383  -20.5700   21.5207 N   0  0  0  0  0  0  0  0  0  0  0  0
    6.6088  -20.0867   22.4638 C   0  0  0  0  0  0  0  0  0  0  0  0
    6.0396  -18.9530   23.2288 C   0  0  0  0  0  0  0  0  0  0  0  0
    4.8092  -18.9340   23.4962 O   0  0  0  0  0  0  0  0  0  0  0  0
    6.8368  -17.8617   23.6846 N   0  0  0  0  0  0  0  0  0  0  0  0
    6.3263  -17.0000   24.7009 C   0  0  0  0  0  0  0  0  0  0  0  0
    7.3100  -15.9414   25.0594 C   0  0  0  0  0  0  0  0  0  0  0  0
    8.5413  -16.0860   24.7512 O   0  0  0  0  0  0  0  0  0  0  0  0
    6.4374  -12.5463   27.5528 C   0  0  0  0  0  0  0  0  0  0  0  0
    7.3017  -12.4069   26.3196 C   0  0  2  0  0  0  0  0  0  0  0  0
    6.4490  -11.9424   25.1773 C   0  0  0  0  0  0  0  0  0  0  0  0
    7.9661  -13.7349   26.0668 C   0  0  2  0  0  0  0  0  0  0  0  0
    6.9626  -14.7617   25.7330 N   0  0  0  0  0  0  0  0  0  0  0  0
    8.7733  -14.1718   27.2308 C   0  0  0  0  0  0  0  0  0  0  0  0
   10.0123  -13.6367   27.5350 O   0  0  0  0  0  0  0  0  0  0  0  0
    8.3232  -15.0663   27.9809 O   0  0  0  0  0  0  0  0  0  0  0  0
  2  1  1  0
  3  2  1  0
  3  5  1  0
  4  3  2  0
  6  5  1  0
  7  6  1  0
  8  7  2  0
 10  9  1  1
 10 11  1  0
 10 12  1  0
 12 13  1  1
 13  7  1  0
 14 12  1  0
 14 15  1  0
 16 14  2  0
M  END
$$$$
