GGV.pdb
     RDKit          3D

 16 15  0  0  1  0  0  0  0  0999 V2000
    6.0626  -20.1218   23.1408 N   0  0  0  0  0  0  0  0  0  0  0  0
    5.4130  -18.8400   23.1389 C   0  0  0  0  0  0  0  0  0  0  0  0
    6.3178  -17.8229   22.5547 C   0  0  0  0  0  0  0  0  0  0  0  0
    6.6130  -17.8770   21.3318 O   0  0  0  0  0  0  0  0  0  0  0  0
    6.8803  -16.7655   23.3291 N   0  0  0  0  0  0  0  0  0  0  0  0
    7.7788  -15.8468   22.7089 C   0  0  0  0  0  0  0  0  0  0  0  0
    8.2024  -14.7789   23.6560 C   0  0  0  0  0  0  0  0  0  0  0  0
    9.1328  -13.9679   23.3263 O   0  0  0  0  0  0  0  0  0  0  0  0
    6.0579  -13.2345   26.9616 C   0  0  0  0  0  0  0  0  0  0  0  0
    7.2440  -12.5938   26.2761 C   0  0  2  0  0  0  0  0  0  0  0  0
    6.7593  -11.8179   25.0883 C   0  0  0  0  0  0  0  0  0  0  0  0
    8.2181  -13.6857   25.9185 C   0  0  2  0  0  0  0  0  0  0  0  0
    7.6297  -14.6002   24.9235 N   0  0  0  0  0  0  0  0  0  0  0  0
    8.6496  -14.4459   27.1157 C   0  0  0  0  0  0  0  0  0  0  0  0
    8.4183  -15.8006   27.2749 O   0  0  0  0  0  0  0  0  0  0  0  0
    9.2526  -13.8446   28.0323 O   0  0  0  0  0  0  0  0  0  0  0  0
  2  1  1  0
  3  2  1  0
  3  5  1  0
  4  3  2  0
  6  5  1  0
  7  6  1  0
  8  7  2  0
 10  9  1  6
 10 11  1  0
 10 12  1  0
 12 13  1  6
 13  7  1  0
 14 12  1  0
 14 15  1  0
 16 14  2  0
M  END
$$$$
