GGV.pdb
     RDKit          3D

 16 15  0  0  1  0  0  0  0  0999 V2000
    8.7273  -17.6721   18.7758 N   0  0  0  0  0  0  0  0  0  0  0  0
    9.1561  -16.7723   19.8109 C   0  0  0  0  0  0  0  0  0  0  0  0
    7.9738  -16.2048   20.4999 C   0  0  0  0  0  0  0  0  0  0  0  0
    6.9474  -16.9147   20.6682 O   0  0  0  0  0  0  0  0  0  0  0  0
    7.9447  -14.8658   20.9903 N   0  0  0  0  0  0  0  0  0  0  0  0
    7.0477  -14.5281   22.0473 C   0  0  0  0  0  0  0  0  0  0  0  0
    7.7763  -14.3017   23.3258 C   0  0  0  0  0  0  0  0  0  0  0  0
    9.0387  -14.4896   23.3809 O   0  0  0  0  0  0  0  0  0  0  0  0
    5.9067  -12.8095   26.8851 C   0  0  0  0  0  0  0  0  0  0  0  0
    7.2908  -12.3886   26.4442 C   0  0  2  0  0  0  0  0  0  0  0  0
    7.1789  -11.1531   25.6023 C   0  0  0  0  0  0  0  0  0  0  0  0
    7.9193  -13.5498   25.7192 C   0  0  2  0  0  0  0  0  0  0  0  0
    7.1486  -13.8835   24.5079 N   0  0  0  0  0  0  0  0  0  0  0  0
    8.0345  -14.7413   26.5933 C   0  0  0  0  0  0  0  0  0  0  0  0
    8.9753  -14.8509   27.6018 O   0  0  0  0  0  0  0  0  0  0  0  0
    7.2492  -15.6999   26.4204 O   0  0  0  0  0  0  0  0  0  0  0  0
  2  1  1  0
  3  2  1  0
  3  5  1  0
  4  3  2  0
  6  5  1  0
  7  6  1  0
  8  7  2  0
 10  9  1  6
 10 11  1  0
 10 12  1  0
 12 13  1  6
 13  7  1  0
 14 12  1  0
 14 15  1  0
 16 14  2  0
M  END
$$$$
