TWQ.pdb
     RDKit          3D

 31 32  0  0  1  0  0  0  0  0999 V2000
   29.4754  -21.2476  -16.6656 C   0  0  0  0  0  0  0  0  0  0  0  0
   28.7571  -21.7156  -15.4375 C   0  0  1  0  0  0  0  0  0  0  0  0
   29.7524  -22.0683  -14.4933 O   0  0  0  0  0  0  0  0  0  0  0  0
   27.9463  -20.6234  -14.7805 C   0  0  2  0  0  0  0  0  0  0  0  0
   28.8299  -19.5114  -14.4577 N   0  0  0  0  0  0  0  0  0  0  0  0
   27.3242  -21.0874  -13.5117 C   0  0  0  0  0  0  0  0  0  0  0  0
   26.4653  -22.0092  -13.5639 O   0  0  0  0  0  0  0  0  0  0  0  0
   27.6587  -20.5395  -12.2804 N   0  0  0  0  0  0  0  0  0  0  0  0
   26.9766  -20.8528  -11.0070 C   0  0  1  0  0  0  0  0  0  0  0  0
   27.7458  -20.3129   -9.8787 C   0  0  0  0  0  0  0  0  0  0  0  0
   27.0296  -20.2535   -8.6117 C   0  0  0  0  0  0  0  0  0  0  0  0
   25.6976  -20.4212   -8.3002 C   0  0  0  0  0  0  0  0  0  0  0  0
   25.5230  -20.2743   -6.9761 N   0  0  0  0  0  0  0  0  0  0  0  0
   26.6742  -20.0146   -6.3706 C   0  0  0  0  0  0  0  0  0  0  0  0
   27.0036  -19.8118   -5.0464 C   0  0  0  0  0  0  0  0  0  0  0  0
   28.3251  -19.5798   -4.6751 C   0  0  0  0  0  0  0  0  0  0  0  0
   29.2902  -19.5570   -5.6594 C   0  0  0  0  0  0  0  0  0  0  0  0
   28.9424  -19.7618   -6.9862 C   0  0  0  0  0  0  0  0  0  0  0  0
   27.6390  -19.9951   -7.3794 C   0  0  0  0  0  0  0  0  0  0  0  0
   25.5802  -20.5047  -11.1911 C   0  0  0  0  0  0  0  0  0  0  0  0
   25.3003  -19.3092  -11.5470 O   0  0  0  0  0  0  0  0  0  0  0  0
   22.1382  -23.7699  -14.9088 N   0  0  0  0  0  0  0  0  0  0  0  0
   21.1676  -22.8456  -14.3972 C   0  0  0  0  0  0  0  0  0  0  0  0
   20.0325  -22.8670  -14.9037 O   0  0  0  0  0  0  0  0  0  0  0  0
   21.5009  -21.9151  -13.3296 C   0  0  0  0  0  0  0  0  0  0  0  0
   22.8362  -21.9995  -12.7153 C   0  0  0  0  0  0  0  0  0  0  0  0
   23.1545  -20.9781  -11.6329 C   0  0  2  0  0  0  0  0  0  0  0  0
   24.4490  -21.3751  -11.0263 N   0  0  0  0  0  0  0  0  0  0  0  0
   22.1755  -20.8746  -10.5628 C   0  0  0  0  0  0  0  0  0  0  0  0
   22.2621  -21.4665   -9.4339 O   0  0  0  0  0  0  0  0  0  0  0  0
   21.0490  -20.0881  -10.7206 O   0  0  0  0  0  0  0  0  0  0  0  0
  2  1  1  6
  2  3  1  0
  4  2  1  0
  4  5  1  1
  6  8  1  0
  6  4  1  0
  7  6  2  0
  9 10  1  1
  9  8  1  0
 10 11  1  0
 11 19  1  0
 11 12  2  0
 12 13  1  0
 14 13  1  0
 14 15  2  0
 16 15  1  0
 17 16  2  0
 18 19  2  0
 18 17  1  0
 19 14  1  0
 20  9  1  0
 20 21  2  0
 22 23  1  0
 23 24  2  0
 25 23  1  0
 25 26  1  0
 27 26  1  6
 27 29  1  0
 27 28  1  0
 28 20  1  0
 29 31  1  0
 30 29  2  0
M  END
$$$$
