TWQ.pdb
     RDKit          3D

 31 32  0  0  1  0  0  0  0  0999 V2000
   13.0687  -22.1707    1.3900 C   0  0  0  0  0  0  0  0  0  0  0  0
   14.1460  -21.6382    2.2839 C   0  0  1  0  0  0  0  0  0  0  0  0
   14.9860  -22.7325    2.6055 O   0  0  0  0  0  0  0  0  0  0  0  0
   15.0382  -20.6341    1.5927 C   0  0  2  0  0  0  0  0  0  0  0  0
   15.6856  -21.2816    0.4599 N   0  0  0  0  0  0  0  0  0  0  0  0
   16.1078  -20.1338    2.4972 C   0  0  0  0  0  0  0  0  0  0  0  0
   17.2764  -20.5859    2.3557 O   0  0  0  0  0  0  0  0  0  0  0  0
   15.8592  -19.1908    3.4856 N   0  0  0  0  0  0  0  0  0  0  0  0
   16.8619  -18.7070    4.4580 C   0  0  1  0  0  0  0  0  0  0  0  0
   16.7484  -17.2515    4.6149 C   0  0  0  0  0  0  0  0  0  0  0  0
   17.4831  -16.4629    3.6351 C   0  0  0  0  0  0  0  0  0  0  0  0
   17.9295  -16.7590    2.3653 C   0  0  0  0  0  0  0  0  0  0  0  0
   18.5603  -15.6908    1.8494 N   0  0  0  0  0  0  0  0  0  0  0  0
   18.5643  -14.6801    2.7084 C   0  0  0  0  0  0  0  0  0  0  0  0
   19.0587  -13.3947    2.6298 C   0  0  0  0  0  0  0  0  0  0  0  0
   18.8983  -12.5104    3.6931 C   0  0  0  0  0  0  0  0  0  0  0  0
   18.2376  -12.9504    4.8202 C   0  0  0  0  0  0  0  0  0  0  0  0
   17.7473  -14.2461    4.8837 C   0  0  0  0  0  0  0  0  0  0  0  0
   17.8926  -15.1414    3.8420 C   0  0  0  0  0  0  0  0  0  0  0  0
   16.7800  -19.5888    5.6073 C   0  0  0  0  0  0  0  0  0  0  0  0
   15.6521  -20.1296    5.8712 O   0  0  0  0  0  0  0  0  0  0  0  0
   16.5747  -24.8374    5.8739 N   0  0  0  0  0  0  0  0  0  0  0  0
   16.5977  -24.6380    7.2944 C   0  0  0  0  0  0  0  0  0  0  0  0
   16.3169  -25.6115    8.0148 O   0  0  0  0  0  0  0  0  0  0  0  0
   16.9321  -23.3442    7.8696 C   0  0  0  0  0  0  0  0  0  0  0  0
   17.1345  -22.2028    6.9620 C   0  0  0  0  0  0  0  0  0  0  0  0
   17.5721  -20.8928    7.6011 C   0  0  2  0  0  0  0  0  0  0  0  0
   17.8512  -19.9414    6.4974 N   0  0  0  0  0  0  0  0  0  0  0  0
   18.7619  -20.9693    8.4335 C   0  0  0  0  0  0  0  0  0  0  0  0
   18.7569  -21.0982    9.7045 O   0  0  0  0  0  0  0  0  0  0  0  0
   20.0195  -20.9075    7.8615 O   0  0  0  0  0  0  0  0  0  0  0  0
  2  1  1  6
  2  3  1  0
  4  2  1  0
  4  5  1  6
  6  8  1  0
  6  4  1  0
  7  6  2  0
  9 10  1  1
  9  8  1  0
 10 11  1  0
 11 19  1  0
 11 12  2  0
 12 13  1  0
 14 13  1  0
 14 15  2  0
 16 15  1  0
 17 16  2  0
 18 19  2  0
 18 17  1  0
 19 14  1  0
 20  9  1  0
 20 21  2  0
 22 23  1  0
 23 24  2  0
 25 23  1  0
 25 26  1  0
 27 26  1  6
 27 29  1  0
 27 28  1  0
 28 20  1  0
 29 31  1  0
 30 29  2  0
M  END
$$$$
