TWQ.pdb
     RDKit          3D

 31 32  0  0  1  0  0  0  0  0999 V2000
   19.1625  -11.3435  -19.6169 C   0  0  0  0  0  0  0  0  0  0  0  0
   18.6409  -12.5704  -18.9345 C   0  0  1  0  0  0  0  0  0  0  0  0
   17.7665  -13.2051  -19.8506 O   0  0  0  0  0  0  0  0  0  0  0  0
   19.7228  -13.5831  -18.6414 C   0  0  2  0  0  0  0  0  0  0  0  0
   19.1193  -14.7440  -18.0013 N   0  0  0  0  0  0  0  0  0  0  0  0
   20.7488  -13.0389  -17.7122 C   0  0  0  0  0  0  0  0  0  0  0  0
   20.4926  -13.0178  -16.4777 O   0  0  0  0  0  0  0  0  0  0  0  0
   21.9713  -12.5570  -18.1607 N   0  0  0  0  0  0  0  0  0  0  0  0
   22.9914  -11.9207  -17.3007 C   0  0  1  0  0  0  0  0  0  0  0  0
   24.2958  -12.5620  -17.5093 C   0  0  0  0  0  0  0  0  0  0  0  0
   25.4163  -11.9234  -16.8322 C   0  0  0  0  0  0  0  0  0  0  0  0
   25.7875  -11.8852  -15.5055 C   0  0  0  0  0  0  0  0  0  0  0  0
   26.9135  -11.1641  -15.3737 N   0  0  0  0  0  0  0  0  0  0  0  0
   27.3271  -10.7092  -16.5490 C   0  0  0  0  0  0  0  0  0  0  0  0
   28.4218   -9.9574  -16.9224 C   0  0  0  0  0  0  0  0  0  0  0  0
   28.6352   -9.6371  -18.2603 C   0  0  0  0  0  0  0  0  0  0  0  0
   27.7289  -10.0871  -19.1967 C   0  0  0  0  0  0  0  0  0  0  0  0
   26.6330  -10.8412  -18.8048 C   0  0  0  0  0  0  0  0  0  0  0  0
   26.4003  -11.1729  -17.4843 C   0  0  0  0  0  0  0  0  0  0  0  0
   22.8313  -10.4878  -17.4629 C   0  0  0  0  0  0  0  0  0  0  0  0
   22.5073  -10.0459  -18.6179 O   0  0  0  0  0  0  0  0  0  0  0  0
   18.4413   -7.4827  -16.8136 N   0  0  0  0  0  0  0  0  0  0  0  0
   19.2984   -6.4315  -17.2809 C   0  0  0  0  0  0  0  0  0  0  0  0
   18.7858   -5.3149  -17.4700 O   0  0  0  0  0  0  0  0  0  0  0  0
   20.7128   -6.6651  -17.5291 C   0  0  0  0  0  0  0  0  0  0  0  0
   21.2606   -8.0058  -17.2648 C   0  0  0  0  0  0  0  0  0  0  0  0
   22.7065   -8.0710  -16.7945 C   0  0  2  0  0  0  0  0  0  0  0  0
   22.9879   -9.4853  -16.4457 N   0  0  0  0  0  0  0  0  0  0  0  0
   23.0244   -7.2552  -15.6337 C   0  0  0  0  0  0  0  0  0  0  0  0
   23.3363   -7.7131  -14.4825 O   0  0  0  0  0  0  0  0  0  0  0  0
   23.0082   -5.8753  -15.7243 O   0  0  0  0  0  0  0  0  0  0  0  0
  2  1  1  6
  2  3  1  0
  4  2  1  0
  4  5  1  1
  6  8  1  0
  6  4  1  0
  7  6  2  0
  9 10  1  6
  9  8  1  0
 10 11  1  0
 11 19  1  0
 11 12  2  0
 12 13  1  0
 14 13  1  0
 14 15  2  0
 16 15  1  0
 17 16  2  0
 18 19  2  0
 18 17  1  0
 19 14  1  0
 20  9  1  0
 20 21  2  0
 22 23  1  0
 23 24  2  0
 25 23  1  0
 25 26  1  0
 27 26  1  1
 27 29  1  0
 27 28  1  0
 28 20  1  0
 29 31  1  0
 30 29  2  0
M  END
$$$$
