TWQ.pdb
     RDKit          3D

 31 32  0  0  1  0  0  0  0  0999 V2000
   26.6381  -19.9054  -16.5676 C   0  0  0  0  0  0  0  0  0  0  0  0
   27.5609  -21.0835  -16.6311 C   0  0  1  0  0  0  0  0  0  0  0  0
   28.5937  -20.7431  -17.5389 O   0  0  0  0  0  0  0  0  0  0  0  0
   28.2530  -21.3576  -15.3167 C   0  0  2  0  0  0  0  0  0  0  0  0
   29.0914  -22.5395  -15.4642 N   0  0  0  0  0  0  0  0  0  0  0  0
   27.2775  -21.6305  -14.2275 C   0  0  0  0  0  0  0  0  0  0  0  0
   26.7371  -22.7686  -14.1742 O   0  0  0  0  0  0  0  0  0  0  0  0
   26.9468  -20.6761  -13.2748 N   0  0  0  0  0  0  0  0  0  0  0  0
   26.0764  -20.9212  -12.1054 C   0  0  1  0  0  0  0  0  0  0  0  0
   26.5155  -20.0990  -10.9708 C   0  0  0  0  0  0  0  0  0  0  0  0
   27.6516  -20.6251  -10.2264 C   0  0  0  0  0  0  0  0  0  0  0  0
   28.7870  -21.2923  -10.6327 C   0  0  0  0  0  0  0  0  0  0  0  0
   29.5523  -21.5706   -9.5640 N   0  0  0  0  0  0  0  0  0  0  0  0
   28.9913  -21.1239   -8.4482 C   0  0  0  0  0  0  0  0  0  0  0  0
   29.3955  -21.1488   -7.1295 C   0  0  0  0  0  0  0  0  0  0  0  0
   28.6081  -20.5688   -6.1386 C   0  0  0  0  0  0  0  0  0  0  0  0
   27.4205  -19.9735   -6.5072 C   0  0  0  0  0  0  0  0  0  0  0  0
   27.0280  -19.9577   -7.8372 C   0  0  0  0  0  0  0  0  0  0  0  0
   27.7921  -20.5250   -8.8383 C   0  0  0  0  0  0  0  0  0  0  0  0
   24.7098  -20.8556  -12.5881 C   0  0  0  0  0  0  0  0  0  0  0  0
   24.3909  -19.8888  -13.3614 O   0  0  0  0  0  0  0  0  0  0  0  0
   20.5904  -24.8461  -15.1600 N   0  0  0  0  0  0  0  0  0  0  0  0
   19.9917  -23.5737  -14.8762 C   0  0  0  0  0  0  0  0  0  0  0  0
   19.2197  -23.1002  -15.7278 O   0  0  0  0  0  0  0  0  0  0  0  0
   20.2812  -22.8621  -13.6406 C   0  0  0  0  0  0  0  0  0  0  0  0
   21.6614  -22.8763  -13.1284 C   0  0  0  0  0  0  0  0  0  0  0  0
   22.3054  -21.5225  -12.8667 C   0  0  2  0  0  0  0  0  0  0  0  0
   23.6510  -21.7826  -12.2984 N   0  0  0  0  0  0  0  0  0  0  0  0
   21.5914  -20.6583  -11.9406 C   0  0  0  0  0  0  0  0  0  0  0  0
   21.8710  -20.5269  -10.7010 O   0  0  0  0  0  0  0  0  0  0  0  0
   20.5244  -19.8953  -12.3788 O   0  0  0  0  0  0  0  0  0  0  0  0
  2  1  1  1
  2  3  1  0
  4  2  1  0
  4  5  1  6
  6  8  1  0
  6  4  1  0
  7  6  2  0
  9 10  1  1
  9  8  1  0
 10 11  1  0
 11 19  1  0
 11 12  2  0
 12 13  1  0
 14 13  1  0
 14 15  2  0
 16 15  1  0
 17 16  2  0
 18 19  2  0
 18 17  1  0
 19 14  1  0
 20  9  1  0
 20 21  2  0
 22 23  1  0
 23 24  2  0
 25 23  1  0
 25 26  1  0
 27 26  1  1
 27 29  1  0
 27 28  1  0
 28 20  1  0
 29 31  1  0
 30 29  2  0
M  END
$$$$
