TWQ.pdb
     RDKit          3D

 31 32  0  0  1  0  0  0  0  0999 V2000
   22.1184   -8.2349  -20.1721 C   0  0  0  0  0  0  0  0  0  0  0  0
   21.8562   -9.7095  -20.1737 C   0  0  1  0  0  0  0  0  0  0  0  0
   21.9770  -10.1431  -21.5169 O   0  0  0  0  0  0  0  0  0  0  0  0
   22.8944  -10.4905  -19.4027 C   0  0  2  0  0  0  0  0  0  0  0  0
   22.5738  -11.9088  -19.4864 N   0  0  0  0  0  0  0  0  0  0  0  0
   22.9079  -10.1159  -17.9633 C   0  0  0  0  0  0  0  0  0  0  0  0
   22.0636  -10.6501  -17.1941 O   0  0  0  0  0  0  0  0  0  0  0  0
   23.8161   -9.2021  -17.4456 N   0  0  0  0  0  0  0  0  0  0  0  0
   23.8193   -8.7185  -16.0487 C   0  0  1  0  0  0  0  0  0  0  0  0
   25.1056   -9.0291  -15.4122 C   0  0  0  0  0  0  0  0  0  0  0  0
   25.4104  -10.4481  -15.2898 C   0  0  0  0  0  0  0  0  0  0  0  0
   24.6730  -11.5083  -14.8085 C   0  0  0  0  0  0  0  0  0  0  0  0
   25.3917  -12.6391  -14.9092 N   0  0  0  0  0  0  0  0  0  0  0  0
   26.5846  -12.3989  -15.4371 C   0  0  0  0  0  0  0  0  0  0  0  0
   27.6445  -13.2231  -15.7539 C   0  0  0  0  0  0  0  0  0  0  0  0
   28.7952  -12.7006  -16.3378 C   0  0  0  0  0  0  0  0  0  0  0  0
   28.8481  -11.3460  -16.5887 C   0  0  0  0  0  0  0  0  0  0  0  0
   27.7743  -10.5309  -16.2634 C   0  0  0  0  0  0  0  0  0  0  0  0
   26.6218  -11.0256  -15.6848 C   0  0  0  0  0  0  0  0  0  0  0  0
   23.3138   -7.3590  -16.0822 C   0  0  0  0  0  0  0  0  0  0  0  0
   24.1080   -6.4312  -16.4600 O   0  0  0  0  0  0  0  0  0  0  0  0
   17.0124   -4.6111  -14.8702 N   0  0  0  0  0  0  0  0  0  0  0  0
   17.7894   -5.6861  -15.4167 C   0  0  0  0  0  0  0  0  0  0  0  0
   17.1934   -6.5324  -16.1052 O   0  0  0  0  0  0  0  0  0  0  0  0
   19.2199   -5.7847  -15.1701 C   0  0  0  0  0  0  0  0  0  0  0  0
   20.1464   -5.4489  -16.2639 C   0  0  0  0  0  0  0  0  0  0  0  0
   21.6322   -5.5002  -15.9388 C   0  0  2  0  0  0  0  0  0  0  0  0
   21.9863   -6.9275  -15.7421 N   0  0  0  0  0  0  0  0  0  0  0  0
   22.0374   -4.7734  -14.7463 C   0  0  0  0  0  0  0  0  0  0  0  0
   22.3478   -5.3145  -13.6314 O   0  0  0  0  0  0  0  0  0  0  0  0
   22.1146   -3.3927  -14.7626 O   0  0  0  0  0  0  0  0  0  0  0  0
  2  1  1  6
  2  3  1  0
  4  2  1  0
  4  5  1  1
  6  8  1  0
  6  4  1  0
  7  6  2  0
  9 10  1  6
  9  8  1  0
 10 11  1  0
 11 19  1  0
 11 12  2  0
 12 13  1  0
 14 13  1  0
 14 15  2  0
 16 15  1  0
 17 16  2  0
 18 19  2  0
 18 17  1  0
 19 14  1  0
 20  9  1  0
 20 21  2  0
 22 23  1  0
 23 24  2  0
 25 23  1  0
 25 26  1  0
 27 26  1  1
 27 29  1  0
 27 28  1  0
 28 20  1  0
 29 31  1  0
 30 29  2  0
M  END
$$$$
