TWQ.pdb
     RDKit          3D

 31 32  0  0  1  0  0  0  0  0999 V2000
   28.3712  -19.4496  -16.4961 C   0  0  0  0  0  0  0  0  0  0  0  0
   27.5289  -19.7822  -15.3032 C   0  0  1  0  0  0  0  0  0  0  0  0
   26.1826  -19.7862  -15.7437 O   0  0  0  0  0  0  0  0  0  0  0  0
   27.7847  -21.1741  -14.7747 C   0  0  2  0  0  0  0  0  0  0  0  0
   27.3031  -22.1431  -15.7496 N   0  0  0  0  0  0  0  0  0  0  0  0
   27.0602  -21.4201  -13.4992 C   0  0  0  0  0  0  0  0  0  0  0  0
   25.9364  -21.9903  -13.5452 O   0  0  0  0  0  0  0  0  0  0  0  0
   27.5809  -21.0433  -12.2684 N   0  0  0  0  0  0  0  0  0  0  0  0
   26.8843  -21.2059  -10.9748 C   0  0  1  0  0  0  0  0  0  0  0  0
   27.8334  -21.0338   -9.8677 C   0  0  0  0  0  0  0  0  0  0  0  0
   27.2351  -20.6846   -8.5864 C   0  0  0  0  0  0  0  0  0  0  0  0
   25.9225  -20.6287   -8.1698 C   0  0  0  0  0  0  0  0  0  0  0  0
   25.8751  -20.2544   -6.8803 N   0  0  0  0  0  0  0  0  0  0  0  0
   27.0943  -20.0528   -6.3985 C   0  0  0  0  0  0  0  0  0  0  0  0
   27.5522  -19.6885   -5.1492 C   0  0  0  0  0  0  0  0  0  0  0  0
   28.9177  -19.5727   -4.9038 C   0  0  0  0  0  0  0  0  0  0  0  0
   29.7951  -19.8289   -5.9359 C   0  0  0  0  0  0  0  0  0  0  0  0
   29.3186  -20.1933   -7.1862 C   0  0  0  0  0  0  0  0  0  0  0  0
   27.9691  -20.3161   -7.4540 C   0  0  0  0  0  0  0  0  0  0  0  0
   25.6777  -20.4041  -11.0530 C   0  0  0  0  0  0  0  0  0  0  0  0
   25.7988  -19.1595  -11.3184 O   0  0  0  0  0  0  0  0  0  0  0  0
   21.2635  -18.9485  -14.5770 N   0  0  0  0  0  0  0  0  0  0  0  0
   22.0028  -20.1777  -14.5997 C   0  0  0  0  0  0  0  0  0  0  0  0
   21.7887  -20.9584  -15.5432 O   0  0  0  0  0  0  0  0  0  0  0  0
   22.9628  -20.5004  -13.5553 C   0  0  0  0  0  0  0  0  0  0  0  0
   23.2793  -19.4727  -12.5497 C   0  0  0  0  0  0  0  0  0  0  0  0
   23.2177  -19.9038  -11.0915 C   0  0  2  0  0  0  0  0  0  0  0  0
   24.3281  -20.8632  -10.8734 N   0  0  0  0  0  0  0  0  0  0  0  0
   21.9826  -20.5530  -10.6825 C   0  0  0  0  0  0  0  0  0  0  0  0
   21.8757  -21.7862  -10.3663 O   0  0  0  0  0  0  0  0  0  0  0  0
   20.8056  -19.8308  -10.6077 O   0  0  0  0  0  0  0  0  0  0  0  0
  2  1  1  6
  2  3  1  0
  4  2  1  0
  4  5  1  6
  6  8  1  0
  6  4  1  0
  7  6  2  0
  9 10  1  1
  9  8  1  0
 10 11  1  0
 11 19  1  0
 11 12  2  0
 12 13  1  0
 14 13  1  0
 14 15  2  0
 16 15  1  0
 17 16  2  0
 18 19  2  0
 18 17  1  0
 19 14  1  0
 20  9  1  0
 20 21  2  0
 22 23  1  0
 23 24  2  0
 25 23  1  0
 25 26  1  0
 27 26  1  6
 27 29  1  0
 27 28  1  0
 28 20  1  0
 29 31  1  0
 30 29  2  0
M  END
$$$$
