TWQ.pdb
     RDKit          3D

 31 32  0  0  1  0  0  0  0  0999 V2000
   27.6660  -24.4896  -19.3183 C   0  0  0  0  0  0  0  0  0  0  0  0
   28.1033  -25.6338  -18.4565 C   0  0  1  0  0  0  0  0  0  0  0  0
   28.9440  -26.4471  -19.2555 O   0  0  0  0  0  0  0  0  0  0  0  0
   28.9562  -25.1960  -17.2891 C   0  0  2  0  0  0  0  0  0  0  0  0
   29.1922  -26.3430  -16.4229 N   0  0  0  0  0  0  0  0  0  0  0  0
   28.2811  -24.1491  -16.4764 C   0  0  0  0  0  0  0  0  0  0  0  0
   27.4738  -24.5115  -15.5781 O   0  0  0  0  0  0  0  0  0  0  0  0
   28.5119  -22.7946  -16.6762 N   0  0  0  0  0  0  0  0  0  0  0  0
   27.9438  -21.7127  -15.8444 C   0  0  1  0  0  0  0  0  0  0  0  0
   28.8062  -20.5258  -15.9059 C   0  0  0  0  0  0  0  0  0  0  0  0
   28.2567  -19.3272  -15.2870 C   0  0  0  0  0  0  0  0  0  0  0  0
   27.7137  -19.1030  -14.0403 C   0  0  0  0  0  0  0  0  0  0  0  0
   27.3468  -17.8148  -13.9341 N   0  0  0  0  0  0  0  0  0  0  0  0
   27.6149  -17.1505  -15.0505 C   0  0  0  0  0  0  0  0  0  0  0  0
   27.4463  -15.8293  -15.4098 C   0  0  0  0  0  0  0  0  0  0  0  0
   27.8489  -15.3822  -16.6652 C   0  0  0  0  0  0  0  0  0  0  0  0
   28.4161  -16.2889  -17.5352 C   0  0  0  0  0  0  0  0  0  0  0  0
   28.5778  -17.6138  -17.1589 C   0  0  0  0  0  0  0  0  0  0  0  0
   28.1877  -18.0812  -15.9191 C   0  0  0  0  0  0  0  0  0  0  0  0
   26.5356  -21.6288  -16.1832 C   0  0  0  0  0  0  0  0  0  0  0  0
   26.2048  -21.7463  -17.4124 O   0  0  0  0  0  0  0  0  0  0  0  0
   21.5429  -24.3912  -13.7899 N   0  0  0  0  0  0  0  0  0  0  0  0
   20.9598  -23.3903  -14.6363 C   0  0  0  0  0  0  0  0  0  0  0  0
   19.7248  -23.4067  -14.7770 O   0  0  0  0  0  0  0  0  0  0  0  0
   21.7835  -22.3972  -15.3085 C   0  0  0  0  0  0  0  0  0  0  0  0
   23.2235  -22.3567  -15.0052 C   0  0  0  0  0  0  0  0  0  0  0  0
   24.0642  -21.3817  -15.8169 C   0  0  2  0  0  0  0  0  0  0  0  0
   25.4426  -21.4355  -15.2709 N   0  0  0  0  0  0  0  0  0  0  0  0
   23.6254  -19.9960  -15.7801 C   0  0  0  0  0  0  0  0  0  0  0  0
   24.0265  -19.1251  -14.9359 O   0  0  0  0  0  0  0  0  0  0  0  0
   22.7103  -19.5285  -16.7056 O   0  0  0  0  0  0  0  0  0  0  0  0
  2  1  1  6
  2  3  1  0
  4  2  1  0
  4  5  1  1
  6  8  1  0
  6  4  1  0
  7  6  2  0
  9 10  1  6
  9  8  1  0
 10 11  1  0
 11 19  1  0
 11 12  2  0
 12 13  1  0
 14 13  1  0
 14 15  2  0
 16 15  1  0
 17 16  2  0
 18 19  2  0
 18 17  1  0
 19 14  1  0
 20  9  1  0
 20 21  2  0
 22 23  1  0
 23 24  2  0
 25 23  1  0
 25 26  1  0
 27 26  1  1
 27 29  1  0
 27 28  1  0
 28 20  1  0
 29 31  1  0
 30 29  2  0
M  END
$$$$
