TWQ.pdb
     RDKit          3D

 31 32  0  0  1  0  0  0  0  0999 V2000
   27.6002  -18.8611  -15.6553 C   0  0  0  0  0  0  0  0  0  0  0  0
   27.9081  -20.1588  -16.3369 C   0  0  1  0  0  0  0  0  0  0  0  0
   28.8919  -19.8803  -17.3173 O   0  0  0  0  0  0  0  0  0  0  0  0
   28.5371  -21.1727  -15.4106 C   0  0  2  0  0  0  0  0  0  0  0  0
   28.7664  -22.4065  -16.1500 N   0  0  0  0  0  0  0  0  0  0  0  0
   27.6486  -21.4945  -14.2619 C   0  0  0  0  0  0  0  0  0  0  0  0
   26.6383  -22.2206  -14.4670 O   0  0  0  0  0  0  0  0  0  0  0  0
   27.8970  -21.0222  -12.9800 N   0  0  0  0  0  0  0  0  0  0  0  0
   27.0481  -21.2997  -11.8021 C   0  0  1  0  0  0  0  0  0  0  0  0
   27.8297  -21.1372  -10.5697 C   0  0  0  0  0  0  0  0  0  0  0  0
   27.0524  -20.8192   -9.3796 C   0  0  0  0  0  0  0  0  0  0  0  0
   25.6934  -20.7560   -9.1594 C   0  0  0  0  0  0  0  0  0  0  0  0
   25.4599  -20.4219   -7.8791 N   0  0  0  0  0  0  0  0  0  0  0  0
   26.5967  -20.2547   -7.2164 C   0  0  0  0  0  0  0  0  0  0  0  0
   26.8688  -19.9372   -5.9018 C   0  0  0  0  0  0  0  0  0  0  0  0
   28.1842  -19.8507   -5.4541 C   0  0  0  0  0  0  0  0  0  0  0  0
   29.2017  -20.0879   -6.3536 C   0  0  0  0  0  0  0  0  0  0  0  0
   28.9113  -20.4051   -7.6720 C   0  0  0  0  0  0  0  0  0  0  0  0
   27.6150  -20.4983   -8.1397 C   0  0  0  0  0  0  0  0  0  0  0  0
   25.8125  -20.5662  -12.0028 C   0  0  0  0  0  0  0  0  0  0  0  0
   25.8884  -19.3717  -12.4518 O   0  0  0  0  0  0  0  0  0  0  0  0
   23.7107  -18.0671  -15.8756 N   0  0  0  0  0  0  0  0  0  0  0  0
   22.5561  -18.6914  -15.2966 C   0  0  0  0  0  0  0  0  0  0  0  0
   21.5370  -17.9936  -15.1553 O   0  0  0  0  0  0  0  0  0  0  0  0
   22.5790  -20.0868  -14.8855 C   0  0  0  0  0  0  0  0  0  0  0  0
   23.6405  -20.5317  -13.9675 C   0  0  0  0  0  0  0  0  0  0  0  0
   23.3529  -20.4021  -12.4787 C   0  0  2  0  0  0  0  0  0  0  0  0
   24.4800  -21.0452  -11.7596 N   0  0  0  0  0  0  0  0  0  0  0  0
   22.1211  -21.0258  -12.0227 C   0  0  0  0  0  0  0  0  0  0  0  0
   21.9801  -22.2719  -11.7790 O   0  0  0  0  0  0  0  0  0  0  0  0
   20.9866  -20.2622  -11.8161 O   0  0  0  0  0  0  0  0  0  0  0  0
  2  1  1  1
  2  3  1  0
  4  2  1  0
  4  5  1  6
  6  8  1  0
  6  4  1  0
  7  6  2  0
  9 10  1  1
  9  8  1  0
 10 11  1  0
 11 19  1  0
 11 12  2  0
 12 13  1  0
 14 13  1  0
 14 15  2  0
 16 15  1  0
 17 16  2  0
 18 19  2  0
 18 17  1  0
 19 14  1  0
 20  9  1  0
 20 21  2  0
 22 23  1  0
 23 24  2  0
 25 23  1  0
 25 26  1  0
 27 26  1  6
 27 29  1  0
 27 28  1  0
 28 20  1  0
 29 31  1  0
 30 29  2  0
M  END
$$$$
