TWQ.pdb
     RDKit          3D

 31 32  0  0  1  0  0  0  0  0999 V2000
   18.3855  -12.3028  -18.3155 C   0  0  0  0  0  0  0  0  0  0  0  0
   18.1733  -13.6060  -17.6086 C   0  0  1  0  0  0  0  0  0  0  0  0
   17.3572  -14.3988  -18.4525 O   0  0  0  0  0  0  0  0  0  0  0  0
   19.4515  -14.3910  -17.4298 C   0  0  2  0  0  0  0  0  0  0  0  0
   19.1415  -15.6493  -16.7650 N   0  0  0  0  0  0  0  0  0  0  0  0
   20.4308  -13.6620  -16.5802 C   0  0  0  0  0  0  0  0  0  0  0  0
   20.1344  -13.4400  -15.3748 O   0  0  0  0  0  0  0  0  0  0  0  0
   21.6526  -13.2218  -17.0716 N   0  0  0  0  0  0  0  0  0  0  0  0
   22.5898  -12.3474  -16.3352 C   0  0  1  0  0  0  0  0  0  0  0  0
   23.9701  -12.8038  -16.5412 C   0  0  0  0  0  0  0  0  0  0  0  0
   25.0026  -11.8750  -16.1018 C   0  0  0  0  0  0  0  0  0  0  0  0
   25.2027  -11.2228  -14.9043 C   0  0  0  0  0  0  0  0  0  0  0  0
   26.3107  -10.4669  -14.9831 N   0  0  0  0  0  0  0  0  0  0  0  0
   26.8752  -10.5738  -16.1786 C   0  0  0  0  0  0  0  0  0  0  0  0
   28.0167  -10.0206  -16.7209 C   0  0  0  0  0  0  0  0  0  0  0  0
   28.4017  -10.3305  -18.0224 C   0  0  0  0  0  0  0  0  0  0  0  0
   27.6167  -11.1984  -18.7512 C   0  0  0  0  0  0  0  0  0  0  0  0
   26.4717  -11.7453  -18.1916 C   0  0  0  0  0  0  0  0  0  0  0  0
   26.0696  -11.4545  -16.9026 C   0  0  0  0  0  0  0  0  0  0  0  0
   22.2035  -10.9821  -16.6380 C   0  0  0  0  0  0  0  0  0  0  0  0
   21.7664  -10.7270  -17.8119 O   0  0  0  0  0  0  0  0  0  0  0  0
   20.4522   -7.5622  -19.4667 N   0  0  0  0  0  0  0  0  0  0  0  0
   19.6118   -6.9950  -18.4518 C   0  0  0  0  0  0  0  0  0  0  0  0
   18.8787   -6.0457  -18.7786 O   0  0  0  0  0  0  0  0  0  0  0  0
   19.6211   -7.5082  -17.0904 C   0  0  0  0  0  0  0  0  0  0  0  0
   20.3913   -8.7301  -16.8053 C   0  0  0  0  0  0  0  0  0  0  0  0
   21.7917   -8.5374  -16.2416 C   0  0  2  0  0  0  0  0  0  0  0  0
   22.2464   -9.8588  -15.7432 N   0  0  0  0  0  0  0  0  0  0  0  0
   21.8999   -7.5879  -15.1457 C   0  0  0  0  0  0  0  0  0  0  0  0
   21.9249   -6.3176  -15.2798 O   0  0  0  0  0  0  0  0  0  0  0  0
   21.9808   -8.0351  -13.8396 O   0  0  0  0  0  0  0  0  0  0  0  0
  2  1  1  6
  2  3  1  0
  4  2  1  0
  4  5  1  1
  6  8  1  0
  6  4  1  0
  7  6  2  0
  9 10  1  6
  9  8  1  0
 10 11  1  0
 11 19  1  0
 11 12  2  0
 12 13  1  0
 14 13  1  0
 14 15  2  0
 16 15  1  0
 17 16  2  0
 18 19  2  0
 18 17  1  0
 19 14  1  0
 20  9  1  0
 20 21  2  0
 22 23  1  0
 23 24  2  0
 25 23  1  0
 25 26  1  0
 27 26  1  1
 27 29  1  0
 27 28  1  0
 28 20  1  0
 29 31  1  0
 30 29  2  0
M  END
$$$$
