TWQ.pdb
     RDKit          3D

 31 32  0  0  1  0  0  0  0  0999 V2000
   26.1665  -19.0170  -15.5541 C   0  0  0  0  0  0  0  0  0  0  0  0
   27.1004  -20.1385  -15.8908 C   0  0  1  0  0  0  0  0  0  0  0  0
   28.0846  -19.6025  -16.7572 O   0  0  0  0  0  0  0  0  0  0  0  0
   27.8575  -20.6519  -14.6886 C   0  0  2  0  0  0  0  0  0  0  0  0
   28.7200  -21.7478  -15.1088 N   0  0  0  0  0  0  0  0  0  0  0  0
   26.9392  -21.1770  -13.6430 C   0  0  0  0  0  0  0  0  0  0  0  0
   26.5371  -22.3684  -13.7378 O   0  0  0  0  0  0  0  0  0  0  0  0
   26.5147  -20.3997  -12.5736 N   0  0  0  0  0  0  0  0  0  0  0  0
   25.6158  -20.8682  -11.4976 C   0  0  1  0  0  0  0  0  0  0  0  0
   26.0061  -20.2635  -10.2177 C   0  0  0  0  0  0  0  0  0  0  0  0
   27.2690  -20.7369   -9.6676 C   0  0  0  0  0  0  0  0  0  0  0  0
   28.2454  -21.5607  -10.1846 C   0  0  0  0  0  0  0  0  0  0  0  0
   29.2373  -21.7002   -9.2891 N   0  0  0  0  0  0  0  0  0  0  0  0
   28.9824  -21.0095   -8.1858 C   0  0  0  0  0  0  0  0  0  0  0  0
   29.6948  -20.8244   -7.0191 C   0  0  0  0  0  0  0  0  0  0  0  0
   29.1950  -20.0073   -6.0087 C   0  0  0  0  0  0  0  0  0  0  0  0
   27.9763  -19.3926   -6.2029 C   0  0  0  0  0  0  0  0  0  0  0  0
   27.2723  -19.5897   -7.3813 C   0  0  0  0  0  0  0  0  0  0  0  0
   27.7475  -20.3943   -8.3985 C   0  0  0  0  0  0  0  0  0  0  0  0
   24.2627  -20.7334  -12.0033 C   0  0  0  0  0  0  0  0  0  0  0  0
   23.8924  -19.5875  -12.4323 O   0  0  0  0  0  0  0  0  0  0  0  0
   19.9659  -25.1518  -14.0106 N   0  0  0  0  0  0  0  0  0  0  0  0
   19.3095  -23.8815  -14.1276 C   0  0  0  0  0  0  0  0  0  0  0  0
   18.1723  -23.8677  -14.6296 O   0  0  0  0  0  0  0  0  0  0  0  0
   19.9528  -22.6555  -13.6806 C   0  0  0  0  0  0  0  0  0  0  0  0
   21.2790  -22.7481  -13.0481 C   0  0  0  0  0  0  0  0  0  0  0  0
   21.9440  -21.4344  -12.6631 C   0  0  2  0  0  0  0  0  0  0  0  0
   23.2708  -21.7692  -12.0900 N   0  0  0  0  0  0  0  0  0  0  0  0
   21.2265  -20.6331  -11.6847 C   0  0  0  0  0  0  0  0  0  0  0  0
   21.3057  -20.7832  -10.4184 O   0  0  0  0  0  0  0  0  0  0  0  0
   20.3850  -19.6160  -12.0969 O   0  0  0  0  0  0  0  0  0  0  0  0
  2  1  1  1
  2  3  1  0
  4  2  1  0
  4  5  1  6
  6  8  1  0
  6  4  1  0
  7  6  2  0
  9 10  1  1
  9  8  1  0
 10 11  1  0
 11 19  1  0
 11 12  2  0
 12 13  1  0
 14 13  1  0
 14 15  2  0
 16 15  1  0
 17 16  2  0
 18 19  2  0
 18 17  1  0
 19 14  1  0
 20  9  1  0
 20 21  2  0
 22 23  1  0
 23 24  2  0
 25 23  1  0
 25 26  1  0
 27 26  1  1
 27 29  1  0
 27 28  1  0
 28 20  1  0
 29 31  1  0
 30 29  2  0
M  END
$$$$
