TWQ.pdb
     RDKit          3D

 31 32  0  0  1  0  0  0  0  0999 V2000
   28.6251  -18.5366  -15.6783 C   0  0  0  0  0  0  0  0  0  0  0  0
   27.7340  -19.0752  -14.6017 C   0  0  1  0  0  0  0  0  0  0  0  0
   26.4274  -19.1333  -15.1459 O   0  0  0  0  0  0  0  0  0  0  0  0
   28.0739  -20.4954  -14.2153 C   0  0  2  0  0  0  0  0  0  0  0  0
   27.7660  -21.3740  -15.3355 N   0  0  0  0  0  0  0  0  0  0  0  0
   27.2732  -20.9551  -13.0491 C   0  0  0  0  0  0  0  0  0  0  0  0
   26.2900  -21.7170  -13.2563 O   0  0  0  0  0  0  0  0  0  0  0  0
   27.5742  -20.5728  -11.7486 N   0  0  0  0  0  0  0  0  0  0  0  0
   26.8012  -20.9729  -10.5539 C   0  0  1  0  0  0  0  0  0  0  0  0
   27.6588  -20.9300   -9.3627 C   0  0  0  0  0  0  0  0  0  0  0  0
   26.9559  -20.7608   -8.0982 C   0  0  0  0  0  0  0  0  0  0  0  0
   25.6584  -21.0359   -7.7240 C   0  0  0  0  0  0  0  0  0  0  0  0
   25.4829  -20.7076   -6.4331 N   0  0  0  0  0  0  0  0  0  0  0  0
   26.6007  -20.2218   -5.9098 C   0  0  0  0  0  0  0  0  0  0  0  0
   26.9185  -19.7785   -4.6427 C   0  0  0  0  0  0  0  0  0  0  0  0
   28.2060  -19.3358   -4.3518 C   0  0  0  0  0  0  0  0  0  0  0  0
   29.1491  -19.3508   -5.3573 C   0  0  0  0  0  0  0  0  0  0  0  0
   28.8133  -19.7987   -6.6260 C   0  0  0  0  0  0  0  0  0  0  0  0
   27.5438  -20.2438   -6.9389 C   0  0  0  0  0  0  0  0  0  0  0  0
   25.5552  -20.2311  -10.6019 C   0  0  0  0  0  0  0  0  0  0  0  0
   25.6124  -18.9732  -10.8225 O   0  0  0  0  0  0  0  0  0  0  0  0
   23.6035  -20.0803  -15.8349 N   0  0  0  0  0  0  0  0  0  0  0  0
   22.7897  -19.3446  -14.9104 C   0  0  0  0  0  0  0  0  0  0  0  0
   22.4373  -18.1995  -15.2419 O   0  0  0  0  0  0  0  0  0  0  0  0
   22.3963  -19.9154  -13.6313 C   0  0  0  0  0  0  0  0  0  0  0  0
   23.4510  -20.2939  -12.6765 C   0  0  0  0  0  0  0  0  0  0  0  0
   23.1181  -20.1460  -11.1989 C   0  0  2  0  0  0  0  0  0  0  0  0
   24.2313  -20.7642  -10.4374 N   0  0  0  0  0  0  0  0  0  0  0  0
   21.8811  -20.7782  -10.7697 C   0  0  0  0  0  0  0  0  0  0  0  0
   20.7593  -20.1793  -10.6467 O   0  0  0  0  0  0  0  0  0  0  0  0
   21.8558  -22.1264  -10.4626 O   0  0  0  0  0  0  0  0  0  0  0  0
  2  1  1  6
  2  3  1  0
  4  2  1  0
  4  5  1  6
  6  8  1  0
  6  4  1  0
  7  6  2  0
  9 10  1  1
  9  8  1  0
 10 11  1  0
 11 19  1  0
 11 12  2  0
 12 13  1  0
 14 13  1  0
 14 15  2  0
 16 15  1  0
 17 16  2  0
 18 19  2  0
 18 17  1  0
 19 14  1  0
 20  9  1  0
 20 21  2  0
 22 23  1  0
 23 24  2  0
 25 23  1  0
 25 26  1  0
 27 26  1  6
 27 29  1  0
 27 28  1  0
 28 20  1  0
 29 31  1  0
 30 29  2  0
M  END
$$$$
