TWQ.pdb
     RDKit          3D

 31 32  0  0  1  0  0  0  0  0999 V2000
   29.1479  -18.2824  -15.0477 C   0  0  0  0  0  0  0  0  0  0  0  0
   28.1463  -19.0046  -14.2001 C   0  0  1  0  0  0  0  0  0  0  0  0
   26.9813  -19.1610  -14.9906 O   0  0  0  0  0  0  0  0  0  0  0  0
   28.5827  -20.4060  -13.8426 C   0  0  2  0  0  0  0  0  0  0  0  0
   28.7094  -21.1856  -15.0664 N   0  0  0  0  0  0  0  0  0  0  0  0
   27.5856  -21.0884  -12.9751 C   0  0  0  0  0  0  0  0  0  0  0  0
   26.7827  -21.9028  -13.5061 O   0  0  0  0  0  0  0  0  0  0  0  0
   27.5134  -20.8566  -11.6080 N   0  0  0  0  0  0  0  0  0  0  0  0
   26.5017  -21.4477  -10.7068 C   0  0  1  0  0  0  0  0  0  0  0  0
   27.1121  -21.7763   -9.4124 C   0  0  0  0  0  0  0  0  0  0  0  0
   27.0709  -20.7119   -8.4191 C   0  0  0  0  0  0  0  0  0  0  0  0
   26.3189  -19.5598   -8.3373 C   0  0  0  0  0  0  0  0  0  0  0  0
   26.6392  -18.8917   -7.2165 N   0  0  0  0  0  0  0  0  0  0  0  0
   27.5744  -19.5351   -6.5303 C   0  0  0  0  0  0  0  0  0  0  0  0
   28.1985  -19.2651   -5.3300 C   0  0  0  0  0  0  0  0  0  0  0  0
   29.1468  -20.1441   -4.8139 C   0  0  0  0  0  0  0  0  0  0  0  0
   29.4449  -21.2840   -5.5299 C   0  0  0  0  0  0  0  0  0  0  0  0
   28.8091  -21.5403   -6.7353 C   0  0  0  0  0  0  0  0  0  0  0  0
   27.8643  -20.6846   -7.2673 C   0  0  0  0  0  0  0  0  0  0  0  0
   25.3321  -20.5925  -10.7832 C   0  0  0  0  0  0  0  0  0  0  0  0
   25.5073  -19.3580  -11.0653 O   0  0  0  0  0  0  0  0  0  0  0  0
   19.9050  -20.8365  -14.1432 N   0  0  0  0  0  0  0  0  0  0  0  0
   21.2807  -21.1614  -14.3882 C   0  0  0  0  0  0  0  0  0  0  0  0
   21.5209  -22.2190  -14.9959 O   0  0  0  0  0  0  0  0  0  0  0  0
   22.3541  -20.2887  -13.9378 C   0  0  0  0  0  0  0  0  0  0  0  0
   23.2638  -20.7775  -12.8885 C   0  0  0  0  0  0  0  0  0  0  0  0
   22.9217  -20.3931  -11.4562 C   0  0  2  0  0  0  0  0  0  0  0  0
   23.9650  -20.9871  -10.5846 N   0  0  0  0  0  0  0  0  0  0  0  0
   21.6279  -20.8523  -10.9770 C   0  0  0  0  0  0  0  0  0  0  0  0
   20.5831  -20.1233  -10.8833 O   0  0  0  0  0  0  0  0  0  0  0  0
   21.4553  -22.1669  -10.5838 O   0  0  0  0  0  0  0  0  0  0  0  0
  2  1  1  6
  2  3  1  0
  4  2  1  0
  4  5  1  6
  6  8  1  0
  6  4  1  0
  7  6  2  0
  9 10  1  1
  9  8  1  0
 10 11  1  0
 11 19  1  0
 11 12  2  0
 12 13  1  0
 14 13  1  0
 14 15  2  0
 16 15  1  0
 17 16  2  0
 18 19  2  0
 18 17  1  0
 19 14  1  0
 20  9  1  0
 20 21  2  0
 22 23  1  0
 23 24  2  0
 25 23  1  0
 25 26  1  0
 27 26  1  6
 27 29  1  0
 27 28  1  0
 28 20  1  0
 29 31  1  0
 30 29  2  0
M  END
$$$$
