TWQ.pdb
     RDKit          3D

 31 32  0  0  1  0  0  0  0  0999 V2000
   26.8351  -19.7471  -16.4037 C   0  0  0  0  0  0  0  0  0  0  0  0
   27.2784  -21.0860  -16.9077 C   0  0  1  0  0  0  0  0  0  0  0  0
   28.1856  -20.8420  -17.9679 O   0  0  0  0  0  0  0  0  0  0  0  0
   28.0601  -21.8699  -15.8799 C   0  0  2  0  0  0  0  0  0  0  0  0
   28.3216  -23.2032  -16.4046 N   0  0  0  0  0  0  0  0  0  0  0  0
   27.2991  -22.0263  -14.6115 C   0  0  0  0  0  0  0  0  0  0  0  0
   26.3634  -22.8706  -14.5708 O   0  0  0  0  0  0  0  0  0  0  0  0
   27.5864  -21.2754  -13.4794 N   0  0  0  0  0  0  0  0  0  0  0  0
   26.8310  -21.3437  -12.2106 C   0  0  1  0  0  0  0  0  0  0  0  0
   27.6606  -20.8494  -11.1045 C   0  0  0  0  0  0  0  0  0  0  0  0
   26.9414  -20.5584   -9.8717 C   0  0  0  0  0  0  0  0  0  0  0  0
   25.5945  -20.4938   -9.5869 C   0  0  0  0  0  0  0  0  0  0  0  0
   25.4229  -20.1919   -8.2890 N   0  0  0  0  0  0  0  0  0  0  0  0
   26.5902  -20.0480   -7.6758 C   0  0  0  0  0  0  0  0  0  0  0  0
   26.9251  -19.7663   -6.3676 C   0  0  0  0  0  0  0  0  0  0  0  0
   28.2603  -19.6984   -5.9795 C   0  0  0  0  0  0  0  0  0  0  0  0
   29.2335  -19.9175   -6.9312 C   0  0  0  0  0  0  0  0  0  0  0  0
   28.8802  -20.1988   -8.2424 C   0  0  0  0  0  0  0  0  0  0  0  0
   27.5630  -20.2728   -8.6515 C   0  0  0  0  0  0  0  0  0  0  0  0
   25.5255  -20.7696  -12.4770 C   0  0  0  0  0  0  0  0  0  0  0  0
   25.4728  -19.5595  -12.8857 O   0  0  0  0  0  0  0  0  0  0  0  0
   23.5634  -22.6102  -16.4666 N   0  0  0  0  0  0  0  0  0  0  0  0
   23.3844  -21.1868  -16.4643 C   0  0  0  0  0  0  0  0  0  0  0  0
   23.6699  -20.5711  -17.5058 O   0  0  0  0  0  0  0  0  0  0  0  0
   22.8924  -20.4899  -15.2858 C   0  0  0  0  0  0  0  0  0  0  0  0
   22.5828  -21.2780  -14.0814 C   0  0  0  0  0  0  0  0  0  0  0  0
   23.0310  -20.6930  -12.7499 C   0  0  2  0  0  0  0  0  0  0  0  0
   24.2547  -21.4259  -12.3417 N   0  0  0  0  0  0  0  0  0  0  0  0
   22.0683  -20.7966  -11.6651 C   0  0  0  0  0  0  0  0  0  0  0  0
   22.2133  -21.5273  -10.6272 O   0  0  0  0  0  0  0  0  0  0  0  0
   20.8922  -20.0700  -11.7034 O   0  0  0  0  0  0  0  0  0  0  0  0
  2  1  1  1
  2  3  1  0
  4  2  1  0
  4  5  1  6
  6  8  1  0
  6  4  1  0
  7  6  2  0
  9 10  1  1
  9  8  1  0
 10 11  1  0
 11 19  1  0
 11 12  2  0
 12 13  1  0
 14 13  1  0
 14 15  2  0
 16 15  1  0
 17 16  2  0
 18 19  2  0
 18 17  1  0
 19 14  1  0
 20  9  1  0
 20 21  2  0
 22 23  1  0
 23 24  2  0
 25 23  1  0
 25 26  1  0
 27 26  1  6
 27 29  1  0
 27 28  1  0
 28 20  1  0
 29 31  1  0
 30 29  2  0
M  END
$$$$
