TWQ.pdb
     RDKit          3D

 31 32  0  0  1  0  0  0  0  0999 V2000
   21.6918  -34.8466  -13.7120 C   0  0  0  0  0  0  0  0  0  0  0  0
   23.1768  -34.8418  -13.9064 C   0  0  1  0  0  0  0  0  0  0  0  0
   23.4441  -35.6741  -15.0211 O   0  0  0  0  0  0  0  0  0  0  0  0
   23.7147  -33.4808  -14.2808 C   0  0  2  0  0  0  0  0  0  0  0  0
   25.1592  -33.5743  -14.4429 N   0  0  0  0  0  0  0  0  0  0  0  0
   23.4448  -32.4720  -13.2216 C   0  0  0  0  0  0  0  0  0  0  0  0
   24.2714  -32.3549  -12.2767 O   0  0  0  0  0  0  0  0  0  0  0  0
   22.3176  -31.6614  -13.2425 N   0  0  0  0  0  0  0  0  0  0  0  0
   22.0387  -30.5831  -12.2706 C   0  0  1  0  0  0  0  0  0  0  0  0
   21.1801  -29.5625  -12.8848 C   0  0  0  0  0  0  0  0  0  0  0  0
   20.7755  -28.4782  -12.0003 C   0  0  0  0  0  0  0  0  0  0  0  0
   21.2000  -28.1124  -10.7412 C   0  0  0  0  0  0  0  0  0  0  0  0
   20.5218  -27.0258  -10.3356 N   0  0  0  0  0  0  0  0  0  0  0  0
   19.6549  -26.6338  -11.2599 C   0  0  0  0  0  0  0  0  0  0  0  0
   18.7677  -25.5789  -11.3151 C   0  0  0  0  0  0  0  0  0  0  0  0
   17.9773  -25.3795  -12.4436 C   0  0  0  0  0  0  0  0  0  0  0  0
   18.1026  -26.2592  -13.4978 C   0  0  0  0  0  0  0  0  0  0  0  0
   18.9986  -27.3152  -13.4261 C   0  0  0  0  0  0  0  0  0  0  0  0
   19.7944  -27.5332  -12.3184 C   0  0  0  0  0  0  0  0  0  0  0  0
   21.6534  -31.2340  -11.0325 C   0  0  0  0  0  0  0  0  0  0  0  0
   20.8939  -32.2599  -11.1035 O   0  0  0  0  0  0  0  0  0  0  0  0
   25.6116  -31.9312   -7.4677 N   0  0  0  0  0  0  0  0  0  0  0  0
   24.7788  -33.0445   -7.1143 C   0  0  0  0  0  0  0  0  0  0  0  0
   25.3438  -34.1018   -6.7853 O   0  0  0  0  0  0  0  0  0  0  0  0
   23.3278  -32.9413   -7.1447 C   0  0  0  0  0  0  0  0  0  0  0  0
   22.7227  -31.6542   -7.5249 C   0  0  0  0  0  0  0  0  0  0  0  0
   21.6142  -31.7031   -8.5664 C   0  0  2  0  0  0  0  0  0  0  0  0
   22.0473  -30.8547   -9.7039 N   0  0  0  0  0  0  0  0  0  0  0  0
   20.3162  -31.2217   -8.1220 C   0  0  0  0  0  0  0  0  0  0  0  0
   19.8859  -30.0293   -8.2807 O   0  0  0  0  0  0  0  0  0  0  0  0
   19.4384  -32.0742   -7.4775 O   0  0  0  0  0  0  0  0  0  0  0  0
  2  1  1  6
  2  3  1  0
  4  2  1  0
  4  5  1  1
  6  8  1  0
  6  4  1  0
  7  6  2  0
  9 10  1  6
  9  8  1  0
 10 11  1  0
 11 19  1  0
 11 12  2  0
 12 13  1  0
 14 13  1  0
 14 15  2  0
 16 15  1  0
 17 16  2  0
 18 19  2  0
 18 17  1  0
 19 14  1  0
 20  9  1  0
 20 21  2  0
 22 23  1  0
 23 24  2  0
 25 23  1  0
 25 26  1  0
 27 26  1  1
 27 29  1  0
 27 28  1  0
 28 20  1  0
 29 31  1  0
 30 29  2  0
M  END
$$$$
