TWQ.pdb
     RDKit          3D

 31 32  0  0  1  0  0  0  0  0999 V2000
   28.6203  -26.3428  -19.0836 C   0  0  0  0  0  0  0  0  0  0  0  0
   27.8979  -25.2357  -18.3796 C   0  0  1  0  0  0  0  0  0  0  0  0
   26.5193  -25.5588  -18.4200 O   0  0  0  0  0  0  0  0  0  0  0  0
   28.2486  -25.1463  -16.9130 C   0  0  2  0  0  0  0  0  0  0  0  0
   27.7853  -26.3544  -16.2442 N   0  0  0  0  0  0  0  0  0  0  0  0
   27.5860  -23.9867  -16.2583 C   0  0  0  0  0  0  0  0  0  0  0  0
   26.6235  -24.2070  -15.4741 O   0  0  0  0  0  0  0  0  0  0  0  0
   27.9930  -22.6784  -16.4837 N   0  0  0  0  0  0  0  0  0  0  0  0
   27.4084  -21.4905  -15.8263 C   0  0  1  0  0  0  0  0  0  0  0  0
   28.4256  -20.4405  -15.6888 C   0  0  0  0  0  0  0  0  0  0  0  0
   27.9275  -19.1504  -15.2312 C   0  0  0  0  0  0  0  0  0  0  0  0
   27.2330  -18.7825  -14.0991 C   0  0  0  0  0  0  0  0  0  0  0  0
   27.0009  -17.4594  -14.1235 N   0  0  0  0  0  0  0  0  0  0  0  0
   27.5053  -16.9083  -15.2195 C   0  0  0  0  0  0  0  0  0  0  0  0
   27.5411  -15.6062  -15.6739 C   0  0  0  0  0  0  0  0  0  0  0  0
   28.1742  -15.2944  -16.8739 C   0  0  0  0  0  0  0  0  0  0  0  0
   28.7598  -16.3147  -17.5927 C   0  0  0  0  0  0  0  0  0  0  0  0
   28.7142  -17.6185  -17.1226 C   0  0  0  0  0  0  0  0  0  0  0  0
   28.0935  -17.9528  -15.9348 C   0  0  0  0  0  0  0  0  0  0  0  0
   26.1501  -21.2253  -16.4982 C   0  0  0  0  0  0  0  0  0  0  0  0
   26.0704  -21.4805  -17.7482 O   0  0  0  0  0  0  0  0  0  0  0  0
   21.9443  -21.2377  -13.1121 N   0  0  0  0  0  0  0  0  0  0  0  0
   22.0416  -22.3332  -14.0333 C   0  0  0  0  0  0  0  0  0  0  0  0
   21.8873  -23.4800  -13.5791 O   0  0  0  0  0  0  0  0  0  0  0  0
   22.3156  -22.1104  -15.4447 C   0  0  0  0  0  0  0  0  0  0  0  0
   22.5331  -20.7303  -15.9090 C   0  0  0  0  0  0  0  0  0  0  0  0
   23.7659  -20.4860  -16.7673 C   0  0  2  0  0  0  0  0  0  0  0  0
   24.9503  -20.7067  -15.9015 N   0  0  0  0  0  0  0  0  0  0  0  0
   23.8759  -19.1539  -17.3397 C   0  0  0  0  0  0  0  0  0  0  0  0
   24.6669  -18.2422  -16.9212 O   0  0  0  0  0  0  0  0  0  0  0  0
   23.0941  -18.7920  -18.4216 O   0  0  0  0  0  0  0  0  0  0  0  0
  2  1  1  1
  2  3  1  0
  4  2  1  0
  4  5  1  1
  6  8  1  0
  6  4  1  0
  7  6  2  0
  9 10  1  6
  9  8  1  0
 10 11  1  0
 11 19  1  0
 11 12  2  0
 12 13  1  0
 14 13  1  0
 14 15  2  0
 16 15  1  0
 17 16  2  0
 18 19  2  0
 18 17  1  0
 19 14  1  0
 20  9  1  0
 20 21  2  0
 22 23  1  0
 23 24  2  0
 25 23  1  0
 25 26  1  0
 27 26  1  1
 27 29  1  0
 27 28  1  0
 28 20  1  0
 29 31  1  0
 30 29  2  0
M  END
$$$$
