VDN.pdb
     RDKit          3D

 24 23  0  0  1  0  0  0  0  0999 V2000
   16.6988  -12.6123  -17.4773 C   0  0  0  0  0  0  0  0  0  0  0  0
   17.9142  -13.0401  -16.6454 C   0  0  2  0  0  0  0  0  0  0  0  0
   17.6588  -14.4117  -16.1281 C   0  0  0  0  0  0  0  0  0  0  0  0
   18.1308  -11.9935  -15.6173 C   0  0  2  0  0  0  0  0  0  0  0  0
   17.1636  -12.1777  -14.5426 N   0  0  0  0  0  0  0  0  0  0  0  0
   18.2022  -10.6271  -16.0967 C   0  0  0  0  0  0  0  0  0  0  0  0
   18.9963  -10.2953  -17.0000 O   0  0  0  0  0  0  0  0  0  0  0  0
   17.3729   -9.6249  -15.5533 N   0  0  0  0  0  0  0  0  0  0  0  0
   17.4251   -8.2184  -15.9959 C   0  0  1  0  0  0  0  0  0  0  0  0
   15.9983   -7.7806  -16.1595 C   0  0  0  0  0  0  0  0  0  0  0  0
   15.3134   -8.3967  -17.3005 C   0  0  0  0  0  0  0  0  0  0  0  0
   15.3835   -7.8519  -18.4365 O   0  0  0  0  0  0  0  0  0  0  0  0
   18.2231   -7.4048  -15.0799 C   0  0  0  0  0  0  0  0  0  0  0  0
   18.0508   -7.4576  -13.8456 O   0  0  0  0  0  0  0  0  0  0  0  0
   14.6002   -9.5675  -17.1170 O   0  0  0  0  0  0  0  0  0  0  0  0
   22.2185   -5.3194  -12.3808 N   0  0  0  0  0  0  0  0  0  0  0  0
   22.2843   -5.2819  -13.7966 C   0  0  0  0  0  0  0  0  0  0  0  0
   23.0637   -4.4503  -14.3620 O   0  0  0  0  0  0  0  0  0  0  0  0
   21.4849   -6.1720  -14.6651 C   0  0  0  0  0  0  0  0  0  0  0  0
   20.0428   -5.7113  -14.7162 C   0  0  2  0  0  0  0  0  0  0  0  0
   19.2279   -6.5199  -15.5728 N   0  0  0  0  0  0  0  0  0  0  0  0
   20.0522   -4.3034  -15.2356 C   0  0  0  0  0  0  0  0  0  0  0  0
   19.9980   -4.0930  -16.4693 O   0  0  0  0  0  0  0  0  0  0  0  0
   20.1194   -3.2405  -14.3695 O   0  0  0  0  0  0  0  0  0  0  0  0
  2  1  1  1
  2  4  1  0
  3  2  1  0
  4  6  1  0
  4  5  1  1
  6  7  2  0
  8  9  1  0
  8  6  1  0
  9 10  1  1
 10 11  1  0
 11 12  2  0
 11 15  1  0
 13 14  2  0
 13  9  1  0
 16 17  1  0
 17 18  2  0
 17 19  1  0
 20 19  1  6
 20 22  1  0
 20 21  1  0
 21 13  1  0
 22 24  1  0
 23 22  2  0
M  END
$$$$
