VDN.pdb
     RDKit          3D

 24 23  0  0  1  0  0  0  0  0999 V2000
   15.9788  -15.8856  -14.2856 C   0  0  0  0  0  0  0  0  0  0  0  0
   16.8842  -14.7862  -13.7164 C   0  0  2  0  0  0  0  0  0  0  0  0
   16.1348  -14.0835  -12.6400 C   0  0  0  0  0  0  0  0  0  0  0  0
   17.3173  -13.9425  -14.8565 C   0  0  2  0  0  0  0  0  0  0  0  0
   17.9618  -14.7879  -15.8537 N   0  0  0  0  0  0  0  0  0  0  0  0
   18.0864  -12.7592  -14.5243 C   0  0  0  0  0  0  0  0  0  0  0  0
   19.3184  -12.7095  -14.7154 O   0  0  0  0  0  0  0  0  0  0  0  0
   17.4633  -11.6223  -13.9710 N   0  0  0  0  0  0  0  0  0  0  0  0
   18.1778  -10.3518  -13.7423 C   0  0  1  0  0  0  0  0  0  0  0  0
   18.7204   -9.9334  -15.0783 C   0  0  0  0  0  0  0  0  0  0  0  0
   19.4795   -8.6791  -15.0464 C   0  0  0  0  0  0  0  0  0  0  0  0
   20.2815   -8.4612  -14.0970 O   0  0  0  0  0  0  0  0  0  0  0  0
   17.3146   -9.3699  -13.0876 C   0  0  0  0  0  0  0  0  0  0  0  0
   16.1452   -9.1724  -13.4740 O   0  0  0  0  0  0  0  0  0  0  0  0
   19.3071   -7.7515  -16.0578 O   0  0  0  0  0  0  0  0  0  0  0  0
   15.2988   -5.9392   -9.8457 N   0  0  0  0  0  0  0  0  0  0  0  0
   16.2019   -6.7644   -9.1290 C   0  0  0  0  0  0  0  0  0  0  0  0
   16.2452   -6.6849   -7.8599 O   0  0  0  0  0  0  0  0  0  0  0  0
   17.1090   -7.7288   -9.7867 C   0  0  0  0  0  0  0  0  0  0  0  0
   16.9736   -7.6451  -11.2931 C   0  0  2  0  0  0  0  0  0  0  0  0
   17.7869   -8.6025  -11.9813 N   0  0  0  0  0  0  0  0  0  0  0  0
   17.3997   -6.2630  -11.6936 C   0  0  0  0  0  0  0  0  0  0  0  0
   18.4977   -6.0913  -12.2716 O   0  0  0  0  0  0  0  0  0  0  0  0
   16.5954   -5.1817  -11.4325 O   0  0  0  0  0  0  0  0  0  0  0  0
  2  1  1  6
  2  4  1  0
  3  2  1  0
  4  6  1  0
  4  5  1  6
  6  7  2  0
  8  9  1  0
  8  6  1  0
  9 10  1  6
 10 11  1  0
 11 12  2  0
 11 15  1  0
 13 14  2  0
 13  9  1  0
 16 17  1  0
 17 18  2  0
 17 19  1  0
 20 19  1  1
 20 22  1  0
 20 21  1  0
 21 13  1  0
 22 24  1  0
 23 22  2  0
M  END
$$$$
