VDN.pdb
     RDKit          3D

 24 23  0  0  1  0  0  0  0  0999 V2000
   17.6477  -12.1880  -16.8912 C   0  0  0  0  0  0  0  0  0  0  0  0
   16.6838  -11.8189  -15.7567 C   0  0  2  0  0  0  0  0  0  0  0  0
   15.3033  -12.1574  -16.1967 C   0  0  0  0  0  0  0  0  0  0  0  0
   16.9234  -10.3933  -15.4257 C   0  0  2  0  0  0  0  0  0  0  0  0
   16.4031   -9.5624  -16.5043 N   0  0  0  0  0  0  0  0  0  0  0  0
   18.2745  -10.0433  -15.0329 C   0  0  0  0  0  0  0  0  0  0  0  0
   18.7901  -10.5044  -13.9945 O   0  0  0  0  0  0  0  0  0  0  0  0
   19.0515   -9.1653  -15.8155 N   0  0  0  0  0  0  0  0  0  0  0  0
   20.3765   -8.6757  -15.3892 C   0  0  1  0  0  0  0  0  0  0  0  0
   21.3848   -9.5089  -16.1264 C   0  0  0  0  0  0  0  0  0  0  0  0
   22.7767   -9.2048  -15.7791 C   0  0  0  0  0  0  0  0  0  0  0  0
   23.1298   -8.0041  -15.6181 O   0  0  0  0  0  0  0  0  0  0  0  0
   20.4971   -7.2325  -15.5907 C   0  0  0  0  0  0  0  0  0  0  0  0
   20.3469   -6.7188  -16.7173 O   0  0  0  0  0  0  0  0  0  0  0  0
   23.6844  -10.2380  -15.6317 O   0  0  0  0  0  0  0  0  0  0  0  0
   20.9152   -2.1525  -14.8318 N   0  0  0  0  0  0  0  0  0  0  0  0
   19.8674   -2.7567  -14.0921 C   0  0  0  0  0  0  0  0  0  0  0  0
   18.9936   -2.0193  -13.5338 O   0  0  0  0  0  0  0  0  0  0  0  0
   19.7318   -4.2202  -13.9331 C   0  0  0  0  0  0  0  0  0  0  0  0
   20.8662   -4.9392  -14.6338 C   0  0  2  0  0  0  0  0  0  0  0  0
   20.7932   -6.3633  -14.4987 N   0  0  0  0  0  0  0  0  0  0  0  0
   22.1421   -4.4532  -14.0108 C   0  0  0  0  0  0  0  0  0  0  0  0
   22.6837   -5.1181  -13.0977 O   0  0  0  0  0  0  0  0  0  0  0  0
   22.7237   -3.2837  -14.4334 O   0  0  0  0  0  0  0  0  0  0  0  0
  2  1  1  6
  2  4  1  0
  3  2  1  0
  4  6  1  0
  4  5  1  6
  6  7  2  0
  8  9  1  0
  8  6  1  0
  9 10  1  6
 10 11  1  0
 11 12  2  0
 11 15  1  0
 13 14  2  0
 13  9  1  0
 16 17  1  0
 17 18  2  0
 17 19  1  0
 20 19  1  1
 20 22  1  0
 20 21  1  0
 21 13  1  0
 22 24  1  0
 23 22  2  0
M  END
$$$$
