VDN.pdb
     RDKit          3D

 24 23  0  0  1  0  0  0  0  0999 V2000
   25.7663  -13.0379  -15.1620 C   0  0  0  0  0  0  0  0  0  0  0  0
   24.8987  -11.8510  -15.5989 C   0  0  2  0  0  0  0  0  0  0  0  0
   25.4095  -10.6312  -14.9168 C   0  0  0  0  0  0  0  0  0  0  0  0
   23.4892  -12.2093  -15.3087 C   0  0  2  0  0  0  0  0  0  0  0  0
   23.2024  -13.5143  -15.8912 N   0  0  0  0  0  0  0  0  0  0  0  0
   22.4923  -11.2065  -15.6294 C   0  0  0  0  0  0  0  0  0  0  0  0
   22.1783  -10.9562  -16.8107 O   0  0  0  0  0  0  0  0  0  0  0  0
   21.8441  -10.4783  -14.6113 N   0  0  0  0  0  0  0  0  0  0  0  0
   20.8327   -9.4413  -14.8912 C   0  0  1  0  0  0  0  0  0  0  0  0
   19.5794   -9.8830  -14.1922 C   0  0  0  0  0  0  0  0  0  0  0  0
   18.4404   -8.9797  -14.3843 C   0  0  0  0  0  0  0  0  0  0  0  0
   18.3194   -8.3538  -15.4732 O   0  0  0  0  0  0  0  0  0  0  0  0
   21.3180   -8.1140  -14.5160 C   0  0  0  0  0  0  0  0  0  0  0  0
   22.1811   -7.9647  -13.6280 O   0  0  0  0  0  0  0  0  0  0  0  0
   17.5129   -8.8259  -13.3698 O   0  0  0  0  0  0  0  0  0  0  0  0
   22.4602   -3.0787  -14.6825 N   0  0  0  0  0  0  0  0  0  0  0  0
   22.9859   -3.9356  -15.6824 C   0  0  0  0  0  0  0  0  0  0  0  0
   23.9593   -3.5349  -16.3970 O   0  0  0  0  0  0  0  0  0  0  0  0
   22.4571   -5.2913  -15.9425 C   0  0  0  0  0  0  0  0  0  0  0  0
   21.3707   -5.6394  -14.9459 C   0  0  2  0  0  0  0  0  0  0  0  0
   20.8153   -6.9427  -15.1571 N   0  0  0  0  0  0  0  0  0  0  0  0
   20.2868   -4.6137  -15.1055 C   0  0  0  0  0  0  0  0  0  0  0  0
   19.4675   -4.7129  -16.0479 O   0  0  0  0  0  0  0  0  0  0  0  0
   20.1837   -3.5648  -14.2260 O   0  0  0  0  0  0  0  0  0  0  0  0
  2  1  1  1
  2  4  1  0
  3  2  1  0
  4  6  1  0
  4  5  1  6
  6  7  2  0
  8  9  1  0
  8  6  1  0
  9 10  1  1
 10 11  1  0
 11 12  2  0
 11 15  1  0
 13 14  2  0
 13  9  1  0
 16 17  1  0
 17 18  2  0
 17 19  1  0
 20 19  1  6
 20 22  1  0
 20 21  1  0
 21 13  1  0
 22 24  1  0
 23 22  2  0
M  END
$$$$
