VDN.pdb
     RDKit          3D

 24 23  0  0  1  0  0  0  0  0999 V2000
   15.6503  -13.8240  -16.5152 C   0  0  0  0  0  0  0  0  0  0  0  0
   16.7605  -12.8349  -16.1389 C   0  0  2  0  0  0  0  0  0  0  0  0
   16.2499  -11.4574  -16.3753 C   0  0  0  0  0  0  0  0  0  0  0  0
   17.9669  -13.2166  -16.9123 C   0  0  2  0  0  0  0  0  0  0  0  0
   18.2904  -14.6093  -16.6290 N   0  0  0  0  0  0  0  0  0  0  0  0
   19.1080  -12.3290  -16.8023 C   0  0  0  0  0  0  0  0  0  0  0  0
   19.8239  -12.3135  -15.7805 O   0  0  0  0  0  0  0  0  0  0  0  0
   19.4455  -11.4500  -17.8515 N   0  0  0  0  0  0  0  0  0  0  0  0
   20.6513  -10.6002  -17.8247 C   0  0  1  0  0  0  0  0  0  0  0  0
   21.1349  -10.5195  -19.2439 C   0  0  0  0  0  0  0  0  0  0  0  0
   22.3483   -9.7139  -19.4146 C   0  0  0  0  0  0  0  0  0  0  0  0
   22.2492   -8.4665  -19.5771 O   0  0  0  0  0  0  0  0  0  0  0  0
   20.3772   -9.3128  -17.1880 C   0  0  0  0  0  0  0  0  0  0  0  0
   19.3253   -8.6840  -17.4199 O   0  0  0  0  0  0  0  0  0  0  0  0
   23.5857  -10.3316  -19.3945 O   0  0  0  0  0  0  0  0  0  0  0  0
   21.0536   -4.8915  -14.5423 N   0  0  0  0  0  0  0  0  0  0  0  0
   21.8143   -5.8942  -13.8896 C   0  0  0  0  0  0  0  0  0  0  0  0
   22.3664   -5.6298  -12.7742 O   0  0  0  0  0  0  0  0  0  0  0  0
   22.0024   -7.2522  -14.4427 C   0  0  0  0  0  0  0  0  0  0  0  0
   21.0888   -7.4748  -15.6302 C   0  0  2  0  0  0  0  0  0  0  0  0
   21.3106   -8.7330  -16.2779 N   0  0  0  0  0  0  0  0  0  0  0  0
   21.3624   -6.3674  -16.6053 C   0  0  0  0  0  0  0  0  0  0  0  0
   20.6258   -5.3543  -16.6221 O   0  0  0  0  0  0  0  0  0  0  0  0
   22.4156   -6.4536  -17.4815 O   0  0  0  0  0  0  0  0  0  0  0  0
  2  1  1  6
  2  4  1  0
  3  2  1  0
  4  6  1  0
  4  5  1  1
  6  7  2  0
  8  9  1  0
  8  6  1  0
  9 10  1  6
 10 11  1  0
 11 12  2  0
 11 15  1  0
 13 14  2  0
 13  9  1  0
 16 17  1  0
 17 18  2  0
 17 19  1  0
 20 19  1  1
 20 22  1  0
 20 21  1  0
 21 13  1  0
 22 24  1  0
 23 22  2  0
M  END
$$$$
