VDN.pdb
     RDKit          3D

 24 23  0  0  1  0  0  0  0  0999 V2000
   16.1893  -13.7064  -16.5520 C   0  0  0  0  0  0  0  0  0  0  0  0
   17.5571  -14.0620  -17.1478 C   0  0  2  0  0  0  0  0  0  0  0  0
   17.8269  -15.4964  -16.8586 C   0  0  0  0  0  0  0  0  0  0  0  0
   18.5389  -13.0974  -16.5955 C   0  0  2  0  0  0  0  0  0  0  0  0
   18.7928  -13.4273  -15.1986 N   0  0  0  0  0  0  0  0  0  0  0  0
   18.2500  -11.6929  -16.8097 C   0  0  0  0  0  0  0  0  0  0  0  0
   18.3096  -11.1826  -17.9467 O   0  0  0  0  0  0  0  0  0  0  0  0
   17.8918  -10.8551  -15.7341 N   0  0  0  0  0  0  0  0  0  0  0  0
   17.5711   -9.4254  -15.9078 C   0  0  1  0  0  0  0  0  0  0  0  0
   16.0843   -9.3085  -15.7339 C   0  0  0  0  0  0  0  0  0  0  0  0
   15.5866   -7.9298  -15.7750 C   0  0  0  0  0  0  0  0  0  0  0  0
   14.6675   -7.5762  -14.9860 O   0  0  0  0  0  0  0  0  0  0  0  0
   18.3687   -8.5915  -15.0099 C   0  0  0  0  0  0  0  0  0  0  0  0
   18.3511   -8.7649  -13.7748 O   0  0  0  0  0  0  0  0  0  0  0  0
   16.1315   -7.0344  -16.6776 O   0  0  0  0  0  0  0  0  0  0  0  0
   21.6253   -5.0668  -13.1143 N   0  0  0  0  0  0  0  0  0  0  0  0
   22.1212   -5.5155  -14.3644 C   0  0  0  0  0  0  0  0  0  0  0  0
   23.2928   -5.1772  -14.7275 O   0  0  0  0  0  0  0  0  0  0  0  0
   21.3390   -6.3701  -15.2829 C   0  0  0  0  0  0  0  0  0  0  0  0
   19.9870   -6.6978  -14.6835 C   0  0  2  0  0  0  0  0  0  0  0  0
   19.1951   -7.5473  -15.5221 N   0  0  0  0  0  0  0  0  0  0  0  0
   19.2683   -5.3948  -14.4887 C   0  0  0  0  0  0  0  0  0  0  0  0
   18.9060   -4.7269  -15.4846 O   0  0  0  0  0  0  0  0  0  0  0  0
   19.0028   -4.9264  -13.2260 O   0  0  0  0  0  0  0  0  0  0  0  0
  2  1  1  1
  2  4  1  0
  3  2  1  0
  4  6  1  0
  4  5  1  1
  6  7  2  0
  8  9  1  0
  8  6  1  0
  9 10  1  1
 10 11  1  0
 11 12  2  0
 11 15  1  0
 13 14  2  0
 13  9  1  0
 16 17  1  0
 17 18  2  0
 17 19  1  0
 20 19  1  6
 20 22  1  0
 20 21  1  0
 21 13  1  0
 22 24  1  0
 23 22  2  0
M  END
$$$$
