VDN.pdb
     RDKit          3D

 24 23  0  0  1  0  0  0  0  0999 V2000
   15.2440  -12.5868  -15.3138 C   0  0  0  0  0  0  0  0  0  0  0  0
   16.1019  -12.9406  -16.5349 C   0  0  2  0  0  0  0  0  0  0  0  0
   15.6203  -14.2407  -17.0753 C   0  0  0  0  0  0  0  0  0  0  0  0
   17.5187  -12.9095  -16.0978 C   0  0  2  0  0  0  0  0  0  0  0  0
   17.7809  -14.0713  -15.2574 N   0  0  0  0  0  0  0  0  0  0  0  0
   17.9849  -11.6653  -15.5178 C   0  0  0  0  0  0  0  0  0  0  0  0
   17.8183  -11.4088  -14.3081 O   0  0  0  0  0  0  0  0  0  0  0  0
   18.6436  -10.7006  -16.3069 N   0  0  0  0  0  0  0  0  0  0  0  0
   19.1575   -9.4326  -15.7544 C   0  0  1  0  0  0  0  0  0  0  0  0
   20.5183   -9.2372  -16.3581 C   0  0  0  0  0  0  0  0  0  0  0  0
   21.2201   -8.0451  -15.8714 C   0  0  0  0  0  0  0  0  0  0  0  0
   21.9180   -7.3636  -16.6718 O   0  0  0  0  0  0  0  0  0  0  0  0
   18.2154   -8.3372  -15.9792 C   0  0  0  0  0  0  0  0  0  0  0  0
   17.6371   -8.1918  -17.0747 O   0  0  0  0  0  0  0  0  0  0  0  0
   21.1072   -7.6826  -14.5413 O   0  0  0  0  0  0  0  0  0  0  0  0
   15.2075   -4.1814  -15.3041 N   0  0  0  0  0  0  0  0  0  0  0  0
   14.9556   -5.1981  -14.3486 C   0  0  0  0  0  0  0  0  0  0  0  0
   13.9442   -5.0968  -13.5833 O   0  0  0  0  0  0  0  0  0  0  0  0
   15.8171   -6.3892  -14.1918 C   0  0  0  0  0  0  0  0  0  0  0  0
   17.0135   -6.3065  -15.1173 C   0  0  2  0  0  0  0  0  0  0  0  0
   17.9283   -7.3954  -14.9466 N   0  0  0  0  0  0  0  0  0  0  0  0
   17.7199   -5.0201  -14.8040 C   0  0  0  0  0  0  0  0  0  0  0  0
   17.1591   -3.9258  -15.0434 O   0  0  0  0  0  0  0  0  0  0  0  0
   18.9782   -5.0306  -14.2554 O   0  0  0  0  0  0  0  0  0  0  0  0
  2  1  1  1
  2  4  1  0
  3  2  1  0
  4  6  1  0
  4  5  1  1
  6  7  2  0
  8  9  1  0
  8  6  1  0
  9 10  1  6
 10 11  1  0
 11 12  2  0
 11 15  1  0
 13 14  2  0
 13  9  1  0
 16 17  1  0
 17 18  2  0
 17 19  1  0
 20 19  1  1
 20 22  1  0
 20 21  1  0
 21 13  1  0
 22 24  1  0
 23 22  2  0
M  END
$$$$
