VDN.pdb
     RDKit          3D

 24 23  0  0  1  0  0  0  0  0999 V2000
   22.7393  -16.1405  -17.5443 C   0  0  0  0  0  0  0  0  0  0  0  0
   21.2457  -15.7940  -17.5825 C   0  0  2  0  0  0  0  0  0  0  0  0
   20.5804  -16.7270  -18.5317 C   0  0  0  0  0  0  0  0  0  0  0  0
   21.1394  -14.3526  -17.9146 C   0  0  2  0  0  0  0  0  0  0  0  0
   21.4484  -14.1677  -19.3270 N   0  0  0  0  0  0  0  0  0  0  0  0
   21.8560  -13.4388  -17.0465 C   0  0  0  0  0  0  0  0  0  0  0  0
   21.5656  -13.3270  -15.8382 O   0  0  0  0  0  0  0  0  0  0  0  0
   22.9080  -12.6428  -17.5434 N   0  0  0  0  0  0  0  0  0  0  0  0
   23.5626  -11.5923  -16.7403 C   0  0  1  0  0  0  0  0  0  0  0  0
   25.0322  -11.7049  -17.0268 C   0  0  0  0  0  0  0  0  0  0  0  0
   25.8610  -10.7648  -16.2654 C   0  0  0  0  0  0  0  0  0  0  0  0
   25.3206  -10.0094  -15.4114 O   0  0  0  0  0  0  0  0  0  0  0  0
   22.9767  -10.2797  -17.0077 C   0  0  0  0  0  0  0  0  0  0  0  0
   22.7409   -9.8981  -18.1717 O   0  0  0  0  0  0  0  0  0  0  0  0
   27.2246  -10.7189  -16.4927 O   0  0  0  0  0  0  0  0  0  0  0  0
   18.0742   -7.6848  -16.2103 N   0  0  0  0  0  0  0  0  0  0  0  0
   19.4218   -7.6386  -16.6484 C   0  0  0  0  0  0  0  0  0  0  0  0
   19.8709   -6.5682  -17.1695 O   0  0  0  0  0  0  0  0  0  0  0  0
   20.3486   -8.7841  -16.5291 C   0  0  0  0  0  0  0  0  0  0  0  0
   21.7160   -8.3176  -16.0738 C   0  0  2  0  0  0  0  0  0  0  0  0
   22.6562   -9.3899  -15.9395 N   0  0  0  0  0  0  0  0  0  0  0  0
   21.5303   -7.6592  -14.7381 C   0  0  0  0  0  0  0  0  0  0  0  0
   21.0836   -6.4906  -14.6749 O   0  0  0  0  0  0  0  0  0  0  0  0
   21.8458   -8.3271  -13.5810 O   0  0  0  0  0  0  0  0  0  0  0  0
  2  1  1  6
  2  4  1  0
  3  2  1  0
  4  6  1  0
  4  5  1  6
  6  7  2  0
  8  9  1  0
  8  6  1  0
  9 10  1  6
 10 11  1  0
 11 12  2  0
 11 15  1  0
 13 14  2  0
 13  9  1  0
 16 17  1  0
 17 18  2  0
 17 19  1  0
 20 19  1  1
 20 22  1  0
 20 21  1  0
 21 13  1  0
 22 24  1  0
 23 22  2  0
M  END
$$$$
