VDN.pdb
     RDKit          3D

 24 23  0  0  1  0  0  0  0  0999 V2000
   25.5790  -11.8966  -16.9381 C   0  0  0  0  0  0  0  0  0  0  0  0
   24.7595  -12.8839  -16.0979 C   0  0  2  0  0  0  0  0  0  0  0  0
   25.5839  -14.1046  -15.8872 C   0  0  0  0  0  0  0  0  0  0  0  0
   23.4698  -13.0905  -16.8003 C   0  0  2  0  0  0  0  0  0  0  0  0
   23.7125  -13.8424  -18.0252 N   0  0  0  0  0  0  0  0  0  0  0  0
   22.6530  -11.9101  -17.0042 C   0  0  0  0  0  0  0  0  0  0  0  0
   22.7902  -11.1908  -18.0144 O   0  0  0  0  0  0  0  0  0  0  0  0
   21.6739  -11.5355  -16.0618 N   0  0  0  0  0  0  0  0  0  0  0  0
   20.7629  -10.3933  -16.2679 C   0  0  1  0  0  0  0  0  0  0  0  0
   19.3718  -10.9386  -16.1190 C   0  0  0  0  0  0  0  0  0  0  0  0
   18.9868  -11.8836  -17.1721 C   0  0  0  0  0  0  0  0  0  0  0  0
   19.3090  -11.6467  -18.3689 O   0  0  0  0  0  0  0  0  0  0  0  0
   21.0940   -9.2845  -15.3742 C   0  0  0  0  0  0  0  0  0  0  0  0
   21.2915   -9.4681  -14.1563 O   0  0  0  0  0  0  0  0  0  0  0  0
   18.2761  -13.0228  -16.8400 O   0  0  0  0  0  0  0  0  0  0  0  0
   22.0287   -3.1012  -15.2969 N   0  0  0  0  0  0  0  0  0  0  0  0
   22.1450   -4.4581  -14.9026 C   0  0  0  0  0  0  0  0  0  0  0  0
   22.4931   -4.7325  -13.7100 O   0  0  0  0  0  0  0  0  0  0  0  0
   21.8777   -5.5893  -15.8161 C   0  0  0  0  0  0  0  0  0  0  0  0
   21.4991   -6.8289  -15.0320 C   0  0  2  0  0  0  0  0  0  0  0  0
   21.2009   -7.9512  -15.8706 N   0  0  0  0  0  0  0  0  0  0  0  0
   20.2808   -6.4815  -14.2275 C   0  0  0  0  0  0  0  0  0  0  0  0
   20.3699   -6.3502  -12.9849 O   0  0  0  0  0  0  0  0  0  0  0  0
   19.0659   -6.3053  -14.8419 O   0  0  0  0  0  0  0  0  0  0  0  0
  2  1  1  6
  2  4  1  0
  3  2  1  0
  4  6  1  0
  4  5  1  6
  6  7  2  0
  8  9  1  0
  8  6  1  0
  9 10  1  1
 10 11  1  0
 11 12  2  0
 11 15  1  0
 13 14  2  0
 13  9  1  0
 16 17  1  0
 17 18  2  0
 17 19  1  0
 20 19  1  6
 20 22  1  0
 20 21  1  0
 21 13  1  0
 22 24  1  0
 23 22  2  0
M  END
$$$$
