VDN.pdb
     RDKit          3D

 24 23  0  0  1  0  0  0  0  0999 V2000
   13.9850  -11.0688  -11.6088 C   0  0  0  0  0  0  0  0  0  0  0  0
   14.3755  -11.4373  -10.1721 C   0  0  2  0  0  0  0  0  0  0  0  0
   14.2738  -12.9152  -10.0316 C   0  0  0  0  0  0  0  0  0  0  0  0
   13.5107  -10.6428   -9.2664 C   0  0  2  0  0  0  0  0  0  0  0  0
   12.1516  -11.1655   -9.3298 N   0  0  0  0  0  0  0  0  0  0  0  0
   13.5785   -9.2021   -9.4136 C   0  0  0  0  0  0  0  0  0  0  0  0
   12.7619   -8.5817  -10.1242 O   0  0  0  0  0  0  0  0  0  0  0  0
   14.5754   -8.4531   -8.7558 N   0  0  0  0  0  0  0  0  0  0  0  0
   14.7555   -7.0041   -8.9672 C   0  0  1  0  0  0  0  0  0  0  0  0
   14.5158   -6.3563   -7.6340 C   0  0  0  0  0  0  0  0  0  0  0  0
   14.4938   -4.8907   -7.6795 C   0  0  0  0  0  0  0  0  0  0  0  0
   14.6090   -4.3008   -8.7890 O   0  0  0  0  0  0  0  0  0  0  0  0
   16.0545   -6.7153   -9.5732 C   0  0  0  0  0  0  0  0  0  0  0  0
   17.0682   -6.5172   -8.8739 O   0  0  0  0  0  0  0  0  0  0  0  0
   14.3462   -4.1739   -6.5058 O   0  0  0  0  0  0  0  0  0  0  0  0
   18.5661   -8.8269  -11.3986 N   0  0  0  0  0  0  0  0  0  0  0  0
   18.2110   -8.3614  -12.6899 C   0  0  0  0  0  0  0  0  0  0  0  0
   18.3680   -9.1279  -13.6932 O   0  0  0  0  0  0  0  0  0  0  0  0
   17.6578   -7.0130  -12.9374 C   0  0  0  0  0  0  0  0  0  0  0  0
   17.4305   -6.2825  -11.6300 C   0  0  2  0  0  0  0  0  0  0  0  0
   16.2025   -6.6500  -10.9907 N   0  0  0  0  0  0  0  0  0  0  0  0
   17.3966   -4.8164  -11.9491 C   0  0  0  0  0  0  0  0  0  0  0  0
   16.3356   -4.1685  -11.7949 O   0  0  0  0  0  0  0  0  0  0  0  0
   18.5204   -4.1763  -12.4092 O   0  0  0  0  0  0  0  0  0  0  0  0
  2  1  1  6
  2  4  1  0
  3  2  1  0
  4  6  1  0
  4  5  1  6
  6  7  2  0
  8  9  1  0
  8  6  1  0
  9 10  1  1
 10 11  1  0
 11 12  2  0
 11 15  1  0
 13 14  2  0
 13  9  1  0
 16 17  1  0
 17 18  2  0
 17 19  1  0
 20 19  1  6
 20 22  1  0
 20 21  1  0
 21 13  1  0
 22 24  1  0
 23 22  2  0
M  END
$$$$
