VDN.pdb
     RDKit          3D

 24 23  0  0  1  0  0  0  0  0999 V2000
   17.5982  -12.1800  -17.6202 C   0  0  0  0  0  0  0  0  0  0  0  0
   18.3054  -12.6630  -16.3478 C   0  0  2  0  0  0  0  0  0  0  0  0
   18.7233  -14.0752  -16.5608 C   0  0  0  0  0  0  0  0  0  0  0  0
   17.3764  -12.4296  -15.2157 C   0  0  2  0  0  0  0  0  0  0  0  0
   16.2449  -13.3405  -15.3357 N   0  0  0  0  0  0  0  0  0  0  0  0
   16.9829  -11.0541  -14.9806 C   0  0  0  0  0  0  0  0  0  0  0  0
   16.0611  -10.5211  -15.6311 O   0  0  0  0  0  0  0  0  0  0  0  0
   17.6336  -10.2714  -14.0055 N   0  0  0  0  0  0  0  0  0  0  0  0
   17.2557   -8.8739  -13.7207 C   0  0  1  0  0  0  0  0  0  0  0  0
   17.3481   -8.7134  -12.2306 C   0  0  0  0  0  0  0  0  0  0  0  0
   16.6778   -7.5140  -11.7182 C   0  0  0  0  0  0  0  0  0  0  0  0
   16.1203   -6.7201  -12.5250 O   0  0  0  0  0  0  0  0  0  0  0  0
   18.0669   -7.9377  -14.4974 C   0  0  0  0  0  0  0  0  0  0  0  0
   19.3118   -8.0139  -14.5126 O   0  0  0  0  0  0  0  0  0  0  0  0
   16.6645   -7.2689  -10.3570 O   0  0  0  0  0  0  0  0  0  0  0  0
   16.2489   -6.9188  -18.9765 N   0  0  0  0  0  0  0  0  0  0  0  0
   17.4279   -6.5928  -18.2597 C   0  0  0  0  0  0  0  0  0  0  0  0
   18.4864   -7.2695  -18.4611 O   0  0  0  0  0  0  0  0  0  0  0  0
   17.4957   -5.4908  -17.2766 C   0  0  0  0  0  0  0  0  0  0  0  0
   18.2073   -5.9429  -16.0181 C   0  0  2  0  0  0  0  0  0  0  0  0
   17.4557   -6.9019  -15.2650 N   0  0  0  0  0  0  0  0  0  0  0  0
   18.4239   -4.7200  -15.1756 C   0  0  0  0  0  0  0  0  0  0  0  0
   17.8793   -4.6325  -14.0509 O   0  0  0  0  0  0  0  0  0  0  0  0
   19.2157   -3.6933  -15.6265 O   0  0  0  0  0  0  0  0  0  0  0  0
  2  1  1  6
  2  4  1  0
  3  2  1  0
  4  6  1  0
  4  5  1  6
  6  7  2  0
  8  9  1  0
  8  6  1  0
  9 10  1  1
 10 11  1  0
 11 12  2  0
 11 15  1  0
 13 14  2  0
 13  9  1  0
 16 17  1  0
 17 18  2  0
 17 19  1  0
 20 19  1  6
 20 22  1  0
 20 21  1  0
 21 13  1  0
 22 24  1  0
 23 22  2  0
M  END
$$$$
