VDN.pdb
     RDKit          3D

 24 23  0  0  1  0  0  0  0  0999 V2000
   27.5001  -20.6649  -16.6849 C   0  0  0  0  0  0  0  0  0  0  0  0
   27.7553  -19.1592  -16.5429 C   0  0  2  0  0  0  0  0  0  0  0  0
   29.1611  -18.9706  -16.0932 C   0  0  0  0  0  0  0  0  0  0  0  0
   26.7112  -18.6222  -15.6370 C   0  0  2  0  0  0  0  0  0  0  0  0
   27.0510  -18.9707  -14.2631 N   0  0  0  0  0  0  0  0  0  0  0  0
   25.3381  -18.9319  -15.9843 C   0  0  0  0  0  0  0  0  0  0  0  0
   24.8212  -18.5052  -17.0367 O   0  0  0  0  0  0  0  0  0  0  0  0
   24.5392  -19.7281  -15.1386 N   0  0  0  0  0  0  0  0  0  0  0  0
   23.1386  -20.0699  -15.4523 C   0  0  1  0  0  0  0  0  0  0  0  0
   22.9868  -21.5305  -15.1392 C   0  0  0  0  0  0  0  0  0  0  0  0
   23.7065  -22.4151  -16.0611 C   0  0  0  0  0  0  0  0  0  0  0  0
   23.3609  -22.4640  -17.2737 O   0  0  0  0  0  0  0  0  0  0  0  0
   22.2086  -19.1849  -14.7524 C   0  0  0  0  0  0  0  0  0  0  0  0
   22.0561  -19.2492  -13.5160 O   0  0  0  0  0  0  0  0  0  0  0  0
   24.7554  -23.1838  -15.5898 O   0  0  0  0  0  0  0  0  0  0  0  0
   20.1818  -13.7267  -15.9556 N   0  0  0  0  0  0  0  0  0  0  0  0
   20.2692  -14.9186  -15.1928 C   0  0  0  0  0  0  0  0  0  0  0  0
   20.6041  -14.8505  -13.9672 O   0  0  0  0  0  0  0  0  0  0  0  0
   19.9863  -16.2573  -15.7527 C   0  0  0  0  0  0  0  0  0  0  0  0
   20.5043  -17.3408  -14.8296 C   0  0  2  0  0  0  0  0  0  0  0  0
   21.4422  -18.2163  -15.4665 N   0  0  0  0  0  0  0  0  0  0  0  0
   19.3148  -18.1394  -14.3829 C   0  0  0  0  0  0  0  0  0  0  0  0
   18.7453  -17.8597  -13.3027 O   0  0  0  0  0  0  0  0  0  0  0  0
   18.8428  -19.1762  -15.1488 O   0  0  0  0  0  0  0  0  0  0  0  0
  2  1  1  1
  2  4  1  0
  3  2  1  0
  4  6  1  0
  4  5  1  1
  6  7  2  0
  8  9  1  0
  8  6  1  0
  9 10  1  1
 10 11  1  0
 11 12  2  0
 11 15  1  0
 13 14  2  0
 13  9  1  0
 16 17  1  0
 17 18  2  0
 17 19  1  0
 20 19  1  6
 20 22  1  0
 20 21  1  0
 21 13  1  0
 22 24  1  0
 23 22  2  0
M  END
$$$$
