VDN.pdb
     RDKit          3D

 24 23  0  0  1  0  0  0  0  0999 V2000
   14.0187  -12.9187  -14.4073 C   0  0  0  0  0  0  0  0  0  0  0  0
   14.6388  -12.8482  -15.8084 C   0  0  2  0  0  0  0  0  0  0  0  0
   14.0828  -13.9681  -16.6152 C   0  0  0  0  0  0  0  0  0  0  0  0
   16.1116  -12.8478  -15.6353 C   0  0  2  0  0  0  0  0  0  0  0  0
   16.5362  -14.1677  -15.1856 N   0  0  0  0  0  0  0  0  0  0  0  0
   16.6652  -11.7668  -14.8435 C   0  0  0  0  0  0  0  0  0  0  0  0
   16.8502  -11.8885  -13.6156 O   0  0  0  0  0  0  0  0  0  0  0  0
   17.0124  -10.5372  -15.4392 N   0  0  0  0  0  0  0  0  0  0  0  0
   17.6904   -9.4551  -14.7002 C   0  0  1  0  0  0  0  0  0  0  0  0
   18.7360   -8.9088  -15.6290 C   0  0  0  0  0  0  0  0  0  0  0  0
   19.8213   -9.8500  -15.9235 C   0  0  0  0  0  0  0  0  0  0  0  0
   20.5164  -10.3138  -14.9781 O   0  0  0  0  0  0  0  0  0  0  0  0
   16.7294   -8.4728  -14.2007 C   0  0  0  0  0  0  0  0  0  0  0  0
   15.8184   -8.0273  -14.9269 O   0  0  0  0  0  0  0  0  0  0  0  0
   20.0684  -10.2180  -17.2338 O   0  0  0  0  0  0  0  0  0  0  0  0
   18.1624   -7.3647  -10.7469 N   0  0  0  0  0  0  0  0  0  0  0  0
   16.8995   -7.3736  -10.1026 C   0  0  0  0  0  0  0  0  0  0  0  0
   16.8475   -7.4794   -8.8357 O   0  0  0  0  0  0  0  0  0  0  0  0
   15.6198   -7.2631  -10.8343 C   0  0  0  0  0  0  0  0  0  0  0  0
   15.8687   -7.0548  -12.3139 C   0  0  2  0  0  0  0  0  0  0  0  0
   16.8058   -7.9905  -12.8601 N   0  0  0  0  0  0  0  0  0  0  0  0
   16.4143   -5.6659  -12.4736 C   0  0  0  0  0  0  0  0  0  0  0  0
   17.5951   -5.4994  -12.8571 O   0  0  0  0  0  0  0  0  0  0  0  0
   15.6294   -4.5726  -12.2032 O   0  0  0  0  0  0  0  0  0  0  0  0
  2  1  1  1
  2  4  1  0
  3  2  1  0
  4  6  1  0
  4  5  1  1
  6  7  2  0
  8  9  1  0
  8  6  1  0
  9 10  1  6
 10 11  1  0
 11 12  2  0
 11 15  1  0
 13 14  2  0
 13  9  1  0
 16 17  1  0
 17 18  2  0
 17 19  1  0
 20 19  1  1
 20 22  1  0
 20 21  1  0
 21 13  1  0
 22 24  1  0
 23 22  2  0
M  END
$$$$
