VDN.pdb
     RDKit          3D

 24 23  0  0  1  0  0  0  0  0999 V2000
   12.9901  -12.7128  -11.1014 C   0  0  0  0  0  0  0  0  0  0  0  0
   13.0225  -12.7808  -12.6333 C   0  0  2  0  0  0  0  0  0  0  0  0
   11.9496  -13.7118  -13.0760 C   0  0  0  0  0  0  0  0  0  0  0  0
   14.4029  -13.1551  -13.0253 C   0  0  2  0  0  0  0  0  0  0  0  0
   14.6437  -14.5418  -12.6460 N   0  0  0  0  0  0  0  0  0  0  0  0
   15.4573  -12.2539  -12.6035 C   0  0  0  0  0  0  0  0  0  0  0  0
   16.1153  -12.4637  -11.5644 O   0  0  0  0  0  0  0  0  0  0  0  0
   15.7730  -11.1055  -13.3576 N   0  0  0  0  0  0  0  0  0  0  0  0
   16.7507  -10.0971  -12.9057 C   0  0  1  0  0  0  0  0  0  0  0  0
   17.5397   -9.7081  -14.1224 C   0  0  0  0  0  0  0  0  0  0  0  0
   18.5515   -8.6768  -13.8714 C   0  0  0  0  0  0  0  0  0  0  0  0
   18.2099   -7.5880  -13.3330 O   0  0  0  0  0  0  0  0  0  0  0  0
   16.0891   -8.9912  -12.2150 C   0  0  0  0  0  0  0  0  0  0  0  0
   15.1244   -8.3890  -12.7275 O   0  0  0  0  0  0  0  0  0  0  0  0
   19.8674   -8.9112  -14.2273 O   0  0  0  0  0  0  0  0  0  0  0  0
   14.6228   -5.5833   -8.6182 N   0  0  0  0  0  0  0  0  0  0  0  0
   15.6986   -6.3128   -8.0518 C   0  0  0  0  0  0  0  0  0  0  0  0
   16.0474   -6.0765   -6.8512 O   0  0  0  0  0  0  0  0  0  0  0  0
   16.4476   -7.3505   -8.7917 C   0  0  0  0  0  0  0  0  0  0  0  0
   15.8776   -7.5278  -10.1839 C   0  0  2  0  0  0  0  0  0  0  0  0
   16.5301   -8.5641  -10.9271 N   0  0  0  0  0  0  0  0  0  0  0  0
   16.0609   -6.2220  -10.9004 C   0  0  0  0  0  0  0  0  0  0  0  0
   15.3989   -5.2185  -10.5482 O   0  0  0  0  0  0  0  0  0  0  0  0
   16.9500   -6.1158  -11.9409 O   0  0  0  0  0  0  0  0  0  0  0  0
  2  1  1  1
  2  4  1  0
  3  2  1  0
  4  6  1  0
  4  5  1  1
  6  7  2  0
  8  9  1  0
  8  6  1  0
  9 10  1  6
 10 11  1  0
 11 12  2  0
 11 15  1  0
 13 14  2  0
 13  9  1  0
 16 17  1  0
 17 18  2  0
 17 19  1  0
 20 19  1  1
 20 22  1  0
 20 21  1  0
 21 13  1  0
 22 24  1  0
 23 22  2  0
M  END
$$$$
