VDN.pdb
     RDKit          3D

 24 23  0  0  1  0  0  0  0  0999 V2000
   18.0273  -12.3385  -16.0781 C   0  0  0  0  0  0  0  0  0  0  0  0
   17.0452  -13.0948  -15.1748 C   0  0  2  0  0  0  0  0  0  0  0  0
   16.4230  -14.1814  -15.9787 C   0  0  0  0  0  0  0  0  0  0  0  0
   16.1084  -12.0925  -14.6116 C   0  0  2  0  0  0  0  0  0  0  0  0
   15.1672  -11.6884  -15.6486 N   0  0  0  0  0  0  0  0  0  0  0  0
   16.7092  -10.9723  -13.9142 C   0  0  0  0  0  0  0  0  0  0  0  0
   17.3742  -11.1363  -12.8713 O   0  0  0  0  0  0  0  0  0  0  0  0
   16.5589   -9.6555  -14.3946 N   0  0  0  0  0  0  0  0  0  0  0  0
   17.1554   -8.4866  -13.7203 C   0  0  1  0  0  0  0  0  0  0  0  0
   17.5627   -7.5397  -14.8120 C   0  0  0  0  0  0  0  0  0  0  0  0
   18.2339   -6.3282  -14.3298 C   0  0  0  0  0  0  0  0  0  0  0  0
   18.4380   -6.1802  -13.0935 O   0  0  0  0  0  0  0  0  0  0  0  0
   16.2432   -7.9287  -12.7229 C   0  0  0  0  0  0  0  0  0  0  0  0
   15.0638   -7.6411  -13.0096 O   0  0  0  0  0  0  0  0  0  0  0  0
   18.6351   -5.3639  -15.2365 O   0  0  0  0  0  0  0  0  0  0  0  0
   13.5648   -8.4592   -7.5676 N   0  0  0  0  0  0  0  0  0  0  0  0
   14.1864   -7.6951   -8.5874 C   0  0  0  0  0  0  0  0  0  0  0  0
   13.9473   -6.4478   -8.6643 O   0  0  0  0  0  0  0  0  0  0  0  0
   15.1132   -8.2780   -9.5808 C   0  0  0  0  0  0  0  0  0  0  0  0
   15.8122   -7.1848  -10.3623 C   0  0  2  0  0  0  0  0  0  0  0  0
   16.6773   -7.6941  -11.3842 N   0  0  0  0  0  0  0  0  0  0  0  0
   16.6275   -6.3976   -9.3785 C   0  0  0  0  0  0  0  0  0  0  0  0
   17.8706   -6.5462   -9.3376 O   0  0  0  0  0  0  0  0  0  0  0  0
   16.0225   -5.5132   -8.5205 O   0  0  0  0  0  0  0  0  0  0  0  0
  2  1  1  6
  2  4  1  0
  3  2  1  0
  4  6  1  0
  4  5  1  6
  6  7  2  0
  8  9  1  0
  8  6  1  0
  9 10  1  6
 10 11  1  0
 11 12  2  0
 11 15  1  0
 13 14  2  0
 13  9  1  0
 16 17  1  0
 17 18  2  0
 17 19  1  0
 20 19  1  1
 20 22  1  0
 20 21  1  0
 21 13  1  0
 22 24  1  0
 23 22  2  0
M  END
$$$$
