YFI.pdb
     RDKit          3D

 32 33  0  0  1  0  0  0  0  0999 V2000
   13.0699  -22.1087   16.9341 O   0  0  0  0  0  0  0  0  0  0  0  0
   12.8634  -21.1054   17.8659 C   0  0  0  0  0  0  0  0  0  0  0  0
   12.2620  -21.3914   19.0781 C   0  0  0  0  0  0  0  0  0  0  0  0
   12.0597  -20.3737   20.0068 C   0  0  0  0  0  0  0  0  0  0  0  0
   12.4415  -19.0733   19.7608 C   0  0  0  0  0  0  0  0  0  0  0  0
   12.2244  -17.9883   20.7540 C   0  0  0  0  0  0  0  0  0  0  0  0
   10.8889  -17.3518   20.4380 C   0  0  2  0  0  0  0  0  0  0  0  0
   11.0353  -16.6285   19.2015 N   0  0  0  0  0  0  0  0  0  0  0  0
   10.4935  -16.4038   21.5082 C   0  0  0  0  0  0  0  0  0  0  0  0
   11.2977  -15.5606   21.9220 O   0  0  0  0  0  0  0  0  0  0  0  0
   13.0424  -18.8215   18.5337 C   0  0  0  0  0  0  0  0  0  0  0  0
   13.2476  -19.8243   17.6053 C   0  0  0  0  0  0  0  0  0  0  0  0
    9.1972  -16.4437   22.0745 N   0  0  0  0  0  0  0  0  0  0  0  0
    8.8588  -15.5219   23.1140 C   0  0  1  0  0  0  0  0  0  0  0  0
    7.3871  -15.1885   23.1613 C   0  0  0  0  0  0  0  0  0  0  0  0
    7.0469  -14.3015   24.3166 C   0  0  0  0  0  0  0  0  0  0  0  0
    6.3018  -14.6870   25.3802 C   0  0  0  0  0  0  0  0  0  0  0  0
    6.0388  -13.8022   26.3988 C   0  0  0  0  0  0  0  0  0  0  0  0
    6.5186  -12.5117   26.3705 C   0  0  0  0  0  0  0  0  0  0  0  0
    7.2787  -12.0989   25.2979 C   0  0  0  0  0  0  0  0  0  0  0  0
    7.5244  -13.0078   24.2945 C   0  0  0  0  0  0  0  0  0  0  0  0
    9.2076  -16.1260   24.4190 C   0  0  0  0  0  0  0  0  0  0  0  0
    9.1213  -17.3546   24.6671 O   0  0  0  0  0  0  0  0  0  0  0  0
   11.2030  -13.9604   29.9467 C   0  0  0  0  0  0  0  0  0  0  0  0
   11.2263  -15.0124   28.8922 C   0  0  0  0  0  0  0  0  0  0  0  0
   10.5708  -14.7089   27.6072 C   0  0  2  0  0  0  0  0  0  0  0  0
    9.4996  -13.6434   27.7582 C   0  0  0  0  0  0  0  0  0  0  0  0
   10.2344  -15.8412   26.7156 C   0  0  2  0  0  0  0  0  0  0  0  0
    9.6670  -15.2848   25.4594 N   0  0  0  0  0  0  0  0  0  0  0  0
    9.3080  -16.8054   27.2673 C   0  0  0  0  0  0  0  0  0  0  0  0
    8.0509  -16.7122   27.0503 O   0  0  0  0  0  0  0  0  0  0  0  0
    9.7024  -17.8737   28.0434 O   0  0  0  0  0  0  0  0  0  0  0  0
  2  3  2  0
  2  1  1  0
  4  3  1  0
  5  4  2  0
  6  7  1  0
  6  5  1  0
  7  9  1  0
  7  8  1  6
  9 10  2  0
 11  5  1  0
 11 12  2  0
 12  2  1  0
 13  9  1  0
 14 13  1  0
 14 15  1  1
 16 15  1  0
 17 16  2  0
 18 17  1  0
 19 18  2  0
 19 20  1  0
 20 21  2  0
 21 16  1  0
 22 29  1  0
 22 14  1  0
 23 22  2  0
 24 25  1  0
 25 26  1  0
 26 27  1  1
 28 29  1  6
 28 26  1  0
 30 28  1  0
 31 30  2  0
 32 30  1  0
M  END
$$$$
