YFI.pdb
     RDKit          3D

 32 33  0  0  1  0  0  0  0  0999 V2000
   11.8437  -22.8147   17.2343 O   0  0  0  0  0  0  0  0  0  0  0  0
   11.8116  -21.8234   18.2007 C   0  0  0  0  0  0  0  0  0  0  0  0
   12.4752  -21.9975   19.4016 C   0  0  0  0  0  0  0  0  0  0  0  0
   12.4354  -20.9933   20.3655 C   0  0  0  0  0  0  0  0  0  0  0  0
   11.7500  -19.8153   20.1658 C   0  0  0  0  0  0  0  0  0  0  0  0
   11.7088  -18.7445   21.1965 C   0  0  0  0  0  0  0  0  0  0  0  0
   10.8437  -17.6299   20.6510 C   0  0  2  0  0  0  0  0  0  0  0  0
   11.5964  -16.9616   19.6212 N   0  0  0  0  0  0  0  0  0  0  0  0
   10.5118  -16.6538   21.7174 C   0  0  0  0  0  0  0  0  0  0  0  0
   11.2864  -15.7250   21.9749 O   0  0  0  0  0  0  0  0  0  0  0  0
   11.0950  -19.6738   18.9487 C   0  0  0  0  0  0  0  0  0  0  0  0
   11.1284  -20.6643   17.9857 C   0  0  0  0  0  0  0  0  0  0  0  0
    9.3106  -16.7636   22.4575 N   0  0  0  0  0  0  0  0  0  0  0  0
    8.9655  -15.7346   23.3887 C   0  0  1  0  0  0  0  0  0  0  0  0
    7.4818  -15.4653   23.4590 C   0  0  0  0  0  0  0  0  0  0  0  0
    7.1607  -14.3064   24.3484 C   0  0  0  0  0  0  0  0  0  0  0  0
    7.3860  -13.0107   24.0236 C   0  0  0  0  0  0  0  0  0  0  0  0
    7.0583  -12.0086   24.9056 C   0  0  0  0  0  0  0  0  0  0  0  0
    6.4977  -12.2866   26.1322 C   0  0  0  0  0  0  0  0  0  0  0  0
    6.2600  -13.5979   26.4827 C   0  0  0  0  0  0  0  0  0  0  0  0
    6.5989  -14.5781   25.5783 C   0  0  0  0  0  0  0  0  0  0  0  0
    9.3938  -16.1530   24.7418 C   0  0  0  0  0  0  0  0  0  0  0  0
    9.2703  -17.3222   25.1849 O   0  0  0  0  0  0  0  0  0  0  0  0
   10.6829  -13.4101   30.0723 C   0  0  0  0  0  0  0  0  0  0  0  0
   10.3308  -14.6498   29.3252 C   0  0  0  0  0  0  0  0  0  0  0  0
    9.9715  -14.5133   27.9021 C   0  0  2  0  0  0  0  0  0  0  0  0
    8.5294  -14.0725   27.7243 C   0  0  0  0  0  0  0  0  0  0  0  0
   10.4497  -15.5524   26.9630 C   0  0  2  0  0  0  0  0  0  0  0  0
    9.9788  -15.1925   25.5999 N   0  0  0  0  0  0  0  0  0  0  0  0
   10.0266  -16.9012   27.2695 C   0  0  0  0  0  0  0  0  0  0  0  0
   10.7460  -17.6698   27.9961 O   0  0  0  0  0  0  0  0  0  0  0  0
    8.8427  -17.4428   26.8176 O   0  0  0  0  0  0  0  0  0  0  0  0
  2  3  2  0
  2  1  1  0
  4  3  1  0
  5  4  2  0
  6  7  1  0
  6  5  1  0
  7  9  1  0
  7  8  1  6
  9 10  2  0
 11  5  1  0
 11 12  2  0
 12  2  1  0
 13  9  1  0
 14 13  1  0
 14 15  1  1
 16 15  1  0
 17 16  2  0
 18 17  1  0
 19 18  2  0
 19 20  1  0
 20 21  2  0
 21 16  1  0
 22 29  1  0
 22 14  1  0
 23 22  2  0
 24 25  1  0
 25 26  1  0
 26 27  1  1
 28 29  1  6
 28 26  1  0
 30 28  1  0
 31 30  2  0
 32 30  1  0
M  END
$$$$
