YFI.pdb
     RDKit          3D

 32 33  0  0  1  0  0  0  0  0999 V2000
   10.0284  -23.6430   18.0770 O   0  0  0  0  0  0  0  0  0  0  0  0
   10.3272  -22.5407   18.8602 C   0  0  0  0  0  0  0  0  0  0  0  0
   11.6215  -22.0569   18.9197 C   0  0  0  0  0  0  0  0  0  0  0  0
   11.9094  -20.9478   19.7110 C   0  0  0  0  0  0  0  0  0  0  0  0
   10.9398  -20.3042   20.4479 C   0  0  0  0  0  0  0  0  0  0  0  0
   11.2496  -19.1202   21.2922 C   0  0  0  0  0  0  0  0  0  0  0  0
   10.5020  -17.9432   20.7056 C   0  0  2  0  0  0  0  0  0  0  0  0
   11.3463  -17.3507   19.7007 N   0  0  0  0  0  0  0  0  0  0  0  0
   10.2130  -16.9316   21.7513 C   0  0  0  0  0  0  0  0  0  0  0  0
   11.0661  -16.0904   22.0572 O   0  0  0  0  0  0  0  0  0  0  0  0
    9.6510  -20.8166   20.3649 C   0  0  0  0  0  0  0  0  0  0  0  0
    9.3550  -21.9167   19.5826 C   0  0  0  0  0  0  0  0  0  0  0  0
    8.9641  -16.9077   22.4164 N   0  0  0  0  0  0  0  0  0  0  0  0
    8.7214  -15.9125   23.4144 C   0  0  1  0  0  0  0  0  0  0  0  0
    7.2843  -15.4526   23.4626 C   0  0  0  0  0  0  0  0  0  0  0  0
    7.0853  -14.3255   24.4256 C   0  0  0  0  0  0  0  0  0  0  0  0
    7.5641  -13.0718   24.2413 C   0  0  0  0  0  0  0  0  0  0  0  0
    7.3319  -12.0965   25.1818 C   0  0  0  0  0  0  0  0  0  0  0  0
    6.6140  -12.3599   26.3270 C   0  0  0  0  0  0  0  0  0  0  0  0
    6.1178  -13.6286   26.5343 C   0  0  0  0  0  0  0  0  0  0  0  0
    6.3671  -14.5826   25.5746 C   0  0  0  0  0  0  0  0  0  0  0  0
    9.0380  -16.4825   24.7427 C   0  0  0  0  0  0  0  0  0  0  0  0
    8.8334  -17.6817   25.0567 O   0  0  0  0  0  0  0  0  0  0  0  0
    9.9837  -13.4388   29.6107 C   0  0  0  0  0  0  0  0  0  0  0  0
    9.6067  -14.4992   28.6347 C   0  0  0  0  0  0  0  0  0  0  0  0
   10.6772  -15.0736   27.7998 C   0  0  2  0  0  0  0  0  0  0  0  0
   11.5644  -13.9968   27.2006 C   0  0  0  0  0  0  0  0  0  0  0  0
   10.3292  -16.1973   26.9017 C   0  0  2  0  0  0  0  0  0  0  0  0
    9.6050  -15.6413   25.7286 N   0  0  0  0  0  0  0  0  0  0  0  0
    9.5272  -17.2403   27.5025 C   0  0  0  0  0  0  0  0  0  0  0  0
   10.0018  -17.9901   28.4239 O   0  0  0  0  0  0  0  0  0  0  0  0
    8.2219  -17.4932   27.1402 O   0  0  0  0  0  0  0  0  0  0  0  0
  2  3  2  0
  2  1  1  0
  4  3  1  0
  5  4  2  0
  6  7  1  0
  6  5  1  0
  7  9  1  0
  7  8  1  6
  9 10  2  0
 11  5  1  0
 11 12  2  0
 12  2  1  0
 13  9  1  0
 14 13  1  0
 14 15  1  1
 16 15  1  0
 17 16  2  0
 18 17  1  0
 19 18  2  0
 19 20  1  0
 20 21  2  0
 21 16  1  0
 22 29  1  0
 22 14  1  0
 23 22  2  0
 24 25  1  0
 25 26  1  0
 26 27  1  6
 28 29  1  6
 28 26  1  0
 30 28  1  0
 31 30  2  0
 32 30  1  0
M  END
$$$$
