YFI.pdb
     RDKit          3D

 32 33  0  0  1  0  0  0  0  0999 V2000
    9.3847  -23.2418   25.1784 O   0  0  0  0  0  0  0  0  0  0  0  0
    9.7344  -22.3345   24.1923 C   0  0  0  0  0  0  0  0  0  0  0  0
    9.4652  -22.6091   22.8639 C   0  0  0  0  0  0  0  0  0  0  0  0
    9.8217  -21.6888   21.8815 C   0  0  0  0  0  0  0  0  0  0  0  0
   10.4417  -20.4973   22.1868 C   0  0  0  0  0  0  0  0  0  0  0  0
   10.8216  -19.5162   21.1362 C   0  0  0  0  0  0  0  0  0  0  0  0
    9.5866  -18.7048   20.8126 C   0  0  2  0  0  0  0  0  0  0  0  0
    9.7164  -18.2404   19.4557 N   0  0  0  0  0  0  0  0  0  0  0  0
    9.4774  -17.5331   21.7158 C   0  0  0  0  0  0  0  0  0  0  0  0
   10.2762  -16.5944   21.6179 O   0  0  0  0  0  0  0  0  0  0  0  0
   10.6970  -20.2538   23.5307 C   0  0  0  0  0  0  0  0  0  0  0  0
   10.3472  -21.1606   24.5130 C   0  0  0  0  0  0  0  0  0  0  0  0
    8.4642  -17.4650   22.7015 N   0  0  0  0  0  0  0  0  0  0  0  0
    8.3455  -16.2866   23.5030 C   0  0  1  0  0  0  0  0  0  0  0  0
    6.9232  -15.8006   23.6439 C   0  0  0  0  0  0  0  0  0  0  0  0
    6.8340  -14.5455   24.4527 C   0  0  0  0  0  0  0  0  0  0  0  0
    6.2604  -14.4669   25.6774 C   0  0  0  0  0  0  0  0  0  0  0  0
    6.2238  -13.2683   26.3494 C   0  0  0  0  0  0  0  0  0  0  0  0
    6.7623  -12.1236   25.8055 C   0  0  0  0  0  0  0  0  0  0  0  0
    7.3506  -12.1813   24.5608 C   0  0  0  0  0  0  0  0  0  0  0  0
    7.3715  -13.3954   23.9137 C   0  0  0  0  0  0  0  0  0  0  0  0
    8.8375  -16.5858   24.8660 C   0  0  0  0  0  0  0  0  0  0  0  0
    8.8775  -17.7413   25.3579 O   0  0  0  0  0  0  0  0  0  0  0  0
   12.0368  -14.5053   29.2022 C   0  0  0  0  0  0  0  0  0  0  0  0
   10.5528  -14.6076   29.1218 C   0  0  0  0  0  0  0  0  0  0  0  0
    9.9348  -14.5672   27.7842 C   0  0  2  0  0  0  0  0  0  0  0  0
    8.5634  -13.9160   27.8159 C   0  0  0  0  0  0  0  0  0  0  0  0
   10.0610  -15.7657   26.9252 C   0  0  2  0  0  0  0  0  0  0  0  0
    9.2932  -15.5197   25.6764 N   0  0  0  0  0  0  0  0  0  0  0  0
    9.6085  -17.0025   27.5233 C   0  0  0  0  0  0  0  0  0  0  0  0
   10.2711  -17.5624   28.4634 O   0  0  0  0  0  0  0  0  0  0  0  0
    8.4546  -17.6502   27.1384 O   0  0  0  0  0  0  0  0  0  0  0  0
  2  3  2  0
  2  1  1  0
  4  3  1  0
  5  4  2  0
  6  7  1  0
  6  5  1  0
  7  9  1  0
  7  8  1  6
  9 10  2  0
 11  5  1  0
 11 12  2  0
 12  2  1  0
 13  9  1  0
 14 13  1  0
 14 15  1  1
 16 15  1  0
 17 16  2  0
 18 17  1  0
 19 18  2  0
 19 20  1  0
 20 21  2  0
 21 16  1  0
 22 29  1  0
 22 14  1  0
 23 22  2  0
 24 25  1  0
 25 26  1  0
 26 27  1  1
 28 29  1  6
 28 26  1  0
 30 28  1  0
 31 30  2  0
 32 30  1  0
M  END
$$$$
