YFI.pdb
     RDKit          3D

 32 33  0  0  1  0  0  0  0  0999 V2000
   11.7433  -22.4650   16.9500 O   0  0  0  0  0  0  0  0  0  0  0  0
   11.6917  -21.5400   17.9792 C   0  0  0  0  0  0  0  0  0  0  0  0
   10.5073  -21.3152   18.6571 C   0  0  0  0  0  0  0  0  0  0  0  0
   10.4681  -20.3825   19.6902 C   0  0  0  0  0  0  0  0  0  0  0  0
   11.5808  -19.6641   20.0688 C   0  0  0  0  0  0  0  0  0  0  0  0
   11.5366  -18.6684   21.1722 C   0  0  0  0  0  0  0  0  0  0  0  0
   10.7250  -17.4902   20.6809 C   0  0  2  0  0  0  0  0  0  0  0  0
   11.5153  -16.8009   19.6941 N   0  0  0  0  0  0  0  0  0  0  0  0
   10.4246  -16.5589   21.7957 C   0  0  0  0  0  0  0  0  0  0  0  0
   11.3240  -15.8709   22.2923 O   0  0  0  0  0  0  0  0  0  0  0  0
   12.7533  -19.9148   19.3670 C   0  0  0  0  0  0  0  0  0  0  0  0
   12.8026  -20.8384   18.3401 C   0  0  0  0  0  0  0  0  0  0  0  0
    9.1121  -16.4387   22.3111 N   0  0  0  0  0  0  0  0  0  0  0  0
    8.8608  -15.5221   23.3796 C   0  0  1  0  0  0  0  0  0  0  0  0
    7.4189  -15.0828   23.4634 C   0  0  0  0  0  0  0  0  0  0  0  0
    7.1866  -14.1227   24.5866 C   0  0  0  0  0  0  0  0  0  0  0  0
    7.6686  -12.8572   24.6199 C   0  0  0  0  0  0  0  0  0  0  0  0
    7.4041  -12.0435   25.6958 C   0  0  0  0  0  0  0  0  0  0  0  0
    6.6502  -12.4837   26.7607 C   0  0  0  0  0  0  0  0  0  0  0  0
    6.1502  -13.7676   26.7472 C   0  0  0  0  0  0  0  0  0  0  0  0
    6.4322  -14.5574   25.6563 C   0  0  0  0  0  0  0  0  0  0  0  0
    9.1865  -16.1843   24.6621 C   0  0  0  0  0  0  0  0  0  0  0  0
    8.9203  -17.3854   24.9172 O   0  0  0  0  0  0  0  0  0  0  0  0
    9.7269  -13.5500   29.8187 C   0  0  0  0  0  0  0  0  0  0  0  0
    9.4697  -14.6340   28.8299 C   0  0  0  0  0  0  0  0  0  0  0  0
   10.5665  -15.0022   27.9163 C   0  0  2  0  0  0  0  0  0  0  0  0
   11.3031  -13.7797   27.3979 C   0  0  0  0  0  0  0  0  0  0  0  0
   10.3146  -16.0726   26.9259 C   0  0  2  0  0  0  0  0  0  0  0  0
    9.8360  -15.4353   25.6712 N   0  0  0  0  0  0  0  0  0  0  0  0
    9.3631  -17.0812   27.3376 C   0  0  0  0  0  0  0  0  0  0  0  0
    9.6976  -18.0132   28.1473 O   0  0  0  0  0  0  0  0  0  0  0  0
    8.0554  -17.1082   26.9035 O   0  0  0  0  0  0  0  0  0  0  0  0
  2  3  2  0
  2  1  1  0
  4  3  1  0
  5  4  2  0
  6  7  1  0
  6  5  1  0
  7  9  1  0
  7  8  1  6
  9 10  2  0
 11  5  1  0
 11 12  2  0
 12  2  1  0
 13  9  1  0
 14 13  1  0
 14 15  1  1
 16 15  1  0
 17 16  2  0
 18 17  1  0
 19 18  2  0
 19 20  1  0
 20 21  2  0
 21 16  1  0
 22 29  1  0
 22 14  1  0
 23 22  2  0
 24 25  1  0
 25 26  1  0
 26 27  1  6
 28 29  1  6
 28 26  1  0
 30 28  1  0
 31 30  2  0
 32 30  1  0
M  END
$$$$
