YFI.pdb
     RDKit          3D

 32 33  0  0  1  0  0  0  0  0999 V2000
    9.2788  -22.5766   17.5980 O   0  0  0  0  0  0  0  0  0  0  0  0
    9.4954  -21.6284   18.5838 C   0  0  0  0  0  0  0  0  0  0  0  0
    8.5980  -20.5917   18.7645 C   0  0  0  0  0  0  0  0  0  0  0  0
    8.8269  -19.6445   19.7592 C   0  0  0  0  0  0  0  0  0  0  0  0
    9.9296  -19.7013   20.5827 C   0  0  0  0  0  0  0  0  0  0  0  0
   10.1721  -18.6887   21.6440 C   0  0  0  0  0  0  0  0  0  0  0  0
    9.6752  -17.3601   21.1183 C   0  0  2  0  0  0  0  0  0  0  0  0
   10.5882  -16.9320   20.0903 N   0  0  0  0  0  0  0  0  0  0  0  0
    9.6530  -16.3438   22.1985 C   0  0  0  0  0  0  0  0  0  0  0  0
   10.7067  -15.8316   22.5938 O   0  0  0  0  0  0  0  0  0  0  0  0
   10.8102  -20.7555   20.3736 C   0  0  0  0  0  0  0  0  0  0  0  0
   10.5920  -21.7006   19.3892 C   0  0  0  0  0  0  0  0  0  0  0  0
    8.4346  -15.9415   22.7955 N   0  0  0  0  0  0  0  0  0  0  0  0
    8.4589  -14.9928   23.8652 C   0  0  1  0  0  0  0  0  0  0  0  0
    7.1554  -14.2506   24.0355 C   0  0  0  0  0  0  0  0  0  0  0  0
    7.2070  -13.2729   25.1663 C   0  0  0  0  0  0  0  0  0  0  0  0
    7.9825  -12.1623   25.1791 C   0  0  0  0  0  0  0  0  0  0  0  0
    7.9657  -11.3183   26.2640 C   0  0  0  0  0  0  0  0  0  0  0  0
    7.1697  -11.5720   27.3587 C   0  0  0  0  0  0  0  0  0  0  0  0
    6.3730  -12.6962   27.3663 C   0  0  0  0  0  0  0  0  0  0  0  0
    6.4122  -13.5211   26.2657 C   0  0  0  0  0  0  0  0  0  0  0  0
    8.7168  -15.7107   25.1331 C   0  0  0  0  0  0  0  0  0  0  0  0
    8.1054  -16.7501   25.4859 O   0  0  0  0  0  0  0  0  0  0  0  0
   13.8798  -15.8979   25.5484 C   0  0  0  0  0  0  0  0  0  0  0  0
   12.4019  -16.0595   25.6416 C   0  0  0  0  0  0  0  0  0  0  0  0
   11.7821  -15.9374   26.9735 C   0  0  2  0  0  0  0  0  0  0  0  0
   12.5800  -16.6720   28.0363 C   0  0  0  0  0  0  0  0  0  0  0  0
   10.3106  -16.0638   27.0682 C   0  0  2  0  0  0  0  0  0  0  0  0
    9.7066  -15.2107   26.0114 N   0  0  0  0  0  0  0  0  0  0  0  0
    9.7427  -15.7043   28.3490 C   0  0  0  0  0  0  0  0  0  0  0  0
    9.3873  -14.5013   28.5994 O   0  0  0  0  0  0  0  0  0  0  0  0
    9.5415  -16.6106   29.3675 O   0  0  0  0  0  0  0  0  0  0  0  0
  2  3  2  0
  2  1  1  0
  4  3  1  0
  5  4  2  0
  6  7  1  0
  6  5  1  0
  7  9  1  0
  7  8  1  6
  9 10  2  0
 11  5  1  0
 11 12  2  0
 12  2  1  0
 13  9  1  0
 14 13  1  0
 14 15  1  1
 16 15  1  0
 17 16  2  0
 18 17  1  0
 19 18  2  0
 19 20  1  0
 20 21  2  0
 21 16  1  0
 22 29  1  0
 22 14  1  0
 23 22  2  0
 24 25  1  0
 25 26  1  0
 26 27  1  1
 28 29  1  6
 28 26  1  0
 30 28  1  0
 31 30  2  0
 32 30  1  0
M  END
$$$$
