YFI.pdb
     RDKit          3D

 32 33  0  0  1  0  0  0  0  0999 V2000
   12.6436  -22.5718   17.2643 O   0  0  0  0  0  0  0  0  0  0  0  0
   12.5273  -21.5652   18.2081 C   0  0  0  0  0  0  0  0  0  0  0  0
   11.3825  -21.4578   18.9768 C   0  0  0  0  0  0  0  0  0  0  0  0
   11.2775  -20.4412   19.9226 C   0  0  0  0  0  0  0  0  0  0  0  0
   12.2854  -19.5244   20.1251 C   0  0  0  0  0  0  0  0  0  0  0  0
   12.1709  -18.4397   21.1355 C   0  0  0  0  0  0  0  0  0  0  0  0
   11.1864  -17.4260   20.5956 C   0  0  2  0  0  0  0  0  0  0  0  0
   11.8626  -16.6650   19.5771 N   0  0  0  0  0  0  0  0  0  0  0  0
   10.7395  -16.5055   21.6695 C   0  0  0  0  0  0  0  0  0  0  0  0
   11.4665  -15.5742   22.0345 O   0  0  0  0  0  0  0  0  0  0  0  0
   13.4207  -19.6616   19.3361 C   0  0  0  0  0  0  0  0  0  0  0  0
   13.5347  -20.6670   18.3948 C   0  0  0  0  0  0  0  0  0  0  0  0
    9.4809  -16.6720   22.2948 N   0  0  0  0  0  0  0  0  0  0  0  0
    9.1025  -15.7876   23.3529 C   0  0  1  0  0  0  0  0  0  0  0  0
    7.6258  -15.4742   23.3705 C   0  0  0  0  0  0  0  0  0  0  0  0
    7.2599  -14.5452   24.4842 C   0  0  0  0  0  0  0  0  0  0  0  0
    6.6147  -14.9251   25.6131 C   0  0  0  0  0  0  0  0  0  0  0  0
    6.3185  -14.0003   26.5860 C   0  0  0  0  0  0  0  0  0  0  0  0
    6.6641  -12.6748   26.4457 C   0  0  0  0  0  0  0  0  0  0  0  0
    7.3211  -12.2669   25.3052 C   0  0  0  0  0  0  0  0  0  0  0  0
    7.6033  -13.2162   24.3499 C   0  0  0  0  0  0  0  0  0  0  0  0
    9.4243  -16.4280   24.6475 C   0  0  0  0  0  0  0  0  0  0  0  0
    9.4145  -17.6702   24.8355 O   0  0  0  0  0  0  0  0  0  0  0  0
   10.7844  -12.6520   28.5615 C   0  0  0  0  0  0  0  0  0  0  0  0
   10.8529  -13.7512   27.5584 C   0  0  0  0  0  0  0  0  0  0  0  0
   10.4498  -15.1010   27.9926 C   0  0  2  0  0  0  0  0  0  0  0  0
   11.0874  -15.4812   29.3172 C   0  0  0  0  0  0  0  0  0  0  0  0
   10.3951  -16.1708   26.9715 C   0  0  2  0  0  0  0  0  0  0  0  0
    9.7651  -15.6079   25.7485 N   0  0  0  0  0  0  0  0  0  0  0  0
    9.6789  -17.3637   27.3669 C   0  0  0  0  0  0  0  0  0  0  0  0
    8.4142  -17.4597   27.2016 O   0  0  0  0  0  0  0  0  0  0  0  0
   10.2923  -18.4610   27.9315 O   0  0  0  0  0  0  0  0  0  0  0  0
  2  3  2  0
  2  1  1  0
  4  3  1  0
  5  4  2  0
  6  7  1  0
  6  5  1  0
  7  9  1  0
  7  8  1  6
  9 10  2  0
 11  5  1  0
 11 12  2  0
 12  2  1  0
 13  9  1  0
 14 13  1  0
 14 15  1  1
 16 15  1  0
 17 16  2  0
 18 17  1  0
 19 18  2  0
 19 20  1  0
 20 21  2  0
 21 16  1  0
 22 29  1  0
 22 14  1  0
 23 22  2  0
 24 25  1  0
 25 26  1  0
 26 27  1  1
 28 29  1  6
 28 26  1  0
 30 28  1  0
 31 30  2  0
 32 30  1  0
M  END
$$$$
