YFI.pdb
     RDKit          3D

 32 33  0  0  1  0  0  0  0  0999 V2000
    8.8301  -20.4838   29.2988 O   0  0  0  0  0  0  0  0  0  0  0  0
    8.4394  -20.5419   27.9716 C   0  0  0  0  0  0  0  0  0  0  0  0
    9.2563  -20.0293   26.9802 C   0  0  0  0  0  0  0  0  0  0  0  0
    8.8522  -20.0937   25.6492 C   0  0  0  0  0  0  0  0  0  0  0  0
    7.6518  -20.6570   25.2763 C   0  0  0  0  0  0  0  0  0  0  0  0
    7.2224  -20.7246   23.8544 C   0  0  0  0  0  0  0  0  0  0  0  0
    6.1695  -19.6573   23.6528 C   0  0  2  0  0  0  0  0  0  0  0  0
    5.6976  -19.7648   22.2965 N   0  0  0  0  0  0  0  0  0  0  0  0
    6.7463  -18.3062   23.8578 C   0  0  0  0  0  0  0  0  0  0  0  0
    7.6226  -17.8806   23.0961 O   0  0  0  0  0  0  0  0  0  0  0  0
    6.8562  -21.1620   26.2973 C   0  0  0  0  0  0  0  0  0  0  0  0
    7.2482  -21.1029   27.6212 C   0  0  0  0  0  0  0  0  0  0  0  0
    6.3097  -17.4813   24.9215 N   0  0  0  0  0  0  0  0  0  0  0  0
    6.9353  -16.2115   25.1249 C   0  0  1  0  0  0  0  0  0  0  0  0
    6.0404  -15.2075   25.8107 C   0  0  0  0  0  0  0  0  0  0  0  0
    6.6742  -13.8555   25.8991 C   0  0  0  0  0  0  0  0  0  0  0  0
    6.8134  -13.0087   24.8509 C   0  0  0  0  0  0  0  0  0  0  0  0
    7.4101  -11.7828   25.0255 C   0  0  0  0  0  0  0  0  0  0  0  0
    7.8794  -11.3815   26.2563 C   0  0  0  0  0  0  0  0  0  0  0  0
    7.7479  -12.2275   27.3360 C   0  0  0  0  0  0  0  0  0  0  0  0
    7.1463  -13.4475   27.1290 C   0  0  0  0  0  0  0  0  0  0  0  0
    8.1204  -16.3974   25.9912 C   0  0  0  0  0  0  0  0  0  0  0  0
    8.1199  -17.0913   27.0387 O   0  0  0  0  0  0  0  0  0  0  0  0
   12.4470  -16.0333   22.7539 C   0  0  0  0  0  0  0  0  0  0  0  0
   11.3997  -16.3220   23.7732 C   0  0  0  0  0  0  0  0  0  0  0  0
   11.6815  -15.9460   25.1704 C   0  0  2  0  0  0  0  0  0  0  0  0
   13.1030  -16.2968   25.5731 C   0  0  0  0  0  0  0  0  0  0  0  0
   10.6380  -16.2142   26.1850 C   0  0  2  0  0  0  0  0  0  0  0  0
    9.3334  -15.7635   25.6335 N   0  0  0  0  0  0  0  0  0  0  0  0
   10.8519  -15.5850   27.4697 C   0  0  0  0  0  0  0  0  0  0  0  0
   10.3481  -14.4397   27.7359 O   0  0  0  0  0  0  0  0  0  0  0  0
   11.5910  -16.1616   28.4798 O   0  0  0  0  0  0  0  0  0  0  0  0
  2  3  2  0
  2  1  1  0
  4  3  1  0
  5  4  2  0
  6  7  1  0
  6  5  1  0
  7  9  1  0
  7  8  1  6
  9 10  2  0
 11  5  1  0
 11 12  2  0
 12  2  1  0
 13  9  1  0
 14 13  1  0
 14 15  1  1
 16 15  1  0
 17 16  2  0
 18 17  1  0
 19 18  2  0
 19 20  1  0
 20 21  2  0
 21 16  1  0
 22 29  1  0
 22 14  1  0
 23 22  2  0
 24 25  1  0
 25 26  1  0
 26 27  1  1
 28 29  1  6
 28 26  1  0
 30 28  1  0
 31 30  2  0
 32 30  1  0
M  END
$$$$
