YFI.pdb
     RDKit          3D

 32 33  0  0  1  0  0  0  0  0999 V2000
    7.9264  -25.7986   25.3583 O   0  0  0  0  0  0  0  0  0  0  0  0
    7.6861  -24.5535   24.8019 C   0  0  0  0  0  0  0  0  0  0  0  0
    7.9693  -23.4033   25.5159 C   0  0  0  0  0  0  0  0  0  0  0  0
    7.7233  -22.1571   24.9455 C   0  0  0  0  0  0  0  0  0  0  0  0
    7.2006  -22.0238   23.6780 C   0  0  0  0  0  0  0  0  0  0  0  0
    6.9385  -20.6920   23.0711 C   0  0  0  0  0  0  0  0  0  0  0  0
    5.7813  -20.0753   23.8253 C   0  0  2  0  0  0  0  0  0  0  0  0
    4.5774  -20.3797   23.0961 N   0  0  0  0  0  0  0  0  0  0  0  0
    5.9357  -18.6024   23.9096 C   0  0  0  0  0  0  0  0  0  0  0  0
    5.6695  -17.8912   22.9337 O   0  0  0  0  0  0  0  0  0  0  0  0
    6.9280  -23.1993   22.9893 C   0  0  0  0  0  0  0  0  0  0  0  0
    7.1686  -24.4408   23.5465 C   0  0  0  0  0  0  0  0  0  0  0  0
    6.3876  -17.9841   25.0996 N   0  0  0  0  0  0  0  0  0  0  0  0
    6.6455  -16.5776   25.1033 C   0  0  1  0  0  0  0  0  0  0  0  0
    6.7194  -15.9872   26.4907 C   0  0  0  0  0  0  0  0  0  0  0  0
    6.8804  -14.5004   26.4628 C   0  0  0  0  0  0  0  0  0  0  0  0
    5.8540  -13.6245   26.3434 C   0  0  0  0  0  0  0  0  0  0  0  0
    6.0965  -12.2715   26.3268 C   0  0  0  0  0  0  0  0  0  0  0  0
    7.3747  -11.7699   26.4299 C   0  0  0  0  0  0  0  0  0  0  0  0
    8.4334  -12.6434   26.5523 C   0  0  0  0  0  0  0  0  0  0  0  0
    8.1581  -13.9915   26.5657 C   0  0  0  0  0  0  0  0  0  0  0  0
    7.9543  -16.3313   24.4582 C   0  0  0  0  0  0  0  0  0  0  0  0
    8.9720  -17.0440   24.6452 O   0  0  0  0  0  0  0  0  0  0  0  0
    6.8301  -13.1612   20.0465 C   0  0  0  0  0  0  0  0  0  0  0  0
    7.2458  -14.2276   21.0000 C   0  0  0  0  0  0  0  0  0  0  0  0
    8.6414  -14.2163   21.4744 C   0  0  2  0  0  0  0  0  0  0  0  0
    9.6189  -13.9441   20.3447 C   0  0  0  0  0  0  0  0  0  0  0  0
    9.0517  -15.2529   22.4477 C   0  0  2  0  0  0  0  0  0  0  0  0
    8.0845  -15.2331   23.5762 N   0  0  0  0  0  0  0  0  0  0  0  0
   10.3927  -15.1103   22.9708 C   0  0  0  0  0  0  0  0  0  0  0  0
   11.4152  -15.2748   22.2200 O   0  0  0  0  0  0  0  0  0  0  0  0
   10.6614  -14.7882   24.2835 O   0  0  0  0  0  0  0  0  0  0  0  0
  2  3  2  0
  2  1  1  0
  4  3  1  0
  5  4  2  0
  6  7  1  0
  6  5  1  0
  7  9  1  0
  7  8  1  6
  9 10  2  0
 11  5  1  0
 11 12  2  0
 12  2  1  0
 13  9  1  0
 14 13  1  0
 14 15  1  1
 16 15  1  0
 17 16  2  0
 18 17  1  0
 19 18  2  0
 19 20  1  0
 20 21  2  0
 21 16  1  0
 22 29  1  0
 22 14  1  0
 23 22  2  0
 24 25  1  0
 25 26  1  0
 26 27  1  6
 28 29  1  1
 28 26  1  0
 30 28  1  0
 31 30  2  0
 32 30  1  0
M  END
$$$$
