YFI.pdb
     RDKit          3D

 32 33  0  0  1  0  0  0  0  0999 V2000
   12.3224  -22.5207   17.2687 O   0  0  0  0  0  0  0  0  0  0  0  0
   12.2453  -21.5398   18.2432 C   0  0  0  0  0  0  0  0  0  0  0  0
   11.7187  -20.2969   17.9424 C   0  0  0  0  0  0  0  0  0  0  0  0
   11.6466  -19.3188   18.9310 C   0  0  0  0  0  0  0  0  0  0  0  0
   12.0863  -19.5452   20.2166 C   0  0  0  0  0  0  0  0  0  0  0  0
   12.0085  -18.4993   21.2705 C   0  0  0  0  0  0  0  0  0  0  0  0
   11.3153  -17.3003   20.6621 C   0  0  2  0  0  0  0  0  0  0  0  0
   12.2812  -16.6079   19.8488 N   0  0  0  0  0  0  0  0  0  0  0  0
   10.8289  -16.3826   21.7210 C   0  0  0  0  0  0  0  0  0  0  0  0
   11.5879  -15.5380   22.2105 O   0  0  0  0  0  0  0  0  0  0  0  0
   12.6093  -20.8044   20.4839 C   0  0  0  0  0  0  0  0  0  0  0  0
   12.6853  -21.7818   19.5098 C   0  0  0  0  0  0  0  0  0  0  0  0
    9.4957  -16.4532   22.1905 N   0  0  0  0  0  0  0  0  0  0  0  0
    9.0743  -15.5735   23.2362 C   0  0  1  0  0  0  0  0  0  0  0  0
    7.6155  -15.1954   23.1472 C   0  0  0  0  0  0  0  0  0  0  0  0
    7.1881  -14.3257   24.2867 C   0  0  0  0  0  0  0  0  0  0  0  0
    6.4038  -14.7410   25.3102 C   0  0  0  0  0  0  0  0  0  0  0  0
    6.0605  -13.8703   26.3170 C   0  0  0  0  0  0  0  0  0  0  0  0
    6.4975  -12.5644   26.3170 C   0  0  0  0  0  0  0  0  0  0  0  0
    7.2962  -12.1213   25.2852 C   0  0  0  0  0  0  0  0  0  0  0  0
    7.6223  -13.0167   24.2927 C   0  0  0  0  0  0  0  0  0  0  0  0
    9.2666  -16.2525   24.5367 C   0  0  0  0  0  0  0  0  0  0  0  0
    9.0377  -17.4727   24.7301 O   0  0  0  0  0  0  0  0  0  0  0  0
   10.4965  -13.2392   29.4301 C   0  0  0  0  0  0  0  0  0  0  0  0
    9.8936  -14.2417   28.5078 C   0  0  0  0  0  0  0  0  0  0  0  0
   10.8096  -15.1127   27.7494 C   0  0  2  0  0  0  0  0  0  0  0  0
   11.9654  -14.3307   27.1510 C   0  0  0  0  0  0  0  0  0  0  0  0
   10.2167  -16.1545   26.8814 C   0  0  2  0  0  0  0  0  0  0  0  0
    9.7353  -15.4980   25.6377 N   0  0  0  0  0  0  0  0  0  0  0  0
    9.1297  -16.9035   27.4727 C   0  0  0  0  0  0  0  0  0  0  0  0
    9.3332  -17.7002   28.4525 O   0  0  0  0  0  0  0  0  0  0  0  0
    7.8249  -16.8116   27.0389 O   0  0  0  0  0  0  0  0  0  0  0  0
  2  3  2  0
  2  1  1  0
  4  3  1  0
  5  4  2  0
  6  7  1  0
  6  5  1  0
  7  9  1  0
  7  8  1  6
  9 10  2  0
 11  5  1  0
 11 12  2  0
 12  2  1  0
 13  9  1  0
 14 13  1  0
 14 15  1  6
 16 15  1  0
 17 16  2  0
 18 17  1  0
 19 18  2  0
 19 20  1  0
 20 21  2  0
 21 16  1  0
 22 29  1  0
 22 14  1  0
 23 22  2  0
 24 25  1  0
 25 26  1  0
 26 27  1  6
 28 29  1  6
 28 26  1  0
 30 28  1  0
 31 30  2  0
 32 30  1  0
M  END
$$$$
