YFI.pdb
     RDKit          3D

 32 33  0  0  1  0  0  0  0  0999 V2000
   12.4900  -12.7215   18.5363 O   0  0  0  0  0  0  0  0  0  0  0  0
   11.3487  -13.5030   18.6029 C   0  0  0  0  0  0  0  0  0  0  0  0
   11.4424  -14.8817   18.5464 C   0  0  0  0  0  0  0  0  0  0  0  0
   10.2875  -15.6567   18.6144 C   0  0  0  0  0  0  0  0  0  0  0  0
    9.0362  -15.0942   18.7376 C   0  0  0  0  0  0  0  0  0  0  0  0
    7.8043  -15.9237   18.8098 C   0  0  0  0  0  0  0  0  0  0  0  0
    7.9389  -16.8221   20.0194 C   0  0  2  0  0  0  0  0  0  0  0  0
    6.8391  -17.7514   19.9935 N   0  0  0  0  0  0  0  0  0  0  0  0
    7.8722  -16.0295   21.2714 C   0  0  0  0  0  0  0  0  0  0  0  0
    7.2320  -14.9721   21.3061 O   0  0  0  0  0  0  0  0  0  0  0  0
    8.9787  -13.7071   18.7915 C   0  0  0  0  0  0  0  0  0  0  0  0
   10.1189  -12.9291   18.7248 C   0  0  0  0  0  0  0  0  0  0  0  0
    8.5347  -16.4630   22.4444 N   0  0  0  0  0  0  0  0  0  0  0  0
    8.4127  -15.6922   23.6427 C   0  0  1  0  0  0  0  0  0  0  0  0
    6.9879  -15.5550   24.1224 C   0  0  0  0  0  0  0  0  0  0  0  0
    6.8007  -14.3565   24.9976 C   0  0  0  0  0  0  0  0  0  0  0  0
    7.2360  -13.1115   24.6888 C   0  0  0  0  0  0  0  0  0  0  0  0
    7.0190  -12.0670   25.5558 C   0  0  0  0  0  0  0  0  0  0  0  0
    6.3604  -12.2511   26.7510 C   0  0  0  0  0  0  0  0  0  0  0  0
    5.9093  -13.5096   27.0848 C   0  0  0  0  0  0  0  0  0  0  0  0
    6.1419  -14.5341   26.1962 C   0  0  0  0  0  0  0  0  0  0  0  0
    9.1693  -16.3654   24.7215 C   0  0  0  0  0  0  0  0  0  0  0  0
    9.5191  -17.5716   24.6837 O   0  0  0  0  0  0  0  0  0  0  0  0
   10.2650  -12.7245   28.5609 C   0  0  0  0  0  0  0  0  0  0  0  0
   10.6847  -13.7614   27.5772 C   0  0  0  0  0  0  0  0  0  0  0  0
   10.5758  -15.1744   27.9828 C   0  0  2  0  0  0  0  0  0  0  0  0
   11.5588  -15.5216   29.0869 C   0  0  0  0  0  0  0  0  0  0  0  0
   10.4135  -16.1909   26.9195 C   0  0  2  0  0  0  0  0  0  0  0  0
    9.5281  -15.6216   25.8701 N   0  0  0  0  0  0  0  0  0  0  0  0
    9.8738  -17.4594   27.3574 C   0  0  0  0  0  0  0  0  0  0  0  0
   10.6439  -18.4222   27.6983 O   0  0  0  0  0  0  0  0  0  0  0  0
    8.5226  -17.7163   27.4438 O   0  0  0  0  0  0  0  0  0  0  0  0
  2  3  2  0
  2  1  1  0
  4  3  1  0
  5  4  2  0
  6  7  1  0
  6  5  1  0
  7  9  1  0
  7  8  1  1
  9 10  2  0
 11  5  1  0
 11 12  2  0
 12  2  1  0
 13  9  1  0
 14 13  1  0
 14 15  1  1
 16 15  1  0
 17 16  2  0
 18 17  1  0
 19 18  2  0
 19 20  1  0
 20 21  2  0
 21 16  1  0
 22 29  1  0
 22 14  1  0
 23 22  2  0
 24 25  1  0
 25 26  1  0
 26 27  1  6
 28 29  1  6
 28 26  1  0
 30 28  1  0
 31 30  2  0
 32 30  1  0
M  END
$$$$
