YFI.pdb
     RDKit          3D

 32 33  0  0  1  0  0  0  0  0999 V2000
   12.7782  -21.0682   24.6908 O   0  0  0  0  0  0  0  0  0  0  0  0
   12.5870  -20.2484   23.5912 C   0  0  0  0  0  0  0  0  0  0  0  0
   11.6273  -20.5612   22.6458 C   0  0  0  0  0  0  0  0  0  0  0  0
   11.4445  -19.7289   21.5444 C   0  0  0  0  0  0  0  0  0  0  0  0
   12.1944  -18.5886   21.3577 C   0  0  0  0  0  0  0  0  0  0  0  0
   11.9976  -17.7015   20.1808 C   0  0  0  0  0  0  0  0  0  0  0  0
   10.5321  -17.3288   20.1402 C   0  0  2  0  0  0  0  0  0  0  0  0
   10.2980  -16.6250   18.9059 N   0  0  0  0  0  0  0  0  0  0  0  0
   10.1851  -16.4403   21.2761 C   0  0  0  0  0  0  0  0  0  0  0  0
   10.7531  -15.3502   21.4106 O   0  0  0  0  0  0  0  0  0  0  0  0
   13.1491  -18.3047   22.3263 C   0  0  0  0  0  0  0  0  0  0  0  0
   13.3383  -19.1242   23.4228 C   0  0  0  0  0  0  0  0  0  0  0  0
    9.2041  -16.8182   22.2235 N   0  0  0  0  0  0  0  0  0  0  0  0
    8.8727  -15.9189   23.2847 C   0  0  1  0  0  0  0  0  0  0  0  0
    7.4012  -15.5879   23.3500 C   0  0  0  0  0  0  0  0  0  0  0  0
    7.1026  -14.5479   24.3827 C   0  0  0  0  0  0  0  0  0  0  0  0
    6.5286  -14.8072   25.5820 C   0  0  0  0  0  0  0  0  0  0  0  0
    6.2909  -13.7862   26.4712 C   0  0  0  0  0  0  0  0  0  0  0  0
    6.6247  -12.4836   26.1746 C   0  0  0  0  0  0  0  0  0  0  0  0
    7.2095  -12.1978   24.9601 C   0  0  0  0  0  0  0  0  0  0  0  0
    7.4344  -13.2413   24.0919 C   0  0  0  0  0  0  0  0  0  0  0  0
    9.2317  -16.5501   24.5740 C   0  0  0  0  0  0  0  0  0  0  0  0
    9.0999  -17.7763   24.8138 O   0  0  0  0  0  0  0  0  0  0  0  0
   10.0422  -13.6360   29.5834 C   0  0  0  0  0  0  0  0  0  0  0  0
    9.6761  -14.7072   28.6150 C   0  0  0  0  0  0  0  0  0  0  0  0
   10.7391  -15.2299   27.7376 C   0  0  2  0  0  0  0  0  0  0  0  0
   11.5875  -14.1143   27.1533 C   0  0  0  0  0  0  0  0  0  0  0  0
   10.3951  -16.3322   26.8120 C   0  0  2  0  0  0  0  0  0  0  0  0
    9.7555  -15.7395   25.6082 N   0  0  0  0  0  0  0  0  0  0  0  0
    9.5229  -17.3474   27.3603 C   0  0  0  0  0  0  0  0  0  0  0  0
    9.9303  -18.1448   28.2738 O   0  0  0  0  0  0  0  0  0  0  0  0
    8.2178  -17.5222   26.9537 O   0  0  0  0  0  0  0  0  0  0  0  0
  2  3  2  0
  2  1  1  0
  4  3  1  0
  5  4  2  0
  6  7  1  0
  6  5  1  0
  7  9  1  0
  7  8  1  6
  9 10  2  0
 11  5  1  0
 11 12  2  0
 12  2  1  0
 13  9  1  0
 14 13  1  0
 14 15  1  1
 16 15  1  0
 17 16  2  0
 18 17  1  0
 19 18  2  0
 19 20  1  0
 20 21  2  0
 21 16  1  0
 22 29  1  0
 22 14  1  0
 23 22  2  0
 24 25  1  0
 25 26  1  0
 26 27  1  6
 28 29  1  6
 28 26  1  0
 30 28  1  0
 31 30  2  0
 32 30  1  0
M  END
$$$$
