YFI.pdb
     RDKit          3D

 32 33  0  0  1  0  0  0  0  0999 V2000
   10.5705  -22.7871   17.5499 O   0  0  0  0  0  0  0  0  0  0  0  0
   10.7895  -21.7660   18.4593 C   0  0  0  0  0  0  0  0  0  0  0  0
   10.3632  -21.8940   19.7687 C   0  0  0  0  0  0  0  0  0  0  0  0
   10.5892  -20.8601   20.6737 C   0  0  0  0  0  0  0  0  0  0  0  0
   11.2309  -19.6971   20.3093 C   0  0  0  0  0  0  0  0  0  0  0  0
   11.4710  -18.5943   21.2773 C   0  0  0  0  0  0  0  0  0  0  0  0
   10.8436  -17.3453   20.6990 C   0  0  2  0  0  0  0  0  0  0  0  0
   11.8218  -16.7253   19.8432 N   0  0  0  0  0  0  0  0  0  0  0  0
   10.4745  -16.3962   21.7775 C   0  0  0  0  0  0  0  0  0  0  0  0
   11.3231  -15.6326   22.2529 O   0  0  0  0  0  0  0  0  0  0  0  0
   11.6456  -19.6020   18.9866 C   0  0  0  0  0  0  0  0  0  0  0  0
   11.4261  -20.6223   18.0808 C   0  0  0  0  0  0  0  0  0  0  0  0
    9.1533  -16.3444   22.2819 N   0  0  0  0  0  0  0  0  0  0  0  0
    8.8343  -15.4077   23.3143 C   0  0  1  0  0  0  0  0  0  0  0  0
    7.3647  -15.0686   23.3803 C   0  0  0  0  0  0  0  0  0  0  0  0
    7.0680  -14.0503   24.4350 C   0  0  0  0  0  0  0  0  0  0  0  0
    7.3990  -12.7399   24.3441 C   0  0  0  0  0  0  0  0  0  0  0  0
    7.0857  -11.8741   25.3648 C   0  0  0  0  0  0  0  0  0  0  0  0
    6.4335  -12.3061   26.4980 C   0  0  0  0  0  0  0  0  0  0  0  0
    6.0876  -13.6352   26.6109 C   0  0  0  0  0  0  0  0  0  0  0  0
    6.4150  -14.4765   25.5726 C   0  0  0  0  0  0  0  0  0  0  0  0
    9.2018  -15.9956   24.6215 C   0  0  0  0  0  0  0  0  0  0  0  0
    9.1831  -17.2281   24.8648 O   0  0  0  0  0  0  0  0  0  0  0  0
   10.4196  -13.9199   30.3714 C   0  0  0  0  0  0  0  0  0  0  0  0
   10.7782  -14.8310   29.2487 C   0  0  0  0  0  0  0  0  0  0  0  0
   10.1691  -14.5684   27.9322 C   0  0  2  0  0  0  0  0  0  0  0  0
    8.8703  -13.7917   28.0565 C   0  0  0  0  0  0  0  0  0  0  0  0
   10.1750  -15.6616   26.9347 C   0  0  2  0  0  0  0  0  0  0  0  0
    9.5999  -15.1334   25.6699 N   0  0  0  0  0  0  0  0  0  0  0  0
    9.4523  -16.8530   27.3223 C   0  0  0  0  0  0  0  0  0  0  0  0
    8.2223  -17.0106   27.0083 O   0  0  0  0  0  0  0  0  0  0  0  0
   10.0232  -17.8845   28.0359 O   0  0  0  0  0  0  0  0  0  0  0  0
  2  3  2  0
  2  1  1  0
  4  3  1  0
  5  4  2  0
  6  7  1  0
  6  5  1  0
  7  9  1  0
  7  8  1  6
  9 10  2  0
 11  5  1  0
 11 12  2  0
 12  2  1  0
 13  9  1  0
 14 13  1  0
 14 15  1  1
 16 15  1  0
 17 16  2  0
 18 17  1  0
 19 18  2  0
 19 20  1  0
 20 21  2  0
 21 16  1  0
 22 29  1  0
 22 14  1  0
 23 22  2  0
 24 25  1  0
 25 26  1  0
 26 27  1  1
 28 29  1  6
 28 26  1  0
 30 28  1  0
 31 30  2  0
 32 30  1  0
M  END
$$$$
