YFI.pdb
     RDKit          3D

 32 33  0  0  1  0  0  0  0  0999 V2000
    5.4169  -25.3156   26.9307 O   0  0  0  0  0  0  0  0  0  0  0  0
    5.8302  -24.2454   26.1551 C   0  0  0  0  0  0  0  0  0  0  0  0
    6.5344  -24.4623   24.9847 C   0  0  0  0  0  0  0  0  0  0  0  0
    6.9445  -23.3778   24.2134 C   0  0  0  0  0  0  0  0  0  0  0  0
    6.6715  -22.0776   24.5769 C   0  0  0  0  0  0  0  0  0  0  0  0
    7.1105  -20.9212   23.7518 C   0  0  0  0  0  0  0  0  0  0  0  0
    5.9781  -19.9182   23.7468 C   0  0  2  0  0  0  0  0  0  0  0  0
    5.2831  -20.0556   22.4931 N   0  0  0  0  0  0  0  0  0  0  0  0
    6.5021  -18.5351   23.8596 C   0  0  0  0  0  0  0  0  0  0  0  0
    7.1634  -18.0423   22.9383 O   0  0  0  0  0  0  0  0  0  0  0  0
    5.9624  -21.8962   25.7579 C   0  0  0  0  0  0  0  0  0  0  0  0
    5.5510  -22.9656   26.5304 C   0  0  0  0  0  0  0  0  0  0  0  0
    6.2584  -17.7556   25.0153 N   0  0  0  0  0  0  0  0  0  0  0  0
    6.8735  -16.4702   25.1352 C   0  0  1  0  0  0  0  0  0  0  0  0
    6.3221  -15.6479   26.2749 C   0  0  0  0  0  0  0  0  0  0  0  0
    6.8594  -14.2519   26.2743 C   0  0  0  0  0  0  0  0  0  0  0  0
    7.7804  -13.7892   27.1533 C   0  0  0  0  0  0  0  0  0  0  0  0
    8.2176  -12.4881   27.0775 C   0  0  0  0  0  0  0  0  0  0  0  0
    7.7391  -11.6247   26.1174 C   0  0  0  0  0  0  0  0  0  0  0  0
    6.8018  -12.0749   25.2133 C   0  0  0  0  0  0  0  0  0  0  0  0
    6.3843  -13.3821   25.3153 C   0  0  0  0  0  0  0  0  0  0  0  0
    8.3183  -16.6557   25.3951 C   0  0  0  0  0  0  0  0  0  0  0  0
    8.7780  -17.4207   26.2794 O   0  0  0  0  0  0  0  0  0  0  0  0
   13.2277  -15.5400   21.7227 C   0  0  0  0  0  0  0  0  0  0  0  0
   12.6689  -16.0644   23.0002 C   0  0  0  0  0  0  0  0  0  0  0  0
   11.2408  -15.8222   23.2738 C   0  0  2  0  0  0  0  0  0  0  0  0
   10.8230  -14.4149   22.8857 C   0  0  0  0  0  0  0  0  0  0  0  0
   10.6811  -16.3349   24.5443 C   0  0  2  0  0  0  0  0  0  0  0  0
    9.2506  -15.9368   24.6107 N   0  0  0  0  0  0  0  0  0  0  0  0
   11.3549  -15.8819   25.7413 C   0  0  0  0  0  0  0  0  0  0  0  0
   12.5384  -16.2773   26.0226 O   0  0  0  0  0  0  0  0  0  0  0  0
   10.7878  -15.0068   26.6423 O   0  0  0  0  0  0  0  0  0  0  0  0
  2  3  2  0
  2  1  1  0
  4  3  1  0
  5  4  2  0
  6  7  1  0
  6  5  1  0
  7  9  1  0
  7  8  1  6
  9 10  2  0
 11  5  1  0
 11 12  2  0
 12  2  1  0
 13  9  1  0
 14 13  1  0
 14 15  1  1
 16 15  1  0
 17 16  2  0
 18 17  1  0
 19 18  2  0
 19 20  1  0
 20 21  2  0
 21 16  1  0
 22 29  1  0
 22 14  1  0
 23 22  2  0
 24 25  1  0
 25 26  1  0
 26 27  1  1
 28 29  1  1
 28 26  1  0
 30 28  1  0
 31 30  2  0
 32 30  1  0
M  END
$$$$
