YFI.pdb
     RDKit          3D

 32 33  0  0  1  0  0  0  0  0999 V2000
    8.7058  -11.6491   18.2534 O   0  0  0  0  0  0  0  0  0  0  0  0
    8.2490  -12.7873   18.8964 C   0  0  0  0  0  0  0  0  0  0  0  0
    9.0156  -13.9384   18.9067 C   0  0  0  0  0  0  0  0  0  0  0  0
    8.5454  -15.0766   19.5567 C   0  0  0  0  0  0  0  0  0  0  0  0
    7.3274  -15.1004   20.1996 C   0  0  0  0  0  0  0  0  0  0  0  0
    6.8273  -16.3169   20.8929 C   0  0  0  0  0  0  0  0  0  0  0  0
    8.0369  -17.0987   21.3556 C   0  0  2  0  0  0  0  0  0  0  0  0
    7.8289  -18.4757   20.9893 N   0  0  0  0  0  0  0  0  0  0  0  0
    8.1879  -17.0081   22.8284 C   0  0  0  0  0  0  0  0  0  0  0  0
    8.0673  -18.0189   23.5305 O   0  0  0  0  0  0  0  0  0  0  0  0
    6.5836  -13.9272   20.1696 C   0  0  0  0  0  0  0  0  0  0  0  0
    7.0414  -12.7925   19.5273 C   0  0  0  0  0  0  0  0  0  0  0  0
    8.4712  -15.7723   23.4571 N   0  0  0  0  0  0  0  0  0  0  0  0
    8.9267  -15.7648   24.8126 C   0  0  1  0  0  0  0  0  0  0  0  0
    8.7578  -14.4274   25.4924 C   0  0  0  0  0  0  0  0  0  0  0  0
    9.1820  -14.4663   26.9262 C   0  0  0  0  0  0  0  0  0  0  0  0
    8.4289  -14.0122   27.9566 C   0  0  0  0  0  0  0  0  0  0  0  0
    8.9006  -14.0884   29.2455 C   0  0  0  0  0  0  0  0  0  0  0  0
   10.1385  -14.6222   29.5266 C   0  0  0  0  0  0  0  0  0  0  0  0
   10.9208  -15.0900   28.4932 C   0  0  0  0  0  0  0  0  0  0  0  0
   10.4207  -14.9997   27.2146 C   0  0  0  0  0  0  0  0  0  0  0  0
    8.1354  -16.7465   25.5869 C   0  0  0  0  0  0  0  0  0  0  0  0
    6.9003  -16.6434   25.7932 O   0  0  0  0  0  0  0  0  0  0  0  0
    8.2436  -22.1781   25.2648 C   0  0  0  0  0  0  0  0  0  0  0  0
    8.6989  -20.8916   25.8619 C   0  0  0  0  0  0  0  0  0  0  0  0
    7.6687  -19.9788   26.3896 C   0  0  2  0  0  0  0  0  0  0  0  0
    6.5335  -19.7777   25.4013 C   0  0  0  0  0  0  0  0  0  0  0  0
    8.1187  -18.7677   27.1114 C   0  0  2  0  0  0  0  0  0  0  0  0
    8.7927  -17.8734   26.1340 N   0  0  0  0  0  0  0  0  0  0  0  0
    9.0099  -19.0097   28.2246 C   0  0  0  0  0  0  0  0  0  0  0  0
    8.6403  -19.7163   29.2248 O   0  0  0  0  0  0  0  0  0  0  0  0
   10.2944  -18.5143   28.2858 O   0  0  0  0  0  0  0  0  0  0  0  0
  2  3  2  0
  2  1  1  0
  4  3  1  0
  5  4  2  0
  6  7  1  0
  6  5  1  0
  7  9  1  0
  7  8  1  1
  9 10  2  0
 11  5  1  0
 11 12  2  0
 12  2  1  0
 13  9  1  0
 14 13  1  0
 14 15  1  1
 16 15  1  0
 17 16  2  0
 18 17  1  0
 19 18  2  0
 19 20  1  0
 20 21  2  0
 21 16  1  0
 22 29  1  0
 22 14  1  0
 23 22  2  0
 24 25  1  0
 25 26  1  0
 26 27  1  6
 28 29  1  6
 28 26  1  0
 30 28  1  0
 31 30  2  0
 32 30  1  0
M  END
$$$$
