YFI.pdb
     RDKit          3D

 32 33  0  0  1  0  0  0  0  0999 V2000
   11.8061  -23.3588   22.1150 O   0  0  0  0  0  0  0  0  0  0  0  0
   11.8832  -22.0202   21.7686 C   0  0  0  0  0  0  0  0  0  0  0  0
   13.1107  -21.3872   21.6970 C   0  0  0  0  0  0  0  0  0  0  0  0
   13.1751  -20.0408   21.3476 C   0  0  0  0  0  0  0  0  0  0  0  0
   12.0458  -19.3039   21.0663 C   0  0  0  0  0  0  0  0  0  0  0  0
   12.1170  -17.8663   20.6936 C   0  0  0  0  0  0  0  0  0  0  0  0
   10.7042  -17.4061   20.4100 C   0  0  2  0  0  0  0  0  0  0  0  0
   10.7087  -16.7612   19.1224 N   0  0  0  0  0  0  0  0  0  0  0  0
   10.2534  -16.4339   21.4356 C   0  0  0  0  0  0  0  0  0  0  0  0
   10.8654  -15.3718   21.5989 O   0  0  0  0  0  0  0  0  0  0  0  0
   10.8298  -19.9711   21.1478 C   0  0  0  0  0  0  0  0  0  0  0  0
   10.7553  -21.3069   21.4936 C   0  0  0  0  0  0  0  0  0  0  0  0
    9.1219  -16.6987   22.2432 N   0  0  0  0  0  0  0  0  0  0  0  0
    8.7383  -15.7511   23.2431 C   0  0  1  0  0  0  0  0  0  0  0  0
    7.2469  -15.5288   23.3148 C   0  0  0  0  0  0  0  0  0  0  0  0
    6.8772  -14.5151   24.3507 C   0  0  0  0  0  0  0  0  0  0  0  0
    6.2152  -14.8029   25.4970 C   0  0  0  0  0  0  0  0  0  0  0  0
    5.9169  -13.8047   26.3938 C   0  0  0  0  0  0  0  0  0  0  0  0
    6.2771  -12.4967   26.1582 C   0  0  0  0  0  0  0  0  0  0  0  0
    6.9512  -12.1820   24.9983 C   0  0  0  0  0  0  0  0  0  0  0  0
    7.2351  -13.2031   24.1209 C   0  0  0  0  0  0  0  0  0  0  0  0
    9.1645  -16.2563   24.5670 C   0  0  0  0  0  0  0  0  0  0  0  0
    8.9309  -17.4195   24.9808 O   0  0  0  0  0  0  0  0  0  0  0  0
   10.9838  -13.7646   29.9522 C   0  0  0  0  0  0  0  0  0  0  0  0
   11.0517  -14.8979   28.9877 C   0  0  0  0  0  0  0  0  0  0  0  0
   10.4418  -14.7047   27.6597 C   0  0  2  0  0  0  0  0  0  0  0  0
    9.1685  -13.8811   27.7382 C   0  0  0  0  0  0  0  0  0  0  0  0
   10.4069  -15.8615   26.7373 C   0  0  2  0  0  0  0  0  0  0  0  0
    9.8779  -15.3918   25.4300 N   0  0  0  0  0  0  0  0  0  0  0  0
    9.6190  -16.9868   27.1903 C   0  0  0  0  0  0  0  0  0  0  0  0
    8.3596  -17.0411   26.9732 O   0  0  0  0  0  0  0  0  0  0  0  0
   10.1551  -18.0608   27.8673 O   0  0  0  0  0  0  0  0  0  0  0  0
  2  3  2  0
  2  1  1  0
  4  3  1  0
  5  4  2  0
  6  7  1  0
  6  5  1  0
  7  9  1  0
  7  8  1  6
  9 10  2  0
 11  5  1  0
 11 12  2  0
 12  2  1  0
 13  9  1  0
 14 13  1  0
 14 15  1  1
 16 15  1  0
 17 16  2  0
 18 17  1  0
 19 18  2  0
 19 20  1  0
 20 21  2  0
 21 16  1  0
 22 29  1  0
 22 14  1  0
 23 22  2  0
 24 25  1  0
 25 26  1  0
 26 27  1  1
 28 29  1  6
 28 26  1  0
 30 28  1  0
 31 30  2  0
 32 30  1  0
M  END
$$$$
