RPG.pdb
     RDKit          3D

 23 23  0  0  1  0  0  0  0  0999 V2000
   19.7815  -24.0798   -7.1734 N   0  0  0  0  0  0  0  0  0  0  0  0
   18.9598  -23.6740   -8.2627 C   0  0  0  0  0  0  0  0  0  0  0  0
   17.6849  -23.8756   -8.3024 N   0  0  0  0  0  0  0  0  0  0  0  0
   19.5466  -23.0088   -9.3813 N   0  0  0  0  0  0  0  0  0  0  0  0
   20.9677  -22.8763   -9.5482 C   0  0  0  0  0  0  0  0  0  0  0  0
   21.2317  -22.1734  -10.8618 C   0  0  0  0  0  0  0  0  0  0  0  0
   21.9040  -20.8511  -10.6759 C   0  0  0  0  0  0  0  0  0  0  0  0
   23.4016  -21.0016  -10.8205 C   0  0  2  0  0  0  0  0  0  0  0  0
   24.0541  -20.3791   -9.7187 N   0  0  0  0  0  0  0  0  0  0  0  0
   23.8961  -20.4547  -12.0868 C   0  0  0  0  0  0  0  0  0  0  0  0
   23.4869  -19.3007  -12.4064 O   0  0  0  0  0  0  0  0  0  0  0  0
   17.1318  -23.5790   -9.1407 N   0  0  0  0  0  0  0  0  0  0  0  0
   24.7911  -21.1706  -12.9304 C   0  0  0  0  0  0  0  0  0  0  0  0
   25.4071  -22.4387  -12.6246 C   0  0  0  0  0  0  0  0  0  0  0  0
   26.4054  -22.6637  -13.7514 C   0  0  0  0  0  0  0  0  0  0  0  0
   25.8407  -21.8787  -14.8963 C   0  0  2  0  0  0  0  0  0  0  0  0
   25.1879  -20.7032  -14.2197 C   0  0  0  0  0  0  0  0  0  0  0  0
   24.0503  -20.2182  -15.0628 O   0  0  0  0  0  0  0  0  0  0  0  0
   22.9045  -20.6501  -14.8357 N   0  0  0  0  0  0  0  0  0  0  0  0
   24.2624  -19.2895  -16.0972 C   0  0  0  0  0  0  0  0  0  0  0  0
   23.2540  -18.9119  -17.0624 C   0  0  0  0  0  0  0  0  0  0  0  0
   22.5953  -17.6363  -16.7194 O   0  0  0  0  0  0  0  0  0  0  0  0
   23.2958  -16.6510  -16.4077 O   0  0  0  0  0  0  0  0  0  0  0  0
  2  4  1  0
  2  1  1  0
  3  2  2  0
  5  4  1  0
  6  5  1  0
  7  8  1  0
  7  6  1  0
  8 10  1  0
  8  9  1  1
 10 12  1  0
 11 10  2  0
 12 13  1  0
 12 16  1  0
 13 14  1  0
 14 15  1  0
 16 15  1  0
 16 17  1  6
 17 18  2  0
 19 17  1  0
 20 19  1  0
 20 21  1  0
 21 22  2  0
 21 23  1  0
M  END
$$$$
