RPG.pdb
     RDKit          3D

 23 23  0  0  1  0  0  0  0  0999 V2000
   23.0882  -21.3302   -8.9057 N   0  0  0  0  0  0  0  0  0  0  0  0
   24.4365  -20.9048   -9.0719 C   0  0  0  0  0  0  0  0  0  0  0  0
   25.2108  -20.6011   -8.0840 N   0  0  0  0  0  0  0  0  0  0  0  0
   24.9878  -20.7993  -10.3846 N   0  0  0  0  0  0  0  0  0  0  0  0
   24.3665  -21.3906  -11.5376 C   0  0  0  0  0  0  0  0  0  0  0  0
   25.4080  -22.1984  -12.2807 C   0  0  0  0  0  0  0  0  0  0  0  0
   25.6451  -21.6869  -13.6653 C   0  0  0  0  0  0  0  0  0  0  0  0
   26.5887  -20.5059  -13.6314 C   0  0  2  0  0  0  0  0  0  0  0  0
   26.9765  -20.2412  -12.2873 N   0  0  0  0  0  0  0  0  0  0  0  0
   26.0046  -19.3093  -14.2432 C   0  0  0  0  0  0  0  0  0  0  0  0
   24.8696  -18.9482  -13.8156 O   0  0  0  0  0  0  0  0  0  0  0  0
   26.1868  -20.2674   -8.2648 N   0  0  0  0  0  0  0  0  0  0  0  0
   26.6642  -18.5767  -15.2696 C   0  0  0  0  0  0  0  0  0  0  0  0
   28.0062  -18.8103  -15.7442 C   0  0  0  0  0  0  0  0  0  0  0  0
   28.2881  -17.6505  -16.6887 C   0  0  0  0  0  0  0  0  0  0  0  0
   26.9296  -17.2353  -17.1664 C   0  0  2  0  0  0  0  0  0  0  0  0
   26.0498  -17.4973  -15.9736 C   0  0  0  0  0  0  0  0  0  0  0  0
   24.6598  -17.7952  -16.4420 O   0  0  0  0  0  0  0  0  0  0  0  0
   24.3189  -18.9822  -16.6026 N   0  0  0  0  0  0  0  0  0  0  0  0
   23.7461  -16.7575  -16.6991 C   0  0  0  0  0  0  0  0  0  0  0  0
   22.4010  -16.9684  -17.1861 C   0  0  0  0  0  0  0  0  0  0  0  0
   21.4999  -17.4946  -16.1421 O   0  0  0  0  0  0  0  0  0  0  0  0
   21.8472  -17.4286  -14.9447 O   0  0  0  0  0  0  0  0  0  0  0  0
  2  4  1  0
  2  1  1  0
  3  2  2  0
  5  4  1  0
  6  5  1  0
  7  8  1  0
  7  6  1  0
  8 10  1  0
  8  9  1  1
 10 12  1  0
 11 10  2  0
 12 13  1  0
 12 16  1  0
 13 14  1  0
 14 15  1  0
 16 15  1  0
 16 17  1  6
 17 18  2  0
 19 17  1  0
 20 19  1  0
 20 21  1  0
 21 22  2  0
 21 23  1  0
M  END
$$$$
