RPG.pdb
     RDKit          3D

 23 23  0  0  1  0  0  0  0  0999 V2000
   20.2483  -17.4782  -16.1612 N   0  0  0  0  0  0  0  0  0  0  0  0
   20.0023  -18.8415  -15.8335 C   0  0  0  0  0  0  0  0  0  0  0  0
   18.8320  -19.3843  -15.8911 N   0  0  0  0  0  0  0  0  0  0  0  0
   21.0842  -19.6747  -15.4171 N   0  0  0  0  0  0  0  0  0  0  0  0
   22.4432  -19.2115  -15.3586 C   0  0  0  0  0  0  0  0  0  0  0  0
   22.9190  -18.9453  -16.7701 C   0  0  0  0  0  0  0  0  0  0  0  0
   24.3581  -18.5431  -16.8204 C   0  0  0  0  0  0  0  0  0  0  0  0
   25.2337  -19.7595  -17.0204 C   0  0  2  0  0  0  0  0  0  0  0  0
   24.5537  -20.7108  -17.8327 N   0  0  0  0  0  0  0  0  0  0  0  0
   25.6419  -20.3661  -15.7505 C   0  0  0  0  0  0  0  0  0  0  0  0
   24.9052  -21.2906  -15.2990 O   0  0  0  0  0  0  0  0  0  0  0  0
   18.7029  -20.3856  -15.6131 N   0  0  0  0  0  0  0  0  0  0  0  0
   26.8046  -19.9492  -15.0437 C   0  0  0  0  0  0  0  0  0  0  0  0
   27.7940  -19.0150  -15.5227 C   0  0  0  0  0  0  0  0  0  0  0  0
   28.9074  -19.0680  -14.4864 C   0  0  0  0  0  0  0  0  0  0  0  0
   28.2123  -19.5010  -13.2312 C   0  0  2  0  0  0  0  0  0  0  0  0
   27.1303  -20.4180  -13.7351 C   0  0  0  0  0  0  0  0  0  0  0  0
   25.9780  -20.3925  -12.7803 O   0  0  0  0  0  0  0  0  0  0  0  0
   25.1450  -19.4706  -12.8649 N   0  0  0  0  0  0  0  0  0  0  0  0
   25.8301  -21.3896  -11.7997 C   0  0  0  0  0  0  0  0  0  0  0  0
   24.7819  -21.3932  -10.8036 C   0  0  0  0  0  0  0  0  0  0  0  0
   23.4341  -21.3519  -11.4039 O   0  0  0  0  0  0  0  0  0  0  0  0
   22.7616  -20.3030  -11.3249 O   0  0  0  0  0  0  0  0  0  0  0  0
  2  4  1  0
  2  1  1  0
  3  2  2  0
  5  4  1  0
  6  5  1  0
  7  8  1  0
  7  6  1  0
  8 10  1  0
  8  9  1  6
 10 12  1  0
 11 10  2  0
 12 13  1  0
 12 16  1  0
 13 14  1  0
 14 15  1  0
 16 15  1  0
 16 17  1  1
 17 18  2  0
 19 17  1  0
 20 19  1  0
 20 21  1  0
 21 22  2  0
 21 23  1  0
M  END
$$$$
