RPG.pdb
     RDKit          3D

 23 23  0  0  1  0  0  0  0  0999 V2000
   19.5793  -18.3118  -17.4370 N   0  0  0  0  0  0  0  0  0  0  0  0
   20.7466  -18.7623  -18.1159 C   0  0  0  0  0  0  0  0  0  0  0  0
   20.7151  -19.3558  -19.2624 N   0  0  0  0  0  0  0  0  0  0  0  0
   22.0303  -18.5617  -17.5242 N   0  0  0  0  0  0  0  0  0  0  0  0
   22.5548  -19.4199  -16.4978 C   0  0  0  0  0  0  0  0  0  0  0  0
   21.6378  -19.3448  -15.2966 C   0  0  0  0  0  0  0  0  0  0  0  0
   22.3768  -19.0407  -14.0331 C   0  0  0  0  0  0  0  0  0  0  0  0
   23.2773  -20.1977  -13.6634 C   0  0  2  0  0  0  0  0  0  0  0  0
   23.6986  -20.8731  -14.8439 N   0  0  0  0  0  0  0  0  0  0  0  0
   22.6305  -21.1329  -12.7391 C   0  0  0  0  0  0  0  0  0  0  0  0
   21.9002  -22.0286  -13.2547 O   0  0  0  0  0  0  0  0  0  0  0  0
   21.6055  -19.6651  -19.7186 N   0  0  0  0  0  0  0  0  0  0  0  0
   22.8011  -21.0535  -11.3285 C   0  0  0  0  0  0  0  0  0  0  0  0
   23.6529  -20.1203  -10.6324 C   0  0  0  0  0  0  0  0  0  0  0  0
   23.6226  -20.5794   -9.1815 C   0  0  0  0  0  0  0  0  0  0  0  0
   22.3089  -21.2895   -9.0547 C   0  0  2  0  0  0  0  0  0  0  0  0
   22.1209  -21.9116  -10.4123 C   0  0  0  0  0  0  0  0  0  0  0  0
   20.6572  -22.0539  -10.6912 O   0  0  0  0  0  0  0  0  0  0  0  0
   20.0155  -21.0558  -11.0692 N   0  0  0  0  0  0  0  0  0  0  0  0
   20.0084  -23.2913  -10.5317 C   0  0  0  0  0  0  0  0  0  0  0  0
   19.6979  -23.8805   -9.2481 C   0  0  0  0  0  0  0  0  0  0  0  0
   18.3328  -23.5521   -8.7929 O   0  0  0  0  0  0  0  0  0  0  0  0
   17.9014  -24.0608   -7.7375 O   0  0  0  0  0  0  0  0  0  0  0  0
  2  4  1  0
  2  1  1  0
  3  2  2  0
  5  4  1  0
  6  5  1  0
  7  8  1  0
  7  6  1  0
  8 10  1  0
  8  9  1  6
 10 12  1  0
 11 10  2  0
 12 13  1  0
 12 16  1  0
 13 14  1  0
 14 15  1  0
 16 15  1  0
 16 17  1  1
 17 18  2  0
 19 17  1  0
 20 19  1  0
 20 21  1  0
 21 22  2  0
 21 23  1  0
M  END
$$$$
