RPG.pdb
     RDKit          3D

 23 23  0  0  1  0  0  0  0  0999 V2000
   21.5574  -20.0411   -7.9723 N   0  0  0  0  0  0  0  0  0  0  0  0
   22.0958  -21.3391   -8.1999 C   0  0  0  0  0  0  0  0  0  0  0  0
   21.6207  -22.4091   -7.6547 N   0  0  0  0  0  0  0  0  0  0  0  0
   23.2170  -21.4970   -9.0694 N   0  0  0  0  0  0  0  0  0  0  0  0
   23.4280  -20.6664  -10.2230 C   0  0  0  0  0  0  0  0  0  0  0  0
   22.7199  -21.2967  -11.4023 C   0  0  0  0  0  0  0  0  0  0  0  0
   23.5594  -21.2942  -12.6393 C   0  0  0  0  0  0  0  0  0  0  0  0
   24.1247  -19.9134  -12.8841 C   0  0  2  0  0  0  0  0  0  0  0  0
   23.1200  -19.0778  -13.4493 N   0  0  0  0  0  0  0  0  0  0  0  0
   25.3120  -19.9424  -13.7424 C   0  0  0  0  0  0  0  0  0  0  0  0
   25.1267  -19.7343  -14.9768 O   0  0  0  0  0  0  0  0  0  0  0  0
   22.0746  -23.3358   -7.8331 N   0  0  0  0  0  0  0  0  0  0  0  0
   26.6171  -20.1922  -13.2328 C   0  0  0  0  0  0  0  0  0  0  0  0
   26.9508  -20.4393  -11.8513 C   0  0  0  0  0  0  0  0  0  0  0  0
   28.4725  -20.4487  -11.8184 C   0  0  0  0  0  0  0  0  0  0  0  0
   28.8614  -20.8480  -13.2096 C   0  0  2  0  0  0  0  0  0  0  0  0
   27.7806  -20.2350  -14.0590 C   0  0  0  0  0  0  0  0  0  0  0  0
   27.6087  -21.0503  -15.3024 O   0  0  0  0  0  0  0  0  0  0  0  0
   26.9062  -22.0776  -15.2577 N   0  0  0  0  0  0  0  0  0  0  0  0
   28.2270  -20.6700  -16.5069 C   0  0  0  0  0  0  0  0  0  0  0  0
   28.0325  -21.3547  -17.7656 C   0  0  0  0  0  0  0  0  0  0  0  0
   26.8448  -20.8678  -18.4942 O   0  0  0  0  0  0  0  0  0  0  0  0
   26.9528  -19.8777  -19.2471 O   0  0  0  0  0  0  0  0  0  0  0  0
  2  4  1  0
  2  1  1  0
  3  2  2  0
  5  4  1  0
  6  5  1  0
  7  8  1  0
  7  6  1  0
  8 10  1  0
  8  9  1  6
 10 12  1  0
 11 10  2  0
 12 13  1  0
 12 16  1  0
 13 14  1  0
 14 15  1  0
 16 15  1  0
 16 17  1  1
 17 18  2  0
 19 17  1  0
 20 19  1  0
 20 21  1  0
 21 22  2  0
 21 23  1  0
M  END
$$$$
