RPG.pdb
     RDKit          3D

 23 23  0  0  1  0  0  0  0  0999 V2000
   18.3157  -20.1299  -15.7263 N   0  0  0  0  0  0  0  0  0  0  0  0
   18.6569  -18.9801  -16.4932 C   0  0  0  0  0  0  0  0  0  0  0  0
   18.4175  -18.8751  -17.7578 N   0  0  0  0  0  0  0  0  0  0  0  0
   19.2965  -17.8721  -15.8597 N   0  0  0  0  0  0  0  0  0  0  0  0
   19.5922  -17.8460  -14.4537 C   0  0  0  0  0  0  0  0  0  0  0  0
   20.6966  -18.8430  -14.1785 C   0  0  0  0  0  0  0  0  0  0  0  0
   20.3807  -19.7400  -13.0250 C   0  0  0  0  0  0  0  0  0  0  0  0
   21.5367  -20.6782  -12.7610 C   0  0  2  0  0  0  0  0  0  0  0  0
   21.7328  -21.5257  -13.8882 N   0  0  0  0  0  0  0  0  0  0  0  0
   21.3407  -21.4747  -11.5468 C   0  0  0  0  0  0  0  0  0  0  0  0
   20.4817  -22.4019  -11.6073 O   0  0  0  0  0  0  0  0  0  0  0  0
   18.6714  -17.9974  -18.2696 N   0  0  0  0  0  0  0  0  0  0  0  0
   22.0690  -21.2323  -10.3485 C   0  0  0  0  0  0  0  0  0  0  0  0
   23.1474  -20.2868  -10.1926 C   0  0  0  0  0  0  0  0  0  0  0  0
   23.6980  -20.5567   -8.7996 C   0  0  0  0  0  0  0  0  0  0  0  0
   22.5347  -21.1431   -8.0587 C   0  0  2  0  0  0  0  0  0  0  0  0
   21.8015  -21.9144   -9.1231 C   0  0  0  0  0  0  0  0  0  0  0  0
   20.3478  -21.9786   -8.7726 O   0  0  0  0  0  0  0  0  0  0  0  0
   19.5916  -21.0713   -9.1675 N   0  0  0  0  0  0  0  0  0  0  0  0
   19.8349  -23.0429   -8.0098 C   0  0  0  0  0  0  0  0  0  0  0  0
   18.4710  -23.1116   -7.5343 C   0  0  0  0  0  0  0  0  0  0  0  0
   18.1442  -24.4263   -6.9483 O   0  0  0  0  0  0  0  0  0  0  0  0
   17.0407  -24.5882   -6.3871 O   0  0  0  0  0  0  0  0  0  0  0  0
  2  4  1  0
  2  1  1  0
  3  2  2  0
  5  4  1  0
  6  5  1  0
  7  8  1  0
  7  6  1  0
  8 10  1  0
  8  9  1  6
 10 12  1  0
 11 10  2  0
 12 13  1  0
 12 16  1  0
 13 14  1  0
 14 15  1  0
 16 15  1  0
 16 17  1  1
 17 18  2  0
 19 17  1  0
 20 19  1  0
 20 21  1  0
 21 22  2  0
 21 23  1  0
M  END
$$$$
