RPG.pdb
     RDKit          3D

 23 23  0  0  1  0  0  0  0  0999 V2000
   23.1001  -19.0061  -16.3040 N   0  0  0  0  0  0  0  0  0  0  0  0
   22.3089  -17.8319  -16.4514 C   0  0  0  0  0  0  0  0  0  0  0  0
   22.4417  -17.0066  -17.4358 N   0  0  0  0  0  0  0  0  0  0  0  0
   21.3107  -17.5252  -15.4779 N   0  0  0  0  0  0  0  0  0  0  0  0
   21.0852  -18.3378  -14.3143 C   0  0  0  0  0  0  0  0  0  0  0  0
   20.4154  -19.6225  -14.7505 C   0  0  0  0  0  0  0  0  0  0  0  0
   20.1681  -20.5533  -13.6071 C   0  0  0  0  0  0  0  0  0  0  0  0
   21.4790  -21.0862  -13.0745 C   0  0  2  0  0  0  0  0  0  0  0  0
   22.0600  -21.9693  -14.0283 N   0  0  0  0  0  0  0  0  0  0  0  0
   21.3225  -21.7571  -11.7812 C   0  0  0  0  0  0  0  0  0  0  0  0
   20.5677  -22.7724  -11.7547 O   0  0  0  0  0  0  0  0  0  0  0  0
   21.8349  -16.1551  -17.4931 N   0  0  0  0  0  0  0  0  0  0  0  0
   21.9771  -21.3040  -10.6015 C   0  0  0  0  0  0  0  0  0  0  0  0
   22.9468  -20.2384  -10.5305 C   0  0  0  0  0  0  0  0  0  0  0  0
   23.4696  -20.2878   -9.1019 C   0  0  0  0  0  0  0  0  0  0  0  0
   22.3453  -20.9054   -8.3270 C   0  0  2  0  0  0  0  0  0  0  0  0
   21.7348  -21.8662   -9.3117 C   0  0  0  0  0  0  0  0  0  0  0  0
   20.2831  -22.0432   -8.9930 O   0  0  0  0  0  0  0  0  0  0  0  0
   19.4329  -21.5922   -9.7833 N   0  0  0  0  0  0  0  0  0  0  0  0
   19.8764  -22.7069   -7.8219 C   0  0  0  0  0  0  0  0  0  0  0  0
   19.4675  -24.0933   -7.7802 C   0  0  0  0  0  0  0  0  0  0  0  0
   18.3167  -24.3681   -8.6628 O   0  0  0  0  0  0  0  0  0  0  0  0
   17.2157  -24.6678   -8.1562 O   0  0  0  0  0  0  0  0  0  0  0  0
  2  4  1  0
  2  1  1  0
  3  2  2  0
  5  4  1  0
  6  5  1  0
  7  8  1  0
  7  6  1  0
  8 10  1  0
  8  9  1  6
 10 12  1  0
 11 10  2  0
 12 13  1  0
 12 16  1  0
 13 14  1  0
 14 15  1  0
 16 15  1  0
 16 17  1  1
 17 18  2  0
 19 17  1  0
 20 19  1  0
 20 21  1  0
 21 22  2  0
 21 23  1  0
M  END
$$$$
