RPG.pdb
     RDKit          3D

 23 23  0  0  1  0  0  0  0  0999 V2000
   25.4035  -25.9825  -15.4076 N   0  0  0  0  0  0  0  0  0  0  0  0
   26.1335  -25.1828  -16.3319 C   0  0  0  0  0  0  0  0  0  0  0  0
   27.0353  -25.6595  -17.1237 N   0  0  0  0  0  0  0  0  0  0  0  0
   25.8773  -23.7805  -16.4097 N   0  0  0  0  0  0  0  0  0  0  0  0
   26.4288  -22.9465  -17.4419 C   0  0  0  0  0  0  0  0  0  0  0  0
   27.6021  -22.1846  -16.8654 C   0  0  0  0  0  0  0  0  0  0  0  0
   27.2208  -21.3670  -15.6733 C   0  0  0  0  0  0  0  0  0  0  0  0
   26.3150  -20.2295  -16.0882 C   0  0  2  0  0  0  0  0  0  0  0  0
   27.0974  -19.1590  -16.6068 N   0  0  0  0  0  0  0  0  0  0  0  0
   25.4693  -19.7617  -14.9868 C   0  0  0  0  0  0  0  0  0  0  0  0
   26.0518  -19.1596  -14.0385 O   0  0  0  0  0  0  0  0  0  0  0  0
   27.5558  -25.0222  -17.7715 N   0  0  0  0  0  0  0  0  0  0  0  0
   24.0610  -19.9659  -14.9653 C   0  0  0  0  0  0  0  0  0  0  0  0
   23.2535  -20.3976  -16.0800 C   0  0  0  0  0  0  0  0  0  0  0  0
   21.8186  -20.2694  -15.5887 C   0  0  0  0  0  0  0  0  0  0  0  0
   21.9331  -20.4036  -14.1004 C   0  0  2  0  0  0  0  0  0  0  0  0
   23.2631  -19.7673  -13.7981 C   0  0  0  0  0  0  0  0  0  0  0  0
   23.8365  -20.3865  -12.5620 O   0  0  0  0  0  0  0  0  0  0  0  0
   24.2407  -21.5636  -12.6089 N   0  0  0  0  0  0  0  0  0  0  0  0
   23.9216  -19.6583  -11.3619 C   0  0  0  0  0  0  0  0  0  0  0  0
   24.4001  -20.2112  -10.1143 C   0  0  0  0  0  0  0  0  0  0  0  0
   23.3167  -20.8125   -9.3122 O   0  0  0  0  0  0  0  0  0  0  0  0
   22.1544  -20.8264   -9.7677 O   0  0  0  0  0  0  0  0  0  0  0  0
  2  4  1  0
  2  1  1  0
  3  2  2  0
  5  4  1  0
  6  5  1  0
  7  8  1  0
  7  6  1  0
  8 10  1  0
  8  9  1  1
 10 12  1  0
 11 10  2  0
 12 13  1  0
 12 16  1  0
 13 14  1  0
 14 15  1  0
 16 15  1  0
 16 17  1  6
 17 18  2  0
 19 17  1  0
 20 19  1  0
 20 21  1  0
 21 22  2  0
 21 23  1  0
M  END
$$$$
