RPG.pdb
     RDKit          3D

 23 23  0  0  1  0  0  0  0  0999 V2000
   20.8310  -19.9046  -17.2466 N   0  0  0  0  0  0  0  0  0  0  0  0
   19.9317  -20.4953  -16.3144 C   0  0  0  0  0  0  0  0  0  0  0  0
   18.8846  -21.1643  -16.6662 N   0  0  0  0  0  0  0  0  0  0  0  0
   20.1737  -20.3580  -14.9142 N   0  0  0  0  0  0  0  0  0  0  0  0
   20.9546  -19.2851  -14.3627 C   0  0  0  0  0  0  0  0  0  0  0  0
   22.3682  -19.4026  -14.8890 C   0  0  0  0  0  0  0  0  0  0  0  0
   23.3936  -19.1759  -13.8249 C   0  0  0  0  0  0  0  0  0  0  0  0
   24.1201  -20.4656  -13.5164 C   0  0  2  0  0  0  0  0  0  0  0  0
   24.0026  -21.3574  -14.6201 N   0  0  0  0  0  0  0  0  0  0  0  0
   23.6315  -21.0995  -12.2889 C   0  0  0  0  0  0  0  0  0  0  0  0
   22.5691  -21.7803  -12.3844 O   0  0  0  0  0  0  0  0  0  0  0  0
   18.2542  -21.5749  -15.9378 N   0  0  0  0  0  0  0  0  0  0  0  0
   24.3031  -20.9668  -11.0413 C   0  0  0  0  0  0  0  0  0  0  0  0
   25.5351  -20.2505  -10.8177 C   0  0  0  0  0  0  0  0  0  0  0  0
   25.9156  -20.5774   -9.3807 C   0  0  0  0  0  0  0  0  0  0  0  0
   24.6064  -20.8948   -8.7238 C   0  0  2  0  0  0  0  0  0  0  0  0
   23.8138  -21.5400   -9.8287 C   0  0  0  0  0  0  0  0  0  0  0  0
   22.3550  -21.3013   -9.5934 O   0  0  0  0  0  0  0  0  0  0  0  0
   21.8290  -20.2739  -10.0611 N   0  0  0  0  0  0  0  0  0  0  0  0
   21.5827  -22.2172   -8.8570 C   0  0  0  0  0  0  0  0  0  0  0  0
   20.1823  -22.0287   -8.5496 C   0  0  0  0  0  0  0  0  0  0  0  0
   19.3005  -22.8158   -9.4337 O   0  0  0  0  0  0  0  0  0  0  0  0
   19.7951  -23.4270  -10.4035 O   0  0  0  0  0  0  0  0  0  0  0  0
  2  4  1  0
  2  1  1  0
  3  2  2  0
  5  4  1  0
  6  5  1  0
  7  8  1  0
  7  6  1  0
  8 10  1  0
  8  9  1  6
 10 12  1  0
 11 10  2  0
 12 13  1  0
 12 16  1  0
 13 14  1  0
 14 15  1  0
 16 15  1  0
 16 17  1  1
 17 18  2  0
 19 17  1  0
 20 19  1  0
 20 21  1  0
 21 22  2  0
 21 23  1  0
M  END
$$$$
