RPG.pdb
     RDKit          3D

 23 23  0  0  1  0  0  0  0  0999 V2000
   19.4018  -24.2661   -7.7183 N   0  0  0  0  0  0  0  0  0  0  0  0
   18.8709  -24.1296   -9.0320 C   0  0  0  0  0  0  0  0  0  0  0  0
   18.3794  -25.1168   -9.7040 N   0  0  0  0  0  0  0  0  0  0  0  0
   18.8682  -22.8495   -9.6640 N   0  0  0  0  0  0  0  0  0  0  0  0
   19.9783  -22.3620  -10.4354 C   0  0  0  0  0  0  0  0  0  0  0  0
   19.9104  -22.9799  -11.8149 C   0  0  0  0  0  0  0  0  0  0  0  0
   20.9816  -22.4669  -12.7228 C   0  0  0  0  0  0  0  0  0  0  0  0
   21.5560  -21.1789  -12.1774 C   0  0  2  0  0  0  0  0  0  0  0  0
   20.5466  -20.1750  -12.1571 N   0  0  0  0  0  0  0  0  0  0  0  0
   22.7204  -20.7218  -12.9406 C   0  0  0  0  0  0  0  0  0  0  0  0
   22.4967  -19.9194  -13.8932 O   0  0  0  0  0  0  0  0  0  0  0  0
   18.0786  -24.9782  -10.6974 N   0  0  0  0  0  0  0  0  0  0  0  0
   24.0448  -21.1487  -12.6423 C   0  0  0  0  0  0  0  0  0  0  0  0
   24.4268  -22.0193  -11.5573 C   0  0  0  0  0  0  0  0  0  0  0  0
   25.9488  -22.0004  -11.5659 C   0  0  0  0  0  0  0  0  0  0  0  0
   26.2979  -21.6715  -12.9858 C   0  0  2  0  0  0  0  0  0  0  0  0
   25.1813  -20.7567  -13.4123 C   0  0  0  0  0  0  0  0  0  0  0  0
   24.9807  -20.8793  -14.8905 O   0  0  0  0  0  0  0  0  0  0  0  0
   24.1705  -21.7213  -15.3214 N   0  0  0  0  0  0  0  0  0  0  0  0
   25.6915  -20.0609  -15.7863 C   0  0  0  0  0  0  0  0  0  0  0  0
   25.5942  -20.1643  -17.2254 C   0  0  0  0  0  0  0  0  0  0  0  0
   24.6654  -19.1715  -17.8001 O   0  0  0  0  0  0  0  0  0  0  0  0
   23.4601  -19.2026  -17.4762 O   0  0  0  0  0  0  0  0  0  0  0  0
  2  4  1  0
  2  1  1  0
  3  2  2  0
  5  4  1  0
  6  5  1  0
  7  8  1  0
  7  6  1  0
  8 10  1  0
  8  9  1  6
 10 12  1  0
 11 10  2  0
 12 13  1  0
 12 16  1  0
 13 14  1  0
 14 15  1  0
 16 15  1  0
 16 17  1  6
 17 18  2  0
 19 17  1  0
 20 19  1  0
 20 21  1  0
 21 22  2  0
 21 23  1  0
M  END
$$$$
