RPG.pdb
     RDKit          3D

 23 23  0  0  1  0  0  0  0  0999 V2000
   19.4765  -23.9558   -8.4123 N   0  0  0  0  0  0  0  0  0  0  0  0
   18.5093  -24.6986   -9.1467 C   0  0  0  0  0  0  0  0  0  0  0  0
   17.6608  -25.4995   -8.5932 N   0  0  0  0  0  0  0  0  0  0  0  0
   18.4505  -24.5722  -10.5675 N   0  0  0  0  0  0  0  0  0  0  0  0
   19.3948  -23.7904  -11.3173 C   0  0  0  0  0  0  0  0  0  0  0  0
   19.0178  -22.3308  -11.1869 C   0  0  0  0  0  0  0  0  0  0  0  0
   19.8173  -21.4521  -12.0946 C   0  0  0  0  0  0  0  0  0  0  0  0
   21.2571  -21.3995  -11.6359 C   0  0  2  0  0  0  0  0  0  0  0  0
   21.3498  -20.6395  -10.4355 N   0  0  0  0  0  0  0  0  0  0  0  0
   22.1482  -20.8512  -12.6617 C   0  0  0  0  0  0  0  0  0  0  0  0
   21.7920  -19.7639  -13.2023 O   0  0  0  0  0  0  0  0  0  0  0  0
   17.0001  -26.0560   -9.1852 N   0  0  0  0  0  0  0  0  0  0  0  0
   23.3576  -21.4951  -13.0465 C   0  0  0  0  0  0  0  0  0  0  0  0
   23.8986  -22.6960  -12.4582 C   0  0  0  0  0  0  0  0  0  0  0  0
   25.2764  -22.8462  -13.0872 C   0  0  0  0  0  0  0  0  0  0  0  0
   25.1533  -22.1349  -14.4006 C   0  0  2  0  0  0  0  0  0  0  0  0
   24.1959  -21.0139  -14.0972 C   0  0  0  0  0  0  0  0  0  0  0  0
   23.4524  -20.6493  -15.3440 O   0  0  0  0  0  0  0  0  0  0  0  0
   22.4073  -21.2655  -15.6249 N   0  0  0  0  0  0  0  0  0  0  0  0
   23.9192  -19.6282  -16.1909 C   0  0  0  0  0  0  0  0  0  0  0  0
   23.2996  -19.2770  -17.4494 C   0  0  0  0  0  0  0  0  0  0  0  0
   22.4475  -18.0765  -17.3422 O   0  0  0  0  0  0  0  0  0  0  0  0
   22.5972  -17.1456  -18.1606 O   0  0  0  0  0  0  0  0  0  0  0  0
  2  4  1  0
  2  1  1  0
  3  2  2  0
  5  4  1  0
  6  5  1  0
  7  8  1  0
  7  6  1  0
  8 10  1  0
  8  9  1  1
 10 12  1  0
 11 10  2  0
 12 13  1  0
 12 16  1  0
 13 14  1  0
 14 15  1  0
 16 15  1  0
 16 17  1  6
 17 18  2  0
 19 17  1  0
 20 19  1  0
 20 21  1  0
 21 22  2  0
 21 23  1  0
M  END
$$$$
