RPG.pdb
     RDKit          3D

 23 23  0  0  1  0  0  0  0  0999 V2000
   20.2898  -21.5127  -13.0065 N   0  0  0  0  0  0  0  0  0  0  0  0
   20.1318  -20.1015  -12.9061 C   0  0  0  0  0  0  0  0  0  0  0  0
   19.6251  -19.5168  -11.8721 N   0  0  0  0  0  0  0  0  0  0  0  0
   20.5450  -19.2651  -13.9868 N   0  0  0  0  0  0  0  0  0  0  0  0
   21.4646  -19.7035  -15.0003 C   0  0  0  0  0  0  0  0  0  0  0  0
   22.6855  -18.8109  -14.9570 C   0  0  0  0  0  0  0  0  0  0  0  0
   23.6850  -19.1603  -16.0124 C   0  0  0  0  0  0  0  0  0  0  0  0
   25.0765  -19.1982  -15.4220 C   0  0  2  0  0  0  0  0  0  0  0  0
   26.0044  -18.6396  -16.3462 N   0  0  0  0  0  0  0  0  0  0  0  0
   25.4826  -20.5537  -15.0414 C   0  0  0  0  0  0  0  0  0  0  0  0
   25.6883  -21.3718  -15.9847 O   0  0  0  0  0  0  0  0  0  0  0  0
   19.4992  -18.4773  -11.8653 N   0  0  0  0  0  0  0  0  0  0  0  0
   25.6418  -20.9506  -13.6841 C   0  0  0  0  0  0  0  0  0  0  0  0
   25.5623  -20.0814  -12.5355 C   0  0  0  0  0  0  0  0  0  0  0  0
   25.9928  -20.9517  -11.3633 C   0  0  0  0  0  0  0  0  0  0  0  0
   25.6614  -22.3444  -11.8066 C   0  0  2  0  0  0  0  0  0  0  0  0
   25.8993  -22.2991  -13.2922 C   0  0  0  0  0  0  0  0  0  0  0  0
   25.0150  -23.3026  -13.9640 O   0  0  0  0  0  0  0  0  0  0  0  0
   23.8223  -23.0113  -14.1728 N   0  0  0  0  0  0  0  0  0  0  0  0
   25.5144  -24.5572  -14.3568 C   0  0  0  0  0  0  0  0  0  0  0  0
   24.7092  -25.5915  -14.9674 C   0  0  0  0  0  0  0  0  0  0  0  0
   24.6974  -25.5004  -16.4406 O   0  0  0  0  0  0  0  0  0  0  0  0
   24.0917  -26.3690  -17.1019 O   0  0  0  0  0  0  0  0  0  0  0  0
  2  4  1  0
  2  1  1  0
  3  2  2  0
  5  4  1  0
  6  5  1  0
  7  8  1  0
  7  6  1  0
  8 10  1  0
  8  9  1  6
 10 12  1  0
 11 10  2  0
 12 13  1  0
 12 16  1  0
 13 14  1  0
 14 15  1  0
 16 15  1  0
 16 17  1  1
 17 18  2  0
 19 17  1  0
 20 19  1  0
 20 21  1  0
 21 22  2  0
 21 23  1  0
M  END
$$$$
