RGQ.pdb
     RDKit          3D

 25 24  0  0  1  0  0  0  0  0999 V2000
    9.8467  -14.0534   19.2486 N   0  0  0  0  0  0  0  0  0  0  0  0
    8.7145  -13.1759   19.0752 C   0  0  0  0  0  0  0  0  0  0  0  0
    8.8377  -12.1079   18.3701 N   0  0  0  0  0  0  0  0  0  0  0  0
    7.4669  -13.4683   19.6681 N   0  0  0  0  0  0  0  0  0  0  0  0
    7.2231  -14.7358   20.3073 C   0  0  0  0  0  0  0  0  0  0  0  0
    7.1707  -15.7735   19.2378 C   0  0  0  0  0  0  0  0  0  0  0  0
    6.9589  -17.1666   19.6845 C   0  0  0  0  0  0  0  0  0  0  0  0
    8.0611  -17.8264   20.4290 C   0  0  2  0  0  0  0  0  0  0  0  0
    8.3251  -19.1665   19.9954 N   0  0  0  0  0  0  0  0  0  0  0  0
    7.6163  -17.9019   21.8687 C   0  0  0  0  0  0  0  0  0  0  0  0
    6.9058  -18.8711   22.2447 O   0  0  0  0  0  0  0  0  0  0  0  0
    8.0869  -11.4130   18.2752 N   0  0  0  0  0  0  0  0  0  0  0  0
    7.9748  -16.9147   22.8072 C   0  0  0  0  0  0  0  0  0  0  0  0
    7.5511  -16.9872   24.2121 C   0  0  0  0  0  0  0  0  0  0  0  0
    8.6454  -16.4862   25.0853 O   0  0  0  0  0  0  0  0  0  0  0  0
    9.7914  -16.3163   24.6071 N   0  0  0  0  0  0  0  0  0  0  0  0
    5.8262  -12.8070   26.4564 C   0  0  0  0  0  0  0  0  0  0  0  0
    6.8456  -12.1057   27.1739 O   0  0  0  0  0  0  0  0  0  0  0  0
    6.6490  -10.9416   27.6558 C   0  0  0  0  0  0  0  0  0  0  0  0
    8.1547  -12.7577   27.3632 C   0  0  0  0  0  0  0  0  0  0  0  0
    8.0349  -14.2002   27.5938 C   0  0  2  0  0  0  0  0  0  0  0  0
    9.1435  -15.0688   27.0676 N   0  0  0  0  0  0  0  0  0  0  0  0
    8.3883  -16.2061   26.4411 C   0  0  0  0  0  0  0  0  0  0  0  0
   10.0149  -15.6127   28.1130 O   0  0  0  0  0  0  0  0  0  0  0  0
   11.1284  -14.9501   28.6382 O   0  0  0  0  0  0  0  0  0  0  0  0
  1  2  1  0
  2  3  2  0
  4  5  1  0
  4  2  1  0
  6  7  1  0
  6  5  1  0
  7  8  1  0
  8 10  1  0
  8  9  1  6
 10 12  1  0
 11 10  2  0
 12 13  1  0
 14 15  2  0
 14 13  1  0
 16 17  1  0
 17 19  1  0
 17 18  2  0
 19 20  1  0
 21 20  1  6
 21 23  1  0
 21 22  1  0
 22 14  1  0
 23 24  1  0
 25 23  2  0
M  END
$$$$
