RGQ.pdb
     RDKit          3D

 25 24  0  0  1  0  0  0  0  0999 V2000
    6.9273  -13.2682   15.7858 N   0  0  0  0  0  0  0  0  0  0  0  0
    8.0010  -14.1161   16.2442 C   0  0  0  0  0  0  0  0  0  0  0  0
    8.2082  -15.2484   15.6715 N   0  0  0  0  0  0  0  0  0  0  0  0
    8.8333  -13.7250   17.3156 N   0  0  0  0  0  0  0  0  0  0  0  0
    8.2943  -13.0654   18.4771 C   0  0  0  0  0  0  0  0  0  0  0  0
    7.2310  -13.9468   19.0391 C   0  0  0  0  0  0  0  0  0  0  0  0
    7.3998  -14.3630   20.4474 C   0  0  0  0  0  0  0  0  0  0  0  0
    8.7794  -14.6328   20.9254 C   0  0  2  0  0  0  0  0  0  0  0  0
    9.4794  -15.6054   20.1394 N   0  0  0  0  0  0  0  0  0  0  0  0
    8.6441  -15.1971   22.3181 C   0  0  0  0  0  0  0  0  0  0  0  0
    7.9615  -14.5733   23.1727 O   0  0  0  0  0  0  0  0  0  0  0  0
    8.9663  -15.8835   15.9500 N   0  0  0  0  0  0  0  0  0  0  0  0
    9.2625  -16.4067   22.6902 C   0  0  0  0  0  0  0  0  0  0  0  0
    9.2178  -16.9105   24.0696 C   0  0  0  0  0  0  0  0  0  0  0  0
    9.7502  -15.8733   24.9924 O   0  0  0  0  0  0  0  0  0  0  0  0
   10.6097  -15.0594   24.5805 N   0  0  0  0  0  0  0  0  0  0  0  0
    6.5685  -12.2491   28.1067 C   0  0  0  0  0  0  0  0  0  0  0  0
    7.1847  -12.0284   26.8350 O   0  0  0  0  0  0  0  0  0  0  0  0
    6.7792  -11.1171   26.0405 C   0  0  0  0  0  0  0  0  0  0  0  0
    8.3245  -12.8780   26.4432 C   0  0  0  0  0  0  0  0  0  0  0  0
    8.6633  -13.8697   27.4680 C   0  0  2  0  0  0  0  0  0  0  0  0
    9.8600  -14.7407   27.2042 N   0  0  0  0  0  0  0  0  0  0  0  0
    9.2868  -15.8117   26.3206 C   0  0  0  0  0  0  0  0  0  0  0  0
   10.4050  -15.3763   28.4070 O   0  0  0  0  0  0  0  0  0  0  0  0
   10.3293  -16.7452   28.6814 O   0  0  0  0  0  0  0  0  0  0  0  0
  1  2  1  0
  2  3  2  0
  4  5  1  0
  4  2  1  0
  6  7  1  0
  6  5  1  0
  7  8  1  0
  8 10  1  0
  8  9  1  6
 10 12  1  0
 11 10  2  0
 12 13  1  0
 14 15  2  0
 14 13  1  0
 16 17  1  0
 17 19  1  0
 17 18  2  0
 19 20  1  0
 21 20  1  6
 21 23  1  0
 21 22  1  0
 22 14  1  0
 23 24  1  0
 25 23  2  0
M  END
$$$$
