RGQ.pdb
     RDKit          3D

 25 24  0  0  1  0  0  0  0  0999 V2000
    9.8331  -13.9685   19.2292 N   0  0  0  0  0  0  0  0  0  0  0  0
    8.9602  -12.8337   19.4091 C   0  0  0  0  0  0  0  0  0  0  0  0
    9.0513  -11.8269   18.6146 N   0  0  0  0  0  0  0  0  0  0  0  0
    8.0027  -12.8065   20.4464 N   0  0  0  0  0  0  0  0  0  0  0  0
    7.8116  -13.9391   21.3155 C   0  0  0  0  0  0  0  0  0  0  0  0
    6.5848  -14.6524   20.8578 C   0  0  0  0  0  0  0  0  0  0  0  0
    6.2086  -15.8642   21.6161 C   0  0  0  0  0  0  0  0  0  0  0  0
    7.2896  -16.6006   22.3185 C   0  0  2  0  0  0  0  0  0  0  0  0
    7.3941  -17.9758   21.9295 N   0  0  0  0  0  0  0  0  0  0  0  0
    6.9369  -16.5766   23.7853 C   0  0  0  0  0  0  0  0  0  0  0  0
    6.0106  -17.3168   24.2091 O   0  0  0  0  0  0  0  0  0  0  0  0
    8.5144  -10.9612   18.7481 N   0  0  0  0  0  0  0  0  0  0  0  0
    7.6173  -15.7460   24.6970 C   0  0  0  0  0  0  0  0  0  0  0  0
    7.1622  -15.5769   26.0836 C   0  0  0  0  0  0  0  0  0  0  0  0
    7.7052  -16.6797   26.9203 O   0  0  0  0  0  0  0  0  0  0  0  0
    7.4116  -16.7366   28.1374 N   0  0  0  0  0  0  0  0  0  0  0  0
    6.1127  -22.0254   25.0818 C   0  0  0  0  0  0  0  0  0  0  0  0
    7.3961  -21.6756   25.6076 O   0  0  0  0  0  0  0  0  0  0  0  0
    8.4295  -22.3900   25.3894 C   0  0  0  0  0  0  0  0  0  0  0  0
    7.5196  -20.4492   26.4170 C   0  0  0  0  0  0  0  0  0  0  0  0
    8.8995  -19.9599   26.4871 C   0  0  2  0  0  0  0  0  0  0  0  0
    9.1335  -18.6884   27.2546 N   0  0  0  0  0  0  0  0  0  0  0  0
    8.5441  -17.6513   26.3417 C   0  0  0  0  0  0  0  0  0  0  0  0
   10.5502  -18.3735   27.4585 O   0  0  0  0  0  0  0  0  0  0  0  0
   11.3429  -18.9171   28.4740 O   0  0  0  0  0  0  0  0  0  0  0  0
  1  2  1  0
  2  3  2  0
  4  5  1  0
  4  2  1  0
  6  7  1  0
  6  5  1  0
  7  8  1  0
  8 10  1  0
  8  9  1  6
 10 12  1  0
 11 10  2  0
 12 13  1  0
 14 15  2  0
 14 13  1  0
 16 17  1  0
 17 19  1  0
 17 18  2  0
 19 20  1  0
 21 20  1  1
 21 23  1  0
 21 22  1  0
 22 14  1  0
 23 24  1  0
 25 23  2  0
M  END
$$$$
