RGQ.pdb
     RDKit          3D

 25 24  0  0  1  0  0  0  0  0999 V2000
    5.9907  -13.2963   14.1523 N   0  0  0  0  0  0  0  0  0  0  0  0
    7.3876  -13.5253   13.8726 C   0  0  0  0  0  0  0  0  0  0  0  0
    8.0203  -12.7262   13.0889 N   0  0  0  0  0  0  0  0  0  0  0  0
    8.0775  -14.6159   14.4455 N   0  0  0  0  0  0  0  0  0  0  0  0
    8.1882  -14.7617   15.8741 C   0  0  0  0  0  0  0  0  0  0  0  0
    8.4525  -13.4089   16.4428 C   0  0  0  0  0  0  0  0  0  0  0  0
    8.5209  -13.3181   17.9166 C   0  0  0  0  0  0  0  0  0  0  0  0
    9.0291  -14.5007   18.6567 C   0  0  2  0  0  0  0  0  0  0  0  0
    8.3927  -15.7290   18.2829 N   0  0  0  0  0  0  0  0  0  0  0  0
    8.7139  -14.2590   20.1123 C   0  0  0  0  0  0  0  0  0  0  0  0
    9.0841  -13.1839   20.6532 O   0  0  0  0  0  0  0  0  0  0  0  0
    9.0242  -12.8183   12.8911 N   0  0  0  0  0  0  0  0  0  0  0  0
    8.0148  -15.2061   20.8856 C   0  0  0  0  0  0  0  0  0  0  0  0
    7.5986  -14.9272   22.2668 C   0  0  0  0  0  0  0  0  0  0  0  0
    8.6214  -15.4556   23.2078 O   0  0  0  0  0  0  0  0  0  0  0  0
    9.6518  -16.0085   22.7568 N   0  0  0  0  0  0  0  0  0  0  0  0
   10.7916  -14.3138   30.1368 C   0  0  0  0  0  0  0  0  0  0  0  0
    9.9978  -14.1966   28.9528 O   0  0  0  0  0  0  0  0  0  0  0  0
    9.0469  -13.3519   28.8618 C   0  0  0  0  0  0  0  0  0  0  0  0
   10.2991  -15.0759   27.8080 C   0  0  0  0  0  0  0  0  0  0  0  0
    9.3620  -14.8906   26.6963 C   0  0  1  0  0  0  0  0  0  0  0  0
    9.5473  -15.7744   25.4943 N   0  0  0  0  0  0  0  0  0  0  0  0
    8.4268  -15.3320   24.5969 C   0  0  0  0  0  0  0  0  0  0  0  0
    9.3760  -17.2019   25.7784 O   0  0  0  0  0  0  0  0  0  0  0  0
   10.4019  -18.0528   26.2007 O   0  0  0  0  0  0  0  0  0  0  0  0
  1  2  1  0
  2  3  2  0
  4  5  1  0
  4  2  1  0
  6  7  1  0
  6  5  1  0
  7  8  1  0
  8 10  1  0
  8  9  1  6
 10 12  1  0
 11 10  2  0
 12 13  1  0
 14 15  2  0
 14 13  1  0
 16 17  1  0
 17 19  1  0
 17 18  2  0
 19 20  1  0
 21 20  1  6
 21 23  1  0
 21 22  1  0
 22 14  1  0
 23 24  1  0
 25 23  2  0
M  END
$$$$
