RGQ.pdb
     RDKit          3D

 25 24  0  0  1  0  0  0  0  0999 V2000
    7.9791  -12.5829   17.2232 N   0  0  0  0  0  0  0  0  0  0  0  0
    8.0722  -13.9896   16.9158 C   0  0  0  0  0  0  0  0  0  0  0  0
    7.9796  -14.3830   15.6952 N   0  0  0  0  0  0  0  0  0  0  0  0
    8.2637  -14.9483   17.9345 N   0  0  0  0  0  0  0  0  0  0  0  0
    8.0869  -14.6076   19.3227 C   0  0  0  0  0  0  0  0  0  0  0  0
    7.2204  -15.6560   19.9340 C   0  0  0  0  0  0  0  0  0  0  0  0
    6.7293  -15.3863   21.3018 C   0  0  0  0  0  0  0  0  0  0  0  0
    7.7252  -15.3824   22.4030 C   0  0  2  0  0  0  0  0  0  0  0  0
    7.9940  -16.6840   22.9387 N   0  0  0  0  0  0  0  0  0  0  0  0
    7.1265  -14.5564   23.5147 C   0  0  0  0  0  0  0  0  0  0  0  0
    6.1954  -13.7506   23.2517 O   0  0  0  0  0  0  0  0  0  0  0  0
    8.1000  -15.3641   15.4152 N   0  0  0  0  0  0  0  0  0  0  0  0
    7.5820  -14.6620   24.8434 C   0  0  0  0  0  0  0  0  0  0  0  0
    7.0182  -13.8441   25.9258 C   0  0  0  0  0  0  0  0  0  0  0  0
    7.7001  -14.1776   27.2044 O   0  0  0  0  0  0  0  0  0  0  0  0
    7.4489  -13.5084   28.2339 N   0  0  0  0  0  0  0  0  0  0  0  0
   12.3578  -17.6080   27.3432 C   0  0  0  0  0  0  0  0  0  0  0  0
   12.1982  -17.7068   28.7611 O   0  0  0  0  0  0  0  0  0  0  0  0
   13.1210  -18.1673   29.5111 C   0  0  0  0  0  0  0  0  0  0  0  0
   10.9311  -17.2543   29.3646 C   0  0  0  0  0  0  0  0  0  0  0  0
    9.9603  -16.8069   28.3616 C   0  0  1  0  0  0  0  0  0  0  0  0
    9.4143  -15.4146   28.5152 N   0  0  0  0  0  0  0  0  0  0  0  0
    8.6220  -15.2410   27.2509 C   0  0  0  0  0  0  0  0  0  0  0  0
   10.4476  -14.3762   28.5596 O   0  0  0  0  0  0  0  0  0  0  0  0
   11.1149  -13.9738   29.7204 O   0  0  0  0  0  0  0  0  0  0  0  0
  1  2  1  0
  2  3  2  0
  4  5  1  0
  4  2  1  0
  6  7  1  0
  6  5  1  0
  7  8  1  0
  8 10  1  0
  8  9  1  1
 10 12  1  0
 11 10  2  0
 12 13  1  0
 14 15  2  0
 14 13  1  0
 16 17  1  0
 17 19  1  0
 17 18  2  0
 19 20  1  0
 21 20  1  1
 21 23  1  0
 21 22  1  0
 22 14  1  0
 23 24  1  0
 25 23  2  0
M  END
$$$$
