RGQ.pdb
     RDKit          3D

 25 24  0  0  1  0  0  0  0  0999 V2000
    8.9083  -13.5051   21.9721 N   0  0  0  0  0  0  0  0  0  0  0  0
    8.2903  -13.0846   20.7379 C   0  0  0  0  0  0  0  0  0  0  0  0
    7.7089  -11.9396   20.6736 N   0  0  0  0  0  0  0  0  0  0  0  0
    8.3111  -13.9104   19.5928 N   0  0  0  0  0  0  0  0  0  0  0  0
    7.3809  -14.9995   19.4411 C   0  0  0  0  0  0  0  0  0  0  0  0
    7.6591  -15.6458   18.1265 C   0  0  0  0  0  0  0  0  0  0  0  0
    8.8943  -16.4532   18.0401 C   0  0  0  0  0  0  0  0  0  0  0  0
    8.8084  -17.8863   18.4185 C   0  0  2  0  0  0  0  0  0  0  0  0
    7.5009  -18.2905   18.8438 N   0  0  0  0  0  0  0  0  0  0  0  0
    9.7377  -18.0726   19.5924 C   0  0  0  0  0  0  0  0  0  0  0  0
   10.9756  -17.9080   19.4313 O   0  0  0  0  0  0  0  0  0  0  0  0
    7.2441  -11.5975   19.8237 N   0  0  0  0  0  0  0  0  0  0  0  0
    9.2572  -18.4269   20.8682 C   0  0  0  0  0  0  0  0  0  0  0  0
   10.1590  -18.6255   22.0110 C   0  0  0  0  0  0  0  0  0  0  0  0
   10.4238  -17.3168   22.6653 O   0  0  0  0  0  0  0  0  0  0  0  0
   10.7764  -16.3359   21.9694 N   0  0  0  0  0  0  0  0  0  0  0  0
   10.1427  -15.4276   28.5783 C   0  0  0  0  0  0  0  0  0  0  0  0
    9.5891  -14.3390   27.8337 O   0  0  0  0  0  0  0  0  0  0  0  0
    9.2400  -13.2488   28.3956 C   0  0  0  0  0  0  0  0  0  0  0  0
    9.4281  -14.4876   26.3755 C   0  0  0  0  0  0  0  0  0  0  0  0
    9.8130  -15.8201   25.9015 C   0  0  2  0  0  0  0  0  0  0  0  0
   10.6877  -15.8826   24.6803 N   0  0  0  0  0  0  0  0  0  0  0  0
   10.2770  -17.1875   24.0597 C   0  0  0  0  0  0  0  0  0  0  0  0
   12.1205  -15.9450   24.9823 O   0  0  0  0  0  0  0  0  0  0  0  0
   12.9347  -14.8270   25.1875 O   0  0  0  0  0  0  0  0  0  0  0  0
  1  2  1  0
  2  3  2  0
  4  5  1  0
  4  2  1  0
  6  7  1  0
  6  5  1  0
  7  8  1  0
  8 10  1  0
  8  9  1  1
 10 12  1  0
 11 10  2  0
 12 13  1  0
 14 15  2  0
 14 13  1  0
 16 17  1  0
 17 19  1  0
 17 18  2  0
 19 20  1  0
 21 20  1  6
 21 23  1  0
 21 22  1  0
 22 14  1  0
 23 24  1  0
 25 23  2  0
M  END
$$$$
