RGQ.pdb
     RDKit          3D

 25 24  0  0  1  0  0  0  0  0999 V2000
   10.1893  -13.8714   18.9557 N   0  0  0  0  0  0  0  0  0  0  0  0
    8.9921  -13.2643   19.4850 C   0  0  0  0  0  0  0  0  0  0  0  0
    8.7255  -12.0365   19.2120 N   0  0  0  0  0  0  0  0  0  0  0  0
    8.1025  -13.9958   20.3018 N   0  0  0  0  0  0  0  0  0  0  0  0
    7.8879  -15.4051   20.0959 C   0  0  0  0  0  0  0  0  0  0  0  0
    6.4247  -15.6103   19.8952 C   0  0  0  0  0  0  0  0  0  0  0  0
    5.9716  -17.0100   19.7520 C   0  0  0  0  0  0  0  0  0  0  0  0
    6.7272  -18.0571   20.4848 C   0  0  2  0  0  0  0  0  0  0  0  0
    6.3250  -19.3923   20.1549 N   0  0  0  0  0  0  0  0  0  0  0  0
    6.4297  -17.8497   21.9494 C   0  0  0  0  0  0  0  0  0  0  0  0
    5.3185  -17.3653   22.2905 O   0  0  0  0  0  0  0  0  0  0  0  0
    7.9184  -11.5399   19.6089 N   0  0  0  0  0  0  0  0  0  0  0  0
    7.3637  -18.1839   22.9493 C   0  0  0  0  0  0  0  0  0  0  0  0
    7.1580  -17.8206   24.3579 C   0  0  0  0  0  0  0  0  0  0  0  0
    7.9748  -16.6216   24.6838 O   0  0  0  0  0  0  0  0  0  0  0  0
    8.8559  -16.2349   23.8808 N   0  0  0  0  0  0  0  0  0  0  0  0
    6.1314  -11.2924   26.1576 C   0  0  0  0  0  0  0  0  0  0  0  0
    6.4409  -11.8503   27.4378 O   0  0  0  0  0  0  0  0  0  0  0  0
    5.8973  -11.4199   28.5080 C   0  0  0  0  0  0  0  0  0  0  0  0
    7.4111  -12.9584   27.5117 C   0  0  0  0  0  0  0  0  0  0  0  0
    7.6109  -13.6164   26.2173 C   0  0  1  0  0  0  0  0  0  0  0  0
    8.6175  -14.7320   26.1681 N   0  0  0  0  0  0  0  0  0  0  0  0
    7.7540  -15.9292   25.8898 C   0  0  0  0  0  0  0  0  0  0  0  0
    9.3181  -14.9521   27.4364 O   0  0  0  0  0  0  0  0  0  0  0  0
   10.5309  -14.3497   27.7847 O   0  0  0  0  0  0  0  0  0  0  0  0
  1  2  1  0
  2  3  2  0
  4  5  1  0
  4  2  1  0
  6  7  1  0
  6  5  1  0
  7  8  1  0
  8 10  1  0
  8  9  1  6
 10 12  1  0
 11 10  2  0
 12 13  1  0
 14 15  2  0
 14 13  1  0
 16 17  1  0
 17 19  1  0
 17 18  2  0
 19 20  1  0
 21 20  1  6
 21 23  1  0
 21 22  1  0
 22 14  1  0
 23 24  1  0
 25 23  2  0
M  END
$$$$
