RGQ.pdb
     RDKit          3D

 25 24  0  0  1  0  0  0  0  0999 V2000
    8.2452  -13.8577   18.2470 N   0  0  0  0  0  0  0  0  0  0  0  0
    8.4782  -13.3231   19.5668 C   0  0  0  0  0  0  0  0  0  0  0  0
    8.5241  -12.0499   19.7401 N   0  0  0  0  0  0  0  0  0  0  0  0
    8.6580  -14.1752   20.6782 N   0  0  0  0  0  0  0  0  0  0  0  0
    8.0969  -15.5016   20.7002 C   0  0  0  0  0  0  0  0  0  0  0  0
    6.6191  -15.3600   20.8396 C   0  0  0  0  0  0  0  0  0  0  0  0
    5.8552  -16.6104   21.0346 C   0  0  0  0  0  0  0  0  0  0  0  0
    6.5506  -17.7475   21.6888 C   0  0  2  0  0  0  0  0  0  0  0  0
    6.0028  -19.0274   21.3494 N   0  0  0  0  0  0  0  0  0  0  0  0
    6.3648  -17.5615   23.1745 C   0  0  0  0  0  0  0  0  0  0  0  0
    5.2475  -17.8215   23.6937 O   0  0  0  0  0  0  0  0  0  0  0  0
    8.7384  -11.6184   20.6475 N   0  0  0  0  0  0  0  0  0  0  0  0
    7.4103  -17.1035   23.9998 C   0  0  0  0  0  0  0  0  0  0  0  0
    7.2634  -17.0060   25.4584 C   0  0  0  0  0  0  0  0  0  0  0  0
    8.4527  -16.3211   26.0306 O   0  0  0  0  0  0  0  0  0  0  0  0
    9.5770  -16.4858   25.5017 N   0  0  0  0  0  0  0  0  0  0  0  0
    5.8000  -12.8032   26.6144 C   0  0  0  0  0  0  0  0  0  0  0  0
    7.1655  -12.8403   27.0386 O   0  0  0  0  0  0  0  0  0  0  0  0
    8.1090  -12.3912   26.3078 C   0  0  0  0  0  0  0  0  0  0  0  0
    7.4808  -13.4087   28.3623 C   0  0  0  0  0  0  0  0  0  0  0  0
    8.9100  -13.6900   28.5260 C   0  0  2  0  0  0  0  0  0  0  0  0
    9.5134  -14.7118   27.6028 N   0  0  0  0  0  0  0  0  0  0  0  0
    8.3092  -15.4934   27.1606 C   0  0  0  0  0  0  0  0  0  0  0  0
   10.4433  -15.6307   28.2653 O   0  0  0  0  0  0  0  0  0  0  0  0
   11.7518  -15.3026   28.6331 O   0  0  0  0  0  0  0  0  0  0  0  0
  1  2  1  0
  2  3  2  0
  4  5  1  0
  4  2  1  0
  6  7  1  0
  6  5  1  0
  7  8  1  0
  8 10  1  0
  8  9  1  6
 10 12  1  0
 11 10  2  0
 12 13  1  0
 14 15  2  0
 14 13  1  0
 16 17  1  0
 17 19  1  0
 17 18  2  0
 19 20  1  0
 21 20  1  6
 21 23  1  0
 21 22  1  0
 22 14  1  0
 23 24  1  0
 25 23  2  0
M  END
$$$$
