RGQ.pdb
     RDKit          3D

 25 24  0  0  1  0  0  0  0  0999 V2000
    9.9310  -13.8826   18.9122 N   0  0  0  0  0  0  0  0  0  0  0  0
    8.5520  -13.6273   18.5726 C   0  0  0  0  0  0  0  0  0  0  0  0
    8.2561  -13.1728   17.4068 N   0  0  0  0  0  0  0  0  0  0  0  0
    7.5152  -13.8677   19.5004 N   0  0  0  0  0  0  0  0  0  0  0  0
    7.7829  -14.4789   20.7768 C   0  0  0  0  0  0  0  0  0  0  0  0
    6.4967  -14.5239   21.5299 C   0  0  0  0  0  0  0  0  0  0  0  0
    5.8694  -15.8540   21.6791 C   0  0  0  0  0  0  0  0  0  0  0  0
    6.7606  -17.0415   21.6641 C   0  0  2  0  0  0  0  0  0  0  0  0
    6.3936  -18.0224   20.6860 N   0  0  0  0  0  0  0  0  0  0  0  0
    6.6270  -17.6904   23.0197 C   0  0  0  0  0  0  0  0  0  0  0  0
    5.5424  -18.2486   23.3321 O   0  0  0  0  0  0  0  0  0  0  0  0
    7.2929  -12.9598   17.1197 N   0  0  0  0  0  0  0  0  0  0  0  0
    7.6857  -17.6889   23.9488 C   0  0  0  0  0  0  0  0  0  0  0  0
    7.5104  -18.1648   25.3277 C   0  0  0  0  0  0  0  0  0  0  0  0
    8.7129  -17.8134   26.1288 O   0  0  0  0  0  0  0  0  0  0  0  0
    9.8254  -18.3039   25.8246 N   0  0  0  0  0  0  0  0  0  0  0  0
    6.1907  -12.7547   25.3821 C   0  0  0  0  0  0  0  0  0  0  0  0
    7.1563  -12.4669   26.3972 O   0  0  0  0  0  0  0  0  0  0  0  0
    6.9918  -11.5167   27.2317 C   0  0  0  0  0  0  0  0  0  0  0  0
    8.3691  -13.3017   26.4783 C   0  0  0  0  0  0  0  0  0  0  0  0
    8.0788  -14.6726   26.9085 C   0  0  2  0  0  0  0  0  0  0  0  0
    9.2544  -15.5894   27.1021 N   0  0  0  0  0  0  0  0  0  0  0  0
    8.5948  -16.9337   27.2218 C   0  0  0  0  0  0  0  0  0  0  0  0
   10.0076  -15.3328   28.3329 O   0  0  0  0  0  0  0  0  0  0  0  0
    9.9393  -16.1267   29.4818 O   0  0  0  0  0  0  0  0  0  0  0  0
  1  2  1  0
  2  3  2  0
  4  5  1  0
  4  2  1  0
  6  7  1  0
  6  5  1  0
  7  8  1  0
  8 10  1  0
  8  9  1  6
 10 12  1  0
 11 10  2  0
 12 13  1  0
 14 15  2  0
 14 13  1  0
 16 17  1  0
 17 19  1  0
 17 18  2  0
 19 20  1  0
 21 20  1  6
 21 23  1  0
 21 22  1  0
 22 14  1  0
 23 24  1  0
 25 23  2  0
M  END
$$$$
