RGQ.pdb
     RDKit          3D

 25 24  0  0  1  0  0  0  0  0999 V2000
   16.9708  -12.4031   17.2872 N   0  0  0  0  0  0  0  0  0  0  0  0
   17.1289  -13.8322   17.1657 C   0  0  0  0  0  0  0  0  0  0  0  0
   17.4617  -14.3428   16.0336 N   0  0  0  0  0  0  0  0  0  0  0  0
   16.9239  -14.6859   18.2714 N   0  0  0  0  0  0  0  0  0  0  0  0
   15.6308  -14.8022   18.8949 C   0  0  0  0  0  0  0  0  0  0  0  0
   14.7237  -15.4755   17.9217 C   0  0  0  0  0  0  0  0  0  0  0  0
   13.3818  -15.8430   18.4208 C   0  0  0  0  0  0  0  0  0  0  0  0
   12.4637  -14.7409   18.8041 C   0  0  2  0  0  0  0  0  0  0  0  0
   13.1021  -13.6932   19.5447 N   0  0  0  0  0  0  0  0  0  0  0  0
   11.4186  -15.3518   19.7047 C   0  0  0  0  0  0  0  0  0  0  0  0
   10.7715  -16.3558   19.3060 O   0  0  0  0  0  0  0  0  0  0  0  0
   17.5383  -15.3558   15.8801 N   0  0  0  0  0  0  0  0  0  0  0  0
   11.1456  -14.8284   20.9835 C   0  0  0  0  0  0  0  0  0  0  0  0
   10.1537  -15.4400   21.8783 C   0  0  0  0  0  0  0  0  0  0  0  0
   10.7782  -15.7051   23.2015 O   0  0  0  0  0  0  0  0  0  0  0  0
   12.0178  -15.5807   23.3379 N   0  0  0  0  0  0  0  0  0  0  0  0
   10.0212  -13.8208   29.7278 C   0  0  0  0  0  0  0  0  0  0  0  0
    9.3542  -14.3369   28.5726 O   0  0  0  0  0  0  0  0  0  0  0  0
    8.3640  -13.7334   28.0421 C   0  0  0  0  0  0  0  0  0  0  0  0
    9.8364  -15.5986   27.9809 C   0  0  0  0  0  0  0  0  0  0  0  0
    9.5202  -15.7058   26.5537 C   0  0  2  0  0  0  0  0  0  0  0  0
   10.6272  -16.1582   25.6425 N   0  0  0  0  0  0  0  0  0  0  0  0
    9.9750  -16.0933   24.2909 C   0  0  0  0  0  0  0  0  0  0  0  0
   11.0619  -17.5374   25.8803 O   0  0  0  0  0  0  0  0  0  0  0  0
   12.1248  -17.8989   26.7138 O   0  0  0  0  0  0  0  0  0  0  0  0
  1  2  1  0
  2  3  2  0
  4  5  1  0
  4  2  1  0
  6  7  1  0
  6  5  1  0
  7  8  1  0
  8 10  1  0
  8  9  1  1
 10 12  1  0
 11 10  2  0
 12 13  1  0
 14 15  2  0
 14 13  1  0
 16 17  1  0
 17 19  1  0
 17 18  2  0
 19 20  1  0
 21 20  1  6
 21 23  1  0
 21 22  1  0
 22 14  1  0
 23 24  1  0
 25 23  2  0
M  END
$$$$
