RGQ.pdb
     RDKit          3D

 25 24  0  0  1  0  0  0  0  0999 V2000
    9.7766  -13.8899   18.1438 N   0  0  0  0  0  0  0  0  0  0  0  0
    8.6306  -13.0684   18.4506 C   0  0  0  0  0  0  0  0  0  0  0  0
    8.7743  -11.7976   18.5833 N   0  0  0  0  0  0  0  0  0  0  0  0
    7.3474  -13.6356   18.6092 N   0  0  0  0  0  0  0  0  0  0  0  0
    6.9994  -14.3742   19.7958 C   0  0  0  0  0  0  0  0  0  0  0  0
    8.0689  -14.1289   20.8053 C   0  0  0  0  0  0  0  0  0  0  0  0
    7.8966  -14.7875   22.1174 C   0  0  0  0  0  0  0  0  0  0  0  0
    7.6459  -16.2508   22.1261 C   0  0  2  0  0  0  0  0  0  0  0  0
    6.3105  -16.6067   21.7469 N   0  0  0  0  0  0  0  0  0  0  0  0
    7.8427  -16.7076   23.5506 C   0  0  0  0  0  0  0  0  0  0  0  0
    6.9499  -16.4653   24.4049 O   0  0  0  0  0  0  0  0  0  0  0  0
    7.9949  -11.1699   18.8158 N   0  0  0  0  0  0  0  0  0  0  0  0
    9.0016  -17.3998   23.9527 C   0  0  0  0  0  0  0  0  0  0  0  0
    9.4500  -17.4181   25.3517 C   0  0  0  0  0  0  0  0  0  0  0  0
   10.2839  -16.2165   25.6195 O   0  0  0  0  0  0  0  0  0  0  0  0
   10.4137  -15.3416   24.7315 N   0  0  0  0  0  0  0  0  0  0  0  0
    6.1564  -14.4791   27.2319 C   0  0  0  0  0  0  0  0  0  0  0  0
    7.0293  -13.3464   27.2632 O   0  0  0  0  0  0  0  0  0  0  0  0
    6.6632  -12.2033   26.8326 C   0  0  0  0  0  0  0  0  0  0  0  0
    8.3858  -13.5126   27.8172 C   0  0  0  0  0  0  0  0  0  0  0  0
    9.0856  -14.6689   27.2499 C   0  0  2  0  0  0  0  0  0  0  0  0
   10.4861  -14.9227   27.7342 N   0  0  0  0  0  0  0  0  0  0  0  0
   10.9213  -16.0689   26.8663 C   0  0  0  0  0  0  0  0  0  0  0  0
   10.5589  -15.3494   29.1344 O   0  0  0  0  0  0  0  0  0  0  0  0
   10.5181  -16.6812   29.5583 O   0  0  0  0  0  0  0  0  0  0  0  0
  1  2  1  0
  2  3  2  0
  4  5  1  0
  4  2  1  0
  6  7  1  0
  6  5  1  0
  7  8  1  0
  8 10  1  0
  8  9  1  1
 10 12  1  0
 11 10  2  0
 12 13  1  0
 14 15  2  0
 14 13  1  0
 16 17  1  0
 17 19  1  0
 17 18  2  0
 19 20  1  0
 21 20  1  6
 21 23  1  0
 21 22  1  0
 22 14  1  0
 23 24  1  0
 25 23  2  0
M  END
$$$$
