RGQ.pdb
     RDKit          3D

 25 24  0  0  1  0  0  0  0  0999 V2000
    9.7816  -13.9253   19.2207 N   0  0  0  0  0  0  0  0  0  0  0  0
    8.6317  -13.4010   18.5244 C   0  0  0  0  0  0  0  0  0  0  0  0
    8.4431  -12.1303   18.4714 N   0  0  0  0  0  0  0  0  0  0  0  0
    7.7040  -14.2606   17.8966 N   0  0  0  0  0  0  0  0  0  0  0  0
    8.1138  -15.5272   17.3469 C   0  0  0  0  0  0  0  0  0  0  0  0
    8.4480  -16.4241   18.4903 C   0  0  0  0  0  0  0  0  0  0  0  0
    7.3086  -16.9199   19.2907 C   0  0  0  0  0  0  0  0  0  0  0  0
    6.7455  -16.0131   20.3228 C   0  0  2  0  0  0  0  0  0  0  0  0
    7.3794  -14.7287   20.3662 N   0  0  0  0  0  0  0  0  0  0  0  0
    6.9928  -16.6787   21.6541 C   0  0  0  0  0  0  0  0  0  0  0  0
    6.4202  -17.7696   21.9141 O   0  0  0  0  0  0  0  0  0  0  0  0
    7.6316  -11.7063   18.0053 N   0  0  0  0  0  0  0  0  0  0  0  0
    7.8492  -16.1114   22.6178 C   0  0  0  0  0  0  0  0  0  0  0  0
    7.9805  -16.6742   23.9686 C   0  0  0  0  0  0  0  0  0  0  0  0
    8.9586  -15.8688   24.7469 O   0  0  0  0  0  0  0  0  0  0  0  0
    9.7123  -15.0640   24.1512 N   0  0  0  0  0  0  0  0  0  0  0  0
    9.3856  -16.4052   30.8658 C   0  0  0  0  0  0  0  0  0  0  0  0
   10.2084  -15.2467   30.7024 O   0  0  0  0  0  0  0  0  0  0  0  0
   10.7081  -14.6306   31.7008 C   0  0  0  0  0  0  0  0  0  0  0  0
   10.4873  -14.7627   29.3376 C   0  0  0  0  0  0  0  0  0  0  0  0
    9.7433  -15.5055   28.3161 C   0  0  2  0  0  0  0  0  0  0  0  0
   10.0106  -15.1445   26.8813 N   0  0  0  0  0  0  0  0  0  0  0  0
    9.0321  -16.0149   26.1455 C   0  0  0  0  0  0  0  0  0  0  0  0
   11.3626  -15.4837   26.4285 O   0  0  0  0  0  0  0  0  0  0  0  0
   12.4326  -14.5845   26.3904 O   0  0  0  0  0  0  0  0  0  0  0  0
  1  2  1  0
  2  3  2  0
  4  5  1  0
  4  2  1  0
  6  7  1  0
  6  5  1  0
  7  8  1  0
  8 10  1  0
  8  9  1  1
 10 12  1  0
 11 10  2  0
 12 13  1  0
 14 15  2  0
 14 13  1  0
 16 17  1  0
 17 19  1  0
 17 18  2  0
 19 20  1  0
 21 20  1  1
 21 23  1  0
 21 22  1  0
 22 14  1  0
 23 24  1  0
 25 23  2  0
M  END
$$$$
