RGQ.pdb
     RDKit          3D

 25 24  0  0  1  0  0  0  0  0999 V2000
    8.4370  -12.0617   19.5652 N   0  0  0  0  0  0  0  0  0  0  0  0
    7.7604  -12.8567   20.5613 C   0  0  0  0  0  0  0  0  0  0  0  0
    7.9108  -12.5801   21.8079 N   0  0  0  0  0  0  0  0  0  0  0  0
    6.9319  -13.9388   20.1922 N   0  0  0  0  0  0  0  0  0  0  0  0
    7.3091  -15.2990   20.4784 C   0  0  0  0  0  0  0  0  0  0  0  0
    8.3921  -15.6732   19.5243 C   0  0  0  0  0  0  0  0  0  0  0  0
    8.6196  -17.1200   19.3239 C   0  0  0  0  0  0  0  0  0  0  0  0
    9.2778  -17.8724   20.4217 C   0  0  2  0  0  0  0  0  0  0  0  0
    8.3658  -18.3458   21.4205 N   0  0  0  0  0  0  0  0  0  0  0  0
   10.2172  -16.9041   21.0972 C   0  0  0  0  0  0  0  0  0  0  0  0
   10.5348  -15.8386   20.5060 O   0  0  0  0  0  0  0  0  0  0  0  0
    7.4844  -13.1378   22.5580 N   0  0  0  0  0  0  0  0  0  0  0  0
   10.7509  -17.1598   22.3754 C   0  0  0  0  0  0  0  0  0  0  0  0
   11.5291  -16.1522   23.1087 C   0  0  0  0  0  0  0  0  0  0  0  0
   11.8797  -16.6807   24.4536 O   0  0  0  0  0  0  0  0  0  0  0  0
   12.9830  -17.2493   24.6279 N   0  0  0  0  0  0  0  0  0  0  0  0
    8.8345  -12.9431   28.0923 C   0  0  0  0  0  0  0  0  0  0  0  0
    9.6080  -14.0747   28.5011 O   0  0  0  0  0  0  0  0  0  0  0  0
    9.6228  -14.4775   29.7109 C   0  0  0  0  0  0  0  0  0  0  0  0
   10.4016  -14.7937   27.4873 C   0  0  0  0  0  0  0  0  0  0  0  0
   10.5551  -16.2172   27.8012 C   0  0  2  0  0  0  0  0  0  0  0  0
   11.4104  -17.0317   26.8709 N   0  0  0  0  0  0  0  0  0  0  0  0
   10.9723  -16.5394   25.5210 C   0  0  0  0  0  0  0  0  0  0  0  0
   11.1548  -18.4731   26.9427 O   0  0  0  0  0  0  0  0  0  0  0  0
   11.6782  -19.3211   27.9234 O   0  0  0  0  0  0  0  0  0  0  0  0
  1  2  1  0
  2  3  2  0
  4  5  1  0
  4  2  1  0
  6  7  1  0
  6  5  1  0
  7  8  1  0
  8 10  1  0
  8  9  1  1
 10 12  1  0
 11 10  2  0
 12 13  1  0
 14 15  2  0
 14 13  1  0
 16 17  1  0
 17 19  1  0
 17 18  2  0
 19 20  1  0
 21 20  1  1
 21 23  1  0
 21 22  1  0
 22 14  1  0
 23 24  1  0
 25 23  2  0
M  END
$$$$
