NAR.pdb
     RDKit          3D

 25 24  0  0  1  0  0  0  0  0999 V2000
   30.8365  -20.0031  -11.6542 N   0  0  0  0  0  0  0  0  0  0  0  0
   29.8634  -19.3719  -12.4721 C   0  0  0  0  0  0  0  0  0  0  0  0
   30.1027  -18.3604  -13.1644 O   0  0  0  0  0  0  0  0  0  0  0  0
   28.5008  -19.9422  -12.5035 C   0  0  0  0  0  0  0  0  0  0  0  0
   28.4232  -21.0247  -11.4190 C   0  0  2  0  0  0  0  0  0  0  0  0
   29.2958  -22.0823  -11.8509 N   0  0  0  0  0  0  0  0  0  0  0  0
   27.0002  -21.4478  -11.3783 C   0  0  0  0  0  0  0  0  0  0  0  0
   26.5904  -22.3012  -12.2076 O   0  0  0  0  0  0  0  0  0  0  0  0
   23.8722  -20.7625   -9.3387 C   0  0  0  0  0  0  0  0  0  0  0  0
   24.6637  -21.3023  -10.5356 C   0  0  2  0  0  0  0  0  0  0  0  0
   26.0471  -20.9496  -10.4526 N   0  0  0  0  0  0  0  0  0  0  0  0
   24.0669  -20.6349  -11.7251 C   0  0  0  0  0  0  0  0  0  0  0  0
   24.4170  -19.4584  -11.9961 O   0  0  0  0  0  0  0  0  0  0  0  0
   27.5260  -20.9980  -17.7036 N   0  0  0  0  0  0  0  0  0  0  0  0
   27.5596  -22.0659  -16.7788 C   0  0  0  0  0  0  0  0  0  0  0  0
   28.6156  -22.8260  -16.6910 N   0  0  0  0  0  0  0  0  0  0  0  0
   26.4425  -22.3304  -15.9281 N   0  0  0  0  0  0  0  0  0  0  0  0
   25.1918  -21.6078  -16.0218 C   0  0  0  0  0  0  0  0  0  0  0  0
   24.2061  -22.0456  -14.9690 C   0  0  0  0  0  0  0  0  0  0  0  0
   22.9336  -21.2798  -14.9930 C   0  0  0  0  0  0  0  0  0  0  0  0
   22.6022  -20.5549  -13.7062 C   0  0  2  0  0  0  0  0  0  0  0  0
   23.1197  -21.2778  -12.5608 N   0  0  0  0  0  0  0  0  0  0  0  0
   21.1582  -20.3573  -13.4925 C   0  0  0  0  0  0  0  0  0  0  0  0
   20.4907  -19.3534  -14.1512 O   0  0  0  0  0  0  0  0  0  0  0  0
   20.5339  -21.1015  -12.7098 O   0  0  0  0  0  0  0  0  0  0  0  0
  1  2  1  0
  2  3  2  0
  4  5  1  0
  4  2  1  0
  5  6  1  6
  7  8  2  0
  7  5  1  0
 10  9  1  1
 10 11  1  0
 11  7  1  0
 12 22  1  0
 12 10  1  0
 13 12  2  0
 15 14  1  0
 16 15  2  0
 17 15  1  0
 18 17  1  0
 19 18  1  0
 20 19  1  0
 21 20  1  6
 21 22  1  0
 23 21  1  0
 24 23  1  0
 25 23  2  0
M  END
$$$$
