NAR.pdb
     RDKit          3D

 25 24  0  0  1  0  0  0  0  0999 V2000
   29.6072  -16.7518  -18.9213 N   0  0  0  0  0  0  0  0  0  0  0  0
   28.3335  -17.2972  -19.2290 C   0  0  0  0  0  0  0  0  0  0  0  0
   28.1558  -18.1705  -20.1038 O   0  0  0  0  0  0  0  0  0  0  0  0
   27.1620  -16.8050  -18.4751 C   0  0  0  0  0  0  0  0  0  0  0  0
   26.8998  -17.7880  -17.3266 C   0  0  2  0  0  0  0  0  0  0  0  0
   27.4675  -19.0422  -17.7405 N   0  0  0  0  0  0  0  0  0  0  0  0
   25.4227  -17.8551  -17.1879 C   0  0  0  0  0  0  0  0  0  0  0  0
   24.8725  -17.2868  -16.2090 O   0  0  0  0  0  0  0  0  0  0  0  0
   22.4128  -18.9810  -19.1753 C   0  0  0  0  0  0  0  0  0  0  0  0
   23.1538  -18.5973  -17.8892 C   0  0  2  0  0  0  0  0  0  0  0  0
   24.5669  -18.5278  -18.0981 N   0  0  0  0  0  0  0  0  0  0  0  0
   22.8619  -19.6999  -16.9323 C   0  0  0  0  0  0  0  0  0  0  0  0
   23.7330  -20.5877  -16.7505 O   0  0  0  0  0  0  0  0  0  0  0  0
   25.4918  -20.4200   -9.3992 N   0  0  0  0  0  0  0  0  0  0  0  0
   25.9428  -21.2484  -10.4514 C   0  0  0  0  0  0  0  0  0  0  0  0
   27.1200  -21.8059  -10.3901 N   0  0  0  0  0  0  0  0  0  0  0  0
   25.1209  -21.4883  -11.5953 N   0  0  0  0  0  0  0  0  0  0  0  0
   24.3085  -20.4609  -12.2116 C   0  0  0  0  0  0  0  0  0  0  0  0
   23.4967  -20.9974  -13.3626 C   0  0  0  0  0  0  0  0  0  0  0  0
   22.6218  -19.9783  -13.9970 C   0  0  0  0  0  0  0  0  0  0  0  0
   21.6096  -20.5298  -14.9781 C   0  0  2  0  0  0  0  0  0  0  0  0
   21.6389  -19.7837  -16.2210 N   0  0  0  0  0  0  0  0  0  0  0  0
   20.2247  -20.5056  -14.4769 C   0  0  0  0  0  0  0  0  0  0  0  0
   19.6576  -21.6409  -13.9507 O   0  0  0  0  0  0  0  0  0  0  0  0
   19.5586  -19.4521  -14.5292 O   0  0  0  0  0  0  0  0  0  0  0  0
  1  2  1  0
  2  3  2  0
  4  5  1  0
  4  2  1  0
  5  6  1  6
  7  8  2  0
  7  5  1  0
 10  9  1  6
 10 11  1  0
 11  7  1  0
 12 22  1  0
 12 10  1  0
 13 12  2  0
 15 14  1  0
 16 15  2  0
 17 15  1  0
 18 17  1  0
 19 18  1  0
 20 19  1  0
 21 20  1  1
 21 22  1  0
 23 21  1  0
 24 23  1  0
 25 23  2  0
M  END
$$$$
