NAR.pdb
     RDKit          3D

 25 24  0  0  1  0  0  0  0  0999 V2000
   29.0207  -22.5073  -21.4692 N   0  0  0  0  0  0  0  0  0  0  0  0
   28.3398  -23.3501  -20.5525 C   0  0  0  0  0  0  0  0  0  0  0  0
   27.7399  -24.3906  -20.8947 O   0  0  0  0  0  0  0  0  0  0  0  0
   28.3427  -22.9748  -19.1235 C   0  0  0  0  0  0  0  0  0  0  0  0
   29.1103  -21.6530  -18.9900 C   0  0  2  0  0  0  0  0  0  0  0  0
   30.4899  -22.0124  -18.8052 N   0  0  0  0  0  0  0  0  0  0  0  0
   28.5380  -20.9778  -17.7974 C   0  0  0  0  0  0  0  0  0  0  0  0
   29.1621  -21.0286  -16.7057 O   0  0  0  0  0  0  0  0  0  0  0  0
   25.6558  -18.6498  -16.9862 C   0  0  0  0  0  0  0  0  0  0  0  0
   26.8760  -19.5182  -16.6582 C   0  0  2  0  0  0  0  0  0  0  0  0
   27.3119  -20.2635  -17.7982 N   0  0  0  0  0  0  0  0  0  0  0  0
   26.4038  -20.4680  -15.6135 C   0  0  0  0  0  0  0  0  0  0  0  0
   25.9690  -21.5917  -15.9716 O   0  0  0  0  0  0  0  0  0  0  0  0
   22.7137  -19.9193   -9.4274 N   0  0  0  0  0  0  0  0  0  0  0  0
   23.2511  -20.7969   -8.4590 C   0  0  0  0  0  0  0  0  0  0  0  0
   22.4865  -21.2944   -7.5271 N   0  0  0  0  0  0  0  0  0  0  0  0
   24.6347  -21.1524   -8.4835 N   0  0  0  0  0  0  0  0  0  0  0  0
   25.5641  -20.6353   -9.4654 C   0  0  0  0  0  0  0  0  0  0  0  0
   25.2879  -21.1765  -10.8447 C   0  0  0  0  0  0  0  0  0  0  0  0
   26.2655  -20.7223  -11.8667 C   0  0  0  0  0  0  0  0  0  0  0  0
   25.9412  -21.1357  -13.2862 C   0  0  2  0  0  0  0  0  0  0  0  0
   26.4267  -20.1502  -14.2325 N   0  0  0  0  0  0  0  0  0  0  0  0
   24.5011  -21.3202  -13.5352 C   0  0  0  0  0  0  0  0  0  0  0  0
   23.9312  -22.5648  -13.4198 O   0  0  0  0  0  0  0  0  0  0  0  0
   23.7913  -20.3451  -13.8539 O   0  0  0  0  0  0  0  0  0  0  0  0
  1  2  1  0
  2  3  2  0
  4  5  1  0
  4  2  1  0
  5  6  1  1
  7  8  2  0
  7  5  1  0
 10  9  1  6
 10 11  1  0
 11  7  1  0
 12 22  1  0
 12 10  1  0
 13 12  2  0
 15 14  1  0
 16 15  2  0
 17 15  1  0
 18 17  1  0
 19 18  1  0
 20 19  1  0
 21 20  1  1
 21 22  1  0
 23 21  1  0
 24 23  1  0
 25 23  2  0
M  END
$$$$
