NAR.pdb
     RDKit          3D

 25 24  0  0  1  0  0  0  0  0999 V2000
   32.4775  -25.4848  -15.6655 N   0  0  0  0  0  0  0  0  0  0  0  0
   32.5929  -24.7197  -16.8553 C   0  0  0  0  0  0  0  0  0  0  0  0
   33.6743  -24.5459  -17.4554 O   0  0  0  0  0  0  0  0  0  0  0  0
   31.3714  -24.0994  -17.4084 C   0  0  0  0  0  0  0  0  0  0  0  0
   30.2316  -24.3432  -16.4105 C   0  0  2  0  0  0  0  0  0  0  0  0
   29.8710  -25.7277  -16.5507 N   0  0  0  0  0  0  0  0  0  0  0  0
   29.1363  -23.4296  -16.8244 C   0  0  0  0  0  0  0  0  0  0  0  0
   29.3146  -22.1860  -16.7507 O   0  0  0  0  0  0  0  0  0  0  0  0
   25.8475  -23.5006  -18.6346 C   0  0  0  0  0  0  0  0  0  0  0  0
   26.8185  -22.9434  -17.5871 C   0  0  2  0  0  0  0  0  0  0  0  0
   27.8754  -23.8654  -17.3077 N   0  0  0  0  0  0  0  0  0  0  0  0
   25.9981  -22.7641  -16.3577 C   0  0  0  0  0  0  0  0  0  0  0  0
   25.9739  -23.6899  -15.5079 O   0  0  0  0  0  0  0  0  0  0  0  0
   24.0875  -20.0298   -9.5186 N   0  0  0  0  0  0  0  0  0  0  0  0
   25.4305  -20.4129   -9.3036 C   0  0  0  0  0  0  0  0  0  0  0  0
   25.8223  -20.7990   -8.1213 N   0  0  0  0  0  0  0  0  0  0  0  0
   26.3781  -20.3837  -10.3726 N   0  0  0  0  0  0  0  0  0  0  0  0
   26.0650  -19.8717  -11.6898 C   0  0  0  0  0  0  0  0  0  0  0  0
   25.4996  -20.9392  -12.5912 C   0  0  0  0  0  0  0  0  0  0  0  0
   25.1737  -20.4515  -13.9558 C   0  0  0  0  0  0  0  0  0  0  0  0
   24.5233  -21.4766  -14.8600 C   0  0  2  0  0  0  0  0  0  0  0  0
   25.2448  -21.5888  -16.1126 N   0  0  0  0  0  0  0  0  0  0  0  0
   23.1175  -21.1759  -15.1814 C   0  0  0  0  0  0  0  0  0  0  0  0
   22.1278  -21.4214  -14.2608 O   0  0  0  0  0  0  0  0  0  0  0  0
   22.8186  -20.6971  -16.2939 O   0  0  0  0  0  0  0  0  0  0  0  0
  1  2  1  0
  2  3  2  0
  4  5  1  0
  4  2  1  0
  5  6  1  6
  7  8  2  0
  7  5  1  0
 10  9  1  6
 10 11  1  0
 11  7  1  0
 12 22  1  0
 12 10  1  0
 13 12  2  0
 15 14  1  0
 16 15  2  0
 17 15  1  0
 18 17  1  0
 19 18  1  0
 20 19  1  0
 21 20  1  1
 21 22  1  0
 23 21  1  0
 24 23  1  0
 25 23  2  0
M  END
$$$$
