NAR.pdb
     RDKit          3D

 25 24  0  0  1  0  0  0  0  0999 V2000
   17.1687   -9.8845  -18.3563 N   0  0  0  0  0  0  0  0  0  0  0  0
   18.2267   -9.1692  -17.7371 C   0  0  0  0  0  0  0  0  0  0  0  0
   19.1121   -8.5653  -18.3781 O   0  0  0  0  0  0  0  0  0  0  0  0
   18.2801   -9.1399  -16.2609 C   0  0  0  0  0  0  0  0  0  0  0  0
   19.7562   -9.1991  -15.8463 C   0  0  2  0  0  0  0  0  0  0  0  0
   20.1458  -10.5780  -15.9621 N   0  0  0  0  0  0  0  0  0  0  0  0
   19.7961   -8.7169  -14.4422 C   0  0  0  0  0  0  0  0  0  0  0  0
   19.2197   -9.3879  -13.5470 O   0  0  0  0  0  0  0  0  0  0  0  0
   21.4064   -5.9116  -12.4521 C   0  0  0  0  0  0  0  0  0  0  0  0
   20.5600   -7.1754  -12.6448 C   0  0  2  0  0  0  0  0  0  0  0  0
   20.4511   -7.5288  -14.0262 N   0  0  0  0  0  0  0  0  0  0  0  0
   19.2094   -6.8170  -12.1312 C   0  0  0  0  0  0  0  0  0  0  0  0
   18.4253   -6.1860  -12.8842 O   0  0  0  0  0  0  0  0  0  0  0  0
   12.2825  -10.6599   -8.5094 N   0  0  0  0  0  0  0  0  0  0  0  0
   12.0942   -9.2790   -8.2760 C   0  0  0  0  0  0  0  0  0  0  0  0
   10.9775   -8.8463   -7.7599 N   0  0  0  0  0  0  0  0  0  0  0  0
   13.1189   -8.3374   -8.5999 N   0  0  0  0  0  0  0  0  0  0  0  0
   14.3969   -8.7243   -9.1586 C   0  0  0  0  0  0  0  0  0  0  0  0
   15.2586   -7.5297   -9.4782 C   0  0  0  0  0  0  0  0  0  0  0  0
   16.5904   -7.8896  -10.0289 C   0  0  0  0  0  0  0  0  0  0  0  0
   17.4711   -6.7116  -10.3867 C   0  0  2  0  0  0  0  0  0  0  0  0
   18.7778   -7.1611  -10.8258 N   0  0  0  0  0  0  0  0  0  0  0  0
   17.6756   -5.7660   -9.2760 C   0  0  0  0  0  0  0  0  0  0  0  0
   16.7381   -4.7984   -9.0074 O   0  0  0  0  0  0  0  0  0  0  0  0
   18.7040   -5.8389   -8.5735 O   0  0  0  0  0  0  0  0  0  0  0  0
  1  2  1  0
  2  3  2  0
  4  5  1  0
  4  2  1  0
  5  6  1  1
  7  8  2  0
  7  5  1  0
 10  9  1  6
 10 11  1  0
 11  7  1  0
 12 22  1  0
 12 10  1  0
 13 12  2  0
 15 14  1  0
 16 15  2  0
 17 15  1  0
 18 17  1  0
 19 18  1  0
 20 19  1  0
 21 20  1  1
 21 22  1  0
 23 21  1  0
 24 23  1  0
 25 23  2  0
M  END
$$$$
