NAR.pdb
     RDKit          3D

 25 24  0  0  1  0  0  0  0  0999 V2000
   26.0101  -20.1852   -6.8714 N   0  0  0  0  0  0  0  0  0  0  0  0
   27.1957  -20.6894   -7.4668 C   0  0  0  0  0  0  0  0  0  0  0  0
   28.2235  -20.9695   -6.8151 O   0  0  0  0  0  0  0  0  0  0  0  0
   27.2112  -20.8916   -8.9303 C   0  0  0  0  0  0  0  0  0  0  0  0
   25.8908  -20.3468   -9.4904 C   0  0  2  0  0  0  0  0  0  0  0  0
   24.8509  -21.1489   -8.9058 N   0  0  0  0  0  0  0  0  0  0  0  0
   25.9790  -20.5220  -10.9625 C   0  0  0  0  0  0  0  0  0  0  0  0
   26.8255  -19.8524  -11.6099 O   0  0  0  0  0  0  0  0  0  0  0  0
   24.3755  -22.5510  -13.7306 C   0  0  0  0  0  0  0  0  0  0  0  0
   25.0540  -21.3130  -13.1326 C   0  0  2  0  0  0  0  0  0  0  0  0
   25.1609  -21.4086  -11.7097 N   0  0  0  0  0  0  0  0  0  0  0  0
   24.1533  -20.1775  -13.4729 C   0  0  0  0  0  0  0  0  0  0  0  0
   23.8181  -19.3791  -12.5617 O   0  0  0  0  0  0  0  0  0  0  0  0
   27.9739  -18.5070  -15.9658 N   0  0  0  0  0  0  0  0  0  0  0  0
   27.9668  -17.3558  -16.7852 C   0  0  0  0  0  0  0  0  0  0  0  0
   28.8139  -17.2455  -17.7705 N   0  0  0  0  0  0  0  0  0  0  0  0
   27.0361  -16.2976  -16.5495 N   0  0  0  0  0  0  0  0  0  0  0  0
   25.9894  -16.3758  -15.5527 C   0  0  0  0  0  0  0  0  0  0  0  0
   25.0365  -17.5120  -15.8222 C   0  0  0  0  0  0  0  0  0  0  0  0
   23.8699  -17.5382  -14.9030 C   0  0  0  0  0  0  0  0  0  0  0  0
   22.9545  -18.7321  -15.0697 C   0  0  2  0  0  0  0  0  0  0  0  0
   23.6613  -19.9657  -14.7851 N   0  0  0  0  0  0  0  0  0  0  0  0
   22.3765  -18.8516  -16.4193 C   0  0  0  0  0  0  0  0  0  0  0  0
   22.7564  -19.8792  -17.2481 O   0  0  0  0  0  0  0  0  0  0  0  0
   21.5384  -18.0175  -16.8171 O   0  0  0  0  0  0  0  0  0  0  0  0
  1  2  1  0
  2  3  2  0
  4  5  1  0
  4  2  1  0
  5  6  1  1
  7  8  2  0
  7  5  1  0
 10  9  1  1
 10 11  1  0
 11  7  1  0
 12 22  1  0
 12 10  1  0
 13 12  2  0
 15 14  1  0
 16 15  2  0
 17 15  1  0
 18 17  1  0
 19 18  1  0
 20 19  1  0
 21 20  1  6
 21 22  1  0
 23 21  1  0
 24 23  1  0
 25 23  2  0
M  END
$$$$
