NAR.pdb
     RDKit          3D

 25 24  0  0  1  0  0  0  0  0999 V2000
   19.4699  -18.7887  -15.0761 N   0  0  0  0  0  0  0  0  0  0  0  0
   19.9145  -18.8513  -16.4225 C   0  0  0  0  0  0  0  0  0  0  0  0
   19.1575  -19.1066  -17.3824 O   0  0  0  0  0  0  0  0  0  0  0  0
   21.3443  -18.6016  -16.6985 C   0  0  0  0  0  0  0  0  0  0  0  0
   22.0547  -18.4197  -15.3507 C   0  0  2  0  0  0  0  0  0  0  0  0
   21.4758  -17.2478  -14.7522 N   0  0  0  0  0  0  0  0  0  0  0  0
   23.4915  -18.2354  -15.6783 C   0  0  0  0  0  0  0  0  0  0  0  0
   24.1224  -19.1793  -16.2213 O   0  0  0  0  0  0  0  0  0  0  0  0
   26.1510  -15.5356  -15.4245 C   0  0  0  0  0  0  0  0  0  0  0  0
   25.6193  -16.9461  -15.7042 C   0  0  2  0  0  0  0  0  0  0  0  0
   24.2217  -17.0468  -15.4184 N   0  0  0  0  0  0  0  0  0  0  0  0
   26.3670  -17.8323  -14.7703 C   0  0  0  0  0  0  0  0  0  0  0  0
   26.4634  -17.4933  -13.5637 O   0  0  0  0  0  0  0  0  0  0  0  0
   24.2448  -20.9524   -8.6097 N   0  0  0  0  0  0  0  0  0  0  0  0
   24.0077  -20.5887   -9.9544 C   0  0  0  0  0  0  0  0  0  0  0  0
   22.7940  -20.3458  -10.3649 N   0  0  0  0  0  0  0  0  0  0  0  0
   25.0881  -20.4815  -10.8832 N   0  0  0  0  0  0  0  0  0  0  0  0
   26.1595  -21.4517  -10.9614 C   0  0  0  0  0  0  0  0  0  0  0  0
   27.1762  -21.0871  -12.0126 C   0  0  0  0  0  0  0  0  0  0  0  0
   26.6496  -20.1668  -13.0529 C   0  0  0  0  0  0  0  0  0  0  0  0
   27.6008  -19.8877  -14.1968 C   0  0  2  0  0  0  0  0  0  0  0  0
   26.9729  -19.0418  -15.1930 N   0  0  0  0  0  0  0  0  0  0  0  0
   28.0775  -21.1022  -14.8806 C   0  0  0  0  0  0  0  0  0  0  0  0
   28.9859  -21.9315  -14.2686 O   0  0  0  0  0  0  0  0  0  0  0  0
   27.6586  -21.3832  -16.0216 O   0  0  0  0  0  0  0  0  0  0  0  0
  1  2  1  0
  2  3  2  0
  4  5  1  0
  4  2  1  0
  5  6  1  6
  7  8  2  0
  7  5  1  0
 10  9  1  1
 10 11  1  0
 11  7  1  0
 12 22  1  0
 12 10  1  0
 13 12  2  0
 15 14  1  0
 16 15  2  0
 17 15  1  0
 18 17  1  0
 19 18  1  0
 20 19  1  0
 21 20  1  1
 21 22  1  0
 23 21  1  0
 24 23  1  0
 25 23  2  0
M  END
$$$$
