NAR.pdb
     RDKit          3D

 25 24  0  0  1  0  0  0  0  0999 V2000
   17.8401  -12.7013  -18.0528 N   0  0  0  0  0  0  0  0  0  0  0  0
   16.8600  -12.0984  -17.2220 C   0  0  0  0  0  0  0  0  0  0  0  0
   15.6374  -12.1252  -17.4752 O   0  0  0  0  0  0  0  0  0  0  0  0
   17.3120  -11.4054  -15.9980 C   0  0  0  0  0  0  0  0  0  0  0  0
   18.8397  -11.5305  -15.9284 C   0  0  2  0  0  0  0  0  0  0  0  0
   19.1058  -12.7863  -15.2812 N   0  0  0  0  0  0  0  0  0  0  0  0
   19.2988  -10.3711  -15.1218 C   0  0  0  0  0  0  0  0  0  0  0  0
   18.9293  -10.2737  -13.9227 O   0  0  0  0  0  0  0  0  0  0  0  0
   21.7952   -7.5438  -15.4117 C   0  0  0  0  0  0  0  0  0  0  0  0
   20.6251   -8.2960  -14.7670 C   0  0  2  0  0  0  0  0  0  0  0  0
   20.1424   -9.3419  -15.6145 N   0  0  0  0  0  0  0  0  0  0  0  0
   19.5537   -7.2753  -14.6035 C   0  0  0  0  0  0  0  0  0  0  0  0
   18.7266   -7.1138  -15.5362 O   0  0  0  0  0  0  0  0  0  0  0  0
   14.4750   -5.7785   -8.0023 N   0  0  0  0  0  0  0  0  0  0  0  0
   15.1268   -6.7009   -8.8515 C   0  0  0  0  0  0  0  0  0  0  0  0
   15.1149   -7.9742   -8.5707 N   0  0  0  0  0  0  0  0  0  0  0  0
   15.8072   -6.2565  -10.0268 N   0  0  0  0  0  0  0  0  0  0  0  0
   15.8610   -4.8669  -10.4286 C   0  0  0  0  0  0  0  0  0  0  0  0
   16.5534   -4.6889  -11.7554 C   0  0  0  0  0  0  0  0  0  0  0  0
   17.6400   -5.6732  -11.9939 C   0  0  0  0  0  0  0  0  0  0  0  0
   18.3235   -5.5536  -13.3392 C   0  0  2  0  0  0  0  0  0  0  0  0
   19.4341   -6.4807  -13.4360 N   0  0  0  0  0  0  0  0  0  0  0  0
   18.8438   -4.2048  -13.6216 C   0  0  0  0  0  0  0  0  0  0  0  0
   20.1967   -3.9917  -13.7286 O   0  0  0  0  0  0  0  0  0  0  0  0
   18.0565   -3.2476  -13.7640 O   0  0  0  0  0  0  0  0  0  0  0  0
  1  2  1  0
  2  3  2  0
  4  5  1  0
  4  2  1  0
  5  6  1  1
  7  8  2  0
  7  5  1  0
 10  9  1  6
 10 11  1  0
 11  7  1  0
 12 22  1  0
 12 10  1  0
 13 12  2  0
 15 14  1  0
 16 15  2  0
 17 15  1  0
 18 17  1  0
 19 18  1  0
 20 19  1  0
 21 20  1  1
 21 22  1  0
 23 21  1  0
 24 23  1  0
 25 23  2  0
M  END
$$$$
