NAR.pdb
     RDKit          3D

 25 24  0  0  1  0  0  0  0  0999 V2000
   29.2647  -24.2609  -17.8019 N   0  0  0  0  0  0  0  0  0  0  0  0
   30.0628  -23.6427  -16.8043 C   0  0  0  0  0  0  0  0  0  0  0  0
   31.2775  -23.8883  -16.6497 O   0  0  0  0  0  0  0  0  0  0  0  0
   29.4216  -22.6604  -15.9060 C   0  0  0  0  0  0  0  0  0  0  0  0
   27.9296  -22.6088  -16.2603 C   0  0  2  0  0  0  0  0  0  0  0  0
   27.8549  -22.7688  -17.6870 N   0  0  0  0  0  0  0  0  0  0  0  0
   27.4600  -21.2716  -15.8167 C   0  0  0  0  0  0  0  0  0  0  0  0
   27.0698  -21.1216  -14.6296 O   0  0  0  0  0  0  0  0  0  0  0  0
   27.3021  -17.7167  -17.0915 C   0  0  0  0  0  0  0  0  0  0  0  0
   26.8707  -18.8843  -16.1964 C   0  0  2  0  0  0  0  0  0  0  0  0
   27.4177  -20.1248  -16.6514 N   0  0  0  0  0  0  0  0  0  0  0  0
   25.3880  -18.9374  -16.3197 C   0  0  0  0  0  0  0  0  0  0  0  0
   24.8340  -20.0566  -16.4630 O   0  0  0  0  0  0  0  0  0  0  0  0
   19.7218  -21.4438  -11.5958 N   0  0  0  0  0  0  0  0  0  0  0  0
   19.3648  -21.5661  -12.9576 C   0  0  0  0  0  0  0  0  0  0  0  0
   18.5393  -22.5007  -13.3390 N   0  0  0  0  0  0  0  0  0  0  0  0
   19.8998  -20.6723  -13.9357 N   0  0  0  0  0  0  0  0  0  0  0  0
   20.8660  -19.6425  -13.6177 C   0  0  0  0  0  0  0  0  0  0  0  0
   21.2510  -18.8351  -14.8307 C   0  0  0  0  0  0  0  0  0  0  0  0
   22.7186  -18.7428  -15.0403 C   0  0  0  0  0  0  0  0  0  0  0  0
   23.1400  -17.9291  -16.2451 C   0  0  2  0  0  0  0  0  0  0  0  0
   24.5810  -17.7729  -16.2818 N   0  0  0  0  0  0  0  0  0  0  0  0
   22.5450  -16.5823  -16.2878 C   0  0  0  0  0  0  0  0  0  0  0  0
   21.1963  -16.4262  -16.4976 O   0  0  0  0  0  0  0  0  0  0  0  0
   23.2649  -15.5750  -16.1346 O   0  0  0  0  0  0  0  0  0  0  0  0
  1  2  1  0
  2  3  2  0
  4  5  1  0
  4  2  1  0
  5  6  1  6
  7  8  2  0
  7  5  1  0
 10  9  1  6
 10 11  1  0
 11  7  1  0
 12 22  1  0
 12 10  1  0
 13 12  2  0
 15 14  1  0
 16 15  2  0
 17 15  1  0
 18 17  1  0
 19 18  1  0
 20 19  1  0
 21 20  1  1
 21 22  1  0
 23 21  1  0
 24 23  1  0
 25 23  2  0
M  END
$$$$
