NAR.pdb
     RDKit          3D

 25 24  0  0  1  0  0  0  0  0999 V2000
   28.6329  -32.6061  -14.5607 N   0  0  0  0  0  0  0  0  0  0  0  0
   29.3416  -31.6465  -15.3298 C   0  0  0  0  0  0  0  0  0  0  0  0
   30.5866  -31.5497  -15.3252 O   0  0  0  0  0  0  0  0  0  0  0  0
   28.5646  -30.7178  -16.1764 C   0  0  0  0  0  0  0  0  0  0  0  0
   28.6018  -31.2545  -17.6133 C   0  0  2  0  0  0  0  0  0  0  0  0
   29.6493  -30.5303  -18.2803 N   0  0  0  0  0  0  0  0  0  0  0  0
   27.2619  -30.9625  -18.1834 C   0  0  0  0  0  0  0  0  0  0  0  0
   27.0591  -29.8488  -18.7331 O   0  0  0  0  0  0  0  0  0  0  0  0
   24.0216  -32.7984  -18.8793 C   0  0  0  0  0  0  0  0  0  0  0  0
   24.9240  -31.5624  -18.7874 C   0  0  2  0  0  0  0  0  0  0  0  0
   26.1690  -31.8671  -18.1532 N   0  0  0  0  0  0  0  0  0  0  0  0
   24.1729  -30.5990  -17.9364 C   0  0  0  0  0  0  0  0  0  0  0  0
   24.2609  -30.7016  -16.6867 O   0  0  0  0  0  0  0  0  0  0  0  0
   22.8950  -22.6694  -20.4433 N   0  0  0  0  0  0  0  0  0  0  0  0
   22.4246  -23.1318  -19.1937 C   0  0  0  0  0  0  0  0  0  0  0  0
   21.7434  -22.3390  -18.4140 N   0  0  0  0  0  0  0  0  0  0  0  0
   22.6862  -24.4693  -18.7645 N   0  0  0  0  0  0  0  0  0  0  0  0
   23.4336  -25.4203  -19.5596 C   0  0  0  0  0  0  0  0  0  0  0  0
   23.7000  -26.6992  -18.8080 C   0  0  0  0  0  0  0  0  0  0  0  0
   22.4768  -27.3143  -18.2320 C   0  0  0  0  0  0  0  0  0  0  0  0
   22.6894  -28.6632  -17.5787 C   0  0  2  0  0  0  0  0  0  0  0  0
   23.3635  -29.5727  -18.4846 N   0  0  0  0  0  0  0  0  0  0  0  0
   21.4417  -29.3131  -17.1422 C   0  0  0  0  0  0  0  0  0  0  0  0
   20.8953  -29.0135  -15.9178 O   0  0  0  0  0  0  0  0  0  0  0  0
   20.8751  -30.1413  -17.8833 O   0  0  0  0  0  0  0  0  0  0  0  0
  1  2  1  0
  2  3  2  0
  4  5  1  0
  4  2  1  0
  5  6  1  6
  7  8  2  0
  7  5  1  0
 10  9  1  1
 10 11  1  0
 11  7  1  0
 12 22  1  0
 12 10  1  0
 13 12  2  0
 15 14  1  0
 16 15  2  0
 17 15  1  0
 18 17  1  0
 19 18  1  0
 20 19  1  0
 21 20  1  6
 21 22  1  0
 23 21  1  0
 24 23  1  0
 25 23  2  0
M  END
$$$$
