NAR.pdb
     RDKit          3D

 25 24  0  0  1  0  0  0  0  0999 V2000
   19.1949  -11.6922  -17.6193 N   0  0  0  0  0  0  0  0  0  0  0  0
   19.9357  -10.4887  -17.4884 C   0  0  0  0  0  0  0  0  0  0  0  0
   20.6151   -9.9987  -18.4146 O   0  0  0  0  0  0  0  0  0  0  0  0
   19.8990   -9.7833  -16.1907 C   0  0  0  0  0  0  0  0  0  0  0  0
   21.3223   -9.3005  -15.8818 C   0  0  2  0  0  0  0  0  0  0  0  0
   22.0511  -10.4630  -15.4529 N   0  0  0  0  0  0  0  0  0  0  0  0
   21.1764   -8.2942  -14.7994 C   0  0  0  0  0  0  0  0  0  0  0  0
   20.8791   -8.6806  -13.6392 O   0  0  0  0  0  0  0  0  0  0  0  0
   21.6217   -4.5604  -14.2958 C   0  0  0  0  0  0  0  0  0  0  0  0
   21.1643   -5.9714  -13.9078 C   0  0  2  0  0  0  0  0  0  0  0  0
   21.3516   -6.8978  -14.9810 N   0  0  0  0  0  0  0  0  0  0  0  0
   19.7071   -5.8421  -13.6317 C   0  0  0  0  0  0  0  0  0  0  0  0
   18.9008   -5.9296  -14.5921 O   0  0  0  0  0  0  0  0  0  0  0  0
   14.0490   -8.0928   -7.1063 N   0  0  0  0  0  0  0  0  0  0  0  0
   13.3084   -7.4810   -8.1425 C   0  0  0  0  0  0  0  0  0  0  0  0
   12.0048   -7.5030   -8.1195 N   0  0  0  0  0  0  0  0  0  0  0  0
   13.9717   -6.8311   -9.2285 N   0  0  0  0  0  0  0  0  0  0  0  0
   15.4061   -6.8771   -9.4170 C   0  0  0  0  0  0  0  0  0  0  0  0
   15.8328   -6.1728  -10.6794 C   0  0  0  0  0  0  0  0  0  0  0  0
   17.2999   -6.2053  -10.9096 C   0  0  0  0  0  0  0  0  0  0  0  0
   17.7650   -5.4841  -12.1565 C   0  0  2  0  0  0  0  0  0  0  0  0
   19.1981   -5.6240  -12.3271 N   0  0  0  0  0  0  0  0  0  0  0  0
   17.4550   -4.0441  -12.1584 C   0  0  0  0  0  0  0  0  0  0  0  0
   16.1988   -3.6056  -12.5007 O   0  0  0  0  0  0  0  0  0  0  0  0
   18.3339   -3.2144  -11.8497 O   0  0  0  0  0  0  0  0  0  0  0  0
  1  2  1  0
  2  3  2  0
  4  5  1  0
  4  2  1  0
  5  6  1  1
  7  8  2  0
  7  5  1  0
 10  9  1  6
 10 11  1  0
 11  7  1  0
 12 22  1  0
 12 10  1  0
 13 12  2  0
 15 14  1  0
 16 15  2  0
 17 15  1  0
 18 17  1  0
 19 18  1  0
 20 19  1  0
 21 20  1  1
 21 22  1  0
 23 21  1  0
 24 23  1  0
 25 23  2  0
M  END
$$$$
