NAR.pdb
     RDKit          3D

 25 24  0  0  1  0  0  0  0  0999 V2000
   24.0871  -21.2436   -8.7878 N   0  0  0  0  0  0  0  0  0  0  0  0
   23.2351  -20.8166   -9.8396 C   0  0  0  0  0  0  0  0  0  0  0  0
   22.0032  -20.6634   -9.7034 O   0  0  0  0  0  0  0  0  0  0  0  0
   23.8389  -20.5408  -11.1595 C   0  0  0  0  0  0  0  0  0  0  0  0
   25.3239  -20.9190  -11.0814 C   0  0  2  0  0  0  0  0  0  0  0  0
   25.8751  -20.1418  -10.0049 N   0  0  0  0  0  0  0  0  0  0  0  0
   25.9003  -20.5477  -12.3988 C   0  0  0  0  0  0  0  0  0  0  0  0
   26.0609  -19.3308  -12.6766 O   0  0  0  0  0  0  0  0  0  0  0  0
   27.5840  -22.2135  -15.3404 C   0  0  0  0  0  0  0  0  0  0  0  0
   26.8413  -21.0682  -14.6425 C   0  0  2  0  0  0  0  0  0  0  0  0
   26.2920  -21.4850  -13.3896 N   0  0  0  0  0  0  0  0  0  0  0  0
   25.7264  -20.7138  -15.5633 C   0  0  0  0  0  0  0  0  0  0  0  0
   24.5616  -21.0856  -15.2718 O   0  0  0  0  0  0  0  0  0  0  0  0
   19.0989  -16.1828  -16.3122 N   0  0  0  0  0  0  0  0  0  0  0  0
   19.4579  -17.4416  -15.7801 C   0  0  0  0  0  0  0  0  0  0  0  0
   18.5977  -18.1291  -15.0817 N   0  0  0  0  0  0  0  0  0  0  0  0
   20.7635  -17.9803  -15.9965 N   0  0  0  0  0  0  0  0  0  0  0  0
   21.8127  -17.2537  -16.6796 C   0  0  0  0  0  0  0  0  0  0  0  0
   22.6913  -18.1655  -17.4971 C   0  0  0  0  0  0  0  0  0  0  0  0
   23.8351  -18.7275  -16.7341 C   0  0  0  0  0  0  0  0  0  0  0  0
   24.7757  -19.5947  -17.5432 C   0  0  2  0  0  0  0  0  0  0  0  0
   25.9319  -19.9740  -16.7546 N   0  0  0  0  0  0  0  0  0  0  0  0
   25.2677  -18.9486  -18.7721 C   0  0  0  0  0  0  0  0  0  0  0  0
   24.4038  -18.6725  -19.8040 O   0  0  0  0  0  0  0  0  0  0  0  0
   26.4738  -18.6496  -18.8821 O   0  0  0  0  0  0  0  0  0  0  0  0
  1  2  1  0
  2  3  2  0
  4  5  1  0
  4  2  1  0
  5  6  1  1
  7  8  2  0
  7  5  1  0
 10  9  1  6
 10 11  1  0
 11  7  1  0
 12 22  1  0
 12 10  1  0
 13 12  2  0
 15 14  1  0
 16 15  2  0
 17 15  1  0
 18 17  1  0
 19 18  1  0
 20 19  1  0
 21 20  1  1
 21 22  1  0
 23 21  1  0
 24 23  1  0
 25 23  2  0
M  END
$$$$
