NAR.pdb
     RDKit          3D

 25 24  0  0  1  0  0  0  0  0999 V2000
   37.3400  -25.5168  -21.4692 N   0  0  0  0  0  0  0  0  0  0  0  0
   36.2513  -26.1288  -20.7949 C   0  0  0  0  0  0  0  0  0  0  0  0
   35.2379  -25.5021  -20.4211 O   0  0  0  0  0  0  0  0  0  0  0  0
   36.3241  -27.5793  -20.5232 C   0  0  0  0  0  0  0  0  0  0  0  0
   34.9689  -28.0152  -19.9510 C   0  0  2  0  0  0  0  0  0  0  0  0
   34.9735  -27.6137  -18.5706 N   0  0  0  0  0  0  0  0  0  0  0  0
   34.9246  -29.4912  -20.1096 C   0  0  0  0  0  0  0  0  0  0  0  0
   34.9926  -29.9858  -21.2648 O   0  0  0  0  0  0  0  0  0  0  0  0
   35.6004  -32.5983  -18.2755 C   0  0  0  0  0  0  0  0  0  0  0  0
   34.7102  -31.8153  -19.2476 C   0  0  2  0  0  0  0  0  0  0  0  0
   34.8089  -30.4052  -19.0304 N   0  0  0  0  0  0  0  0  0  0  0  0
   33.3218  -32.2545  -18.9381 C   0  0  0  0  0  0  0  0  0  0  0  0
   32.5911  -31.5021  -18.2452 O   0  0  0  0  0  0  0  0  0  0  0  0
   27.5417  -31.0344  -15.5031 N   0  0  0  0  0  0  0  0  0  0  0  0
   27.2229  -32.3702  -15.1703 C   0  0  0  0  0  0  0  0  0  0  0  0
   26.0139  -32.6831  -14.7950 N   0  0  0  0  0  0  0  0  0  0  0  0
   28.2150  -33.3962  -15.2386 N   0  0  0  0  0  0  0  0  0  0  0  0
   29.5734  -33.1515  -15.6743 C   0  0  0  0  0  0  0  0  0  0  0  0
   29.8409  -33.7278  -17.0411 C   0  0  0  0  0  0  0  0  0  0  0  0
   31.2144  -33.4602  -17.5391 C   0  0  0  0  0  0  0  0  0  0  0  0
   31.4635  -33.8737  -18.9737 C   0  0  2  0  0  0  0  0  0  0  0  0
   32.7961  -33.4885  -19.3959 N   0  0  0  0  0  0  0  0  0  0  0  0
   30.5076  -33.2928  -19.9321 C   0  0  0  0  0  0  0  0  0  0  0  0
   29.2797  -33.8771  -20.1275 O   0  0  0  0  0  0  0  0  0  0  0  0
   30.8099  -32.2661  -20.5731 O   0  0  0  0  0  0  0  0  0  0  0  0
  1  2  1  0
  2  3  2  0
  4  5  1  0
  4  2  1  0
  5  6  1  1
  7  8  2  0
  7  5  1  0
 10  9  1  1
 10 11  1  0
 11  7  1  0
 12 22  1  0
 12 10  1  0
 13 12  2  0
 15 14  1  0
 16 15  2  0
 17 15  1  0
 18 17  1  0
 19 18  1  0
 20 19  1  0
 21 20  1  1
 21 22  1  0
 23 21  1  0
 24 23  1  0
 25 23  2  0
M  END
$$$$
