NAR.pdb
     RDKit          3D

 25 24  0  0  1  0  0  0  0  0999 V2000
   28.0558  -21.5952  -12.1293 N   0  0  0  0  0  0  0  0  0  0  0  0
   27.5255  -20.7598  -11.1118 C   0  0  0  0  0  0  0  0  0  0  0  0
   28.2262  -20.2400  -10.2182 O   0  0  0  0  0  0  0  0  0  0  0  0
   26.0721  -20.4940  -11.1128 C   0  0  0  0  0  0  0  0  0  0  0  0
   25.4471  -21.3234  -12.2423 C   0  0  2  0  0  0  0  0  0  0  0  0
   26.3336  -21.1941  -13.3667 N   0  0  0  0  0  0  0  0  0  0  0  0
   24.1179  -20.7123  -12.4980 C   0  0  0  0  0  0  0  0  0  0  0  0
   23.4099  -20.3540  -11.5212 O   0  0  0  0  0  0  0  0  0  0  0  0
   22.0680  -19.3892  -15.3743 C   0  0  0  0  0  0  0  0  0  0  0  0
   22.2510  -19.9903  -13.9758 C   0  0  2  0  0  0  0  0  0  0  0  0
   23.5752  -20.4978  -13.7914 N   0  0  0  0  0  0  0  0  0  0  0  0
   21.2877  -21.1238  -13.9142 C   0  0  0  0  0  0  0  0  0  0  0  0
   21.7380  -22.2956  -13.8492 O   0  0  0  0  0  0  0  0  0  0  0  0
   18.6991  -24.2782   -7.1021 N   0  0  0  0  0  0  0  0  0  0  0  0
   18.5817  -25.2629   -8.1088 C   0  0  0  0  0  0  0  0  0  0  0  0
   18.5046  -26.5244   -7.7879 N   0  0  0  0  0  0  0  0  0  0  0  0
   18.5460  -24.8953   -9.4891 N   0  0  0  0  0  0  0  0  0  0  0  0
   18.6270  -23.5228   -9.9416 C   0  0  0  0  0  0  0  0  0  0  0  0
   18.4814  -23.4117  -11.4376 C   0  0  0  0  0  0  0  0  0  0  0  0
   19.3835  -22.4015  -12.0478 C   0  0  0  0  0  0  0  0  0  0  0  0
   19.0302  -22.0059  -13.4655 C   0  0  2  0  0  0  0  0  0  0  0  0
   19.8840  -20.9286  -13.9267 N   0  0  0  0  0  0  0  0  0  0  0  0
   17.6333  -21.5673  -13.6275 C   0  0  0  0  0  0  0  0  0  0  0  0
   16.5993  -22.4246  -13.3390 O   0  0  0  0  0  0  0  0  0  0  0  0
   17.3824  -20.4133  -14.0294 O   0  0  0  0  0  0  0  0  0  0  0  0
  1  2  1  0
  2  3  2  0
  4  5  1  0
  4  2  1  0
  5  6  1  6
  7  8  2  0
  7  5  1  0
 10  9  1  6
 10 11  1  0
 11  7  1  0
 12 22  1  0
 12 10  1  0
 13 12  2  0
 15 14  1  0
 16 15  2  0
 17 15  1  0
 18 17  1  0
 19 18  1  0
 20 19  1  0
 21 20  1  1
 21 22  1  0
 23 21  1  0
 24 23  1  0
 25 23  2  0
M  END
$$$$
