GFL.pdb
     RDKit          3D

 24 24  0  0  1  0  0  0  0  0999 V2000
   28.3568  -21.4859  -14.1776 N   0  0  0  0  0  0  0  0  0  0  0  0
   28.8836  -22.5938  -13.4412 C   0  0  0  0  0  0  0  0  0  0  0  0
   28.8860  -22.3244  -11.9606 C   0  0  0  0  0  0  0  0  0  0  0  0
   29.3941  -23.1424  -11.1548 O   0  0  0  0  0  0  0  0  0  0  0  0
   28.3153  -21.1400  -11.4275 N   0  0  0  0  0  0  0  0  0  0  0  0
   28.3128  -20.7068  -10.0797 C   0  0  1  0  0  0  0  0  0  0  0  0
   28.6949  -19.2506   -9.9222 C   0  0  0  0  0  0  0  0  0  0  0  0
   28.8353  -18.8267   -8.5073 C   0  0  0  0  0  0  0  0  0  0  0  0
   29.9895  -19.1799   -7.7842 C   0  0  0  0  0  0  0  0  0  0  0  0
   30.1170  -18.8073   -6.4882 C   0  0  0  0  0  0  0  0  0  0  0  0
   29.1545  -18.0925   -5.8497 C   0  0  0  0  0  0  0  0  0  0  0  0
   28.0274  -17.7392   -6.5300 C   0  0  0  0  0  0  0  0  0  0  0  0
   27.8804  -18.1137   -7.8610 C   0  0  0  0  0  0  0  0  0  0  0  0
   27.1494  -21.0982   -9.2899 C   0  0  0  0  0  0  0  0  0  0  0  0
   26.0932  -21.4339   -9.9299 O   0  0  0  0  0  0  0  0  0  0  0  0
   28.3268  -22.3904   -5.5059 C   0  0  0  0  0  0  0  0  0  0  0  0
   27.4204  -21.2221   -5.1219 C   0  0  2  0  0  0  0  0  0  0  0  0
   27.5315  -20.9067   -3.6823 C   0  0  0  0  0  0  0  0  0  0  0  0
   26.0503  -21.3632   -5.6780 C   0  0  0  0  0  0  0  0  0  0  0  0
   25.8894  -21.4914   -7.1360 C   0  0  2  0  0  0  0  0  0  0  0  0
   27.0748  -21.1428   -7.8927 N   0  0  0  0  0  0  0  0  0  0  0  0
   24.6701  -20.8572   -7.6942 C   0  0  0  0  0  0  0  0  0  0  0  0
   23.3888  -21.2534   -7.3405 O   0  0  0  0  0  0  0  0  0  0  0  0
   24.7587  -19.9175   -8.5256 O   0  0  0  0  0  0  0  0  0  0  0  0
  2  1  1  0
  3  2  1  0
  4  3  2  0
  5  3  1  0
  6 14  1  0
  6  5  1  0
  6  7  1  6
  8  7  1  0
  9  8  2  0
 10  9  1  0
 11 10  2  0
 11 12  1  0
 12 13  2  0
 13  8  1  0
 14 15  2  0
 17 16  1  1
 17 19  1  0
 18 17  1  0
 20 19  1  1
 21 20  1  0
 21 14  1  0
 22 23  1  0
 22 20  1  0
 24 22  2  0
M  END
$$$$
