GFL.pdb
     RDKit          3D

 24 24  0  0  1  0  0  0  0  0999 V2000
   28.6364  -21.8483  -18.2697 N   0  0  0  0  0  0  0  0  0  0  0  0
   28.8170  -20.9223  -17.1939 C   0  0  0  0  0  0  0  0  0  0  0  0
   28.0215  -21.3209  -15.9801 C   0  0  0  0  0  0  0  0  0  0  0  0
   27.7366  -22.5236  -15.7594 O   0  0  0  0  0  0  0  0  0  0  0  0
   27.5683  -20.3529  -15.0473 N   0  0  0  0  0  0  0  0  0  0  0  0
   26.8962  -20.5752  -13.8212 C   0  0  1  0  0  0  0  0  0  0  0  0
   27.3547  -19.6494  -12.7150 C   0  0  0  0  0  0  0  0  0  0  0  0
   26.7537  -19.9632  -11.3952 C   0  0  0  0  0  0  0  0  0  0  0  0
   27.3597  -20.9220  -10.5627 C   0  0  0  0  0  0  0  0  0  0  0  0
   26.8079  -21.2224   -9.3627 C   0  0  0  0  0  0  0  0  0  0  0  0
   25.6709  -20.6212   -8.9258 C   0  0  0  0  0  0  0  0  0  0  0  0
   25.0661  -19.6892   -9.7155 C   0  0  0  0  0  0  0  0  0  0  0  0
   25.6192  -19.3692  -10.9504 C   0  0  0  0  0  0  0  0  0  0  0  0
   25.4458  -20.7134  -13.9090 C   0  0  0  0  0  0  0  0  0  0  0  0
   24.7952  -19.7408  -14.4271 O   0  0  0  0  0  0  0  0  0  0  0  0
   22.8670  -23.1261  -16.4151 C   0  0  0  0  0  0  0  0  0  0  0  0
   23.2615  -23.9156  -15.1680 C   0  0  2  0  0  0  0  0  0  0  0  0
   22.9852  -25.3577  -15.3356 C   0  0  0  0  0  0  0  0  0  0  0  0
   22.7771  -23.2764  -13.9178 C   0  0  0  0  0  0  0  0  0  0  0  0
   23.2511  -21.9222  -13.5871 C   0  0  2  0  0  0  0  0  0  0  0  0
   24.6917  -21.8119  -13.4795 N   0  0  0  0  0  0  0  0  0  0  0  0
   22.5597  -21.2729  -12.4465 C   0  0  0  0  0  0  0  0  0  0  0  0
   21.2910  -20.7224  -12.5525 O   0  0  0  0  0  0  0  0  0  0  0  0
   23.1127  -21.1980  -11.3192 O   0  0  0  0  0  0  0  0  0  0  0  0
  2  1  1  0
  3  2  1  0
  4  3  2  0
  5  3  1  0
  6 14  1  0
  6  5  1  0
  6  7  1  1
  8  7  1  0
  9  8  2  0
 10  9  1  0
 11 10  2  0
 11 12  1  0
 12 13  2  0
 13  8  1  0
 14 15  2  0
 17 16  1  6
 17 19  1  0
 18 17  1  0
 20 19  1  1
 21 20  1  0
 21 14  1  0
 22 23  1  0
 22 20  1  0
 24 22  2  0
M  END
$$$$
