GFL.pdb
     RDKit          3D

 24 24  0  0  1  0  0  0  0  0999 V2000
   28.4546  -23.3376  -17.5022 N   0  0  0  0  0  0  0  0  0  0  0  0
   28.0337  -22.0809  -16.9629 C   0  0  0  0  0  0  0  0  0  0  0  0
   27.0990  -22.2630  -15.7975 C   0  0  0  0  0  0  0  0  0  0  0  0
   26.5024  -23.3519  -15.6105 O   0  0  0  0  0  0  0  0  0  0  0  0
   26.8615  -21.2127  -14.8739 N   0  0  0  0  0  0  0  0  0  0  0  0
   25.9537  -21.1991  -13.7877 C   0  0  1  0  0  0  0  0  0  0  0  0
   26.4177  -20.3345  -12.6352 C   0  0  0  0  0  0  0  0  0  0  0  0
   25.5734  -20.4644  -11.4221 C   0  0  0  0  0  0  0  0  0  0  0  0
   24.2878  -19.8932  -11.4022 C   0  0  0  0  0  0  0  0  0  0  0  0
   23.5178  -19.9970  -10.2926 C   0  0  0  0  0  0  0  0  0  0  0  0
   23.9490  -20.6438   -9.1788 C   0  0  0  0  0  0  0  0  0  0  0  0
   25.1912  -21.2050   -9.1748 C   0  0  0  0  0  0  0  0  0  0  0  0
   25.9946  -21.1075  -10.3055 C   0  0  0  0  0  0  0  0  0  0  0  0
   24.5493  -21.0089  -14.1372 C   0  0  0  0  0  0  0  0  0  0  0  0
   24.2391  -19.9281  -14.7483 O   0  0  0  0  0  0  0  0  0  0  0  0
   22.7231  -23.5988  -17.2192 C   0  0  0  0  0  0  0  0  0  0  0  0
   21.9931  -23.5212  -15.8793 C   0  0  2  0  0  0  0  0  0  0  0  0
   20.8906  -24.5030  -15.8107 C   0  0  0  0  0  0  0  0  0  0  0  0
   21.6775  -22.1236  -15.4878 C   0  0  0  0  0  0  0  0  0  0  0  0
   22.1053  -21.6476  -14.1618 C   0  0  2  0  0  0  0  0  0  0  0  0
   23.5019  -21.8978  -13.8680 N   0  0  0  0  0  0  0  0  0  0  0  0
   21.2238  -22.0415  -13.0356 C   0  0  0  0  0  0  0  0  0  0  0  0
   21.6257  -22.9183  -12.0388 O   0  0  0  0  0  0  0  0  0  0  0  0
   20.0558  -21.5836  -12.9442 O   0  0  0  0  0  0  0  0  0  0  0  0
  2  1  1  0
  3  2  1  0
  4  3  2  0
  5  3  1  0
  6 14  1  0
  6  5  1  0
  6  7  1  1
  8  7  1  0
  9  8  2  0
 10  9  1  0
 11 10  2  0
 11 12  1  0
 12 13  2  0
 13  8  1  0
 14 15  2  0
 17 16  1  6
 17 19  1  0
 18 17  1  0
 20 19  1  6
 21 20  1  0
 21 14  1  0
 22 23  1  0
 22 20  1  0
 24 22  2  0
M  END
$$$$
