GFL.pdb
     RDKit          3D

 24 24  0  0  1  0  0  0  0  0999 V2000
   28.3142  -21.7367  -14.1328 N   0  0  0  0  0  0  0  0  0  0  0  0
   28.7126  -20.7784  -13.1478 C   0  0  0  0  0  0  0  0  0  0  0  0
   28.2335  -21.1635  -11.7741 C   0  0  0  0  0  0  0  0  0  0  0  0
   27.5209  -22.1824  -11.5994 O   0  0  0  0  0  0  0  0  0  0  0  0
   28.5705  -20.3898  -10.6337 N   0  0  0  0  0  0  0  0  0  0  0  0
   28.0605  -20.5120   -9.3188 C   0  0  1  0  0  0  0  0  0  0  0  0
   28.9322  -19.8428   -8.2779 C   0  0  0  0  0  0  0  0  0  0  0  0
   28.4381  -20.0216   -6.8903 C   0  0  0  0  0  0  0  0  0  0  0  0
   27.6830  -19.0024   -6.2816 C   0  0  0  0  0  0  0  0  0  0  0  0
   27.2409  -19.1545   -5.0103 C   0  0  0  0  0  0  0  0  0  0  0  0
   27.5045  -20.2747   -4.2888 C   0  0  0  0  0  0  0  0  0  0  0  0
   28.2345  -21.2754   -4.8577 C   0  0  0  0  0  0  0  0  0  0  0  0
   28.6962  -21.1354   -6.1618 C   0  0  0  0  0  0  0  0  0  0  0  0
   26.6367  -20.2312   -9.1620 C   0  0  0  0  0  0  0  0  0  0  0  0
   26.2449  -19.0377   -9.4066 O   0  0  0  0  0  0  0  0  0  0  0  0
   23.5060  -19.5499  -11.4733 C   0  0  0  0  0  0  0  0  0  0  0  0
   23.8131  -21.0346  -11.2850 C   0  0  2  0  0  0  0  0  0  0  0  0
   23.2748  -21.8401  -12.4010 C   0  0  0  0  0  0  0  0  0  0  0  0
   23.5128  -21.5036   -9.9080 C   0  0  0  0  0  0  0  0  0  0  0  0
   24.2264  -20.8835   -8.7791 C   0  0  2  0  0  0  0  0  0  0  0  0
   25.6516  -21.1445   -8.7680 N   0  0  0  0  0  0  0  0  0  0  0  0
   23.6129  -21.1052   -7.4469 C   0  0  0  0  0  0  0  0  0  0  0  0
   22.3441  -20.6504   -7.1196 O   0  0  0  0  0  0  0  0  0  0  0  0
   24.2363  -21.7270   -6.5485 O   0  0  0  0  0  0  0  0  0  0  0  0
  2  1  1  0
  3  2  1  0
  4  3  2  0
  5  3  1  0
  6 14  1  0
  6  5  1  0
  6  7  1  1
  8  7  1  0
  9  8  2  0
 10  9  1  0
 11 10  2  0
 11 12  1  0
 12 13  2  0
 13  8  1  0
 14 15  2  0
 17 16  1  1
 17 19  1  0
 18 17  1  0
 20 19  1  6
 21 20  1  0
 21 14  1  0
 22 23  1  0
 22 20  1  0
 24 22  2  0
M  END
$$$$
