GFL.pdb
     RDKit          3D

 24 24  0  0  1  0  0  0  0  0999 V2000
   18.3806  -15.2131  -16.1961 N   0  0  0  0  0  0  0  0  0  0  0  0
   17.5630  -14.0436  -16.0905 C   0  0  0  0  0  0  0  0  0  0  0  0
   18.2797  -12.8191  -16.5922 C   0  0  0  0  0  0  0  0  0  0  0  0
   19.4749  -12.8790  -16.9723 O   0  0  0  0  0  0  0  0  0  0  0  0
   17.6301  -11.5593  -16.6519 N   0  0  0  0  0  0  0  0  0  0  0  0
   18.1383  -10.3429  -17.1679 C   0  0  1  0  0  0  0  0  0  0  0  0
   17.1734   -9.6431  -18.1009 C   0  0  0  0  0  0  0  0  0  0  0  0
   17.7538   -8.4494  -18.7639 C   0  0  0  0  0  0  0  0  0  0  0  0
   17.3297   -7.1634  -18.3816 C   0  0  0  0  0  0  0  0  0  0  0  0
   17.8462   -6.0705  -18.9929 C   0  0  0  0  0  0  0  0  0  0  0  0
   18.7749   -6.1723  -19.9788 C   0  0  0  0  0  0  0  0  0  0  0  0
   19.2007   -7.4079  -20.3660 C   0  0  0  0  0  0  0  0  0  0  0  0
   18.6807   -8.5403  -19.7490 C   0  0  0  0  0  0  0  0  0  0  0  0
   18.7646   -9.4535  -16.1946 C   0  0  0  0  0  0  0  0  0  0  0  0
   18.0962   -9.1771  -15.1389 O   0  0  0  0  0  0  0  0  0  0  0  0
   21.5171   -9.5884  -12.7911 C   0  0  0  0  0  0  0  0  0  0  0  0
   22.2371   -9.6545  -14.1370 C   0  0  2  0  0  0  0  0  0  0  0  0
   23.6289  -10.1256  -13.9790 C   0  0  0  0  0  0  0  0  0  0  0  0
   22.0275   -8.4297  -14.9508 C   0  0  0  0  0  0  0  0  0  0  0  0
   20.6506   -8.0355  -15.2924 C   0  0  2  0  0  0  0  0  0  0  0  0
   20.0323   -8.8696  -16.3030 N   0  0  0  0  0  0  0  0  0  0  0  0
   20.4592   -6.5917  -15.5736 C   0  0  0  0  0  0  0  0  0  0  0  0
   19.9284   -6.1230  -16.7663 O   0  0  0  0  0  0  0  0  0  0  0  0
   20.7789   -5.7238  -14.7210 O   0  0  0  0  0  0  0  0  0  0  0  0
  2  1  1  0
  3  2  1  0
  4  3  2  0
  5  3  1  0
  6 14  1  0
  6  5  1  0
  6  7  1  1
  8  7  1  0
  9  8  2  0
 10  9  1  0
 11 10  2  0
 11 12  1  0
 12 13  2  0
 13  8  1  0
 14 15  2  0
 17 16  1  1
 17 19  1  0
 18 17  1  0
 20 19  1  6
 21 20  1  0
 21 14  1  0
 22 23  1  0
 22 20  1  0
 24 22  2  0
M  END
$$$$
