GFL.pdb
     RDKit          3D

 24 24  0  0  1  0  0  0  0  0999 V2000
   21.9716  -21.8104   -6.0355 N   0  0  0  0  0  0  0  0  0  0  0  0
   23.3488  -22.1678   -6.1871 C   0  0  0  0  0  0  0  0  0  0  0  0
   24.0365  -21.3035   -7.2093 C   0  0  0  0  0  0  0  0  0  0  0  0
   23.3879  -20.4849   -7.9062 O   0  0  0  0  0  0  0  0  0  0  0  0
   25.4372  -21.3851   -7.4189 N   0  0  0  0  0  0  0  0  0  0  0  0
   26.2273  -20.6273   -8.3165 C   0  0  1  0  0  0  0  0  0  0  0  0
   27.6787  -20.5325   -7.8973 C   0  0  0  0  0  0  0  0  0  0  0  0
   27.8659  -19.9539   -6.5440 C   0  0  0  0  0  0  0  0  0  0  0  0
   28.3627  -20.7597   -5.5030 C   0  0  0  0  0  0  0  0  0  0  0  0
   28.5228  -20.2405   -4.2623 C   0  0  0  0  0  0  0  0  0  0  0  0
   28.2160  -18.9475   -3.9811 C   0  0  0  0  0  0  0  0  0  0  0  0
   27.7330  -18.1479   -4.9738 C   0  0  0  0  0  0  0  0  0  0  0  0
   27.5623  -18.6651   -6.2531 C   0  0  0  0  0  0  0  0  0  0  0  0
   26.0428  -20.9277   -9.7330 C   0  0  0  0  0  0  0  0  0  0  0  0
   26.0838  -22.1587  -10.0806 O   0  0  0  0  0  0  0  0  0  0  0  0
   24.1286  -18.2709  -15.0430 C   0  0  0  0  0  0  0  0  0  0  0  0
   24.3713  -19.5609  -14.2612 C   0  0  2  0  0  0  0  0  0  0  0  0
   23.2850  -20.5374  -14.4858 C   0  0  0  0  0  0  0  0  0  0  0  0
   24.7658  -19.3024  -12.8528 C   0  0  0  0  0  0  0  0  0  0  0  0
   25.5371  -20.3309  -12.1350 C   0  0  2  0  0  0  0  0  0  0  0  0
   25.8240  -19.9962  -10.7548 N   0  0  0  0  0  0  0  0  0  0  0  0
   26.7408  -20.8272  -12.8457 C   0  0  0  0  0  0  0  0  0  0  0  0
   26.7744  -22.0481  -13.5031 O   0  0  0  0  0  0  0  0  0  0  0  0
   27.7955  -20.1424  -12.8773 O   0  0  0  0  0  0  0  0  0  0  0  0
  2  1  1  0
  3  2  1  0
  4  3  2  0
  5  3  1  0
  6 14  1  0
  6  5  1  0
  6  7  1  1
  8  7  1  0
  9  8  2  0
 10  9  1  0
 11 10  2  0
 11 12  1  0
 12 13  2  0
 13  8  1  0
 14 15  2  0
 17 16  1  1
 17 19  1  0
 18 17  1  0
 20 19  1  6
 21 20  1  0
 21 14  1  0
 22 23  1  0
 22 20  1  0
 24 22  2  0
M  END
$$$$
