GFL.pdb
     RDKit          3D

 24 24  0  0  1  0  0  0  0  0999 V2000
   25.7236  -24.1775  -16.5881 N   0  0  0  0  0  0  0  0  0  0  0  0
   25.1883  -22.9616  -16.0568 C   0  0  0  0  0  0  0  0  0  0  0  0
   26.0005  -22.4601  -14.8933 C   0  0  0  0  0  0  0  0  0  0  0  0
   27.1047  -22.9821  -14.6021 O   0  0  0  0  0  0  0  0  0  0  0  0
   25.5463  -21.3835  -14.0888 N   0  0  0  0  0  0  0  0  0  0  0  0
   26.2037  -20.7836  -12.9878 C   0  0  1  0  0  0  0  0  0  0  0  0
   26.3198  -19.2795  -13.1118 C   0  0  0  0  0  0  0  0  0  0  0  0
   26.9963  -18.8401  -14.3570 C   0  0  0  0  0  0  0  0  0  0  0  0
   26.2382  -18.2864  -15.4050 C   0  0  0  0  0  0  0  0  0  0  0  0
   26.8486  -17.8960  -16.5495 C   0  0  0  0  0  0  0  0  0  0  0  0
   28.1895  -18.0217  -16.7256 C   0  0  0  0  0  0  0  0  0  0  0  0
   28.9444  -18.5556  -15.7241 C   0  0  0  0  0  0  0  0  0  0  0  0
   28.3337  -18.9616  -14.5428 C   0  0  0  0  0  0  0  0  0  0  0  0
   25.7703  -21.2331  -11.6685 C   0  0  0  0  0  0  0  0  0  0  0  0
   24.5218  -21.4660  -11.5101 O   0  0  0  0  0  0  0  0  0  0  0  0
   28.1477  -18.7152   -6.7265 C   0  0  0  0  0  0  0  0  0  0  0  0
   27.0966  -19.7307   -7.1715 C   0  0  2  0  0  0  0  0  0  0  0  0
   26.9072  -20.7875   -6.1560 C   0  0  0  0  0  0  0  0  0  0  0  0
   27.2961  -20.1720   -8.5757 C   0  0  0  0  0  0  0  0  0  0  0  0
   26.2702  -21.0231   -9.2012 C   0  0  2  0  0  0  0  0  0  0  0  0
   26.5908  -21.4359  -10.5525 N   0  0  0  0  0  0  0  0  0  0  0  0
   24.8796  -20.5184   -9.0920 C   0  0  0  0  0  0  0  0  0  0  0  0
   23.8957  -21.1788   -8.3710 O   0  0  0  0  0  0  0  0  0  0  0  0
   24.5377  -19.4505   -9.6620 O   0  0  0  0  0  0  0  0  0  0  0  0
  2  1  1  0
  3  2  1  0
  4  3  2  0
  5  3  1  0
  6 14  1  0
  6  5  1  0
  6  7  1  1
  8  7  1  0
  9  8  2  0
 10  9  1  0
 11 10  2  0
 11 12  1  0
 12 13  2  0
 13  8  1  0
 14 15  2  0
 17 16  1  1
 17 19  1  0
 18 17  1  0
 20 19  1  6
 21 20  1  0
 21 14  1  0
 22 23  1  0
 22 20  1  0
 24 22  2  0
M  END
$$$$
