GFL.pdb
     RDKit          3D

 24 24  0  0  1  0  0  0  0  0999 V2000
   26.6950  -19.7283  -19.0476 N   0  0  0  0  0  0  0  0  0  0  0  0
   27.1521  -19.0918  -17.8504 C   0  0  0  0  0  0  0  0  0  0  0  0
   26.6882  -19.8252  -16.6208 C   0  0  0  0  0  0  0  0  0  0  0  0
   26.2186  -20.9870  -16.6990 O   0  0  0  0  0  0  0  0  0  0  0  0
   26.7662  -19.2295  -15.3357 N   0  0  0  0  0  0  0  0  0  0  0  0
   26.2938  -19.7494  -14.1065 C   0  0  1  0  0  0  0  0  0  0  0  0
   27.0476  -19.2174  -12.9066 C   0  0  0  0  0  0  0  0  0  0  0  0
   26.6237  -19.8304  -11.6236 C   0  0  0  0  0  0  0  0  0  0  0  0
   26.9794  -21.1606  -11.3346 C   0  0  0  0  0  0  0  0  0  0  0  0
   26.5836  -21.7298  -10.1709 C   0  0  0  0  0  0  0  0  0  0  0  0
   25.8428  -21.0514   -9.2566 C   0  0  0  0  0  0  0  0  0  0  0  0
   25.4861  -19.7615   -9.5150 C   0  0  0  0  0  0  0  0  0  0  0  0
   25.8839  -19.1621  -10.7049 C   0  0  0  0  0  0  0  0  0  0  0  0
   24.8442  -19.7546  -13.9354 C   0  0  0  0  0  0  0  0  0  0  0  0
   24.2348  -18.6371  -14.0685 O   0  0  0  0  0  0  0  0  0  0  0  0
   20.9814  -19.8995  -15.9344 C   0  0  0  0  0  0  0  0  0  0  0  0
   21.7743  -21.1854  -15.7070 C   0  0  2  0  0  0  0  0  0  0  0  0
   21.4076  -22.2238  -16.6925 C   0  0  0  0  0  0  0  0  0  0  0  0
   21.7977  -21.5896  -14.2779 C   0  0  0  0  0  0  0  0  0  0  0  0
   22.6330  -20.8212  -13.3399 C   0  0  2  0  0  0  0  0  0  0  0  0
   24.0501  -20.8685  -13.6381 N   0  0  0  0  0  0  0  0  0  0  0  0
   22.3612  -21.0708  -11.9032 C   0  0  0  0  0  0  0  0  0  0  0  0
   21.2211  -20.6076  -11.2633 O   0  0  0  0  0  0  0  0  0  0  0  0
   23.1734  -21.7258  -11.2006 O   0  0  0  0  0  0  0  0  0  0  0  0
  2  1  1  0
  3  2  1  0
  4  3  2  0
  5  3  1  0
  6 14  1  0
  6  5  1  0
  6  7  1  1
  8  7  1  0
  9  8  2  0
 10  9  1  0
 11 10  2  0
 11 12  1  0
 12 13  2  0
 13  8  1  0
 14 15  2  0
 17 16  1  1
 17 19  1  0
 18 17  1  0
 20 19  1  6
 21 20  1  0
 21 14  1  0
 22 23  1  0
 22 20  1  0
 24 22  2  0
M  END
$$$$
