GFL.pdb
     RDKit          3D

 24 24  0  0  1  0  0  0  0  0999 V2000
   25.2183  -24.7489  -14.3199 N   0  0  0  0  0  0  0  0  0  0  0  0
   25.3505  -23.3394  -14.1118 C   0  0  0  0  0  0  0  0  0  0  0  0
   25.5822  -23.0125  -12.6612 C   0  0  0  0  0  0  0  0  0  0  0  0
   25.4517  -23.8889  -11.7716 O   0  0  0  0  0  0  0  0  0  0  0  0
   25.9549  -21.7064  -12.2519 N   0  0  0  0  0  0  0  0  0  0  0  0
   26.1539  -21.2324  -10.9328 C   0  0  1  0  0  0  0  0  0  0  0  0
   27.1357  -20.0829  -10.8554 C   0  0  0  0  0  0  0  0  0  0  0  0
   27.6251  -19.8160   -9.4804 C   0  0  0  0  0  0  0  0  0  0  0  0
   28.7160  -20.5461   -8.9739 C   0  0  0  0  0  0  0  0  0  0  0  0
   29.1585  -20.3161   -7.7145 C   0  0  0  0  0  0  0  0  0  0  0  0
   28.5775  -19.3902   -6.9083 C   0  0  0  0  0  0  0  0  0  0  0  0
   27.5189  -18.6708   -7.3774 C   0  0  0  0  0  0  0  0  0  0  0  0
   27.0519  -18.8945   -8.6679 C   0  0  0  0  0  0  0  0  0  0  0  0
   24.9435  -21.0261  -10.1436 C   0  0  0  0  0  0  0  0  0  0  0  0
   23.8443  -20.8838  -10.7835 O   0  0  0  0  0  0  0  0  0  0  0  0
   24.2269  -22.8331   -5.8657 C   0  0  0  0  0  0  0  0  0  0  0  0
   24.7250  -21.3913   -5.7821 C   0  0  2  0  0  0  0  0  0  0  0  0
   25.0363  -21.0106   -4.3884 C   0  0  0  0  0  0  0  0  0  0  0  0
   23.8784  -20.4546   -6.5644 C   0  0  0  0  0  0  0  0  0  0  0  0
   23.6518  -20.7319   -7.9926 C   0  0  2  0  0  0  0  0  0  0  0  0
   24.8661  -20.9682   -8.7470 N   0  0  0  0  0  0  0  0  0  0  0  0
   22.7470  -19.7813   -8.6839 C   0  0  0  0  0  0  0  0  0  0  0  0
   21.3686  -19.8115   -8.5322 O   0  0  0  0  0  0  0  0  0  0  0  0
   23.2092  -18.8956   -9.4483 O   0  0  0  0  0  0  0  0  0  0  0  0
  2  1  1  0
  3  2  1  0
  4  3  2  0
  5  3  1  0
  6 14  1  0
  6  5  1  0
  6  7  1  6
  8  7  1  0
  9  8  2  0
 10  9  1  0
 11 10  2  0
 11 12  1  0
 12 13  2  0
 13  8  1  0
 14 15  2  0
 17 16  1  1
 17 19  1  0
 18 17  1  0
 20 19  1  1
 21 20  1  0
 21 14  1  0
 22 23  1  0
 22 20  1  0
 24 22  2  0
M  END
$$$$
