GFL.pdb
     RDKit          3D

 24 24  0  0  1  0  0  0  0  0999 V2000
   29.3767  -23.2746  -17.7229 N   0  0  0  0  0  0  0  0  0  0  0  0
   28.4187  -22.2296  -17.5296 C   0  0  0  0  0  0  0  0  0  0  0  0
   27.8862  -22.2191  -16.1220 C   0  0  0  0  0  0  0  0  0  0  0  0
   27.6718  -23.2904  -15.5033 O   0  0  0  0  0  0  0  0  0  0  0  0
   27.6093  -21.0012  -15.4493 N   0  0  0  0  0  0  0  0  0  0  0  0
   27.0414  -20.8277  -14.1642 C   0  0  1  0  0  0  0  0  0  0  0  0
   27.7671  -19.7960  -13.3274 C   0  0  0  0  0  0  0  0  0  0  0  0
   28.5806  -20.3869  -12.2363 C   0  0  0  0  0  0  0  0  0  0  0  0
   29.9550  -20.6134  -12.4346 C   0  0  0  0  0  0  0  0  0  0  0  0
   30.6999  -21.1651  -11.4469 C   0  0  0  0  0  0  0  0  0  0  0  0
   30.1590  -21.5139  -10.2508 C   0  0  0  0  0  0  0  0  0  0  0  0
   28.8294  -21.3041  -10.0359 C   0  0  0  0  0  0  0  0  0  0  0  0
   28.0503  -20.7389  -11.0393 C   0  0  0  0  0  0  0  0  0  0  0  0
   25.5879  -20.6996  -14.1251 C   0  0  0  0  0  0  0  0  0  0  0  0
   25.0051  -20.3127  -15.1968 O   0  0  0  0  0  0  0  0  0  0  0  0
   23.8751  -19.8954  -10.3441 C   0  0  0  0  0  0  0  0  0  0  0  0
   22.5832  -20.6584  -10.6322 C   0  0  2  0  0  0  0  0  0  0  0  0
   22.0496  -21.2922   -9.4084 C   0  0  0  0  0  0  0  0  0  0  0  0
   22.6891  -21.5121  -11.8431 C   0  0  0  0  0  0  0  0  0  0  0  0
   23.3150  -20.9498  -13.0514 C   0  0  2  0  0  0  0  0  0  0  0  0
   24.7636  -20.9600  -13.0240 N   0  0  0  0  0  0  0  0  0  0  0  0
   22.7790  -19.6369  -13.4866 C   0  0  0  0  0  0  0  0  0  0  0  0
   21.4560  -19.4527  -13.8603 O   0  0  0  0  0  0  0  0  0  0  0  0
   23.5225  -18.6234  -13.5326 O   0  0  0  0  0  0  0  0  0  0  0  0
  2  1  1  0
  3  2  1  0
  4  3  2  0
  5  3  1  0
  6 14  1  0
  6  5  1  0
  6  7  1  6
  8  7  1  0
  9  8  2  0
 10  9  1  0
 11 10  2  0
 11 12  1  0
 12 13  2  0
 13  8  1  0
 14 15  2  0
 17 16  1  1
 17 19  1  0
 18 17  1  0
 20 19  1  1
 21 20  1  0
 21 14  1  0
 22 23  1  0
 22 20  1  0
 24 22  2  0
M  END
$$$$
