GFL.pdb
     RDKit          3D

 24 24  0  0  1  0  0  0  0  0999 V2000
   14.6143  -12.1066    4.3097 N   0  0  0  0  0  0  0  0  0  0  0  0
   15.6607  -12.9853    3.8852 C   0  0  0  0  0  0  0  0  0  0  0  0
   16.0174  -13.9806    4.9562 C   0  0  0  0  0  0  0  0  0  0  0  0
   15.4407  -13.9657    6.0714 O   0  0  0  0  0  0  0  0  0  0  0  0
   17.0147  -14.9664    4.7415 N   0  0  0  0  0  0  0  0  0  0  0  0
   17.4477  -15.9741    5.6367 C   0  0  1  0  0  0  0  0  0  0  0  0
   17.0161  -17.3643    5.2215 C   0  0  0  0  0  0  0  0  0  0  0  0
   17.2026  -17.6329    3.7743 C   0  0  0  0  0  0  0  0  0  0  0  0
   16.1121  -17.5046    2.8945 C   0  0  0  0  0  0  0  0  0  0  0  0
   16.2733  -17.7618    1.5744 C   0  0  0  0  0  0  0  0  0  0  0  0
   17.4701  -18.1458    1.0597 C   0  0  0  0  0  0  0  0  0  0  0  0
   18.5408  -18.2771    1.8931 C   0  0  0  0  0  0  0  0  0  0  0  0
   18.3927  -18.0171    3.2510 C   0  0  0  0  0  0  0  0  0  0  0  0
   18.8433  -15.8925    6.0566 C   0  0  0  0  0  0  0  0  0  0  0  0
   19.7228  -15.7403    5.1394 O   0  0  0  0  0  0  0  0  0  0  0  0
   21.3016  -12.8990    7.2816 C   0  0  0  0  0  0  0  0  0  0  0  0
   20.6152  -13.4410    8.5342 C   0  0  2  0  0  0  0  0  0  0  0  0
   20.7309  -12.4936    9.6626 C   0  0  0  0  0  0  0  0  0  0  0  0
   20.9687  -14.8582    8.8040 C   0  0  0  0  0  0  0  0  0  0  0  0
   20.7098  -15.8622    7.7585 C   0  0  2  0  0  0  0  0  0  0  0  0
   19.3173  -15.9648    7.3718 N   0  0  0  0  0  0  0  0  0  0  0  0
   21.3169  -17.1941    7.9990 C   0  0  0  0  0  0  0  0  0  0  0  0
   22.6635  -17.3649    8.2844 O   0  0  0  0  0  0  0  0  0  0  0  0
   20.6156  -18.2373    7.9513 O   0  0  0  0  0  0  0  0  0  0  0  0
  2  1  1  0
  3  2  1  0
  4  3  2  0
  5  3  1  0
  6 14  1  0
  6  5  1  0
  6  7  1  6
  8  7  1  0
  9  8  2  0
 10  9  1  0
 11 10  2  0
 11 12  1  0
 12 13  2  0
 13  8  1  0
 14 15  2  0
 17 16  1  6
 17 19  1  0
 18 17  1  0
 20 19  1  1
 21 20  1  0
 21 14  1  0
 22 23  1  0
 22 20  1  0
 24 22  2  0
M  END
$$$$
