GFL.pdb
     RDKit          3D

 24 24  0  0  1  0  0  0  0  0999 V2000
   28.0818  -23.6659  -16.3960 N   0  0  0  0  0  0  0  0  0  0  0  0
   27.7092  -22.3182  -16.0926 C   0  0  0  0  0  0  0  0  0  0  0  0
   26.6931  -22.2602  -14.9839 C   0  0  0  0  0  0  0  0  0  0  0  0
   26.0251  -23.2743  -14.6647 O   0  0  0  0  0  0  0  0  0  0  0  0
   26.4572  -21.0606  -14.2643 N   0  0  0  0  0  0  0  0  0  0  0  0
   25.5381  -20.8465  -13.2090 C   0  0  1  0  0  0  0  0  0  0  0  0
   26.0285  -19.8432  -12.1872 C   0  0  0  0  0  0  0  0  0  0  0  0
   27.0237  -20.4034  -11.2400 C   0  0  0  0  0  0  0  0  0  0  0  0
   28.3282  -20.6864  -11.6848 C   0  0  0  0  0  0  0  0  0  0  0  0
   29.2369  -21.2106  -10.8280 C   0  0  0  0  0  0  0  0  0  0  0  0
   28.9296  -21.4778   -9.5321 C   0  0  0  0  0  0  0  0  0  0  0  0
   27.6719  -21.2120   -9.0788 C   0  0  0  0  0  0  0  0  0  0  0  0
   26.7268  -20.6739   -9.9452 C   0  0  0  0  0  0  0  0  0  0  0  0
   24.1485  -20.6471  -13.6089 C   0  0  0  0  0  0  0  0  0  0  0  0
   23.9108  -19.7192  -14.4576 O   0  0  0  0  0  0  0  0  0  0  0  0
   18.6959  -22.0463  -13.4622 C   0  0  0  0  0  0  0  0  0  0  0  0
   19.6811  -22.5975  -14.4915 C   0  0  2  0  0  0  0  0  0  0  0  0
   19.1944  -23.8647  -15.0758 C   0  0  0  0  0  0  0  0  0  0  0  0
   21.0828  -22.5751  -14.0007 C   0  0  0  0  0  0  0  0  0  0  0  0
   21.7032  -21.2755  -13.6939 C   0  0  2  0  0  0  0  0  0  0  0  0
   23.0435  -21.3754  -13.1526 N   0  0  0  0  0  0  0  0  0  0  0  0
   20.8578  -20.3425  -12.9095 C   0  0  0  0  0  0  0  0  0  0  0  0
   19.9241  -19.5015  -13.4966 O   0  0  0  0  0  0  0  0  0  0  0  0
   20.9612  -20.2809  -11.6574 O   0  0  0  0  0  0  0  0  0  0  0  0
  2  1  1  0
  3  2  1  0
  4  3  2  0
  5  3  1  0
  6 14  1  0
  6  5  1  0
  6  7  1  6
  8  7  1  0
  9  8  2  0
 10  9  1  0
 11 10  2  0
 11 12  1  0
 12 13  2  0
 13  8  1  0
 14 15  2  0
 17 16  1  1
 17 19  1  0
 18 17  1  0
 20 19  1  1
 21 20  1  0
 21 14  1  0
 22 23  1  0
 22 20  1  0
 24 22  2  0
M  END
$$$$
