GFL.pdb
     RDKit          3D

 24 24  0  0  1  0  0  0  0  0999 V2000
   27.4066  -17.9302  -14.0053 N   0  0  0  0  0  0  0  0  0  0  0  0
   26.4367  -17.8510  -12.9563 C   0  0  0  0  0  0  0  0  0  0  0  0
   26.8294  -18.6944  -11.7734 C   0  0  0  0  0  0  0  0  0  0  0  0
   27.3779  -19.8130  -11.9298 O   0  0  0  0  0  0  0  0  0  0  0  0
   26.5932  -18.2546  -10.4455 N   0  0  0  0  0  0  0  0  0  0  0  0
   26.8438  -18.9542   -9.2405 C   0  0  1  0  0  0  0  0  0  0  0  0
   26.9901  -18.0414   -8.0420 C   0  0  0  0  0  0  0  0  0  0  0  0
   27.5511  -18.7201   -6.8478 C   0  0  0  0  0  0  0  0  0  0  0  0
   26.7794  -18.8215   -5.6757 C   0  0  0  0  0  0  0  0  0  0  0  0
   27.2915  -19.4280   -4.5782 C   0  0  0  0  0  0  0  0  0  0  0  0
   28.5449  -19.9512   -4.5673 C   0  0  0  0  0  0  0  0  0  0  0  0
   29.3112  -19.8645   -5.6914 C   0  0  0  0  0  0  0  0  0  0  0  0
   28.8009  -19.2450   -6.8268 C   0  0  0  0  0  0  0  0  0  0  0  0
   25.9965  -20.1170   -8.9943 C   0  0  0  0  0  0  0  0  0  0  0  0
   24.7307  -19.9468   -9.0750 O   0  0  0  0  0  0  0  0  0  0  0  0
   25.8528  -24.0974  -11.0028 C   0  0  0  0  0  0  0  0  0  0  0  0
   26.8420  -24.1751   -9.8411 C   0  0  2  0  0  0  0  0  0  0  0  0
   27.6458  -25.4137   -9.9021 C   0  0  0  0  0  0  0  0  0  0  0  0
   26.2106  -23.8438   -8.5381 C   0  0  0  0  0  0  0  0  0  0  0  0
   25.5669  -22.5291   -8.3789 C   0  0  2  0  0  0  0  0  0  0  0  0
   26.4350  -21.4079   -8.6764 N   0  0  0  0  0  0  0  0  0  0  0  0
   24.8317  -22.3369   -7.1050 C   0  0  0  0  0  0  0  0  0  0  0  0
   23.6721  -23.0321   -6.7951 O   0  0  0  0  0  0  0  0  0  0  0  0
   25.2441  -21.5188   -6.2430 O   0  0  0  0  0  0  0  0  0  0  0  0
  2  1  1  0
  3  2  1  0
  4  3  2  0
  5  3  1  0
  6 14  1  0
  6  5  1  0
  6  7  1  1
  8  7  1  0
  9  8  2  0
 10  9  1  0
 11 10  2  0
 11 12  1  0
 12 13  2  0
 13  8  1  0
 14 15  2  0
 17 16  1  6
 17 19  1  0
 18 17  1  0
 20 19  1  1
 21 20  1  0
 21 14  1  0
 22 23  1  0
 22 20  1  0
 24 22  2  0
M  END
$$$$
