MGV.pdb
     RDKit          3D

 20 19  0  0  1  0  0  0  0  0999 V2000
   27.8411  -18.8384   -4.6968 C   0  0  0  0  0  0  0  0  0  0  0  0
   29.1248  -20.1003   -4.7418 S   0  0  0  0  0  0  0  0  0  0  0  0
   29.1214  -20.8988   -6.3487 C   0  0  0  0  0  0  0  0  0  0  0  0
   28.1711  -20.2678   -7.3206 C   0  0  0  0  0  0  0  0  0  0  0  0
   28.2258  -20.9612   -8.6743 C   0  0  2  0  0  0  0  0  0  0  0  0
   29.5706  -20.9028   -9.1571 N   0  0  0  0  0  0  0  0  0  0  0  0
   27.3165  -20.2278   -9.6016 C   0  0  0  0  0  0  0  0  0  0  0  0
   27.5620  -19.0185   -9.8655 O   0  0  0  0  0  0  0  0  0  0  0  0
   26.1861  -20.8554  -10.1916 N   0  0  0  0  0  0  0  0  0  0  0  0
   25.2752  -20.1516  -11.0214 C   0  0  0  0  0  0  0  0  0  0  0  0
   24.2154  -20.9499  -11.6489 C   0  0  0  0  0  0  0  0  0  0  0  0
   24.2455  -22.2006  -11.4752 O   0  0  0  0  0  0  0  0  0  0  0  0
   20.4900  -20.4279  -11.3135 C   0  0  0  0  0  0  0  0  0  0  0  0
   20.7268  -20.6932  -12.7819 C   0  0  1  0  0  0  0  0  0  0  0  0
   20.6203  -19.3710  -13.5150 C   0  0  0  0  0  0  0  0  0  0  0  0
   22.0749  -21.3198  -12.9220 C   0  0  2  0  0  0  0  0  0  0  0  0
   23.1520  -20.4856  -12.4359 N   0  0  0  0  0  0  0  0  0  0  0  0
   22.3099  -21.6311  -14.3487 C   0  0  0  0  0  0  0  0  0  0  0  0
   21.7863  -22.7558  -14.9656 O   0  0  0  0  0  0  0  0  0  0  0  0
   23.0327  -20.8068  -15.0128 O   0  0  0  0  0  0  0  0  0  0  0  0
  1  2  1  0
  3  4  1  0
  3  2  1  0
  4  5  1  0
  5  7  1  0
  5  6  1  6
  7  8  2  0
  9 10  1  0
  9  7  1  0
 11 10  1  0
 11 17  1  0
 12 11  2  0
 14 13  1  1
 14 15  1  0
 14 16  1  0
 16 17  1  6
 16 18  1  0
 18 20  2  0
 18 19  1  0
M  END
$$$$
