MGV.pdb
     RDKit          3D

 20 19  0  0  1  0  0  0  0  0999 V2000
   20.4302  -15.8146  -16.0360 C   0  0  0  0  0  0  0  0  0  0  0  0
   19.6712  -15.3196  -17.5919 S   0  0  0  0  0  0  0  0  0  0  0  0
   18.8073  -13.7630  -17.3664 C   0  0  0  0  0  0  0  0  0  0  0  0
   19.7290  -12.6005  -17.1546 C   0  0  0  0  0  0  0  0  0  0  0  0
   18.9498  -11.3223  -16.8800 C   0  0  2  0  0  0  0  0  0  0  0  0
   18.1849  -11.0012  -18.0447 N   0  0  0  0  0  0  0  0  0  0  0  0
   19.9342  -10.2375  -16.5987 C   0  0  0  0  0  0  0  0  0  0  0  0
   20.5416  -10.2380  -15.4927 O   0  0  0  0  0  0  0  0  0  0  0  0
   20.2026   -9.2089  -17.5419 N   0  0  0  0  0  0  0  0  0  0  0  0
   21.1121   -8.1531  -17.2741 C   0  0  0  0  0  0  0  0  0  0  0  0
   20.6962   -7.1764  -16.2605 C   0  0  0  0  0  0  0  0  0  0  0  0
   19.5191   -6.7241  -16.3333 O   0  0  0  0  0  0  0  0  0  0  0  0
   19.6897   -7.3765  -12.9857 C   0  0  0  0  0  0  0  0  0  0  0  0
   20.7652   -6.3220  -12.8679 C   0  0  1  0  0  0  0  0  0  0  0  0
   22.0141   -6.9915  -12.3305 C   0  0  0  0  0  0  0  0  0  0  0  0
   20.9712   -5.7256  -14.2213 C   0  0  2  0  0  0  0  0  0  0  0  0
   21.4614   -6.6713  -15.1998 N   0  0  0  0  0  0  0  0  0  0  0  0
   21.9307   -4.6057  -14.1076 C   0  0  0  0  0  0  0  0  0  0  0  0
   21.6140   -3.4088  -13.4855 O   0  0  0  0  0  0  0  0  0  0  0  0
   23.0937   -4.7818  -14.6167 O   0  0  0  0  0  0  0  0  0  0  0  0
  1  2  1  0
  3  4  1  0
  3  2  1  0
  4  5  1  0
  5  7  1  0
  5  6  1  6
  7  8  2  0
  9 10  1  0
  9  7  1  0
 11 10  1  0
 11 17  1  0
 12 11  2  0
 14 13  1  6
 14 15  1  0
 14 16  1  0
 16 17  1  6
 16 18  1  0
 18 20  2  0
 18 19  1  0
M  END
$$$$
