MGV.pdb
     RDKit          3D

 20 19  0  0  1  0  0  0  0  0999 V2000
   33.3869  -25.5782  -21.4101 C   0  0  0  0  0  0  0  0  0  0  0  0
   33.6198  -25.3447  -19.6400 S   0  0  0  0  0  0  0  0  0  0  0  0
   32.2992  -26.1713  -18.7497 C   0  0  0  0  0  0  0  0  0  0  0  0
   31.0956  -25.3041  -18.5380 C   0  0  0  0  0  0  0  0  0  0  0  0
   31.1200  -24.6533  -17.1625 C   0  0  2  0  0  0  0  0  0  0  0  0
   31.0579  -25.6849  -16.1742 N   0  0  0  0  0  0  0  0  0  0  0  0
   29.9251  -23.7673  -17.0537 C   0  0  0  0  0  0  0  0  0  0  0  0
   29.8652  -22.7342  -17.7757 O   0  0  0  0  0  0  0  0  0  0  0  0
   28.8582  -24.0577  -16.1610 N   0  0  0  0  0  0  0  0  0  0  0  0
   27.7176  -23.2214  -16.0449 C   0  0  0  0  0  0  0  0  0  0  0  0
   26.5524  -23.5926  -16.8566 C   0  0  0  0  0  0  0  0  0  0  0  0
   26.6238  -23.4011  -18.1031 O   0  0  0  0  0  0  0  0  0  0  0  0
   25.4835  -26.6238  -17.9905 C   0  0  0  0  0  0  0  0  0  0  0  0
   24.2148  -26.1168  -17.3456 C   0  0  1  0  0  0  0  0  0  0  0  0
   24.1063  -26.7519  -15.9738 C   0  0  0  0  0  0  0  0  0  0  0  0
   24.2971  -24.6272  -17.2832 C   0  0  2  0  0  0  0  0  0  0  0  0
   25.3433  -24.1434  -16.4093 N   0  0  0  0  0  0  0  0  0  0  0  0
   22.9961  -24.0969  -16.8204 C   0  0  0  0  0  0  0  0  0  0  0  0
   21.8909  -23.9966  -17.6499 O   0  0  0  0  0  0  0  0  0  0  0  0
   22.9223  -23.7228  -15.5967 O   0  0  0  0  0  0  0  0  0  0  0  0
  1  2  1  0
  3  4  1  0
  3  2  1  0
  4  5  1  0
  5  7  1  0
  5  6  1  1
  7  8  2  0
  9 10  1  0
  9  7  1  0
 11 10  1  0
 11 17  1  0
 12 11  2  0
 14 13  1  1
 14 15  1  0
 14 16  1  0
 16 17  1  1
 16 18  1  0
 18 20  2  0
 18 19  1  0
M  END
$$$$
