MGV.pdb
     RDKit          3D

 20 19  0  0  1  0  0  0  0  0999 V2000
   30.1208  -19.6349   -5.3406 C   0  0  0  0  0  0  0  0  0  0  0  0
   28.3852  -20.0099   -5.0422 S   0  0  0  0  0  0  0  0  0  0  0  0
   27.3735  -19.1628   -6.2582 C   0  0  0  0  0  0  0  0  0  0  0  0
   27.3271  -19.8649   -7.5813 C   0  0  0  0  0  0  0  0  0  0  0  0
   25.8933  -20.0529   -8.0557 C   0  0  2  0  0  0  0  0  0  0  0  0
   25.2504  -20.9905   -7.1882 N   0  0  0  0  0  0  0  0  0  0  0  0
   25.9377  -20.5893   -9.4467 C   0  0  0  0  0  0  0  0  0  0  0  0
   25.9259  -21.8394   -9.6181 O   0  0  0  0  0  0  0  0  0  0  0  0
   25.9929  -19.7302  -10.5775 N   0  0  0  0  0  0  0  0  0  0  0  0
   25.9243  -20.2216  -11.9071 C   0  0  0  0  0  0  0  0  0  0  0  0
   24.8212  -19.7157  -12.7325 C   0  0  0  0  0  0  0  0  0  0  0  0
   23.9343  -19.0215  -12.1606 O   0  0  0  0  0  0  0  0  0  0  0  0
   24.6254  -17.1041  -15.0121 C   0  0  0  0  0  0  0  0  0  0  0  0
   24.0684  -18.2479  -15.8268 C   0  0  1  0  0  0  0  0  0  0  0  0
   25.1766  -18.7604  -16.7247 C   0  0  0  0  0  0  0  0  0  0  0  0
   23.5729  -19.2877  -14.8766 C   0  0  2  0  0  0  0  0  0  0  0  0
   24.6251  -19.9137  -14.1065 N   0  0  0  0  0  0  0  0  0  0  0  0
   22.8495  -20.3266  -15.6417 C   0  0  0  0  0  0  0  0  0  0  0  0
   21.5920  -20.1172  -16.1843 O   0  0  0  0  0  0  0  0  0  0  0  0
   23.4377  -21.4558  -15.7894 O   0  0  0  0  0  0  0  0  0  0  0  0
  1  2  1  0
  3  4  1  0
  3  2  1  0
  4  5  1  0
  5  7  1  0
  5  6  1  1
  7  8  2  0
  9 10  1  0
  9  7  1  0
 11 10  1  0
 11 17  1  0
 12 11  2  0
 14 13  1  1
 14 15  1  0
 14 16  1  0
 16 17  1  6
 16 18  1  0
 18 20  2  0
 18 19  1  0
M  END
$$$$
