MGV.pdb
     RDKit          3D

 20 19  0  0  1  0  0  0  0  0999 V2000
   14.8390  -22.4232  -12.1182 C   0  0  0  0  0  0  0  0  0  0  0  0
   16.0036  -21.7313  -13.3044 S   0  0  0  0  0  0  0  0  0  0  0  0
   17.4353  -21.0913  -12.4322 C   0  0  0  0  0  0  0  0  0  0  0  0
   18.4013  -20.3753  -13.3265 C   0  0  0  0  0  0  0  0  0  0  0  0
   19.5954  -21.2560  -13.6655 C   0  0  2  0  0  0  0  0  0  0  0  0
   20.3491  -21.4738  -12.4699 N   0  0  0  0  0  0  0  0  0  0  0  0
   20.4270  -20.5329  -14.6706 C   0  0  0  0  0  0  0  0  0  0  0  0
   19.8871  -20.1478  -15.7441 O   0  0  0  0  0  0  0  0  0  0  0  0
   21.8057  -20.2689  -14.4489 N   0  0  0  0  0  0  0  0  0  0  0  0
   22.6210  -19.6302  -15.4190 C   0  0  0  0  0  0  0  0  0  0  0  0
   24.0017  -19.3356  -15.0176 C   0  0  0  0  0  0  0  0  0  0  0  0
   24.1718  -18.5565  -14.0381 O   0  0  0  0  0  0  0  0  0  0  0  0
   27.5108  -21.6176  -15.7328 C   0  0  0  0  0  0  0  0  0  0  0  0
   27.2672  -20.6493  -14.5990 C   0  0  1  0  0  0  0  0  0  0  0  0
   28.6148  -20.2538  -14.0295 C   0  0  0  0  0  0  0  0  0  0  0  0
   26.5117  -19.4838  -15.1472 C   0  0  2  0  0  0  0  0  0  0  0  0
   25.1804  -19.8212  -15.6011 N   0  0  0  0  0  0  0  0  0  0  0  0
   27.2761  -18.9080  -16.2750 C   0  0  0  0  0  0  0  0  0  0  0  0
   28.4020  -18.1214  -16.0921 O   0  0  0  0  0  0  0  0  0  0  0  0
   26.8525  -19.1658  -17.4569 O   0  0  0  0  0  0  0  0  0  0  0  0
  1  2  1  0
  3  4  1  0
  3  2  1  0
  4  5  1  0
  5  7  1  0
  5  6  1  1
  7  8  2  0
  9 10  1  0
  9  7  1  0
 11 10  1  0
 11 17  1  0
 12 11  2  0
 14 13  1  6
 14 15  1  0
 14 16  1  0
 16 17  1  6
 16 18  1  0
 18 20  2  0
 18 19  1  0
M  END
$$$$
