MGV.pdb
     RDKit          3D

 20 19  0  0  1  0  0  0  0  0999 V2000
   29.0516  -21.9274   -4.4783 C   0  0  0  0  0  0  0  0  0  0  0  0
   29.4562  -20.1778   -4.3455 S   0  0  0  0  0  0  0  0  0  0  0  0
   28.6458  -19.2754   -5.6679 C   0  0  0  0  0  0  0  0  0  0  0  0
   28.0114  -20.1680   -6.6908 C   0  0  0  0  0  0  0  0  0  0  0  0
   27.4898  -19.3663   -7.8746 C   0  0  2  0  0  0  0  0  0  0  0  0
   26.6169  -18.3474   -7.3798 N   0  0  0  0  0  0  0  0  0  0  0  0
   26.7371  -20.2984   -8.7630 C   0  0  0  0  0  0  0  0  0  0  0  0
   25.5446  -20.5891   -8.4702 O   0  0  0  0  0  0  0  0  0  0  0  0
   27.3282  -20.8638   -9.9252 N   0  0  0  0  0  0  0  0  0  0  0  0
   26.5865  -21.6433  -10.8504 C   0  0  0  0  0  0  0  0  0  0  0  0
   25.4670  -20.9700  -11.5194 C   0  0  0  0  0  0  0  0  0  0  0  0
   25.4976  -19.7088  -11.5831 O   0  0  0  0  0  0  0  0  0  0  0  0
   22.4285  -20.3698  -15.0996 C   0  0  0  0  0  0  0  0  0  0  0  0
   23.4120  -21.2466  -14.3603 C   0  0  1  0  0  0  0  0  0  0  0  0
   24.7772  -21.0413  -14.9855 C   0  0  0  0  0  0  0  0  0  0  0  0
   23.3770  -20.8587  -12.9188 C   0  0  2  0  0  0  0  0  0  0  0  0
   24.3427  -21.5665  -12.1073 N   0  0  0  0  0  0  0  0  0  0  0  0
   22.0197  -21.1143  -12.3892 C   0  0  0  0  0  0  0  0  0  0  0  0
   21.1465  -20.0953  -12.0445 O   0  0  0  0  0  0  0  0  0  0  0  0
   21.6687  -22.3397  -12.2550 O   0  0  0  0  0  0  0  0  0  0  0  0
  1  2  1  0
  3  4  1  0
  3  2  1  0
  4  5  1  0
  5  7  1  0
  5  6  1  1
  7  8  2  0
  9 10  1  0
  9  7  1  0
 11 10  1  0
 11 17  1  0
 12 11  2  0
 14 13  1  6
 14 15  1  0
 14 16  1  0
 16 17  1  1
 16 18  1  0
 18 20  2  0
 18 19  1  0
M  END
$$$$
