MGV.pdb
     RDKit          3D

 20 19  0  0  1  0  0  0  0  0999 V2000
   21.5481  -26.9357  -12.9235 C   0  0  0  0  0  0  0  0  0  0  0  0
   20.2088  -26.7200  -14.1076 S   0  0  0  0  0  0  0  0  0  0  0  0
   20.0388  -24.9787  -14.5062 C   0  0  0  0  0  0  0  0  0  0  0  0
   20.3492  -24.0748  -13.3520 C   0  0  0  0  0  0  0  0  0  0  0  0
   19.0756  -23.5536  -12.7019 C   0  0  2  0  0  0  0  0  0  0  0  0
   18.7246  -22.3157  -13.3258 N   0  0  0  0  0  0  0  0  0  0  0  0
   19.3570  -23.3355  -11.2535 C   0  0  0  0  0  0  0  0  0  0  0  0
   19.7416  -22.1956  -10.8727 O   0  0  0  0  0  0  0  0  0  0  0  0
   19.2030  -24.3755  -10.2973 N   0  0  0  0  0  0  0  0  0  0  0  0
   19.4185  -24.1682   -8.9101 C   0  0  0  0  0  0  0  0  0  0  0  0
   18.2604  -24.3764   -8.0327 C   0  0  0  0  0  0  0  0  0  0  0  0
   17.1508  -23.9032   -8.4076 O   0  0  0  0  0  0  0  0  0  0  0  0
   16.1942  -26.9286   -7.6971 C   0  0  0  0  0  0  0  0  0  0  0  0
   16.5418  -26.7408   -6.2389 C   0  0  1  0  0  0  0  0  0  0  0  0
   17.5928  -27.7709   -5.8764 C   0  0  0  0  0  0  0  0  0  0  0  0
   17.0264  -25.3397   -6.0609 C   0  0  2  0  0  0  0  0  0  0  0  0
   18.2335  -25.0483   -6.8026 N   0  0  0  0  0  0  0  0  0  0  0  0
   17.2724  -25.0996   -4.6223 C   0  0  0  0  0  0  0  0  0  0  0  0
   16.2496  -24.8728   -3.7156 O   0  0  0  0  0  0  0  0  0  0  0  0
   18.4930  -25.1072   -4.2314 O   0  0  0  0  0  0  0  0  0  0  0  0
  1  2  1  0
  3  4  1  0
  3  2  1  0
  4  5  1  0
  5  7  1  0
  5  6  1  6
  7  8  2  0
  9 10  1  0
  9  7  1  0
 11 10  1  0
 11 17  1  0
 12 11  2  0
 14 13  1  6
 14 15  1  0
 14 16  1  0
 16 17  1  6
 16 18  1  0
 18 20  2  0
 18 19  1  0
M  END
$$$$
