MGV.pdb
     RDKit          3D

 20 19  0  0  1  0  0  0  0  0999 V2000
   27.6704  -18.0935   -6.9172 C   0  0  0  0  0  0  0  0  0  0  0  0
   27.7570  -19.7745   -6.2776 S   0  0  0  0  0  0  0  0  0  0  0  0
   28.0725  -20.9121   -7.6290 C   0  0  0  0  0  0  0  0  0  0  0  0
   27.3775  -20.5280   -8.8998 C   0  0  0  0  0  0  0  0  0  0  0  0
   27.6468  -21.5411  -10.0033 C   0  0  2  0  0  0  0  0  0  0  0  0
   29.0473  -21.5324  -10.2917 N   0  0  0  0  0  0  0  0  0  0  0  0
   26.8733  -21.1225  -11.2079 C   0  0  0  0  0  0  0  0  0  0  0  0
   27.3242  -20.1889  -11.9272 O   0  0  0  0  0  0  0  0  0  0  0  0
   25.6470  -21.7470  -11.5629 N   0  0  0  0  0  0  0  0  0  0  0  0
   25.0492  -21.5737  -12.8381 C   0  0  0  0  0  0  0  0  0  0  0  0
   23.8461  -20.7343  -12.8850 C   0  0  0  0  0  0  0  0  0  0  0  0
   23.4569  -20.2102  -11.8036 O   0  0  0  0  0  0  0  0  0  0  0  0
   22.5334  -17.9775  -15.4744 C   0  0  0  0  0  0  0  0  0  0  0  0
   21.4639  -19.0143  -15.2217 C   0  0  1  0  0  0  0  0  0  0  0  0
   21.4318  -19.9476  -16.4154 C   0  0  0  0  0  0  0  0  0  0  0  0
   21.8026  -19.7205  -13.9504 C   0  0  2  0  0  0  0  0  0  0  0  0
   23.0576  -20.4376  -14.0056 N   0  0  0  0  0  0  0  0  0  0  0  0
   20.7158  -20.6710  -13.6290 C   0  0  0  0  0  0  0  0  0  0  0  0
   19.5110  -20.2706  -13.0742 O   0  0  0  0  0  0  0  0  0  0  0  0
   20.9300  -21.9083  -13.8857 O   0  0  0  0  0  0  0  0  0  0  0  0
  1  2  1  0
  3  4  1  0
  3  2  1  0
  4  5  1  0
  5  7  1  0
  5  6  1  6
  7  8  2  0
  9 10  1  0
  9  7  1  0
 11 10  1  0
 11 17  1  0
 12 11  2  0
 14 13  1  6
 14 15  1  0
 14 16  1  0
 16 17  1  6
 16 18  1  0
 18 20  2  0
 18 19  1  0
M  END
$$$$
