MGV.pdb
     RDKit          3D

 20 19  0  0  1  0  0  0  0  0999 V2000
   24.1249  -17.2834  -22.2772 C   0  0  0  0  0  0  0  0  0  0  0  0
   24.3361  -15.7790  -21.3106 S   0  0  0  0  0  0  0  0  0  0  0  0
   23.7288  -16.0498  -19.6439 C   0  0  0  0  0  0  0  0  0  0  0  0
   23.9060  -14.8605  -18.7495 C   0  0  0  0  0  0  0  0  0  0  0  0
   23.3321  -15.1221  -17.3644 C   0  0  2  0  0  0  0  0  0  0  0  0
   21.9062  -15.1570  -17.4661 N   0  0  0  0  0  0  0  0  0  0  0  0
   23.7547  -14.0021  -16.4746 C   0  0  0  0  0  0  0  0  0  0  0  0
   24.9871  -13.7966  -16.2977 O   0  0  0  0  0  0  0  0  0  0  0  0
   22.8073  -13.1655  -15.8249 N   0  0  0  0  0  0  0  0  0  0  0  0
   23.1948  -12.0522  -15.0348 C   0  0  0  0  0  0  0  0  0  0  0  0
   22.7329  -10.7363  -15.4924 C   0  0  0  0  0  0  0  0  0  0  0  0
   23.1736  -10.3145  -16.5983 O   0  0  0  0  0  0  0  0  0  0  0  0
   19.5064   -7.3477  -16.3258 C   0  0  0  0  0  0  0  0  0  0  0  0
   19.9285   -8.7233  -15.8654 C   0  0  1  0  0  0  0  0  0  0  0  0
   19.7518   -9.6767  -17.0302 C   0  0  0  0  0  0  0  0  0  0  0  0
   21.3463   -8.6366  -15.4050 C   0  0  2  0  0  0  0  0  0  0  0  0
   21.8452   -9.8704  -14.8383 N   0  0  0  0  0  0  0  0  0  0  0  0
   21.4546   -7.5615  -14.3949 C   0  0  0  0  0  0  0  0  0  0  0  0
   21.6357   -7.8177  -13.0454 O   0  0  0  0  0  0  0  0  0  0  0  0
   21.3725   -6.3546  -14.8186 O   0  0  0  0  0  0  0  0  0  0  0  0
  1  2  1  0
  3  4  1  0
  3  2  1  0
  4  5  1  0
  5  7  1  0
  5  6  1  6
  7  8  2  0
  9 10  1  0
  9  7  1  0
 11 10  1  0
 11 17  1  0
 12 11  2  0
 14 13  1  6
 14 15  1  0
 14 16  1  0
 16 17  1  1
 16 18  1  0
 18 20  2  0
 18 19  1  0
M  END
$$$$
