NCG.pdb
     RDKit          3D

 19 18  0  0  1  0  0  0  0  0999 V2000
    7.7342  -16.1378   14.8268 N   0  0  0  0  0  0  0  0  0  0  0  0
    7.6951  -14.7987   15.3057 C   0  0  0  0  0  0  0  0  0  0  0  0
    7.2825  -13.9328   14.5223 O   0  0  0  0  0  0  0  0  0  0  0  0
    8.1252  -14.5165   16.6440 C   0  0  0  0  0  0  0  0  0  0  0  0
    8.6129  -15.6534   17.5015 C   0  0  2  0  0  0  0  0  0  0  0  0
    7.3439  -16.3848   17.8247 N   0  0  0  0  0  0  0  0  0  0  0  0
    9.1325  -15.2465   18.8231 C   0  0  0  0  0  0  0  0  0  0  0  0
   10.2902  -14.7633   18.8984 O   0  0  0  0  0  0  0  0  0  0  0  0
    8.4053  -15.3613   20.0301 N   0  0  0  0  0  0  0  0  0  0  0  0
    8.9784  -15.0428   21.3328 C   0  0  1  0  0  0  0  0  0  0  0  0
    7.8365  -14.6910   22.2535 C   0  0  0  0  0  0  0  0  0  0  0  0
    7.4643  -12.9178   22.2121 S   0  0  0  0  0  0  0  0  0  0  0  0
    9.7474  -16.1708   21.8722 C   0  0  0  0  0  0  0  0  0  0  0  0
    9.3308  -17.3645   21.7465 O   0  0  0  0  0  0  0  0  0  0  0  0
   10.9615  -15.9665   22.5405 N   0  0  0  0  0  0  0  0  0  0  0  0
   11.7656  -17.0982   22.9641 C   0  0  0  0  0  0  0  0  0  0  0  0
   13.0453  -16.6565   23.5424 C   0  0  0  0  0  0  0  0  0  0  0  0
   13.7410  -15.7940   22.9550 O   0  0  0  0  0  0  0  0  0  0  0  0
   13.4756  -17.2007   24.7406 O   0  0  0  0  0  0  0  0  0  0  0  0
  1  2  1  0
  2  3  2  0
  4  5  1  0
  4  2  1  0
  5  6  1  1
  7  5  1  0
  7  8  2  0
  9  7  1  0
 10  9  1  0
 10 11  1  1
 12 11  1  0
 13 10  1  0
 14 13  2  0
 15 13  1  0
 16 15  1  0
 17 19  1  0
 17 16  1  0
 18 17  2  0
M  END
$$$$
