NCG.pdb
     RDKit          3D

 19 18  0  0  1  0  0  0  0  0999 V2000
    9.1982  -14.2483   17.2033 N   0  0  0  0  0  0  0  0  0  0  0  0
    8.1195  -15.1500   17.4212 C   0  0  0  0  0  0  0  0  0  0  0  0
    8.0933  -16.1745   16.7258 O   0  0  0  0  0  0  0  0  0  0  0  0
    7.1323  -14.8404   18.4137 C   0  0  0  0  0  0  0  0  0  0  0  0
    7.2590  -13.5523   19.1823 C   0  0  2  0  0  0  0  0  0  0  0  0
    8.1933  -12.7520   18.3241 N   0  0  0  0  0  0  0  0  0  0  0  0
    7.9760  -13.6726   20.4682 C   0  0  0  0  0  0  0  0  0  0  0  0
    9.2218  -13.5081   20.4871 O   0  0  0  0  0  0  0  0  0  0  0  0
    7.3480  -13.9615   21.7016 N   0  0  0  0  0  0  0  0  0  0  0  0
    8.0901  -14.1477   22.9431 C   0  0  1  0  0  0  0  0  0  0  0  0
    7.2517  -13.5759   24.0592 C   0  0  0  0  0  0  0  0  0  0  0  0
    8.0425  -13.8014   25.6742 S   0  0  0  0  0  0  0  0  0  0  0  0
    8.3790  -15.5657   23.1893 C   0  0  0  0  0  0  0  0  0  0  0  0
    7.4751  -16.4487   23.0571 O   0  0  0  0  0  0  0  0  0  0  0  0
    9.6573  -15.9882   23.5764 N   0  0  0  0  0  0  0  0  0  0  0  0
    9.9276  -17.3961   23.8034 C   0  0  0  0  0  0  0  0  0  0  0  0
   11.3185  -17.6092   24.2360 C   0  0  0  0  0  0  0  0  0  0  0  0
   12.2709  -17.2743   23.4921 O   0  0  0  0  0  0  0  0  0  0  0  0
   11.5677  -18.1825   25.4714 O   0  0  0  0  0  0  0  0  0  0  0  0
  1  2  1  0
  2  3  2  0
  4  5  1  0
  4  2  1  0
  5  6  1  6
  7  5  1  0
  7  8  2  0
  9  7  1  0
 10  9  1  0
 10 11  1  1
 12 11  1  0
 13 10  1  0
 14 13  2  0
 15 13  1  0
 16 15  1  0
 17 19  1  0
 17 16  1  0
 18 17  2  0
M  END
$$$$
