NCG.pdb
     RDKit          3D

 19 18  0  0  1  0  0  0  0  0999 V2000
    8.0394  -15.7241   15.9807 N   0  0  0  0  0  0  0  0  0  0  0  0
    7.9488  -14.3854   16.4537 C   0  0  0  0  0  0  0  0  0  0  0  0
    7.6605  -13.5133   15.6229 O   0  0  0  0  0  0  0  0  0  0  0  0
    8.1895  -14.1106   17.8401 C   0  0  0  0  0  0  0  0  0  0  0  0
    8.5266  -15.2563   18.7563 C   0  0  2  0  0  0  0  0  0  0  0  0
    7.2016  -15.9388   18.9250 N   0  0  0  0  0  0  0  0  0  0  0  0
    8.8953  -14.8562   20.1297 C   0  0  0  0  0  0  0  0  0  0  0  0
    9.9744  -14.2388   20.3138 O   0  0  0  0  0  0  0  0  0  0  0  0
    8.1044  -15.1206   21.2714 N   0  0  0  0  0  0  0  0  0  0  0  0
    8.5876  -14.9201   22.6327 C   0  0  1  0  0  0  0  0  0  0  0  0
    7.5292  -14.1446   23.3768 C   0  0  0  0  0  0  0  0  0  0  0  0
    7.8893  -14.0518   25.1505 S   0  0  0  0  0  0  0  0  0  0  0  0
    8.8562  -16.1989   23.3017 C   0  0  0  0  0  0  0  0  0  0  0  0
    7.9387  -17.0660   23.4450 O   0  0  0  0  0  0  0  0  0  0  0  0
   10.1293  -16.5019   23.8013 N   0  0  0  0  0  0  0  0  0  0  0  0
   10.3857  -17.7865   24.4264 C   0  0  0  0  0  0  0  0  0  0  0  0
   10.8798  -17.6205   25.8032 C   0  0  0  0  0  0  0  0  0  0  0  0
   10.5182  -16.6362   26.4909 O   0  0  0  0  0  0  0  0  0  0  0  0
   11.7475  -18.5600   26.3337 O   0  0  0  0  0  0  0  0  0  0  0  0
  1  2  1  0
  2  3  2  0
  4  5  1  0
  4  2  1  0
  5  6  1  1
  7  5  1  0
  7  8  2  0
  9  7  1  0
 10  9  1  0
 10 11  1  1
 12 11  1  0
 13 10  1  0
 14 13  2  0
 15 13  1  0
 16 15  1  0
 17 19  1  0
 17 16  1  0
 18 17  2  0
M  END
$$$$
