NCG.pdb
     RDKit          3D

 19 18  0  0  1  0  0  0  0  0999 V2000
   10.4567  -19.5784   16.2984 N   0  0  0  0  0  0  0  0  0  0  0  0
    9.7005  -18.3876   16.4839 C   0  0  0  0  0  0  0  0  0  0  0  0
    8.8111  -18.1510   15.6552 O   0  0  0  0  0  0  0  0  0  0  0  0
    9.9945  -17.5329   17.5968 C   0  0  0  0  0  0  0  0  0  0  0  0
    9.0308  -17.4934   18.7524 C   0  0  2  0  0  0  0  0  0  0  0  0
    7.7665  -17.0110   18.1054 N   0  0  0  0  0  0  0  0  0  0  0  0
    9.3272  -16.4585   19.7639 C   0  0  0  0  0  0  0  0  0  0  0  0
   10.5174  -16.0875   19.9231 O   0  0  0  0  0  0  0  0  0  0  0  0
    8.3487  -15.8425   20.5776 N   0  0  0  0  0  0  0  0  0  0  0  0
    8.6786  -15.1080   21.7936 C   0  0  1  0  0  0  0  0  0  0  0  0
    7.4727  -14.2795   22.1606 C   0  0  0  0  0  0  0  0  0  0  0  0
    7.6859  -13.4590   23.7624 S   0  0  0  0  0  0  0  0  0  0  0  0
    9.0338  -16.0163   22.8907 C   0  0  0  0  0  0  0  0  0  0  0  0
    8.1778  -16.8200   23.3760 O   0  0  0  0  0  0  0  0  0  0  0  0
   10.3245  -16.0251   23.4351 N   0  0  0  0  0  0  0  0  0  0  0  0
   10.6667  -16.9528   24.4976 C   0  0  0  0  0  0  0  0  0  0  0  0
   12.0955  -16.8665   24.8414 C   0  0  0  0  0  0  0  0  0  0  0  0
   12.5621  -17.5505   25.7833 O   0  0  0  0  0  0  0  0  0  0  0  0
   12.9211  -16.0239   24.1166 O   0  0  0  0  0  0  0  0  0  0  0  0
  1  2  1  0
  2  3  2  0
  4  5  1  0
  4  2  1  0
  5  6  1  6
  7  5  1  0
  7  8  2  0
  9  7  1  0
 10  9  1  0
 10 11  1  1
 12 11  1  0
 13 10  1  0
 14 13  2  0
 15 13  1  0
 16 15  1  0
 17 19  1  0
 17 16  1  0
 18 17  2  0
M  END
$$$$
