NCG.pdb
     RDKit          3D

 19 18  0  0  1  0  0  0  0  0999 V2000
    7.4713  -13.4384   15.7227 N   0  0  0  0  0  0  0  0  0  0  0  0
    7.9031  -14.5101   16.5527 C   0  0  0  0  0  0  0  0  0  0  0  0
    7.8091  -15.6545   16.0885 O   0  0  0  0  0  0  0  0  0  0  0  0
    8.4167  -14.2252   17.8606 C   0  0  0  0  0  0  0  0  0  0  0  0
    8.9002  -15.3682   18.7123 C   0  0  2  0  0  0  0  0  0  0  0  0
    7.6342  -16.1211   18.9955 N   0  0  0  0  0  0  0  0  0  0  0  0
    9.3840  -14.9743   20.0514 C   0  0  0  0  0  0  0  0  0  0  0  0
   10.4837  -14.3737   20.1478 O   0  0  0  0  0  0  0  0  0  0  0  0
    8.6832  -15.2268   21.2531 N   0  0  0  0  0  0  0  0  0  0  0  0
    9.2549  -14.9746   22.5707 C   0  0  1  0  0  0  0  0  0  0  0  0
    8.1073  -14.7854   23.5312 C   0  0  0  0  0  0  0  0  0  0  0  0
    8.6818  -14.6609   25.2455 S   0  0  0  0  0  0  0  0  0  0  0  0
   10.1138  -16.0830   23.0052 C   0  0  0  0  0  0  0  0  0  0  0  0
    9.6365  -17.2464   23.1866 O   0  0  0  0  0  0  0  0  0  0  0  0
   11.4829  -15.8927   23.2324 N   0  0  0  0  0  0  0  0  0  0  0  0
   12.3144  -16.9977   23.6732 C   0  0  0  0  0  0  0  0  0  0  0  0
   13.7142  -16.5762   23.8458 C   0  0  0  0  0  0  0  0  0  0  0  0
   14.5834  -17.4026   24.2123 O   0  0  0  0  0  0  0  0  0  0  0  0
   14.0646  -15.2593   23.6003 O   0  0  0  0  0  0  0  0  0  0  0  0
  1  2  1  0
  2  3  2  0
  4  5  1  0
  4  2  1  0
  5  6  1  1
  7  5  1  0
  7  8  2  0
  9  7  1  0
 10  9  1  0
 10 11  1  1
 12 11  1  0
 13 10  1  0
 14 13  2  0
 15 13  1  0
 16 15  1  0
 17 19  1  0
 17 16  1  0
 18 17  2  0
M  END
$$$$
