NCG.pdb
     RDKit          3D

 19 18  0  0  1  0  0  0  0  0999 V2000
    7.4286  -17.9060   17.8776 N   0  0  0  0  0  0  0  0  0  0  0  0
    8.5322  -18.6119   18.4323 C   0  0  0  0  0  0  0  0  0  0  0  0
    8.7878  -19.7243   17.9515 O   0  0  0  0  0  0  0  0  0  0  0  0
    9.2834  -18.0182   19.4995 C   0  0  0  0  0  0  0  0  0  0  0  0
    8.8159  -16.7060   20.0698 C   0  0  2  0  0  0  0  0  0  0  0  0
    9.5409  -15.7051   19.2199 N   0  0  0  0  0  0  0  0  0  0  0  0
    9.2987  -16.4241   21.4372 C   0  0  0  0  0  0  0  0  0  0  0  0
   10.5315  -16.4904   21.6721 O   0  0  0  0  0  0  0  0  0  0  0  0
    8.4572  -16.0755   22.5185 N   0  0  0  0  0  0  0  0  0  0  0  0
    8.9615  -15.8146   23.8618 C   0  0  1  0  0  0  0  0  0  0  0  0
    7.9374  -14.9632   24.5701 C   0  0  0  0  0  0  0  0  0  0  0  0
    7.6851  -13.3787   23.7275 S   0  0  0  0  0  0  0  0  0  0  0  0
    9.1951  -17.0618   24.6000 C   0  0  0  0  0  0  0  0  0  0  0  0
    8.2483  -17.8820   24.8121 O   0  0  0  0  0  0  0  0  0  0  0  0
   10.4662  -17.3854   25.0919 N   0  0  0  0  0  0  0  0  0  0  0  0
   10.6979  -18.6614   25.7437 C   0  0  0  0  0  0  0  0  0  0  0  0
   11.3775  -18.4838   27.0375 C   0  0  0  0  0  0  0  0  0  0  0  0
   10.7349  -18.0944   28.0416 O   0  0  0  0  0  0  0  0  0  0  0  0
   12.7325  -18.7501   27.1377 O   0  0  0  0  0  0  0  0  0  0  0  0
  1  2  1  0
  2  3  2  0
  4  5  1  0
  4  2  1  0
  5  6  1  6
  7  5  1  0
  7  8  2  0
  9  7  1  0
 10  9  1  0
 10 11  1  1
 12 11  1  0
 13 10  1  0
 14 13  2  0
 15 13  1  0
 16 15  1  0
 17 19  1  0
 17 16  1  0
 18 17  2  0
M  END
$$$$
