NCG.pdb
     RDKit          3D

 19 18  0  0  1  0  0  0  0  0999 V2000
   -1.4186  -27.8878   27.9302 N   0  0  0  0  0  0  0  0  0  0  0  0
   -0.6654  -26.8680   28.5757 C   0  0  0  0  0  0  0  0  0  0  0  0
    0.4840  -27.1585   28.9339 O   0  0  0  0  0  0  0  0  0  0  0  0
   -1.2564  -25.5776   28.7787 C   0  0  0  0  0  0  0  0  0  0  0  0
   -2.6847  -25.3619   28.3554 C   0  0  2  0  0  0  0  0  0  0  0  0
   -2.5708  -25.2664   26.8629 N   0  0  0  0  0  0  0  0  0  0  0  0
   -3.2517  -24.0564   28.7507 C   0  0  0  0  0  0  0  0  0  0  0  0
   -3.3221  -23.7691   29.9721 O   0  0  0  0  0  0  0  0  0  0  0  0
   -3.7261  -23.0887   27.8355 N   0  0  0  0  0  0  0  0  0  0  0  0
   -4.4142  -21.8731   28.2547 C   0  0  1  0  0  0  0  0  0  0  0  0
   -4.1332  -20.8155   27.2165 C   0  0  0  0  0  0  0  0  0  0  0  0
   -2.4282  -20.2100   27.3213 S   0  0  0  0  0  0  0  0  0  0  0  0
   -5.8594  -22.0926   28.3895 C   0  0  0  0  0  0  0  0  0  0  0  0
   -6.4832  -22.8480   27.5805 O   0  0  0  0  0  0  0  0  0  0  0  0
   -6.5934  -21.4778   29.4119 N   0  0  0  0  0  0  0  0  0  0  0  0
   -7.9950  -21.8014   29.6059 C   0  0  0  0  0  0  0  0  0  0  0  0
   -8.1721  -22.7716   30.6988 C   0  0  0  0  0  0  0  0  0  0  0  0
   -7.1782  -23.3521   31.1968 O   0  0  0  0  0  0  0  0  0  0  0  0
   -9.4451  -23.0387   31.1733 O   0  0  0  0  0  0  0  0  0  0  0  0
  1  2  1  0
  2  3  2  0
  4  5  1  0
  4  2  1  0
  5  6  1  6
  7  5  1  0
  7  8  2  0
  9  7  1  0
 10  9  1  0
 10 11  1  6
 12 11  1  0
 13 10  1  0
 14 13  2  0
 15 13  1  0
 16 15  1  0
 17 19  1  0
 17 16  1  0
 18 17  2  0
M  END
$$$$
