NCG.pdb
     RDKit          3D

 19 18  0  0  1  0  0  0  0  0999 V2000
    4.6806  -20.6882   20.9982 N   0  0  0  0  0  0  0  0  0  0  0  0
    5.5210  -20.5329   19.8608 C   0  0  0  0  0  0  0  0  0  0  0  0
    5.2985  -21.2714   18.8917 O   0  0  0  0  0  0  0  0  0  0  0  0
    6.5651  -19.5507   19.8854 C   0  0  0  0  0  0  0  0  0  0  0  0
    6.4113  -18.3109   19.0460 C   0  0  2  0  0  0  0  0  0  0  0  0
    6.8545  -18.7781   17.6913 N   0  0  0  0  0  0  0  0  0  0  0  0
    7.3593  -17.2263   19.3732 C   0  0  0  0  0  0  0  0  0  0  0  0
    8.5572  -17.3359   19.0095 O   0  0  0  0  0  0  0  0  0  0  0  0
    7.0070  -16.0513   20.0763 N   0  0  0  0  0  0  0  0  0  0  0  0
    7.9728  -15.0128   20.4164 C   0  0  1  0  0  0  0  0  0  0  0  0
    7.2490  -13.6904   20.3659 C   0  0  0  0  0  0  0  0  0  0  0  0
    8.2841  -12.3361   20.9815 S   0  0  0  0  0  0  0  0  0  0  0  0
    8.5529  -15.2330   21.7468 C   0  0  0  0  0  0  0  0  0  0  0  0
    7.8120  -15.4738   22.7504 O   0  0  0  0  0  0  0  0  0  0  0  0
    9.9380  -15.1847   21.9504 N   0  0  0  0  0  0  0  0  0  0  0  0
   10.4860  -15.2666   23.2919 C   0  0  0  0  0  0  0  0  0  0  0  0
   11.8866  -15.7194   23.2692 C   0  0  0  0  0  0  0  0  0  0  0  0
   12.4867  -15.8657   22.1778 O   0  0  0  0  0  0  0  0  0  0  0  0
   12.5371  -15.9828   24.4627 O   0  0  0  0  0  0  0  0  0  0  0  0
  1  2  1  0
  2  3  2  0
  4  5  1  0
  4  2  1  0
  5  6  1  6
  7  5  1  0
  7  8  2  0
  9  7  1  0
 10  9  1  0
 10 11  1  1
 12 11  1  0
 13 10  1  0
 14 13  2  0
 15 13  1  0
 16 15  1  0
 17 19  1  0
 17 16  1  0
 18 17  2  0
M  END
$$$$
