NCG.pdb
     RDKit          3D

 19 18  0  0  1  0  0  0  0  0999 V2000
    6.6619  -16.3874   15.5656 N   0  0  0  0  0  0  0  0  0  0  0  0
    8.0494  -16.3611   15.8788 C   0  0  0  0  0  0  0  0  0  0  0  0
    8.7398  -17.2978   15.4546 O   0  0  0  0  0  0  0  0  0  0  0  0
    8.5761  -15.2761   16.6539 C   0  0  0  0  0  0  0  0  0  0  0  0
    7.6750  -14.5935   17.6478 C   0  0  2  0  0  0  0  0  0  0  0  0
    7.5256  -13.2207   17.0623 N   0  0  0  0  0  0  0  0  0  0  0  0
    8.2908  -14.3494   18.9682 C   0  0  0  0  0  0  0  0  0  0  0  0
    9.3297  -13.6453   19.0334 O   0  0  0  0  0  0  0  0  0  0  0  0
    7.7829  -14.8582   20.1857 N   0  0  0  0  0  0  0  0  0  0  0  0
    8.4405  -14.6425   21.4693 C   0  0  1  0  0  0  0  0  0  0  0  0
    7.3603  -14.3991   22.4937 C   0  0  0  0  0  0  0  0  0  0  0  0
    8.0440  -14.2467   24.1651 S   0  0  0  0  0  0  0  0  0  0  0  0
    9.2641  -15.7958   21.8521 C   0  0  0  0  0  0  0  0  0  0  0  0
    8.8496  -16.9830   21.6704 O   0  0  0  0  0  0  0  0  0  0  0  0
   10.5295  -15.6234   22.4277 N   0  0  0  0  0  0  0  0  0  0  0  0
   11.3263  -16.7757   22.8073 C   0  0  0  0  0  0  0  0  0  0  0  0
   12.5545  -16.3672   23.5087 C   0  0  0  0  0  0  0  0  0  0  0  0
   13.4968  -15.8338   22.8761 O   0  0  0  0  0  0  0  0  0  0  0  0
   12.6616  -16.5764   24.8732 O   0  0  0  0  0  0  0  0  0  0  0  0
  1  2  1  0
  2  3  2  0
  4  5  1  0
  4  2  1  0
  5  6  1  6
  7  5  1  0
  7  8  2  0
  9  7  1  0
 10  9  1  0
 10 11  1  1
 12 11  1  0
 13 10  1  0
 14 13  2  0
 15 13  1  0
 16 15  1  0
 17 19  1  0
 17 16  1  0
 18 17  2  0
M  END
$$$$
