NCG.pdb
     RDKit          3D

 19 18  0  0  1  0  0  0  0  0999 V2000
   11.9075  -16.9594   13.3411 N   0  0  0  0  0  0  0  0  0  0  0  0
   10.8961  -16.7992   14.3288 C   0  0  0  0  0  0  0  0  0  0  0  0
   10.6013  -17.7979   14.9994 O   0  0  0  0  0  0  0  0  0  0  0  0
   10.2766  -15.5178   14.5010 C   0  0  0  0  0  0  0  0  0  0  0  0
    9.1722  -15.3790   15.5142 C   0  0  2  0  0  0  0  0  0  0  0  0
    8.0836  -14.7195   14.7206 N   0  0  0  0  0  0  0  0  0  0  0  0
    9.4515  -14.4160   16.5990 C   0  0  0  0  0  0  0  0  0  0  0  0
   10.1347  -13.3928   16.3423 O   0  0  0  0  0  0  0  0  0  0  0  0
    8.9938  -14.5651   17.9283 N   0  0  0  0  0  0  0  0  0  0  0  0
    9.3315  -13.6260   18.9918 C   0  0  1  0  0  0  0  0  0  0  0  0
    8.0482  -12.9717   19.4393 C   0  0  0  0  0  0  0  0  0  0  0  0
    6.8314  -14.1941   19.9957 S   0  0  0  0  0  0  0  0  0  0  0  0
    9.9860  -14.3022   20.1184 C   0  0  0  0  0  0  0  0  0  0  0  0
    9.3015  -14.8566   21.0340 O   0  0  0  0  0  0  0  0  0  0  0  0
   11.3822  -14.3572   20.2183 N   0  0  0  0  0  0  0  0  0  0  0  0
   12.0117  -15.0299   21.3399 C   0  0  0  0  0  0  0  0  0  0  0  0
   13.4794  -14.9718   21.2411 C   0  0  0  0  0  0  0  0  0  0  0  0
   14.1946  -15.4785   22.1381 O   0  0  0  0  0  0  0  0  0  0  0  0
   14.0650  -14.3530   20.1496 O   0  0  0  0  0  0  0  0  0  0  0  0
  1  2  1  0
  2  3  2  0
  4  5  1  0
  4  2  1  0
  5  6  1  6
  7  5  1  0
  7  8  2  0
  9  7  1  0
 10  9  1  0
 10 11  1  1
 12 11  1  0
 13 10  1  0
 14 13  2  0
 15 13  1  0
 16 15  1  0
 17 19  1  0
 17 16  1  0
 18 17  2  0
M  END
$$$$
