NCG.pdb
     RDKit          3D

 19 18  0  0  1  0  0  0  0  0999 V2000
    8.3224  -15.1481   15.4392 N   0  0  0  0  0  0  0  0  0  0  0  0
    9.3870  -15.8131   14.7695 C   0  0  0  0  0  0  0  0  0  0  0  0
    9.5605  -15.5361   13.5748 O   0  0  0  0  0  0  0  0  0  0  0  0
   10.1943  -16.7534   15.4903 C   0  0  0  0  0  0  0  0  0  0  0  0
    9.8696  -17.0275   16.9343 C   0  0  2  0  0  0  0  0  0  0  0  0
    8.3754  -17.1570   16.9129 N   0  0  0  0  0  0  0  0  0  0  0  0
   10.1127  -15.8900   17.8449 C   0  0  0  0  0  0  0  0  0  0  0  0
   11.2847  -15.4554   17.9750 O   0  0  0  0  0  0  0  0  0  0  0  0
    9.1015  -15.2422   18.5911 N   0  0  0  0  0  0  0  0  0  0  0  0
    9.3915  -14.3113   19.6756 C   0  0  1  0  0  0  0  0  0  0  0  0
    8.1577  -13.4701   19.8893 C   0  0  0  0  0  0  0  0  0  0  0  0
    7.7524  -12.4899   18.4198 S   0  0  0  0  0  0  0  0  0  0  0  0
    9.7533  -15.0192   20.9096 C   0  0  0  0  0  0  0  0  0  0  0  0
    8.8615  -15.5448   21.6462 O   0  0  0  0  0  0  0  0  0  0  0  0
   11.0899  -15.1370   21.3121 N   0  0  0  0  0  0  0  0  0  0  0  0
   11.4356  -15.9062   22.4934 C   0  0  0  0  0  0  0  0  0  0  0  0
   12.8848  -15.8679   22.7496 C   0  0  0  0  0  0  0  0  0  0  0  0
   13.3576  -16.3865   23.7889 O   0  0  0  0  0  0  0  0  0  0  0  0
   13.7227  -15.2545   21.8338 O   0  0  0  0  0  0  0  0  0  0  0  0
  1  2  1  0
  2  3  2  0
  4  5  1  0
  4  2  1  0
  5  6  1  6
  7  5  1  0
  7  8  2  0
  9  7  1  0
 10  9  1  0
 10 11  1  1
 12 11  1  0
 13 10  1  0
 14 13  2  0
 15 13  1  0
 16 15  1  0
 17 19  1  0
 17 16  1  0
 18 17  2  0
M  END
$$$$
