NCG.pdb
     RDKit          3D

 19 18  0  0  1  0  0  0  0  0999 V2000
   12.3779  -20.2206   31.1896 N   0  0  0  0  0  0  0  0  0  0  0  0
   11.2204  -19.8874   30.4324 C   0  0  0  0  0  0  0  0  0  0  0  0
   10.1409  -20.3549   30.8196 O   0  0  0  0  0  0  0  0  0  0  0  0
   11.3512  -19.0442   29.2803 C   0  0  0  0  0  0  0  0  0  0  0  0
   10.1221  -18.7320   28.4695 C   0  0  2  0  0  0  0  0  0  0  0  0
    9.9061  -20.0033   27.7033 N   0  0  0  0  0  0  0  0  0  0  0  0
   10.3227  -17.7150   27.4171 C   0  0  0  0  0  0  0  0  0  0  0  0
   10.1648  -18.0453   26.2148 O   0  0  0  0  0  0  0  0  0  0  0  0
   10.6829  -16.3717   27.6715 N   0  0  0  0  0  0  0  0  0  0  0  0
   11.0155  -15.4270   26.6115 C   0  0  1  0  0  0  0  0  0  0  0  0
   10.9835  -14.0444   27.2138 C   0  0  0  0  0  0  0  0  0  0  0  0
    9.3622  -13.6619   27.9276 S   0  0  0  0  0  0  0  0  0  0  0  0
   12.3361  -15.7084   26.0354 C   0  0  0  0  0  0  0  0  0  0  0  0
   13.2159  -16.3417   26.6981 O   0  0  0  0  0  0  0  0  0  0  0  0
   12.6661  -15.2886   24.7404 N   0  0  0  0  0  0  0  0  0  0  0  0
   13.4300  -16.1542   23.8606 C   0  0  0  0  0  0  0  0  0  0  0  0
   14.8411  -16.2237   24.2745 C   0  0  0  0  0  0  0  0  0  0  0  0
   15.6453  -15.3233   23.9349 O   0  0  0  0  0  0  0  0  0  0  0  0
   15.2743  -17.2915   25.0422 O   0  0  0  0  0  0  0  0  0  0  0  0
  1  2  1  0
  2  3  2  0
  4  5  1  0
  4  2  1  0
  5  6  1  6
  7  5  1  0
  7  8  2  0
  9  7  1  0
 10  9  1  0
 10 11  1  1
 12 11  1  0
 13 10  1  0
 14 13  2  0
 15 13  1  0
 16 15  1  0
 17 19  1  0
 17 16  1  0
 18 17  2  0
M  END
$$$$
