NCG.pdb
     RDKit          3D

 19 18  0  0  1  0  0  0  0  0999 V2000
    7.1322  -16.3890   18.3945 N   0  0  0  0  0  0  0  0  0  0  0  0
    7.8734  -15.1750   18.4244 C   0  0  0  0  0  0  0  0  0  0  0  0
    8.1387  -14.6507   17.3342 O   0  0  0  0  0  0  0  0  0  0  0  0
    8.2715  -14.6240   19.6867 C   0  0  0  0  0  0  0  0  0  0  0  0
    7.9068  -15.3637   20.9458 C   0  0  2  0  0  0  0  0  0  0  0  0
    6.4356  -15.0970   21.0653 N   0  0  0  0  0  0  0  0  0  0  0  0
    8.4720  -14.7865   22.1826 C   0  0  0  0  0  0  0  0  0  0  0  0
    9.7064  -14.5568   22.2371 O   0  0  0  0  0  0  0  0  0  0  0  0
    7.7083  -14.4656   23.3283 N   0  0  0  0  0  0  0  0  0  0  0  0
    8.2882  -14.3613   24.6624 C   0  0  1  0  0  0  0  0  0  0  0  0
    7.5513  -13.2642   25.3894 C   0  0  0  0  0  0  0  0  0  0  0  0
    5.8105  -13.6905   25.6585 S   0  0  0  0  0  0  0  0  0  0  0  0
    8.1812  -15.6285   25.3957 C   0  0  0  0  0  0  0  0  0  0  0  0
    7.0823  -16.2644   25.4434 O   0  0  0  0  0  0  0  0  0  0  0  0
    9.2848  -16.1745   26.0637 N   0  0  0  0  0  0  0  0  0  0  0  0
    9.1534  -17.4147   26.8061 C   0  0  0  0  0  0  0  0  0  0  0  0
   10.4161  -17.7739   27.4723 C   0  0  0  0  0  0  0  0  0  0  0  0
   11.4462  -17.0819   27.2911 O   0  0  0  0  0  0  0  0  0  0  0  0
   10.4581  -18.8822   28.3011 O   0  0  0  0  0  0  0  0  0  0  0  0
  1  2  1  0
  2  3  2  0
  4  5  1  0
  4  2  1  0
  5  6  1  1
  7  5  1  0
  7  8  2  0
  9  7  1  0
 10  9  1  0
 10 11  1  1
 12 11  1  0
 13 10  1  0
 14 13  2  0
 15 13  1  0
 16 15  1  0
 17 19  1  0
 17 16  1  0
 18 17  2  0
M  END
$$$$
