CHL.pdb
     RDKit          3D

 25 25  0  0  1  0  0  0  0  0999 V2000
   28.3911  -22.4806  -17.6646 N   0  0  0  0  0  0  0  0  0  0  0  0
   28.3459  -21.2751  -16.8637 C   0  0  1  0  0  0  0  0  0  0  0  0
   27.9625  -20.1134  -17.7540 C   0  0  0  0  0  0  0  0  0  0  0  0
   26.2443  -20.2518  -18.3231 S   0  0  0  0  0  0  0  0  0  0  0  0
   27.3650  -21.4207  -15.7449 C   0  0  0  0  0  0  0  0  0  0  0  0
   26.5116  -22.3621  -15.8528 O   0  0  0  0  0  0  0  0  0  0  0  0
   27.3805  -20.5598  -14.6231 N   0  0  0  0  0  0  0  0  0  0  0  0
   26.4214  -20.7041  -13.5836 C   0  0  1  0  0  0  0  0  0  0  0  0
   27.0060  -20.1109  -12.3147 C   0  0  0  0  0  0  0  0  0  0  0  0
   26.1362  -20.2999  -11.1335 C   0  0  0  0  0  0  0  0  0  0  0  0
   24.8760  -20.8901  -11.1744 C   0  0  0  0  0  0  0  0  0  0  0  0
   24.4017  -20.8819   -9.9149 N   0  0  0  0  0  0  0  0  0  0  0  0
   25.3283  -20.3077   -9.1078 C   0  0  0  0  0  0  0  0  0  0  0  0
   26.3741  -19.9593   -9.8570 N   0  0  0  0  0  0  0  0  0  0  0  0
   25.1030  -20.1236  -13.9108 C   0  0  0  0  0  0  0  0  0  0  0  0
   25.0803  -19.0131  -14.4897 O   0  0  0  0  0  0  0  0  0  0  0  0
   21.8278  -21.7852  -17.5280 C   0  0  0  0  0  0  0  0  0  0  0  0
   22.3856  -20.8000  -16.5556 C   0  0  1  0  0  0  0  0  0  0  0  0
   21.8967  -19.4223  -17.0325 C   0  0  0  0  0  0  0  0  0  0  0  0
   22.0821  -21.0418  -15.1496 C   0  0  0  0  0  0  0  0  0  0  0  0
   22.5704  -20.1572  -14.0713 C   0  0  2  0  0  0  0  0  0  0  0  0
   23.8737  -20.7439  -13.6109 N   0  0  0  0  0  0  0  0  0  0  0  0
   21.7319  -20.1134  -12.8840 C   0  0  0  0  0  0  0  0  0  0  0  0
   21.8820  -21.0220  -11.9959 O   0  0  0  0  0  0  0  0  0  0  0  0
   20.7600  -19.1607  -12.5902 O   0  0  0  0  0  0  0  0  0  0  0  0
  2  1  1  6
  2  5  1  0
  3  2  1  0
  4  3  1  0
  5  7  1  0
  6  5  2  0
  7  8  1  0
  8  9  1  1
  9 10  1  0
 10 11  2  0
 12 11  1  0
 13 12  1  0
 14 10  1  0
 14 13  2  0
 15 22  1  0
 15  8  1  0
 16 15  2  0
 18 19  1  6
 18 17  1  0
 20 18  1  0
 21 20  1  6
 21 22  1  0
 23 21  1  0
 24 23  2  0
 25 23  1  0
M  END
$$$$
