CHL.pdb
     RDKit          3D

 25 25  0  0  1  0  0  0  0  0999 V2000
   27.6819  -19.0381  -15.2610 N   0  0  0  0  0  0  0  0  0  0  0  0
   27.9930  -20.0188  -14.2420 C   0  0  1  0  0  0  0  0  0  0  0  0
   29.4457  -19.8665  -13.8474 C   0  0  0  0  0  0  0  0  0  0  0  0
   29.8967  -21.0176  -12.5181 S   0  0  0  0  0  0  0  0  0  0  0  0
   27.1075  -19.8416  -13.0506 C   0  0  0  0  0  0  0  0  0  0  0  0
   27.0430  -18.6676  -12.5567 O   0  0  0  0  0  0  0  0  0  0  0  0
   26.3776  -20.9192  -12.4975 N   0  0  0  0  0  0  0  0  0  0  0  0
   25.5493  -20.7264  -11.3581 C   0  0  1  0  0  0  0  0  0  0  0  0
   24.2937  -21.5596  -11.5395 C   0  0  0  0  0  0  0  0  0  0  0  0
   23.3054  -20.9282  -12.4405 C   0  0  0  0  0  0  0  0  0  0  0  0
   23.4783  -19.6872  -13.0472 C   0  0  0  0  0  0  0  0  0  0  0  0
   22.3757  -19.4575  -13.7840 N   0  0  0  0  0  0  0  0  0  0  0  0
   21.5368  -20.5146  -13.6478 C   0  0  0  0  0  0  0  0  0  0  0  0
   22.1106  -21.3987  -12.8321 N   0  0  0  0  0  0  0  0  0  0  0  0
   26.2274  -21.0167  -10.0782 C   0  0  0  0  0  0  0  0  0  0  0  0
   26.9474  -22.0397  -10.0167 O   0  0  0  0  0  0  0  0  0  0  0  0
   27.5601  -18.9710   -4.7746 C   0  0  0  0  0  0  0  0  0  0  0  0
   28.3297  -19.2200   -6.0287 C   0  0  1  0  0  0  0  0  0  0  0  0
   29.1540  -20.4911   -5.7655 C   0  0  0  0  0  0  0  0  0  0  0  0
   27.5471  -19.3089   -7.2564 C   0  0  0  0  0  0  0  0  0  0  0  0
   26.8518  -20.5476   -7.6635 C   0  0  2  0  0  0  0  0  0  0  0  0
   26.1119  -20.2129   -8.9265 N   0  0  0  0  0  0  0  0  0  0  0  0
   25.8325  -21.0141   -6.7372 C   0  0  0  0  0  0  0  0  0  0  0  0
   24.6561  -20.5184   -6.8225 O   0  0  0  0  0  0  0  0  0  0  0  0
   25.9935  -21.9750   -5.7426 O   0  0  0  0  0  0  0  0  0  0  0  0
  2  1  1  6
  2  5  1  0
  3  2  1  0
  4  3  1  0
  5  7  1  0
  6  5  2  0
  7  8  1  0
  8  9  1  6
  9 10  1  0
 10 11  2  0
 12 11  1  0
 13 12  1  0
 14 10  1  0
 14 13  2  0
 15 22  1  0
 15  8  1  0
 16 15  2  0
 18 19  1  1
 18 17  1  0
 20 18  1  0
 21 20  1  1
 21 22  1  0
 23 21  1  0
 24 23  2  0
 25 23  1  0
M  END
$$$$
