CHL.pdb
     RDKit          3D

 25 25  0  0  1  0  0  0  0  0999 V2000
   27.5713  -16.3805  -17.0753 N   0  0  0  0  0  0  0  0  0  0  0  0
   26.6791  -16.5057  -15.9417 C   0  0  1  0  0  0  0  0  0  0  0  0
   25.8457  -15.2473  -15.8370 C   0  0  0  0  0  0  0  0  0  0  0  0
   26.7321  -13.9359  -14.9482 S   0  0  0  0  0  0  0  0  0  0  0  0
   25.7979  -17.7039  -16.0929 C   0  0  0  0  0  0  0  0  0  0  0  0
   25.4119  -17.9831  -17.2759 O   0  0  0  0  0  0  0  0  0  0  0  0
   25.4106  -18.4894  -14.9825 N   0  0  0  0  0  0  0  0  0  0  0  0
   24.6032  -19.6464  -15.1577 C   0  0  1  0  0  0  0  0  0  0  0  0
   25.3041  -20.8174  -14.4936 C   0  0  0  0  0  0  0  0  0  0  0  0
   26.4603  -21.3156  -15.2698 C   0  0  0  0  0  0  0  0  0  0  0  0
   27.7906  -21.0895  -14.9270 C   0  0  0  0  0  0  0  0  0  0  0  0
   28.5421  -21.6940  -15.8656 N   0  0  0  0  0  0  0  0  0  0  0  0
   27.7170  -22.2805  -16.7684 C   0  0  0  0  0  0  0  0  0  0  0  0
   26.4590  -22.0446  -16.3970 N   0  0  0  0  0  0  0  0  0  0  0  0
   23.2185  -19.4804  -14.6707 C   0  0  0  0  0  0  0  0  0  0  0  0
   23.0559  -19.0702  -13.4985 O   0  0  0  0  0  0  0  0  0  0  0  0
   19.0341  -17.6804  -17.9255 C   0  0  0  0  0  0  0  0  0  0  0  0
   19.9225  -17.8649  -16.7406 C   0  0  1  0  0  0  0  0  0  0  0  0
   19.5856  -16.7091  -15.7841 C   0  0  0  0  0  0  0  0  0  0  0  0
   19.8579  -19.1662  -16.0850 C   0  0  0  0  0  0  0  0  0  0  0  0
   20.6923  -19.5040  -14.9130 C   0  0  2  0  0  0  0  0  0  0  0  0
   22.0737  -19.7556  -15.4452 N   0  0  0  0  0  0  0  0  0  0  0  0
   20.3201  -20.7299  -14.2252 C   0  0  0  0  0  0  0  0  0  0  0  0
   20.7739  -21.8411  -14.6679 O   0  0  0  0  0  0  0  0  0  0  0  0
   19.5077  -20.8348  -13.0993 O   0  0  0  0  0  0  0  0  0  0  0  0
  2  1  1  6
  2  5  1  0
  3  2  1  0
  4  3  1  0
  5  7  1  0
  6  5  2  0
  7  8  1  0
  8  9  1  1
  9 10  1  0
 10 11  2  0
 12 11  1  0
 13 12  1  0
 14 10  1  0
 14 13  2  0
 15 22  1  0
 15  8  1  0
 16 15  2  0
 18 19  1  1
 18 17  1  0
 20 18  1  0
 21 20  1  6
 21 22  1  0
 23 21  1  0
 24 23  2  0
 25 23  1  0
M  END
$$$$
