CHL.pdb
     RDKit          3D

 25 25  0  0  1  0  0  0  0  0999 V2000
   19.6527  -13.8917  -19.2915 N   0  0  0  0  0  0  0  0  0  0  0  0
   18.8586  -12.8508  -18.6729 C   0  0  1  0  0  0  0  0  0  0  0  0
   18.4058  -13.3287  -17.3107 C   0  0  0  0  0  0  0  0  0  0  0  0
   17.4351  -12.0586  -16.4504 S   0  0  0  0  0  0  0  0  0  0  0  0
   19.6491  -11.5881  -18.5466 C   0  0  0  0  0  0  0  0  0  0  0  0
   20.7988  -11.6863  -18.0036 O   0  0  0  0  0  0  0  0  0  0  0  0
   19.1498  -10.3470  -19.0049 N   0  0  0  0  0  0  0  0  0  0  0  0
   19.8983   -9.1518  -18.8246 C   0  0  1  0  0  0  0  0  0  0  0  0
   19.3222   -8.0896  -19.7430 C   0  0  0  0  0  0  0  0  0  0  0  0
   20.1121   -6.8393  -19.7487 C   0  0  0  0  0  0  0  0  0  0  0  0
   21.4488   -6.7583  -20.1293 C   0  0  0  0  0  0  0  0  0  0  0  0
   21.8121   -5.4687  -20.0016 N   0  0  0  0  0  0  0  0  0  0  0  0
   20.7440   -4.7607  -19.5567 C   0  0  0  0  0  0  0  0  0  0  0  0
   19.7207   -5.6014  -19.4073 N   0  0  0  0  0  0  0  0  0  0  0  0
   19.9579   -8.6976  -17.4202 C   0  0  0  0  0  0  0  0  0  0  0  0
   18.9352   -8.8479  -16.7130 O   0  0  0  0  0  0  0  0  0  0  0  0
   23.2592  -10.3805  -13.6040 C   0  0  0  0  0  0  0  0  0  0  0  0
   22.0352   -9.7488  -14.1783 C   0  0  1  0  0  0  0  0  0  0  0  0
   20.9875   -9.7729  -13.0531 C   0  0  0  0  0  0  0  0  0  0  0  0
   22.2065   -8.4180  -14.7503 C   0  0  0  0  0  0  0  0  0  0  0  0
   21.0959   -7.6833  -15.3912 C   0  0  2  0  0  0  0  0  0  0  0  0
   21.0941   -8.1071  -16.8317 N   0  0  0  0  0  0  0  0  0  0  0  0
   21.2497   -6.2376  -15.4197 C   0  0  0  0  0  0  0  0  0  0  0  0
   21.8098   -5.7024  -16.4379 O   0  0  0  0  0  0  0  0  0  0  0  0
   20.8362   -5.3405  -14.4385 O   0  0  0  0  0  0  0  0  0  0  0  0
  2  1  1  1
  2  5  1  0
  3  2  1  0
  4  3  1  0
  5  7  1  0
  6  5  2  0
  7  8  1  0
  8  9  1  6
  9 10  1  0
 10 11  2  0
 12 11  1  0
 13 12  1  0
 14 10  1  0
 14 13  2  0
 15 22  1  0
 15  8  1  0
 16 15  2  0
 18 19  1  1
 18 17  1  0
 20 18  1  0
 21 20  1  1
 21 22  1  0
 23 21  1  0
 24 23  2  0
 25 23  1  0
M  END
$$$$
