CHL.pdb
     RDKit          3D

 25 25  0  0  1  0  0  0  0  0999 V2000
   21.8213  -12.5659  -18.7186 N   0  0  0  0  0  0  0  0  0  0  0  0
   21.5956  -11.9892  -17.4096 C   0  0  1  0  0  0  0  0  0  0  0  0
   22.8391  -12.1853  -16.5704 C   0  0  0  0  0  0  0  0  0  0  0  0
   24.2875  -11.4046  -17.3373 S   0  0  0  0  0  0  0  0  0  0  0  0
   21.2664  -10.5352  -17.5227 C   0  0  0  0  0  0  0  0  0  0  0  0
   21.6531   -9.9431  -18.5839 O   0  0  0  0  0  0  0  0  0  0  0  0
   20.5624   -9.8491  -16.5061 N   0  0  0  0  0  0  0  0  0  0  0  0
   20.1347   -8.5069  -16.6980 C   0  0  1  0  0  0  0  0  0  0  0  0
   18.7178   -8.3815  -16.1687 C   0  0  0  0  0  0  0  0  0  0  0  0
   17.7151   -9.0329  -17.0391 C   0  0  0  0  0  0  0  0  0  0  0  0
   17.0892   -8.4107  -18.1157 C   0  0  0  0  0  0  0  0  0  0  0  0
   16.2520   -9.3160  -18.6551 N   0  0  0  0  0  0  0  0  0  0  0  0
   16.3456  -10.4680  -17.9453 C   0  0  0  0  0  0  0  0  0  0  0  0
   17.2346  -10.2845  -16.9694 N   0  0  0  0  0  0  0  0  0  0  0  0
   21.0411   -7.5061  -16.0987 C   0  0  0  0  0  0  0  0  0  0  0  0
   21.6207   -7.8076  -15.0301 O   0  0  0  0  0  0  0  0  0  0  0  0
   25.4910   -4.7371  -15.7271 C   0  0  0  0  0  0  0  0  0  0  0  0
   24.5146   -4.2602  -16.7500 C   0  0  1  0  0  0  0  0  0  0  0  0
   25.3389   -3.9958  -18.0208 C   0  0  0  0  0  0  0  0  0  0  0  0
   23.3699   -5.1289  -17.0003 C   0  0  0  0  0  0  0  0  0  0  0  0
   22.2682   -5.2857  -16.0279 C   0  0  2  0  0  0  0  0  0  0  0  0
   21.2910   -6.2366  -16.6571 N   0  0  0  0  0  0  0  0  0  0  0  0
   21.5055   -4.0766  -15.7617 C   0  0  0  0  0  0  0  0  0  0  0  0
   21.7485   -3.4246  -14.6881 O   0  0  0  0  0  0  0  0  0  0  0  0
   20.5161   -3.5254  -16.5716 O   0  0  0  0  0  0  0  0  0  0  0  0
  2  1  1  6
  2  5  1  0
  3  2  1  0
  4  3  1  0
  5  7  1  0
  6  5  2  0
  7  8  1  0
  8  9  1  1
  9 10  1  0
 10 11  2  0
 12 11  1  0
 13 12  1  0
 14 10  1  0
 14 13  2  0
 15 22  1  0
 15  8  1  0
 16 15  2  0
 18 19  1  6
 18 17  1  0
 20 18  1  0
 21 20  1  6
 21 22  1  0
 23 21  1  0
 24 23  2  0
 25 23  1  0
M  END
$$$$
