CHL.pdb
     RDKit          3D

 25 25  0  0  1  0  0  0  0  0999 V2000
   22.4960  -11.2355  -17.3742 N   0  0  0  0  0  0  0  0  0  0  0  0
   22.1830  -10.7806  -16.0356 C   0  0  1  0  0  0  0  0  0  0  0  0
   23.4304  -10.1860  -15.4195 C   0  0  0  0  0  0  0  0  0  0  0  0
   24.6282  -11.4743  -14.9710 S   0  0  0  0  0  0  0  0  0  0  0  0
   21.0828   -9.7687  -16.0653 C   0  0  0  0  0  0  0  0  0  0  0  0
   21.1792   -8.8461  -16.9404 O   0  0  0  0  0  0  0  0  0  0  0  0
   19.9899   -9.8293  -15.1700 N   0  0  0  0  0  0  0  0  0  0  0  0
   18.9404   -8.8727  -15.2392 C   0  0  1  0  0  0  0  0  0  0  0  0
   17.7084   -9.4739  -14.5878 C   0  0  0  0  0  0  0  0  0  0  0  0
   16.5052   -8.6260  -14.7326 C   0  0  0  0  0  0  0  0  0  0  0  0
   16.4910   -7.3874  -15.3681 C   0  0  0  0  0  0  0  0  0  0  0  0
   15.2277   -6.9286  -15.2974 N   0  0  0  0  0  0  0  0  0  0  0  0
   14.4715   -7.8438  -14.6413 C   0  0  0  0  0  0  0  0  0  0  0  0
   15.2560   -8.8671  -14.3043 N   0  0  0  0  0  0  0  0  0  0  0  0
   19.2942   -7.5634  -14.6536 C   0  0  0  0  0  0  0  0  0  0  0  0
   20.1093   -7.5491  -13.7027 O   0  0  0  0  0  0  0  0  0  0  0  0
   23.1899   -4.9024  -15.3357 C   0  0  0  0  0  0  0  0  0  0  0  0
   21.9244   -4.8246  -14.5485 C   0  0  1  0  0  0  0  0  0  0  0  0
   22.0083   -3.5104  -13.7547 C   0  0  0  0  0  0  0  0  0  0  0  0
   20.6855   -4.9362  -15.3102 C   0  0  0  0  0  0  0  0  0  0  0  0
   19.3619   -5.0265  -14.6591 C   0  0  2  0  0  0  0  0  0  0  0  0
   18.7701   -6.3340  -15.1006 N   0  0  0  0  0  0  0  0  0  0  0  0
   18.4023   -4.0152  -15.0727 C   0  0  0  0  0  0  0  0  0  0  0  0
   18.2888   -2.9549  -14.3657 O   0  0  0  0  0  0  0  0  0  0  0  0
   17.5733   -4.0668  -16.1902 O   0  0  0  0  0  0  0  0  0  0  0  0
  2  1  1  6
  2  5  1  0
  3  2  1  0
  4  3  1  0
  5  7  1  0
  6  5  2  0
  7  8  1  0
  8  9  1  1
  9 10  1  0
 10 11  2  0
 12 11  1  0
 13 12  1  0
 14 10  1  0
 14 13  2  0
 15 22  1  0
 15  8  1  0
 16 15  2  0
 18 19  1  6
 18 17  1  0
 20 18  1  0
 21 20  1  6
 21 22  1  0
 23 21  1  0
 24 23  2  0
 25 23  1  0
M  END
$$$$
