CHL.pdb
     RDKit          3D

 25 25  0  0  1  0  0  0  0  0999 V2000
   26.8164  -30.5776  -22.7014 N   0  0  0  0  0  0  0  0  0  0  0  0
   25.5481  -30.6952  -22.0127 C   0  0  1  0  0  0  0  0  0  0  0  0
   24.7655  -31.8360  -22.6252 C   0  0  0  0  0  0  0  0  0  0  0  0
   23.2604  -32.1940  -21.6755 S   0  0  0  0  0  0  0  0  0  0  0  0
   25.7602  -30.9332  -20.5520 C   0  0  0  0  0  0  0  0  0  0  0  0
   26.6122  -31.8285  -20.2373 O   0  0  0  0  0  0  0  0  0  0  0  0
   25.0537  -30.2042  -19.5676 N   0  0  0  0  0  0  0  0  0  0  0  0
   25.3194  -30.4046  -18.1853 C   0  0  1  0  0  0  0  0  0  0  0  0
   25.9669  -29.1445  -17.6406 C   0  0  0  0  0  0  0  0  0  0  0  0
   27.4115  -29.0579  -17.9456 C   0  0  0  0  0  0  0  0  0  0  0  0
   28.1146  -30.0049  -18.6852 C   0  0  0  0  0  0  0  0  0  0  0  0
   29.3905  -29.5811  -18.7469 N   0  0  0  0  0  0  0  0  0  0  0  0
   29.4899  -28.4092  -18.0711 C   0  0  0  0  0  0  0  0  0  0  0  0
   28.2852  -28.1027  -17.5904 N   0  0  0  0  0  0  0  0  0  0  0  0
   24.1282  -30.7977  -17.4051 C   0  0  0  0  0  0  0  0  0  0  0  0
   23.0553  -30.1921  -17.6306 O   0  0  0  0  0  0  0  0  0  0  0  0
   23.6901  -35.8987  -14.9821 C   0  0  0  0  0  0  0  0  0  0  0  0
   23.3033  -34.6886  -15.7653 C   0  0  1  0  0  0  0  0  0  0  0  0
   22.0206  -35.0743  -16.5205 C   0  0  0  0  0  0  0  0  0  0  0  0
   23.1512  -33.4527  -15.0058 C   0  0  0  0  0  0  0  0  0  0  0  0
   22.8853  -32.1524  -15.6557 C   0  0  2  0  0  0  0  0  0  0  0  0
   24.1284  -31.8106  -16.4254 N   0  0  0  0  0  0  0  0  0  0  0  0
   22.6838  -31.0382  -14.7433 C   0  0  0  0  0  0  0  0  0  0  0  0
   23.7073  -30.3830  -14.3432 O   0  0  0  0  0  0  0  0  0  0  0  0
   21.4652  -30.5832  -14.2468 O   0  0  0  0  0  0  0  0  0  0  0  0
  2  1  1  6
  2  5  1  0
  3  2  1  0
  4  3  1  0
  5  7  1  0
  6  5  2  0
  7  8  1  0
  8  9  1  1
  9 10  1  0
 10 11  2  0
 12 11  1  0
 13 12  1  0
 14 10  1  0
 14 13  2  0
 15 22  1  0
 15  8  1  0
 16 15  2  0
 18 19  1  1
 18 17  1  0
 20 18  1  0
 21 20  1  1
 21 22  1  0
 23 21  1  0
 24 23  2  0
 25 23  1  0
M  END
$$$$
