CHL.pdb
     RDKit          3D

 25 25  0  0  1  0  0  0  0  0999 V2000
   23.1623  -15.2847  -18.5214 N   0  0  0  0  0  0  0  0  0  0  0  0
   23.9829  -15.2721  -17.3284 C   0  0  1  0  0  0  0  0  0  0  0  0
   23.7846  -13.9525  -16.6152 C   0  0  0  0  0  0  0  0  0  0  0  0
   25.0781  -13.6680  -15.3737 S   0  0  0  0  0  0  0  0  0  0  0  0
   23.6238  -16.4106  -16.4284 C   0  0  0  0  0  0  0  0  0  0  0  0
   22.9457  -16.1233  -15.3872 O   0  0  0  0  0  0  0  0  0  0  0  0
   24.0149  -17.7391  -16.7146 N   0  0  0  0  0  0  0  0  0  0  0  0
   23.7218  -18.7938  -15.8074 C   0  0  1  0  0  0  0  0  0  0  0  0
   23.2787  -20.0014  -16.6131 C   0  0  0  0  0  0  0  0  0  0  0  0
   21.8592  -19.9344  -17.0231 C   0  0  0  0  0  0  0  0  0  0  0  0
   20.9679  -18.9506  -16.6038 C   0  0  0  0  0  0  0  0  0  0  0  0
   19.7846  -19.2255  -17.1832 N   0  0  0  0  0  0  0  0  0  0  0  0
   19.9232  -20.3421  -17.9407 C   0  0  0  0  0  0  0  0  0  0  0  0
   21.1837  -20.7622  -17.8358 N   0  0  0  0  0  0  0  0  0  0  0  0
   24.8375  -19.1156  -14.8942 C   0  0  0  0  0  0  0  0  0  0  0  0
   25.9958  -18.8014  -15.2526 O   0  0  0  0  0  0  0  0  0  0  0  0
   27.3038  -20.2975   -9.9806 C   0  0  0  0  0  0  0  0  0  0  0  0
   26.1454  -21.1155  -10.4455 C   0  0  1  0  0  0  0  0  0  0  0  0
   25.3417  -21.4558   -9.1795 C   0  0  0  0  0  0  0  0  0  0  0  0
   25.3160  -20.5216  -11.4880 C   0  0  0  0  0  0  0  0  0  0  0  0
   25.8592  -20.1354  -12.8069 C   0  0  2  0  0  0  0  0  0  0  0  0
   24.6754  -19.7530  -13.6479 N   0  0  0  0  0  0  0  0  0  0  0  0
   26.5166  -21.2059  -13.5392 C   0  0  0  0  0  0  0  0  0  0  0  0
   27.7902  -21.1734  -13.6571 O   0  0  0  0  0  0  0  0  0  0  0  0
   25.8999  -22.3013  -14.1379 O   0  0  0  0  0  0  0  0  0  0  0  0
  2  1  1  6
  2  5  1  0
  3  2  1  0
  4  3  1  0
  5  7  1  0
  6  5  2  0
  7  8  1  0
  8  9  1  6
  9 10  1  0
 10 11  2  0
 12 11  1  0
 13 12  1  0
 14 10  1  0
 14 13  2  0
 15 22  1  0
 15  8  1  0
 16 15  2  0
 18 19  1  1
 18 17  1  0
 20 18  1  0
 21 20  1  1
 21 22  1  0
 23 21  1  0
 24 23  2  0
 25 23  1  0
M  END
$$$$
