CHL.pdb
     RDKit          3D

 25 25  0  0  1  0  0  0  0  0999 V2000
   24.7913  -33.6899  -12.4754 N   0  0  0  0  0  0  0  0  0  0  0  0
   25.8903  -34.3290  -11.7821 C   0  0  1  0  0  0  0  0  0  0  0  0
   27.1106  -34.3031  -12.6761 C   0  0  0  0  0  0  0  0  0  0  0  0
   26.9521  -35.4788  -14.0501 S   0  0  0  0  0  0  0  0  0  0  0  0
   26.1755  -33.6335  -10.4899 C   0  0  0  0  0  0  0  0  0  0  0  0
   25.6391  -32.4879  -10.3276 O   0  0  0  0  0  0  0  0  0  0  0  0
   26.9978  -34.2139   -9.4965 N   0  0  0  0  0  0  0  0  0  0  0  0
   26.9360  -33.7646   -8.1490 C   0  0  1  0  0  0  0  0  0  0  0  0
   25.5108  -33.9389   -7.6570 C   0  0  0  0  0  0  0  0  0  0  0  0
   25.3530  -33.6292   -6.2194 C   0  0  0  0  0  0  0  0  0  0  0  0
   25.5946  -32.3795   -5.6557 C   0  0  0  0  0  0  0  0  0  0  0  0
   25.3435  -32.4920   -4.3383 N   0  0  0  0  0  0  0  0  0  0  0  0
   24.9574  -33.7662   -4.0791 C   0  0  0  0  0  0  0  0  0  0  0  0
   24.9670  -34.4453   -5.2258 N   0  0  0  0  0  0  0  0  0  0  0  0
   27.9141  -34.4247   -7.2602 C   0  0  0  0  0  0  0  0  0  0  0  0
   27.8741  -35.6734   -7.1715 O   0  0  0  0  0  0  0  0  0  0  0  0
   33.6016  -33.7392   -5.3156 C   0  0  0  0  0  0  0  0  0  0  0  0
   32.4581  -34.0150   -6.2340 C   0  0  1  0  0  0  0  0  0  0  0  0
   32.5044  -35.5263   -6.5138 C   0  0  0  0  0  0  0  0  0  0  0  0
   31.1452  -33.5740   -5.7765 C   0  0  0  0  0  0  0  0  0  0  0  0
   29.9682  -34.4675   -5.7705 C   0  0  2  0  0  0  0  0  0  0  0  0
   28.8860  -33.7340   -6.5090 N   0  0  0  0  0  0  0  0  0  0  0  0
   29.4121  -34.7440   -4.4556 C   0  0  0  0  0  0  0  0  0  0  0  0
   28.4938  -33.9747   -4.0063 O   0  0  0  0  0  0  0  0  0  0  0  0
   29.7699  -35.7882   -3.6070 O   0  0  0  0  0  0  0  0  0  0  0  0
  2  1  1  6
  2  5  1  0
  3  2  1  0
  4  3  1  0
  5  7  1  0
  6  5  2  0
  7  8  1  0
  8  9  1  1
  9 10  1  0
 10 11  2  0
 12 11  1  0
 13 12  1  0
 14 10  1  0
 14 13  2  0
 15 22  1  0
 15  8  1  0
 16 15  2  0
 18 19  1  1
 18 17  1  0
 20 18  1  0
 21 20  1  1
 21 22  1  0
 23 21  1  0
 24 23  2  0
 25 23  1  0
M  END
$$$$
