CHL.pdb
     RDKit          3D

 25 25  0  0  1  0  0  0  0  0999 V2000
   27.8009  -18.8272  -14.9962 N   0  0  0  0  0  0  0  0  0  0  0  0
   27.8857  -19.9414  -14.0752 C   0  0  1  0  0  0  0  0  0  0  0  0
   29.3126  -20.0617  -13.5868 C   0  0  0  0  0  0  0  0  0  0  0  0
   29.5016  -21.4413  -12.4221 S   0  0  0  0  0  0  0  0  0  0  0  0
   26.9545  -19.7455  -12.9221 C   0  0  0  0  0  0  0  0  0  0  0  0
   26.9608  -18.5948  -12.3723 O   0  0  0  0  0  0  0  0  0  0  0  0
   26.1088  -20.7816  -12.4625 N   0  0  0  0  0  0  0  0  0  0  0  0
   25.3339  -20.6166  -11.2820 C   0  0  1  0  0  0  0  0  0  0  0  0
   24.0284  -21.3690  -11.4640 C   0  0  0  0  0  0  0  0  0  0  0  0
   23.0750  -20.6674  -12.3507 C   0  0  0  0  0  0  0  0  0  0  0  0
   23.2938  -19.4045  -12.8942 C   0  0  0  0  0  0  0  0  0  0  0  0
   22.2119  -19.1085  -13.6380 N   0  0  0  0  0  0  0  0  0  0  0  0
   21.3414  -20.1463  -13.5672 C   0  0  0  0  0  0  0  0  0  0  0  0
   21.8750  -21.0842  -12.7849 N   0  0  0  0  0  0  0  0  0  0  0  0
   26.0403  -21.0220  -10.0496 C   0  0  0  0  0  0  0  0  0  0  0  0
   26.9199  -21.9086  -10.1443 O   0  0  0  0  0  0  0  0  0  0  0  0
   29.1481  -18.7392   -5.7314 C   0  0  0  0  0  0  0  0  0  0  0  0
   28.2730  -19.9213   -5.9844 C   0  0  1  0  0  0  0  0  0  0  0  0
   27.4804  -20.1380   -4.6847 C   0  0  0  0  0  0  0  0  0  0  0  0
   27.4084  -19.8421   -7.1565 C   0  0  0  0  0  0  0  0  0  0  0  0
   26.5162  -20.9497   -7.5578 C   0  0  2  0  0  0  0  0  0  0  0  0
   25.7833  -20.4715   -8.7780 N   0  0  0  0  0  0  0  0  0  0  0  0
   25.4777  -21.2828   -6.5959 C   0  0  0  0  0  0  0  0  0  0  0  0
   24.3408  -20.7053   -6.6994 O   0  0  0  0  0  0  0  0  0  0  0  0
   25.5799  -22.1935   -5.5478 O   0  0  0  0  0  0  0  0  0  0  0  0
  2  1  1  6
  2  5  1  0
  3  2  1  0
  4  3  1  0
  5  7  1  0
  6  5  2  0
  7  8  1  0
  8  9  1  6
  9 10  1  0
 10 11  2  0
 12 11  1  0
 13 12  1  0
 14 10  1  0
 14 13  2  0
 15 22  1  0
 15  8  1  0
 16 15  2  0
 18 19  1  1
 18 17  1  0
 20 18  1  0
 21 20  1  1
 21 22  1  0
 23 21  1  0
 24 23  2  0
 25 23  1  0
M  END
$$$$
