CHL.pdb
     RDKit          3D

 25 25  0  0  1  0  0  0  0  0999 V2000
   20.4841  -28.4438  -11.7053 N   0  0  0  0  0  0  0  0  0  0  0  0
   19.3697  -27.5208  -11.7597 C   0  0  1  0  0  0  0  0  0  0  0  0
   19.0121  -27.1058  -10.3494 C   0  0  0  0  0  0  0  0  0  0  0  0
   17.9111  -28.3144   -9.5606 S   0  0  0  0  0  0  0  0  0  0  0  0
   19.7160  -26.3226  -12.5840 C   0  0  0  0  0  0  0  0  0  0  0  0
   20.9489  -25.9999  -12.6324 O   0  0  0  0  0  0  0  0  0  0  0  0
   18.7290  -25.5831  -13.2759 N   0  0  0  0  0  0  0  0  0  0  0  0
   19.0831  -24.4405  -14.0443 C   0  0  1  0  0  0  0  0  0  0  0  0
   18.1134  -24.3332  -15.2070 C   0  0  0  0  0  0  0  0  0  0  0  0
   18.4186  -23.2045  -16.1127 C   0  0  0  0  0  0  0  0  0  0  0  0
   19.4491  -22.2912  -15.9073 C   0  0  0  0  0  0  0  0  0  0  0  0
   19.4089  -21.4221  -16.9341 N   0  0  0  0  0  0  0  0  0  0  0  0
   18.3903  -21.7734  -17.7581 C   0  0  0  0  0  0  0  0  0  0  0  0
   17.7981  -22.8540  -17.2503 N   0  0  0  0  0  0  0  0  0  0  0  0
   19.1434  -23.1930  -13.2556 C   0  0  0  0  0  0  0  0  0  0  0  0
   18.2131  -22.9659  -12.4482 O   0  0  0  0  0  0  0  0  0  0  0  0
   21.2537  -20.0393   -9.5689 C   0  0  0  0  0  0  0  0  0  0  0  0
   21.9458  -19.9878  -10.8900 C   0  0  1  0  0  0  0  0  0  0  0  0
   23.4500  -20.0292  -10.5737 C   0  0  0  0  0  0  0  0  0  0  0  0
   21.5536  -21.0029  -11.8613 C   0  0  0  0  0  0  0  0  0  0  0  0
   20.2144  -21.0247  -12.4858 C   0  0  2  0  0  0  0  0  0  0  0  0
   20.1826  -22.2467  -13.3579 N   0  0  0  0  0  0  0  0  0  0  0  0
   19.9336  -19.9121  -13.3789 C   0  0  0  0  0  0  0  0  0  0  0  0
   20.4626  -19.9148  -14.5439 O   0  0  0  0  0  0  0  0  0  0  0  0
   19.1224  -18.8140  -13.1056 O   0  0  0  0  0  0  0  0  0  0  0  0
  2  1  1  1
  2  5  1  0
  3  2  1  0
  4  3  1  0
  5  7  1  0
  6  5  2  0
  7  8  1  0
  8  9  1  6
  9 10  1  0
 10 11  2  0
 12 11  1  0
 13 12  1  0
 14 10  1  0
 14 13  2  0
 15 22  1  0
 15  8  1  0
 16 15  2  0
 18 19  1  1
 18 17  1  0
 20 18  1  0
 21 20  1  6
 21 22  1  0
 23 21  1  0
 24 23  2  0
 25 23  1  0
M  END
$$$$
