CHL.pdb
     RDKit          3D

 25 25  0  0  1  0  0  0  0  0999 V2000
   23.4406  -31.2755   -8.9673 N   0  0  0  0  0  0  0  0  0  0  0  0
   22.3385  -31.2592   -9.9064 C   0  0  1  0  0  0  0  0  0  0  0  0
   21.2163  -32.1110   -9.3547 C   0  0  0  0  0  0  0  0  0  0  0  0
   21.6754  -33.8668   -9.3111 S   0  0  0  0  0  0  0  0  0  0  0  0
   21.8649  -29.8607  -10.1408 C   0  0  0  0  0  0  0  0  0  0  0  0
   21.9517  -29.0558   -9.1554 O   0  0  0  0  0  0  0  0  0  0  0  0
   21.3467  -29.4487  -11.3905 N   0  0  0  0  0  0  0  0  0  0  0  0
   20.9279  -28.1057  -11.5958 C   0  0  1  0  0  0  0  0  0  0  0  0
   20.7286  -27.8948  -13.0856 C   0  0  0  0  0  0  0  0  0  0  0  0
   20.2869  -26.5239  -13.4220 C   0  0  0  0  0  0  0  0  0  0  0  0
   20.0137  -25.5352  -12.4807 C   0  0  0  0  0  0  0  0  0  0  0  0
   19.6440  -24.4375  -13.1658 N   0  0  0  0  0  0  0  0  0  0  0  0
   19.6822  -24.7220  -14.4915 C   0  0  0  0  0  0  0  0  0  0  0  0
   20.0728  -25.9883  -14.6342 N   0  0  0  0  0  0  0  0  0  0  0  0
   19.7280  -27.7350  -10.8180 C   0  0  0  0  0  0  0  0  0  0  0  0
   18.8076  -28.5794  -10.7244 O   0  0  0  0  0  0  0  0  0  0  0  0
   17.8467  -24.4293   -6.1782 C   0  0  0  0  0  0  0  0  0  0  0  0
   18.1792  -25.7637   -6.7580 C   0  0  1  0  0  0  0  0  0  0  0  0
   16.8372  -26.4999   -6.9042 C   0  0  0  0  0  0  0  0  0  0  0  0
   18.9455  -25.7525   -7.9991 C   0  0  0  0  0  0  0  0  0  0  0  0
   18.3836  -26.2288   -9.2802 C   0  0  2  0  0  0  0  0  0  0  0  0
   19.5588  -26.4913  -10.1773 N   0  0  0  0  0  0  0  0  0  0  0  0
   17.5691  -25.2582   -9.9937 C   0  0  0  0  0  0  0  0  0  0  0  0
   18.1574  -24.3613  -10.6910 O   0  0  0  0  0  0  0  0  0  0  0  0
   16.1782  -25.1971  -10.0122 O   0  0  0  0  0  0  0  0  0  0  0  0
  2  1  1  1
  2  5  1  0
  3  2  1  0
  4  3  1  0
  5  7  1  0
  6  5  2  0
  7  8  1  0
  8  9  1  6
  9 10  1  0
 10 11  2  0
 12 11  1  0
 13 12  1  0
 14 10  1  0
 14 13  2  0
 15 22  1  0
 15  8  1  0
 16 15  2  0
 18 19  1  6
 18 17  1  0
 20 18  1  0
 21 20  1  1
 21 22  1  0
 23 21  1  0
 24 23  2  0
 25 23  1  0
M  END
$$$$
