CHL.pdb
     RDKit          3D

 25 25  0  0  1  0  0  0  0  0999 V2000
   17.3398  -12.0996  -15.4700 N   0  0  0  0  0  0  0  0  0  0  0  0
   16.7193  -10.8272  -15.1654 C   0  0  1  0  0  0  0  0  0  0  0  0
   15.2562  -11.0603  -14.8588 C   0  0  0  0  0  0  0  0  0  0  0  0
   14.3285  -11.5113  -16.3526 S   0  0  0  0  0  0  0  0  0  0  0  0
   17.3978  -10.1732  -14.0048 C   0  0  0  0  0  0  0  0  0  0  0  0
   17.8214  -10.9449  -13.0820 O   0  0  0  0  0  0  0  0  0  0  0  0
   17.5627   -8.7706  -13.9313 N   0  0  0  0  0  0  0  0  0  0  0  0
   18.0887   -8.1616  -12.7592 C   0  0  1  0  0  0  0  0  0  0  0  0
   19.1968   -7.2119  -13.1762 C   0  0  0  0  0  0  0  0  0  0  0  0
   20.4077   -7.9113  -13.6578 C   0  0  0  0  0  0  0  0  0  0  0  0
   21.1724   -8.7787  -12.8826 C   0  0  0  0  0  0  0  0  0  0  0  0
   22.1803   -9.2113  -13.6625 N   0  0  0  0  0  0  0  0  0  0  0  0
   22.0570   -8.6383  -14.8857 C   0  0  0  0  0  0  0  0  0  0  0  0
   20.9800   -7.8533  -14.8707 N   0  0  0  0  0  0  0  0  0  0  0  0
   17.0657   -7.4906  -11.9314 C   0  0  0  0  0  0  0  0  0  0  0  0
   16.1815   -6.8260  -12.5190 O   0  0  0  0  0  0  0  0  0  0  0  0
   14.0906   -6.3272   -7.4121 C   0  0  0  0  0  0  0  0  0  0  0  0
   14.2654   -7.7093   -7.9473 C   0  0  1  0  0  0  0  0  0  0  0  0
   12.9464   -8.0490   -8.6608 C   0  0  0  0  0  0  0  0  0  0  0  0
   15.4300   -7.9268   -8.7981 C   0  0  0  0  0  0  0  0  0  0  0  0
   15.9212   -6.9030   -9.7438 C   0  0  2  0  0  0  0  0  0  0  0  0
   17.0264   -7.5543  -10.5241 N   0  0  0  0  0  0  0  0  0  0  0  0
   16.5285   -5.7351   -9.1258 C   0  0  0  0  0  0  0  0  0  0  0  0
   17.7077   -5.8434   -8.6416 O   0  0  0  0  0  0  0  0  0  0  0  0
   15.9585   -4.4706   -9.0049 O   0  0  0  0  0  0  0  0  0  0  0  0
  2  1  1  1
  2  5  1  0
  3  2  1  0
  4  3  1  0
  5  7  1  0
  6  5  2  0
  7  8  1  0
  8  9  1  6
  9 10  1  0
 10 11  2  0
 12 11  1  0
 13 12  1  0
 14 10  1  0
 14 13  2  0
 15 22  1  0
 15  8  1  0
 16 15  2  0
 18 19  1  6
 18 17  1  0
 20 18  1  0
 21 20  1  1
 21 22  1  0
 23 21  1  0
 24 23  2  0
 25 23  1  0
M  END
$$$$
