CHL.pdb
     RDKit          3D

 25 25  0  0  1  0  0  0  0  0999 V2000
   27.2242  -16.0108  -18.2195 N   0  0  0  0  0  0  0  0  0  0  0  0
   27.1808  -17.1105  -17.2785 C   0  0  1  0  0  0  0  0  0  0  0  0
   28.1334  -16.8154  -16.1407 C   0  0  0  0  0  0  0  0  0  0  0  0
   29.8584  -17.1028  -16.6276 S   0  0  0  0  0  0  0  0  0  0  0  0
   25.7927  -17.3066  -16.7590 C   0  0  0  0  0  0  0  0  0  0  0  0
   25.0990  -16.2530  -16.5719 O   0  0  0  0  0  0  0  0  0  0  0  0
   25.2730  -18.5936  -16.4882 N   0  0  0  0  0  0  0  0  0  0  0  0
   23.9260  -18.7585  -16.0642 C   0  0  1  0  0  0  0  0  0  0  0  0
   23.0706  -19.0085  -17.2928 C   0  0  0  0  0  0  0  0  0  0  0  0
   21.6278  -19.1081  -16.9828 C   0  0  0  0  0  0  0  0  0  0  0  0
   21.0736  -18.8360  -15.7351 C   0  0  0  0  0  0  0  0  0  0  0  0
   19.7474  -19.0365  -15.8465 N   0  0  0  0  0  0  0  0  0  0  0  0
   19.4738  -19.4212  -17.1181 C   0  0  0  0  0  0  0  0  0  0  0  0
   20.6202  -19.4609  -17.7967 N   0  0  0  0  0  0  0  0  0  0  0  0
   23.7521  -19.8122  -15.0437 C   0  0  0  0  0  0  0  0  0  0  0  0
   24.6067  -20.7266  -14.9955 O   0  0  0  0  0  0  0  0  0  0  0  0
   25.6118  -22.2043  -11.9723 C   0  0  0  0  0  0  0  0  0  0  0  0
   24.5464  -21.4064  -11.2974 C   0  0  1  0  0  0  0  0  0  0  0  0
   25.2234  -20.7534  -10.0810 C   0  0  0  0  0  0  0  0  0  0  0  0
   23.8445  -20.4364  -12.1305 C   0  0  0  0  0  0  0  0  0  0  0  0
   22.6835  -20.8054  -12.9670 C   0  0  2  0  0  0  0  0  0  0  0  0
   22.6846  -19.8488  -14.1244 N   0  0  0  0  0  0  0  0  0  0  0  0
   21.3872  -20.6327  -12.3313 C   0  0  0  0  0  0  0  0  0  0  0  0
   20.9073  -19.4508  -12.2328 O   0  0  0  0  0  0  0  0  0  0  0  0
   20.5792  -21.6392  -11.8091 O   0  0  0  0  0  0  0  0  0  0  0  0
  2  1  1  6
  2  5  1  0
  3  2  1  0
  4  3  1  0
  5  7  1  0
  6  5  2  0
  7  8  1  0
  8  9  1  6
  9 10  1  0
 10 11  2  0
 12 11  1  0
 13 12  1  0
 14 10  1  0
 14 13  2  0
 15 22  1  0
 15  8  1  0
 16 15  2  0
 18 19  1  1
 18 17  1  0
 20 18  1  0
 21 20  1  1
 21 22  1  0
 23 21  1  0
 24 23  2  0
 25 23  1  0
M  END
$$$$
