LNN.pdb
     RDKit          3D

 25 24  0  0  1  0  0  0  0  0999 V2000
    7.9262  -12.7861   18.5557 C   0  0  0  0  0  0  0  0  0  0  0  0
    7.4299  -13.5566   19.7372 C   0  0  2  0  0  0  0  0  0  0  0  0
    7.2433  -12.5401   20.8747 C   0  0  0  0  0  0  0  0  0  0  0  0
    8.3412  -14.6107   20.2547 C   0  0  0  0  0  0  0  0  0  0  0  0
    8.6645  -15.7276   19.3133 C   0  0  2  0  0  0  0  0  0  0  0  0
    7.4805  -16.4110   18.9256 N   0  0  0  0  0  0  0  0  0  0  0  0
    9.7079  -16.5623   19.9459 C   0  0  0  0  0  0  0  0  0  0  0  0
    9.2963  -17.5672   20.6193 O   0  0  0  0  0  0  0  0  0  0  0  0
   15.6425  -18.1986   20.0968 N   0  0  0  0  0  0  0  0  0  0  0  0
   14.2305  -18.2956   20.2423 C   0  0  0  0  0  0  0  0  0  0  0  0
   13.7785  -19.3238   20.8273 O   0  0  0  0  0  0  0  0  0  0  0  0
   13.2747  -17.2779   19.7568 C   0  0  0  0  0  0  0  0  0  0  0  0
   11.9894  -17.2806   20.5745 C   0  0  2  0  0  0  0  0  0  0  0  0
   11.0946  -16.3645   19.8821 N   0  0  0  0  0  0  0  0  0  0  0  0
   12.2637  -16.8373   21.9557 C   0  0  0  0  0  0  0  0  0  0  0  0
   12.9842  -15.8230   22.1211 O   0  0  0  0  0  0  0  0  0  0  0  0
   12.0543  -16.3878   27.1415 N   0  0  0  0  0  0  0  0  0  0  0  0
   10.7608  -16.5276   26.5762 C   0  0  0  0  0  0  0  0  0  0  0  0
    9.7677  -16.2994   27.2886 O   0  0  0  0  0  0  0  0  0  0  0  0
   10.6210  -16.9303   25.1886 C   0  0  0  0  0  0  0  0  0  0  0  0
   11.9316  -17.0680   24.4484 C   0  0  2  0  0  0  0  0  0  0  0  0
   11.7477  -17.5092   23.0922 N   0  0  0  0  0  0  0  0  0  0  0  0
   12.8794  -17.9531   25.1733 C   0  0  0  0  0  0  0  0  0  0  0  0
   13.2481  -17.6882   26.3412 O   0  0  0  0  0  0  0  0  0  0  0  0
   13.3887  -19.1015   24.5841 O   0  0  0  0  0  0  0  0  0  0  0  0
  2  1  1  6
  3  2  1  0
  4  2  1  0
  4  5  1  0
  5  6  1  1
  7  5  1  0
  7  8  2  0
 10 12  1  0
 10  9  1  0
 11 10  2  0
 13 12  1  6
 13 14  1  0
 14  7  1  0
 15 13  1  0
 16 15  2  0
 18 17  1  0
 19 18  2  0
 20 18  1  0
 21 20  1  1
 21 22  1  0
 22 15  1  0
 23 21  1  0
 24 23  2  0
 25 23  1  0
M  END
$$$$
