LNN.pdb
     RDKit          3D

 25 24  0  0  1  0  0  0  0  0999 V2000
    7.9432  -12.9214   18.7447 C   0  0  0  0  0  0  0  0  0  0  0  0
    7.4331  -13.6148   19.9674 C   0  0  2  0  0  0  0  0  0  0  0  0
    7.1989  -12.5228   21.0232 C   0  0  0  0  0  0  0  0  0  0  0  0
    8.3517  -14.6091   20.5812 C   0  0  0  0  0  0  0  0  0  0  0  0
    8.6882  -15.8041   19.7462 C   0  0  2  0  0  0  0  0  0  0  0  0
    7.5123  -16.5337   19.4237 N   0  0  0  0  0  0  0  0  0  0  0  0
    9.7408  -16.5651   20.4523 C   0  0  0  0  0  0  0  0  0  0  0  0
    9.3997  -17.7072   20.9129 O   0  0  0  0  0  0  0  0  0  0  0  0
   15.6327  -16.7866   22.0982 N   0  0  0  0  0  0  0  0  0  0  0  0
   14.4807  -17.3467   21.4790 C   0  0  0  0  0  0  0  0  0  0  0  0
   14.3947  -18.6098   21.4521 O   0  0  0  0  0  0  0  0  0  0  0  0
   13.3933  -16.5486   20.8742 C   0  0  0  0  0  0  0  0  0  0  0  0
   12.0216  -17.0967   21.2469 C   0  0  2  0  0  0  0  0  0  0  0  0
   11.0670  -16.1635   20.6662 N   0  0  0  0  0  0  0  0  0  0  0  0
   11.8861  -17.1745   22.7149 C   0  0  0  0  0  0  0  0  0  0  0  0
   11.9174  -18.3074   23.2542 O   0  0  0  0  0  0  0  0  0  0  0  0
    8.8503  -16.0800   26.6053 N   0  0  0  0  0  0  0  0  0  0  0  0
    8.3979  -15.9949   25.2635 C   0  0  0  0  0  0  0  0  0  0  0  0
    7.1747  -15.9513   25.0452 O   0  0  0  0  0  0  0  0  0  0  0  0
    9.3625  -15.9599   24.1792 C   0  0  0  0  0  0  0  0  0  0  0  0
   10.8041  -15.9384   24.6328 C   0  0  2  0  0  0  0  0  0  0  0  0
   11.7235  -16.0268   23.5307 N   0  0  0  0  0  0  0  0  0  0  0  0
   11.0767  -16.9951   25.6408 C   0  0  0  0  0  0  0  0  0  0  0  0
   10.4848  -17.0042   26.7452 O   0  0  0  0  0  0  0  0  0  0  0  0
   11.9942  -18.0068   25.3957 O   0  0  0  0  0  0  0  0  0  0  0  0
  2  1  1  6
  3  2  1  0
  4  2  1  0
  4  5  1  0
  5  6  1  1
  7  5  1  0
  7  8  2  0
 10 12  1  0
 10  9  1  0
 11 10  2  0
 13 12  1  1
 13 14  1  0
 14  7  1  0
 15 13  1  0
 16 15  2  0
 18 17  1  0
 19 18  2  0
 20 18  1  0
 21 20  1  6
 21 22  1  0
 22 15  1  0
 23 21  1  0
 24 23  2  0
 25 23  1  0
M  END
$$$$
