LNN.pdb
     RDKit          3D

 25 24  0  0  1  0  0  0  0  0999 V2000
    8.3509  -12.5889   18.1218 C   0  0  0  0  0  0  0  0  0  0  0  0
    7.5798  -13.3505   19.1519 C   0  0  2  0  0  0  0  0  0  0  0  0
    7.0378  -12.3128   20.1476 C   0  0  0  0  0  0  0  0  0  0  0  0
    8.3568  -14.3369   19.9472 C   0  0  0  0  0  0  0  0  0  0  0  0
    8.9808  -15.4608   19.1818 C   0  0  2  0  0  0  0  0  0  0  0  0
    7.9896  -16.1912   18.4722 N   0  0  0  0  0  0  0  0  0  0  0  0
    9.8027  -16.2473   20.1261 C   0  0  0  0  0  0  0  0  0  0  0  0
    9.1701  -16.8547   21.0554 O   0  0  0  0  0  0  0  0  0  0  0  0
   11.2717  -20.3638   21.5361 N   0  0  0  0  0  0  0  0  0  0  0  0
   10.8253  -19.8853   20.2728 C   0  0  0  0  0  0  0  0  0  0  0  0
    9.8915  -20.5275   19.7079 O   0  0  0  0  0  0  0  0  0  0  0  0
   11.3818  -18.6969   19.5920 C   0  0  0  0  0  0  0  0  0  0  0  0
   11.8032  -17.6255   20.5895 C   0  0  2  0  0  0  0  0  0  0  0  0
   11.1970  -16.3936   20.1052 N   0  0  0  0  0  0  0  0  0  0  0  0
   13.2754  -17.5272   20.6395 C   0  0  0  0  0  0  0  0  0  0  0  0
   13.9171  -17.6864   19.5728 O   0  0  0  0  0  0  0  0  0  0  0  0
   14.8888  -14.2384   19.0684 N   0  0  0  0  0  0  0  0  0  0  0  0
   15.4253  -14.4040   20.3711 C   0  0  0  0  0  0  0  0  0  0  0  0
   16.6135  -14.0991   20.5730 O   0  0  0  0  0  0  0  0  0  0  0  0
   14.5847  -14.9214   21.4355 C   0  0  0  0  0  0  0  0  0  0  0  0
   15.0167  -16.2689   21.9667 C   0  0  2  0  0  0  0  0  0  0  0  0
   13.9847  -17.2618   21.8378 N   0  0  0  0  0  0  0  0  0  0  0  0
   15.4954  -16.1763   23.3701 C   0  0  0  0  0  0  0  0  0  0  0  0
   16.7052  -15.9783   23.6295 O   0  0  0  0  0  0  0  0  0  0  0  0
   14.6220  -16.3055   24.4405 O   0  0  0  0  0  0  0  0  0  0  0  0
  2  1  1  6
  3  2  1  0
  4  2  1  0
  4  5  1  0
  5  6  1  1
  7  5  1  0
  7  8  2  0
 10 12  1  0
 10  9  1  0
 11 10  2  0
 13 12  1  6
 13 14  1  0
 14  7  1  0
 15 13  1  0
 16 15  2  0
 18 17  1  0
 19 18  2  0
 20 18  1  0
 21 20  1  1
 21 22  1  0
 22 15  1  0
 23 21  1  0
 24 23  2  0
 25 23  1  0
M  END
$$$$
