LNN.pdb
     RDKit          3D

 25 24  0  0  1  0  0  0  0  0999 V2000
    8.8909  -11.8695   19.1120 C   0  0  0  0  0  0  0  0  0  0  0  0
    7.9635  -13.0331   18.9638 C   0  0  2  0  0  0  0  0  0  0  0  0
    6.5535  -12.5113   19.2830 C   0  0  0  0  0  0  0  0  0  0  0  0
    8.2089  -14.1798   19.8770 C   0  0  0  0  0  0  0  0  0  0  0  0
    9.5841  -14.7682   19.8470 C   0  0  2  0  0  0  0  0  0  0  0  0
    9.9759  -15.0512   18.5106 N   0  0  0  0  0  0  0  0  0  0  0  0
    9.6030  -15.9173   20.7770 C   0  0  0  0  0  0  0  0  0  0  0  0
    8.6770  -15.9471   21.6571 O   0  0  0  0  0  0  0  0  0  0  0  0
   12.3692  -20.7378   20.0225 N   0  0  0  0  0  0  0  0  0  0  0  0
   11.6970  -19.4926   20.1705 C   0  0  0  0  0  0  0  0  0  0  0  0
   12.2752  -18.4647   19.7094 O   0  0  0  0  0  0  0  0  0  0  0  0
   10.3799  -19.3332   20.8225 C   0  0  0  0  0  0  0  0  0  0  0  0
   10.3366  -18.0903   21.7022 C   0  0  2  0  0  0  0  0  0  0  0  0
   10.5278  -16.9710   20.7910 N   0  0  0  0  0  0  0  0  0  0  0  0
   11.4011  -18.1517   22.7233 C   0  0  0  0  0  0  0  0  0  0  0  0
   11.4463  -19.1571   23.4732 O   0  0  0  0  0  0  0  0  0  0  0  0
   15.4039  -18.5927   25.7010 N   0  0  0  0  0  0  0  0  0  0  0  0
   14.1052  -18.1421   26.0513 C   0  0  0  0  0  0  0  0  0  0  0  0
   13.8808  -17.8196   27.2309 O   0  0  0  0  0  0  0  0  0  0  0  0
   13.0710  -18.0659   25.0354 C   0  0  0  0  0  0  0  0  0  0  0  0
   13.3931  -17.1310   23.8924 C   0  0  2  0  0  0  0  0  0  0  0  0
   12.3657  -17.1259   22.8864 N   0  0  0  0  0  0  0  0  0  0  0  0
   14.7208  -17.4311   23.2971 C   0  0  0  0  0  0  0  0  0  0  0  0
   15.6582  -16.6014   23.3541 O   0  0  0  0  0  0  0  0  0  0  0  0
   14.9694  -18.6377   22.6586 O   0  0  0  0  0  0  0  0  0  0  0  0
  2  1  1  1
  3  2  1  0
  4  2  1  0
  4  5  1  0
  5  6  1  6
  7  5  1  0
  7  8  2  0
 10 12  1  0
 10  9  1  0
 11 10  2  0
 13 12  1  6
 13 14  1  0
 14  7  1  0
 15 13  1  0
 16 15  2  0
 18 17  1  0
 19 18  2  0
 20 18  1  0
 21 20  1  1
 21 22  1  0
 22 15  1  0
 23 21  1  0
 24 23  2  0
 25 23  1  0
M  END
$$$$
