LNN.pdb
     RDKit          3D

 25 24  0  0  1  0  0  0  0  0999 V2000
    7.0870  -12.4355   18.1891 C   0  0  0  0  0  0  0  0  0  0  0  0
    7.5416  -13.2123   19.3832 C   0  0  2  0  0  0  0  0  0  0  0  0
    8.2163  -12.2055   20.3283 C   0  0  0  0  0  0  0  0  0  0  0  0
    8.5389  -14.2827   19.1207 C   0  0  0  0  0  0  0  0  0  0  0  0
    8.6562  -15.3492   20.1633 C   0  0  2  0  0  0  0  0  0  0  0  0
    8.2812  -14.8437   21.4374 N   0  0  0  0  0  0  0  0  0  0  0  0
   10.0181  -15.9176   20.0753 C   0  0  0  0  0  0  0  0  0  0  0  0
   10.2612  -16.6465   19.0543 O   0  0  0  0  0  0  0  0  0  0  0  0
   13.9733  -15.4837   18.3294 N   0  0  0  0  0  0  0  0  0  0  0  0
   13.5225  -14.8278   19.5086 C   0  0  0  0  0  0  0  0  0  0  0  0
   13.1995  -13.6077   19.4045 O   0  0  0  0  0  0  0  0  0  0  0  0
   13.4108  -15.4809   20.8301 C   0  0  0  0  0  0  0  0  0  0  0  0
   12.2893  -16.5117   20.8529 C   0  0  2  0  0  0  0  0  0  0  0  0
   11.0634  -15.7389   20.9924 N   0  0  0  0  0  0  0  0  0  0  0  0
   12.4785  -17.4451   21.9809 C   0  0  0  0  0  0  0  0  0  0  0  0
   13.5238  -18.1391   22.0076 O   0  0  0  0  0  0  0  0  0  0  0  0
   14.0746  -18.5557   24.9175 N   0  0  0  0  0  0  0  0  0  0  0  0
   13.0224  -18.3142   25.8378 C   0  0  0  0  0  0  0  0  0  0  0  0
   13.3038  -18.1297   27.0347 O   0  0  0  0  0  0  0  0  0  0  0  0
   11.6486  -18.2865   25.3698 C   0  0  0  0  0  0  0  0  0  0  0  0
   11.4768  -18.7040   23.9274 C   0  0  2  0  0  0  0  0  0  0  0  0
   11.5311  -17.5849   23.0260 N   0  0  0  0  0  0  0  0  0  0  0  0
   10.2309  -19.4885   23.7291 C   0  0  0  0  0  0  0  0  0  0  0  0
   10.0242  -20.5471   24.3669 O   0  0  0  0  0  0  0  0  0  0  0  0
    9.2544  -19.0779   22.8328 O   0  0  0  0  0  0  0  0  0  0  0  0
  2  1  1  6
  3  2  1  0
  4  2  1  0
  4  5  1  0
  5  6  1  1
  7  5  1  0
  7  8  2  0
 10 12  1  0
 10  9  1  0
 11 10  2  0
 13 12  1  1
 13 14  1  0
 14  7  1  0
 15 13  1  0
 16 15  2  0
 18 17  1  0
 19 18  2  0
 20 18  1  0
 21 20  1  1
 21 22  1  0
 22 15  1  0
 23 21  1  0
 24 23  2  0
 25 23  1  0
M  END
$$$$
