LNN.pdb
     RDKit          3D

 25 24  0  0  1  0  0  0  0  0999 V2000
    8.2154  -12.3966   18.8210 C   0  0  0  0  0  0  0  0  0  0  0  0
    7.7283  -13.5982   19.5659 C   0  0  2  0  0  0  0  0  0  0  0  0
    7.0755  -13.0772   20.8561 C   0  0  0  0  0  0  0  0  0  0  0  0
    8.7715  -14.5722   19.9810 C   0  0  0  0  0  0  0  0  0  0  0  0
    9.5172  -15.2546   18.8781 C   0  0  2  0  0  0  0  0  0  0  0  0
    8.6132  -15.7753   17.9132 N   0  0  0  0  0  0  0  0  0  0  0  0
   10.4327  -16.2383   19.4945 C   0  0  0  0  0  0  0  0  0  0  0  0
   10.3036  -17.4495   19.1086 O   0  0  0  0  0  0  0  0  0  0  0  0
   14.9542  -13.4129   18.7148 N   0  0  0  0  0  0  0  0  0  0  0  0
   14.2499  -14.6268   18.4811 C   0  0  0  0  0  0  0  0  0  0  0  0
   14.8608  -15.5373   17.8476 O   0  0  0  0  0  0  0  0  0  0  0  0
   12.8648  -14.8820   18.9303 C   0  0  0  0  0  0  0  0  0  0  0  0
   12.8200  -15.9120   20.0517 C   0  0  2  0  0  0  0  0  0  0  0  0
   11.4222  -15.9784   20.4533 N   0  0  0  0  0  0  0  0  0  0  0  0
   13.6895  -15.4885   21.1671 C   0  0  0  0  0  0  0  0  0  0  0  0
   14.9256  -15.4175   20.9616 O   0  0  0  0  0  0  0  0  0  0  0  0
    9.4250  -16.7393   23.9929 N   0  0  0  0  0  0  0  0  0  0  0  0
   10.7830  -16.5798   24.3709 C   0  0  0  0  0  0  0  0  0  0  0  0
   11.0415  -16.1229   25.4979 O   0  0  0  0  0  0  0  0  0  0  0  0
   11.8368  -16.9502   23.4438 C   0  0  0  0  0  0  0  0  0  0  0  0
   13.0776  -16.0927   23.5414 C   0  0  2  0  0  0  0  0  0  0  0  0
   13.1841  -15.1620   22.4505 N   0  0  0  0  0  0  0  0  0  0  0  0
   14.3065  -16.9192   23.6592 C   0  0  0  0  0  0  0  0  0  0  0  0
   14.7725  -17.2300   24.7801 O   0  0  0  0  0  0  0  0  0  0  0  0
   14.9799  -17.3752   22.5350 O   0  0  0  0  0  0  0  0  0  0  0  0
  2  1  1  1
  3  2  1  0
  4  2  1  0
  4  5  1  0
  5  6  1  6
  7  5  1  0
  7  8  2  0
 10 12  1  0
 10  9  1  0
 11 10  2  0
 13 12  1  6
 13 14  1  0
 14  7  1  0
 15 13  1  0
 16 15  2  0
 18 17  1  0
 19 18  2  0
 20 18  1  0
 21 20  1  6
 21 22  1  0
 22 15  1  0
 23 21  1  0
 24 23  2  0
 25 23  1  0
M  END
$$$$
