LNN.pdb
     RDKit          3D

 25 24  0  0  1  0  0  0  0  0999 V2000
    8.5910  -12.3016   18.6273 C   0  0  0  0  0  0  0  0  0  0  0  0
    7.9074  -13.5227   19.1541 C   0  0  2  0  0  0  0  0  0  0  0  0
    6.6243  -13.0395   19.8488 C   0  0  0  0  0  0  0  0  0  0  0  0
    8.6663  -14.3081   20.1622 C   0  0  0  0  0  0  0  0  0  0  0  0
   10.0272  -14.7743   19.7513 C   0  0  2  0  0  0  0  0  0  0  0  0
    9.9889  -15.3345   18.4459 N   0  0  0  0  0  0  0  0  0  0  0  0
   10.5390  -15.6639   20.8154 C   0  0  0  0  0  0  0  0  0  0  0  0
   10.4284  -15.2336   22.0135 O   0  0  0  0  0  0  0  0  0  0  0  0
    9.5044  -19.9122   19.9898 N   0  0  0  0  0  0  0  0  0  0  0  0
    9.9865  -19.3774   21.2169 C   0  0  0  0  0  0  0  0  0  0  0  0
    9.1287  -19.1180   22.1116 O   0  0  0  0  0  0  0  0  0  0  0  0
   11.4123  -19.1118   21.5028 C   0  0  0  0  0  0  0  0  0  0  0  0
   11.6599  -17.6378   21.7971 C   0  0  2  0  0  0  0  0  0  0  0  0
   11.1295  -16.9241   20.6444 N   0  0  0  0  0  0  0  0  0  0  0  0
   13.1042  -17.3899   21.9763 C   0  0  0  0  0  0  0  0  0  0  0  0
   13.8158  -18.3239   22.4195 O   0  0  0  0  0  0  0  0  0  0  0  0
   14.0941  -13.9377   19.0360 N   0  0  0  0  0  0  0  0  0  0  0  0
   15.0898  -14.8321   19.5063 C   0  0  0  0  0  0  0  0  0  0  0  0
   15.5475  -15.6838   18.7247 O   0  0  0  0  0  0  0  0  0  0  0  0
   15.5526  -14.7373   20.8789 C   0  0  0  0  0  0  0  0  0  0  0  0
   15.1234  -15.8892   21.7584 C   0  0  2  0  0  0  0  0  0  0  0  0
   13.7115  -16.1466   21.6688 N   0  0  0  0  0  0  0  0  0  0  0  0
   15.5399  -15.6851   23.1698 C   0  0  0  0  0  0  0  0  0  0  0  0
   14.6914  -15.5666   24.0843 O   0  0  0  0  0  0  0  0  0  0  0  0
   16.8797  -15.6187   23.5245 O   0  0  0  0  0  0  0  0  0  0  0  0
  2  1  1  1
  3  2  1  0
  4  2  1  0
  4  5  1  0
  5  6  1  6
  7  5  1  0
  7  8  2  0
 10 12  1  0
 10  9  1  0
 11 10  2  0
 13 12  1  6
 13 14  1  0
 14  7  1  0
 15 13  1  0
 16 15  2  0
 18 17  1  0
 19 18  2  0
 20 18  1  0
 21 20  1  6
 21 22  1  0
 22 15  1  0
 23 21  1  0
 24 23  2  0
 25 23  1  0
M  END
$$$$
