LNN.pdb
     RDKit          3D

 25 24  0  0  1  0  0  0  0  0999 V2000
    5.8666  -11.9508   25.9381 C   0  0  0  0  0  0  0  0  0  0  0  0
    6.6804  -12.9240   26.7298 C   0  0  2  0  0  0  0  0  0  0  0  0
    7.6944  -12.0939   27.5328 C   0  0  0  0  0  0  0  0  0  0  0  0
    7.4669  -13.9070   25.9398 C   0  0  0  0  0  0  0  0  0  0  0  0
    6.6817  -14.8440   25.0773 C   0  0  2  0  0  0  0  0  0  0  0  0
    6.0229  -15.8199   25.8730 N   0  0  0  0  0  0  0  0  0  0  0  0
    7.5929  -15.3721   24.0398 C   0  0  0  0  0  0  0  0  0  0  0  0
    7.7842  -16.6355   24.0459 O   0  0  0  0  0  0  0  0  0  0  0  0
    6.9408  -13.1023   19.8309 N   0  0  0  0  0  0  0  0  0  0  0  0
    7.5703  -14.3123   20.2356 C   0  0  0  0  0  0  0  0  0  0  0  0
    6.9083  -15.3830   20.0982 O   0  0  0  0  0  0  0  0  0  0  0  0
    8.9349  -14.3894   20.7990 C   0  0  0  0  0  0  0  0  0  0  0  0
    8.9929  -15.3225   22.0018 C   0  0  2  0  0  0  0  0  0  0  0  0
    8.2640  -14.6321   23.0560 N   0  0  0  0  0  0  0  0  0  0  0  0
   10.3966  -15.5752   22.3829 C   0  0  0  0  0  0  0  0  0  0  0  0
   11.1694  -16.0534   21.5173 O   0  0  0  0  0  0  0  0  0  0  0  0
   12.0188  -17.9754   27.1785 N   0  0  0  0  0  0  0  0  0  0  0  0
   11.3835  -18.2509   25.9404 C   0  0  0  0  0  0  0  0  0  0  0  0
   11.4270  -19.4087   25.4893 O   0  0  0  0  0  0  0  0  0  0  0  0
   10.6998  -17.1861   25.2292 C   0  0  0  0  0  0  0  0  0  0  0  0
   11.6212  -16.2454   24.4872 C   0  0  2  0  0  0  0  0  0  0  0  0
   10.8993  -15.2999   23.6794 N   0  0  0  0  0  0  0  0  0  0  0  0
   12.6219  -16.9855   23.6761 C   0  0  0  0  0  0  0  0  0  0  0  0
   13.7861  -17.1744   24.0993 O   0  0  0  0  0  0  0  0  0  0  0  0
   12.3035  -17.4927   22.4244 O   0  0  0  0  0  0  0  0  0  0  0  0
  2  1  1  6
  3  2  1  0
  4  2  1  0
  4  5  1  0
  5  6  1  1
  7  5  1  0
  7  8  2  0
 10 12  1  0
 10  9  1  0
 11 10  2  0
 13 12  1  6
 13 14  1  0
 14  7  1  0
 15 13  1  0
 16 15  2  0
 18 17  1  0
 19 18  2  0
 20 18  1  0
 21 20  1  6
 21 22  1  0
 22 15  1  0
 23 21  1  0
 24 23  2  0
 25 23  1  0
M  END
$$$$
