LNN.pdb
     RDKit          3D

 25 24  0  0  1  0  0  0  0  0999 V2000
    8.0573  -12.8524   18.5833 C   0  0  0  0  0  0  0  0  0  0  0  0
    7.9809  -13.2717   20.0166 C   0  0  2  0  0  0  0  0  0  0  0  0
    8.4890  -12.0825   20.8472 C   0  0  0  0  0  0  0  0  0  0  0  0
    8.8146  -14.4422   20.3963 C   0  0  0  0  0  0  0  0  0  0  0  0
    8.5576  -15.7102   19.6451 C   0  0  2  0  0  0  0  0  0  0  0  0
    7.1974  -16.1001   19.7761 N   0  0  0  0  0  0  0  0  0  0  0  0
    9.5553  -16.7069   20.0889 C   0  0  0  0  0  0  0  0  0  0  0  0
    9.4632  -17.0968   21.3023 O   0  0  0  0  0  0  0  0  0  0  0  0
   12.9406  -19.4299   16.8166 N   0  0  0  0  0  0  0  0  0  0  0  0
   11.8248  -18.9727   17.5718 C   0  0  0  0  0  0  0  0  0  0  0  0
   11.0488  -18.1426   17.0129 O   0  0  0  0  0  0  0  0  0  0  0  0
   11.5238  -19.4065   18.9526 C   0  0  0  0  0  0  0  0  0  0  0  0
   11.4978  -18.2278   19.9173 C   0  0  2  0  0  0  0  0  0  0  0  0
   10.5854  -17.2644   19.3183 N   0  0  0  0  0  0  0  0  0  0  0  0
   12.8553  -17.6695   20.0760 C   0  0  0  0  0  0  0  0  0  0  0  0
   13.8159  -18.2899   19.5588 O   0  0  0  0  0  0  0  0  0  0  0  0
   14.9126  -15.6301   18.3539 N   0  0  0  0  0  0  0  0  0  0  0  0
   14.6894  -14.4687   19.1373 C   0  0  0  0  0  0  0  0  0  0  0  0
   14.5312  -13.3785   18.5610 O   0  0  0  0  0  0  0  0  0  0  0  0
   14.6493  -14.5731   20.5847 C   0  0  0  0  0  0  0  0  0  0  0  0
   14.4254  -15.9767   21.0986 C   0  0  2  0  0  0  0  0  0  0  0  0
   13.1114  -16.4690   20.7847 N   0  0  0  0  0  0  0  0  0  0  0  0
   14.6983  -16.0763   22.5556 C   0  0  0  0  0  0  0  0  0  0  0  0
   15.5019  -16.9251   23.0071 O   0  0  0  0  0  0  0  0  0  0  0  0
   14.0744  -15.2349   23.4658 O   0  0  0  0  0  0  0  0  0  0  0  0
  2  1  1  6
  3  2  1  0
  4  2  1  0
  4  5  1  0
  5  6  1  1
  7  5  1  0
  7  8  2  0
 10 12  1  0
 10  9  1  0
 11 10  2  0
 13 12  1  6
 13 14  1  0
 14  7  1  0
 15 13  1  0
 16 15  2  0
 18 17  1  0
 19 18  2  0
 20 18  1  0
 21 20  1  1
 21 22  1  0
 22 15  1  0
 23 21  1  0
 24 23  2  0
 25 23  1  0
M  END
$$$$
