LNN.pdb
     RDKit          3D

 25 24  0  0  1  0  0  0  0  0999 V2000
    5.2262  -11.8554   27.3817 C   0  0  0  0  0  0  0  0  0  0  0  0
    6.2665  -12.1525   26.3495 C   0  0  2  0  0  0  0  0  0  0  0  0
    6.5151  -10.8399   25.5895 C   0  0  0  0  0  0  0  0  0  0  0  0
    5.8986  -13.1702   25.3306 C   0  0  0  0  0  0  0  0  0  0  0  0
    6.4578  -14.5429   25.5333 C   0  0  2  0  0  0  0  0  0  0  0  0
    7.3156  -14.5692   26.6660 N   0  0  0  0  0  0  0  0  0  0  0  0
    7.0681  -14.9738   24.2576 C   0  0  0  0  0  0  0  0  0  0  0  0
    6.4602  -15.9036   23.6261 O   0  0  0  0  0  0  0  0  0  0  0  0
    7.8630  -12.5816   20.5772 N   0  0  0  0  0  0  0  0  0  0  0  0
    8.1880  -13.9408   20.8440 C   0  0  0  0  0  0  0  0  0  0  0  0
    7.3974  -14.8232   20.3970 O   0  0  0  0  0  0  0  0  0  0  0  0
    9.3802  -14.3752   21.6024 C   0  0  0  0  0  0  0  0  0  0  0  0
    9.0058  -15.2978   22.7554 C   0  0  2  0  0  0  0  0  0  0  0  0
    8.2386  -14.4688   23.6739 N   0  0  0  0  0  0  0  0  0  0  0  0
   10.2236  -15.8365   23.3927 C   0  0  0  0  0  0  0  0  0  0  0  0
   11.1275  -16.2944   22.6521 O   0  0  0  0  0  0  0  0  0  0  0  0
   11.3251  -15.2826   29.0198 N   0  0  0  0  0  0  0  0  0  0  0  0
   10.9605  -15.4029   27.6541 C   0  0  0  0  0  0  0  0  0  0  0  0
    9.7561  -15.3561   27.3492 O   0  0  0  0  0  0  0  0  0  0  0  0
   11.9908  -15.5762   26.6463 C   0  0  0  0  0  0  0  0  0  0  0  0
   11.5615  -16.4050   25.4576 C   0  0  2  0  0  0  0  0  0  0  0  0
   10.4080  -15.8554   24.7980 N   0  0  0  0  0  0  0  0  0  0  0  0
   11.3353  -17.8246   25.8328 C   0  0  0  0  0  0  0  0  0  0  0  0
   12.2506  -18.5137   26.3402 O   0  0  0  0  0  0  0  0  0  0  0  0
   10.1054  -18.4361   25.6353 O   0  0  0  0  0  0  0  0  0  0  0  0
  2  1  1  1
  3  2  1  0
  4  2  1  0
  4  5  1  0
  5  6  1  1
  7  5  1  0
  7  8  2  0
 10 12  1  0
 10  9  1  0
 11 10  2  0
 13 12  1  6
 13 14  1  0
 14  7  1  0
 15 13  1  0
 16 15  2  0
 18 17  1  0
 19 18  2  0
 20 18  1  0
 21 20  1  1
 21 22  1  0
 22 15  1  0
 23 21  1  0
 24 23  2  0
 25 23  1  0
M  END
$$$$
