LNN.pdb
     RDKit          3D

 25 24  0  0  1  0  0  0  0  0999 V2000
    5.6087  -12.1671   27.0816 C   0  0  0  0  0  0  0  0  0  0  0  0
    6.7861  -12.4914   26.2187 C   0  0  2  0  0  0  0  0  0  0  0  0
    7.4990  -11.1599   25.9341 C   0  0  0  0  0  0  0  0  0  0  0  0
    6.4759  -13.0981   24.8978 C   0  0  0  0  0  0  0  0  0  0  0  0
    6.2779  -14.5809   24.8798 C   0  0  2  0  0  0  0  0  0  0  0  0
    6.4288  -15.1196   26.1861 N   0  0  0  0  0  0  0  0  0  0  0  0
    7.1749  -15.1428   23.8476 C   0  0  0  0  0  0  0  0  0  0  0  0
    7.1177  -16.4079   23.6772 O   0  0  0  0  0  0  0  0  0  0  0  0
    7.1084  -12.8515   19.7779 N   0  0  0  0  0  0  0  0  0  0  0  0
    7.7515  -14.0770   20.1077 C   0  0  0  0  0  0  0  0  0  0  0  0
    7.2022  -15.1450   19.7062 O   0  0  0  0  0  0  0  0  0  0  0  0
    9.0076  -14.1727   20.8812 C   0  0  0  0  0  0  0  0  0  0  0  0
    8.8737  -15.1402   22.0503 C   0  0  2  0  0  0  0  0  0  0  0  0
    8.0762  -14.4327   23.0417 N   0  0  0  0  0  0  0  0  0  0  0  0
   10.2079  -15.4944   22.5736 C   0  0  0  0  0  0  0  0  0  0  0  0
   10.7072  -14.7669   23.4662 O   0  0  0  0  0  0  0  0  0  0  0  0
   12.8053  -18.2321   25.3926 N   0  0  0  0  0  0  0  0  0  0  0  0
   11.4096  -18.4490   25.2606 C   0  0  0  0  0  0  0  0  0  0  0  0
   10.7752  -18.8808   26.2388 O   0  0  0  0  0  0  0  0  0  0  0  0
   10.7530  -18.1649   23.9975 C   0  0  0  0  0  0  0  0  0  0  0  0
   11.6514  -17.5298   22.9612 C   0  0  2  0  0  0  0  0  0  0  0  0
   10.9395  -16.6161   22.1092 N   0  0  0  0  0  0  0  0  0  0  0  0
   12.3732  -18.5527   22.1614 C   0  0  0  0  0  0  0  0  0  0  0  0
   11.7511  -19.3733   21.4473 O   0  0  0  0  0  0  0  0  0  0  0  0
   13.7582  -18.6354   22.1766 O   0  0  0  0  0  0  0  0  0  0  0  0
  2  1  1  6
  3  2  1  0
  4  2  1  0
  4  5  1  0
  5  6  1  1
  7  5  1  0
  7  8  2  0
 10 12  1  0
 10  9  1  0
 11 10  2  0
 13 12  1  6
 13 14  1  0
 14  7  1  0
 15 13  1  0
 16 15  2  0
 18 17  1  0
 19 18  2  0
 20 18  1  0
 21 20  1  1
 21 22  1  0
 22 15  1  0
 23 21  1  0
 24 23  2  0
 25 23  1  0
M  END
$$$$
