LNN.pdb
     RDKit          3D

 25 24  0  0  1  0  0  0  0  0999 V2000
    8.3420  -12.1952   18.4752 C   0  0  0  0  0  0  0  0  0  0  0  0
    7.4953  -13.3777   18.8225 C   0  0  2  0  0  0  0  0  0  0  0  0
    6.2000  -12.8225   19.4359 C   0  0  0  0  0  0  0  0  0  0  0  0
    8.0696  -14.3170   19.8211 C   0  0  0  0  0  0  0  0  0  0  0  0
    9.4291  -14.8607   19.5139 C   0  0  2  0  0  0  0  0  0  0  0  0
    9.4930  -15.3116   18.1678 N   0  0  0  0  0  0  0  0  0  0  0  0
    9.7537  -15.8706   20.5437 C   0  0  0  0  0  0  0  0  0  0  0  0
    9.5651  -15.5201   21.7580 O   0  0  0  0  0  0  0  0  0  0  0  0
    8.5580  -19.9282   19.1280 N   0  0  0  0  0  0  0  0  0  0  0  0
    8.9207  -19.6579   20.4769 C   0  0  0  0  0  0  0  0  0  0  0  0
    7.9836  -19.5937   21.3262 O   0  0  0  0  0  0  0  0  0  0  0  0
   10.3103  -19.4512   20.9368 C   0  0  0  0  0  0  0  0  0  0  0  0
   10.5237  -18.0357   21.4579 C   0  0  2  0  0  0  0  0  0  0  0  0
   10.2443  -17.1656   20.3245 N   0  0  0  0  0  0  0  0  0  0  0  0
   11.9090  -17.8747   21.9420 C   0  0  0  0  0  0  0  0  0  0  0  0
   12.3972  -18.7840   22.6562 O   0  0  0  0  0  0  0  0  0  0  0  0
   14.2259  -14.8076   18.8310 N   0  0  0  0  0  0  0  0  0  0  0  0
   14.6002  -15.8818   19.6786 C   0  0  0  0  0  0  0  0  0  0  0  0
   14.7317  -17.0158   19.1861 O   0  0  0  0  0  0  0  0  0  0  0  0
   14.8217  -15.6398   21.0927 C   0  0  0  0  0  0  0  0  0  0  0  0
   14.0812  -16.5885   22.0070 C   0  0  2  0  0  0  0  0  0  0  0  0
   12.7013  -16.7408   21.6324 N   0  0  0  0  0  0  0  0  0  0  0  0
   14.2058  -16.1852   23.4315 C   0  0  0  0  0  0  0  0  0  0  0  0
   15.3287  -16.0029   23.9568 O   0  0  0  0  0  0  0  0  0  0  0  0
   13.0858  -15.9964   24.2286 O   0  0  0  0  0  0  0  0  0  0  0  0
  2  1  1  1
  3  2  1  0
  4  2  1  0
  4  5  1  0
  5  6  1  6
  7  5  1  0
  7  8  2  0
 10 12  1  0
 10  9  1  0
 11 10  2  0
 13 12  1  6
 13 14  1  0
 14  7  1  0
 15 13  1  0
 16 15  2  0
 18 17  1  0
 19 18  2  0
 20 18  1  0
 21 20  1  6
 21 22  1  0
 22 15  1  0
 23 21  1  0
 24 23  2  0
 25 23  1  0
M  END
$$$$
