LNN.pdb
     RDKit          3D

 25 24  0  0  1  0  0  0  0  0999 V2000
    7.9498  -13.0475   21.4536 C   0  0  0  0  0  0  0  0  0  0  0  0
    8.7268  -13.3490   20.2121 C   0  0  2  0  0  0  0  0  0  0  0  0
    8.4797  -12.1785   19.2471 C   0  0  0  0  0  0  0  0  0  0  0  0
    8.3380  -14.5868   19.4870 C   0  0  0  0  0  0  0  0  0  0  0  0
    8.6547  -15.8807   20.1679 C   0  0  2  0  0  0  0  0  0  0  0  0
    8.0312  -15.9381   21.4436 N   0  0  0  0  0  0  0  0  0  0  0  0
   10.1241  -16.0434   20.1653 C   0  0  0  0  0  0  0  0  0  0  0  0
   10.6793  -16.1455   19.0189 O   0  0  0  0  0  0  0  0  0  0  0  0
   12.4842  -13.6919   18.0376 N   0  0  0  0  0  0  0  0  0  0  0  0
   12.9040  -14.5899   19.0582 C   0  0  0  0  0  0  0  0  0  0  0  0
   13.6755  -15.5342   18.7165 O   0  0  0  0  0  0  0  0  0  0  0  0
   12.4967  -14.4841   20.4753 C   0  0  0  0  0  0  0  0  0  0  0  0
   12.3924  -15.8545   21.1325 C   0  0  2  0  0  0  0  0  0  0  0  0
   10.9650  -16.0964   21.2860 N   0  0  0  0  0  0  0  0  0  0  0  0
   13.0890  -15.8494   22.4341 C   0  0  0  0  0  0  0  0  0  0  0  0
   14.3407  -15.7579   22.4365 O   0  0  0  0  0  0  0  0  0  0  0  0
   11.6317  -19.5870   25.6428 N   0  0  0  0  0  0  0  0  0  0  0  0
   10.8942  -19.2843   24.4694 C   0  0  0  0  0  0  0  0  0  0  0  0
   10.0201  -20.0822   24.0886 O   0  0  0  0  0  0  0  0  0  0  0  0
   11.1703  -18.0591   23.7414 C   0  0  0  0  0  0  0  0  0  0  0  0
   12.2011  -17.1683   24.3959 C   0  0  2  0  0  0  0  0  0  0  0  0
   12.4021  -15.9432   23.6704 N   0  0  0  0  0  0  0  0  0  0  0  0
   13.4875  -17.8815   24.6050 C   0  0  0  0  0  0  0  0  0  0  0  0
   14.0356  -18.5145   23.6728 O   0  0  0  0  0  0  0  0  0  0  0  0
   14.1260  -17.8719   25.8370 O   0  0  0  0  0  0  0  0  0  0  0  0
  2  1  1  1
  3  2  1  0
  4  2  1  0
  4  5  1  0
  5  6  1  1
  7  5  1  0
  7  8  2  0
 10 12  1  0
 10  9  1  0
 11 10  2  0
 13 12  1  1
 13 14  1  0
 14  7  1  0
 15 13  1  0
 16 15  2  0
 18 17  1  0
 19 18  2  0
 20 18  1  0
 21 20  1  6
 21 22  1  0
 22 15  1  0
 23 21  1  0
 24 23  2  0
 25 23  1  0
M  END
$$$$
