LNN.pdb
     RDKit          3D

 25 24  0  0  1  0  0  0  0  0999 V2000
    7.7184  -12.3328   18.5341 C   0  0  0  0  0  0  0  0  0  0  0  0
    7.8489  -13.4144   19.5583 C   0  0  2  0  0  0  0  0  0  0  0  0
    7.5437  -12.7671   20.9185 C   0  0  0  0  0  0  0  0  0  0  0  0
    9.1929  -14.0381   19.6767 C   0  0  0  0  0  0  0  0  0  0  0  0
    9.7567  -14.6390   18.4280 C   0  0  2  0  0  0  0  0  0  0  0  0
    8.8667  -15.6112   17.8970 N   0  0  0  0  0  0  0  0  0  0  0  0
   11.1208  -15.1192   18.7352 C   0  0  0  0  0  0  0  0  0  0  0  0
   11.2497  -16.3778   18.9147 O   0  0  0  0  0  0  0  0  0  0  0  0
   16.3991  -15.9198   18.1061 N   0  0  0  0  0  0  0  0  0  0  0  0
   15.9613  -14.6504   18.5763 C   0  0  0  0  0  0  0  0  0  0  0  0
   16.8087  -13.9371   19.1902 O   0  0  0  0  0  0  0  0  0  0  0  0
   14.5925  -14.1240   18.3908 C   0  0  0  0  0  0  0  0  0  0  0  0
   13.5603  -14.9782   19.1159 C   0  0  2  0  0  0  0  0  0  0  0  0
   12.2801  -14.3387   18.8486 N   0  0  0  0  0  0  0  0  0  0  0  0
   13.8590  -15.0204   20.5611 C   0  0  0  0  0  0  0  0  0  0  0  0
   14.3297  -13.9892   21.0998 O   0  0  0  0  0  0  0  0  0  0  0  0
   11.2646  -18.6094   22.7535 N   0  0  0  0  0  0  0  0  0  0  0  0
   11.9561  -17.5709   23.4285 C   0  0  0  0  0  0  0  0  0  0  0  0
   11.2981  -16.7169   24.0477 O   0  0  0  0  0  0  0  0  0  0  0  0
   13.4064  -17.5248   23.3852 C   0  0  0  0  0  0  0  0  0  0  0  0
   13.9678  -16.2729   22.7511 C   0  0  2  0  0  0  0  0  0  0  0  0
   13.6356  -16.1728   21.3557 N   0  0  0  0  0  0  0  0  0  0  0  0
   15.4347  -16.1643   22.9593 C   0  0  0  0  0  0  0  0  0  0  0  0
   16.2391  -16.8076   22.2457 O   0  0  0  0  0  0  0  0  0  0  0  0
   15.9647  -15.3485   23.9488 O   0  0  0  0  0  0  0  0  0  0  0  0
  2  1  1  6
  3  2  1  0
  4  2  1  0
  4  5  1  0
  5  6  1  1
  7  5  1  0
  7  8  2  0
 10 12  1  0
 10  9  1  0
 11 10  2  0
 13 12  1  6
 13 14  1  0
 14  7  1  0
 15 13  1  0
 16 15  2  0
 18 17  1  0
 19 18  2  0
 20 18  1  0
 21 20  1  6
 21 22  1  0
 22 15  1  0
 23 21  1  0
 24 23  2  0
 25 23  1  0
M  END
$$$$
