LNN.pdb
     RDKit          3D

 25 24  0  0  1  0  0  0  0  0999 V2000
    8.6258  -13.1622   18.7508 C   0  0  0  0  0  0  0  0  0  0  0  0
    7.5427  -13.4207   19.7488 C   0  0  2  0  0  0  0  0  0  0  0  0
    6.7347  -12.1183   19.8636 C   0  0  0  0  0  0  0  0  0  0  0  0
    7.9938  -13.7633   21.1229 C   0  0  0  0  0  0  0  0  0  0  0  0
    8.8404  -14.9896   21.2559 C   0  0  2  0  0  0  0  0  0  0  0  0
    8.3547  -16.0243   20.4116 N   0  0  0  0  0  0  0  0  0  0  0  0
    8.9272  -15.3236   22.6934 C   0  0  0  0  0  0  0  0  0  0  0  0
    9.4140  -14.4203   23.4550 O   0  0  0  0  0  0  0  0  0  0  0  0
    6.4957  -16.9021   23.1374 N   0  0  0  0  0  0  0  0  0  0  0  0
    6.5823  -17.6566   24.3405 C   0  0  0  0  0  0  0  0  0  0  0  0
    5.5713  -18.3469   24.6646 O   0  0  0  0  0  0  0  0  0  0  0  0
    7.7695  -17.6805   25.2211 C   0  0  0  0  0  0  0  0  0  0  0  0
    8.8771  -16.7775   24.6933 C   0  0  2  0  0  0  0  0  0  0  0  0
    8.5319  -16.5232   23.3021 N   0  0  0  0  0  0  0  0  0  0  0  0
   10.1852  -17.4505   24.8176 C   0  0  0  0  0  0  0  0  0  0  0  0
   10.5176  -17.8979   25.9421 O   0  0  0  0  0  0  0  0  0  0  0  0
   11.1096  -20.4678   23.1909 N   0  0  0  0  0  0  0  0  0  0  0  0
   12.1579  -20.0628   22.3252 C   0  0  0  0  0  0  0  0  0  0  0  0
   12.4461  -20.7845   21.3547 O   0  0  0  0  0  0  0  0  0  0  0  0
   12.8684  -18.8239   22.5852 C   0  0  0  0  0  0  0  0  0  0  0  0
   12.4181  -18.1017   23.8342 C   0  0  2  0  0  0  0  0  0  0  0  0
   11.0719  -17.6085   23.7231 N   0  0  0  0  0  0  0  0  0  0  0  0
   13.3567  -17.0114   24.2048 C   0  0  0  0  0  0  0  0  0  0  0  0
   14.5478  -17.2574   24.5065 O   0  0  0  0  0  0  0  0  0  0  0  0
   12.9487  -15.6854   24.2298 O   0  0  0  0  0  0  0  0  0  0  0  0
  2  1  1  6
  3  2  1  0
  4  2  1  0
  4  5  1  0
  5  6  1  6
  7  5  1  0
  7  8  2  0
 10 12  1  0
 10  9  1  0
 11 10  2  0
 13 12  1  6
 13 14  1  0
 14  7  1  0
 15 13  1  0
 16 15  2  0
 18 17  1  0
 19 18  2  0
 20 18  1  0
 21 20  1  6
 21 22  1  0
 22 15  1  0
 23 21  1  0
 24 23  2  0
 25 23  1  0
M  END
$$$$
