WFF.pdb
     RDKit          3D

 37 40  0  0  1  0  0  0  0  0999 V2000
   24.5143  -14.7952  -19.9235 N   0  0  0  0  0  0  0  0  0  0  0  0
   23.6881  -14.8872  -18.7465 C   0  0  1  0  0  0  0  0  0  0  0  0
   22.2051  -14.6688  -19.0453 C   0  0  0  0  0  0  0  0  0  0  0  0
   22.0436  -13.3173  -19.6328 C   0  0  0  0  0  0  0  0  0  0  0  0
   22.9295  -12.2403  -19.4811 C   0  0  0  0  0  0  0  0  0  0  0  0
   22.4325  -11.1821  -20.1261 N   0  0  0  0  0  0  0  0  0  0  0  0
   21.2538  -11.4733  -20.7132 C   0  0  0  0  0  0  0  0  0  0  0  0
   20.3755  -10.7357  -21.4807 C   0  0  0  0  0  0  0  0  0  0  0  0
   19.2372  -11.3458  -21.9477 C   0  0  0  0  0  0  0  0  0  0  0  0
   18.9759  -12.6644  -21.6580 C   0  0  0  0  0  0  0  0  0  0  0  0
   19.8606  -13.3968  -20.8881 C   0  0  0  0  0  0  0  0  0  0  0  0
   21.0156  -12.8144  -20.4006 C   0  0  0  0  0  0  0  0  0  0  0  0
   23.7862  -16.1846  -18.0493 C   0  0  0  0  0  0  0  0  0  0  0  0
   23.9796  -17.2262  -18.7004 O   0  0  0  0  0  0  0  0  0  0  0  0
   23.6612  -16.2287  -16.6518 N   0  0  0  0  0  0  0  0  0  0  0  0
   23.8053  -17.5215  -15.9606 C   0  0  1  0  0  0  0  0  0  0  0  0
   24.9957  -17.3821  -15.0710 C   0  0  0  0  0  0  0  0  0  0  0  0
   26.3173  -17.4185  -15.7129 C   0  0  0  0  0  0  0  0  0  0  0  0
   26.9779  -16.2840  -16.1136 C   0  0  0  0  0  0  0  0  0  0  0  0
   28.2110  -16.3737  -16.7249 C   0  0  0  0  0  0  0  0  0  0  0  0
   28.8275  -17.5700  -16.9586 C   0  0  0  0  0  0  0  0  0  0  0  0
   28.1803  -18.7085  -16.5638 C   0  0  0  0  0  0  0  0  0  0  0  0
   26.9609  -18.6279  -15.9590 C   0  0  0  0  0  0  0  0  0  0  0  0
   22.5427  -17.7854  -15.2624 C   0  0  0  0  0  0  0  0  0  0  0  0
   22.1272  -16.8814  -14.4457 O   0  0  0  0  0  0  0  0  0  0  0  0
   21.7121  -18.9244  -15.3852 N   0  0  0  0  0  0  0  0  0  0  0  0
   20.4090  -18.9462  -14.7113 C   0  0  1  0  0  0  0  0  0  0  0  0
   19.4543  -18.0789  -15.5314 C   0  0  0  0  0  0  0  0  0  0  0  0
   19.2733  -18.5746  -16.8978 C   0  0  0  0  0  0  0  0  0  0  0  0
   18.3892  -19.5900  -17.1830 C   0  0  0  0  0  0  0  0  0  0  0  0
   18.2618  -20.0054  -18.4962 C   0  0  0  0  0  0  0  0  0  0  0  0
   18.9837  -19.4447  -19.5313 C   0  0  0  0  0  0  0  0  0  0  0  0
   19.8778  -18.4198  -19.2510 C   0  0  0  0  0  0  0  0  0  0  0  0
   19.9989  -18.0117  -17.9402 C   0  0  0  0  0  0  0  0  0  0  0  0
   19.9237  -20.3186  -14.6488 C   0  0  0  0  0  0  0  0  0  0  0  0
   20.5588  -21.2297  -15.2256 O   0  0  0  0  0  0  0  0  0  0  0  0
   18.7807  -20.6407  -13.9680 O   0  0  0  0  0  0  0  0  0  0  0  0
  2  1  1  6
  3  2  1  0
  4  5  2  0
  4  3  1  0
  6  5  1  0
  7 12  2  0
  7  6  1  0
  8  7  1  0
  9 10  1  0
  9  8  2  0
 10 11  2  0
 11 12  1  0
 12  4  1  0
 13  2  1  0
 14 13  2  0
 15 13  1  0
 16 24  1  0
 16 15  1  0
 16 17  1  1
 18 17  1  0
 19 18  2  0
 20 19  1  0
 21 20  2  0
 21 22  1  0
 22 23  2  0
 23 18  1  0
 24 26  1  0
 25 24  2  0
 26 27  1  0
 27 28  1  6
 28 29  1  0
 29 30  2  0
 29 34  1  0
 30 31  1  0
 31 32  2  0
 33 32  1  0
 34 33  2  0
 35 37  1  0
 35 27  1  0
 36 35  2  0
M  END
$$$$
