WFF.pdb
     RDKit          3D

 37 40  0  0  1  0  0  0  0  0999 V2000
   27.1413  -20.3539  -18.2160 N   0  0  0  0  0  0  0  0  0  0  0  0
   25.8859  -19.7266  -17.8893 C   0  0  1  0  0  0  0  0  0  0  0  0
   24.8022  -19.9904  -18.9344 C   0  0  0  0  0  0  0  0  0  0  0  0
   25.0523  -19.1051  -20.0969 C   0  0  0  0  0  0  0  0  0  0  0  0
   25.6029  -19.4942  -21.3271 C   0  0  0  0  0  0  0  0  0  0  0  0
   25.7050  -18.4180  -22.1107 N   0  0  0  0  0  0  0  0  0  0  0  0
   25.2541  -17.3108  -21.4865 C   0  0  0  0  0  0  0  0  0  0  0  0
   25.1471  -15.9897  -21.8709 C   0  0  0  0  0  0  0  0  0  0  0  0
   24.6214  -15.0858  -20.9805 C   0  0  0  0  0  0  0  0  0  0  0  0
   24.2094  -15.4865  -19.7314 C   0  0  0  0  0  0  0  0  0  0  0  0
   24.3202  -16.8119  -19.3534 C   0  0  0  0  0  0  0  0  0  0  0  0
   24.8455  -17.7485  -20.2238 C   0  0  0  0  0  0  0  0  0  0  0  0
   25.3262  -20.1533  -16.5917 C   0  0  0  0  0  0  0  0  0  0  0  0
   25.2029  -21.3641  -16.3368 O   0  0  0  0  0  0  0  0  0  0  0  0
   24.9389  -19.1830  -15.6542 N   0  0  0  0  0  0  0  0  0  0  0  0
   24.3638  -19.6180  -14.3696 C   0  0  1  0  0  0  0  0  0  0  0  0
   25.2187  -19.0086  -13.3086 C   0  0  0  0  0  0  0  0  0  0  0  0
   26.5013  -19.6674  -13.0237 C   0  0  0  0  0  0  0  0  0  0  0  0
   27.6621  -19.3448  -13.6814 C   0  0  0  0  0  0  0  0  0  0  0  0
   28.8373  -20.0037  -13.3864 C   0  0  0  0  0  0  0  0  0  0  0  0
   28.9074  -20.9904  -12.4444 C   0  0  0  0  0  0  0  0  0  0  0  0
   27.7579  -21.3215  -11.7811 C   0  0  0  0  0  0  0  0  0  0  0  0
   26.5922  -20.6747  -12.0674 C   0  0  0  0  0  0  0  0  0  0  0  0
   22.9615  -19.1885  -14.3523 C   0  0  0  0  0  0  0  0  0  0  0  0
   22.7393  -17.9206  -14.3513 O   0  0  0  0  0  0  0  0  0  0  0  0
   21.8091  -20.0096  -14.3439 N   0  0  0  0  0  0  0  0  0  0  0  0
   20.4790  -19.3903  -14.3477 C   0  0  1  0  0  0  0  0  0  0  0  0
   20.0301  -19.2777  -15.8044 C   0  0  0  0  0  0  0  0  0  0  0  0
   19.9476  -20.5787  -16.4724 C   0  0  0  0  0  0  0  0  0  0  0  0
   18.8073  -21.3470  -16.4117 C   0  0  0  0  0  0  0  0  0  0  0  0
   18.7942  -22.5627  -17.0713 C   0  0  0  0  0  0  0  0  0  0  0  0
   19.8757  -23.0369  -17.7870 C   0  0  0  0  0  0  0  0  0  0  0  0
   21.0297  -22.2672  -17.8525 C   0  0  0  0  0  0  0  0  0  0  0  0
   21.0348  -21.0573  -17.1926 C   0  0  0  0  0  0  0  0  0  0  0  0
   19.5566  -20.2295  -13.5941 C   0  0  0  0  0  0  0  0  0  0  0  0
   19.9408  -21.3361  -13.1537 O   0  0  0  0  0  0  0  0  0  0  0  0
   18.2686  -19.8346  -13.3519 O   0  0  0  0  0  0  0  0  0  0  0  0
  2  1  1  6
  3  2  1  0
  4  5  2  0
  4  3  1  0
  6  5  1  0
  7 12  2  0
  7  6  1  0
  8  7  1  0
  9 10  1  0
  9  8  2  0
 10 11  2  0
 11 12  1  0
 12  4  1  0
 13  2  1  0
 14 13  2  0
 15 13  1  0
 16 24  1  0
 16 15  1  0
 16 17  1  1
 18 17  1  0
 19 18  2  0
 20 19  1  0
 21 20  2  0
 21 22  1  0
 22 23  2  0
 23 18  1  0
 24 26  1  0
 25 24  2  0
 26 27  1  0
 27 28  1  6
 28 29  1  0
 29 30  2  0
 29 34  1  0
 30 31  1  0
 31 32  2  0
 33 32  1  0
 34 33  2  0
 35 37  1  0
 35 27  1  0
 36 35  2  0
M  END
$$$$
