WFF.pdb
     RDKit          3D

 37 40  0  0  1  0  0  0  0  0999 V2000
   28.3661  -21.9020  -16.8102 N   0  0  0  0  0  0  0  0  0  0  0  0
   27.5879  -21.0910  -15.9086 C   0  0  1  0  0  0  0  0  0  0  0  0
   26.1063  -21.0459  -16.2813 C   0  0  0  0  0  0  0  0  0  0  0  0
   25.8805  -19.8636  -17.1467 C   0  0  0  0  0  0  0  0  0  0  0  0
   26.8188  -18.8618  -17.4364 C   0  0  0  0  0  0  0  0  0  0  0  0
   26.2421  -17.9480  -18.2206 N   0  0  0  0  0  0  0  0  0  0  0  0
   24.9591  -18.2675  -18.4863 C   0  0  0  0  0  0  0  0  0  0  0  0
   23.9724  -17.6600  -19.2360 C   0  0  0  0  0  0  0  0  0  0  0  0
   22.7411  -18.2630  -19.3154 C   0  0  0  0  0  0  0  0  0  0  0  0
   22.4941  -19.4477  -18.6624 C   0  0  0  0  0  0  0  0  0  0  0  0
   23.4877  -20.0500  -17.9129 C   0  0  0  0  0  0  0  0  0  0  0  0
   24.7384  -19.4705  -17.8102 C   0  0  0  0  0  0  0  0  0  0  0  0
   27.6506  -21.5351  -14.5023 C   0  0  0  0  0  0  0  0  0  0  0  0
   27.2027  -22.6503  -14.1829 O   0  0  0  0  0  0  0  0  0  0  0  0
   28.2195  -20.6906  -13.5361 N   0  0  0  0  0  0  0  0  0  0  0  0
   27.8829  -20.8973  -12.1170 C   0  0  1  0  0  0  0  0  0  0  0  0
   28.8848  -20.1121  -11.3377 C   0  0  0  0  0  0  0  0  0  0  0  0
   28.6877  -20.0338   -9.8834 C   0  0  0  0  0  0  0  0  0  0  0  0
   27.8867  -19.0876   -9.2941 C   0  0  0  0  0  0  0  0  0  0  0  0
   27.7466  -19.0481   -7.9226 C   0  0  0  0  0  0  0  0  0  0  0  0
   28.3830  -19.9295   -7.0955 C   0  0  0  0  0  0  0  0  0  0  0  0
   29.1839  -20.8781   -7.6697 C   0  0  0  0  0  0  0  0  0  0  0  0
   29.3276  -20.9232   -9.0249 C   0  0  0  0  0  0  0  0  0  0  0  0
   26.4908  -20.4734  -11.9331 C   0  0  0  0  0  0  0  0  0  0  0  0
   26.1612  -19.3267  -12.4160 O   0  0  0  0  0  0  0  0  0  0  0  0
   25.4517  -21.1848  -11.2876 N   0  0  0  0  0  0  0  0  0  0  0  0
   24.2535  -20.4670  -10.8387 C   0  0  1  0  0  0  0  0  0  0  0  0
   23.4393  -20.1114  -12.0824 C   0  0  0  0  0  0  0  0  0  0  0  0
   23.3258  -21.2294  -13.0220 C   0  0  0  0  0  0  0  0  0  0  0  0
   22.6726  -21.0933  -14.2258 C   0  0  0  0  0  0  0  0  0  0  0  0
   22.6084  -22.1874  -15.0697 C   0  0  0  0  0  0  0  0  0  0  0  0
   23.1712  -23.4085  -14.7552 C   0  0  0  0  0  0  0  0  0  0  0  0
   23.8316  -23.5533  -13.5422 C   0  0  0  0  0  0  0  0  0  0  0  0
   23.8913  -22.4585  -12.7071 C   0  0  0  0  0  0  0  0  0  0  0  0
   23.4809  -21.3290   -9.9537 C   0  0  0  0  0  0  0  0  0  0  0  0
   22.3220  -20.9970   -9.6181 O   0  0  0  0  0  0  0  0  0  0  0  0
   23.9943  -22.5046   -9.4762 O   0  0  0  0  0  0  0  0  0  0  0  0
  2  1  1  6
  3  2  1  0
  4  5  2  0
  4  3  1  0
  6  5  1  0
  7 12  2  0
  7  6  1  0
  8  7  1  0
  9 10  1  0
  9  8  2  0
 10 11  2  0
 11 12  1  0
 12  4  1  0
 13  2  1  0
 14 13  2  0
 15 13  1  0
 16 24  1  0
 16 15  1  0
 16 17  1  1
 18 17  1  0
 19 18  2  0
 20 19  1  0
 21 20  2  0
 21 22  1  0
 22 23  2  0
 23 18  1  0
 24 26  1  0
 25 24  2  0
 26 27  1  0
 27 28  1  6
 28 29  1  0
 29 30  2  0
 29 34  1  0
 30 31  1  0
 31 32  2  0
 33 32  1  0
 34 33  2  0
 35 37  1  0
 35 27  1  0
 36 35  2  0
M  END
$$$$
