WFF.pdb
     RDKit          3D

 37 40  0  0  1  0  0  0  0  0999 V2000
   29.4145  -21.8808  -16.0616 N   0  0  0  0  0  0  0  0  0  0  0  0
   28.4963  -21.8094  -14.9535 C   0  0  1  0  0  0  0  0  0  0  0  0
   29.0012  -20.9134  -13.8227 C   0  0  0  0  0  0  0  0  0  0  0  0
   30.1098  -21.6157  -13.1331 C   0  0  0  0  0  0  0  0  0  0  0  0
   31.0767  -22.4294  -13.7421 C   0  0  0  0  0  0  0  0  0  0  0  0
   31.8875  -22.9121  -12.7976 N   0  0  0  0  0  0  0  0  0  0  0  0
   31.5311  -22.4740  -11.5728 C   0  0  0  0  0  0  0  0  0  0  0  0
   32.0481  -22.6817  -10.3102 C   0  0  0  0  0  0  0  0  0  0  0  0
   31.4430  -22.0663   -9.2420 C   0  0  0  0  0  0  0  0  0  0  0  0
   30.3448  -21.2592   -9.4242 C   0  0  0  0  0  0  0  0  0  0  0  0
   29.8324  -21.0562  -10.6923 C   0  0  0  0  0  0  0  0  0  0  0  0
   30.4156  -21.6607  -11.7901 C   0  0  0  0  0  0  0  0  0  0  0  0
   27.1584  -21.3045  -15.3195 C   0  0  0  0  0  0  0  0  0  0  0  0
   27.0475  -20.2297  -15.9349 O   0  0  0  0  0  0  0  0  0  0  0  0
   26.0202  -22.0476  -14.9689 N   0  0  0  0  0  0  0  0  0  0  0  0
   24.6876  -21.5174  -15.3051 C   0  0  1  0  0  0  0  0  0  0  0  0
   24.1301  -22.4336  -16.3432 C   0  0  0  0  0  0  0  0  0  0  0  0
   22.7435  -22.1963  -16.7686 C   0  0  0  0  0  0  0  0  0  0  0  0
   22.3924  -21.1725  -17.6129 C   0  0  0  0  0  0  0  0  0  0  0  0
   21.0737  -20.9840  -17.9704 C   0  0  0  0  0  0  0  0  0  0  0  0
   20.0687  -21.7887  -17.5138 C   0  0  0  0  0  0  0  0  0  0  0  0
   20.4048  -22.8131  -16.6721 C   0  0  0  0  0  0  0  0  0  0  0  0
   21.7063  -23.0057  -16.3140 C   0  0  0  0  0  0  0  0  0  0  0  0
   23.9158  -21.4566  -14.0593 C   0  0  0  0  0  0  0  0  0  0  0  0
   23.9653  -22.4882  -13.2910 O   0  0  0  0  0  0  0  0  0  0  0  0
   23.1195  -20.3849  -13.5907 N   0  0  0  0  0  0  0  0  0  0  0  0
   22.3237  -20.5543  -12.3698 C   0  0  1  0  0  0  0  0  0  0  0  0
   22.7893  -19.4972  -11.3688 C   0  0  0  0  0  0  0  0  0  0  0  0
   24.0071  -19.8911  -10.6567 C   0  0  0  0  0  0  0  0  0  0  0  0
   23.9630  -20.3694   -9.3669 C   0  0  0  0  0  0  0  0  0  0  0  0
   25.1500  -20.7303   -8.7553 C   0  0  0  0  0  0  0  0  0  0  0  0
   26.3755  -20.6306   -9.3837 C   0  0  0  0  0  0  0  0  0  0  0  0
   26.4279  -20.1487  -10.6850 C   0  0  0  0  0  0  0  0  0  0  0  0
   25.2409  -19.7914  -11.2873 C   0  0  0  0  0  0  0  0  0  0  0  0
   20.9135  -20.3695  -12.6865 C   0  0  0  0  0  0  0  0  0  0  0  0
   20.5819  -19.6281  -13.6385 O   0  0  0  0  0  0  0  0  0  0  0  0
   19.9325  -20.9929  -11.9636 O   0  0  0  0  0  0  0  0  0  0  0  0
  2  1  1  6
  3  2  1  0
  4  5  2  0
  4  3  1  0
  6  5  1  0
  7 12  2  0
  7  6  1  0
  8  7  1  0
  9 10  1  0
  9  8  2  0
 10 11  2  0
 11 12  1  0
 12  4  1  0
 13  2  1  0
 14 13  2  0
 15 13  1  0
 16 24  1  0
 16 15  1  0
 16 17  1  6
 18 17  1  0
 19 18  2  0
 20 19  1  0
 21 20  2  0
 21 22  1  0
 22 23  2  0
 23 18  1  0
 24 26  1  0
 25 24  2  0
 26 27  1  0
 27 28  1  1
 28 29  1  0
 29 30  2  0
 29 34  1  0
 30 31  1  0
 31 32  2  0
 33 32  1  0
 34 33  2  0
 35 37  1  0
 35 27  1  0
 36 35  2  0
M  END
$$$$
