WFF.pdb
     RDKit          3D

 37 40  0  0  1  0  0  0  0  0999 V2000
   23.7925  -18.3285  -14.5073 N   0  0  0  0  0  0  0  0  0  0  0  0
   24.7114  -19.2895  -13.9519 C   0  0  1  0  0  0  0  0  0  0  0  0
   26.1255  -19.1511  -14.5152 C   0  0  0  0  0  0  0  0  0  0  0  0
   26.0309  -19.0628  -15.9920 C   0  0  0  0  0  0  0  0  0  0  0  0
   26.7406  -18.1736  -16.8127 C   0  0  0  0  0  0  0  0  0  0  0  0
   26.3678  -18.3689  -18.0797 N   0  0  0  0  0  0  0  0  0  0  0  0
   25.4411  -19.3442  -18.1747 C   0  0  0  0  0  0  0  0  0  0  0  0
   24.7676  -19.9037  -19.2415 C   0  0  0  0  0  0  0  0  0  0  0  0
   23.8709  -20.9145  -18.9964 C   0  0  0  0  0  0  0  0  0  0  0  0
   23.6470  -21.3617  -17.7155 C   0  0  0  0  0  0  0  0  0  0  0  0
   24.3255  -20.7959  -16.6519 C   0  0  0  0  0  0  0  0  0  0  0  0
   25.2345  -19.7759  -16.8618 C   0  0  0  0  0  0  0  0  0  0  0  0
   24.8384  -19.2130  -12.4832 C   0  0  0  0  0  0  0  0  0  0  0  0
   24.8300  -18.1063  -11.9162 O   0  0  0  0  0  0  0  0  0  0  0  0
   24.9662  -20.3961  -11.7386 N   0  0  0  0  0  0  0  0  0  0  0  0
   24.9456  -20.3219  -10.2676 C   0  0  1  0  0  0  0  0  0  0  0  0
   23.9092  -21.2987   -9.8207 C   0  0  0  0  0  0  0  0  0  0  0  0
   23.7684  -21.5078   -8.3728 C   0  0  0  0  0  0  0  0  0  0  0  0
   24.4969  -22.4465   -7.6855 C   0  0  0  0  0  0  0  0  0  0  0  0
   24.3164  -22.6130   -6.3283 C   0  0  0  0  0  0  0  0  0  0  0  0
   23.4232  -21.8688   -5.6112 C   0  0  0  0  0  0  0  0  0  0  0  0
   22.6911  -20.9294   -6.2838 C   0  0  0  0  0  0  0  0  0  0  0  0
   22.8637  -20.7591   -7.6256 C   0  0  0  0  0  0  0  0  0  0  0  0
   26.3051  -20.6089   -9.7978 C   0  0  0  0  0  0  0  0  0  0  0  0
   26.9381  -21.5612  -10.3888 O   0  0  0  0  0  0  0  0  0  0  0  0
   27.0164  -19.9524   -8.7655 N   0  0  0  0  0  0  0  0  0  0  0  0
   28.1670  -20.6169   -8.1435 C   0  0  1  0  0  0  0  0  0  0  0  0
   29.1135  -19.5246   -7.6462 C   0  0  0  0  0  0  0  0  0  0  0  0
   28.8625  -19.1513   -6.2522 C   0  0  0  0  0  0  0  0  0  0  0  0
   28.0510  -18.0881   -5.9276 C   0  0  0  0  0  0  0  0  0  0  0  0
   27.8506  -17.7942   -4.5909 C   0  0  0  0  0  0  0  0  0  0  0  0
   28.4300  -18.5217   -3.5702 C   0  0  0  0  0  0  0  0  0  0  0  0
   29.2501  -19.5957   -3.8902 C   0  0  0  0  0  0  0  0  0  0  0  0
   29.4447  -19.8820   -5.2242 C   0  0  0  0  0  0  0  0  0  0  0  0
   27.7046  -21.4355   -7.0303 C   0  0  0  0  0  0  0  0  0  0  0  0
   27.1928  -20.8894   -6.0273 O   0  0  0  0  0  0  0  0  0  0  0  0
   27.8152  -22.7996   -7.0538 O   0  0  0  0  0  0  0  0  0  0  0  0
  2  1  1  6
  3  2  1  0
  4  5  2  0
  4  3  1  0
  6  5  1  0
  7 12  2  0
  7  6  1  0
  8  7  1  0
  9 10  1  0
  9  8  2  0
 10 11  2  0
 11 12  1  0
 12  4  1  0
 13  2  1  0
 14 13  2  0
 15 13  1  0
 16 24  1  0
 16 15  1  0
 16 17  1  1
 18 17  1  0
 19 18  2  0
 20 19  1  0
 21 20  2  0
 21 22  1  0
 22 23  2  0
 23 18  1  0
 24 26  1  0
 25 24  2  0
 26 27  1  0
 27 28  1  1
 28 29  1  0
 29 30  2  0
 29 34  1  0
 30 31  1  0
 31 32  2  0
 33 32  1  0
 34 33  2  0
 35 37  1  0
 35 27  1  0
 36 35  2  0
M  END
$$$$
