WFF.pdb
     RDKit          3D

 37 40  0  0  1  0  0  0  0  0999 V2000
   22.6422    5.1373   -0.0376 N   0  0  0  0  0  0  0  0  0  0  0  0
   23.5695    4.8268    1.0208 C   0  0  1  0  0  0  0  0  0  0  0  0
   23.6761    5.9417    2.0609 C   0  0  0  0  0  0  0  0  0  0  0  0
   24.2459    7.1404    1.4004 C   0  0  0  0  0  0  0  0  0  0  0  0
   23.5221    8.1266    0.7138 C   0  0  0  0  0  0  0  0  0  0  0  0
   24.3794    9.0281    0.2290 N   0  0  0  0  0  0  0  0  0  0  0  0
   25.6526    8.7156    0.5455 C   0  0  0  0  0  0  0  0  0  0  0  0
   26.8644    9.3235    0.2871 C   0  0  0  0  0  0  0  0  0  0  0  0
   28.0095    8.7406    0.7717 C   0  0  0  0  0  0  0  0  0  0  0  0
   27.9525    7.5755    1.4998 C   0  0  0  0  0  0  0  0  0  0  0  0
   26.7347    6.9723    1.7543 C   0  0  0  0  0  0  0  0  0  0  0  0
   25.5622    7.5308    1.2809 C   0  0  0  0  0  0  0  0  0  0  0  0
   23.2364    3.5950    1.7628 C   0  0  0  0  0  0  0  0  0  0  0  0
   22.0611    3.3740    2.1034 O   0  0  0  0  0  0  0  0  0  0  0  0
   24.2546    2.6808    2.0760 N   0  0  0  0  0  0  0  0  0  0  0  0
   23.9075    1.4385    2.7873 C   0  0  1  0  0  0  0  0  0  0  0  0
   24.5828    0.3353    2.0424 C   0  0  0  0  0  0  0  0  0  0  0  0
   24.5316   -1.0053    2.6426 C   0  0  0  0  0  0  0  0  0  0  0  0
   23.4145   -1.8008    2.5848 C   0  0  0  0  0  0  0  0  0  0  0  0
   23.4135   -3.0463    3.1773 C   0  0  0  0  0  0  0  0  0  0  0  0
   24.5004   -3.5440    3.8382 C   0  0  0  0  0  0  0  0  0  0  0  0
   25.6206   -2.7617    3.9029 C   0  0  0  0  0  0  0  0  0  0  0  0
   25.6291   -1.5292    3.3198 C   0  0  0  0  0  0  0  0  0  0  0  0
   24.3420    1.5973    4.1791 C   0  0  0  0  0  0  0  0  0  0  0  0
   25.5746    1.9133    4.3735 O   0  0  0  0  0  0  0  0  0  0  0  0
   23.5584    1.4507    5.3483 N   0  0  0  0  0  0  0  0  0  0  0  0
   24.2046    1.5054    6.6644 C   0  0  1  0  0  0  0  0  0  0  0  0
   23.3173    2.3529    7.5757 C   0  0  0  0  0  0  0  0  0  0  0  0
   23.8544    2.4747    8.9330 C   0  0  0  0  0  0  0  0  0  0  0  0
   24.7477    3.4671    9.2664 C   0  0  0  0  0  0  0  0  0  0  0  0
   25.2102    3.5293   10.5685 C   0  0  0  0  0  0  0  0  0  0  0  0
   24.8138    2.6385   11.5463 C   0  0  0  0  0  0  0  0  0  0  0  0
   23.9128    1.6343   11.2172 C   0  0  0  0  0  0  0  0  0  0  0  0
   23.4568    1.5792    9.9178 C   0  0  0  0  0  0  0  0  0  0  0  0
   24.3331    0.1536    7.1927 C   0  0  0  0  0  0  0  0  0  0  0  0
   23.3917   -0.6595    7.0564 O   0  0  0  0  0  0  0  0  0  0  0  0
   25.4684   -0.2545    7.8394 O   0  0  0  0  0  0  0  0  0  0  0  0
  2  1  1  6
  3  2  1  0
  4  5  2  0
  4  3  1  0
  6  5  1  0
  7 12  2  0
  7  6  1  0
  8  7  1  0
  9 10  1  0
  9  8  2  0
 10 11  2  0
 11 12  1  0
 12  4  1  0
 13  2  1  0
 14 13  2  0
 15 13  1  0
 16 24  1  0
 16 15  1  0
 16 17  1  6
 18 17  1  0
 19 18  2  0
 20 19  1  0
 21 20  2  0
 21 22  1  0
 22 23  2  0
 23 18  1  0
 24 26  1  0
 25 24  2  0
 26 27  1  0
 27 28  1  1
 28 29  1  0
 29 30  2  0
 29 34  1  0
 30 31  1  0
 31 32  2  0
 33 32  1  0
 34 33  2  0
 35 37  1  0
 35 27  1  0
 36 35  2  0
M  END
$$$$
