WFF.pdb
     RDKit          3D

 37 40  0  0  1  0  0  0  0  0999 V2000
   25.7527  -18.8789  -13.8412 N   0  0  0  0  0  0  0  0  0  0  0  0
   25.2058  -19.6002  -12.7200 C   0  0  1  0  0  0  0  0  0  0  0  0
   24.7508  -21.0120  -13.0890 C   0  0  0  0  0  0  0  0  0  0  0  0
   23.7592  -20.9087  -14.1862 C   0  0  0  0  0  0  0  0  0  0  0  0
   23.8839  -21.4684  -15.4665 C   0  0  0  0  0  0  0  0  0  0  0  0
   22.8098  -21.1356  -16.1864 N   0  0  0  0  0  0  0  0  0  0  0  0
   21.9536  -20.3785  -15.4706 C   0  0  0  0  0  0  0  0  0  0  0  0
   20.7314  -19.8070  -15.7612 C   0  0  0  0  0  0  0  0  0  0  0  0
   20.0938  -19.0841  -14.7831 C   0  0  0  0  0  0  0  0  0  0  0  0
   20.6593  -18.9315  -13.5390 C   0  0  0  0  0  0  0  0  0  0  0  0
   21.8842  -19.5068  -13.2555 C   0  0  0  0  0  0  0  0  0  0  0  0
   22.5545  -20.2402  -14.2165 C   0  0  0  0  0  0  0  0  0  0  0  0
   26.1446  -19.7468  -11.5903 C   0  0  0  0  0  0  0  0  0  0  0  0
   27.3494  -19.9642  -11.8085 O   0  0  0  0  0  0  0  0  0  0  0  0
   25.6654  -19.6370  -10.2755 N   0  0  0  0  0  0  0  0  0  0  0  0
   26.6266  -19.6542   -9.1594 C   0  0  1  0  0  0  0  0  0  0  0  0
   25.9752  -18.9066   -8.0438 C   0  0  0  0  0  0  0  0  0  0  0  0
   26.7164  -18.8159   -6.7779 C   0  0  0  0  0  0  0  0  0  0  0  0
   26.4678  -19.6451   -5.7127 C   0  0  0  0  0  0  0  0  0  0  0  0
   27.1824  -19.5090   -4.5409 C   0  0  0  0  0  0  0  0  0  0  0  0
   28.1547  -18.5629   -4.3814 C   0  0  0  0  0  0  0  0  0  0  0  0
   28.4129  -17.7303   -5.4354 C   0  0  0  0  0  0  0  0  0  0  0  0
   27.7105  -17.8585   -6.5970 C   0  0  0  0  0  0  0  0  0  0  0  0
   26.9278  -21.0592   -8.8654 C   0  0  0  0  0  0  0  0  0  0  0  0
   25.9423  -21.8867   -8.8977 O   0  0  0  0  0  0  0  0  0  0  0  0
   28.1877  -21.6233   -8.5539 N   0  0  0  0  0  0  0  0  0  0  0  0
   28.2522  -22.8657   -7.7762 C   0  0  1  0  0  0  0  0  0  0  0  0
   29.5560  -22.8403   -6.9790 C   0  0  0  0  0  0  0  0  0  0  0  0
   30.7350  -22.6629   -7.8298 C   0  0  0  0  0  0  0  0  0  0  0  0
   31.8734  -22.0471   -7.3616 C   0  0  0  0  0  0  0  0  0  0  0  0
   32.9537  -21.9186   -8.2158 C   0  0  0  0  0  0  0  0  0  0  0  0
   32.9377  -22.3815   -9.5167 C   0  0  0  0  0  0  0  0  0  0  0  0
   31.7924  -23.0037   -9.9961 C   0  0  0  0  0  0  0  0  0  0  0  0
   30.7205  -23.1278   -9.1388 C   0  0  0  0  0  0  0  0  0  0  0  0
   27.1070  -22.9296   -6.8776 C   0  0  0  0  0  0  0  0  0  0  0  0
   26.4948  -21.8810   -6.5749 O   0  0  0  0  0  0  0  0  0  0  0  0
   26.6784  -24.1185   -6.3517 O   0  0  0  0  0  0  0  0  0  0  0  0
  2  1  1  6
  3  2  1  0
  4  5  2  0
  4  3  1  0
  6  5  1  0
  7 12  2  0
  7  6  1  0
  8  7  1  0
  9 10  1  0
  9  8  2  0
 10 11  2  0
 11 12  1  0
 12  4  1  0
 13  2  1  0
 14 13  2  0
 15 13  1  0
 16 24  1  0
 16 15  1  0
 16 17  1  1
 18 17  1  0
 19 18  2  0
 20 19  1  0
 21 20  2  0
 21 22  1  0
 22 23  2  0
 23 18  1  0
 24 26  1  0
 25 24  2  0
 26 27  1  0
 27 28  1  1
 28 29  1  0
 29 30  2  0
 29 34  1  0
 30 31  1  0
 31 32  2  0
 33 32  1  0
 34 33  2  0
 35 37  1  0
 35 27  1  0
 36 35  2  0
M  END
$$$$
