WFF.pdb
     RDKit          3D

 37 40  0  0  1  0  0  0  0  0999 V2000
   27.7782  -22.2043  -16.9837 N   0  0  0  0  0  0  0  0  0  0  0  0
   27.3176  -21.0792  -16.2102 C   0  0  1  0  0  0  0  0  0  0  0  0
   26.2798  -20.2362  -16.9509 C   0  0  0  0  0  0  0  0  0  0  0  0
   26.9966  -19.3053  -17.8549 C   0  0  0  0  0  0  0  0  0  0  0  0
   27.1606  -19.4619  -19.2393 C   0  0  0  0  0  0  0  0  0  0  0  0
   27.8877  -18.4426  -19.7029 N   0  0  0  0  0  0  0  0  0  0  0  0
   28.2319  -17.5938  -18.7129 C   0  0  0  0  0  0  0  0  0  0  0  0
   28.9552  -16.4188  -18.6879 C   0  0  0  0  0  0  0  0  0  0  0  0
   29.1211  -15.7737  -17.4869 C   0  0  0  0  0  0  0  0  0  0  0  0
   28.5784  -16.2859  -16.3319 C   0  0  0  0  0  0  0  0  0  0  0  0
   27.8552  -17.4639  -16.3651 C   0  0  0  0  0  0  0  0  0  0  0  0
   27.6694  -18.1402  -17.5562 C   0  0  0  0  0  0  0  0  0  0  0  0
   26.7065  -21.4532  -14.9196 C   0  0  0  0  0  0  0  0  0  0  0  0
   26.0656  -22.5142  -14.8205 O   0  0  0  0  0  0  0  0  0  0  0  0
   26.8577  -20.6040  -13.8122 N   0  0  0  0  0  0  0  0  0  0  0  0
   26.2892  -21.0105  -12.5154 C   0  0  1  0  0  0  0  0  0  0  0  0
   27.2206  -20.4841  -11.4746 C   0  0  0  0  0  0  0  0  0  0  0  0
   26.7749  -20.5656  -10.0765 C   0  0  0  0  0  0  0  0  0  0  0  0
   27.1773  -21.5665   -9.2277 C   0  0  0  0  0  0  0  0  0  0  0  0
   26.7182  -21.6055   -7.9277 C   0  0  0  0  0  0  0  0  0  0  0  0
   25.8579  -20.6705   -7.4262 C   0  0  0  0  0  0  0  0  0  0  0  0
   25.4493  -19.6672   -8.2613 C   0  0  0  0  0  0  0  0  0  0  0  0
   25.8987  -19.6220   -9.5478 C   0  0  0  0  0  0  0  0  0  0  0  0
   24.9259  -20.4734  -12.4498 C   0  0  0  0  0  0  0  0  0  0  0  0
   24.7840  -19.2128  -12.6677 O   0  0  0  0  0  0  0  0  0  0  0  0
   23.7322  -21.1838  -12.1797 N   0  0  0  0  0  0  0  0  0  0  0  0
   22.4549  -20.4632  -12.1374 C   0  0  1  0  0  0  0  0  0  0  0  0
   22.1480  -19.9906  -13.5582 C   0  0  0  0  0  0  0  0  0  0  0  0
   20.8057  -19.4183  -13.6857 C   0  0  0  0  0  0  0  0  0  0  0  0
   19.7968  -20.0898  -14.3379 C   0  0  0  0  0  0  0  0  0  0  0  0
   18.5504  -19.4951  -14.4158 C   0  0  0  0  0  0  0  0  0  0  0  0
   18.2766  -18.2576  -13.8675 C   0  0  0  0  0  0  0  0  0  0  0  0
   19.2898  -17.5741  -13.2081 C   0  0  0  0  0  0  0  0  0  0  0  0
   20.5287  -18.1735  -13.1349 C   0  0  0  0  0  0  0  0  0  0  0  0
   21.4115  -21.3632  -11.6637 C   0  0  0  0  0  0  0  0  0  0  0  0
   20.5429  -20.9434  -10.8666 O   0  0  0  0  0  0  0  0  0  0  0  0
   21.3554  -22.6682  -12.0727 O   0  0  0  0  0  0  0  0  0  0  0  0
  2  1  1  6
  3  2  1  0
  4  5  2  0
  4  3  1  0
  6  5  1  0
  7 12  2  0
  7  6  1  0
  8  7  1  0
  9 10  1  0
  9  8  2  0
 10 11  2  0
 11 12  1  0
 12  4  1  0
 13  2  1  0
 14 13  2  0
 15 13  1  0
 16 24  1  0
 16 15  1  0
 16 17  1  1
 18 17  1  0
 19 18  2  0
 20 19  1  0
 21 20  2  0
 21 22  1  0
 22 23  2  0
 23 18  1  0
 24 26  1  0
 25 24  2  0
 26 27  1  0
 27 28  1  6
 28 29  1  0
 29 30  2  0
 29 34  1  0
 30 31  1  0
 31 32  2  0
 33 32  1  0
 34 33  2  0
 35 37  1  0
 35 27  1  0
 36 35  2  0
M  END
$$$$
