WFF.pdb
     RDKit          3D

 37 40  0  0  1  0  0  0  0  0999 V2000
   38.9122  -25.3536    4.8235 N   0  0  0  0  0  0  0  0  0  0  0  0
   37.5298  -25.5073    5.1997 C   0  0  1  0  0  0  0  0  0  0  0  0
   37.3329  -26.5118    6.3348 C   0  0  0  0  0  0  0  0  0  0  0  0
   37.7131  -27.8555    5.8373 C   0  0  0  0  0  0  0  0  0  0  0  0
   38.9809  -28.4466    5.9438 C   0  0  0  0  0  0  0  0  0  0  0  0
   38.9471  -29.6432    5.3524 N   0  0  0  0  0  0  0  0  0  0  0  0
   37.7253  -29.9070    4.8460 C   0  0  0  0  0  0  0  0  0  0  0  0
   37.1996  -30.9874    4.1671 C   0  0  0  0  0  0  0  0  0  0  0  0
   35.8803  -30.9477    3.7880 C   0  0  0  0  0  0  0  0  0  0  0  0
   35.0971  -29.8553    4.0779 C   0  0  0  0  0  0  0  0  0  0  0  0
   35.6311  -28.7765    4.7582 C   0  0  0  0  0  0  0  0  0  0  0  0
   36.9556  -28.7820    5.1540 C   0  0  0  0  0  0  0  0  0  0  0  0
   36.8882  -24.2521    5.6379 C   0  0  0  0  0  0  0  0  0  0  0  0
   37.5477  -23.4031    6.2628 O   0  0  0  0  0  0  0  0  0  0  0  0
   35.5344  -24.0286    5.3416 N   0  0  0  0  0  0  0  0  0  0  0  0
   34.9098  -22.7617    5.7596 C   0  0  1  0  0  0  0  0  0  0  0  0
   33.8645  -22.4613    4.7374 C   0  0  0  0  0  0  0  0  0  0  0  0
   32.9990  -21.3002    4.9881 C   0  0  0  0  0  0  0  0  0  0  0  0
   31.6792  -21.4232    5.3448 C   0  0  0  0  0  0  0  0  0  0  0  0
   30.9057  -20.3007    5.5548 C   0  0  0  0  0  0  0  0  0  0  0  0
   31.4009  -19.0345    5.4225 C   0  0  0  0  0  0  0  0  0  0  0  0
   32.7149  -18.8977    5.0680 C   0  0  0  0  0  0  0  0  0  0  0  0
   33.4858  -20.0027    4.8584 C   0  0  0  0  0  0  0  0  0  0  0  0
   34.4012  -22.9552    7.1216 C   0  0  0  0  0  0  0  0  0  0  0  0
   33.8986  -24.1073    7.3989 O   0  0  0  0  0  0  0  0  0  0  0  0
   34.4030  -22.0192    8.1830 N   0  0  0  0  0  0  0  0  0  0  0  0
   33.7945  -22.3809    9.4681 C   0  0  1  0  0  0  0  0  0  0  0  0
   34.8837  -22.2799   10.5355 C   0  0  0  0  0  0  0  0  0  0  0  0
   35.7476  -23.4622   10.5747 C   0  0  0  0  0  0  0  0  0  0  0  0
   36.9832  -23.4703    9.9685 C   0  0  0  0  0  0  0  0  0  0  0  0
   37.7513  -24.6177   10.0499 C   0  0  0  0  0  0  0  0  0  0  0  0
   37.3308  -25.7537   10.7128 C   0  0  0  0  0  0  0  0  0  0  0  0
   36.0851  -25.7530   11.3267 C   0  0  0  0  0  0  0  0  0  0  0  0
   35.3260  -24.6059   11.2411 C   0  0  0  0  0  0  0  0  0  0  0  0
   32.7070  -21.4566    9.7613 C   0  0  0  0  0  0  0  0  0  0  0  0
   32.4906  -20.4887    8.9982 O   0  0  0  0  0  0  0  0  0  0  0  0
   31.9072  -21.6217   10.8598 O   0  0  0  0  0  0  0  0  0  0  0  0
  2  1  1  1
  3  2  1  0
  4  5  2  0
  4  3  1  0
  6  5  1  0
  7 12  2  0
  7  6  1  0
  8  7  1  0
  9 10  1  0
  9  8  2  0
 10 11  2  0
 11 12  1  0
 12  4  1  0
 13  2  1  0
 14 13  2  0
 15 13  1  0
 16 24  1  0
 16 15  1  0
 16 17  1  6
 18 17  1  0
 19 18  2  0
 20 19  1  0
 21 20  2  0
 21 22  1  0
 22 23  2  0
 23 18  1  0
 24 26  1  0
 25 24  2  0
 26 27  1  0
 27 28  1  1
 28 29  1  0
 29 30  2  0
 29 34  1  0
 30 31  1  0
 31 32  2  0
 33 32  1  0
 34 33  2  0
 35 37  1  0
 35 27  1  0
 36 35  2  0
M  END
$$$$
