WFF.pdb
     RDKit          3D

 37 40  0  0  1  0  0  0  0  0999 V2000
   28.2053  -21.6963  -18.7292 N   0  0  0  0  0  0  0  0  0  0  0  0
   27.6140  -20.6588  -17.9227 C   0  0  1  0  0  0  0  0  0  0  0  0
   26.4450  -19.9618  -18.6182 C   0  0  0  0  0  0  0  0  0  0  0  0
   26.9960  -18.9599  -19.5617 C   0  0  0  0  0  0  0  0  0  0  0  0
   27.6208  -19.2363  -20.7870 C   0  0  0  0  0  0  0  0  0  0  0  0
   28.0132  -18.0850  -21.3376 N   0  0  0  0  0  0  0  0  0  0  0  0
   27.6916  -17.0325  -20.5581 C   0  0  0  0  0  0  0  0  0  0  0  0
   27.8728  -15.6709  -20.6912 C   0  0  0  0  0  0  0  0  0  0  0  0
   27.4079  -14.8449  -19.6974 C   0  0  0  0  0  0  0  0  0  0  0  0
   26.7745  -15.3615  -18.5917 C   0  0  0  0  0  0  0  0  0  0  0  0
   26.5971  -16.7269  -18.4653 C   0  0  0  0  0  0  0  0  0  0  0  0
   27.0533  -17.5878  -19.4458 C   0  0  0  0  0  0  0  0  0  0  0  0
   27.1021  -21.1336  -16.6222 C   0  0  0  0  0  0  0  0  0  0  0  0
   26.4646  -22.1993  -16.5576 O   0  0  0  0  0  0  0  0  0  0  0  0
   27.3431  -20.3743  -15.4664 N   0  0  0  0  0  0  0  0  0  0  0  0
   26.6604  -20.7411  -14.2136 C   0  0  1  0  0  0  0  0  0  0  0  0
   27.4757  -20.1493  -13.1122 C   0  0  0  0  0  0  0  0  0  0  0  0
   26.9285  -20.2431  -11.7514 C   0  0  0  0  0  0  0  0  0  0  0  0
   26.3917  -19.1651  -11.0927 C   0  0  0  0  0  0  0  0  0  0  0  0
   25.9042  -19.3032   -9.8099 C   0  0  0  0  0  0  0  0  0  0  0  0
   25.9287  -20.4941   -9.1412 C   0  0  0  0  0  0  0  0  0  0  0  0
   26.4606  -21.5766   -9.7862 C   0  0  0  0  0  0  0  0  0  0  0  0
   26.9447  -21.4478  -11.0544 C   0  0  0  0  0  0  0  0  0  0  0  0
   25.2863  -20.2358  -14.3021 C   0  0  0  0  0  0  0  0  0  0  0  0
   25.1298  -19.0500  -14.7775 O   0  0  0  0  0  0  0  0  0  0  0  0
   24.0966  -20.9057  -13.9302 N   0  0  0  0  0  0  0  0  0  0  0  0
   22.8947  -20.1253  -13.6154 C   0  0  1  0  0  0  0  0  0  0  0  0
   22.3279  -19.6040  -14.9357 C   0  0  0  0  0  0  0  0  0  0  0  0
   21.9477  -20.6817  -15.8520 C   0  0  0  0  0  0  0  0  0  0  0  0
   20.7086  -21.2773  -15.7868 C   0  0  0  0  0  0  0  0  0  0  0  0
   20.4118  -22.2846  -16.6870 C   0  0  0  0  0  0  0  0  0  0  0  0
   21.3054  -22.7170  -17.6468 C   0  0  0  0  0  0  0  0  0  0  0  0
   22.5576  -22.1209  -17.7185 C   0  0  0  0  0  0  0  0  0  0  0  0
   22.8456  -21.1181  -16.8180 C   0  0  0  0  0  0  0  0  0  0  0  0
   21.9251  -20.9849  -12.9491 C   0  0  0  0  0  0  0  0  0  0  0  0
   20.8060  -20.5268  -12.6267 O   0  0  0  0  0  0  0  0  0  0  0  0
   22.2086  -22.2935  -12.6650 O   0  0  0  0  0  0  0  0  0  0  0  0
  2  1  1  6
  3  2  1  0
  4  5  2  0
  4  3  1  0
  6  5  1  0
  7 12  2  0
  7  6  1  0
  8  7  1  0
  9 10  1  0
  9  8  2  0
 10 11  2  0
 11 12  1  0
 12  4  1  0
 13  2  1  0
 14 13  2  0
 15 13  1  0
 16 24  1  0
 16 15  1  0
 16 17  1  1
 18 17  1  0
 19 18  2  0
 20 19  1  0
 21 20  2  0
 21 22  1  0
 22 23  2  0
 23 18  1  0
 24 26  1  0
 25 24  2  0
 26 27  1  0
 27 28  1  6
 28 29  1  0
 29 30  2  0
 29 34  1  0
 30 31  1  0
 31 32  2  0
 33 32  1  0
 34 33  2  0
 35 37  1  0
 35 27  1  0
 36 35  2  0
M  END
$$$$
