WFF.pdb
     RDKit          3D

 37 40  0  0  1  0  0  0  0  0999 V2000
   26.7634  -21.2891  -13.4242 N   0  0  0  0  0  0  0  0  0  0  0  0
   26.3185  -20.3273  -12.4478 C   0  0  1  0  0  0  0  0  0  0  0  0
   24.8872  -19.8514  -12.6947 C   0  0  0  0  0  0  0  0  0  0  0  0
   24.8231  -19.2549  -14.0503 C   0  0  0  0  0  0  0  0  0  0  0  0
   23.9413  -19.6285  -15.0754 C   0  0  0  0  0  0  0  0  0  0  0  0
   24.2046  -18.8915  -16.1572 N   0  0  0  0  0  0  0  0  0  0  0  0
   25.2185  -18.0314  -15.9313 C   0  0  0  0  0  0  0  0  0  0  0  0
   25.8391  -17.0795  -16.7144 C   0  0  0  0  0  0  0  0  0  0  0  0
   26.8615  -16.3429  -16.1684 C   0  0  0  0  0  0  0  0  0  0  0  0
   27.2603  -16.5477  -14.8684 C   0  0  0  0  0  0  0  0  0  0  0  0
   26.6338  -17.5036  -14.0902 C   0  0  0  0  0  0  0  0  0  0  0  0
   25.6018  -18.2639  -14.6077 C   0  0  0  0  0  0  0  0  0  0  0  0
   26.3583  -20.8258  -11.0589 C   0  0  0  0  0  0  0  0  0  0  0  0
   26.0714  -22.0111  -10.8163 O   0  0  0  0  0  0  0  0  0  0  0  0
   26.7231  -19.9526  -10.0221 N   0  0  0  0  0  0  0  0  0  0  0  0
   26.7928  -20.4675   -8.6437 C   0  0  1  0  0  0  0  0  0  0  0  0
   27.8172  -19.6364   -7.9453 C   0  0  0  0  0  0  0  0  0  0  0  0
   27.9312  -19.8007   -6.4892 C   0  0  0  0  0  0  0  0  0  0  0  0
   27.4223  -18.8886   -5.5986 C   0  0  0  0  0  0  0  0  0  0  0  0
   27.5688  -19.0826   -4.2409 C   0  0  0  0  0  0  0  0  0  0  0  0
   28.2136  -20.1690   -3.7215 C   0  0  0  0  0  0  0  0  0  0  0  0
   28.7251  -21.0860   -4.5981 C   0  0  0  0  0  0  0  0  0  0  0  0
   28.5844  -20.9011   -5.9416 C   0  0  0  0  0  0  0  0  0  0  0  0
   25.4421  -20.3834   -8.0782 C   0  0  0  0  0  0  0  0  0  0  0  0
   24.7362  -19.3573   -8.4030 O   0  0  0  0  0  0  0  0  0  0  0  0
   24.8108  -21.3091   -7.2140 N   0  0  0  0  0  0  0  0  0  0  0  0
   23.4048  -21.1116   -6.8442 C   0  0  1  0  0  0  0  0  0  0  0  0
   22.5562  -21.4597   -8.0668 C   0  0  0  0  0  0  0  0  0  0  0  0
   21.1245  -21.5175   -7.7628 C   0  0  0  0  0  0  0  0  0  0  0  0
   20.5350  -22.6694   -7.2939 C   0  0  0  0  0  0  0  0  0  0  0  0
   19.1793  -22.6532   -7.0198 C   0  0  0  0  0  0  0  0  0  0  0  0
   18.3939  -21.5314   -7.1970 C   0  0  0  0  0  0  0  0  0  0  0  0
   18.9817  -20.3656   -7.6700 C   0  0  0  0  0  0  0  0  0  0  0  0
   20.3328  -20.3899   -7.9406 C   0  0  0  0  0  0  0  0  0  0  0  0
   23.0742  -21.9884   -5.7285 C   0  0  0  0  0  0  0  0  0  0  0  0
   23.6796  -23.0749   -5.5907 O   0  0  0  0  0  0  0  0  0  0  0  0
   22.1100  -21.6507   -4.8174 O   0  0  0  0  0  0  0  0  0  0  0  0
  2  1  1  6
  3  2  1  0
  4  5  2  0
  4  3  1  0
  6  5  1  0
  7 12  2  0
  7  6  1  0
  8  7  1  0
  9 10  1  0
  9  8  2  0
 10 11  2  0
 11 12  1  0
 12  4  1  0
 13  2  1  0
 14 13  2  0
 15 13  1  0
 16 24  1  0
 16 15  1  0
 16 17  1  1
 18 17  1  0
 19 18  2  0
 20 19  1  0
 21 20  2  0
 21 22  1  0
 22 23  2  0
 23 18  1  0
 24 26  1  0
 25 24  2  0
 26 27  1  0
 27 28  1  6
 28 29  1  0
 29 30  2  0
 29 34  1  0
 30 31  1  0
 31 32  2  0
 33 32  1  0
 34 33  2  0
 35 37  1  0
 35 27  1  0
 36 35  2  0
M  END
$$$$
