WFF.pdb
     RDKit          3D

 37 40  0  0  1  0  0  0  0  0999 V2000
   25.2250  -22.0126  -14.8653 N   0  0  0  0  0  0  0  0  0  0  0  0
   25.5412  -20.9044  -14.0003 C   0  0  1  0  0  0  0  0  0  0  0  0
   24.3785  -19.9248  -13.8436 C   0  0  0  0  0  0  0  0  0  0  0  0
   24.4167  -18.9727  -14.9793 C   0  0  0  0  0  0  0  0  0  0  0  0
   23.3608  -18.6969  -15.8608 C   0  0  0  0  0  0  0  0  0  0  0  0
   23.7809  -17.8143  -16.7702 N   0  0  0  0  0  0  0  0  0  0  0  0
   25.0676  -17.4680  -16.5615 C   0  0  0  0  0  0  0  0  0  0  0  0
   25.9287  -16.6062  -17.2099 C   0  0  0  0  0  0  0  0  0  0  0  0
   27.2070  -16.4669  -16.7276 C   0  0  0  0  0  0  0  0  0  0  0  0
   27.6225  -17.1703  -15.6215 C   0  0  0  0  0  0  0  0  0  0  0  0
   26.7539  -18.0320  -14.9775 C   0  0  0  0  0  0  0  0  0  0  0  0
   25.4605  -18.1976  -15.4363 C   0  0  0  0  0  0  0  0  0  0  0  0
   25.9340  -21.3068  -12.6355 C   0  0  0  0  0  0  0  0  0  0  0  0
   25.5340  -22.3871  -12.1674 O   0  0  0  0  0  0  0  0  0  0  0  0
   26.7604  -20.4623  -11.8775 N   0  0  0  0  0  0  0  0  0  0  0  0
   27.1407  -20.8686  -10.5136 C   0  0  1  0  0  0  0  0  0  0  0  0
   28.4318  -20.1781  -10.2235 C   0  0  0  0  0  0  0  0  0  0  0  0
   29.0173  -20.3882   -8.8919 C   0  0  0  0  0  0  0  0  0  0  0  0
   28.7794  -19.5439   -7.8362 C   0  0  0  0  0  0  0  0  0  0  0  0
   29.3653  -19.7779   -6.6097 C   0  0  0  0  0  0  0  0  0  0  0  0
   30.1951  -20.8394   -6.3849 C   0  0  0  0  0  0  0  0  0  0  0  0
   30.4404  -21.6890   -7.4284 C   0  0  0  0  0  0  0  0  0  0  0  0
   29.8650  -21.4641   -8.6439 C   0  0  0  0  0  0  0  0  0  0  0  0
   26.0332  -20.5016   -9.6248 C   0  0  0  0  0  0  0  0  0  0  0  0
   24.9691  -20.0361  -10.1796 O   0  0  0  0  0  0  0  0  0  0  0  0
   25.9898  -20.6056   -8.2142 N   0  0  0  0  0  0  0  0  0  0  0  0
   25.2673  -21.7210   -7.5925 C   0  0  1  0  0  0  0  0  0  0  0  0
   26.2374  -22.4226   -6.6424 C   0  0  0  0  0  0  0  0  0  0  0  0
   26.7016  -21.5489   -5.5623 C   0  0  0  0  0  0  0  0  0  0  0  0
   28.0425  -21.3580   -5.3180 C   0  0  0  0  0  0  0  0  0  0  0  0
   28.4123  -20.5138   -4.2866 C   0  0  0  0  0  0  0  0  0  0  0  0
   27.4937  -19.8557   -3.4929 C   0  0  0  0  0  0  0  0  0  0  0  0
   26.1389  -20.0437   -3.7334 C   0  0  0  0  0  0  0  0  0  0  0  0
   25.7787  -20.8863   -4.7628 C   0  0  0  0  0  0  0  0  0  0  0  0
   24.1217  -21.2007   -6.8578 C   0  0  0  0  0  0  0  0  0  0  0  0
   23.3720  -21.9870   -6.2367 O   0  0  0  0  0  0  0  0  0  0  0  0
   23.8421  -19.8611   -6.8278 O   0  0  0  0  0  0  0  0  0  0  0  0
  2  1  1  6
  3  2  1  0
  4  5  2  0
  4  3  1  0
  6  5  1  0
  7 12  2  0
  7  6  1  0
  8  7  1  0
  9 10  1  0
  9  8  2  0
 10 11  2  0
 11 12  1  0
 12  4  1  0
 13  2  1  0
 14 13  2  0
 15 13  1  0
 16 24  1  0
 16 15  1  0
 16 17  1  1
 18 17  1  0
 19 18  2  0
 20 19  1  0
 21 20  2  0
 21 22  1  0
 22 23  2  0
 23 18  1  0
 24 26  1  0
 25 24  2  0
 26 27  1  0
 27 28  1  1
 28 29  1  0
 29 30  2  0
 29 34  1  0
 30 31  1  0
 31 32  2  0
 33 32  1  0
 34 33  2  0
 35 37  1  0
 35 27  1  0
 36 35  2  0
M  END
$$$$
