WFF.pdb
     RDKit          3D

 37 40  0  0  1  0  0  0  0  0999 V2000
   27.0332  -21.6133  -13.5898 N   0  0  0  0  0  0  0  0  0  0  0  0
   26.6250  -20.5660  -12.6881 C   0  0  1  0  0  0  0  0  0  0  0  0
   25.2683  -19.9648  -13.0541 C   0  0  0  0  0  0  0  0  0  0  0  0
   25.3926  -19.3085  -14.3776 C   0  0  0  0  0  0  0  0  0  0  0  0
   24.8628  -19.7829  -15.5869 C   0  0  0  0  0  0  0  0  0  0  0  0
   25.2077  -18.9422  -16.5651 N   0  0  0  0  0  0  0  0  0  0  0  0
   25.9450  -17.9158  -16.0941 C   0  0  0  0  0  0  0  0  0  0  0  0
   26.5180  -16.8133  -16.6948 C   0  0  0  0  0  0  0  0  0  0  0  0
   27.2160  -15.9262  -15.9126 C   0  0  0  0  0  0  0  0  0  0  0  0
   27.3424  -16.1299  -14.5586 C   0  0  0  0  0  0  0  0  0  0  0  0
   26.7656  -17.2370  -13.9641 C   0  0  0  0  0  0  0  0  0  0  0  0
   26.0570  -18.1510  -14.7211 C   0  0  0  0  0  0  0  0  0  0  0  0
   26.5235  -20.9977  -11.2802 C   0  0  0  0  0  0  0  0  0  0  0  0
   26.2350  -22.1771  -11.0117 O   0  0  0  0  0  0  0  0  0  0  0  0
   26.7564  -20.0681  -10.2544 N   0  0  0  0  0  0  0  0  0  0  0  0
   26.7473  -20.5287   -8.8552 C   0  0  1  0  0  0  0  0  0  0  0  0
   27.6215  -19.5803   -8.1041 C   0  0  0  0  0  0  0  0  0  0  0  0
   27.7953  -19.8280   -6.6659 C   0  0  0  0  0  0  0  0  0  0  0  0
   27.7951  -18.8193   -5.7350 C   0  0  0  0  0  0  0  0  0  0  0  0
   27.9766  -19.1039   -4.3977 C   0  0  0  0  0  0  0  0  0  0  0  0
   28.1618  -20.3769   -3.9382 C   0  0  0  0  0  0  0  0  0  0  0  0
   28.1637  -21.3917   -4.8553 C   0  0  0  0  0  0  0  0  0  0  0  0
   27.9850  -21.1182   -6.1791 C   0  0  0  0  0  0  0  0  0  0  0  0
   25.3485  -20.5567   -8.4148 C   0  0  0  0  0  0  0  0  0  0  0  0
   24.6399  -19.5092   -8.6547 O   0  0  0  0  0  0  0  0  0  0  0  0
   24.6736  -21.6120   -7.7566 N   0  0  0  0  0  0  0  0  0  0  0  0
   23.3260  -21.3871   -7.2218 C   0  0  1  0  0  0  0  0  0  0  0  0
   22.3484  -22.1688   -8.0991 C   0  0  0  0  0  0  0  0  0  0  0  0
   21.7887  -21.3575   -9.1826 C   0  0  0  0  0  0  0  0  0  0  0  0
   20.6976  -20.5432   -8.9812 C   0  0  0  0  0  0  0  0  0  0  0  0
   20.2241  -19.7980  -10.0460 C   0  0  0  0  0  0  0  0  0  0  0  0
   20.7995  -19.8370  -11.3007 C   0  0  0  0  0  0  0  0  0  0  0  0
   21.9006  -20.6565  -11.5114 C   0  0  0  0  0  0  0  0  0  0  0  0
   22.3663  -21.3957  -10.4455 C   0  0  0  0  0  0  0  0  0  0  0  0
   23.2695  -21.8646   -5.8464 C   0  0  0  0  0  0  0  0  0  0  0  0
   24.1973  -22.5730   -5.3954 O   0  0  0  0  0  0  0  0  0  0  0  0
   22.2184  -21.5544   -5.0263 O   0  0  0  0  0  0  0  0  0  0  0  0
  2  1  1  6
  3  2  1  0
  4  5  2  0
  4  3  1  0
  6  5  1  0
  7 12  2  0
  7  6  1  0
  8  7  1  0
  9 10  1  0
  9  8  2  0
 10 11  2  0
 11 12  1  0
 12  4  1  0
 13  2  1  0
 14 13  2  0
 15 13  1  0
 16 24  1  0
 16 15  1  0
 16 17  1  1
 18 17  1  0
 19 18  2  0
 20 19  1  0
 21 20  2  0
 21 22  1  0
 22 23  2  0
 23 18  1  0
 24 26  1  0
 25 24  2  0
 26 27  1  0
 27 28  1  6
 28 29  1  0
 29 30  2  0
 29 34  1  0
 30 31  1  0
 31 32  2  0
 33 32  1  0
 34 33  2  0
 35 37  1  0
 35 27  1  0
 36 35  2  0
M  END
$$$$
