WFF.pdb
     RDKit          3D

 37 40  0  0  1  0  0  0  0  0999 V2000
   28.9787  -35.8805   -9.8636 N   0  0  0  0  0  0  0  0  0  0  0  0
   29.0491  -35.1658   -8.6144 C   0  0  1  0  0  0  0  0  0  0  0  0
   27.6760  -34.9435   -7.9809 C   0  0  0  0  0  0  0  0  0  0  0  0
   27.0355  -33.7880   -8.6534 C   0  0  0  0  0  0  0  0  0  0  0  0
   26.9080  -33.6061  -10.0385 C   0  0  0  0  0  0  0  0  0  0  0  0
   26.3070  -32.4353  -10.2637 N   0  0  0  0  0  0  0  0  0  0  0  0
   26.0138  -31.8031   -9.1091 C   0  0  0  0  0  0  0  0  0  0  0  0
   25.4009  -30.6003   -8.8225 C   0  0  0  0  0  0  0  0  0  0  0  0
   25.2405  -30.2405   -7.5069 C   0  0  0  0  0  0  0  0  0  0  0  0
   25.6804  -31.0603   -6.4943 C   0  0  0  0  0  0  0  0  0  0  0  0
   26.2939  -32.2637   -6.7895 C   0  0  0  0  0  0  0  0  0  0  0  0
   26.4728  -32.6570   -8.1026 C   0  0  0  0  0  0  0  0  0  0  0  0
   29.8770  -35.8340   -7.5911 C   0  0  0  0  0  0  0  0  0  0  0  0
   29.8205  -37.0688   -7.4563 O   0  0  0  0  0  0  0  0  0  0  0  0
   30.7245  -35.0648   -6.7784 N   0  0  0  0  0  0  0  0  0  0  0  0
   31.6393  -35.7490   -5.8484 C   0  0  1  0  0  0  0  0  0  0  0  0
   32.7928  -34.8228   -5.6498 C   0  0  0  0  0  0  0  0  0  0  0  0
   33.8520  -35.2623   -4.7304 C   0  0  0  0  0  0  0  0  0  0  0  0
   34.8497  -36.1259   -5.1082 C   0  0  0  0  0  0  0  0  0  0  0  0
   35.8125  -36.5189   -4.2022 C   0  0  0  0  0  0  0  0  0  0  0  0
   35.8247  -36.0789   -2.9091 C   0  0  0  0  0  0  0  0  0  0  0  0
   34.8363  -35.2174   -2.5195 C   0  0  0  0  0  0  0  0  0  0  0  0
   33.8808  -34.8245   -3.4094 C   0  0  0  0  0  0  0  0  0  0  0  0
   30.8775  -36.0528   -4.6324 C   0  0  0  0  0  0  0  0  0  0  0  0
   30.1769  -35.0978   -4.1285 O   0  0  0  0  0  0  0  0  0  0  0  0
   30.8131  -37.2863   -3.9418 N   0  0  0  0  0  0  0  0  0  0  0  0
   30.1169  -37.3584   -2.6523 C   0  0  1  0  0  0  0  0  0  0  0  0
   29.7261  -38.8183   -2.4235 C   0  0  0  0  0  0  0  0  0  0  0  0
   29.1156  -39.0406   -1.1107 C   0  0  0  0  0  0  0  0  0  0  0  0
   27.7728  -38.8275   -0.8969 C   0  0  0  0  0  0  0  0  0  0  0  0
   27.2594  -39.0638    0.3655 C   0  0  0  0  0  0  0  0  0  0  0  0
   28.0367  -39.5036    1.4187 C   0  0  0  0  0  0  0  0  0  0  0  0
   29.3925  -39.7205    1.2105 C   0  0  0  0  0  0  0  0  0  0  0  0
   29.8962  -39.4828   -0.0501 C   0  0  0  0  0  0  0  0  0  0  0  0
   31.0112  -36.8993   -1.5976 C   0  0  0  0  0  0  0  0  0  0  0  0
   32.2086  -37.2629   -1.5955 O   0  0  0  0  0  0  0  0  0  0  0  0
   30.5717  -36.0716   -0.5999 O   0  0  0  0  0  0  0  0  0  0  0  0
  2  1  1  6
  3  2  1  0
  4  5  2  0
  4  3  1  0
  6  5  1  0
  7 12  2  0
  7  6  1  0
  8  7  1  0
  9 10  1  0
  9  8  2  0
 10 11  2  0
 11 12  1  0
 12  4  1  0
 13  2  1  0
 14 13  2  0
 15 13  1  0
 16 24  1  0
 16 15  1  0
 16 17  1  1
 18 17  1  0
 19 18  2  0
 20 19  1  0
 21 20  2  0
 21 22  1  0
 22 23  2  0
 23 18  1  0
 24 26  1  0
 25 24  2  0
 26 27  1  0
 27 28  1  1
 28 29  1  0
 29 30  2  0
 29 34  1  0
 30 31  1  0
 31 32  2  0
 33 32  1  0
 34 33  2  0
 35 37  1  0
 35 27  1  0
 36 35  2  0
M  END
$$$$
