AQC.pdb
     RDKit          3D

 21 20  0  0  1  0  0  0  0  0999 V2000
   19.8655  -14.9078  -18.4223 C   0  0  0  0  0  0  0  0  0  0  0  0
   19.3366  -13.7627  -17.5985 C   0  0  2  0  0  0  0  0  0  0  0  0
   17.9318  -13.5814  -17.9889 N   0  0  0  0  0  0  0  0  0  0  0  0
   20.0341  -12.4939  -17.8624 C   0  0  0  0  0  0  0  0  0  0  0  0
   21.2555  -12.4322  -17.5115 O   0  0  0  0  0  0  0  0  0  0  0  0
   18.7704   -8.2990  -22.0642 N   0  0  0  0  0  0  0  0  0  0  0  0
   19.6826   -7.5190  -21.3256 C   0  0  0  0  0  0  0  0  0  0  0  0
   19.9763   -6.3844  -21.7665 O   0  0  0  0  0  0  0  0  0  0  0  0
   20.2739   -8.0580  -20.0446 C   0  0  0  0  0  0  0  0  0  0  0  0
   19.6562   -9.3945  -19.8006 C   0  0  0  0  0  0  0  0  0  0  0  0
   20.1929  -10.0846  -18.5719 C   0  0  2  0  0  0  0  0  0  0  0  0
   19.4603  -11.3637  -18.4637 N   0  0  0  0  0  0  0  0  0  0  0  0
   20.0097   -9.3002  -17.3493 C   0  0  0  0  0  0  0  0  0  0  0  0
   18.8976   -9.2476  -16.7889 O   0  0  0  0  0  0  0  0  0  0  0  0
   21.0868   -8.5801  -16.7687 N   0  0  0  0  0  0  0  0  0  0  0  0
   20.9029   -7.7604  -15.5787 C   0  0  1  0  0  0  0  0  0  0  0  0
   21.4052   -8.5629  -14.4048 C   0  0  0  0  0  0  0  0  0  0  0  0
   21.4738   -7.5745  -12.8998 S   0  0  0  0  0  0  0  0  0  0  0  0
   21.6169   -6.4720  -15.6884 C   0  0  0  0  0  0  0  0  0  0  0  0
   21.2533   -5.3398  -15.0002 O   0  0  0  0  0  0  0  0  0  0  0  0
   22.6108   -6.4187  -16.4565 O   0  0  0  0  0  0  0  0  0  0  0  0
  2  1  1  6
  3  2  1  0
  4  2  1  0
  4  5  2  0
  6  7  1  0
  7  9  1  0
  8  7  2  0
  9 10  1  0
 11 10  1  6
 11 12  1  0
 12  4  1  0
 13 11  1  0
 13 15  1  0
 14 13  2  0
 16 15  1  0
 16 19  1  0
 17 18  1  0
 16 17  1  1
 19 21  2  0
 19 20  1  0
M  END
$$$$
