AQC.pdb
     RDKit          3D

 21 20  0  0  1  0  0  0  0  0999 V2000
   16.6880  -11.5974  -15.1133 C   0  0  0  0  0  0  0  0  0  0  0  0
   15.7058  -10.9079  -14.2025 C   0  0  2  0  0  0  0  0  0  0  0  0
   14.5061  -10.6410  -15.0076 N   0  0  0  0  0  0  0  0  0  0  0  0
   16.1965   -9.6141  -13.7013 C   0  0  0  0  0  0  0  0  0  0  0  0
   16.1464   -8.6340  -14.5110 O   0  0  0  0  0  0  0  0  0  0  0  0
   15.3516   -7.5607   -8.2118 N   0  0  0  0  0  0  0  0  0  0  0  0
   16.1411   -6.4757   -8.6425 C   0  0  0  0  0  0  0  0  0  0  0  0
   16.1990   -5.4635   -7.9075 O   0  0  0  0  0  0  0  0  0  0  0  0
   16.8849   -6.5562   -9.9545 C   0  0  0  0  0  0  0  0  0  0  0  0
   16.5339   -7.8638  -10.5823 C   0  0  0  0  0  0  0  0  0  0  0  0
   17.1065   -8.0339  -11.9669 C   0  0  2  0  0  0  0  0  0  0  0  0
   16.7081   -9.3847  -12.4153 N   0  0  0  0  0  0  0  0  0  0  0  0
   18.5646   -7.9066  -12.0025 C   0  0  0  0  0  0  0  0  0  0  0  0
   19.2940   -8.8702  -11.6978 O   0  0  0  0  0  0  0  0  0  0  0  0
   19.1878   -6.6890  -12.3830 N   0  0  0  0  0  0  0  0  0  0  0  0
   20.6192   -6.6133  -12.6428 C   0  0  1  0  0  0  0  0  0  0  0  0
   20.9302   -7.6280  -13.7142 C   0  0  0  0  0  0  0  0  0  0  0  0
   22.6678   -7.5872  -14.1891 S   0  0  0  0  0  0  0  0  0  0  0  0
   21.0265   -5.2560  -13.0595 C   0  0  0  0  0  0  0  0  0  0  0  0
   22.2665   -4.7220  -12.8042 O   0  0  0  0  0  0  0  0  0  0  0  0
   20.1853   -4.5588  -13.6814 O   0  0  0  0  0  0  0  0  0  0  0  0
  2  1  1  6
  3  2  1  0
  4  2  1  0
  4  5  2  0
  6  7  1  0
  7  9  1  0
  8  7  2  0
  9 10  1  0
 11 10  1  1
 11 12  1  0
 12  4  1  0
 13 11  1  0
 13 15  1  0
 14 13  2  0
 16 15  1  0
 16 19  1  0
 17 18  1  0
 16 17  1  6
 19 21  2  0
 19 20  1  0
M  END
$$$$
