AQC.pdb
     RDKit          3D

 21 20  0  0  1  0  0  0  0  0999 V2000
   21.9051  -11.8724  -17.7161 C   0  0  0  0  0  0  0  0  0  0  0  0
   20.5756  -11.9091  -17.0085 C   0  0  2  0  0  0  0  0  0  0  0  0
   19.6178  -12.5047  -17.9501 N   0  0  0  0  0  0  0  0  0  0  0  0
   20.0737  -10.5709  -16.6575 C   0  0  0  0  0  0  0  0  0  0  0  0
   19.7482   -9.8129  -17.6261 O   0  0  0  0  0  0  0  0  0  0  0  0
   16.6942   -8.7101  -12.0486 N   0  0  0  0  0  0  0  0  0  0  0  0
   16.1992   -9.0076  -13.3341 C   0  0  0  0  0  0  0  0  0  0  0  0
   14.9785   -9.2625  -13.4486 O   0  0  0  0  0  0  0  0  0  0  0  0
   17.1331   -9.0125  -14.5211 C   0  0  0  0  0  0  0  0  0  0  0  0
   18.5021   -8.7135  -14.0076 C   0  0  0  0  0  0  0  0  0  0  0  0
   19.5500   -8.6719  -15.0913 C   0  0  2  0  0  0  0  0  0  0  0  0
   19.9296  -10.0761  -15.3526 N   0  0  0  0  0  0  0  0  0  0  0  0
   20.7335   -7.8975  -14.7131 C   0  0  0  0  0  0  0  0  0  0  0  0
   21.5660   -8.3612  -13.9096 O   0  0  0  0  0  0  0  0  0  0  0  0
   20.9673   -6.6029  -15.2468 N   0  0  0  0  0  0  0  0  0  0  0  0
   22.1415   -5.8250  -14.8750 C   0  0  1  0  0  0  0  0  0  0  0  0
   22.4406   -4.8956  -16.0243 C   0  0  0  0  0  0  0  0  0  0  0  0
   23.7463   -3.7237  -15.6138 S   0  0  0  0  0  0  0  0  0  0  0  0
   21.9225   -5.0719  -13.6233 C   0  0  0  0  0  0  0  0  0  0  0  0
   20.8084   -4.3049  -13.3821 O   0  0  0  0  0  0  0  0  0  0  0  0
   22.8102   -5.1430  -12.7359 O   0  0  0  0  0  0  0  0  0  0  0  0
  2  1  1  6
  3  2  1  0
  4  2  1  0
  4  5  2  0
  6  7  1  0
  7  9  1  0
  8  7  2  0
  9 10  1  0
 11 10  1  1
 11 12  1  0
 12  4  1  0
 13 11  1  0
 13 15  1  0
 14 13  2  0
 16 15  1  0
 16 19  1  0
 17 18  1  0
 16 17  1  6
 19 21  2  0
 19 20  1  0
M  END
$$$$
