AQC.pdb
     RDKit          3D

 21 20  0  0  1  0  0  0  0  0999 V2000
   16.2678  -11.0507  -16.2903 C   0  0  0  0  0  0  0  0  0  0  0  0
   17.5291  -10.9154  -15.4777 C   0  0  2  0  0  0  0  0  0  0  0  0
   17.4299  -11.8943  -14.3866 N   0  0  0  0  0  0  0  0  0  0  0  0
   17.6782   -9.5859  -14.8642 C   0  0  0  0  0  0  0  0  0  0  0  0
   17.9178   -8.6180  -15.6544 O   0  0  0  0  0  0  0  0  0  0  0  0
   15.7814   -8.0582   -9.2460 N   0  0  0  0  0  0  0  0  0  0  0  0
   16.2969   -6.7982   -9.6104 C   0  0  0  0  0  0  0  0  0  0  0  0
   16.1505   -5.8493   -8.8065 O   0  0  0  0  0  0  0  0  0  0  0  0
   17.0003   -6.6239  -10.9355 C   0  0  0  0  0  0  0  0  0  0  0  0
   16.9849   -7.9489  -11.6219 C   0  0  0  0  0  0  0  0  0  0  0  0
   17.6654   -7.9320  -12.9675 C   0  0  2  0  0  0  0  0  0  0  0  0
   17.5771   -9.3108  -13.4921 N   0  0  0  0  0  0  0  0  0  0  0  0
   19.0670   -7.5151  -12.8944 C   0  0  0  0  0  0  0  0  0  0  0  0
   19.9710   -8.3546  -12.7161 O   0  0  0  0  0  0  0  0  0  0  0  0
   19.4366   -6.1504  -13.0237 N   0  0  0  0  0  0  0  0  0  0  0  0
   20.8180   -5.7533  -13.2604 C   0  0  1  0  0  0  0  0  0  0  0  0
   21.2581   -6.4184  -14.5403 C   0  0  0  0  0  0  0  0  0  0  0  0
   22.8980   -5.8712  -15.0482 S   0  0  0  0  0  0  0  0  0  0  0  0
   20.9558   -4.2852  -13.3476 C   0  0  0  0  0  0  0  0  0  0  0  0
   22.0655   -3.5985  -12.9178 O   0  0  0  0  0  0  0  0  0  0  0  0
   19.9996   -3.6372  -13.8440 O   0  0  0  0  0  0  0  0  0  0  0  0
  2  1  1  1
  3  2  1  0
  4  2  1  0
  4  5  2  0
  6  7  1  0
  7  9  1  0
  8  7  2  0
  9 10  1  0
 11 10  1  1
 11 12  1  0
 12  4  1  0
 13 11  1  0
 13 15  1  0
 14 13  2  0
 16 15  1  0
 16 19  1  0
 17 18  1  0
 16 17  1  6
 19 21  2  0
 19 20  1  0
M  END
$$$$
