AQC.pdb
     RDKit          3D

 21 20  0  0  1  0  0  0  0  0999 V2000
   15.6707  -12.1605  -14.0276 C   0  0  0  0  0  0  0  0  0  0  0  0
   16.0090  -11.7273  -12.6249 C   0  0  2  0  0  0  0  0  0  0  0  0
   14.8943  -12.1636  -11.7729 N   0  0  0  0  0  0  0  0  0  0  0  0
   16.1239  -10.2667  -12.4859 C   0  0  0  0  0  0  0  0  0  0  0  0
   15.7284   -9.5681  -13.4730 O   0  0  0  0  0  0  0  0  0  0  0  0
   15.4113   -6.8247   -7.6678 N   0  0  0  0  0  0  0  0  0  0  0  0
   14.4221   -7.0761   -8.6397 C   0  0  0  0  0  0  0  0  0  0  0  0
   13.2227   -6.9518   -8.3023 O   0  0  0  0  0  0  0  0  0  0  0  0
   14.8227   -7.4817  -10.0383 C   0  0  0  0  0  0  0  0  0  0  0  0
   16.3077   -7.6291  -10.0476 C   0  0  0  0  0  0  0  0  0  0  0  0
   16.8490   -8.1355  -11.3609 C   0  0  2  0  0  0  0  0  0  0  0  0
   16.6299   -9.5971  -11.3616 N   0  0  0  0  0  0  0  0  0  0  0  0
   18.2722   -7.8445  -11.5434 C   0  0  0  0  0  0  0  0  0  0  0  0
   19.1413   -8.6043  -11.0733 O   0  0  0  0  0  0  0  0  0  0  0  0
   18.7027   -6.6951  -12.2570 N   0  0  0  0  0  0  0  0  0  0  0  0
   20.1055   -6.4838  -12.5880 C   0  0  1  0  0  0  0  0  0  0  0  0
   20.5584   -7.6802  -13.3865 C   0  0  0  0  0  0  0  0  0  0  0  0
   22.2578   -7.4986  -13.9570 S   0  0  0  0  0  0  0  0  0  0  0  0
   20.3041   -5.2312  -13.3453 C   0  0  0  0  0  0  0  0  0  0  0  0
   21.4194   -4.4379  -13.2243 O   0  0  0  0  0  0  0  0  0  0  0  0
   19.3970   -4.8801  -14.1418 O   0  0  0  0  0  0  0  0  0  0  0  0
  2  1  1  6
  3  2  1  0
  4  2  1  0
  4  5  2  0
  6  7  1  0
  7  9  1  0
  8  7  2  0
  9 10  1  0
 11 10  1  1
 11 12  1  0
 12  4  1  0
 13 11  1  0
 13 15  1  0
 14 13  2  0
 16 15  1  0
 16 19  1  0
 17 18  1  0
 16 17  1  6
 19 21  2  0
 19 20  1  0
M  END
$$$$
