AQC.pdb
     RDKit          3D

 21 20  0  0  1  0  0  0  0  0999 V2000
   18.9296  -11.3129  -17.6656 C   0  0  0  0  0  0  0  0  0  0  0  0
   20.1083  -11.9925  -17.0189 C   0  0  2  0  0  0  0  0  0  0  0  0
   19.5601  -13.0473  -16.1554 N   0  0  0  0  0  0  0  0  0  0  0  0
   20.8956  -11.0890  -16.1645 C   0  0  0  0  0  0  0  0  0  0  0  0
   20.3784  -10.7677  -15.0474 O   0  0  0  0  0  0  0  0  0  0  0  0
   26.9259  -10.3365  -16.4056 N   0  0  0  0  0  0  0  0  0  0  0  0
   26.2787  -11.3986  -15.7429 C   0  0  0  0  0  0  0  0  0  0  0  0
   26.9459  -12.4285  -15.4934 O   0  0  0  0  0  0  0  0  0  0  0  0
   24.8241  -11.2737  -15.3561 C   0  0  0  0  0  0  0  0  0  0  0  0
   24.3587   -9.9316  -15.8135 C   0  0  0  0  0  0  0  0  0  0  0  0
   22.8937   -9.6870  -15.5524 C   0  0  2  0  0  0  0  0  0  0  0  0
   22.1560  -10.5634  -16.4861 N   0  0  0  0  0  0  0  0  0  0  0  0
   22.5005   -8.2922  -15.7616 C   0  0  0  0  0  0  0  0  0  0  0  0
   22.1553   -7.8921  -16.8905 O   0  0  0  0  0  0  0  0  0  0  0  0
   22.5006   -7.3592  -14.6916 N   0  0  0  0  0  0  0  0  0  0  0  0
   22.0767   -5.9787  -14.8831 C   0  0  1  0  0  0  0  0  0  0  0  0
   20.6427   -6.0151  -15.3484 C   0  0  0  0  0  0  0  0  0  0  0  0
   19.9073   -4.3704  -15.3764 S   0  0  0  0  0  0  0  0  0  0  0  0
   22.2149   -5.1890  -13.6425 C   0  0  0  0  0  0  0  0  0  0  0  0
   22.2567   -5.7457  -12.3871 O   0  0  0  0  0  0  0  0  0  0  0  0
   22.2981   -3.9393  -13.7519 O   0  0  0  0  0  0  0  0  0  0  0  0
  2  1  1  1
  3  2  1  0
  4  2  1  0
  4  5  2  0
  6  7  1  0
  7  9  1  0
  8  7  2  0
  9 10  1  0
 11 10  1  6
 11 12  1  0
 12  4  1  0
 13 11  1  0
 13 15  1  0
 14 13  2  0
 16 15  1  0
 16 19  1  0
 17 18  1  0
 16 17  1  1
 19 21  2  0
 19 20  1  0
M  END
$$$$
