AQC.pdb
     RDKit          3D

 21 20  0  0  1  0  0  0  0  0999 V2000
   19.0860  -10.8275  -18.2376 C   0  0  0  0  0  0  0  0  0  0  0  0
   20.0602  -11.6808  -17.4678 C   0  0  2  0  0  0  0  0  0  0  0  0
   19.2557  -12.5828  -16.6324 N   0  0  0  0  0  0  0  0  0  0  0  0
   20.9229  -10.8991  -16.5675 C   0  0  0  0  0  0  0  0  0  0  0  0
   20.3990  -10.5055  -15.4769 O   0  0  0  0  0  0  0  0  0  0  0  0
   27.0348  -10.9207  -16.2202 N   0  0  0  0  0  0  0  0  0  0  0  0
   26.1771  -11.8826  -15.6499 C   0  0  0  0  0  0  0  0  0  0  0  0
   26.6743  -12.9756  -15.2949 O   0  0  0  0  0  0  0  0  0  0  0  0
   24.7068  -11.5798  -15.4830 C   0  0  0  0  0  0  0  0  0  0  0  0
   24.4773  -10.2009  -16.0056 C   0  0  0  0  0  0  0  0  0  0  0  0
   23.0469   -9.7424  -15.8719 C   0  0  2  0  0  0  0  0  0  0  0  0
   22.2610  -10.5606  -16.8191 N   0  0  0  0  0  0  0  0  0  0  0  0
   22.8711   -8.3210  -16.1759 C   0  0  0  0  0  0  0  0  0  0  0  0
   22.9232   -7.9118  -17.3520 O   0  0  0  0  0  0  0  0  0  0  0  0
   22.6374   -7.3718  -15.1463 N   0  0  0  0  0  0  0  0  0  0  0  0
   22.3911   -5.9675  -15.4450 C   0  0  1  0  0  0  0  0  0  0  0  0
   21.0285   -5.8821  -16.0854 C   0  0  0  0  0  0  0  0  0  0  0  0
   20.4574   -4.1782  -16.2170 S   0  0  0  0  0  0  0  0  0  0  0  0
   22.4624   -5.1311  -14.2296 C   0  0  0  0  0  0  0  0  0  0  0  0
   22.8297   -3.8071  -14.2379 O   0  0  0  0  0  0  0  0  0  0  0  0
   22.1690   -5.6694  -13.1320 O   0  0  0  0  0  0  0  0  0  0  0  0
  2  1  1  1
  3  2  1  0
  4  2  1  0
  4  5  2  0
  6  7  1  0
  7  9  1  0
  8  7  2  0
  9 10  1  0
 11 10  1  6
 11 12  1  0
 12  4  1  0
 13 11  1  0
 13 15  1  0
 14 13  2  0
 16 15  1  0
 16 19  1  0
 17 18  1  0
 16 17  1  1
 19 21  2  0
 19 20  1  0
M  END
$$$$
