AQC.pdb
     RDKit          3D

 21 20  0  0  1  0  0  0  0  0999 V2000
   14.8506   -9.7126  -14.3967 C   0  0  0  0  0  0  0  0  0  0  0  0
   16.3119   -9.6231  -14.0412 C   0  0  2  0  0  0  0  0  0  0  0  0
   16.6227  -10.8204  -13.2484 N   0  0  0  0  0  0  0  0  0  0  0  0
   16.6311   -8.4504  -13.2113 C   0  0  0  0  0  0  0  0  0  0  0  0
   16.4765   -7.3101  -13.7538 O   0  0  0  0  0  0  0  0  0  0  0  0
   17.6503   -5.1335   -8.8187 N   0  0  0  0  0  0  0  0  0  0  0  0
   16.2825   -5.4595   -8.7238 C   0  0  0  0  0  0  0  0  0  0  0  0
   15.5114   -4.6141   -8.2151 O   0  0  0  0  0  0  0  0  0  0  0  0
   15.7870   -6.7943   -9.2278 C   0  0  0  0  0  0  0  0  0  0  0  0
   16.9799   -7.5630   -9.6895 C   0  0  0  0  0  0  0  0  0  0  0  0
   17.3661   -7.2651  -11.1165 C   0  0  2  0  0  0  0  0  0  0  0  0
   17.0869   -8.4961  -11.8852 N   0  0  0  0  0  0  0  0  0  0  0  0
   18.7751   -6.8949  -11.2624 C   0  0  0  0  0  0  0  0  0  0  0  0
   19.6731   -7.6085  -10.7747 O   0  0  0  0  0  0  0  0  0  0  0  0
   19.1586   -5.7191  -11.9595 N   0  0  0  0  0  0  0  0  0  0  0  0
   20.5342   -5.4991  -12.3853 C   0  0  1  0  0  0  0  0  0  0  0  0
   20.9227   -6.6689  -13.2540 C   0  0  0  0  0  0  0  0  0  0  0  0
   21.8848   -7.8887  -12.3413 S   0  0  0  0  0  0  0  0  0  0  0  0
   20.6820   -4.2222  -13.1131 C   0  0  0  0  0  0  0  0  0  0  0  0
   21.8148   -3.4462  -13.0654 O   0  0  0  0  0  0  0  0  0  0  0  0
   19.7122   -3.8326  -13.8119 O   0  0  0  0  0  0  0  0  0  0  0  0
  2  1  1  1
  3  2  1  0
  4  2  1  0
  4  5  2  0
  6  7  1  0
  7  9  1  0
  8  7  2  0
  9 10  1  0
 11 10  1  1
 11 12  1  0
 12  4  1  0
 13 11  1  0
 13 15  1  0
 14 13  2  0
 16 15  1  0
 16 19  1  0
 17 18  1  0
 16 17  1  6
 19 21  2  0
 19 20  1  0
M  END
$$$$
