AQC.pdb
     RDKit          3D

 21 20  0  0  1  0  0  0  0  0999 V2000
   14.8089  -11.0483  -14.5244 C   0  0  0  0  0  0  0  0  0  0  0  0
   16.2443  -10.6043  -14.4140 C   0  0  2  0  0  0  0  0  0  0  0  0
   16.9030  -11.5450  -13.4976 N   0  0  0  0  0  0  0  0  0  0  0  0
   16.3870   -9.2569  -13.8392 C   0  0  0  0  0  0  0  0  0  0  0  0
   15.9707   -8.2877  -14.5506 O   0  0  0  0  0  0  0  0  0  0  0  0
   15.6721   -7.3249   -8.2585 N   0  0  0  0  0  0  0  0  0  0  0  0
   15.3952   -6.2125   -9.0781 C   0  0  0  0  0  0  0  0  0  0  0  0
   14.7546   -5.2598   -8.5781 O   0  0  0  0  0  0  0  0  0  0  0  0
   15.8678   -6.1942  -10.5125 C   0  0  0  0  0  0  0  0  0  0  0  0
   16.6030   -7.4707  -10.7520 C   0  0  0  0  0  0  0  0  0  0  0  0
   17.1787   -7.5761  -12.1418 C   0  0  2  0  0  0  0  0  0  0  0  0
   16.9400   -8.9663  -12.5831 N   0  0  0  0  0  0  0  0  0  0  0  0
   18.6108   -7.2760  -12.1920 C   0  0  0  0  0  0  0  0  0  0  0  0
   19.4496   -8.1156  -11.8109 O   0  0  0  0  0  0  0  0  0  0  0  0
   19.0845   -6.0272  -12.6734 N   0  0  0  0  0  0  0  0  0  0  0  0
   20.5002   -5.7939  -12.9249 C   0  0  1  0  0  0  0  0  0  0  0  0
   20.9228   -6.7536  -14.0087 C   0  0  0  0  0  0  0  0  0  0  0  0
   22.6178   -6.4553  -14.5420 S   0  0  0  0  0  0  0  0  0  0  0  0
   20.7602   -4.3947  -13.3206 C   0  0  0  0  0  0  0  0  0  0  0  0
   19.8422   -3.6045  -13.9690 O   0  0  0  0  0  0  0  0  0  0  0  0
   21.8866   -3.9093  -13.0444 O   0  0  0  0  0  0  0  0  0  0  0  0
  2  1  1  1
  3  2  1  0
  4  2  1  0
  4  5  2  0
  6  7  1  0
  7  9  1  0
  8  7  2  0
  9 10  1  0
 11 10  1  1
 11 12  1  0
 12  4  1  0
 13 11  1  0
 13 15  1  0
 14 13  2  0
 16 15  1  0
 16 19  1  0
 17 18  1  0
 16 17  1  6
 19 21  2  0
 19 20  1  0
M  END
$$$$
