AQC.pdb
     RDKit          3D

 21 20  0  0  1  0  0  0  0  0999 V2000
   15.9605  -12.3297  -11.6283 C   0  0  0  0  0  0  0  0  0  0  0  0
   15.0543  -11.3818  -10.8868 C   0  0  2  0  0  0  0  0  0  0  0  0
   13.7226  -11.5174  -11.4926 N   0  0  0  0  0  0  0  0  0  0  0  0
   15.4590   -9.9734  -11.0240 C   0  0  0  0  0  0  0  0  0  0  0  0
   15.1653   -9.4011  -12.1217 O   0  0  0  0  0  0  0  0  0  0  0  0
   14.1405   -5.8754   -7.3972 N   0  0  0  0  0  0  0  0  0  0  0  0
   15.0996   -5.0473   -8.0140 C   0  0  0  0  0  0  0  0  0  0  0  0
   15.0369   -3.8153   -7.7987 O   0  0  0  0  0  0  0  0  0  0  0  0
   16.1604   -5.6519   -8.9030 C   0  0  0  0  0  0  0  0  0  0  0  0
   15.9267   -7.1255   -8.9307 C   0  0  0  0  0  0  0  0  0  0  0  0
   16.3829   -7.7782  -10.2113 C   0  0  2  0  0  0  0  0  0  0  0  0
   16.1350   -9.2259  -10.0480 N   0  0  0  0  0  0  0  0  0  0  0  0
   17.7992   -7.5442  -10.4996 C   0  0  0  0  0  0  0  0  0  0  0  0
   18.6846   -8.1653   -9.8800 O   0  0  0  0  0  0  0  0  0  0  0  0
   18.2043   -6.6085  -11.4875 N   0  0  0  0  0  0  0  0  0  0  0  0
   19.6055   -6.4376  -11.8474 C   0  0  1  0  0  0  0  0  0  0  0  0
   20.1210   -7.7877  -12.2785 C   0  0  0  0  0  0  0  0  0  0  0  0
   21.8224   -7.6974  -12.8647 S   0  0  0  0  0  0  0  0  0  0  0  0
   19.7747   -5.4352  -12.9190 C   0  0  0  0  0  0  0  0  0  0  0  0
   20.8754   -4.6207  -13.0317 O   0  0  0  0  0  0  0  0  0  0  0  0
   18.8554   -5.3291  -13.7700 O   0  0  0  0  0  0  0  0  0  0  0  0
  2  1  1  6
  3  2  1  0
  4  2  1  0
  4  5  2  0
  6  7  1  0
  7  9  1  0
  8  7  2  0
  9 10  1  0
 11 10  1  1
 11 12  1  0
 12  4  1  0
 13 11  1  0
 13 15  1  0
 14 13  2  0
 16 15  1  0
 16 19  1  0
 17 18  1  0
 16 17  1  6
 19 21  2  0
 19 20  1  0
M  END
$$$$
