AQC.pdb
     RDKit          3D

 21 20  0  0  1  0  0  0  0  0999 V2000
   17.4377  -11.4361  -18.0928 C   0  0  0  0  0  0  0  0  0  0  0  0
   18.8000  -11.0899  -17.5507 C   0  0  2  0  0  0  0  0  0  0  0  0
   18.9680  -11.8679  -16.3157 N   0  0  0  0  0  0  0  0  0  0  0  0
   18.9338   -9.6676  -17.1968 C   0  0  0  0  0  0  0  0  0  0  0  0
   19.6367   -8.9503  -17.9779 O   0  0  0  0  0  0  0  0  0  0  0  0
   14.6589   -6.3269  -14.7466 N   0  0  0  0  0  0  0  0  0  0  0  0
   15.6647   -5.3446  -14.6484 C   0  0  0  0  0  0  0  0  0  0  0  0
   15.3342   -4.2037  -14.2519 O   0  0  0  0  0  0  0  0  0  0  0  0
   17.0900   -5.6830  -15.0160 C   0  0  0  0  0  0  0  0  0  0  0  0
   17.1155   -7.1226  -15.4084 C   0  0  0  0  0  0  0  0  0  0  0  0
   18.4808   -7.6010  -15.8340 C   0  0  2  0  0  0  0  0  0  0  0  0
   18.3519   -9.0530  -16.0779 N   0  0  0  0  0  0  0  0  0  0  0  0
   19.5133   -7.3545  -14.8256 C   0  0  0  0  0  0  0  0  0  0  0  0
   19.5778   -8.0565  -13.7977 O   0  0  0  0  0  0  0  0  0  0  0  0
   20.4664   -6.3147  -14.9872 N   0  0  0  0  0  0  0  0  0  0  0  0
   21.6070   -6.1794  -14.0913 C   0  0  1  0  0  0  0  0  0  0  0  0
   22.7722   -6.8765  -14.7476 C   0  0  0  0  0  0  0  0  0  0  0  0
   22.7207   -8.6580  -14.4825 S   0  0  0  0  0  0  0  0  0  0  0  0
   21.9195   -4.7621  -13.8168 C   0  0  0  0  0  0  0  0  0  0  0  0
   22.5598   -4.3306  -12.6803 O   0  0  0  0  0  0  0  0  0  0  0  0
   21.5766   -3.9113  -14.6765 O   0  0  0  0  0  0  0  0  0  0  0  0
  2  1  1  1
  3  2  1  0
  4  2  1  0
  4  5  2  0
  6  7  1  0
  7  9  1  0
  8  7  2  0
  9 10  1  0
 11 10  1  1
 11 12  1  0
 12  4  1  0
 13 11  1  0
 13 15  1  0
 14 13  2  0
 16 15  1  0
 16 19  1  0
 17 18  1  0
 16 17  1  6
 19 21  2  0
 19 20  1  0
M  END
$$$$
