AQC.pdb
     RDKit          3D

 21 20  0  0  1  0  0  0  0  0999 V2000
   23.8566  -11.7829  -14.8572 C   0  0  0  0  0  0  0  0  0  0  0  0
   22.9510  -12.0063  -16.0402 C   0  0  2  0  0  0  0  0  0  0  0  0
   23.8183  -12.3827  -17.1648 N   0  0  0  0  0  0  0  0  0  0  0  0
   22.2151  -10.7954  -16.4379 C   0  0  0  0  0  0  0  0  0  0  0  0
   22.8816   -9.8981  -17.0455 O   0  0  0  0  0  0  0  0  0  0  0  0
   16.1447  -10.0851  -16.8646 N   0  0  0  0  0  0  0  0  0  0  0  0
   16.4911   -8.7253  -16.9945 C   0  0  0  0  0  0  0  0  0  0  0  0
   15.5709   -7.9027  -17.2057 O   0  0  0  0  0  0  0  0  0  0  0  0
   17.9354   -8.2989  -16.8786 C   0  0  0  0  0  0  0  0  0  0  0  0
   18.7399   -9.5286  -16.6185 C   0  0  0  0  0  0  0  0  0  0  0  0
   20.2207   -9.2626  -16.5164 C   0  0  2  0  0  0  0  0  0  0  0  0
   20.8525  -10.5606  -16.1999 N   0  0  0  0  0  0  0  0  0  0  0  0
   20.5555   -8.2801  -15.4838 C   0  0  0  0  0  0  0  0  0  0  0  0
   20.5597   -8.6008  -14.2794 O   0  0  0  0  0  0  0  0  0  0  0  0
   20.8835   -6.9406  -15.8212 N   0  0  0  0  0  0  0  0  0  0  0  0
   21.1575   -5.9412  -14.7975 C   0  0  1  0  0  0  0  0  0  0  0  0
   22.6320   -5.6317  -14.8624 C   0  0  0  0  0  0  0  0  0  0  0  0
   23.0792   -4.2749  -13.7644 S   0  0  0  0  0  0  0  0  0  0  0  0
   20.3475   -4.7219  -14.9952 C   0  0  0  0  0  0  0  0  0  0  0  0
   19.9260   -3.9137  -13.9672 O   0  0  0  0  0  0  0  0  0  0  0  0
   20.0316   -4.4152  -16.1728 O   0  0  0  0  0  0  0  0  0  0  0  0
  2  1  1  1
  3  2  1  0
  4  2  1  0
  4  5  2  0
  6  7  1  0
  7  9  1  0
  8  7  2  0
  9 10  1  0
 11 10  1  1
 11 12  1  0
 12  4  1  0
 13 11  1  0
 13 15  1  0
 14 13  2  0
 16 15  1  0
 16 19  1  0
 17 18  1  0
 16 17  1  6
 19 21  2  0
 19 20  1  0
M  END
$$$$
