AQC.pdb
     RDKit          3D

 21 20  0  0  1  0  0  0  0  0999 V2000
   26.2314  -22.8473  -16.9615 C   0  0  0  0  0  0  0  0  0  0  0  0
   26.2022  -23.5842  -15.6478 C   0  0  2  0  0  0  0  0  0  0  0  0
   25.9151  -24.9900  -15.9640 N   0  0  0  0  0  0  0  0  0  0  0  0
   25.1404  -23.1101  -14.7458 C   0  0  0  0  0  0  0  0  0  0  0  0
   24.0249  -23.7184  -14.8105 O   0  0  0  0  0  0  0  0  0  0  0  0
   25.7074  -19.4125   -9.8492 N   0  0  0  0  0  0  0  0  0  0  0  0
   25.6970  -20.8119   -9.6830 C   0  0  0  0  0  0  0  0  0  0  0  0
   26.1670  -21.2804   -8.6211 O   0  0  0  0  0  0  0  0  0  0  0  0
   25.1307  -21.6976  -10.7674 C   0  0  0  0  0  0  0  0  0  0  0  0
   24.6869  -20.8065  -11.8792 C   0  0  0  0  0  0  0  0  0  0  0  0
   24.1113  -21.5581  -13.0530 C   0  0  2  0  0  0  0  0  0  0  0  0
   25.2654  -22.0521  -13.8328 N   0  0  0  0  0  0  0  0  0  0  0  0
   23.2558  -20.7261  -13.9012 C   0  0  0  0  0  0  0  0  0  0  0  0
   23.7352  -20.0985  -14.8655 O   0  0  0  0  0  0  0  0  0  0  0  0
   21.8629  -20.6097  -13.6524 N   0  0  0  0  0  0  0  0  0  0  0  0
   20.9496  -20.0839  -14.6581 C   0  0  1  0  0  0  0  0  0  0  0  0
   21.0927  -20.9504  -15.8841 C   0  0  0  0  0  0  0  0  0  0  0  0
   19.8729  -20.5336  -17.1430 S   0  0  0  0  0  0  0  0  0  0  0  0
   19.5542  -20.0713  -14.1739 C   0  0  0  0  0  0  0  0  0  0  0  0
   18.6249  -19.1342  -14.5560 O   0  0  0  0  0  0  0  0  0  0  0  0
   19.2074  -20.9718  -13.3681 O   0  0  0  0  0  0  0  0  0  0  0  0
  2  1  1  6
  3  2  1  0
  4  2  1  0
  4  5  2  0
  6  7  1  0
  7  9  1  0
  8  7  2  0
  9 10  1  0
 11 10  1  1
 11 12  1  0
 12  4  1  0
 13 11  1  0
 13 15  1  0
 14 13  2  0
 16 15  1  0
 16 19  1  0
 17 18  1  0
 16 17  1  6
 19 21  2  0
 19 20  1  0
M  END
$$$$
