AQC.pdb
     RDKit          3D

 21 20  0  0  1  0  0  0  0  0999 V2000
   24.2380  -10.8715  -14.8252 C   0  0  0  0  0  0  0  0  0  0  0  0
   23.2631  -11.1571  -15.9377 C   0  0  2  0  0  0  0  0  0  0  0  0
   24.0387  -11.1461  -17.1855 N   0  0  0  0  0  0  0  0  0  0  0  0
   22.2151  -10.1313  -16.0616 C   0  0  0  0  0  0  0  0  0  0  0  0
   22.4933   -9.1169  -16.7774 O   0  0  0  0  0  0  0  0  0  0  0  0
   16.6589  -12.5287  -15.9386 N   0  0  0  0  0  0  0  0  0  0  0  0
   16.8024  -11.1506  -16.1957 C   0  0  0  0  0  0  0  0  0  0  0  0
   15.7828  -10.4285  -16.1119 O   0  0  0  0  0  0  0  0  0  0  0  0
   18.1554  -10.5865  -16.5594 C   0  0  0  0  0  0  0  0  0  0  0  0
   18.6045   -9.7416  -15.4142 C   0  0  0  0  0  0  0  0  0  0  0  0
   19.9558   -9.1090  -15.6331 C   0  0  2  0  0  0  0  0  0  0  0  0
   20.9501  -10.1883  -15.4576 N   0  0  0  0  0  0  0  0  0  0  0  0
   20.2346   -8.0174  -14.6981 C   0  0  0  0  0  0  0  0  0  0  0  0
   20.7834   -8.2442  -13.6022 O   0  0  0  0  0  0  0  0  0  0  0  0
   19.8902   -6.6757  -15.0096 N   0  0  0  0  0  0  0  0  0  0  0  0
   20.4035   -5.5561  -14.2317 C   0  0  1  0  0  0  0  0  0  0  0  0
   21.8981   -5.5254  -14.4306 C   0  0  0  0  0  0  0  0  0  0  0  0
   22.6521   -4.1079  -13.6129 S   0  0  0  0  0  0  0  0  0  0  0  0
   19.7847   -4.2788  -14.6410 C   0  0  0  0  0  0  0  0  0  0  0  0
   19.4911   -3.2611  -13.7659 O   0  0  0  0  0  0  0  0  0  0  0  0
   19.5158   -4.1240  -15.8593 O   0  0  0  0  0  0  0  0  0  0  0  0
  2  1  1  1
  3  2  1  0
  4  2  1  0
  4  5  2  0
  6  7  1  0
  7  9  1  0
  8  7  2  0
  9 10  1  0
 11 10  1  1
 11 12  1  0
 12  4  1  0
 13 11  1  0
 13 15  1  0
 14 13  2  0
 16 15  1  0
 16 19  1  0
 17 18  1  0
 16 17  1  6
 19 21  2  0
 19 20  1  0
M  END
$$$$
