AQC.pdb
     RDKit          3D

 21 20  0  0  1  0  0  0  0  0999 V2000
   25.2884  -19.7973   -9.6177 C   0  0  0  0  0  0  0  0  0  0  0  0
   24.0156  -20.3616  -10.1931 C   0  0  2  0  0  0  0  0  0  0  0  0
   23.9354  -21.7571   -9.7404 N   0  0  0  0  0  0  0  0  0  0  0  0
   24.0060  -20.3749  -11.6648 C   0  0  0  0  0  0  0  0  0  0  0  0
   24.6247  -21.3327  -12.2293 O   0  0  0  0  0  0  0  0  0  0  0  0
   20.8191  -21.3790  -15.3223 N   0  0  0  0  0  0  0  0  0  0  0  0
   21.1394  -20.4044  -16.2886 C   0  0  0  0  0  0  0  0  0  0  0  0
   20.8621  -20.6503  -17.4847 O   0  0  0  0  0  0  0  0  0  0  0  0
   21.7968  -19.1111  -15.8686 C   0  0  0  0  0  0  0  0  0  0  0  0
   21.9604  -19.1595  -14.3860 C   0  0  0  0  0  0  0  0  0  0  0  0
   23.3494  -19.5544  -13.9514 C   0  0  2  0  0  0  0  0  0  0  0  0
   23.3744  -19.4234  -12.4795 N   0  0  0  0  0  0  0  0  0  0  0  0
   24.3940  -18.7171  -14.5443 C   0  0  0  0  0  0  0  0  0  0  0  0
   24.3599  -17.4772  -14.4219 O   0  0  0  0  0  0  0  0  0  0  0  0
   25.4706  -19.2888  -15.2721 N   0  0  0  0  0  0  0  0  0  0  0  0
   26.5196  -18.4640  -15.8563 C   0  0  1  0  0  0  0  0  0  0  0  0
   27.8270  -18.9187  -15.2577 C   0  0  0  0  0  0  0  0  0  0  0  0
   27.7992  -18.8457  -13.4576 S   0  0  0  0  0  0  0  0  0  0  0  0
   26.5414  -18.5722  -17.3293 C   0  0  0  0  0  0  0  0  0  0  0  0
   27.4740  -17.9505  -18.1239 O   0  0  0  0  0  0  0  0  0  0  0  0
   25.6534  -19.2740  -17.8765 O   0  0  0  0  0  0  0  0  0  0  0  0
  2  1  1  6
  3  2  1  0
  4  2  1  0
  4  5  2  0
  6  7  1  0
  7  9  1  0
  8  7  2  0
  9 10  1  0
 11 10  1  6
 11 12  1  0
 12  4  1  0
 13 11  1  0
 13 15  1  0
 14 13  2  0
 16 15  1  0
 16 19  1  0
 17 18  1  0
 16 17  1  1
 19 21  2  0
 19 20  1  0
M  END
$$$$
