AQC.pdb
     RDKit          3D

 21 20  0  0  1  0  0  0  0  0999 V2000
   18.5279  -12.7495  -17.9682 C   0  0  0  0  0  0  0  0  0  0  0  0
   19.7111  -12.1355  -17.2664 C   0  0  2  0  0  0  0  0  0  0  0  0
   20.1085  -13.0801  -16.2136 N   0  0  0  0  0  0  0  0  0  0  0  0
   19.3918  -10.8563  -16.6125 C   0  0  0  0  0  0  0  0  0  0  0  0
   19.2772   -9.8419  -17.3719 O   0  0  0  0  0  0  0  0  0  0  0  0
   16.7217  -10.1648  -11.1738 N   0  0  0  0  0  0  0  0  0  0  0  0
   16.1376   -9.2064  -12.0261 C   0  0  0  0  0  0  0  0  0  0  0  0
   15.0282   -8.7275  -11.6979 O   0  0  0  0  0  0  0  0  0  0  0  0
   16.8485   -8.7866  -13.2908 C   0  0  0  0  0  0  0  0  0  0  0  0
   18.0742   -9.6297  -13.4096 C   0  0  0  0  0  0  0  0  0  0  0  0
   18.8684   -9.3550  -14.6617 C   0  0  2  0  0  0  0  0  0  0  0  0
   19.2070  -10.6751  -15.2336 N   0  0  0  0  0  0  0  0  0  0  0  0
   20.0924   -8.5931  -14.4071 C   0  0  0  0  0  0  0  0  0  0  0  0
   21.1826   -9.1764  -14.2497 O   0  0  0  0  0  0  0  0  0  0  0  0
   20.0746   -7.1754  -14.3324 N   0  0  0  0  0  0  0  0  0  0  0  0
   21.2993   -6.4050  -14.1636 C   0  0  1  0  0  0  0  0  0  0  0  0
   22.1956   -6.7345  -15.3307 C   0  0  0  0  0  0  0  0  0  0  0  0
   23.6677   -5.6958  -15.3570 S   0  0  0  0  0  0  0  0  0  0  0  0
   21.0259   -4.9550  -14.0939 C   0  0  0  0  0  0  0  0  0  0  0  0
   21.7193   -4.0883  -13.2842 O   0  0  0  0  0  0  0  0  0  0  0  0
   20.1062   -4.4986  -14.8194 O   0  0  0  0  0  0  0  0  0  0  0  0
  2  1  1  1
  3  2  1  0
  4  2  1  0
  4  5  2  0
  6  7  1  0
  7  9  1  0
  8  7  2  0
  9 10  1  0
 11 10  1  1
 11 12  1  0
 12  4  1  0
 13 11  1  0
 13 15  1  0
 14 13  2  0
 16 15  1  0
 16 19  1  0
 17 18  1  0
 16 17  1  6
 19 21  2  0
 19 20  1  0
M  END
$$$$
