KPT.pdb
     RDKit          3D

 24 24  0  0  1  0  0  0  0  0999 V2000
   22.4138  -19.8483  -16.0431 N   0  0  0  0  0  0  0  0  0  0  0  0
   23.4951  -19.3335  -15.2005 C   0  0  1  0  0  0  0  0  0  0  0  0
   23.6743  -20.2475  -14.0030 C   0  0  0  0  0  0  0  0  0  0  0  0
   22.4123  -20.5489  -13.2941 C   0  0  0  0  0  0  0  0  0  0  0  0
   21.3631  -21.2967  -14.0099 C   0  0  0  0  0  0  0  0  0  0  0  0
   20.1692  -21.6963  -13.2178 C   0  0  0  0  0  0  0  0  0  0  0  0
   19.1119  -22.2382  -14.0869 N   0  0  0  0  0  0  0  0  0  0  0  0
   24.6944  -19.3169  -16.0643 C   0  0  0  0  0  0  0  0  0  0  0  0
   24.8934  -20.2515  -16.9169 O   0  0  0  0  0  0  0  0  0  0  0  0
   25.6708  -18.3043  -16.0144 N   0  0  0  0  0  0  0  0  0  0  0  0
   25.5815  -17.1086  -15.2035 C   0  0  0  0  0  0  0  0  0  0  0  0
   27.0682  -16.9000  -14.8725 C   0  0  0  0  0  0  0  0  0  0  0  0
   27.6185  -17.0227  -16.3016 C   0  0  0  0  0  0  0  0  0  0  0  0
   26.9429  -18.2705  -16.7582 C   0  0  1  0  0  0  0  0  0  0  0  0
   27.7370  -19.4925  -16.4751 C   0  0  0  0  0  0  0  0  0  0  0  0
   28.1912  -19.6525  -15.3174 O   0  0  0  0  0  0  0  0  0  0  0  0
   27.6736  -22.9889  -15.8443 C   0  0  0  0  0  0  0  0  0  0  0  0
   28.3116  -22.8408  -17.1861 C   0  0  1  0  0  0  0  0  0  0  0  0
   27.2892  -22.8772  -18.1574 O   0  0  0  0  0  0  0  0  0  0  0  0
   29.0057  -21.4981  -17.3201 C   0  0  2  0  0  0  0  0  0  0  0  0
   28.0033  -20.4806  -17.4485 N   0  0  0  0  0  0  0  0  0  0  0  0
   29.8708  -21.5694  -18.5245 C   0  0  0  0  0  0  0  0  0  0  0  0
   29.5403  -20.8990  -19.6926 O   0  0  0  0  0  0  0  0  0  0  0  0
   30.9257  -22.2469  -18.4983 O   0  0  0  0  0  0  0  0  0  0  0  0
  2  1  1  6
  3  2  1  0
  4  3  1  0
  5  6  1  0
  5  4  1  0
  7  6  1  0
  8  9  2  0
  8  2  1  0
 10  8  1  0
 11 10  1  0
 12 13  1  0
 12 11  1  0
 13 14  1  0
 14 10  1  0
 14 15  1  1
 16 15  2  0
 18 17  1  1
 19 18  1  0
 20 18  1  0
 20 21  1  6
 21 15  1  0
 22 23  1  0
 22 20  1  0
 24 22  2  0
M  END
$$$$
