KPT.pdb
     RDKit          3D

 24 24  0  0  1  0  0  0  0  0999 V2000
   26.4387  -19.4275  -19.2683 N   0  0  0  0  0  0  0  0  0  0  0  0
   26.0359  -18.7089  -18.0577 C   0  0  1  0  0  0  0  0  0  0  0  0
   24.6096  -18.2180  -18.2187 C   0  0  0  0  0  0  0  0  0  0  0  0
   24.4801  -17.0654  -19.1356 C   0  0  0  0  0  0  0  0  0  0  0  0
   23.5289  -17.1607  -20.2575 C   0  0  0  0  0  0  0  0  0  0  0  0
   22.1010  -17.3834  -19.9054 C   0  0  0  0  0  0  0  0  0  0  0  0
   21.2525  -17.3938  -21.1083 N   0  0  0  0  0  0  0  0  0  0  0  0
   26.1598  -19.6887  -16.9579 C   0  0  0  0  0  0  0  0  0  0  0  0
   25.6088  -20.8410  -17.0498 O   0  0  0  0  0  0  0  0  0  0  0  0
   26.8708  -19.4340  -15.7701 N   0  0  0  0  0  0  0  0  0  0  0  0
   27.7845  -18.3285  -15.5741 C   0  0  0  0  0  0  0  0  0  0  0  0
   27.5513  -18.0524  -14.0799 C   0  0  0  0  0  0  0  0  0  0  0  0
   27.7060  -19.4952  -13.5753 C   0  0  0  0  0  0  0  0  0  0  0  0
   26.8193  -20.2236  -14.5267 C   0  0  1  0  0  0  0  0  0  0  0  0
   25.4198  -20.3309  -14.0429 C   0  0  0  0  0  0  0  0  0  0  0  0
   24.6653  -19.3388  -14.1785 O   0  0  0  0  0  0  0  0  0  0  0  0
   23.8992  -24.1713  -13.4601 C   0  0  0  0  0  0  0  0  0  0  0  0
   23.0973  -22.9976  -13.9175 C   0  0  1  0  0  0  0  0  0  0  0  0
   21.7470  -23.2429  -13.5915 O   0  0  0  0  0  0  0  0  0  0  0  0
   23.5089  -21.7322  -13.1881 C   0  0  2  0  0  0  0  0  0  0  0  0
   24.9012  -21.4974  -13.4384 N   0  0  0  0  0  0  0  0  0  0  0  0
   23.2415  -21.9511  -11.7443 C   0  0  0  0  0  0  0  0  0  0  0  0
   21.9543  -21.8964  -11.2311 O   0  0  0  0  0  0  0  0  0  0  0  0
   24.1909  -22.1915  -10.9612 O   0  0  0  0  0  0  0  0  0  0  0  0
  2  1  1  6
  3  2  1  0
  4  3  1  0
  5  6  1  0
  5  4  1  0
  7  6  1  0
  8  9  2  0
  8  2  1  0
 10  8  1  0
 11 10  1  0
 12 13  1  0
 12 11  1  0
 13 14  1  0
 14 10  1  0
 14 15  1  1
 16 15  2  0
 18 17  1  1
 19 18  1  0
 20 18  1  0
 20 21  1  1
 21 15  1  0
 22 23  1  0
 22 20  1  0
 24 22  2  0
M  END
$$$$
