KPT.pdb
     RDKit          3D

 24 24  0  0  1  0  0  0  0  0999 V2000
   18.9295  -12.7379  -16.1467 N   0  0  0  0  0  0  0  0  0  0  0  0
   18.8032  -11.4680  -16.8648 C   0  0  1  0  0  0  0  0  0  0  0  0
   17.3971  -10.9284  -16.6831 C   0  0  0  0  0  0  0  0  0  0  0  0
   16.3400  -11.8954  -17.0483 C   0  0  0  0  0  0  0  0  0  0  0  0
   15.2354  -12.1238  -16.0995 C   0  0  0  0  0  0  0  0  0  0  0  0
   14.1651  -13.0611  -16.5337 C   0  0  0  0  0  0  0  0  0  0  0  0
   13.0440  -13.0660  -15.5797 N   0  0  0  0  0  0  0  0  0  0  0  0
   19.8171  -10.5741  -16.2666 C   0  0  0  0  0  0  0  0  0  0  0  0
   19.8489  -10.3838  -15.0006 O   0  0  0  0  0  0  0  0  0  0  0  0
   20.7899   -9.8919  -17.0212 N   0  0  0  0  0  0  0  0  0  0  0  0
   20.9798  -10.0357  -18.4490 C   0  0  0  0  0  0  0  0  0  0  0  0
   21.4318   -8.6094  -18.8022 C   0  0  0  0  0  0  0  0  0  0  0  0
   22.5162   -8.4620  -17.7240 C   0  0  0  0  0  0  0  0  0  0  0  0
   21.7757   -8.9205  -16.5142 C   0  0  1  0  0  0  0  0  0  0  0  0
   21.0881   -7.8122  -15.8051 C   0  0  0  0  0  0  0  0  0  0  0  0
   19.9345   -7.4920  -16.1776 O   0  0  0  0  0  0  0  0  0  0  0  0
   19.5918   -7.6451  -12.7793 C   0  0  0  0  0  0  0  0  0  0  0  0
   20.6145   -6.5645  -12.6534 C   0  0  1  0  0  0  0  0  0  0  0  0
   21.7630   -7.1237  -12.0550 O   0  0  0  0  0  0  0  0  0  0  0  0
   21.0319   -6.0406  -14.0150 C   0  0  2  0  0  0  0  0  0  0  0  0
   21.6733   -7.1038  -14.7324 N   0  0  0  0  0  0  0  0  0  0  0  0
   21.9554   -4.9017  -13.7829 C   0  0  0  0  0  0  0  0  0  0  0  0
   21.4956   -3.6842  -13.3038 O   0  0  0  0  0  0  0  0  0  0  0  0
   23.1799   -5.0299  -14.0211 O   0  0  0  0  0  0  0  0  0  0  0  0
  2  1  1  1
  3  2  1  0
  4  3  1  0
  5  6  1  0
  5  4  1  0
  7  6  1  0
  8  9  2  0
  8  2  1  0
 10  8  1  0
 11 10  1  0
 12 13  1  0
 12 11  1  0
 13 14  1  0
 14 10  1  0
 14 15  1  6
 16 15  2  0
 18 17  1  6
 19 18  1  0
 20 18  1  0
 20 21  1  6
 21 15  1  0
 22 23  1  0
 22 20  1  0
 24 22  2  0
M  END
$$$$
