KPT.pdb
     RDKit          3D

 24 24  0  0  1  0  0  0  0  0999 V2000
   20.8216  -20.4198  -12.4728 N   0  0  0  0  0  0  0  0  0  0  0  0
   21.9829  -21.3042  -12.5889 C   0  0  1  0  0  0  0  0  0  0  0  0
   21.7608  -22.2734  -13.7345 C   0  0  0  0  0  0  0  0  0  0  0  0
   20.5409  -23.0956  -13.5865 C   0  0  0  0  0  0  0  0  0  0  0  0
   20.4759  -24.0673  -12.4802 C   0  0  0  0  0  0  0  0  0  0  0  0
   19.2919  -24.9672  -12.4504 C   0  0  0  0  0  0  0  0  0  0  0  0
   19.4100  -25.9654  -11.3749 N   0  0  0  0  0  0  0  0  0  0  0  0
   23.1346  -20.4119  -12.8384 C   0  0  0  0  0  0  0  0  0  0  0  0
   22.9789  -19.3147  -13.4802 O   0  0  0  0  0  0  0  0  0  0  0  0
   24.4423  -20.6945  -12.4009 N   0  0  0  0  0  0  0  0  0  0  0  0
   24.7954  -21.7545  -11.4805 C   0  0  0  0  0  0  0  0  0  0  0  0
   26.1815  -22.1316  -12.0284 C   0  0  0  0  0  0  0  0  0  0  0  0
   26.7713  -20.7146  -12.0947 C   0  0  0  0  0  0  0  0  0  0  0  0
   25.6737  -19.9841  -12.7901 C   0  0  1  0  0  0  0  0  0  0  0  0
   25.8246  -19.9874  -14.2670 C   0  0  0  0  0  0  0  0  0  0  0  0
   25.5315  -21.0334  -14.8931 O   0  0  0  0  0  0  0  0  0  0  0  0
   26.1879  -17.3137  -18.3815 C   0  0  0  0  0  0  0  0  0  0  0  0
   26.0179  -17.4440  -16.9038 C   0  0  1  0  0  0  0  0  0  0  0  0
   24.6479  -17.2809  -16.6101 O   0  0  0  0  0  0  0  0  0  0  0  0
   26.4146  -18.8280  -16.4242 C   0  0  2  0  0  0  0  0  0  0  0  0
   26.2823  -18.8682  -14.9968 N   0  0  0  0  0  0  0  0  0  0  0  0
   27.8184  -19.0546  -16.8506 C   0  0  0  0  0  0  0  0  0  0  0  0
   28.1206  -19.8262  -17.9626 O   0  0  0  0  0  0  0  0  0  0  0  0
   28.7606  -18.5431  -16.2000 O   0  0  0  0  0  0  0  0  0  0  0  0
  2  1  1  6
  3  2  1  0
  4  3  1  0
  5  6  1  0
  5  4  1  0
  7  6  1  0
  8  9  2  0
  8  2  1  0
 10  8  1  0
 11 10  1  0
 12 13  1  0
 12 11  1  0
 13 14  1  0
 14 10  1  0
 14 15  1  6
 16 15  2  0
 18 17  1  6
 19 18  1  0
 20 18  1  0
 20 21  1  1
 21 15  1  0
 22 23  1  0
 22 20  1  0
 24 22  2  0
M  END
$$$$
