KPT.pdb
     RDKit          3D

 24 24  0  0  1  0  0  0  0  0999 V2000
   21.3899  -21.9640  -13.8294 N   0  0  0  0  0  0  0  0  0  0  0  0
   21.1501  -21.0222  -12.7341 C   0  0  1  0  0  0  0  0  0  0  0  0
   19.8319  -20.3087  -12.9676 C   0  0  0  0  0  0  0  0  0  0  0  0
   19.6112  -19.9187  -14.3766 C   0  0  0  0  0  0  0  0  0  0  0  0
   19.6370  -18.4865  -14.7238 C   0  0  0  0  0  0  0  0  0  0  0  0
   19.2870  -18.1327  -16.1255 C   0  0  0  0  0  0  0  0  0  0  0  0
   19.2463  -16.6729  -16.3107 N   0  0  0  0  0  0  0  0  0  0  0  0
   21.1206  -21.8446  -11.5062 C   0  0  0  0  0  0  0  0  0  0  0  0
   20.4401  -22.9288  -11.4671 O   0  0  0  0  0  0  0  0  0  0  0  0
   21.8173  -21.5068  -10.3309 N   0  0  0  0  0  0  0  0  0  0  0  0
   22.7782  -20.4298  -10.2197 C   0  0  0  0  0  0  0  0  0  0  0  0
   22.5265  -19.9978   -8.7659 C   0  0  0  0  0  0  0  0  0  0  0  0
   22.6016  -21.3895   -8.1196 C   0  0  0  0  0  0  0  0  0  0  0  0
   21.7018  -22.1672   -9.0182 C   0  0  1  0  0  0  0  0  0  0  0  0
   20.2888  -22.1630   -8.5628 C   0  0  0  0  0  0  0  0  0  0  0  0
   19.4789  -21.4006   -9.1417 O   0  0  0  0  0  0  0  0  0  0  0  0
   17.1117  -25.3583   -8.4443 C   0  0  0  0  0  0  0  0  0  0  0  0
   18.4007  -24.6107   -8.5391 C   0  0  1  0  0  0  0  0  0  0  0  0
   18.4190  -23.9355   -9.7775 O   0  0  0  0  0  0  0  0  0  0  0  0
   18.5053  -23.5547   -7.4545 C   0  0  2  0  0  0  0  0  0  0  0  0
   19.8167  -22.9769   -7.5095 N   0  0  0  0  0  0  0  0  0  0  0  0
   18.2597  -24.2325   -6.1567 C   0  0  0  0  0  0  0  0  0  0  0  0
   19.2976  -24.7879   -5.4234 O   0  0  0  0  0  0  0  0  0  0  0  0
   17.0935  -24.3116   -5.7025 O   0  0  0  0  0  0  0  0  0  0  0  0
  2  1  1  6
  3  2  1  0
  4  3  1  0
  5  6  1  0
  5  4  1  0
  7  6  1  0
  8  9  2  0
  8  2  1  0
 10  8  1  0
 11 10  1  0
 12 13  1  0
 12 11  1  0
 13 14  1  0
 14 10  1  0
 14 15  1  1
 16 15  2  0
 18 17  1  1
 19 18  1  0
 20 18  1  0
 20 21  1  1
 21 15  1  0
 22 23  1  0
 22 20  1  0
 24 22  2  0
M  END
$$$$
