KPT.pdb
     RDKit          3D

 24 24  0  0  1  0  0  0  0  0999 V2000
   19.2539  -12.6946  -17.0477 N   0  0  0  0  0  0  0  0  0  0  0  0
   20.4813  -11.9459  -17.3258 C   0  0  1  0  0  0  0  0  0  0  0  0
   20.3123  -11.1711  -18.6190 C   0  0  0  0  0  0  0  0  0  0  0  0
   19.1240  -11.5752  -19.4005 C   0  0  0  0  0  0  0  0  0  0  0  0
   17.7924  -11.4252  -18.7866 C   0  0  0  0  0  0  0  0  0  0  0  0
   16.6197  -11.6898  -19.6624 C   0  0  0  0  0  0  0  0  0  0  0  0
   16.0455  -10.4350  -20.1751 N   0  0  0  0  0  0  0  0  0  0  0  0
   20.6667  -11.0480  -16.1665 C   0  0  0  0  0  0  0  0  0  0  0  0
   19.7117  -10.2916  -15.7718 O   0  0  0  0  0  0  0  0  0  0  0  0
   21.8669  -10.9642  -15.4359 N   0  0  0  0  0  0  0  0  0  0  0  0
   22.9934  -11.8599  -15.5906 C   0  0  0  0  0  0  0  0  0  0  0  0
   24.1482  -10.8874  -15.3005 C   0  0  0  0  0  0  0  0  0  0  0  0
   23.5970  -10.2936  -13.9952 C   0  0  0  0  0  0  0  0  0  0  0  0
   22.1996   -9.9694  -14.4005 C   0  0  1  0  0  0  0  0  0  0  0  0
   22.0616   -8.5949  -14.9443 C   0  0  0  0  0  0  0  0  0  0  0  0
   22.4228   -8.3832  -16.1262 O   0  0  0  0  0  0  0  0  0  0  0  0
   19.9209   -4.2616  -14.9992 C   0  0  0  0  0  0  0  0  0  0  0  0
   20.0497   -5.6806  -14.5527 C   0  0  1  0  0  0  0  0  0  0  0  0
   19.2856   -6.4804  -15.4281 O   0  0  0  0  0  0  0  0  0  0  0  0
   21.4862   -6.1600  -14.6508 C   0  0  2  0  0  0  0  0  0  0  0  0
   21.5431   -7.5176  -14.1924 N   0  0  0  0  0  0  0  0  0  0  0  0
   22.3079   -5.2607  -13.8024 C   0  0  0  0  0  0  0  0  0  0  0  0
   23.0100   -4.1956  -14.3464 O   0  0  0  0  0  0  0  0  0  0  0  0
   22.3773   -5.4573  -12.5658 O   0  0  0  0  0  0  0  0  0  0  0  0
  2  1  1  1
  3  2  1  0
  4  3  1  0
  5  6  1  0
  5  4  1  0
  7  6  1  0
  8  9  2  0
  8  2  1  0
 10  8  1  0
 11 10  1  0
 12 13  1  0
 12 11  1  0
 13 14  1  0
 14 10  1  0
 14 15  1  6
 16 15  2  0
 18 17  1  6
 19 18  1  0
 20 18  1  0
 20 21  1  1
 21 15  1  0
 22 23  1  0
 22 20  1  0
 24 22  2  0
M  END
$$$$
