KPT.pdb
     RDKit          3D

 24 24  0  0  1  0  0  0  0  0999 V2000
   28.3454  -24.3976  -16.8239 N   0  0  0  0  0  0  0  0  0  0  0  0
   27.5632  -23.1867  -17.0808 C   0  0  1  0  0  0  0  0  0  0  0  0
   26.1685  -23.5784  -17.5310 C   0  0  0  0  0  0  0  0  0  0  0  0
   26.1459  -24.3230  -18.8082 C   0  0  0  0  0  0  0  0  0  0  0  0
   26.1130  -25.7959  -18.7647 C   0  0  0  0  0  0  0  0  0  0  0  0
   24.8263  -26.4236  -18.3609 C   0  0  0  0  0  0  0  0  0  0  0  0
   24.9405  -27.8906  -18.3202 N   0  0  0  0  0  0  0  0  0  0  0  0
   27.5414  -22.4518  -15.7985 C   0  0  0  0  0  0  0  0  0  0  0  0
   27.5124  -23.0867  -14.6868 O   0  0  0  0  0  0  0  0  0  0  0  0
   27.5525  -21.0471  -15.7106 N   0  0  0  0  0  0  0  0  0  0  0  0
   27.7164  -20.1494  -16.8344 C   0  0  0  0  0  0  0  0  0  0  0  0
   26.8393  -18.9762  -16.3678 C   0  0  0  0  0  0  0  0  0  0  0  0
   27.4270  -18.8258  -14.9563 C   0  0  0  0  0  0  0  0  0  0  0  0
   27.3992  -20.2403  -14.4867 C   0  0  1  0  0  0  0  0  0  0  0  0
   26.1345  -20.5925  -13.7934 C   0  0  0  0  0  0  0  0  0  0  0  0
   25.1342  -20.8836  -14.4910 O   0  0  0  0  0  0  0  0  0  0  0  0
   26.2214  -21.8679   -9.8182 C   0  0  0  0  0  0  0  0  0  0  0  0
   25.1047  -20.9509  -10.1946 C   0  0  1  0  0  0  0  0  0  0  0  0
   25.5113  -19.6320   -9.9031 O   0  0  0  0  0  0  0  0  0  0  0  0
   24.8220  -21.0108  -11.6843 C   0  0  2  0  0  0  0  0  0  0  0  0
   26.0076  -20.6144  -12.3869 N   0  0  0  0  0  0  0  0  0  0  0  0
   23.6912  -20.0874  -11.9540 C   0  0  0  0  0  0  0  0  0  0  0  0
   22.3978  -20.3935  -11.5583 O   0  0  0  0  0  0  0  0  0  0  0  0
   23.8964  -19.0042  -12.5516 O   0  0  0  0  0  0  0  0  0  0  0  0
  2  1  1  1
  3  2  1  0
  4  3  1  0
  5  6  1  0
  5  4  1  0
  7  6  1  0
  8  9  2  0
  8  2  1  0
 10  8  1  0
 11 10  1  0
 12 13  1  0
 12 11  1  0
 13 14  1  0
 14 10  1  0
 14 15  1  6
 16 15  2  0
 18 17  1  6
 19 18  1  0
 20 18  1  0
 20 21  1  6
 21 15  1  0
 22 23  1  0
 22 20  1  0
 24 22  2  0
M  END
$$$$
