KPT.pdb
     RDKit          3D

 24 24  0  0  1  0  0  0  0  0999 V2000
   24.8716  -22.1288  -12.6693 N   0  0  0  0  0  0  0  0  0  0  0  0
   25.9989  -21.2035  -12.5383 C   0  0  1  0  0  0  0  0  0  0  0  0
   25.4850  -19.7774  -12.5989 C   0  0  0  0  0  0  0  0  0  0  0  0
   25.0229  -19.3712  -13.9433 C   0  0  0  0  0  0  0  0  0  0  0  0
   23.6116  -19.5990  -14.3021 C   0  0  0  0  0  0  0  0  0  0  0  0
   23.1694  -19.0916  -15.6286 C   0  0  0  0  0  0  0  0  0  0  0  0
   21.7329  -19.3351  -15.8387 N   0  0  0  0  0  0  0  0  0  0  0  0
   26.6124  -21.5122  -11.2295 C   0  0  0  0  0  0  0  0  0  0  0  0
   25.8781  -21.7203  -10.2012 O   0  0  0  0  0  0  0  0  0  0  0  0
   28.0026  -21.5984  -11.0269 N   0  0  0  0  0  0  0  0  0  0  0  0
   28.9963  -21.5481  -12.0783 C   0  0  0  0  0  0  0  0  0  0  0  0
   30.1391  -20.8421  -11.3306 C   0  0  0  0  0  0  0  0  0  0  0  0
   30.1472  -21.7302  -10.0770 C   0  0  0  0  0  0  0  0  0  0  0  0
   28.6964  -21.7493   -9.7352 C   0  0  1  0  0  0  0  0  0  0  0  0
   28.3075  -20.6541   -8.8114 C   0  0  0  0  0  0  0  0  0  0  0  0
   28.0411  -19.5302   -9.2991 O   0  0  0  0  0  0  0  0  0  0  0  0
   25.5222  -19.8720   -7.0111 C   0  0  0  0  0  0  0  0  0  0  0  0
   26.5486  -19.9641   -5.9306 C   0  0  1  0  0  0  0  0  0  0  0  0
   26.4975  -21.2683   -5.3956 O   0  0  0  0  0  0  0  0  0  0  0  0
   27.9479  -19.7636   -6.4825 C   0  0  2  0  0  0  0  0  0  0  0  0
   28.2244  -20.8207   -7.4113 N   0  0  0  0  0  0  0  0  0  0  0  0
   28.8825  -19.7897   -5.3294 C   0  0  0  0  0  0  0  0  0  0  0  0
   28.9314  -18.7482   -4.4149 O   0  0  0  0  0  0  0  0  0  0  0  0
   29.6495  -20.7684   -5.1671 O   0  0  0  0  0  0  0  0  0  0  0  0
  2  1  1  1
  3  2  1  0
  4  3  1  0
  5  6  1  0
  5  4  1  0
  7  6  1  0
  8  9  2  0
  8  2  1  0
 10  8  1  0
 11 10  1  0
 12 13  1  0
 12 11  1  0
 13 14  1  0
 14 10  1  0
 14 15  1  1
 16 15  2  0
 18 17  1  6
 19 18  1  0
 20 18  1  0
 20 21  1  6
 21 15  1  0
 22 23  1  0
 22 20  1  0
 24 22  2  0
M  END
$$$$
