KPT.pdb
     RDKit          3D

 24 24  0  0  1  0  0  0  0  0999 V2000
   14.6024  -21.8375   -1.1415 N   0  0  0  0  0  0  0  0  0  0  0  0
   14.5202  -20.6786   -0.2502 C   0  0  1  0  0  0  0  0  0  0  0  0
   13.0629  -20.3198   -0.0296 C   0  0  0  0  0  0  0  0  0  0  0  0
   12.1189  -21.3380   -0.5377 C   0  0  0  0  0  0  0  0  0  0  0  0
   10.7895  -21.4422    0.0901 C   0  0  0  0  0  0  0  0  0  0  0  0
    9.8773  -22.4872   -0.4469 C   0  0  0  0  0  0  0  0  0  0  0  0
    8.6002  -22.5048    0.2849 N   0  0  0  0  0  0  0  0  0  0  0  0
   15.1795  -21.0984    1.0044 C   0  0  0  0  0  0  0  0  0  0  0  0
   15.1737  -22.3284    1.3608 O   0  0  0  0  0  0  0  0  0  0  0  0
   15.8411  -20.2054    1.8680 N   0  0  0  0  0  0  0  0  0  0  0  0
   15.9605  -18.7793    1.6497 C   0  0  0  0  0  0  0  0  0  0  0  0
   15.9309  -18.2841    3.1048 C   0  0  0  0  0  0  0  0  0  0  0  0
   16.9954  -19.2368    3.6703 C   0  0  0  0  0  0  0  0  0  0  0  0
   16.5198  -20.5430    3.1320 C   0  0  1  0  0  0  0  0  0  0  0  0
   15.5821  -21.2374    4.0499 C   0  0  0  0  0  0  0  0  0  0  0  0
   14.3870  -20.8592    4.0782 O   0  0  0  0  0  0  0  0  0  0  0  0
   15.1610  -25.1018    4.5303 C   0  0  0  0  0  0  0  0  0  0  0  0
   15.4727  -24.4451    5.8346 C   0  0  1  0  0  0  0  0  0  0  0  0
   16.8672  -24.5193    6.0337 O   0  0  0  0  0  0  0  0  0  0  0  0
   15.1037  -22.9733    5.8116 C   0  0  2  0  0  0  0  0  0  0  0  0
   15.9745  -22.3022    4.8908 N   0  0  0  0  0  0  0  0  0  0  0  0
   15.2673  -22.4582    7.1943 C   0  0  0  0  0  0  0  0  0  0  0  0
   14.3833  -22.8061    8.2046 O   0  0  0  0  0  0  0  0  0  0  0  0
   16.2210  -21.6913    7.4680 O   0  0  0  0  0  0  0  0  0  0  0  0
  2  1  1  6
  3  2  1  0
  4  3  1  0
  5  6  1  0
  5  4  1  0
  7  6  1  0
  8  9  2  0
  8  2  1  0
 10  8  1  0
 11 10  1  0
 12 13  1  0
 12 11  1  0
 13 14  1  0
 14 10  1  0
 14 15  1  1
 16 15  2  0
 18 17  1  6
 19 18  1  0
 20 18  1  0
 20 21  1  6
 21 15  1  0
 22 23  1  0
 22 20  1  0
 24 22  2  0
M  END
$$$$
