KPT.pdb
     RDKit          3D

 24 24  0  0  1  0  0  0  0  0999 V2000
   18.2186  -14.1581  -17.1018 N   0  0  0  0  0  0  0  0  0  0  0  0
   17.3156  -13.0074  -17.1700 C   0  0  1  0  0  0  0  0  0  0  0  0
   16.4097  -13.0099  -15.9532 C   0  0  0  0  0  0  0  0  0  0  0  0
   15.3936  -14.0837  -15.9736 C   0  0  0  0  0  0  0  0  0  0  0  0
   15.5833  -15.2503  -15.0931 C   0  0  0  0  0  0  0  0  0  0  0  0
   14.5079  -16.2779  -15.1050 C   0  0  0  0  0  0  0  0  0  0  0  0
   14.8776  -17.4435  -14.2855 N   0  0  0  0  0  0  0  0  0  0  0  0
   18.1934  -11.8185  -17.2001 C   0  0  0  0  0  0  0  0  0  0  0  0
   19.2733  -11.7913  -16.5124 O   0  0  0  0  0  0  0  0  0  0  0  0
   17.9149  -10.6694  -17.9637 N   0  0  0  0  0  0  0  0  0  0  0  0
   16.7625  -10.5079  -18.8248 C   0  0  0  0  0  0  0  0  0  0  0  0
   16.5197   -8.9984  -18.6638 C   0  0  0  0  0  0  0  0  0  0  0  0
   17.9580   -8.5272  -18.9269 C   0  0  0  0  0  0  0  0  0  0  0  0
   18.7225   -9.4381  -18.0281 C   0  0  1  0  0  0  0  0  0  0  0  0
   18.9145   -8.8770  -16.6671 C   0  0  0  0  0  0  0  0  0  0  0  0
   17.9688   -8.9640  -15.8484 O   0  0  0  0  0  0  0  0  0  0  0  0
   21.5532   -9.7059  -14.1626 C   0  0  0  0  0  0  0  0  0  0  0  0
   21.6372   -8.2355  -14.4084 C   0  0  1  0  0  0  0  0  0  0  0  0
   22.6177   -8.0180  -15.3989 O   0  0  0  0  0  0  0  0  0  0  0  0
   20.3281   -7.6928  -14.9509 C   0  0  2  0  0  0  0  0  0  0  0  0
   20.1113   -8.2511  -16.2539 N   0  0  0  0  0  0  0  0  0  0  0  0
   20.4536   -6.2144  -15.0027 C   0  0  0  0  0  0  0  0  0  0  0  0
   20.4951   -5.4515  -13.8453 O   0  0  0  0  0  0  0  0  0  0  0  0
   20.5246   -5.6306  -16.1102 O   0  0  0  0  0  0  0  0  0  0  0  0
  2  1  1  1
  3  2  1  0
  4  3  1  0
  5  6  1  0
  5  4  1  0
  7  6  1  0
  8  9  2  0
  8  2  1  0
 10  8  1  0
 11 10  1  0
 12 13  1  0
 12 11  1  0
 13 14  1  0
 14 10  1  0
 14 15  1  1
 16 15  2  0
 18 17  1  6
 19 18  1  0
 20 18  1  0
 20 21  1  6
 21 15  1  0
 22 23  1  0
 22 20  1  0
 24 22  2  0
M  END
$$$$
