KPT.pdb
     RDKit          3D

 24 24  0  0  1  0  0  0  0  0999 V2000
   18.9399  -27.7495  -10.9465 N   0  0  0  0  0  0  0  0  0  0  0  0
   18.3074  -26.5402  -10.4156 C   0  0  1  0  0  0  0  0  0  0  0  0
   16.9418  -26.3689  -11.0536 C   0  0  0  0  0  0  0  0  0  0  0  0
   16.9699  -25.5971  -12.3145 C   0  0  0  0  0  0  0  0  0  0  0  0
   16.9749  -24.1251  -12.2398 C   0  0  0  0  0  0  0  0  0  0  0  0
   16.2734  -23.3986  -13.3318 C   0  0  0  0  0  0  0  0  0  0  0  0
   16.2612  -21.9478  -13.0826 N   0  0  0  0  0  0  0  0  0  0  0  0
   18.2100  -26.7542   -8.9563 C   0  0  0  0  0  0  0  0  0  0  0  0
   17.7532  -27.8563   -8.4908 O   0  0  0  0  0  0  0  0  0  0  0  0
   18.6016  -25.7937   -8.0049 N   0  0  0  0  0  0  0  0  0  0  0  0
   19.2589  -24.5419   -8.3157 C   0  0  0  0  0  0  0  0  0  0  0  0
   18.6723  -23.6514   -7.2083 C   0  0  0  0  0  0  0  0  0  0  0  0
   18.9513  -24.5854   -6.0208 C   0  0  0  0  0  0  0  0  0  0  0  0
   18.4181  -25.8751   -6.5447 C   0  0  1  0  0  0  0  0  0  0  0  0
   16.9849  -26.0817   -6.2170 C   0  0  0  0  0  0  0  0  0  0  0  0
   16.1233  -25.5195   -6.9336 O   0  0  0  0  0  0  0  0  0  0  0  0
   15.3432  -29.5662   -4.8364 C   0  0  0  0  0  0  0  0  0  0  0  0
   15.0752  -28.3723   -3.9805 C   0  0  1  0  0  0  0  0  0  0  0  0
   16.0748  -28.3196   -2.9866 O   0  0  0  0  0  0  0  0  0  0  0  0
   15.1755  -27.0874   -4.7816 C   0  0  2  0  0  0  0  0  0  0  0  0
   16.5494  -26.8811   -5.1372 N   0  0  0  0  0  0  0  0  0  0  0  0
   14.6624  -25.9922   -3.9207 C   0  0  0  0  0  0  0  0  0  0  0  0
   13.3053  -25.8365   -3.6810 O   0  0  0  0  0  0  0  0  0  0  0  0
   15.4625  -25.1838   -3.3927 O   0  0  0  0  0  0  0  0  0  0  0  0
  2  1  1  6
  3  2  1  0
  4  3  1  0
  5  6  1  0
  5  4  1  0
  7  6  1  0
  8  9  2  0
  8  2  1  0
 10  8  1  0
 11 10  1  0
 12 13  1  0
 12 11  1  0
 13 14  1  0
 14 10  1  0
 14 15  1  6
 16 15  2  0
 18 17  1  6
 19 18  1  0
 20 18  1  0
 20 21  1  1
 21 15  1  0
 22 23  1  0
 22 20  1  0
 24 22  2  0
M  END
$$$$
