KPT.pdb
     RDKit          3D

 24 24  0  0  1  0  0  0  0  0999 V2000
   18.0166  -25.9064   -4.0734 N   0  0  0  0  0  0  0  0  0  0  0  0
   18.0930  -26.3293   -5.4732 C   0  0  1  0  0  0  0  0  0  0  0  0
   17.3242  -27.6256   -5.6466 C   0  0  0  0  0  0  0  0  0  0  0  0
   17.1839  -28.4025   -4.3965 C   0  0  0  0  0  0  0  0  0  0  0  0
   15.8301  -28.6505   -3.8690 C   0  0  0  0  0  0  0  0  0  0  0  0
   15.1111  -29.8367   -4.4059 C   0  0  0  0  0  0  0  0  0  0  0  0
   13.8180  -30.0259   -3.7283 N   0  0  0  0  0  0  0  0  0  0  0  0
   17.4932  -25.2255   -6.2520 C   0  0  0  0  0  0  0  0  0  0  0  0
   16.5055  -24.5604   -5.7808 O   0  0  0  0  0  0  0  0  0  0  0  0
   17.9513  -24.8379   -7.5252 N   0  0  0  0  0  0  0  0  0  0  0  0
   19.0612  -25.4481   -8.2259 C   0  0  0  0  0  0  0  0  0  0  0  0
   18.5727  -25.3023   -9.6763 C   0  0  0  0  0  0  0  0  0  0  0  0
   18.2053  -23.8115   -9.6230 C   0  0  0  0  0  0  0  0  0  0  0  0
   17.3988  -23.7640   -8.3703 C   0  0  1  0  0  0  0  0  0  0  0  0
   15.9509  -23.9900   -8.6082 C   0  0  0  0  0  0  0  0  0  0  0  0
   15.5301  -25.1706   -8.6409 O   0  0  0  0  0  0  0  0  0  0  0  0
   11.4164  -22.1077   -8.4318 C   0  0  0  0  0  0  0  0  0  0  0  0
   12.8885  -22.0537   -8.1876 C   0  0  1  0  0  0  0  0  0  0  0  0
   13.1111  -22.3349   -6.8233 O   0  0  0  0  0  0  0  0  0  0  0  0
   13.6181  -23.1177   -8.9865 C   0  0  2  0  0  0  0  0  0  0  0  0
   15.0284  -22.9376   -8.7989 N   0  0  0  0  0  0  0  0  0  0  0  0
   13.2282  -22.9435  -10.4083 C   0  0  0  0  0  0  0  0  0  0  0  0
   12.2323  -23.7176  -10.9848 O   0  0  0  0  0  0  0  0  0  0  0  0
   13.8038  -22.0816  -11.1142 O   0  0  0  0  0  0  0  0  0  0  0  0
  2  1  1  1
  3  2  1  0
  4  3  1  0
  5  6  1  0
  5  4  1  0
  7  6  1  0
  8  9  2  0
  8  2  1  0
 10  8  1  0
 11 10  1  0
 12 13  1  0
 12 11  1  0
 13 14  1  0
 14 10  1  0
 14 15  1  6
 16 15  2  0
 18 17  1  1
 19 18  1  0
 20 18  1  0
 20 21  1  6
 21 15  1  0
 22 23  1  0
 22 20  1  0
 24 22  2  0
M  END
$$$$
