QDL.pdb
     RDKit          3D

 26 25  0  0  1  0  0  0  0  0999 V2000
   17.8481  -13.6597  -15.5161 N   0  0  0  0  0  0  0  0  0  0  0  0
   17.8697  -14.4910  -16.6621 C   0  0  0  0  0  0  0  0  0  0  0  0
   17.2440  -15.5933  -16.5741 O   0  0  0  0  0  0  0  0  0  0  0  0
   18.5814  -14.1115  -17.9115 C   0  0  0  0  0  0  0  0  0  0  0  0
   18.9916  -12.6679  -17.7965 C   0  0  0  0  0  0  0  0  0  0  0  0
   17.8942  -11.7184  -18.1579 C   0  0  2  0  0  0  0  0  0  0  0  0
   17.4670  -11.8646  -19.5144 N   0  0  0  0  0  0  0  0  0  0  0  0
   18.3324  -10.3176  -17.9141 C   0  0  0  0  0  0  0  0  0  0  0  0
   19.4928   -9.9719  -18.3013 O   0  0  0  0  0  0  0  0  0  0  0  0
   17.5008   -9.3671  -17.2683 N   0  0  0  0  0  0  0  0  0  0  0  0
   18.0175   -8.0406  -16.9907 C   0  0  1  0  0  0  0  0  0  0  0  0
   16.8502   -7.0946  -16.8735 C   0  0  0  0  0  0  0  0  0  0  0  0
   17.2694   -5.7014  -16.6501 C   0  0  0  0  0  0  0  0  0  0  0  0
   17.6557   -4.9121  -17.5557 O   0  0  0  0  0  0  0  0  0  0  0  0
   18.9105   -8.0404  -15.8121 C   0  0  0  0  0  0  0  0  0  0  0  0
   18.8153   -8.9475  -14.9549 O   0  0  0  0  0  0  0  0  0  0  0  0
   17.2283   -5.2389  -15.3213 O   0  0  0  0  0  0  0  0  0  0  0  0
   23.3921  -10.0850  -14.2517 C   0  0  0  0  0  0  0  0  0  0  0  0
   22.7619   -8.7572  -13.7980 C   0  0  2  0  0  0  0  0  0  0  0  0
   22.4064   -8.9142  -12.3531 C   0  0  0  0  0  0  0  0  0  0  0  0
   21.6037   -8.5240  -14.6957 C   0  0  0  0  0  0  0  0  0  0  0  0
   20.9643   -7.1743  -14.6055 C   0  0  2  0  0  0  0  0  0  0  0  0
   19.9029   -7.0222  -15.6049 N   0  0  0  0  0  0  0  0  0  0  0  0
   21.9032   -6.0361  -14.6915 C   0  0  0  0  0  0  0  0  0  0  0  0
   22.6115   -5.5708  -13.5811 O   0  0  0  0  0  0  0  0  0  0  0  0
   22.0820   -5.4607  -15.7795 O   0  0  0  0  0  0  0  0  0  0  0  0
  1  2  1  0
  2  3  2  0
  4  5  1  0
  4  2  1  0
  6  7  1  6
  6  5  1  0
  8  6  1  0
  8 10  1  0
  9  8  2  0
 11 10  1  0
 11 12  1  1
 13 12  1  0
 13 17  1  0
 14 13  2  0
 15 11  1  0
 16 15  2  0
 19 18  1  6
 20 19  1  0
 21 19  1  0
 22 21  1  6
 22 23  1  0
 23 15  1  0
 24 25  1  0
 24 22  1  0
 26 24  2  0
M  END
$$$$
