QDL.pdb
     RDKit          3D

 26 25  0  0  1  0  0  0  0  0999 V2000
   26.0933  -26.3942  -16.3720 N   0  0  0  0  0  0  0  0  0  0  0  0
   26.1566  -26.3537  -17.7860 C   0  0  0  0  0  0  0  0  0  0  0  0
   26.5568  -27.4111  -18.3655 O   0  0  0  0  0  0  0  0  0  0  0  0
   25.7791  -25.1469  -18.5688 C   0  0  0  0  0  0  0  0  0  0  0  0
   25.3147  -24.0894  -17.6037 C   0  0  0  0  0  0  0  0  0  0  0  0
   25.8356  -22.7272  -17.9349 C   0  0  2  0  0  0  0  0  0  0  0  0
   27.2580  -22.6410  -17.8199 N   0  0  0  0  0  0  0  0  0  0  0  0
   25.1949  -21.7102  -17.0580 C   0  0  0  0  0  0  0  0  0  0  0  0
   25.9445  -20.9277  -16.3934 O   0  0  0  0  0  0  0  0  0  0  0  0
   23.7861  -21.5906  -16.9436 N   0  0  0  0  0  0  0  0  0  0  0  0
   23.2247  -20.5141  -16.1502 C   0  0  1  0  0  0  0  0  0  0  0  0
   22.1753  -19.8165  -16.9768 C   0  0  0  0  0  0  0  0  0  0  0  0
   21.5087  -18.7270  -16.2452 C   0  0  0  0  0  0  0  0  0  0  0  0
   22.0899  -17.9229  -15.4653 O   0  0  0  0  0  0  0  0  0  0  0  0
   22.7331  -21.0009  -14.8433 C   0  0  0  0  0  0  0  0  0  0  0  0
   22.0281  -22.0335  -14.7853 O   0  0  0  0  0  0  0  0  0  0  0  0
   20.1221  -18.5925  -16.4459 O   0  0  0  0  0  0  0  0  0  0  0  0
   25.1874  -21.8428  -11.1880 C   0  0  0  0  0  0  0  0  0  0  0  0
   24.8618  -20.3422  -11.2786 C   0  0  2  0  0  0  0  0  0  0  0  0
   25.5976  -19.6680  -10.1638 C   0  0  0  0  0  0  0  0  0  0  0  0
   23.3842  -20.2365  -11.1944 C   0  0  0  0  0  0  0  0  0  0  0  0
   22.6161  -20.8628  -12.3153 C   0  0  2  0  0  0  0  0  0  0  0  0
   23.0366  -20.3249  -13.6123 N   0  0  0  0  0  0  0  0  0  0  0  0
   21.1464  -20.7735  -12.1861 C   0  0  0  0  0  0  0  0  0  0  0  0
   20.4204  -21.6239  -11.3490 O   0  0  0  0  0  0  0  0  0  0  0  0
   20.5177  -19.9196  -12.8360 O   0  0  0  0  0  0  0  0  0  0  0  0
  1  2  1  0
  2  3  2  0
  4  5  1  0
  4  2  1  0
  6  7  1  1
  6  5  1  0
  8  6  1  0
  8 10  1  0
  9  8  2  0
 11 10  1  0
 11 12  1  6
 13 12  1  0
 13 17  1  0
 14 13  2  0
 15 11  1  0
 16 15  2  0
 19 18  1  1
 20 19  1  0
 21 19  1  0
 22 21  1  1
 22 23  1  0
 23 15  1  0
 24 25  1  0
 24 22  1  0
 26 24  2  0
M  END
$$$$
