QDL.pdb
     RDKit          3D

 26 25  0  0  1  0  0  0  0  0999 V2000
   18.1779  -16.9966  -17.3086 N   0  0  0  0  0  0  0  0  0  0  0  0
   17.9809  -16.3139  -16.0838 C   0  0  0  0  0  0  0  0  0  0  0  0
   18.0880  -17.0078  -15.0250 O   0  0  0  0  0  0  0  0  0  0  0  0
   17.6648  -14.8621  -16.0199 C   0  0  0  0  0  0  0  0  0  0  0  0
   17.5883  -14.3373  -17.4285 C   0  0  0  0  0  0  0  0  0  0  0  0
   16.4714  -13.3631  -17.6289 C   0  0  2  0  0  0  0  0  0  0  0  0
   15.7593  -13.5883  -18.8480 N   0  0  0  0  0  0  0  0  0  0  0  0
   16.9983  -11.9720  -17.6007 C   0  0  0  0  0  0  0  0  0  0  0  0
   17.6723  -11.5612  -18.5972 O   0  0  0  0  0  0  0  0  0  0  0  0
   16.7724  -11.1003  -16.5047 N   0  0  0  0  0  0  0  0  0  0  0  0
   17.3659   -9.7769  -16.5129 C   0  0  1  0  0  0  0  0  0  0  0  0
   16.2950   -8.7774  -16.1588 C   0  0  0  0  0  0  0  0  0  0  0  0
   16.8010   -7.3960  -16.1138 C   0  0  0  0  0  0  0  0  0  0  0  0
   17.3096   -6.7836  -17.0931 O   0  0  0  0  0  0  0  0  0  0  0  0
   18.5597   -9.7106  -15.6428 C   0  0  0  0  0  0  0  0  0  0  0  0
   18.6278  -10.4269  -14.6186 O   0  0  0  0  0  0  0  0  0  0  0  0
   16.6999   -6.7303  -14.8777 O   0  0  0  0  0  0  0  0  0  0  0  0
   24.1280  -10.6931  -15.5360 C   0  0  0  0  0  0  0  0  0  0  0  0
   23.1614   -9.7815  -14.7608 C   0  0  2  0  0  0  0  0  0  0  0  0
   23.0115  -10.3678  -13.3924 C   0  0  0  0  0  0  0  0  0  0  0  0
   21.9085   -9.7415  -15.5547 C   0  0  0  0  0  0  0  0  0  0  0  0
   20.8535   -8.7979  -15.0695 C   0  0  2  0  0  0  0  0  0  0  0  0
   19.6670   -8.8411  -15.9291 N   0  0  0  0  0  0  0  0  0  0  0  0
   21.3019   -7.3997  -14.9007 C   0  0  0  0  0  0  0  0  0  0  0  0
   21.9550   -6.9624  -13.7459 O   0  0  0  0  0  0  0  0  0  0  0  0
   21.1002   -6.5704  -15.8053 O   0  0  0  0  0  0  0  0  0  0  0  0
  1  2  1  0
  2  3  2  0
  4  5  1  0
  4  2  1  0
  6  7  1  6
  6  5  1  0
  8  6  1  0
  8 10  1  0
  9  8  2  0
 11 10  1  0
 11 12  1  1
 13 12  1  0
 13 17  1  0
 14 13  2  0
 15 11  1  0
 16 15  2  0
 19 18  1  6
 20 19  1  0
 21 19  1  0
 22 21  1  6
 22 23  1  0
 23 15  1  0
 24 25  1  0
 24 22  1  0
 26 24  2  0
M  END
$$$$
