QDL.pdb
     RDKit          3D

 26 25  0  0  1  0  0  0  0  0999 V2000
   18.2511  -21.9679    3.5736 N   0  0  0  0  0  0  0  0  0  0  0  0
   17.0964  -22.7808    3.4693 C   0  0  0  0  0  0  0  0  0  0  0  0
   17.2725  -23.9617    3.0349 O   0  0  0  0  0  0  0  0  0  0  0  0
   15.7411  -22.2961    3.8433 C   0  0  0  0  0  0  0  0  0  0  0  0
   15.8742  -20.8904    4.3647 C   0  0  0  0  0  0  0  0  0  0  0  0
   14.6063  -20.3656    4.9591 C   0  0  2  0  0  0  0  0  0  0  0  0
   13.5377  -20.3103    4.0109 N   0  0  0  0  0  0  0  0  0  0  0  0
   14.8372  -19.0154    5.5399 C   0  0  0  0  0  0  0  0  0  0  0  0
   13.9318  -18.1344    5.3985 O   0  0  0  0  0  0  0  0  0  0  0  0
   16.0267  -18.6868    6.2393 N   0  0  0  0  0  0  0  0  0  0  0  0
   16.0142  -17.5926    7.1913 C   0  0  1  0  0  0  0  0  0  0  0  0
   14.8939  -17.8320    8.1704 C   0  0  0  0  0  0  0  0  0  0  0  0
   14.6941  -16.7011    9.0911 C   0  0  0  0  0  0  0  0  0  0  0  0
   15.3339  -15.6143    9.0456 O   0  0  0  0  0  0  0  0  0  0  0  0
   17.3370  -17.4089    7.8262 C   0  0  0  0  0  0  0  0  0  0  0  0
   17.9476  -18.3952    8.2963 O   0  0  0  0  0  0  0  0  0  0  0  0
   13.7127  -16.8677   10.0863 O   0  0  0  0  0  0  0  0  0  0  0  0
   21.6810  -15.2476    7.0287 C   0  0  0  0  0  0  0  0  0  0  0  0
   20.4262  -14.3584    7.0573 C   0  0  2  0  0  0  0  0  0  0  0  0
   20.8799  -12.9553    6.8040 C   0  0  0  0  0  0  0  0  0  0  0  0
   19.8004  -14.5733    8.3854 C   0  0  0  0  0  0  0  0  0  0  0  0
   19.2361  -15.9369    8.6325 C   0  0  2  0  0  0  0  0  0  0  0  0
   17.9635  -16.1200    7.9286 N   0  0  0  0  0  0  0  0  0  0  0  0
   19.0785  -16.2941   10.0580 C   0  0  0  0  0  0  0  0  0  0  0  0
   20.1628  -16.6673   10.8554 O   0  0  0  0  0  0  0  0  0  0  0  0
   17.9513  -16.2675   10.5829 O   0  0  0  0  0  0  0  0  0  0  0  0
  1  2  1  0
  2  3  2  0
  4  5  1  0
  4  2  1  0
  6  7  1  6
  6  5  1  0
  8  6  1  0
  8 10  1  0
  9  8  2  0
 11 10  1  0
 11 12  1  1
 13 12  1  0
 13 17  1  0
 14 13  2  0
 15 11  1  0
 16 15  2  0
 19 18  1  1
 20 19  1  0
 21 19  1  0
 22 21  1  1
 22 23  1  0
 23 15  1  0
 24 25  1  0
 24 22  1  0
 26 24  2  0
M  END
$$$$
