QDL.pdb
     RDKit          3D

 26 25  0  0  1  0  0  0  0  0999 V2000
   13.5701   -8.8106  -14.8396 N   0  0  0  0  0  0  0  0  0  0  0  0
   13.3236  -10.2048  -14.8589 C   0  0  0  0  0  0  0  0  0  0  0  0
   12.1069  -10.5657  -14.7988 O   0  0  0  0  0  0  0  0  0  0  0  0
   14.4173  -11.2088  -14.9446 C   0  0  0  0  0  0  0  0  0  0  0  0
   15.7197  -10.4701  -15.0986 C   0  0  0  0  0  0  0  0  0  0  0  0
   16.1137  -10.2729  -16.5278 C   0  0  2  0  0  0  0  0  0  0  0  0
   16.4776  -11.4971  -17.1704 N   0  0  0  0  0  0  0  0  0  0  0  0
   17.2374   -9.3019  -16.6165 C   0  0  0  0  0  0  0  0  0  0  0  0
   18.4265   -9.7509  -16.5960 O   0  0  0  0  0  0  0  0  0  0  0  0
   17.0217   -7.9038  -16.7219 N   0  0  0  0  0  0  0  0  0  0  0  0
   18.1606   -7.0150  -16.8504 C   0  0  1  0  0  0  0  0  0  0  0  0
   17.6575   -5.6641  -17.2898 C   0  0  0  0  0  0  0  0  0  0  0  0
   17.1420   -5.6718  -18.6684 C   0  0  0  0  0  0  0  0  0  0  0  0
   17.6751   -6.2870  -19.6327 O   0  0  0  0  0  0  0  0  0  0  0  0
   18.9666   -6.9810  -15.6111 C   0  0  0  0  0  0  0  0  0  0  0  0
   18.4080   -7.1058  -14.4980 O   0  0  0  0  0  0  0  0  0  0  0  0
   15.9681   -4.9316  -18.9038 O   0  0  0  0  0  0  0  0  0  0  0  0
   23.5032   -9.6854  -13.2953 C   0  0  0  0  0  0  0  0  0  0  0  0
   22.6888   -8.4029  -13.0540 C   0  0  2  0  0  0  0  0  0  0  0  0
   21.9154   -8.6087  -11.7898 C   0  0  0  0  0  0  0  0  0  0  0  0
   21.8519   -8.2137  -14.2646 C   0  0  0  0  0  0  0  0  0  0  0  0
   21.1935   -6.8775  -14.4054 C   0  0  2  0  0  0  0  0  0  0  0  0
   20.3927   -6.8072  -15.6311 N   0  0  0  0  0  0  0  0  0  0  0  0
   22.1135   -5.7226  -14.3386 C   0  0  0  0  0  0  0  0  0  0  0  0
   22.5388   -5.1800  -13.1237 O   0  0  0  0  0  0  0  0  0  0  0  0
   22.5336   -5.2030  -15.3875 O   0  0  0  0  0  0  0  0  0  0  0  0
  1  2  1  0
  2  3  2  0
  4  5  1  0
  4  2  1  0
  6  7  1  1
  6  5  1  0
  8  6  1  0
  8 10  1  0
  9  8  2  0
 11 10  1  0
 11 12  1  1
 13 12  1  0
 13 17  1  0
 14 13  2  0
 15 11  1  0
 16 15  2  0
 19 18  1  6
 20 19  1  0
 21 19  1  0
 22 21  1  6
 22 23  1  0
 23 15  1  0
 24 25  1  0
 24 22  1  0
 26 24  2  0
M  END
$$$$
