QDL.pdb
     RDKit          3D

 26 25  0  0  1  0  0  0  0  0999 V2000
   21.8073  -16.0764  -17.3613 N   0  0  0  0  0  0  0  0  0  0  0  0
   21.9993  -17.3682  -17.9085 C   0  0  0  0  0  0  0  0  0  0  0  0
   22.0537  -17.4442  -19.1755 O   0  0  0  0  0  0  0  0  0  0  0  0
   22.1323  -18.5834  -17.0615 C   0  0  0  0  0  0  0  0  0  0  0  0
   21.8538  -18.1924  -15.6350 C   0  0  0  0  0  0  0  0  0  0  0  0
   23.0981  -17.9313  -14.8474 C   0  0  2  0  0  0  0  0  0  0  0  0
   23.9813  -17.0187  -15.5039 N   0  0  0  0  0  0  0  0  0  0  0  0
   23.8055  -19.2114  -14.5743 C   0  0  0  0  0  0  0  0  0  0  0  0
   23.1175  -20.2148  -14.2058 O   0  0  0  0  0  0  0  0  0  0  0  0
   25.2112  -19.3424  -14.7118 N   0  0  0  0  0  0  0  0  0  0  0  0
   25.8385  -20.6195  -14.4305 C   0  0  1  0  0  0  0  0  0  0  0  0
   27.0214  -20.7769  -15.3509 C   0  0  0  0  0  0  0  0  0  0  0  0
   27.4952  -22.1681  -15.4327 C   0  0  0  0  0  0  0  0  0  0  0  0
   26.9122  -23.1587  -14.9119 O   0  0  0  0  0  0  0  0  0  0  0  0
   26.1716  -20.7578  -12.9965 C   0  0  0  0  0  0  0  0  0  0  0  0
   27.3619  -20.6698  -12.6194 O   0  0  0  0  0  0  0  0  0  0  0  0
   28.6876  -22.3841  -16.1489 O   0  0  0  0  0  0  0  0  0  0  0  0
   27.1509  -18.6502   -8.3016 C   0  0  0  0  0  0  0  0  0  0  0  0
   26.7487  -20.0907   -8.6615 C   0  0  2  0  0  0  0  0  0  0  0  0
   27.9049  -20.9694   -8.3011 C   0  0  0  0  0  0  0  0  0  0  0  0
   26.4138  -20.0750  -10.1069 C   0  0  0  0  0  0  0  0  0  0  0  0
   25.5127  -21.1700  -10.5841 C   0  0  2  0  0  0  0  0  0  0  0  0
   25.1663  -20.9940  -11.9975 N   0  0  0  0  0  0  0  0  0  0  0  0
   24.2837  -21.3547   -9.7842 C   0  0  0  0  0  0  0  0  0  0  0  0
   24.2799  -22.0611   -8.5791 O   0  0  0  0  0  0  0  0  0  0  0  0
   23.2077  -20.8731  -10.1804 O   0  0  0  0  0  0  0  0  0  0  0  0
  1  2  1  0
  2  3  2  0
  4  5  1  0
  4  2  1  0
  6  7  1  6
  6  5  1  0
  8  6  1  0
  8 10  1  0
  9  8  2  0
 11 10  1  0
 11 12  1  6
 13 12  1  0
 13 17  1  0
 14 13  2  0
 15 11  1  0
 16 15  2  0
 19 18  1  6
 20 19  1  0
 21 19  1  0
 22 21  1  1
 22 23  1  0
 23 15  1  0
 24 25  1  0
 24 22  1  0
 26 24  2  0
M  END
$$$$
