QDL.pdb
     RDKit          3D

 26 25  0  0  1  0  0  0  0  0999 V2000
   13.9223  -12.3284  -14.6280 N   0  0  0  0  0  0  0  0  0  0  0  0
   14.3998  -13.6344  -14.8952 C   0  0  0  0  0  0  0  0  0  0  0  0
   13.6203  -14.5936  -14.6012 O   0  0  0  0  0  0  0  0  0  0  0  0
   15.7394  -13.8899  -15.4883 C   0  0  0  0  0  0  0  0  0  0  0  0
   16.3910  -12.5611  -15.7626 C   0  0  0  0  0  0  0  0  0  0  0  0
   17.7216  -12.6905  -16.4330 C   0  0  2  0  0  0  0  0  0  0  0  0
   18.4241  -13.8702  -16.0346 N   0  0  0  0  0  0  0  0  0  0  0  0
   18.5520  -11.4884  -16.1520 C   0  0  0  0  0  0  0  0  0  0  0  0
   19.1091  -11.3920  -15.0134 O   0  0  0  0  0  0  0  0  0  0  0  0
   18.7375  -10.4574  -17.1085 N   0  0  0  0  0  0  0  0  0  0  0  0
   19.5229   -9.2905  -16.7549 C   0  0  1  0  0  0  0  0  0  0  0  0
   20.7810   -9.2996  -17.5845 C   0  0  0  0  0  0  0  0  0  0  0  0
   21.6512   -8.1451  -17.3079 C   0  0  0  0  0  0  0  0  0  0  0  0
   22.0933   -7.3511  -18.1833 O   0  0  0  0  0  0  0  0  0  0  0  0
   18.7333   -8.0462  -16.8762 C   0  0  0  0  0  0  0  0  0  0  0  0
   17.6354   -8.0581  -17.4771 O   0  0  0  0  0  0  0  0  0  0  0  0
   22.0022   -7.9319  -15.9615 O   0  0  0  0  0  0  0  0  0  0  0  0
   16.9057   -3.4553  -16.5703 C   0  0  0  0  0  0  0  0  0  0  0  0
   16.0438   -4.6634  -16.1655 C   0  0  2  0  0  0  0  0  0  0  0  0
   15.2724   -4.2606  -14.9483 C   0  0  0  0  0  0  0  0  0  0  0  0
   16.9873   -5.7887  -15.9528 C   0  0  0  0  0  0  0  0  0  0  0  0
   18.3857   -5.5739  -16.4396 C   0  0  2  0  0  0  0  0  0  0  0  0
   19.1823   -6.7988  -16.3223 N   0  0  0  0  0  0  0  0  0  0  0  0
   19.0985   -4.4473  -15.8015 C   0  0  0  0  0  0  0  0  0  0  0  0
   19.0300   -3.1450  -16.3019 O   0  0  0  0  0  0  0  0  0  0  0  0
   19.7869   -4.6452  -14.7848 O   0  0  0  0  0  0  0  0  0  0  0  0
  1  2  1  0
  2  3  2  0
  4  5  1  0
  4  2  1  0
  6  7  1  1
  6  5  1  0
  8  6  1  0
  8 10  1  0
  9  8  2  0
 11 10  1  0
 11 12  1  6
 13 12  1  0
 13 17  1  0
 14 13  2  0
 15 11  1  0
 16 15  2  0
 19 18  1  1
 20 19  1  0
 21 19  1  0
 22 21  1  1
 22 23  1  0
 23 15  1  0
 24 25  1  0
 24 22  1  0
 26 24  2  0
M  END
$$$$
