QDL.pdb
     RDKit          3D

 26 25  0  0  1  0  0  0  0  0999 V2000
   17.1212  -14.5240  -16.8375 N   0  0  0  0  0  0  0  0  0  0  0  0
   16.9319  -14.0417  -15.5197 C   0  0  0  0  0  0  0  0  0  0  0  0
   16.5966  -14.9002  -14.6452 O   0  0  0  0  0  0  0  0  0  0  0  0
   17.1112  -12.6102  -15.1589 C   0  0  0  0  0  0  0  0  0  0  0  0
   17.4982  -11.8586  -16.4042 C   0  0  0  0  0  0  0  0  0  0  0  0
   16.5806  -10.7169  -16.7062 C   0  0  2  0  0  0  0  0  0  0  0  0
   15.8747  -10.8914  -17.9372 N   0  0  0  0  0  0  0  0  0  0  0  0
   17.3478   -9.4426  -16.7396 C   0  0  0  0  0  0  0  0  0  0  0  0
   18.3033   -9.3346  -17.5710 O   0  0  0  0  0  0  0  0  0  0  0  0
   17.0464   -8.3562  -15.8787 N   0  0  0  0  0  0  0  0  0  0  0  0
   17.9212   -7.1994  -15.8584 C   0  0  1  0  0  0  0  0  0  0  0  0
   17.1014   -5.9948  -15.4737 C   0  0  0  0  0  0  0  0  0  0  0  0
   16.1642   -5.5851  -16.5322 C   0  0  0  0  0  0  0  0  0  0  0  0
   16.4526   -5.5077  -17.7583 O   0  0  0  0  0  0  0  0  0  0  0  0
   19.0998   -7.4239  -14.9942 C   0  0  0  0  0  0  0  0  0  0  0  0
   18.9450   -7.7968  -13.8095 O   0  0  0  0  0  0  0  0  0  0  0  0
   14.8574   -5.2604  -16.1223 O   0  0  0  0  0  0  0  0  0  0  0  0
   24.6852   -9.5027  -15.4727 C   0  0  0  0  0  0  0  0  0  0  0  0
   23.6958   -8.9150  -14.4520 C   0  0  2  0  0  0  0  0  0  0  0  0
   23.4881   -9.9554  -13.3969 C   0  0  0  0  0  0  0  0  0  0  0  0
   22.4753   -8.5625  -15.2186 C   0  0  0  0  0  0  0  0  0  0  0  0
   21.6049   -7.5045  -14.6173 C   0  0  2  0  0  0  0  0  0  0  0  0
   20.4426   -7.2277  -15.4664 N   0  0  0  0  0  0  0  0  0  0  0  0
   22.3000   -6.2422  -14.2889 C   0  0  0  0  0  0  0  0  0  0  0  0
   22.8951   -6.0229  -13.0444 O   0  0  0  0  0  0  0  0  0  0  0  0
   22.3677   -5.3333  -15.1352 O   0  0  0  0  0  0  0  0  0  0  0  0
  1  2  1  0
  2  3  2  0
  4  5  1  0
  4  2  1  0
  6  7  1  6
  6  5  1  0
  8  6  1  0
  8 10  1  0
  9  8  2  0
 11 10  1  0
 11 12  1  1
 13 12  1  0
 13 17  1  0
 14 13  2  0
 15 11  1  0
 16 15  2  0
 19 18  1  6
 20 19  1  0
 21 19  1  0
 22 21  1  6
 22 23  1  0
 23 15  1  0
 24 25  1  0
 24 22  1  0
 26 24  2  0
M  END
$$$$
