QDL.pdb
     RDKit          3D

 26 25  0  0  1  0  0  0  0  0999 V2000
   33.4089  -23.6977  -10.8956 N   0  0  0  0  0  0  0  0  0  0  0  0
   33.8100  -23.2136  -12.1643 C   0  0  0  0  0  0  0  0  0  0  0  0
   34.7485  -23.8464  -12.7413 O   0  0  0  0  0  0  0  0  0  0  0  0
   33.1783  -22.0288  -12.8040 C   0  0  0  0  0  0  0  0  0  0  0  0
   32.1801  -21.4514  -11.8368 C   0  0  0  0  0  0  0  0  0  0  0  0
   30.9270  -22.2616  -11.7375 C   0  0  2  0  0  0  0  0  0  0  0  0
   30.7664  -23.1604  -12.8377 N   0  0  0  0  0  0  0  0  0  0  0  0
   29.7456  -21.3621  -11.6430 C   0  0  0  0  0  0  0  0  0  0  0  0
   29.9020  -20.2123  -11.1241 O   0  0  0  0  0  0  0  0  0  0  0  0
   28.4629  -21.7475  -12.1105 N   0  0  0  0  0  0  0  0  0  0  0  0
   27.3328  -20.8631  -11.9003 C   0  0  1  0  0  0  0  0  0  0  0  0
   26.4509  -20.9262  -13.1207 C   0  0  0  0  0  0  0  0  0  0  0  0
   25.2914  -20.0240  -13.0299 C   0  0  0  0  0  0  0  0  0  0  0  0
   25.0989  -19.1908  -12.1020 O   0  0  0  0  0  0  0  0  0  0  0  0
   26.6300  -21.1696  -10.6359 C   0  0  0  0  0  0  0  0  0  0  0  0
   25.8746  -22.1652  -10.5655 O   0  0  0  0  0  0  0  0  0  0  0  0
   24.3418  -20.1162  -14.0648 O   0  0  0  0  0  0  0  0  0  0  0  0
   28.3852  -20.5908   -6.2525 C   0  0  0  0  0  0  0  0  0  0  0  0
   27.7929  -19.3421   -6.9279 C   0  0  2  0  0  0  0  0  0  0  0  0
   28.0444  -18.1883   -6.0090 C   0  0  0  0  0  0  0  0  0  0  0  0
   26.3587  -19.6425   -7.1615 C   0  0  0  0  0  0  0  0  0  0  0  0
   26.0646  -20.6600   -8.2184 C   0  0  2  0  0  0  0  0  0  0  0  0
   26.7805  -20.3564   -9.4610 N   0  0  0  0  0  0  0  0  0  0  0  0
   24.6283  -20.8625   -8.5019 C   0  0  0  0  0  0  0  0  0  0  0  0
   23.9683  -20.1772   -9.5246 O   0  0  0  0  0  0  0  0  0  0  0  0
   23.9685  -21.6652   -7.8184 O   0  0  0  0  0  0  0  0  0  0  0  0
  1  2  1  0
  2  3  2  0
  4  5  1  0
  4  2  1  0
  6  7  1  6
  6  5  1  0
  8  6  1  0
  8 10  1  0
  9  8  2  0
 11 10  1  0
 11 12  1  6
 13 12  1  0
 13 17  1  0
 14 13  2  0
 15 11  1  0
 16 15  2  0
 19 18  1  1
 20 19  1  0
 21 19  1  0
 22 21  1  1
 22 23  1  0
 23 15  1  0
 24 25  1  0
 24 22  1  0
 26 24  2  0
M  END
$$$$
