QDL.pdb
     RDKit          3D

 26 25  0  0  1  0  0  0  0  0999 V2000
   14.8365  -11.7817  -16.4810 N   0  0  0  0  0  0  0  0  0  0  0  0
   15.3253  -13.1020  -16.6322 C   0  0  0  0  0  0  0  0  0  0  0  0
   14.4570  -14.0294  -16.6457 O   0  0  0  0  0  0  0  0  0  0  0  0
   16.7744  -13.4070  -16.7694 C   0  0  0  0  0  0  0  0  0  0  0  0
   17.5347  -12.1101  -16.6956 C   0  0  0  0  0  0  0  0  0  0  0  0
   17.6275  -11.4117  -18.0148 C   0  0  2  0  0  0  0  0  0  0  0  0
   18.3339  -12.1786  -18.9929 N   0  0  0  0  0  0  0  0  0  0  0  0
   18.2805  -10.0858  -17.8438 C   0  0  0  0  0  0  0  0  0  0  0  0
   19.5462  -10.0189  -17.9420 O   0  0  0  0  0  0  0  0  0  0  0  0
   17.5386   -8.9067  -17.5766 N   0  0  0  0  0  0  0  0  0  0  0  0
   18.2394   -7.6500  -17.3944 C   0  0  1  0  0  0  0  0  0  0  0  0
   17.2455   -6.5283  -17.5528 C   0  0  0  0  0  0  0  0  0  0  0  0
   17.8589   -5.2001  -17.3914 C   0  0  0  0  0  0  0  0  0  0  0  0
   18.5729   -4.6268  -18.2598 O   0  0  0  0  0  0  0  0  0  0  0  0
   18.9787   -7.6202  -16.1141 C   0  0  0  0  0  0  0  0  0  0  0  0
   18.5187   -8.2128  -15.1122 O   0  0  0  0  0  0  0  0  0  0  0  0
   17.6176   -4.5412  -16.1712 O   0  0  0  0  0  0  0  0  0  0  0  0
   23.8434   -9.4595  -14.0005 C   0  0  0  0  0  0  0  0  0  0  0  0
   22.7573   -8.4559  -13.5772 C   0  0  2  0  0  0  0  0  0  0  0  0
   22.0401   -9.0562  -12.4093 C   0  0  0  0  0  0  0  0  0  0  0  0
   21.9096   -8.2379  -14.7753 C   0  0  0  0  0  0  0  0  0  0  0  0
   21.0280   -7.0294  -14.7449 C   0  0  2  0  0  0  0  0  0  0  0  0
   20.2279   -6.9254  -15.9686 N   0  0  0  0  0  0  0  0  0  0  0  0
   21.7320   -5.7542  -14.4942 C   0  0  0  0  0  0  0  0  0  0  0  0
   22.2872   -5.4432  -13.2508 O   0  0  0  0  0  0  0  0  0  0  0  0
   21.8440   -4.9178  -15.4078 O   0  0  0  0  0  0  0  0  0  0  0  0
  1  2  1  0
  2  3  2  0
  4  5  1  0
  4  2  1  0
  6  7  1  6
  6  5  1  0
  8  6  1  0
  8 10  1  0
  9  8  2  0
 11 10  1  0
 11 12  1  1
 13 12  1  0
 13 17  1  0
 14 13  2  0
 15 11  1  0
 16 15  2  0
 19 18  1  6
 20 19  1  0
 21 19  1  0
 22 21  1  6
 22 23  1  0
 23 15  1  0
 24 25  1  0
 24 22  1  0
 26 24  2  0
M  END
$$$$
