QDL.pdb
     RDKit          3D

 26 25  0  0  1  0  0  0  0  0999 V2000
   26.0547  -21.6839  -10.4868 N   0  0  0  0  0  0  0  0  0  0  0  0
   27.0380  -20.6705  -10.3818 C   0  0  0  0  0  0  0  0  0  0  0  0
   27.7227  -20.6542   -9.3117 O   0  0  0  0  0  0  0  0  0  0  0  0
   27.2718  -19.6692  -11.4563 C   0  0  0  0  0  0  0  0  0  0  0  0
   26.3103  -19.9541  -12.5787 C   0  0  0  0  0  0  0  0  0  0  0  0
   26.8853  -20.8531  -13.6264 C   0  0  2  0  0  0  0  0  0  0  0  0
   28.0108  -20.2725  -14.2898 N   0  0  0  0  0  0  0  0  0  0  0  0
   25.8389  -21.2080  -14.6227 C   0  0  0  0  0  0  0  0  0  0  0  0
   25.5694  -20.3700  -15.5398 O   0  0  0  0  0  0  0  0  0  0  0  0
   25.1405  -22.4419  -14.5784 N   0  0  0  0  0  0  0  0  0  0  0  0
   24.1893  -22.7601  -15.6261 C   0  0  1  0  0  0  0  0  0  0  0  0
   24.0478  -24.2588  -15.6955 C   0  0  0  0  0  0  0  0  0  0  0  0
   25.3400  -24.9434  -15.8631 C   0  0  0  0  0  0  0  0  0  0  0  0
   25.6571  -26.0292  -15.3037 O   0  0  0  0  0  0  0  0  0  0  0  0
   22.9094  -22.0448  -15.4344 C   0  0  0  0  0  0  0  0  0  0  0  0
   22.5106  -21.7749  -14.2791 O   0  0  0  0  0  0  0  0  0  0  0  0
   26.2738  -24.3222  -16.7137 O   0  0  0  0  0  0  0  0  0  0  0  0
   20.3192  -18.2807  -15.4571 C   0  0  0  0  0  0  0  0  0  0  0  0
   21.0667  -18.2903  -16.8015 C   0  0  2  0  0  0  0  0  0  0  0  0
   20.4665  -17.2077  -17.6420 C   0  0  0  0  0  0  0  0  0  0  0  0
   20.9052  -19.6588  -17.3518 C   0  0  0  0  0  0  0  0  0  0  0  0
   20.9189  -20.7735  -16.3539 C   0  0  2  0  0  0  0  0  0  0  0  0
   22.0875  -21.6384  -16.5406 N   0  0  0  0  0  0  0  0  0  0  0  0
   19.6881  -21.5912  -16.3203 C   0  0  0  0  0  0  0  0  0  0  0  0
   18.5835  -21.2408  -15.5404 O   0  0  0  0  0  0  0  0  0  0  0  0
   19.6143  -22.6289  -17.0019 O   0  0  0  0  0  0  0  0  0  0  0  0
  1  2  1  0
  2  3  2  0
  4  5  1  0
  4  2  1  0
  6  7  1  6
  6  5  1  0
  8  6  1  0
  8 10  1  0
  9  8  2  0
 11 10  1  0
 11 12  1  1
 13 12  1  0
 13 17  1  0
 14 13  2  0
 15 11  1  0
 16 15  2  0
 19 18  1  1
 20 19  1  0
 21 19  1  0
 22 21  1  6
 22 23  1  0
 23 15  1  0
 24 25  1  0
 24 22  1  0
 26 24  2  0
M  END
$$$$
