HDN.pdb
     RDKit          3D

 27 27  0  0  1  0  0  0  0  0999 V2000
    7.1699  -15.2554   18.1031 N   0  0  0  0  0  0  0  0  0  0  0  0
    8.5021  -15.7682   17.8309 C   0  0  1  0  0  0  0  0  0  0  0  0
    9.2111  -14.6885   17.0384 C   0  0  0  0  0  0  0  0  0  0  0  0
    8.6817  -14.4985   15.6789 C   0  0  0  0  0  0  0  0  0  0  0  0
    7.8190  -13.4893   15.2413 C   0  0  0  0  0  0  0  0  0  0  0  0
    7.5613  -13.6665   13.9252 N   0  0  0  0  0  0  0  0  0  0  0  0
    8.2456  -14.7680   13.5277 C   0  0  0  0  0  0  0  0  0  0  0  0
    8.9150  -15.2554   14.5993 N   0  0  0  0  0  0  0  0  0  0  0  0
    9.2487  -16.0435   19.0611 C   0  0  0  0  0  0  0  0  0  0  0  0
    9.1482  -15.1936   20.0003 O   0  0  0  0  0  0  0  0  0  0  0  0
   10.0690  -17.1888   19.2678 N   0  0  0  0  0  0  0  0  0  0  0  0
   10.8003  -17.3011   20.4830 C   0  0  1  0  0  0  0  0  0  0  0  0
   10.8930  -18.7426   20.9644 C   0  0  0  0  0  0  0  0  0  0  0  0
   11.5758  -18.8456   22.2547 C   0  0  0  0  0  0  0  0  0  0  0  0
   11.4338  -17.9480   23.1243 O   0  0  0  0  0  0  0  0  0  0  0  0
   12.1830  -16.7813   20.4085 C   0  0  0  0  0  0  0  0  0  0  0  0
   12.7105  -16.7606   19.2617 O   0  0  0  0  0  0  0  0  0  0  0  0
   12.3876  -19.8997   22.5787 O   0  0  0  0  0  0  0  0  0  0  0  0
   15.1353  -15.4972   18.6533 N   0  0  0  0  0  0  0  0  0  0  0  0
   14.7710  -14.3469   19.3933 C   0  0  0  0  0  0  0  0  0  0  0  0
   14.8380  -13.2405   18.7920 O   0  0  0  0  0  0  0  0  0  0  0  0
   14.3356  -14.4318   20.7843 C   0  0  0  0  0  0  0  0  0  0  0  0
   14.2944  -15.7997   21.3707 C   0  0  2  0  0  0  0  0  0  0  0  0
   12.9455  -16.3167   21.4880 N   0  0  0  0  0  0  0  0  0  0  0  0
   14.9777  -15.8370   22.6824 C   0  0  0  0  0  0  0  0  0  0  0  0
   16.3629  -15.5545   22.7675 O   0  0  0  0  0  0  0  0  0  0  0  0
   14.4446  -16.1033   23.7818 O   0  0  0  0  0  0  0  0  0  0  0  0
  2  1  1  1
  2  9  1  0
  3  2  1  0
  3  4  1  0
  4  8  1  0
  4  5  2  0
  5  6  1  0
  7  6  1  0
  8  7  2  0
  9 10  2  0
 11  9  1  0
 11 12  1  0
 12 16  1  0
 12 13  1  6
 14 13  1  0
 15 14  2  0
 16 17  2  0
 18 14  1  0
 19 20  1  0
 20 22  1  0
 21 20  2  0
 23 22  1  1
 23 25  1  0
 24 16  1  0
 24 23  1  0
 25 27  2  0
 25 26  1  0
M  END
$$$$
