HDN.pdb
     RDKit          3D

 27 27  0  0  1  0  0  0  0  0999 V2000
    9.3153  -16.3941   18.3531 N   0  0  0  0  0  0  0  0  0  0  0  0
   10.6243  -15.9313   18.7825 C   0  0  1  0  0  0  0  0  0  0  0  0
   10.4373  -14.4902   19.2121 C   0  0  0  0  0  0  0  0  0  0  0  0
    9.0540  -14.0041   19.0914 C   0  0  0  0  0  0  0  0  0  0  0  0
    7.9636  -14.6855   18.5428 C   0  0  0  0  0  0  0  0  0  0  0  0
    6.8674  -13.8958   18.6115 N   0  0  0  0  0  0  0  0  0  0  0  0
    7.2484  -12.7311   19.1929 C   0  0  0  0  0  0  0  0  0  0  0  0
    8.5703  -12.8159   19.4749 N   0  0  0  0  0  0  0  0  0  0  0  0
   11.1445  -16.7143   19.9062 C   0  0  0  0  0  0  0  0  0  0  0  0
   10.7087  -17.9011   20.0342 O   0  0  0  0  0  0  0  0  0  0  0  0
   12.0955  -16.2354   20.8515 N   0  0  0  0  0  0  0  0  0  0  0  0
   12.6539  -17.1486   21.7888 C   0  0  1  0  0  0  0  0  0  0  0  0
   14.0697  -17.5624   21.4113 C   0  0  0  0  0  0  0  0  0  0  0  0
   14.6113  -18.5625   22.3323 C   0  0  0  0  0  0  0  0  0  0  0  0
   15.6785  -18.3394   22.9596 O   0  0  0  0  0  0  0  0  0  0  0  0
   12.7093  -16.6362   23.1751 C   0  0  0  0  0  0  0  0  0  0  0  0
   13.8160  -16.7559   23.7705 O   0  0  0  0  0  0  0  0  0  0  0  0
   14.0007  -19.7674   22.5566 O   0  0  0  0  0  0  0  0  0  0  0  0
    8.9728  -14.8075   24.1650 N   0  0  0  0  0  0  0  0  0  0  0  0
    8.6679  -16.1855   24.2730 C   0  0  0  0  0  0  0  0  0  0  0  0
    7.4994  -16.5349   23.9525 O   0  0  0  0  0  0  0  0  0  0  0  0
    9.6550  -17.1593   24.7298 C   0  0  0  0  0  0  0  0  0  0  0  0
   11.0089  -16.6196   25.0340 C   0  0  2  0  0  0  0  0  0  0  0  0
   11.6521  -16.0378   23.8728 N   0  0  0  0  0  0  0  0  0  0  0  0
   11.8726  -17.6586   25.6367 C   0  0  0  0  0  0  0  0  0  0  0  0
   12.0275  -18.9111   24.9939 O   0  0  0  0  0  0  0  0  0  0  0  0
   12.5150  -17.5522   26.7043 O   0  0  0  0  0  0  0  0  0  0  0  0
  2  1  1  1
  2  9  1  0
  3  2  1  0
  3  4  1  0
  4  8  1  0
  4  5  2  0
  5  6  1  0
  7  6  1  0
  8  7  2  0
  9 10  2  0
 11  9  1  0
 11 12  1  0
 12 16  1  0
 12 13  1  6
 14 13  1  0
 15 14  2  0
 16 17  2  0
 18 14  1  0
 19 20  1  0
 20 22  1  0
 21 20  2  0
 23 22  1  6
 23 25  1  0
 24 16  1  0
 24 23  1  0
 25 27  2  0
 25 26  1  0
M  END
$$$$
