HDN.pdb
     RDKit          3D

 27 27  0  0  1  0  0  0  0  0999 V2000
   10.0725  -16.0221   19.5221 N   0  0  0  0  0  0  0  0  0  0  0  0
   10.7460  -16.2777   18.2600 C   0  0  1  0  0  0  0  0  0  0  0  0
   10.0194  -15.4451   17.2230 C   0  0  0  0  0  0  0  0  0  0  0  0
    9.0950  -14.4525   17.7929 C   0  0  0  0  0  0  0  0  0  0  0  0
    8.9031  -14.1547   19.1452 C   0  0  0  0  0  0  0  0  0  0  0  0
    7.9622  -13.1893   19.2573 N   0  0  0  0  0  0  0  0  0  0  0  0
    7.5591  -12.8749   18.0009 C   0  0  0  0  0  0  0  0  0  0  0  0
    8.2537  -13.6472   17.1320 N   0  0  0  0  0  0  0  0  0  0  0  0
   12.1578  -15.8883   18.2997 C   0  0  0  0  0  0  0  0  0  0  0  0
   12.8900  -16.2709   17.3342 O   0  0  0  0  0  0  0  0  0  0  0  0
   12.7532  -15.1178   19.3385 N   0  0  0  0  0  0  0  0  0  0  0  0
   14.1491  -15.2504   19.5798 C   0  0  1  0  0  0  0  0  0  0  0  0
   14.9169  -13.9895   19.2072 C   0  0  0  0  0  0  0  0  0  0  0  0
   15.1834  -13.9159   17.7701 C   0  0  0  0  0  0  0  0  0  0  0  0
   14.6750  -13.0001   17.0737 O   0  0  0  0  0  0  0  0  0  0  0  0
   14.4943  -15.5670   20.9827 C   0  0  0  0  0  0  0  0  0  0  0  0
   15.4654  -14.9290   21.4762 O   0  0  0  0  0  0  0  0  0  0  0  0
   15.9819  -14.8185   17.1198 O   0  0  0  0  0  0  0  0  0  0  0  0
   11.9474  -15.0316   23.1253 N   0  0  0  0  0  0  0  0  0  0  0  0
   11.8933  -16.2106   23.9067 C   0  0  0  0  0  0  0  0  0  0  0  0
   10.8046  -16.4512   24.4960 O   0  0  0  0  0  0  0  0  0  0  0  0
   13.0379  -17.1089   24.0260 C   0  0  0  0  0  0  0  0  0  0  0  0
   14.2126  -16.7829   23.1712 C   0  0  2  0  0  0  0  0  0  0  0  0
   13.8434  -16.5019   21.7981 N   0  0  0  0  0  0  0  0  0  0  0  0
   15.2243  -17.8611   23.2238 C   0  0  0  0  0  0  0  0  0  0  0  0
   15.3675  -18.7517   22.1320 O   0  0  0  0  0  0  0  0  0  0  0  0
   16.0083  -18.0880   24.1713 O   0  0  0  0  0  0  0  0  0  0  0  0
  2  1  1  1
  2  9  1  0
  3  2  1  0
  3  4  1  0
  4  8  1  0
  4  5  2  0
  5  6  1  0
  7  6  1  0
  8  7  2  0
  9 10  2  0
 11  9  1  0
 11 12  1  0
 12 16  1  0
 12 13  1  1
 14 13  1  0
 15 14  2  0
 16 17  2  0
 18 14  1  0
 19 20  1  0
 20 22  1  0
 21 20  2  0
 23 22  1  1
 23 25  1  0
 24 16  1  0
 24 23  1  0
 25 27  2  0
 25 26  1  0
M  END
$$$$
