HDN.pdb
     RDKit          3D

 27 27  0  0  1  0  0  0  0  0999 V2000
   14.6986  -23.0218   14.5603 N   0  0  0  0  0  0  0  0  0  0  0  0
   16.0253  -22.5214   14.2423 C   0  0  1  0  0  0  0  0  0  0  0  0
   15.9986  -21.0391   14.5562 C   0  0  0  0  0  0  0  0  0  0  0  0
   15.7077  -20.1860   13.3934 C   0  0  0  0  0  0  0  0  0  0  0  0
   16.5203  -19.9748   12.2757 C   0  0  0  0  0  0  0  0  0  0  0  0
   15.8997  -19.1185   11.4321 N   0  0  0  0  0  0  0  0  0  0  0  0
   14.7126  -18.7877   11.9986 C   0  0  0  0  0  0  0  0  0  0  0  0
   14.6153  -19.4414   13.1806 N   0  0  0  0  0  0  0  0  0  0  0  0
   17.0663  -23.1729   15.0412 C   0  0  0  0  0  0  0  0  0  0  0  0
   16.8849  -24.3944   15.3408 O   0  0  0  0  0  0  0  0  0  0  0  0
   18.2533  -22.5319   15.4967 N   0  0  0  0  0  0  0  0  0  0  0  0
   19.2580  -23.3147   16.1308 C   0  0  1  0  0  0  0  0  0  0  0  0
   20.6241  -23.1245   15.4860 C   0  0  0  0  0  0  0  0  0  0  0  0
   21.5376  -24.2222   15.8057 C   0  0  0  0  0  0  0  0  0  0  0  0
   21.1501  -25.1889   16.5110 O   0  0  0  0  0  0  0  0  0  0  0  0
   19.4202  -23.0385   17.5748 C   0  0  0  0  0  0  0  0  0  0  0  0
   20.3343  -22.2262   17.8883 O   0  0  0  0  0  0  0  0  0  0  0  0
   22.8338  -24.2565   15.3653 O   0  0  0  0  0  0  0  0  0  0  0  0
   20.0710  -25.6098   21.1967 N   0  0  0  0  0  0  0  0  0  0  0  0
   20.8554  -24.4516   20.9803 C   0  0  0  0  0  0  0  0  0  0  0  0
   22.0680  -24.5157   21.3206 O   0  0  0  0  0  0  0  0  0  0  0  0
   20.2938  -23.2403   20.3897 C   0  0  0  0  0  0  0  0  0  0  0  0
   18.8543  -23.3062   20.0151 C   0  0  2  0  0  0  0  0  0  0  0  0
   18.6557  -23.5944   18.6087 N   0  0  0  0  0  0  0  0  0  0  0  0
   18.1492  -22.0613   20.3919 C   0  0  0  0  0  0  0  0  0  0  0  0
   17.7057  -21.8740   21.7239 O   0  0  0  0  0  0  0  0  0  0  0  0
   17.8860  -21.1058   19.6293 O   0  0  0  0  0  0  0  0  0  0  0  0
  2  1  1  1
  2  9  1  0
  3  2  1  0
  3  4  1  0
  4  8  1  0
  4  5  2  0
  5  6  1  0
  7  6  1  0
  8  7  2  0
  9 10  2  0
 11  9  1  0
 11 12  1  0
 12 16  1  0
 12 13  1  6
 14 13  1  0
 15 14  2  0
 16 17  2  0
 18 14  1  0
 19 20  1  0
 20 22  1  0
 21 20  2  0
 23 22  1  6
 23 25  1  0
 24 16  1  0
 24 23  1  0
 25 27  2  0
 25 26  1  0
M  END
$$$$
