HDN.pdb
     RDKit          3D

 27 27  0  0  1  0  0  0  0  0999 V2000
    9.4191  -16.7159   19.2664 N   0  0  0  0  0  0  0  0  0  0  0  0
   10.4128  -16.0364   20.0805 C   0  0  1  0  0  0  0  0  0  0  0  0
    9.6613  -14.9724   20.8548 C   0  0  0  0  0  0  0  0  0  0  0  0
    9.0178  -13.9570   20.0067 C   0  0  0  0  0  0  0  0  0  0  0  0
    9.6492  -13.0173   19.1865 C   0  0  0  0  0  0  0  0  0  0  0  0
    8.7095  -12.2595   18.5760 N   0  0  0  0  0  0  0  0  0  0  0  0
    7.4997  -12.7051   18.9972 C   0  0  0  0  0  0  0  0  0  0  0  0
    7.7066  -13.7289   19.8592 N   0  0  0  0  0  0  0  0  0  0  0  0
   11.0752  -16.9480   21.0168 C   0  0  0  0  0  0  0  0  0  0  0  0
   10.4034  -17.9471   21.4233 O   0  0  0  0  0  0  0  0  0  0  0  0
   12.4072  -16.7872   21.4934 N   0  0  0  0  0  0  0  0  0  0  0  0
   12.9436  -17.7630   22.3791 C   0  0  1  0  0  0  0  0  0  0  0  0
   14.4660  -17.7787   22.3595 C   0  0  0  0  0  0  0  0  0  0  0  0
   14.9907  -18.7542   21.4031 C   0  0  0  0  0  0  0  0  0  0  0  0
   14.2568  -19.6784   20.9679 O   0  0  0  0  0  0  0  0  0  0  0  0
   12.5319  -17.5929   23.7895 C   0  0  0  0  0  0  0  0  0  0  0  0
   12.8794  -16.5144   24.3461 O   0  0  0  0  0  0  0  0  0  0  0  0
   16.2789  -18.7156   20.9403 O   0  0  0  0  0  0  0  0  0  0  0  0
    9.9370  -16.3320   24.5512 N   0  0  0  0  0  0  0  0  0  0  0  0
    9.2589  -17.2680   25.3683 C   0  0  0  0  0  0  0  0  0  0  0  0
    7.9995  -17.2048   25.3788 O   0  0  0  0  0  0  0  0  0  0  0  0
    9.9775  -18.2621   26.1602 C   0  0  0  0  0  0  0  0  0  0  0  0
   11.4489  -18.3275   25.9423 C   0  0  2  0  0  0  0  0  0  0  0  0
   11.7994  -18.5147   24.5485 N   0  0  0  0  0  0  0  0  0  0  0  0
   12.0636  -19.3839   26.7760 C   0  0  0  0  0  0  0  0  0  0  0  0
   12.6226  -19.0565   28.0354 O   0  0  0  0  0  0  0  0  0  0  0  0
   12.1509  -20.5959   26.4806 O   0  0  0  0  0  0  0  0  0  0  0  0
  2  1  1  1
  2  9  1  0
  3  2  1  0
  3  4  1  0
  4  8  1  0
  4  5  2  0
  5  6  1  0
  7  6  1  0
  8  7  2  0
  9 10  2  0
 11  9  1  0
 11 12  1  0
 12 16  1  0
 12 13  1  1
 14 13  1  0
 15 14  2  0
 16 17  2  0
 18 14  1  0
 19 20  1  0
 20 22  1  0
 21 20  2  0
 23 22  1  6
 23 25  1  0
 24 16  1  0
 24 23  1  0
 25 27  2  0
 25 26  1  0
M  END
$$$$
