HDN.pdb
     RDKit          3D

 27 27  0  0  1  0  0  0  0  0999 V2000
   10.7232  -16.5443   19.9536 N   0  0  0  0  0  0  0  0  0  0  0  0
    9.7083  -15.7979   20.6780 C   0  0  1  0  0  0  0  0  0  0  0  0
    8.4488  -15.8841   19.8397 C   0  0  0  0  0  0  0  0  0  0  0  0
    8.1555  -14.6635   19.0725 C   0  0  0  0  0  0  0  0  0  0  0  0
    8.9641  -13.5302   18.9456 C   0  0  0  0  0  0  0  0  0  0  0  0
    8.3363  -12.6234   18.1624 N   0  0  0  0  0  0  0  0  0  0  0  0
    7.1486  -13.1654   17.7948 C   0  0  0  0  0  0  0  0  0  0  0  0
    7.0581  -14.3957   18.3535 N   0  0  0  0  0  0  0  0  0  0  0  0
    9.4526  -16.3611   22.0061 C   0  0  0  0  0  0  0  0  0  0  0  0
    8.7398  -17.4116   22.0606 O   0  0  0  0  0  0  0  0  0  0  0  0
    9.9466  -15.8127   23.2238 N   0  0  0  0  0  0  0  0  0  0  0  0
    9.7249  -16.5214   24.4374 C   0  0  1  0  0  0  0  0  0  0  0  0
   10.4698  -17.8490   24.4694 C   0  0  0  0  0  0  0  0  0  0  0  0
    9.7315  -18.9073   23.7789 C   0  0  0  0  0  0  0  0  0  0  0  0
   10.2194  -19.4663   22.7633 O   0  0  0  0  0  0  0  0  0  0  0  0
   10.1168  -15.7773   25.6540 C   0  0  0  0  0  0  0  0  0  0  0  0
   11.3125  -15.3749   25.7012 O   0  0  0  0  0  0  0  0  0  0  0  0
    8.4982  -19.3370   24.1907 O   0  0  0  0  0  0  0  0  0  0  0  0
    6.4587  -12.5711   27.4794 N   0  0  0  0  0  0  0  0  0  0  0  0
    7.7970  -12.9971   27.3036 C   0  0  0  0  0  0  0  0  0  0  0  0
    8.3640  -12.6582   26.2293 O   0  0  0  0  0  0  0  0  0  0  0  0
    8.4928  -13.7880   28.3145 C   0  0  0  0  0  0  0  0  0  0  0  0
    9.6449  -14.5963   27.8288 C   0  0  2  0  0  0  0  0  0  0  0  0
    9.2847  -15.4858   26.7426 N   0  0  0  0  0  0  0  0  0  0  0  0
   10.2650  -15.3573   28.9357 C   0  0  0  0  0  0  0  0  0  0  0  0
   10.8117  -14.6713   30.0476 O   0  0  0  0  0  0  0  0  0  0  0  0
   10.3672  -16.6017   29.0056 O   0  0  0  0  0  0  0  0  0  0  0  0
  2  1  1  6
  2  9  1  0
  3  2  1  0
  3  4  1  0
  4  8  1  0
  4  5  2  0
  5  6  1  0
  7  6  1  0
  8  7  2  0
  9 10  2  0
 11  9  1  0
 11 12  1  0
 12 16  1  0
 12 13  1  6
 14 13  1  0
 15 14  2  0
 16 17  2  0
 18 14  1  0
 19 20  1  0
 20 22  1  0
 21 20  2  0
 23 22  1  1
 23 25  1  0
 24 16  1  0
 24 23  1  0
 25 27  2  0
 25 26  1  0
M  END
$$$$
