HDN.pdb
     RDKit          3D

 27 27  0  0  1  0  0  0  0  0999 V2000
    6.7004  -16.8645   20.0134 N   0  0  0  0  0  0  0  0  0  0  0  0
    8.1122  -16.7562   19.6868 C   0  0  1  0  0  0  0  0  0  0  0  0
    8.4921  -15.3130   19.9502 C   0  0  0  0  0  0  0  0  0  0  0  0
    7.7463  -14.3397   19.1373 C   0  0  0  0  0  0  0  0  0  0  0  0
    6.8096  -14.6154   18.1369 C   0  0  0  0  0  0  0  0  0  0  0  0
    6.3544  -13.4500   17.6227 N   0  0  0  0  0  0  0  0  0  0  0  0
    6.9874  -12.4472   18.2810 C   0  0  0  0  0  0  0  0  0  0  0  0
    7.8225  -13.0039   19.1902 N   0  0  0  0  0  0  0  0  0  0  0  0
    8.9387  -17.6394   20.5136 C   0  0  0  0  0  0  0  0  0  0  0  0
    8.5533  -17.8404   21.7076 O   0  0  0  0  0  0  0  0  0  0  0  0
   10.1308  -18.2785   20.0689 N   0  0  0  0  0  0  0  0  0  0  0  0
   10.8379  -19.1205   20.9719 C   0  0  1  0  0  0  0  0  0  0  0  0
   11.0203  -20.5275   20.4191 C   0  0  0  0  0  0  0  0  0  0  0  0
   11.2599  -21.5056   21.4810 C   0  0  0  0  0  0  0  0  0  0  0  0
   11.9759  -21.2084   22.4715 O   0  0  0  0  0  0  0  0  0  0  0  0
   12.1818  -18.6233   21.3381 C   0  0  0  0  0  0  0  0  0  0  0  0
   12.9363  -18.2966   20.3801 O   0  0  0  0  0  0  0  0  0  0  0  0
   10.7304  -22.7682   21.4554 O   0  0  0  0  0  0  0  0  0  0  0  0
   15.3868  -16.4563   21.0477 N   0  0  0  0  0  0  0  0  0  0  0  0
   14.2515  -15.6889   21.4021 C   0  0  0  0  0  0  0  0  0  0  0  0
   14.0882  -14.5999   20.7875 O   0  0  0  0  0  0  0  0  0  0  0  0
   13.3108  -16.1331   22.4265 C   0  0  0  0  0  0  0  0  0  0  0  0
   13.6062  -17.4506   23.0537 C   0  0  2  0  0  0  0  0  0  0  0  0
   12.6806  -18.4864   22.6400 N   0  0  0  0  0  0  0  0  0  0  0  0
   13.6352  -17.3429   24.5290 C   0  0  0  0  0  0  0  0  0  0  0  0
   14.6552  -16.5935   25.1644 O   0  0  0  0  0  0  0  0  0  0  0  0
   12.8198  -17.8650   25.3204 O   0  0  0  0  0  0  0  0  0  0  0  0
  2  1  1  1
  2  9  1  0
  3  2  1  0
  3  4  1  0
  4  8  1  0
  4  5  2  0
  5  6  1  0
  7  6  1  0
  8  7  2  0
  9 10  2  0
 11  9  1  0
 11 12  1  0
 12 16  1  0
 12 13  1  6
 14 13  1  0
 15 14  2  0
 16 17  2  0
 18 14  1  0
 19 20  1  0
 20 22  1  0
 21 20  2  0
 23 22  1  6
 23 25  1  0
 24 16  1  0
 24 23  1  0
 25 27  2  0
 25 26  1  0
M  END
$$$$
