HDN.pdb
     RDKit          3D

 27 27  0  0  1  0  0  0  0  0999 V2000
    8.8987  -17.4521   18.8754 N   0  0  0  0  0  0  0  0  0  0  0  0
    9.9780  -16.7324   19.5304 C   0  0  1  0  0  0  0  0  0  0  0  0
    9.3145  -15.7921   20.5164 C   0  0  0  0  0  0  0  0  0  0  0  0
    8.5236  -14.7239   19.8856 C   0  0  0  0  0  0  0  0  0  0  0  0
    8.3444  -14.5004   18.5173 C   0  0  0  0  0  0  0  0  0  0  0  0
    7.5551  -13.4155   18.3451 N   0  0  0  0  0  0  0  0  0  0  0  0
    7.2349  -12.9529   19.5793 C   0  0  0  0  0  0  0  0  0  0  0  0
    7.8284  -13.7551   20.4949 N   0  0  0  0  0  0  0  0  0  0  0  0
   10.8859  -17.6323   20.2462 C   0  0  0  0  0  0  0  0  0  0  0  0
   10.4350  -18.7781   20.5600 O   0  0  0  0  0  0  0  0  0  0  0  0
   12.2245  -17.3080   20.6074 N   0  0  0  0  0  0  0  0  0  0  0  0
   12.9855  -18.2542   21.3488 C   0  0  1  0  0  0  0  0  0  0  0  0
   14.4820  -17.9940   21.2433 C   0  0  0  0  0  0  0  0  0  0  0  0
   14.9469  -18.0289   19.8561 C   0  0  0  0  0  0  0  0  0  0  0  0
   14.8139  -19.0717   19.1654 O   0  0  0  0  0  0  0  0  0  0  0  0
   12.6563  -18.3010   22.7900 C   0  0  0  0  0  0  0  0  0  0  0  0
   12.7937  -17.2211   23.4293 O   0  0  0  0  0  0  0  0  0  0  0  0
   15.5381  -16.9538   19.2480 O   0  0  0  0  0  0  0  0  0  0  0  0
   13.2320  -21.8115   25.8624 N   0  0  0  0  0  0  0  0  0  0  0  0
   13.8079  -20.5499   26.1458 C   0  0  0  0  0  0  0  0  0  0  0  0
   14.9075  -20.5539   26.7630 O   0  0  0  0  0  0  0  0  0  0  0  0
   13.1658  -19.3021   25.7430 C   0  0  0  0  0  0  0  0  0  0  0  0
   11.9345  -19.4410   24.9176 C   0  0  2  0  0  0  0  0  0  0  0  0
   12.2112  -19.4268   23.4949 N   0  0  0  0  0  0  0  0  0  0  0  0
   10.9431  -18.3981   25.2614 C   0  0  0  0  0  0  0  0  0  0  0  0
    9.5585  -18.6894   25.2000 O   0  0  0  0  0  0  0  0  0  0  0  0
   11.2011  -17.2277   25.6187 O   0  0  0  0  0  0  0  0  0  0  0  0
  2  1  1  1
  2  9  1  0
  3  2  1  0
  3  4  1  0
  4  8  1  0
  4  5  2  0
  5  6  1  0
  7  6  1  0
  8  7  2  0
  9 10  2  0
 11  9  1  0
 11 12  1  0
 12 16  1  0
 12 13  1  1
 14 13  1  0
 15 14  2  0
 16 17  2  0
 18 14  1  0
 19 20  1  0
 20 22  1  0
 21 20  2  0
 23 22  1  1
 23 25  1  0
 24 16  1  0
 24 23  1  0
 25 27  2  0
 25 26  1  0
M  END
$$$$
