HDN.pdb
     RDKit          3D

 27 27  0  0  1  0  0  0  0  0999 V2000
    8.5285  -16.8587   19.4407 N   0  0  0  0  0  0  0  0  0  0  0  0
    9.1990  -16.1489   20.5170 C   0  0  1  0  0  0  0  0  0  0  0  0
    8.2106  -15.1126   21.0129 C   0  0  0  0  0  0  0  0  0  0  0  0
    8.0677  -13.9484   20.1248 C   0  0  0  0  0  0  0  0  0  0  0  0
    7.1500  -13.7880   19.0825 C   0  0  0  0  0  0  0  0  0  0  0  0
    7.3447  -12.5816   18.5023 N   0  0  0  0  0  0  0  0  0  0  0  0
    8.3675  -11.9810   19.1602 C   0  0  0  0  0  0  0  0  0  0  0  0
    8.7900  -12.8209   20.1350 N   0  0  0  0  0  0  0  0  0  0  0  0
    9.5685  -17.0406   21.6192 C   0  0  0  0  0  0  0  0  0  0  0  0
    8.8148  -18.0417   21.8298 O   0  0  0  0  0  0  0  0  0  0  0  0
   10.7046  -16.8586   22.4579 N   0  0  0  0  0  0  0  0  0  0  0  0
   10.9892  -17.8355   23.4523 C   0  0  1  0  0  0  0  0  0  0  0  0
   12.4790  -18.1333   23.5525 C   0  0  0  0  0  0  0  0  0  0  0  0
   12.7677  -19.1433   24.5716 C   0  0  0  0  0  0  0  0  0  0  0  0
   12.0254  -20.1508   24.6986 O   0  0  0  0  0  0  0  0  0  0  0  0
   10.5300  -17.4701   24.8100 C   0  0  0  0  0  0  0  0  0  0  0  0
   10.9204  -16.3528   25.2494 O   0  0  0  0  0  0  0  0  0  0  0  0
   13.8363  -19.0493   25.4227 O   0  0  0  0  0  0  0  0  0  0  0  0
    8.0877  -20.3707   26.3154 N   0  0  0  0  0  0  0  0  0  0  0  0
    7.2829  -19.3393   26.8559 C   0  0  0  0  0  0  0  0  0  0  0  0
    6.0646  -19.6077   27.0402 O   0  0  0  0  0  0  0  0  0  0  0  0
    7.8320  -18.0279   27.1880 C   0  0  0  0  0  0  0  0  0  0  0  0
    9.2955  -17.8614   26.9710 C   0  0  2  0  0  0  0  0  0  0  0  0
    9.7100  -18.2485   25.6373 N   0  0  0  0  0  0  0  0  0  0  0  0
   10.0719  -18.6030   27.9889 C   0  0  0  0  0  0  0  0  0  0  0  0
    9.9353  -18.2767   29.3603 O   0  0  0  0  0  0  0  0  0  0  0  0
   10.8770  -19.5335   27.7655 O   0  0  0  0  0  0  0  0  0  0  0  0
  2  1  1  6
  2  9  1  0
  3  2  1  0
  3  4  1  0
  4  8  1  0
  4  5  2  0
  5  6  1  0
  7  6  1  0
  8  7  2  0
  9 10  2  0
 11  9  1  0
 11 12  1  0
 12 16  1  0
 12 13  1  1
 14 13  1  0
 15 14  2  0
 16 17  2  0
 18 14  1  0
 19 20  1  0
 20 22  1  0
 21 20  2  0
 23 22  1  6
 23 25  1  0
 24 16  1  0
 24 23  1  0
 25 27  2  0
 25 26  1  0
M  END
$$$$
