HDN.pdb
     RDKit          3D

 27 27  0  0  1  0  0  0  0  0999 V2000
   10.1441  -15.6681   17.8851 N   0  0  0  0  0  0  0  0  0  0  0  0
   11.0922  -14.6178   18.2164 C   0  0  1  0  0  0  0  0  0  0  0  0
   10.4980  -13.8765   19.3971 C   0  0  0  0  0  0  0  0  0  0  0  0
    9.1652  -13.3095   19.1388 C   0  0  0  0  0  0  0  0  0  0  0  0
    8.4503  -13.3439   17.9380 C   0  0  0  0  0  0  0  0  0  0  0  0
    7.2692  -12.7065   18.1071 N   0  0  0  0  0  0  0  0  0  0  0  0
    7.2285  -12.2721   19.3913 C   0  0  0  0  0  0  0  0  0  0  0  0
    8.3808  -12.6454   19.9971 N   0  0  0  0  0  0  0  0  0  0  0  0
   12.4041  -15.1556   18.5852 C   0  0  0  0  0  0  0  0  0  0  0  0
   12.4441  -16.3643   18.9753 O   0  0  0  0  0  0  0  0  0  0  0  0
   13.6214  -14.4188   18.5344 N   0  0  0  0  0  0  0  0  0  0  0  0
   14.8191  -15.0363   18.9910 C   0  0  1  0  0  0  0  0  0  0  0  0
   16.0626  -14.3212   18.4805 C   0  0  0  0  0  0  0  0  0  0  0  0
   16.2212  -14.4658   17.0328 C   0  0  0  0  0  0  0  0  0  0  0  0
   16.1576  -13.4594   16.2811 O   0  0  0  0  0  0  0  0  0  0  0  0
   14.9387  -15.1119   20.4633 C   0  0  0  0  0  0  0  0  0  0  0  0
   14.9721  -14.0097   21.0779 O   0  0  0  0  0  0  0  0  0  0  0  0
   16.4421  -15.6759   16.4312 O   0  0  0  0  0  0  0  0  0  0  0  0
   11.8864  -17.3434   22.1570 N   0  0  0  0  0  0  0  0  0  0  0  0
   12.7256  -16.7328   23.1194 C   0  0  0  0  0  0  0  0  0  0  0  0
   12.2212  -15.8003   23.8023 O   0  0  0  0  0  0  0  0  0  0  0  0
   14.1077  -17.1595   23.3178 C   0  0  0  0  0  0  0  0  0  0  0  0
   15.1484  -16.3184   22.6650 C   0  0  2  0  0  0  0  0  0  0  0  0
   15.0170  -16.2870   21.2220 N   0  0  0  0  0  0  0  0  0  0  0  0
   16.5072  -16.7588   23.0505 C   0  0  0  0  0  0  0  0  0  0  0  0
   16.8901  -16.7629   24.4140 O   0  0  0  0  0  0  0  0  0  0  0  0
   17.4031  -17.1481   22.2697 O   0  0  0  0  0  0  0  0  0  0  0  0
  2  1  1  1
  2  9  1  0
  3  2  1  0
  3  4  1  0
  4  8  1  0
  4  5  2  0
  5  6  1  0
  7  6  1  0
  8  7  2  0
  9 10  2  0
 11  9  1  0
 11 12  1  0
 12 16  1  0
 12 13  1  1
 14 13  1  0
 15 14  2  0
 16 17  2  0
 18 14  1  0
 19 20  1  0
 20 22  1  0
 21 20  2  0
 23 22  1  1
 23 25  1  0
 24 16  1  0
 24 23  1  0
 25 27  2  0
 25 26  1  0
M  END
$$$$
