WEC.pdb
     RDKit          3D

 30 31  0  0  1  0  0  0  0  0999 V2000
   25.8748  -19.8547  -13.9464 N   0  0  0  0  0  0  0  0  0  0  0  0
   24.5217  -20.3402  -13.9315 C   0  0  1  0  0  0  0  0  0  0  0  0
   24.0961  -20.5120  -12.4890 C   0  0  0  0  0  0  0  0  0  0  0  0
   25.3079  -20.8725  -11.6703 C   0  0  0  0  0  0  0  0  0  0  0  0
   26.3057  -21.7378  -12.0477 C   0  0  0  0  0  0  0  0  0  0  0  0
   27.2193  -21.8136  -11.0643 N   0  0  0  0  0  0  0  0  0  0  0  0
   26.8283  -21.0053  -10.0462 C   0  0  0  0  0  0  0  0  0  0  0  0
   27.3992  -20.7260   -8.8275 C   0  0  0  0  0  0  0  0  0  0  0  0
   26.7701  -19.8549   -7.9873 C   0  0  0  0  0  0  0  0  0  0  0  0
   25.5793  -19.2518   -8.3337 C   0  0  0  0  0  0  0  0  0  0  0  0
   25.0028  -19.5287   -9.5548 C   0  0  0  0  0  0  0  0  0  0  0  0
   25.6341  -20.4098  -10.4108 C   0  0  0  0  0  0  0  0  0  0  0  0
   23.6119  -19.2998  -14.5129 C   0  0  0  0  0  0  0  0  0  0  0  0
   23.5207  -18.1817  -13.9796 O   0  0  0  0  0  0  0  0  0  0  0  0
   22.8476  -19.5732  -15.6708 N   0  0  0  0  0  0  0  0  0  0  0  0
   21.9857  -18.6935  -16.3778 C   0  0  1  0  0  0  0  0  0  0  0  0
   22.5158  -18.1926  -17.7105 C   0  0  0  0  0  0  0  0  0  0  0  0
   23.8912  -17.6355  -17.4986 C   0  0  0  0  0  0  0  0  0  0  0  0
   24.4491  -17.0484  -18.7548 C   0  0  0  0  0  0  0  0  0  0  0  0
   23.8787  -17.0829  -19.8679 O   0  0  0  0  0  0  0  0  0  0  0  0
   20.5600  -19.0144  -16.3691 C   0  0  0  0  0  0  0  0  0  0  0  0
   20.1998  -20.2009  -16.3162 O   0  0  0  0  0  0  0  0  0  0  0  0
   25.6830  -16.4269  -18.6652 O   0  0  0  0  0  0  0  0  0  0  0  0
   19.6076  -17.9625  -16.4213 N   0  0  0  0  0  0  0  0  0  0  0  0
   18.1793  -18.2003  -16.4953 C   0  0  1  0  0  0  0  0  0  0  0  0
   17.4681  -17.8299  -15.2069 C   0  0  0  0  0  0  0  0  0  0  0  0
   15.7014  -18.1662  -15.4448 S   0  0  0  0  0  0  0  0  0  0  0  0
   17.5643  -17.5108  -17.6416 C   0  0  0  0  0  0  0  0  0  0  0  0
   17.9532  -16.3472  -17.9102 O   0  0  0  0  0  0  0  0  0  0  0  0
   16.5840  -18.1060  -18.4167 O   0  0  0  0  0  0  0  0  0  0  0  0
  2  1  1  1
  2  3  1  0
  2 13  1  0
  3  4  1  0
  4 12  1  0
  4  5  2  0
  5  6  1  0
  7  6  1  0
  7  8  2  0
  9  8  1  0
 10  9  2  0
 11 12  2  0
 11 10  1  0
 12  7  1  0
 13 14  2  0
 15 13  1  0
 15 16  1  0
 16 21  1  0
 16 17  1  6
 18 17  1  0
 19 20  2  0
 19 18  1  0
 21 22  2  0
 23 19  1  0
 24 25  1  0
 24 21  1  0
 25 28  1  0
 26 27  1  0
 25 26  1  1
 28 29  2  0
 28 30  1  0
M  END
$$$$
