WEC.pdb
     RDKit          3D

 30 31  0  0  1  0  0  0  0  0999 V2000
   17.8402   -8.8884  -13.2640 N   0  0  0  0  0  0  0  0  0  0  0  0
   17.9713   -8.6500  -11.8523 C   0  0  1  0  0  0  0  0  0  0  0  0
   18.9810   -7.5404  -11.6514 C   0  0  0  0  0  0  0  0  0  0  0  0
   20.2114   -7.8581  -12.4600 C   0  0  0  0  0  0  0  0  0  0  0  0
   20.7549   -9.1065  -12.6412 C   0  0  0  0  0  0  0  0  0  0  0  0
   21.8471   -9.0035  -13.4184 N   0  0  0  0  0  0  0  0  0  0  0  0
   22.0234   -7.6984  -13.7476 C   0  0  0  0  0  0  0  0  0  0  0  0
   22.9757   -7.0671  -14.5117 C   0  0  0  0  0  0  0  0  0  0  0  0
   22.9019   -5.7150  -14.6749 C   0  0  0  0  0  0  0  0  0  0  0  0
   21.8968   -4.9721  -14.0921 C   0  0  0  0  0  0  0  0  0  0  0  0
   20.9394   -5.6007  -13.3249 C   0  0  0  0  0  0  0  0  0  0  0  0
   21.0077   -6.9697  -13.1552 C   0  0  0  0  0  0  0  0  0  0  0  0
   16.6719   -8.1337  -11.3108 C   0  0  0  0  0  0  0  0  0  0  0  0
   16.0217   -7.2886  -11.9479 O   0  0  0  0  0  0  0  0  0  0  0  0
   16.1689   -8.5977  -10.0733 N   0  0  0  0  0  0  0  0  0  0  0  0
   15.0098   -8.1586   -9.3803 C   0  0  1  0  0  0  0  0  0  0  0  0
   14.1280   -9.2617   -8.8202 C   0  0  0  0  0  0  0  0  0  0  0  0
   13.7051  -10.1542   -9.9479 C   0  0  0  0  0  0  0  0  0  0  0  0
   12.8199  -11.2614   -9.4742 C   0  0  0  0  0  0  0  0  0  0  0  0
   12.4468  -11.4134   -8.2895 O   0  0  0  0  0  0  0  0  0  0  0  0
   15.1602   -6.9951   -8.5090 C   0  0  0  0  0  0  0  0  0  0  0  0
   16.2230   -6.8268   -7.8903 O   0  0  0  0  0  0  0  0  0  0  0  0
   12.3911  -12.1741  -10.4228 O   0  0  0  0  0  0  0  0  0  0  0  0
   14.0870   -6.0739   -8.3834 N   0  0  0  0  0  0  0  0  0  0  0  0
   14.1816   -4.8621   -7.5930 C   0  0  1  0  0  0  0  0  0  0  0  0
   15.3474   -3.9887   -8.0185 C   0  0  0  0  0  0  0  0  0  0  0  0
   15.3121   -2.4951   -6.9893 S   0  0  0  0  0  0  0  0  0  0  0  0
   12.9262   -4.0930   -7.6107 C   0  0  0  0  0  0  0  0  0  0  0  0
   12.1230   -4.2932   -8.5552 O   0  0  0  0  0  0  0  0  0  0  0  0
   12.6167   -3.1700   -6.6267 O   0  0  0  0  0  0  0  0  0  0  0  0
  2  1  1  6
  2  3  1  0
  2 13  1  0
  3  4  1  0
  4 12  1  0
  4  5  2  0
  5  6  1  0
  7  6  1  0
  7  8  2  0
  9  8  1  0
 10  9  2  0
 11 12  2  0
 11 10  1  0
 12  7  1  0
 13 14  2  0
 15 13  1  0
 15 16  1  0
 16 21  1  0
 16 17  1  1
 18 17  1  0
 19 20  2  0
 19 18  1  0
 21 22  2  0
 23 19  1  0
 24 25  1  0
 24 21  1  0
 25 28  1  0
 26 27  1  0
 25 26  1  6
 28 29  2  0
 28 30  1  0
M  END
$$$$
