WEC.pdb
     RDKit          3D

 30 31  0  0  1  0  0  0  0  0999 V2000
   27.0600  -21.9502  -15.3065 N   0  0  0  0  0  0  0  0  0  0  0  0
   26.6760  -21.3616  -14.0524 C   0  0  1  0  0  0  0  0  0  0  0  0
   27.1574  -19.9266  -14.0357 C   0  0  0  0  0  0  0  0  0  0  0  0
   28.5366  -19.8895  -13.4315 C   0  0  0  0  0  0  0  0  0  0  0  0
   29.6223  -19.2230  -13.9451 C   0  0  0  0  0  0  0  0  0  0  0  0
   30.6807  -19.4168  -13.1390 N   0  0  0  0  0  0  0  0  0  0  0  0
   30.2973  -20.2045  -12.1020 C   0  0  0  0  0  0  0  0  0  0  0  0
   30.9873  -20.6909  -11.0174 C   0  0  0  0  0  0  0  0  0  0  0  0
   30.3313  -21.4752  -10.1146 C   0  0  0  0  0  0  0  0  0  0  0  0
   28.9970  -21.7885  -10.2669 C   0  0  0  0  0  0  0  0  0  0  0  0
   28.3007  -21.3031  -11.3531 C   0  0  0  0  0  0  0  0  0  0  0  0
   28.9584  -20.5082  -12.2714 C   0  0  0  0  0  0  0  0  0  0  0  0
   25.1802  -21.3000  -13.9674 C   0  0  0  0  0  0  0  0  0  0  0  0
   24.4862  -21.5922  -14.9552 O   0  0  0  0  0  0  0  0  0  0  0  0
   24.5396  -20.9105  -12.7684 N   0  0  0  0  0  0  0  0  0  0  0  0
   23.1460  -20.8193  -12.5111 C   0  0  1  0  0  0  0  0  0  0  0  0
   22.7548  -20.7861  -11.0436 C   0  0  0  0  0  0  0  0  0  0  0  0
   21.2641  -20.9077  -10.9436 C   0  0  0  0  0  0  0  0  0  0  0  0
   20.8057  -20.9313   -9.5212 C   0  0  0  0  0  0  0  0  0  0  0  0
   21.5595  -20.8010   -8.5311 O   0  0  0  0  0  0  0  0  0  0  0  0
   22.3711  -19.9266  -13.3703 C   0  0  0  0  0  0  0  0  0  0  0  0
   22.6032  -18.7074  -13.3544 O   0  0  0  0  0  0  0  0  0  0  0  0
   19.4509  -21.1105   -9.2994 O   0  0  0  0  0  0  0  0  0  0  0  0
   21.3632  -20.4684  -14.2111 N   0  0  0  0  0  0  0  0  0  0  0  0
   20.5448  -19.6488  -15.0832 C   0  0  1  0  0  0  0  0  0  0  0  0
   20.4718  -20.2062  -16.4928 C   0  0  0  0  0  0  0  0  0  0  0  0
   22.1484  -20.7139  -16.9646 S   0  0  0  0  0  0  0  0  0  0  0  0
   19.1927  -19.4435  -14.5380 C   0  0  0  0  0  0  0  0  0  0  0  0
   18.7895  -20.2288  -13.6446 O   0  0  0  0  0  0  0  0  0  0  0  0
   18.3700  -18.4220  -14.9802 O   0  0  0  0  0  0  0  0  0  0  0  0
  2  1  1  6
  2  3  1  0
  2 13  1  0
  3  4  1  0
  4 12  1  0
  4  5  2  0
  5  6  1  0
  7  6  1  0
  7  8  2  0
  9  8  1  0
 10  9  2  0
 11 12  2  0
 11 10  1  0
 12  7  1  0
 13 14  2  0
 15 13  1  0
 15 16  1  0
 16 21  1  0
 16 17  1  1
 18 17  1  0
 19 20  2  0
 19 18  1  0
 21 22  2  0
 23 19  1  0
 24 25  1  0
 24 21  1  0
 25 28  1  0
 26 27  1  0
 25 26  1  6
 28 29  2  0
 28 30  1  0
M  END
$$$$
