WEC.pdb
     RDKit          3D

 30 31  0  0  1  0  0  0  0  0999 V2000
   27.1661  -19.7362  -16.3641 N   0  0  0  0  0  0  0  0  0  0  0  0
   26.8606  -20.6768  -15.3206 C   0  0  1  0  0  0  0  0  0  0  0  0
   26.6175  -19.9034  -14.0423 C   0  0  0  0  0  0  0  0  0  0  0  0
   27.9453  -19.6317  -13.3852 C   0  0  0  0  0  0  0  0  0  0  0  0
   28.7629  -18.5571  -13.6373 C   0  0  0  0  0  0  0  0  0  0  0  0
   29.8612  -18.6482  -12.8671 N   0  0  0  0  0  0  0  0  0  0  0  0
   29.7696  -19.7732  -12.1129 C   0  0  0  0  0  0  0  0  0  0  0  0
   30.6143  -20.3190  -11.1759 C   0  0  0  0  0  0  0  0  0  0  0  0
   30.2566  -21.4836  -10.5628 C   0  0  0  0  0  0  0  0  0  0  0  0
   29.0712  -22.1216  -10.8621 C   0  0  0  0  0  0  0  0  0  0  0  0
   28.2208  -21.5782  -11.8011 C   0  0  0  0  0  0  0  0  0  0  0  0
   28.5763  -20.3990  -12.4261 C   0  0  0  0  0  0  0  0  0  0  0  0
   25.5709  -21.3726  -15.6380 C   0  0  0  0  0  0  0  0  0  0  0  0
   24.6071  -20.7282  -16.0838 O   0  0  0  0  0  0  0  0  0  0  0  0
   25.4320  -22.7652  -15.4360 N   0  0  0  0  0  0  0  0  0  0  0  0
   24.2372  -23.5038  -15.2271 C   0  0  1  0  0  0  0  0  0  0  0  0
   24.3744  -25.0123  -15.3437 C   0  0  0  0  0  0  0  0  0  0  0  0
   25.2663  -25.3223  -16.5078 C   0  0  0  0  0  0  0  0  0  0  0  0
   25.4279  -26.7953  -16.7034 C   0  0  0  0  0  0  0  0  0  0  0  0
   26.1264  -27.3191  -17.5997 O   0  0  0  0  0  0  0  0  0  0  0  0
   23.3589  -23.0517  -14.1502 C   0  0  0  0  0  0  0  0  0  0  0  0
   23.6243  -23.3539  -12.9759 O   0  0  0  0  0  0  0  0  0  0  0  0
   24.7520  -27.6248  -15.8249 O   0  0  0  0  0  0  0  0  0  0  0  0
   22.2139  -22.2727  -14.4640 N   0  0  0  0  0  0  0  0  0  0  0  0
   21.5008  -21.4913  -13.4726 C   0  0  1  0  0  0  0  0  0  0  0  0
   22.3527  -20.3725  -12.9021 C   0  0  0  0  0  0  0  0  0  0  0  0
   22.7371  -20.8042  -11.1825 S   0  0  0  0  0  0  0  0  0  0  0  0
   20.2329  -20.9587  -13.9982 C   0  0  0  0  0  0  0  0  0  0  0  0
   20.0535  -20.9768  -15.2412 O   0  0  0  0  0  0  0  0  0  0  0  0
   19.2509  -20.4471  -13.1676 O   0  0  0  0  0  0  0  0  0  0  0  0
  2  1  1  6
  2  3  1  0
  2 13  1  0
  3  4  1  0
  4 12  1  0
  4  5  2  0
  5  6  1  0
  7  6  1  0
  7  8  2  0
  9  8  1  0
 10  9  2  0
 11 12  2  0
 11 10  1  0
 12  7  1  0
 13 14  2  0
 15 13  1  0
 15 16  1  0
 16 21  1  0
 16 17  1  1
 18 17  1  0
 19 20  2  0
 19 18  1  0
 21 22  2  0
 23 19  1  0
 24 25  1  0
 24 21  1  0
 25 28  1  0
 26 27  1  0
 25 26  1  6
 28 29  2  0
 28 30  1  0
M  END
$$$$
