WEC.pdb
     RDKit          3D

 30 31  0  0  1  0  0  0  0  0999 V2000
   27.6935  -21.5831  -14.7772 N   0  0  0  0  0  0  0  0  0  0  0  0
   26.6650  -21.7299  -13.7834 C   0  0  1  0  0  0  0  0  0  0  0  0
   26.5616  -20.4307  -13.0135 C   0  0  0  0  0  0  0  0  0  0  0  0
   27.7509  -20.3198  -12.0960 C   0  0  0  0  0  0  0  0  0  0  0  0
   29.0068  -19.8942  -12.4545 C   0  0  0  0  0  0  0  0  0  0  0  0
   29.8086  -19.9279  -11.3759 N   0  0  0  0  0  0  0  0  0  0  0  0
   29.0885  -20.3719  -10.3142 C   0  0  0  0  0  0  0  0  0  0  0  0
   29.4306  -20.5849   -9.0001 C   0  0  0  0  0  0  0  0  0  0  0  0
   28.4805  -21.0446   -8.1363 C   0  0  0  0  0  0  0  0  0  0  0  0
   27.1904  -21.2987   -8.5519 C   0  0  0  0  0  0  0  0  0  0  0  0
   26.8424  -21.0866   -9.8688 C   0  0  0  0  0  0  0  0  0  0  0  0
   27.7993  -20.6212  -10.7494 C   0  0  0  0  0  0  0  0  0  0  0  0
   25.3406  -21.9195  -14.4602 C   0  0  0  0  0  0  0  0  0  0  0  0
   24.7673  -20.9542  -14.9917 O   0  0  0  0  0  0  0  0  0  0  0  0
   24.7266  -23.1925  -14.5039 N   0  0  0  0  0  0  0  0  0  0  0  0
   23.3398  -23.4934  -14.5587 C   0  0  1  0  0  0  0  0  0  0  0  0
   22.9953  -24.9717  -14.6207 C   0  0  0  0  0  0  0  0  0  0  0  0
   21.5275  -25.1093  -14.8917 C   0  0  0  0  0  0  0  0  0  0  0  0
   21.1072  -26.5426  -14.9446 C   0  0  0  0  0  0  0  0  0  0  0  0
   21.7672  -27.4931  -14.4684 O   0  0  0  0  0  0  0  0  0  0  0  0
   22.4551  -22.6949  -13.7130 C   0  0  0  0  0  0  0  0  0  0  0  0
   22.6843  -22.6092  -12.4961 O   0  0  0  0  0  0  0  0  0  0  0  0
   19.9025  -26.8228  -15.5666 O   0  0  0  0  0  0  0  0  0  0  0  0
   21.3455  -22.0286  -14.2970 N   0  0  0  0  0  0  0  0  0  0  0  0
   20.4981  -21.1165  -13.5540 C   0  0  1  0  0  0  0  0  0  0  0  0
   20.9578  -19.6756  -13.6782 C   0  0  0  0  0  0  0  0  0  0  0  0
   19.8186  -18.6552  -12.7024 S   0  0  0  0  0  0  0  0  0  0  0  0
   19.0825  -21.2423  -13.9384 C   0  0  0  0  0  0  0  0  0  0  0  0
   18.8065  -21.3248  -15.1608 O   0  0  0  0  0  0  0  0  0  0  0  0
   18.0663  -21.2710  -12.9990 O   0  0  0  0  0  0  0  0  0  0  0  0
  2  1  1  6
  2  3  1  0
  2 13  1  0
  3  4  1  0
  4 12  1  0
  4  5  2  0
  5  6  1  0
  7  6  1  0
  7  8  2  0
  9  8  1  0
 10  9  2  0
 11 12  2  0
 11 10  1  0
 12  7  1  0
 13 14  2  0
 15 13  1  0
 15 16  1  0
 16 21  1  0
 16 17  1  1
 18 17  1  0
 19 20  2  0
 19 18  1  0
 21 22  2  0
 23 19  1  0
 24 25  1  0
 24 21  1  0
 25 28  1  0
 26 27  1  0
 25 26  1  6
 28 29  2  0
 28 30  1  0
M  END
$$$$
