WEC.pdb
     RDKit          3D

 30 31  0  0  1  0  0  0  0  0999 V2000
   26.0889  -22.8490  -11.4263 N   0  0  0  0  0  0  0  0  0  0  0  0
   25.4023  -21.6067  -11.6544 C   0  0  1  0  0  0  0  0  0  0  0  0
   26.4382  -20.5112  -11.7894 C   0  0  0  0  0  0  0  0  0  0  0  0
   27.5720  -20.8025  -10.8417 C   0  0  0  0  0  0  0  0  0  0  0  0
   28.7932  -21.3289  -11.1857 C   0  0  0  0  0  0  0  0  0  0  0  0
   29.5484  -21.4506  -10.0801 N   0  0  0  0  0  0  0  0  0  0  0  0
   28.8322  -21.0083   -9.0151 C   0  0  0  0  0  0  0  0  0  0  0  0
   29.1389  -20.9196   -7.6782 C   0  0  0  0  0  0  0  0  0  0  0  0
   28.2044  -20.4236   -6.8175 C   0  0  0  0  0  0  0  0  0  0  0  0
   26.9646  -20.0113   -7.2586 C   0  0  0  0  0  0  0  0  0  0  0  0
   26.6522  -20.0983   -8.5985 C   0  0  0  0  0  0  0  0  0  0  0  0
   27.5936  -20.5996   -9.4760 C   0  0  0  0  0  0  0  0  0  0  0  0
   24.6860  -21.6668  -12.9702 C   0  0  0  0  0  0  0  0  0  0  0  0
   24.7835  -22.6753  -13.6886 O   0  0  0  0  0  0  0  0  0  0  0  0
   23.8926  -20.5827  -13.4117 N   0  0  0  0  0  0  0  0  0  0  0  0
   22.5415  -20.6082  -13.8480 C   0  0  1  0  0  0  0  0  0  0  0  0
   21.6130  -21.5009  -13.0425 C   0  0  0  0  0  0  0  0  0  0  0  0
   20.2727  -21.5253  -13.7134 C   0  0  0  0  0  0  0  0  0  0  0  0
   20.0752  -22.7757  -14.5080 C   0  0  0  0  0  0  0  0  0  0  0  0
   19.8599  -23.9042  -14.0123 O   0  0  0  0  0  0  0  0  0  0  0  0
   21.9560  -19.3357  -14.2648 C   0  0  0  0  0  0  0  0  0  0  0  0
   21.3537  -18.6375  -13.4340 O   0  0  0  0  0  0  0  0  0  0  0  0
   20.1375  -22.6620  -15.8864 O   0  0  0  0  0  0  0  0  0  0  0  0
   22.0855  -18.9171  -15.6155 N   0  0  0  0  0  0  0  0  0  0  0  0
   21.7168  -17.5886  -16.0639 C   0  0  1  0  0  0  0  0  0  0  0  0
   22.1524  -17.3236  -17.4932 C   0  0  0  0  0  0  0  0  0  0  0  0
   23.9552  -17.5167  -17.5571 S   0  0  0  0  0  0  0  0  0  0  0  0
   20.2751  -17.3343  -15.9075 C   0  0  0  0  0  0  0  0  0  0  0  0
   19.4894  -18.3104  -15.9938 O   0  0  0  0  0  0  0  0  0  0  0  0
   19.7746  -16.0655  -15.6717 O   0  0  0  0  0  0  0  0  0  0  0  0
  2  1  1  6
  2  3  1  0
  2 13  1  0
  3  4  1  0
  4 12  1  0
  4  5  2  0
  5  6  1  0
  7  6  1  0
  7  8  2  0
  9  8  1  0
 10  9  2  0
 11 12  2  0
 11 10  1  0
 12  7  1  0
 13 14  2  0
 15 13  1  0
 15 16  1  0
 16 21  1  0
 16 17  1  1
 18 17  1  0
 19 20  2  0
 19 18  1  0
 21 22  2  0
 23 19  1  0
 24 25  1  0
 24 21  1  0
 25 28  1  0
 26 27  1  0
 25 26  1  6
 28 29  2  0
 28 30  1  0
M  END
$$$$
