WEC.pdb
     RDKit          3D

 30 31  0  0  1  0  0  0  0  0999 V2000
   26.7195  -21.8054  -12.3659 N   0  0  0  0  0  0  0  0  0  0  0  0
   25.5840  -20.9413  -12.5415 C   0  0  1  0  0  0  0  0  0  0  0  0
   25.6825  -19.8188  -11.5308 C   0  0  0  0  0  0  0  0  0  0  0  0
   25.2534  -20.3442  -10.1859 C   0  0  0  0  0  0  0  0  0  0  0  0
   26.0714  -20.5381   -9.0996 C   0  0  0  0  0  0  0  0  0  0  0  0
   25.3414  -21.0188   -8.0780 N   0  0  0  0  0  0  0  0  0  0  0  0
   24.0525  -21.1412   -8.4861 C   0  0  0  0  0  0  0  0  0  0  0  0
   22.9234  -21.5786   -7.8357 C   0  0  0  0  0  0  0  0  0  0  0  0
   21.7371  -21.5930   -8.5086 C   0  0  0  0  0  0  0  0  0  0  0  0
   21.6476  -21.1799   -9.8213 C   0  0  0  0  0  0  0  0  0  0  0  0
   22.7772  -20.7403  -10.4779 C   0  0  0  0  0  0  0  0  0  0  0  0
   23.9820  -20.7230   -9.8028 C   0  0  0  0  0  0  0  0  0  0  0  0
   25.6545  -20.2931  -13.8918 C   0  0  0  0  0  0  0  0  0  0  0  0
   26.7563  -20.0643  -14.4177 O   0  0  0  0  0  0  0  0  0  0  0  0
   24.4749  -19.9340  -14.5838 N   0  0  0  0  0  0  0  0  0  0  0  0
   24.3620  -19.2771  -15.8378 C   0  0  1  0  0  0  0  0  0  0  0  0
   23.6595  -20.0687  -16.9276 C   0  0  0  0  0  0  0  0  0  0  0  0
   24.3517  -21.3895  -17.0805 C   0  0  0  0  0  0  0  0  0  0  0  0
   23.6630  -22.2620  -18.0796 C   0  0  0  0  0  0  0  0  0  0  0  0
   22.6634  -22.9723  -17.8309 O   0  0  0  0  0  0  0  0  0  0  0  0
   24.0379  -17.8524  -15.8122 C   0  0  0  0  0  0  0  0  0  0  0  0
   23.0926  -17.4518  -15.1147 O   0  0  0  0  0  0  0  0  0  0  0  0
   24.1779  -22.2751  -19.3647 O   0  0  0  0  0  0  0  0  0  0  0  0
   24.8105  -16.9469  -16.5866 N   0  0  0  0  0  0  0  0  0  0  0  0
   24.5636  -15.5183  -16.6012 C   0  0  1  0  0  0  0  0  0  0  0  0
   25.4589  -14.7710  -15.6302 C   0  0  0  0  0  0  0  0  0  0  0  0
   27.1728  -15.2328  -16.0051 S   0  0  0  0  0  0  0  0  0  0  0  0
   24.6832  -14.9520  -17.9550 C   0  0  0  0  0  0  0  0  0  0  0  0
   25.0790  -15.7055  -18.8786 O   0  0  0  0  0  0  0  0  0  0  0  0
   24.3745  -13.6307  -18.2280 O   0  0  0  0  0  0  0  0  0  0  0  0
  2  1  1  1
  2  3  1  0
  2 13  1  0
  3  4  1  0
  4 12  1  0
  4  5  2  0
  5  6  1  0
  7  6  1  0
  7  8  2  0
  9  8  1  0
 10  9  2  0
 11 12  2  0
 11 10  1  0
 12  7  1  0
 13 14  2  0
 15 13  1  0
 15 16  1  0
 16 21  1  0
 16 17  1  6
 18 17  1  0
 19 20  2  0
 19 18  1  0
 21 22  2  0
 23 19  1  0
 24 25  1  0
 24 21  1  0
 25 28  1  0
 26 27  1  0
 25 26  1  1
 28 29  2  0
 28 30  1  0
M  END
$$$$
