WEC.pdb
     RDKit          3D

 30 31  0  0  1  0  0  0  0  0999 V2000
   21.0644  -22.4095  -13.6642 N   0  0  0  0  0  0  0  0  0  0  0  0
   20.3831  -21.8341  -12.5365 C   0  0  1  0  0  0  0  0  0  0  0  0
   19.3476  -20.8598  -13.0556 C   0  0  0  0  0  0  0  0  0  0  0  0
   20.0594  -19.6664  -13.6368 C   0  0  0  0  0  0  0  0  0  0  0  0
   21.0615  -19.7057  -14.5754 C   0  0  0  0  0  0  0  0  0  0  0  0
   21.4552  -18.4506  -14.8533 N   0  0  0  0  0  0  0  0  0  0  0  0
   20.7194  -17.5898  -14.1047 C   0  0  0  0  0  0  0  0  0  0  0  0
   20.7263  -16.2183  -14.0141 C   0  0  0  0  0  0  0  0  0  0  0  0
   19.8562  -15.6083  -13.1590 C   0  0  0  0  0  0  0  0  0  0  0  0
   18.9743  -16.3355  -12.3875 C   0  0  0  0  0  0  0  0  0  0  0  0
   18.9636  -17.7112  -12.4748 C   0  0  0  0  0  0  0  0  0  0  0  0
   19.8418  -18.3358  -13.3386 C   0  0  0  0  0  0  0  0  0  0  0  0
   19.6220  -22.9050  -11.8139 C   0  0  0  0  0  0  0  0  0  0  0  0
   19.1613  -23.8740  -12.4397 O   0  0  0  0  0  0  0  0  0  0  0  0
   19.4176  -22.8292  -10.4167 N   0  0  0  0  0  0  0  0  0  0  0  0
   18.4643  -23.5317   -9.6328 C   0  0  1  0  0  0  0  0  0  0  0  0
   18.8350  -23.7228   -8.1720 C   0  0  0  0  0  0  0  0  0  0  0  0
   17.8338  -24.6429   -7.5414 C   0  0  0  0  0  0  0  0  0  0  0  0
   18.2287  -25.0193   -6.1499 C   0  0  0  0  0  0  0  0  0  0  0  0
   17.5386  -25.7288   -5.3844 O   0  0  0  0  0  0  0  0  0  0  0  0
   17.0557  -23.2239   -9.8704 C   0  0  0  0  0  0  0  0  0  0  0  0
   16.6330  -22.0786   -9.6466 O   0  0  0  0  0  0  0  0  0  0  0  0
   19.4444  -24.5427   -5.6899 O   0  0  0  0  0  0  0  0  0  0  0  0
   16.1910  -24.2411  -10.3543 N   0  0  0  0  0  0  0  0  0  0  0  0
   14.7999  -23.9978  -10.6822 C   0  0  1  0  0  0  0  0  0  0  0  0
   14.3483  -24.7922  -11.8938 C   0  0  0  0  0  0  0  0  0  0  0  0
   15.2347  -24.1374  -13.3349 S   0  0  0  0  0  0  0  0  0  0  0  0
   13.9108  -24.2524   -9.5366 C   0  0  0  0  0  0  0  0  0  0  0  0
   14.0690  -25.3175   -8.8902 O   0  0  0  0  0  0  0  0  0  0  0  0
   12.9214  -23.3596   -9.1625 O   0  0  0  0  0  0  0  0  0  0  0  0
  2  1  1  6
  2  3  1  0
  2 13  1  0
  3  4  1  0
  4 12  1  0
  4  5  2  0
  5  6  1  0
  7  6  1  0
  7  8  2  0
  9  8  1  0
 10  9  2  0
 11 12  2  0
 11 10  1  0
 12  7  1  0
 13 14  2  0
 15 13  1  0
 15 16  1  0
 16 21  1  0
 16 17  1  1
 18 17  1  0
 19 20  2  0
 19 18  1  0
 21 22  2  0
 23 19  1  0
 24 25  1  0
 24 21  1  0
 25 28  1  0
 26 27  1  0
 25 26  1  6
 28 29  2  0
 28 30  1  0
M  END
$$$$
