WEC.pdb
     RDKit          3D

 30 31  0  0  1  0  0  0  0  0999 V2000
   28.1673  -20.7766  -10.7233 N   0  0  0  0  0  0  0  0  0  0  0  0
   26.8865  -21.1966  -10.2231 C   0  0  1  0  0  0  0  0  0  0  0  0
   26.6492  -20.5113   -8.8945 C   0  0  0  0  0  0  0  0  0  0  0  0
   27.8365  -20.7662   -8.0035 C   0  0  0  0  0  0  0  0  0  0  0  0
   28.9483  -21.5016   -8.3351 C   0  0  0  0  0  0  0  0  0  0  0  0
   29.7970  -21.5126   -7.2925 N   0  0  0  0  0  0  0  0  0  0  0  0
   29.2506  -20.7907   -6.2811 C   0  0  0  0  0  0  0  0  0  0  0  0
   29.7040  -20.4955   -5.0175 C   0  0  0  0  0  0  0  0  0  0  0  0
   28.9264  -19.7309   -4.1985 C   0  0  0  0  0  0  0  0  0  0  0  0
   27.7010  -19.2502   -4.6098 C   0  0  0  0  0  0  0  0  0  0  0  0
   27.2419  -19.5435   -5.8762 C   0  0  0  0  0  0  0  0  0  0  0  0
   28.0240  -20.3174   -6.7111 C   0  0  0  0  0  0  0  0  0  0  0  0
   25.8073  -20.7081  -11.1423 C   0  0  0  0  0  0  0  0  0  0  0  0
   25.5521  -19.4948  -11.2162 O   0  0  0  0  0  0  0  0  0  0  0  0
   25.0672  -21.6155  -11.9350 N   0  0  0  0  0  0  0  0  0  0  0  0
   23.9754  -21.3339  -12.7983 C   0  0  1  0  0  0  0  0  0  0  0  0
   24.1477  -21.7895  -14.2373 C   0  0  0  0  0  0  0  0  0  0  0  0
   23.0098  -21.2485  -15.0493 C   0  0  0  0  0  0  0  0  0  0  0  0
   23.0862  -21.6945  -16.4737 C   0  0  0  0  0  0  0  0  0  0  0  0
   22.1651  -21.5586  -17.3097 O   0  0  0  0  0  0  0  0  0  0  0  0
   22.6333  -21.5263  -12.2532 C   0  0  0  0  0  0  0  0  0  0  0  0
   22.3438  -22.6010  -11.7038 O   0  0  0  0  0  0  0  0  0  0  0  0
   24.2633  -22.2981  -16.8821 O   0  0  0  0  0  0  0  0  0  0  0  0
   21.6798  -20.4795  -12.3603 N   0  0  0  0  0  0  0  0  0  0  0  0
   20.3189  -20.6053  -11.8764 C   0  0  1  0  0  0  0  0  0  0  0  0
   20.0365  -19.6774  -10.7093 C   0  0  0  0  0  0  0  0  0  0  0  0
   20.4500  -17.9930  -11.2412 S   0  0  0  0  0  0  0  0  0  0  0  0
   19.3313  -20.4017  -12.9492 C   0  0  0  0  0  0  0  0  0  0  0  0
   18.1248  -20.6418  -12.6960 O   0  0  0  0  0  0  0  0  0  0  0  0
   19.6963  -19.9592  -14.2089 O   0  0  0  0  0  0  0  0  0  0  0  0
  2  1  1  6
  2  3  1  0
  2 13  1  0
  3  4  1  0
  4 12  1  0
  4  5  2  0
  5  6  1  0
  7  6  1  0
  7  8  2  0
  9  8  1  0
 10  9  2  0
 11 12  2  0
 11 10  1  0
 12  7  1  0
 13 14  2  0
 15 13  1  0
 15 16  1  0
 16 21  1  0
 16 17  1  6
 18 17  1  0
 19 20  2  0
 19 18  1  0
 21 22  2  0
 23 19  1  0
 24 25  1  0
 24 21  1  0
 25 28  1  0
 26 27  1  0
 25 26  1  1
 28 29  2  0
 28 30  1  0
M  END
$$$$
