WEC.pdb
     RDKit          3D

 30 31  0  0  1  0  0  0  0  0999 V2000
   28.1292  -22.7130  -10.0755 N   0  0  0  0  0  0  0  0  0  0  0  0
   27.3013  -21.5377  -10.0680 C   0  0  1  0  0  0  0  0  0  0  0  0
   28.1975  -20.3283   -9.9082 C   0  0  0  0  0  0  0  0  0  0  0  0
   28.8950  -20.4196   -8.5764 C   0  0  0  0  0  0  0  0  0  0  0  0
   30.1688  -20.8885   -8.3656 C   0  0  0  0  0  0  0  0  0  0  0  0
   30.4518  -20.8221   -7.0530 N   0  0  0  0  0  0  0  0  0  0  0  0
   29.3741  -20.3138   -6.4024 C   0  0  0  0  0  0  0  0  0  0  0  0
   29.1491  -20.0461   -5.0732 C   0  0  0  0  0  0  0  0  0  0  0  0
   27.9455  -19.5251   -4.6988 C   0  0  0  0  0  0  0  0  0  0  0  0
   26.9549  -19.2628   -5.6216 C   0  0  0  0  0  0  0  0  0  0  0  0
   27.1758  -19.5295   -6.9559 C   0  0  0  0  0  0  0  0  0  0  0  0
   28.3923  -20.0572   -7.3425 C   0  0  0  0  0  0  0  0  0  0  0  0
   26.6346  -21.3885  -11.4027 C   0  0  0  0  0  0  0  0  0  0  0  0
   27.2779  -21.5835  -12.4471 O   0  0  0  0  0  0  0  0  0  0  0  0
   25.2709  -21.0254  -11.4931 N   0  0  0  0  0  0  0  0  0  0  0  0
   24.3800  -21.2355  -12.5788 C   0  0  1  0  0  0  0  0  0  0  0  0
   24.3345  -22.6544  -13.1196 C   0  0  0  0  0  0  0  0  0  0  0  0
   23.4874  -22.6675  -14.3562 C   0  0  0  0  0  0  0  0  0  0  0  0
   24.1766  -23.3538  -15.4910 C   0  0  0  0  0  0  0  0  0  0  0  0
   23.6895  -23.4957  -16.6349 O   0  0  0  0  0  0  0  0  0  0  0  0
   23.0828  -20.5661  -12.5100 C   0  0  0  0  0  0  0  0  0  0  0  0
   22.3116  -20.8203  -11.5714 O   0  0  0  0  0  0  0  0  0  0  0  0
   25.4403  -23.8627  -15.2448 O   0  0  0  0  0  0  0  0  0  0  0  0
   22.7242  -19.6339  -13.5193 N   0  0  0  0  0  0  0  0  0  0  0  0
   21.4392  -18.9632  -13.5470 C   0  0  1  0  0  0  0  0  0  0  0  0
   21.2825  -18.0727  -14.7658 C   0  0  0  0  0  0  0  0  0  0  0  0
   19.6732  -17.2458  -14.6321 S   0  0  0  0  0  0  0  0  0  0  0  0
   20.3189  -19.9140  -13.4544 C   0  0  0  0  0  0  0  0  0  0  0  0
   20.3239  -20.9105  -14.2188 O   0  0  0  0  0  0  0  0  0  0  0  0
   19.2781  -19.7374  -12.5591 O   0  0  0  0  0  0  0  0  0  0  0  0
  2  1  1  6
  2  3  1  0
  2 13  1  0
  3  4  1  0
  4 12  1  0
  4  5  2  0
  5  6  1  0
  7  6  1  0
  7  8  2  0
  9  8  1  0
 10  9  2  0
 11 12  2  0
 11 10  1  0
 12  7  1  0
 13 14  2  0
 15 13  1  0
 15 16  1  0
 16 21  1  0
 16 17  1  1
 18 17  1  0
 19 20  2  0
 19 18  1  0
 21 22  2  0
 23 19  1  0
 24 25  1  0
 24 21  1  0
 25 28  1  0
 26 27  1  0
 25 26  1  6
 28 29  2  0
 28 30  1  0
M  END
$$$$
