WEC.pdb
     RDKit          3D

 30 31  0  0  1  0  0  0  0  0999 V2000
   27.8747  -21.8456  -10.7124 N   0  0  0  0  0  0  0  0  0  0  0  0
   26.6773  -21.3035  -10.1299 C   0  0  1  0  0  0  0  0  0  0  0  0
   27.0541  -20.0746   -9.3305 C   0  0  0  0  0  0  0  0  0  0  0  0
   28.1969  -20.4286   -8.4153 C   0  0  0  0  0  0  0  0  0  0  0  0
   29.3234  -21.1304   -8.7690 C   0  0  0  0  0  0  0  0  0  0  0  0
   30.1206  -21.2562   -7.6937 N   0  0  0  0  0  0  0  0  0  0  0  0
   29.5257  -20.6428   -6.6390 C   0  0  0  0  0  0  0  0  0  0  0  0
   29.9172  -20.4856   -5.3308 C   0  0  0  0  0  0  0  0  0  0  0  0
   29.1007  -19.8081   -4.4738 C   0  0  0  0  0  0  0  0  0  0  0  0
   27.8967  -19.2803   -4.8904 C   0  0  0  0  0  0  0  0  0  0  0  0
   27.4996  -19.4354   -6.2014 C   0  0  0  0  0  0  0  0  0  0  0  0
   28.3213  -20.1203   -7.0751 C   0  0  0  0  0  0  0  0  0  0  0  0
   25.7638  -20.8274  -11.2195 C   0  0  0  0  0  0  0  0  0  0  0  0
   26.1546  -19.9747  -12.0337 O   0  0  0  0  0  0  0  0  0  0  0  0
   24.4506  -21.3386  -11.3368 N   0  0  0  0  0  0  0  0  0  0  0  0
   23.5165  -21.1184  -12.3835 C   0  0  1  0  0  0  0  0  0  0  0  0
   23.6437  -22.0492  -13.5774 C   0  0  0  0  0  0  0  0  0  0  0  0
   22.7431  -21.5531  -14.6681 C   0  0  0  0  0  0  0  0  0  0  0  0
   23.4256  -21.5678  -15.9978 C   0  0  0  0  0  0  0  0  0  0  0  0
   23.8477  -22.5992  -16.5667 O   0  0  0  0  0  0  0  0  0  0  0  0
   22.1425  -20.8120  -11.9914 C   0  0  0  0  0  0  0  0  0  0  0  0
   21.5753  -21.5198  -11.1441 O   0  0  0  0  0  0  0  0  0  0  0  0
   23.5955  -20.3487  -16.6317 O   0  0  0  0  0  0  0  0  0  0  0  0
   21.4766  -19.7080  -12.5864 N   0  0  0  0  0  0  0  0  0  0  0  0
   20.1039  -19.3597  -12.2761 C   0  0  1  0  0  0  0  0  0  0  0  0
   19.7647  -17.9393  -12.6887 C   0  0  0  0  0  0  0  0  0  0  0  0
   20.6711  -16.8210  -11.5846 S   0  0  0  0  0  0  0  0  0  0  0  0
   19.1471  -20.3113  -12.8649 C   0  0  0  0  0  0  0  0  0  0  0  0
   19.5374  -21.0287  -13.8191 O   0  0  0  0  0  0  0  0  0  0  0  0
   17.8493  -20.4310  -12.3987 O   0  0  0  0  0  0  0  0  0  0  0  0
  2  1  1  6
  2  3  1  0
  2 13  1  0
  3  4  1  0
  4 12  1  0
  4  5  2  0
  5  6  1  0
  7  6  1  0
  7  8  2  0
  9  8  1  0
 10  9  2  0
 11 12  2  0
 11 10  1  0
 12  7  1  0
 13 14  2  0
 15 13  1  0
 15 16  1  0
 16 21  1  0
 16 17  1  6
 18 17  1  0
 19 20  2  0
 19 18  1  0
 21 22  2  0
 23 19  1  0
 24 25  1  0
 24 21  1  0
 25 28  1  0
 26 27  1  0
 25 26  1  6
 28 29  2  0
 28 30  1  0
M  END
$$$$
