WEC.pdb
     RDKit          3D

 30 31  0  0  1  0  0  0  0  0999 V2000
   27.6516  -19.3503   -9.8206 N   0  0  0  0  0  0  0  0  0  0  0  0
   27.0004  -20.6274   -9.7121 C   0  0  1  0  0  0  0  0  0  0  0  0
   26.3494  -20.7126   -8.3483 C   0  0  0  0  0  0  0  0  0  0  0  0
   27.0978  -19.8114   -7.4014 C   0  0  0  0  0  0  0  0  0  0  0  0
   27.3577  -18.4769   -7.5970 C   0  0  0  0  0  0  0  0  0  0  0  0
   28.0473  -18.0030   -6.5447 N   0  0  0  0  0  0  0  0  0  0  0  0
   28.2411  -19.0157   -5.6618 C   0  0  0  0  0  0  0  0  0  0  0  0
   28.8767  -19.0600   -4.4439 C   0  0  0  0  0  0  0  0  0  0  0  0
   28.9168  -20.2406   -3.7622 C   0  0  0  0  0  0  0  0  0  0  0  0
   28.3358  -21.3848   -4.2670 C   0  0  0  0  0  0  0  0  0  0  0  0
   27.6972  -21.3455   -5.4880 C   0  0  0  0  0  0  0  0  0  0  0  0
   27.6526  -20.1534   -6.1841 C   0  0  0  0  0  0  0  0  0  0  0  0
   25.8853  -20.7053  -10.7114 C   0  0  0  0  0  0  0  0  0  0  0  0
   24.9262  -19.9194  -10.6391 O   0  0  0  0  0  0  0  0  0  0  0  0
   25.9075  -21.6691  -11.7459 N   0  0  0  0  0  0  0  0  0  0  0  0
   25.1067  -21.7129  -12.9179 C   0  0  1  0  0  0  0  0  0  0  0  0
   25.8119  -22.2018  -14.1715 C   0  0  0  0  0  0  0  0  0  0  0  0
   24.9173  -21.9571  -15.3492 C   0  0  0  0  0  0  0  0  0  0  0  0
   25.5269  -22.4562  -16.6193 C   0  0  0  0  0  0  0  0  0  0  0  0
   25.1878  -23.5102  -17.2022 O   0  0  0  0  0  0  0  0  0  0  0  0
   23.7337  -22.1889  -12.7643 C   0  0  0  0  0  0  0  0  0  0  0  0
   23.5048  -23.1779  -12.0501 O   0  0  0  0  0  0  0  0  0  0  0  0
   26.5350  -21.6890  -17.1777 O   0  0  0  0  0  0  0  0  0  0  0  0
   22.6811  -21.5119  -13.4353 N   0  0  0  0  0  0  0  0  0  0  0  0
   21.3069  -21.5464  -12.9746 C   0  0  1  0  0  0  0  0  0  0  0  0
   21.1643  -21.0304  -11.5546 C   0  0  0  0  0  0  0  0  0  0  0  0
   19.4146  -21.1734  -11.0971 S   0  0  0  0  0  0  0  0  0  0  0  0
   20.4030  -20.8198  -13.8817 C   0  0  0  0  0  0  0  0  0  0  0  0
   20.8587  -19.8262  -14.5001 O   0  0  0  0  0  0  0  0  0  0  0  0
   19.0850  -21.2006  -14.0651 O   0  0  0  0  0  0  0  0  0  0  0  0
  2  1  1  1
  2  3  1  0
  2 13  1  0
  3  4  1  0
  4 12  1  0
  4  5  2  0
  5  6  1  0
  7  6  1  0
  7  8  2  0
  9  8  1  0
 10  9  2  0
 11 12  2  0
 11 10  1  0
 12  7  1  0
 13 14  2  0
 15 13  1  0
 15 16  1  0
 16 21  1  0
 16 17  1  6
 18 17  1  0
 19 20  2  0
 19 18  1  0
 21 22  2  0
 23 19  1  0
 24 25  1  0
 24 21  1  0
 25 28  1  0
 26 27  1  0
 25 26  1  1
 28 29  2  0
 28 30  1  0
M  END
$$$$
