WEC.pdb
     RDKit          3D

 30 31  0  0  1  0  0  0  0  0999 V2000
   24.8075  -18.8351  -16.3168 N   0  0  0  0  0  0  0  0  0  0  0  0
   24.4978  -19.9528  -15.4672 C   0  0  1  0  0  0  0  0  0  0  0  0
   25.4113  -19.8984  -14.2615 C   0  0  0  0  0  0  0  0  0  0  0  0
   26.8394  -19.8967  -14.7404 C   0  0  0  0  0  0  0  0  0  0  0  0
   27.7544  -18.8921  -14.5391 C   0  0  0  0  0  0  0  0  0  0  0  0
   28.9221  -19.2385  -15.1083 N   0  0  0  0  0  0  0  0  0  0  0  0
   28.7795  -20.4612  -15.6806 C   0  0  0  0  0  0  0  0  0  0  0  0
   29.6591  -21.2540  -16.3785 C   0  0  0  0  0  0  0  0  0  0  0  0
   29.2317  -22.4617  -16.8463 C   0  0  0  0  0  0  0  0  0  0  0  0
   27.9419  -22.9015  -16.6347 C   0  0  0  0  0  0  0  0  0  0  0  0
   27.0560  -22.1100  -15.9354 C   0  0  0  0  0  0  0  0  0  0  0  0
   27.4818  -20.8857  -15.4586 C   0  0  0  0  0  0  0  0  0  0  0  0
   23.1021  -19.8063  -14.9391 C   0  0  0  0  0  0  0  0  0  0  0  0
   22.7787  -18.7895  -14.3033 O   0  0  0  0  0  0  0  0  0  0  0  0
   22.1376  -20.8175  -15.1551 N   0  0  0  0  0  0  0  0  0  0  0  0
   20.8007  -20.8673  -14.6785 C   0  0  1  0  0  0  0  0  0  0  0  0
   19.7359  -21.0667  -15.7435 C   0  0  0  0  0  0  0  0  0  0  0  0
   19.8905  -19.9950  -16.7802 C   0  0  0  0  0  0  0  0  0  0  0  0
   19.3414  -18.6871  -16.3092 C   0  0  0  0  0  0  0  0  0  0  0  0
   18.4746  -18.5626  -15.4155 O   0  0  0  0  0  0  0  0  0  0  0  0
   20.5673  -21.6009  -13.4364 C   0  0  0  0  0  0  0  0  0  0  0  0
   20.5329  -22.8415  -13.4552 O   0  0  0  0  0  0  0  0  0  0  0  0
   19.8353  -17.5432  -16.9127 O   0  0  0  0  0  0  0  0  0  0  0  0
   20.3834  -20.8824  -12.2255 N   0  0  0  0  0  0  0  0  0  0  0  0
   20.1788  -21.5370  -10.9482 C   0  0  1  0  0  0  0  0  0  0  0  0
   20.4752  -20.6175   -9.7779 C   0  0  0  0  0  0  0  0  0  0  0  0
   21.4004  -19.1967  -10.4232 S   0  0  0  0  0  0  0  0  0  0  0  0
   18.8252  -22.1040  -10.8299 C   0  0  0  0  0  0  0  0  0  0  0  0
   17.8970  -21.5595  -11.4773 O   0  0  0  0  0  0  0  0  0  0  0  0
   18.5572  -23.2049  -10.0347 O   0  0  0  0  0  0  0  0  0  0  0  0
  2  1  1  6
  2  3  1  0
  2 13  1  0
  3  4  1  0
  4 12  1  0
  4  5  2  0
  5  6  1  0
  7  6  1  0
  7  8  2  0
  9  8  1  0
 10  9  2  0
 11 12  2  0
 11 10  1  0
 12  7  1  0
 13 14  2  0
 15 13  1  0
 15 16  1  0
 16 21  1  0
 16 17  1  6
 18 17  1  0
 19 20  2  0
 19 18  1  0
 21 22  2  0
 23 19  1  0
 24 25  1  0
 24 21  1  0
 25 28  1  0
 26 27  1  0
 25 26  1  1
 28 29  2  0
 28 30  1  0
M  END
$$$$
