WEC.pdb
     RDKit          3D

 30 31  0  0  1  0  0  0  0  0999 V2000
   18.0793  -14.8668  -16.3948 N   0  0  0  0  0  0  0  0  0  0  0  0
   18.9005  -13.8677  -15.7667 C   0  0  1  0  0  0  0  0  0  0  0  0
   20.3509  -14.2456  -15.9782 C   0  0  0  0  0  0  0  0  0  0  0  0
   20.5973  -15.5850  -15.3349 C   0  0  0  0  0  0  0  0  0  0  0  0
   20.2729  -15.9302  -14.0456 C   0  0  0  0  0  0  0  0  0  0  0  0
   20.6431  -17.2035  -13.8234 N   0  0  0  0  0  0  0  0  0  0  0  0
   21.2070  -17.6949  -14.9562 C   0  0  0  0  0  0  0  0  0  0  0  0
   21.7412  -18.9259  -15.2539 C   0  0  0  0  0  0  0  0  0  0  0  0
   22.2475  -19.1420  -16.5017 C   0  0  0  0  0  0  0  0  0  0  0  0
   22.2346  -18.1562  -17.4659 C   0  0  0  0  0  0  0  0  0  0  0  0
   21.7000  -16.9200  -17.1722 C   0  0  0  0  0  0  0  0  0  0  0  0
   21.1854  -16.6938  -15.9106 C   0  0  0  0  0  0  0  0  0  0  0  0
   18.7069  -12.5534  -16.4620 C   0  0  0  0  0  0  0  0  0  0  0  0
   18.9308  -12.4523  -17.6795 O   0  0  0  0  0  0  0  0  0  0  0  0
   18.2690  -11.4148  -15.7469 N   0  0  0  0  0  0  0  0  0  0  0  0
   18.0163  -10.1106  -16.2487 C   0  0  1  0  0  0  0  0  0  0  0  0
   16.9790   -9.3071  -15.4831 C   0  0  0  0  0  0  0  0  0  0  0  0
   15.6718  -10.0386  -15.5385 C   0  0  0  0  0  0  0  0  0  0  0  0
   14.5793   -9.2696  -14.8683 C   0  0  0  0  0  0  0  0  0  0  0  0
   13.5334   -8.8827  -15.4358 O   0  0  0  0  0  0  0  0  0  0  0  0
   19.1721   -9.3405  -16.7031 C   0  0  0  0  0  0  0  0  0  0  0  0
   20.2588   -9.4632  -16.1162 O   0  0  0  0  0  0  0  0  0  0  0  0
   14.7504   -8.9721  -13.5270 O   0  0  0  0  0  0  0  0  0  0  0  0
   19.0340   -8.4624  -17.8106 N   0  0  0  0  0  0  0  0  0  0  0  0
   20.1553   -7.7510  -18.3923 C   0  0  1  0  0  0  0  0  0  0  0  0
   21.2863   -8.6839  -18.7841 C   0  0  0  0  0  0  0  0  0  0  0  0
   22.3130   -7.8132  -20.0002 S   0  0  0  0  0  0  0  0  0  0  0  0
   19.7476   -6.9229  -19.5393 C   0  0  0  0  0  0  0  0  0  0  0  0
   18.6092   -7.1158  -20.0333 O   0  0  0  0  0  0  0  0  0  0  0  0
   20.5766   -5.9531  -20.0763 O   0  0  0  0  0  0  0  0  0  0  0  0
  2  1  1  6
  2  3  1  0
  2 13  1  0
  3  4  1  0
  4 12  1  0
  4  5  2  0
  5  6  1  0
  7  6  1  0
  7  8  2  0
  9  8  1  0
 10  9  2  0
 11 12  2  0
 11 10  1  0
 12  7  1  0
 13 14  2  0
 15 13  1  0
 15 16  1  0
 16 21  1  0
 16 17  1  1
 18 17  1  0
 19 20  2  0
 19 18  1  0
 21 22  2  0
 23 19  1  0
 24 25  1  0
 24 21  1  0
 25 28  1  0
 26 27  1  0
 25 26  1  6
 28 29  2  0
 28 30  1  0
M  END
$$$$
