WEC.pdb
     RDKit          3D

 30 31  0  0  1  0  0  0  0  0999 V2000
   25.9500  -18.7592   -8.8867 N   0  0  0  0  0  0  0  0  0  0  0  0
   26.8073  -19.8208   -9.3394 C   0  0  1  0  0  0  0  0  0  0  0  0
   27.0980  -20.7286   -8.1634 C   0  0  0  0  0  0  0  0  0  0  0  0
   27.4743  -19.8762   -6.9800 C   0  0  0  0  0  0  0  0  0  0  0  0
   27.0394  -18.5956   -6.7400 C   0  0  0  0  0  0  0  0  0  0  0  0
   27.5829  -18.1529   -5.5927 N   0  0  0  0  0  0  0  0  0  0  0  0
   28.3699  -19.1327   -5.0795 C   0  0  0  0  0  0  0  0  0  0  0  0
   29.1374  -19.1886   -3.9406 C   0  0  0  0  0  0  0  0  0  0  0  0
   29.8379  -20.3275   -3.6713 C   0  0  0  0  0  0  0  0  0  0  0  0
   29.7923  -21.4183   -4.5138 C   0  0  0  0  0  0  0  0  0  0  0  0
   29.0241  -21.3670   -5.6573 C   0  0  0  0  0  0  0  0  0  0  0  0
   28.3119  -20.2170   -5.9365 C   0  0  0  0  0  0  0  0  0  0  0  0
   26.0746  -20.6606  -10.3424 C   0  0  0  0  0  0  0  0  0  0  0  0
   24.8718  -20.9231  -10.1772 O   0  0  0  0  0  0  0  0  0  0  0  0
   26.7372  -21.1641  -11.4857 N   0  0  0  0  0  0  0  0  0  0  0  0
   26.2559  -21.2232  -12.8204 C   0  0  1  0  0  0  0  0  0  0  0  0
   27.2972  -21.5580  -13.8747 C   0  0  0  0  0  0  0  0  0  0  0  0
   26.6758  -21.3941  -15.2289 C   0  0  0  0  0  0  0  0  0  0  0  0
   27.6520  -21.6823  -16.3235 C   0  0  0  0  0  0  0  0  0  0  0  0
   28.5165  -22.5860  -16.2827 O   0  0  0  0  0  0  0  0  0  0  0  0
   24.9530  -21.8518  -13.0274 C   0  0  0  0  0  0  0  0  0  0  0  0
   24.8492  -23.0861  -12.9482 O   0  0  0  0  0  0  0  0  0  0  0  0
   27.5831  -20.8862  -17.4541 O   0  0  0  0  0  0  0  0  0  0  0  0
   23.8244  -21.0399  -13.3162 N   0  0  0  0  0  0  0  0  0  0  0  0
   22.4962  -21.5854  -13.5169 C   0  0  1  0  0  0  0  0  0  0  0  0
   21.4115  -20.6638  -12.9905 C   0  0  0  0  0  0  0  0  0  0  0  0
   21.7962  -20.3074  -11.2537 S   0  0  0  0  0  0  0  0  0  0  0  0
   22.2468  -21.9240  -14.9278 C   0  0  0  0  0  0  0  0  0  0  0  0
   23.0747  -21.5300  -15.7861 O   0  0  0  0  0  0  0  0  0  0  0  0
   21.1393  -22.6542  -15.3229 O   0  0  0  0  0  0  0  0  0  0  0  0
  2  1  1  1
  2  3  1  0
  2 13  1  0
  3  4  1  0
  4 12  1  0
  4  5  2  0
  5  6  1  0
  7  6  1  0
  7  8  2  0
  9  8  1  0
 10  9  2  0
 11 12  2  0
 11 10  1  0
 12  7  1  0
 13 14  2  0
 15 13  1  0
 15 16  1  0
 16 21  1  0
 16 17  1  6
 18 17  1  0
 19 20  2  0
 19 18  1  0
 21 22  2  0
 23 19  1  0
 24 25  1  0
 24 21  1  0
 25 28  1  0
 26 27  1  0
 25 26  1  6
 28 29  2  0
 28 30  1  0
M  END
$$$$
