WNV.pdb
     RDKit          3D

 30 31  0  0  1  0  0  0  0  0999 V2000
    6.9539  -18.0965   22.6374 N   0  0  0  0  0  0  0  0  0  0  0  0
    7.9642  -17.1087   22.7994 C   0  0  1  0  0  0  0  0  0  0  0  0
    7.4622  -15.7184   23.0578 C   0  0  0  0  0  0  0  0  0  0  0  0
    6.9995  -14.9981   21.8617 C   0  0  0  0  0  0  0  0  0  0  0  0
    5.6908  -14.9241   21.3751 C   0  0  0  0  0  0  0  0  0  0  0  0
    5.6625  -14.1713   20.2801 N   0  0  0  0  0  0  0  0  0  0  0  0
    6.8988  -13.7293   20.0001 C   0  0  0  0  0  0  0  0  0  0  0  0
    7.3403  -12.9308   18.9698 C   0  0  0  0  0  0  0  0  0  0  0  0
    8.6765  -12.6135   18.8929 C   0  0  0  0  0  0  0  0  0  0  0  0
    9.5331  -13.0956   19.8358 C   0  0  0  0  0  0  0  0  0  0  0  0
    9.0699  -13.9057   20.8765 C   0  0  0  0  0  0  0  0  0  0  0  0
    7.7367  -14.2384   20.9781 C   0  0  0  0  0  0  0  0  0  0  0  0
    8.9674  -17.5209   23.8356 C   0  0  0  0  0  0  0  0  0  0  0  0
    8.6200  -18.1628   24.8410 O   0  0  0  0  0  0  0  0  0  0  0  0
   13.0354  -18.6264   21.6759 N   0  0  0  0  0  0  0  0  0  0  0  0
   12.6621  -18.7915   23.0539 C   0  0  0  0  0  0  0  0  0  0  0  0
   12.2852  -19.9502   23.3602 O   0  0  0  0  0  0  0  0  0  0  0  0
   12.7388  -17.6517   23.9824 C   0  0  0  0  0  0  0  0  0  0  0  0
   11.3766  -17.4688   24.6392 C   0  0  2  0  0  0  0  0  0  0  0  0
   10.3354  -17.1800   23.6767 N   0  0  0  0  0  0  0  0  0  0  0  0
   11.4128  -16.4645   25.7200 C   0  0  0  0  0  0  0  0  0  0  0  0
   12.3245  -15.6025   25.7926 O   0  0  0  0  0  0  0  0  0  0  0  0
    8.1724  -15.0688   27.8849 C   0  0  0  0  0  0  0  0  0  0  0  0
    9.5569  -14.4556   27.8774 C   0  0  2  0  0  0  0  0  0  0  0  0
    9.7056  -13.5741   26.6748 C   0  0  0  0  0  0  0  0  0  0  0  0
   10.5668  -15.5806   27.9292 C   0  0  2  0  0  0  0  0  0  0  0  0
   10.4135  -16.4057   26.7545 N   0  0  0  0  0  0  0  0  0  0  0  0
   10.4699  -16.3675   29.1823 C   0  0  0  0  0  0  0  0  0  0  0  0
   10.0304  -17.5469   29.2257 O   0  0  0  0  0  0  0  0  0  0  0  0
   10.8706  -15.8226   30.3969 O   0  0  0  0  0  0  0  0  0  0  0  0
  2  1  1  1
  2 13  1  0
  2  3  1  0
  3  4  1  0
  4  5  2  0
  6  5  1  0
  7  6  1  0
  8  7  2  0
  9  8  1  0
 10 11  1  0
 10  9  2  0
 11 12  2  0
 12  7  1  0
 12  4  1  0
 13 14  2  0
 16 15  1  0
 17 16  2  0
 18 16  1  0
 19 18  1  6
 19 21  1  0
 20 19  1  0
 20 13  1  0
 21 22  2  0
 24 23  1  6
 24 26  1  0
 25 24  1  0
 26 28  1  0
 27 21  1  0
 26 27  1  6
 28 29  2  0
 28 30  1  0
M  END
$$$$
