WNV.pdb
     RDKit          3D

 30 31  0  0  1  0  0  0  0  0999 V2000
    6.6732  -17.7881   23.9704 N   0  0  0  0  0  0  0  0  0  0  0  0
    7.6809  -17.0470   23.2936 C   0  0  1  0  0  0  0  0  0  0  0  0
    7.4182  -15.5745   23.1735 C   0  0  0  0  0  0  0  0  0  0  0  0
    6.8380  -14.9521   24.3733 C   0  0  0  0  0  0  0  0  0  0  0  0
    6.1018  -15.5848   25.3797 C   0  0  0  0  0  0  0  0  0  0  0  0
    5.7569  -14.6972   26.3069 N   0  0  0  0  0  0  0  0  0  0  0  0
    6.2275  -13.4850   25.9734 C   0  0  0  0  0  0  0  0  0  0  0  0
    6.1109  -12.2802   26.6284 C   0  0  0  0  0  0  0  0  0  0  0  0
    6.6855  -11.1589   26.0765 C   0  0  0  0  0  0  0  0  0  0  0  0
    7.3561  -11.2641   24.8956 C   0  0  0  0  0  0  0  0  0  0  0  0
    7.4660  -12.4948   24.2419 C   0  0  0  0  0  0  0  0  0  0  0  0
    6.9009  -13.6338   24.7726 C   0  0  0  0  0  0  0  0  0  0  0  0
    9.0357  -17.3066   23.8825 C   0  0  0  0  0  0  0  0  0  0  0  0
    9.1701  -18.0390   24.8770 O   0  0  0  0  0  0  0  0  0  0  0  0
   11.9574  -18.1387   20.9231 N   0  0  0  0  0  0  0  0  0  0  0  0
   12.0463  -16.7827   21.3906 C   0  0  0  0  0  0  0  0  0  0  0  0
   11.6413  -15.9183   20.5736 O   0  0  0  0  0  0  0  0  0  0  0  0
   12.5794  -16.4967   22.7327 C   0  0  0  0  0  0  0  0  0  0  0  0
   11.5438  -16.9210   23.7663 C   0  0  2  0  0  0  0  0  0  0  0  0
   10.1882  -16.7143   23.3046 N   0  0  0  0  0  0  0  0  0  0  0  0
   11.7758  -16.2838   25.0771 C   0  0  0  0  0  0  0  0  0  0  0  0
   12.8237  -15.6344   25.3215 O   0  0  0  0  0  0  0  0  0  0  0  0
    8.8033  -15.3225   27.9713 C   0  0  0  0  0  0  0  0  0  0  0  0
   10.2069  -14.7675   27.8491 C   0  0  2  0  0  0  0  0  0  0  0  0
   10.2171  -13.6530   26.8474 C   0  0  0  0  0  0  0  0  0  0  0  0
   11.1315  -15.9096   27.4901 C   0  0  2  0  0  0  0  0  0  0  0  0
   10.8241  -16.3626   26.1543 N   0  0  0  0  0  0  0  0  0  0  0  0
   11.0771  -17.0113   28.4811 C   0  0  0  0  0  0  0  0  0  0  0  0
   11.4421  -16.8817   29.6795 O   0  0  0  0  0  0  0  0  0  0  0  0
   10.6083  -18.2695   28.1206 O   0  0  0  0  0  0  0  0  0  0  0  0
  2  1  1  1
  2 13  1  0
  2  3  1  0
  3  4  1  0
  4  5  2  0
  6  5  1  0
  7  6  1  0
  8  7  2  0
  9  8  1  0
 10 11  1  0
 10  9  2  0
 11 12  2  0
 12  7  1  0
 12  4  1  0
 13 14  2  0
 16 15  1  0
 17 16  2  0
 18 16  1  0
 19 18  1  6
 19 21  1  0
 20 19  1  0
 20 13  1  0
 21 22  2  0
 24 23  1  6
 24 26  1  0
 25 24  1  0
 26 28  1  0
 27 21  1  0
 26 27  1  6
 28 29  2  0
 28 30  1  0
M  END
$$$$
