WNV.pdb
     RDKit          3D

 30 31  0  0  1  0  0  0  0  0999 V2000
    6.0965  -17.8458   24.7976 N   0  0  0  0  0  0  0  0  0  0  0  0
    7.2142  -16.9894   24.5975 C   0  0  1  0  0  0  0  0  0  0  0  0
    7.3660  -15.8911   25.6087 C   0  0  0  0  0  0  0  0  0  0  0  0
    6.8129  -14.5923   25.1955 C   0  0  0  0  0  0  0  0  0  0  0  0
    5.6974  -13.9414   25.7313 C   0  0  0  0  0  0  0  0  0  0  0  0
    5.5136  -12.7822   25.1078 N   0  0  0  0  0  0  0  0  0  0  0  0
    6.4582  -12.6163   24.1683 C   0  0  0  0  0  0  0  0  0  0  0  0
    6.6565  -11.5777   23.2874 C   0  0  0  0  0  0  0  0  0  0  0  0
    7.7085  -11.6402   22.4034 C   0  0  0  0  0  0  0  0  0  0  0  0
    8.5300  -12.7265   22.4182 C   0  0  0  0  0  0  0  0  0  0  0  0
    8.3159  -13.7738   23.3189 C   0  0  0  0  0  0  0  0  0  0  0  0
    7.2704  -13.7368   24.2156 C   0  0  0  0  0  0  0  0  0  0  0  0
    8.4845  -17.7751   24.4603 C   0  0  0  0  0  0  0  0  0  0  0  0
    8.6811  -18.7952   25.1415 O   0  0  0  0  0  0  0  0  0  0  0  0
   13.7066  -18.6456   22.4438 N   0  0  0  0  0  0  0  0  0  0  0  0
   13.1380  -17.3713   22.7875 C   0  0  0  0  0  0  0  0  0  0  0  0
   13.9438  -16.5608   23.3093 O   0  0  0  0  0  0  0  0  0  0  0  0
   11.7156  -17.1005   22.5219 C   0  0  0  0  0  0  0  0  0  0  0  0
   10.9079  -17.5027   23.7493 C   0  0  2  0  0  0  0  0  0  0  0  0
    9.4831  -17.3587   23.5425 N   0  0  0  0  0  0  0  0  0  0  0  0
   11.3562  -16.7947   24.9642 C   0  0  0  0  0  0  0  0  0  0  0  0
   12.4793  -16.2342   25.0274 O   0  0  0  0  0  0  0  0  0  0  0  0
   10.1841  -13.8927   26.2914 C   0  0  0  0  0  0  0  0  0  0  0  0
   10.0625  -14.7764   27.5151 C   0  0  2  0  0  0  0  0  0  0  0  0
   10.3835  -13.9772   28.7414 C   0  0  0  0  0  0  0  0  0  0  0  0
   10.9684  -15.9720   27.3200 C   0  0  2  0  0  0  0  0  0  0  0  0
   10.5427  -16.6994   26.1479 N   0  0  0  0  0  0  0  0  0  0  0  0
   11.0282  -16.8359   28.5238 C   0  0  0  0  0  0  0  0  0  0  0  0
   10.2142  -17.7713   28.7444 O   0  0  0  0  0  0  0  0  0  0  0  0
   12.0119  -16.6455   29.4875 O   0  0  0  0  0  0  0  0  0  0  0  0
  2  1  1  1
  2 13  1  0
  2  3  1  0
  3  4  1  0
  4  5  2  0
  6  5  1  0
  7  6  1  0
  8  7  2  0
  9  8  1  0
 10 11  1  0
 10  9  2  0
 11 12  2  0
 12  7  1  0
 12  4  1  0
 13 14  2  0
 16 15  1  0
 17 16  2  0
 18 16  1  0
 19 18  1  6
 19 21  1  0
 20 19  1  0
 20 13  1  0
 21 22  2  0
 24 23  1  6
 24 26  1  0
 25 24  1  0
 26 28  1  0
 27 21  1  0
 26 27  1  6
 28 29  2  0
 28 30  1  0
M  END
$$$$
