WNV.pdb
     RDKit          3D

 30 31  0  0  1  0  0  0  0  0999 V2000
    6.4099  -17.1376   24.2587 N   0  0  0  0  0  0  0  0  0  0  0  0
    7.6092  -16.3737   24.2276 C   0  0  1  0  0  0  0  0  0  0  0  0
    7.8715  -15.5472   25.4523 C   0  0  0  0  0  0  0  0  0  0  0  0
    6.8380  -14.5445   25.7520 C   0  0  0  0  0  0  0  0  0  0  0  0
    5.5679  -14.7764   26.2888 C   0  0  0  0  0  0  0  0  0  0  0  0
    4.9238  -13.6223   26.4289 N   0  0  0  0  0  0  0  0  0  0  0  0
    5.7029  -12.6129   26.0091 C   0  0  0  0  0  0  0  0  0  0  0  0
    5.4515  -11.2605   25.9667 C   0  0  0  0  0  0  0  0  0  0  0  0
    6.4213  -10.4133   25.4832 C   0  0  0  0  0  0  0  0  0  0  0  0
    7.6075  -10.9296   25.0570 C   0  0  0  0  0  0  0  0  0  0  0  0
    7.8483  -12.3056   25.1061 C   0  0  0  0  0  0  0  0  0  0  0  0
    6.8949  -13.1767   25.5865 C   0  0  0  0  0  0  0  0  0  0  0  0
    8.7928  -17.2319   23.8928 C   0  0  0  0  0  0  0  0  0  0  0  0
    8.8216  -18.4325   24.2110 O   0  0  0  0  0  0  0  0  0  0  0  0
   11.5395  -15.8569   20.0652 N   0  0  0  0  0  0  0  0  0  0  0  0
   11.7579  -16.8365   21.0937 C   0  0  0  0  0  0  0  0  0  0  0  0
   11.5161  -18.0207   20.7504 O   0  0  0  0  0  0  0  0  0  0  0  0
   12.2294  -16.4190   22.4243 C   0  0  0  0  0  0  0  0  0  0  0  0
   11.2870  -16.9926   23.4748 C   0  0  2  0  0  0  0  0  0  0  0  0
    9.9013  -16.6774   23.2023 N   0  0  0  0  0  0  0  0  0  0  0  0
   11.6762  -16.5989   24.8428 C   0  0  0  0  0  0  0  0  0  0  0  0
   12.6419  -15.8242   25.0593 O   0  0  0  0  0  0  0  0  0  0  0  0
   10.2552  -14.4159   26.7744 C   0  0  0  0  0  0  0  0  0  0  0  0
   10.1953  -15.5854   27.7346 C   0  0  2  0  0  0  0  0  0  0  0  0
   10.3373  -15.0849   29.1398 C   0  0  0  0  0  0  0  0  0  0  0  0
   11.2685  -16.5737   27.3349 C   0  0  2  0  0  0  0  0  0  0  0  0
   10.9806  -17.0720   26.0109 N   0  0  0  0  0  0  0  0  0  0  0  0
   11.4229  -17.6681   28.3234 C   0  0  0  0  0  0  0  0  0  0  0  0
   10.8039  -18.7621   28.2459 O   0  0  0  0  0  0  0  0  0  0  0  0
   12.2810  -17.5303   29.4085 O   0  0  0  0  0  0  0  0  0  0  0  0
  2  1  1  1
  2 13  1  0
  2  3  1  0
  3  4  1  0
  4  5  2  0
  6  5  1  0
  7  6  1  0
  8  7  2  0
  9  8  1  0
 10 11  1  0
 10  9  2  0
 11 12  2  0
 12  7  1  0
 12  4  1  0
 13 14  2  0
 16 15  1  0
 17 16  2  0
 18 16  1  0
 19 18  1  6
 19 21  1  0
 20 19  1  0
 20 13  1  0
 21 22  2  0
 24 23  1  6
 24 26  1  0
 25 24  1  0
 26 28  1  0
 27 21  1  0
 26 27  1  6
 28 29  2  0
 28 30  1  0
M  END
$$$$
