WNV.pdb
     RDKit          3D

 30 31  0  0  1  0  0  0  0  0999 V2000
    8.9742  -16.1138   21.8212 N   0  0  0  0  0  0  0  0  0  0  0  0
    9.0526  -15.9403   23.2306 C   0  0  1  0  0  0  0  0  0  0  0  0
    7.7321  -15.8248   23.9340 C   0  0  0  0  0  0  0  0  0  0  0  0
    7.0711  -14.5184   23.7933 C   0  0  0  0  0  0  0  0  0  0  0  0
    6.4843  -13.9898   22.6395 C   0  0  0  0  0  0  0  0  0  0  0  0
    5.9771  -12.7902   22.9048 N   0  0  0  0  0  0  0  0  0  0  0  0
    6.1946  -12.4793   24.1926 C   0  0  0  0  0  0  0  0  0  0  0  0
    5.8513  -11.3496   24.8997 C   0  0  0  0  0  0  0  0  0  0  0  0
    6.1929  -11.2614   26.2292 C   0  0  0  0  0  0  0  0  0  0  0  0
    6.8627  -12.2917   26.8167 C   0  0  0  0  0  0  0  0  0  0  0  0
    7.2047  -13.4329   26.0855 C   0  0  0  0  0  0  0  0  0  0  0  0
    6.8742  -13.5478   24.7528 C   0  0  0  0  0  0  0  0  0  0  0  0
    9.9094  -16.9968   23.8625 C   0  0  0  0  0  0  0  0  0  0  0  0
    9.4052  -18.0282   24.3373 O   0  0  0  0  0  0  0  0  0  0  0  0
   13.0489  -19.1121   21.8216 N   0  0  0  0  0  0  0  0  0  0  0  0
   13.4199  -17.8562   22.4133 C   0  0  0  0  0  0  0  0  0  0  0  0
   13.5597  -16.9121   21.5961 O   0  0  0  0  0  0  0  0  0  0  0  0
   13.6055  -17.7512   23.8699 C   0  0  0  0  0  0  0  0  0  0  0  0
   12.2353  -17.7648   24.5355 C   0  0  2  0  0  0  0  0  0  0  0  0
   11.3168  -16.8286   23.9244 N   0  0  0  0  0  0  0  0  0  0  0  0
   12.3261  -17.5648   25.9949 C   0  0  0  0  0  0  0  0  0  0  0  0
   13.0605  -18.2846   26.7174 O   0  0  0  0  0  0  0  0  0  0  0  0
    9.4729  -15.2111   28.3252 C   0  0  0  0  0  0  0  0  0  0  0  0
   10.9717  -15.0888   28.5034 C   0  0  2  0  0  0  0  0  0  0  0  0
   11.4773  -13.9324   27.6956 C   0  0  0  0  0  0  0  0  0  0  0  0
   11.5973  -16.4117   28.1201 C   0  0  2  0  0  0  0  0  0  0  0  0
   11.5856  -16.5393   26.6822 N   0  0  0  0  0  0  0  0  0  0  0  0
   10.9406  -17.5604   28.7894 C   0  0  0  0  0  0  0  0  0  0  0  0
   10.0643  -18.2749   28.2347 O   0  0  0  0  0  0  0  0  0  0  0  0
   11.2725  -17.9080   30.0938 O   0  0  0  0  0  0  0  0  0  0  0  0
  2  1  1  6
  2 13  1  0
  2  3  1  0
  3  4  1  0
  4  5  2  0
  6  5  1  0
  7  6  1  0
  8  7  2  0
  9  8  1  0
 10 11  1  0
 10  9  2  0
 11 12  2  0
 12  7  1  0
 12  4  1  0
 13 14  2  0
 16 15  1  0
 17 16  2  0
 18 16  1  0
 19 18  1  6
 19 21  1  0
 20 19  1  0
 20 13  1  0
 21 22  2  0
 24 23  1  6
 24 26  1  0
 25 24  1  0
 26 28  1  0
 27 21  1  0
 26 27  1  6
 28 29  2  0
 28 30  1  0
M  END
$$$$
