WNV.pdb
     RDKit          3D

 30 31  0  0  1  0  0  0  0  0999 V2000
    6.5088  -17.3569   24.1812 N   0  0  0  0  0  0  0  0  0  0  0  0
    7.7267  -16.6265   24.2581 C   0  0  1  0  0  0  0  0  0  0  0  0
    7.8997  -15.8024   25.5001 C   0  0  0  0  0  0  0  0  0  0  0  0
    6.9587  -14.6796   25.6306 C   0  0  0  0  0  0  0  0  0  0  0  0
    5.7578  -14.6641   26.3467 C   0  0  0  0  0  0  0  0  0  0  0  0
    5.1892  -13.4674   26.2409 N   0  0  0  0  0  0  0  0  0  0  0  0
    5.9534  -12.6664   25.4814 C   0  0  0  0  0  0  0  0  0  0  0  0
    5.7597  -11.3571   25.1043 C   0  0  0  0  0  0  0  0  0  0  0  0
    6.6974  -10.7437   24.3065 C   0  0  0  0  0  0  0  0  0  0  0  0
    7.7956  -11.4436   23.9071 C   0  0  0  0  0  0  0  0  0  0  0  0
    7.9785  -12.7730   24.2983 C   0  0  0  0  0  0  0  0  0  0  0  0
    7.0556  -13.4116   25.0976 C   0  0  0  0  0  0  0  0  0  0  0  0
    8.9115  -17.5184   24.0336 C   0  0  0  0  0  0  0  0  0  0  0  0
    8.9145  -18.6915   24.4429 O   0  0  0  0  0  0  0  0  0  0  0  0
   11.1435  -18.4500   21.4175 N   0  0  0  0  0  0  0  0  0  0  0  0
   12.1768  -17.4533   21.4834 C   0  0  0  0  0  0  0  0  0  0  0  0
   12.8079  -17.2801   20.4110 O   0  0  0  0  0  0  0  0  0  0  0  0
   12.4249  -16.7275   22.7399 C   0  0  0  0  0  0  0  0  0  0  0  0
   11.4194  -17.2026   23.7810 C   0  0  2  0  0  0  0  0  0  0  0  0
   10.0509  -17.0283   23.3446 N   0  0  0  0  0  0  0  0  0  0  0  0
   11.6533  -16.5837   25.1003 C   0  0  0  0  0  0  0  0  0  0  0  0
   12.3300  -15.5324   25.2278 O   0  0  0  0  0  0  0  0  0  0  0  0
    9.1520  -16.2218   28.1772 C   0  0  0  0  0  0  0  0  0  0  0  0
   10.5133  -15.5724   28.0423 C   0  0  2  0  0  0  0  0  0  0  0  0
   10.4258  -14.4254   27.0820 C   0  0  0  0  0  0  0  0  0  0  0  0
   11.5001  -16.6384   27.6204 C   0  0  2  0  0  0  0  0  0  0  0  0
   11.1253  -17.1387   26.3191 N   0  0  0  0  0  0  0  0  0  0  0  0
   11.6204  -17.7236   28.6238 C   0  0  0  0  0  0  0  0  0  0  0  0
   11.2209  -18.9005   28.4205 O   0  0  0  0  0  0  0  0  0  0  0  0
   12.1950  -17.4824   29.8665 O   0  0  0  0  0  0  0  0  0  0  0  0
  2  1  1  1
  2 13  1  0
  2  3  1  0
  3  4  1  0
  4  5  2  0
  6  5  1  0
  7  6  1  0
  8  7  2  0
  9  8  1  0
 10 11  1  0
 10  9  2  0
 11 12  2  0
 12  7  1  0
 12  4  1  0
 13 14  2  0
 16 15  1  0
 17 16  2  0
 18 16  1  0
 19 18  1  6
 19 21  1  0
 20 19  1  0
 20 13  1  0
 21 22  2  0
 24 23  1  6
 24 26  1  0
 25 24  1  0
 26 28  1  0
 27 21  1  0
 26 27  1  6
 28 29  2  0
 28 30  1  0
M  END
$$$$
