WNV.pdb
     RDKit          3D

 30 31  0  0  1  0  0  0  0  0999 V2000
    6.4613  -17.2927   24.6080 N   0  0  0  0  0  0  0  0  0  0  0  0
    7.5679  -16.4253   24.3940 C   0  0  1  0  0  0  0  0  0  0  0  0
    7.7802  -15.3873   25.4566 C   0  0  0  0  0  0  0  0  0  0  0  0
    6.6692  -14.4375   25.6210 C   0  0  0  0  0  0  0  0  0  0  0  0
    5.4239  -14.6888   26.2051 C   0  0  0  0  0  0  0  0  0  0  0  0
    4.6882  -13.5821   26.1836 N   0  0  0  0  0  0  0  0  0  0  0  0
    5.3810  -12.5866   25.6082 C   0  0  0  0  0  0  0  0  0  0  0  0
    5.0199  -11.2799   25.3710 C   0  0  0  0  0  0  0  0  0  0  0  0
    5.9159  -10.4384   24.7535 C   0  0  0  0  0  0  0  0  0  0  0  0
    7.1390  -10.9151   24.3902 C   0  0  0  0  0  0  0  0  0  0  0  0
    7.4914  -12.2450   24.6376 C   0  0  0  0  0  0  0  0  0  0  0  0
    6.6138  -13.1092   25.2552 C   0  0  0  0  0  0  0  0  0  0  0  0
    8.8262  -17.2008   24.1389 C   0  0  0  0  0  0  0  0  0  0  0  0
    8.9843  -18.3366   24.6168 O   0  0  0  0  0  0  0  0  0  0  0  0
   14.5993  -16.1065   22.1937 N   0  0  0  0  0  0  0  0  0  0  0  0
   13.4512  -16.9429   22.4115 C   0  0  0  0  0  0  0  0  0  0  0  0
   13.7176  -18.1456   22.6590 O   0  0  0  0  0  0  0  0  0  0  0  0
   12.0961  -16.3727   22.3368 C   0  0  0  0  0  0  0  0  0  0  0  0
   11.2657  -16.9446   23.4787 C   0  0  2  0  0  0  0  0  0  0  0  0
    9.8576  -16.6412   23.3415 N   0  0  0  0  0  0  0  0  0  0  0  0
   11.7844  -16.5376   24.7991 C   0  0  0  0  0  0  0  0  0  0  0  0
   12.8228  -15.8395   24.9160 O   0  0  0  0  0  0  0  0  0  0  0  0
    9.5688  -16.1984   28.3065 C   0  0  0  0  0  0  0  0  0  0  0  0
   10.9618  -15.6511   28.0760 C   0  0  2  0  0  0  0  0  0  0  0  0
   10.8695  -14.3367   27.3624 C   0  0  0  0  0  0  0  0  0  0  0  0
   11.7544  -16.6939   27.3195 C   0  0  2  0  0  0  0  0  0  0  0  0
   11.1397  -16.9099   26.0312 N   0  0  0  0  0  0  0  0  0  0  0  0
   11.9039  -17.9541   28.0866 C   0  0  0  0  0  0  0  0  0  0  0  0
   11.3602  -19.0384   27.7476 O   0  0  0  0  0  0  0  0  0  0  0  0
   12.6714  -17.9945   29.2450 O   0  0  0  0  0  0  0  0  0  0  0  0
  2  1  1  1
  2 13  1  0
  2  3  1  0
  3  4  1  0
  4  5  2  0
  6  5  1  0
  7  6  1  0
  8  7  2  0
  9  8  1  0
 10 11  1  0
 10  9  2  0
 11 12  2  0
 12  7  1  0
 12  4  1  0
 13 14  2  0
 16 15  1  0
 17 16  2  0
 18 16  1  0
 19 18  1  6
 19 21  1  0
 20 19  1  0
 20 13  1  0
 21 22  2  0
 24 23  1  6
 24 26  1  0
 25 24  1  0
 26 28  1  0
 27 21  1  0
 26 27  1  6
 28 29  2  0
 28 30  1  0
M  END
$$$$
