WNV.pdb
     RDKit          3D

 30 31  0  0  1  0  0  0  0  0999 V2000
    6.4572  -17.5406   24.7373 N   0  0  0  0  0  0  0  0  0  0  0  0
    7.5883  -16.7394   24.4190 C   0  0  1  0  0  0  0  0  0  0  0  0
    7.6997  -15.4570   25.1904 C   0  0  0  0  0  0  0  0  0  0  0  0
    7.0492  -14.2992   24.5582 C   0  0  0  0  0  0  0  0  0  0  0  0
    6.0294  -13.5073   25.0950 C   0  0  0  0  0  0  0  0  0  0  0  0
    5.7086  -12.5468   24.2341 N   0  0  0  0  0  0  0  0  0  0  0  0
    6.4679  -12.6519   23.1320 C   0  0  0  0  0  0  0  0  0  0  0  0
    6.4808  -11.8833   21.9905 C   0  0  0  0  0  0  0  0  0  0  0  0
    7.3614  -12.1966   20.9813 C   0  0  0  0  0  0  0  0  0  0  0  0
    8.2003  -13.2590   21.1325 C   0  0  0  0  0  0  0  0  0  0  0  0
    8.1756  -14.0305   22.2978 C   0  0  0  0  0  0  0  0  0  0  0  0
    7.3043  -13.7386   23.3245 C   0  0  0  0  0  0  0  0  0  0  0  0
    8.8587  -17.5322   24.5049 C   0  0  0  0  0  0  0  0  0  0  0  0
    8.9291  -18.5507   25.2128 O   0  0  0  0  0  0  0  0  0  0  0  0
   11.6252  -16.7730   20.6204 N   0  0  0  0  0  0  0  0  0  0  0  0
   11.8816  -17.6379   21.7391 C   0  0  0  0  0  0  0  0  0  0  0  0
   11.6721  -18.8570   21.5186 O   0  0  0  0  0  0  0  0  0  0  0  0
   12.3520  -17.0759   23.0158 C   0  0  0  0  0  0  0  0  0  0  0  0
   11.3672  -17.4674   24.1101 C   0  0  2  0  0  0  0  0  0  0  0  0
   10.0028  -17.1245   23.7716 N   0  0  0  0  0  0  0  0  0  0  0  0
   11.7552  -16.9226   25.4257 C   0  0  0  0  0  0  0  0  0  0  0  0
   12.8629  -17.1936   25.9540 O   0  0  0  0  0  0  0  0  0  0  0  0
   10.8845  -13.9046   29.2287 C   0  0  0  0  0  0  0  0  0  0  0  0
   10.4739  -14.3572   27.8433 C   0  0  2  0  0  0  0  0  0  0  0  0
    8.9831  -14.4978   27.7859 C   0  0  0  0  0  0  0  0  0  0  0  0
   11.2131  -15.6399   27.5324 C   0  0  2  0  0  0  0  0  0  0  0  0
   10.8974  -16.0508   26.1849 N   0  0  0  0  0  0  0  0  0  0  0  0
   10.9318  -16.7066   28.5233 C   0  0  0  0  0  0  0  0  0  0  0  0
   11.3548  -16.6775   29.7091 O   0  0  0  0  0  0  0  0  0  0  0  0
   10.1683  -17.8155   28.1768 O   0  0  0  0  0  0  0  0  0  0  0  0
  2  1  1  1
  2 13  1  0
  2  3  1  0
  3  4  1  0
  4  5  2  0
  6  5  1  0
  7  6  1  0
  8  7  2  0
  9  8  1  0
 10 11  1  0
 10  9  2  0
 11 12  2  0
 12  7  1  0
 12  4  1  0
 13 14  2  0
 16 15  1  0
 17 16  2  0
 18 16  1  0
 19 18  1  6
 19 21  1  0
 20 19  1  0
 20 13  1  0
 21 22  2  0
 24 23  1  1
 24 26  1  0
 25 24  1  0
 26 28  1  0
 27 21  1  0
 26 27  1  6
 28 29  2  0
 28 30  1  0
M  END
$$$$
