WNV.pdb
     RDKit          3D

 30 31  0  0  1  0  0  0  0  0999 V2000
    6.9815  -17.2027   23.9142 N   0  0  0  0  0  0  0  0  0  0  0  0
    8.0819  -16.3113   24.0457 C   0  0  1  0  0  0  0  0  0  0  0  0
    8.1762  -15.6038   25.3657 C   0  0  0  0  0  0  0  0  0  0  0  0
    7.0390  -14.7241   25.6760 C   0  0  0  0  0  0  0  0  0  0  0  0
    5.7947  -15.1029   26.1892 C   0  0  0  0  0  0  0  0  0  0  0  0
    5.0305  -14.0274   26.3491 N   0  0  0  0  0  0  0  0  0  0  0  0
    5.7029  -12.9306   25.9655 C   0  0  0  0  0  0  0  0  0  0  0  0
    5.3101  -11.6117   25.9533 C   0  0  0  0  0  0  0  0  0  0  0  0
    6.1901  -10.6544   25.5045 C   0  0  0  0  0  0  0  0  0  0  0  0
    7.4289  -11.0311   25.0820 C   0  0  0  0  0  0  0  0  0  0  0  0
    7.8136  -12.3749   25.1002 C   0  0  0  0  0  0  0  0  0  0  0  0
    6.9526  -13.3541   25.5454 C   0  0  0  0  0  0  0  0  0  0  0  0
    9.3755  -16.9891   23.7037 C   0  0  0  0  0  0  0  0  0  0  0  0
    9.4708  -18.2277   23.7185 O   0  0  0  0  0  0  0  0  0  0  0  0
   12.3647  -14.9064   20.4521 N   0  0  0  0  0  0  0  0  0  0  0  0
   12.6131  -16.0182   21.3282 C   0  0  0  0  0  0  0  0  0  0  0  0
   12.5885  -17.1428   20.7687 O   0  0  0  0  0  0  0  0  0  0  0  0
   12.8700  -15.7886   22.7595 C   0  0  0  0  0  0  0  0  0  0  0  0
   11.8856  -16.6233   23.5688 C   0  0  2  0  0  0  0  0  0  0  0  0
   10.5134  -16.2164   23.3559 N   0  0  0  0  0  0  0  0  0  0  0  0
   12.2295  -16.6491   25.0038 C   0  0  0  0  0  0  0  0  0  0  0  0
   13.3398  -17.0744   25.4109 O   0  0  0  0  0  0  0  0  0  0  0  0
    9.4966  -15.4274   28.2402 C   0  0  0  0  0  0  0  0  0  0  0  0
   10.9552  -15.0425   28.1080 C   0  0  2  0  0  0  0  0  0  0  0  0
   11.0628  -13.7397   27.3755 C   0  0  0  0  0  0  0  0  0  0  0  0
   11.6788  -16.1810   27.4235 C   0  0  2  0  0  0  0  0  0  0  0  0
   11.3232  -16.1917   26.0243 N   0  0  0  0  0  0  0  0  0  0  0  0
   11.4200  -17.4868   28.0767 C   0  0  0  0  0  0  0  0  0  0  0  0
   11.8129  -17.7678   29.2398 O   0  0  0  0  0  0  0  0  0  0  0  0
   10.7135  -18.4850   27.4156 O   0  0  0  0  0  0  0  0  0  0  0  0
  2  1  1  1
  2 13  1  0
  2  3  1  0
  3  4  1  0
  4  5  2  0
  6  5  1  0
  7  6  1  0
  8  7  2  0
  9  8  1  0
 10 11  1  0
 10  9  2  0
 11 12  2  0
 12  7  1  0
 12  4  1  0
 13 14  2  0
 16 15  1  0
 17 16  2  0
 18 16  1  0
 19 18  1  6
 19 21  1  0
 20 19  1  0
 20 13  1  0
 21 22  2  0
 24 23  1  6
 24 26  1  0
 25 24  1  0
 26 28  1  0
 27 21  1  0
 26 27  1  6
 28 29  2  0
 28 30  1  0
M  END
$$$$
