WNV.pdb
     RDKit          3D

 30 31  0  0  1  0  0  0  0  0999 V2000
    8.8217  -15.9905   25.7161 N   0  0  0  0  0  0  0  0  0  0  0  0
    8.2554  -16.7704   24.6702 C   0  0  1  0  0  0  0  0  0  0  0  0
    6.9638  -16.2486   24.1123 C   0  0  0  0  0  0  0  0  0  0  0  0
    6.4133  -15.0826   24.8199 C   0  0  0  0  0  0  0  0  0  0  0  0
    5.4673  -15.0898   25.8495 C   0  0  0  0  0  0  0  0  0  0  0  0
    5.2275  -13.8440   26.2456 N   0  0  0  0  0  0  0  0  0  0  0  0
    5.9714  -12.9875   25.5277 C   0  0  0  0  0  0  0  0  0  0  0  0
    6.0467  -11.6147   25.5898 C   0  0  0  0  0  0  0  0  0  0  0  0
    6.8938  -10.9504   24.7336 C   0  0  0  0  0  0  0  0  0  0  0  0
    7.6386  -11.6637   23.8438 C   0  0  0  0  0  0  0  0  0  0  0  0
    7.5513  -13.0579   23.7924 C   0  0  0  0  0  0  0  0  0  0  0  0
    6.7117  -13.7486   24.6388 C   0  0  0  0  0  0  0  0  0  0  0  0
    9.2519  -17.0221   23.5779 C   0  0  0  0  0  0  0  0  0  0  0  0
    9.0789  -17.9354   22.7536 O   0  0  0  0  0  0  0  0  0  0  0  0
   11.8944  -17.1510   21.0077 N   0  0  0  0  0  0  0  0  0  0  0  0
   12.4837  -15.9560   21.5462 C   0  0  0  0  0  0  0  0  0  0  0  0
   12.6806  -15.0433   20.7054 O   0  0  0  0  0  0  0  0  0  0  0  0
   12.8067  -15.8721   22.9799 C   0  0  0  0  0  0  0  0  0  0  0  0
   11.7591  -16.6564   23.7597 C   0  0  2  0  0  0  0  0  0  0  0  0
   10.4122  -16.2124   23.4728 N   0  0  0  0  0  0  0  0  0  0  0  0
   12.0344  -16.6590   25.2097 C   0  0  0  0  0  0  0  0  0  0  0  0
   13.1255  -17.0734   25.6757 O   0  0  0  0  0  0  0  0  0  0  0  0
    9.4334  -14.8210   28.2698 C   0  0  0  0  0  0  0  0  0  0  0  0
   10.9439  -14.8330   28.1633 C   0  0  2  0  0  0  0  0  0  0  0  0
   11.3950  -13.6659   27.3388 C   0  0  0  0  0  0  0  0  0  0  0  0
   11.3617  -16.1709   27.5943 C   0  0  2  0  0  0  0  0  0  0  0  0
   11.0789  -16.1899   26.1788 N   0  0  0  0  0  0  0  0  0  0  0  0
   10.7303  -17.3080   28.3066 C   0  0  0  0  0  0  0  0  0  0  0  0
    9.8722  -18.0636   27.7786 O   0  0  0  0  0  0  0  0  0  0  0  0
   11.0672  -17.5971   29.6240 O   0  0  0  0  0  0  0  0  0  0  0  0
  2  1  1  1
  2 13  1  0
  2  3  1  0
  3  4  1  0
  4  5  2  0
  6  5  1  0
  7  6  1  0
  8  7  2  0
  9  8  1  0
 10 11  1  0
 10  9  2  0
 11 12  2  0
 12  7  1  0
 12  4  1  0
 13 14  2  0
 16 15  1  0
 17 16  2  0
 18 16  1  0
 19 18  1  6
 19 21  1  0
 20 19  1  0
 20 13  1  0
 21 22  2  0
 24 23  1  6
 24 26  1  0
 25 24  1  0
 26 28  1  0
 27 21  1  0
 26 27  1  6
 28 29  2  0
 28 30  1  0
M  END
$$$$
