WNV.pdb
     RDKit          3D

 30 31  0  0  1  0  0  0  0  0999 V2000
    7.0409  -16.7885   22.0207 N   0  0  0  0  0  0  0  0  0  0  0  0
    8.1633  -16.0111   22.4186 C   0  0  1  0  0  0  0  0  0  0  0  0
    7.8514  -14.6003   22.8239 C   0  0  0  0  0  0  0  0  0  0  0  0
    6.9737  -14.4762   23.9976 C   0  0  0  0  0  0  0  0  0  0  0  0
    6.1558  -15.4677   24.5481 C   0  0  0  0  0  0  0  0  0  0  0  0
    5.5214  -14.9849   25.6116 N   0  0  0  0  0  0  0  0  0  0  0  0
    5.8731  -13.7043   25.8084 C   0  0  0  0  0  0  0  0  0  0  0  0
    5.4681  -12.8149   26.7773 C   0  0  0  0  0  0  0  0  0  0  0  0
    5.9749  -11.5362   26.7674 C   0  0  0  0  0  0  0  0  0  0  0  0
    6.8648  -11.1777   25.8006 C   0  0  0  0  0  0  0  0  0  0  0  0
    7.2668  -12.0922   24.8228 C   0  0  0  0  0  0  0  0  0  0  0  0
    6.7756  -13.3795   24.8097 C   0  0  0  0  0  0  0  0  0  0  0  0
    8.9633  -16.7115   23.4765 C   0  0  0  0  0  0  0  0  0  0  0  0
    8.4184  -17.1519   24.5024 O   0  0  0  0  0  0  0  0  0  0  0  0
   12.7924  -16.9147   21.3924 N   0  0  0  0  0  0  0  0  0  0  0  0
   13.0979  -17.0397   22.7911 C   0  0  0  0  0  0  0  0  0  0  0  0
   13.9010  -16.1797   23.2317 O   0  0  0  0  0  0  0  0  0  0  0  0
   12.4835  -18.1135   23.5890 C   0  0  0  0  0  0  0  0  0  0  0  0
   11.2262  -17.5660   24.2524 C   0  0  2  0  0  0  0  0  0  0  0  0
   10.3627  -16.8809   23.3150 N   0  0  0  0  0  0  0  0  0  0  0  0
   11.5393  -16.7216   25.4217 C   0  0  0  0  0  0  0  0  0  0  0  0
   12.2945  -15.7210   25.3326 O   0  0  0  0  0  0  0  0  0  0  0  0
    9.1651  -15.8331   28.5760 C   0  0  0  0  0  0  0  0  0  0  0  0
   10.5019  -15.1953   28.2610 C   0  0  2  0  0  0  0  0  0  0  0  0
   10.3271  -14.1838   27.1693 C   0  0  0  0  0  0  0  0  0  0  0  0
   11.4754  -16.2988   27.9105 C   0  0  2  0  0  0  0  0  0  0  0  0
   11.0041  -16.9859   26.7316 N   0  0  0  0  0  0  0  0  0  0  0  0
   11.7072  -17.2265   29.0439 C   0  0  0  0  0  0  0  0  0  0  0  0
   12.2548  -16.8767   30.1227 O   0  0  0  0  0  0  0  0  0  0  0  0
   11.3198  -18.5592   28.9626 O   0  0  0  0  0  0  0  0  0  0  0  0
  2  1  1  1
  2 13  1  0
  2  3  1  0
  3  4  1  0
  4  5  2  0
  6  5  1  0
  7  6  1  0
  8  7  2  0
  9  8  1  0
 10 11  1  0
 10  9  2  0
 11 12  2  0
 12  7  1  0
 12  4  1  0
 13 14  2  0
 16 15  1  0
 17 16  2  0
 18 16  1  0
 19 18  1  6
 19 21  1  0
 20 19  1  0
 20 13  1  0
 21 22  2  0
 24 23  1  6
 24 26  1  0
 25 24  1  0
 26 28  1  0
 27 21  1  0
 26 27  1  6
 28 29  2  0
 28 30  1  0
M  END
$$$$
