WNV.pdb
     RDKit          3D

 30 31  0  0  1  0  0  0  0  0999 V2000
    6.5148  -17.0141   23.8466 N   0  0  0  0  0  0  0  0  0  0  0  0
    7.7353  -16.3061   24.0241 C   0  0  1  0  0  0  0  0  0  0  0  0
    7.8984  -15.6395   25.3586 C   0  0  0  0  0  0  0  0  0  0  0  0
    6.8837  -14.6202   25.6663 C   0  0  0  0  0  0  0  0  0  0  0  0
    5.5494  -14.8387   26.0228 C   0  0  0  0  0  0  0  0  0  0  0  0
    4.9468  -13.6736   26.2366 N   0  0  0  0  0  0  0  0  0  0  0  0
    5.8158  -12.6693   26.0399 C   0  0  0  0  0  0  0  0  0  0  0  0
    5.6335  -11.3092   26.1434 C   0  0  0  0  0  0  0  0  0  0  0  0
    6.6918  -10.4695   25.8845 C   0  0  0  0  0  0  0  0  0  0  0  0
    7.8954  -11.0007   25.5316 C   0  0  0  0  0  0  0  0  0  0  0  0
    8.0652  -12.3844   25.4306 C   0  0  0  0  0  0  0  0  0  0  0  0
    7.0225  -13.2484   25.6851 C   0  0  0  0  0  0  0  0  0  0  0  0
    8.9182  -17.1717   23.7057 C   0  0  0  0  0  0  0  0  0  0  0  0
    8.9436  -18.3673   24.0424 O   0  0  0  0  0  0  0  0  0  0  0  0
   11.7404  -18.4866   20.9065 N   0  0  0  0  0  0  0  0  0  0  0  0
   11.9785  -17.0703   20.9568 C   0  0  0  0  0  0  0  0  0  0  0  0
   11.8316  -16.4743   19.8606 O   0  0  0  0  0  0  0  0  0  0  0  0
   12.3614  -16.4295   22.2257 C   0  0  0  0  0  0  0  0  0  0  0  0
   11.4151  -16.9122   23.3176 C   0  0  2  0  0  0  0  0  0  0  0  0
   10.0297  -16.6299   23.0100 N   0  0  0  0  0  0  0  0  0  0  0  0
   11.7939  -16.3959   24.6473 C   0  0  0  0  0  0  0  0  0  0  0  0
   12.6178  -15.4565   24.7827 O   0  0  0  0  0  0  0  0  0  0  0  0
   11.6250  -14.3903   28.5659 C   0  0  0  0  0  0  0  0  0  0  0  0
   11.1657  -14.9497   27.2358 C   0  0  2  0  0  0  0  0  0  0  0  0
    9.6860  -14.7576   27.0981 C   0  0  0  0  0  0  0  0  0  0  0  0
   11.5951  -16.3985   27.1648 C   0  0  2  0  0  0  0  0  0  0  0  0
   11.2484  -16.9295   25.8679 N   0  0  0  0  0  0  0  0  0  0  0  0
   11.0297  -17.2086   28.2706 C   0  0  0  0  0  0  0  0  0  0  0  0
   10.1131  -18.0567   28.1076 O   0  0  0  0  0  0  0  0  0  0  0  0
   11.4994  -17.0629   29.5709 O   0  0  0  0  0  0  0  0  0  0  0  0
  2  1  1  1
  2 13  1  0
  2  3  1  0
  3  4  1  0
  4  5  2  0
  6  5  1  0
  7  6  1  0
  8  7  2  0
  9  8  1  0
 10 11  1  0
 10  9  2  0
 11 12  2  0
 12  7  1  0
 12  4  1  0
 13 14  2  0
 16 15  1  0
 17 16  2  0
 18 16  1  0
 19 18  1  6
 19 21  1  0
 20 19  1  0
 20 13  1  0
 21 22  2  0
 24 23  1  1
 24 26  1  0
 25 24  1  0
 26 28  1  0
 27 21  1  0
 26 27  1  6
 28 29  2  0
 28 30  1  0
M  END
$$$$
