IMP.pdb
     RDKit          3D

 24 24  0  0  1  0  0  0  0  0999 V2000
    8.0631  -22.1969   22.9538 C   0  0  0  0  0  0  0  0  0  0  0  0
    7.0398  -21.3725   23.7025 C   0  0  0  0  0  0  0  0  0  0  0  0
    6.9899  -19.9921   23.1401 C   0  0  2  0  0  0  0  0  0  0  0  0
    8.3472  -19.4396   22.8203 C   0  0  0  0  0  0  0  0  0  0  0  0
    6.1322  -19.0632   23.9727 C   0  0  2  0  0  0  0  0  0  0  0  0
    4.7527  -19.5403   23.7261 N   0  0  0  0  0  0  0  0  0  0  0  0
    6.2455  -17.6456   23.6036 C   0  0  0  0  0  0  0  0  0  0  0  0
    5.7872  -17.2769   22.4701 O   0  0  0  0  0  0  0  0  0  0  0  0
    7.8747  -13.4669   27.8309 C   0  0  0  0  0  0  0  0  0  0  0  0
    7.5318  -12.1869   26.5958 S   0  0  0  0  0  0  0  0  0  0  0  0
    7.3429  -12.9660   24.9353 C   0  0  0  0  0  0  0  0  0  0  0  0
    7.1895  -14.4070   25.1590 C   0  0  0  0  0  0  0  0  0  0  0  0
    6.9189  -15.2160   23.8978 C   0  0  2  0  0  0  0  0  0  0  0  0
    6.8240  -16.6307   24.4012 N   0  0  0  0  0  0  0  0  0  0  0  0
    7.9972  -15.1384   22.9185 C   0  0  0  0  0  0  0  0  0  0  0  0
    9.0214  -15.8899   23.1503 O   0  0  0  0  0  0  0  0  0  0  0  0
    8.0837  -14.3572   21.7366 N   0  0  0  0  0  0  0  0  0  0  0  0
    7.0885  -13.3784   21.4126 C   0  0  0  0  0  0  0  0  0  0  0  0
    7.7844  -12.4801   20.4196 C   0  0  0  0  0  0  0  0  0  0  0  0
    8.6421  -13.4831   19.6265 C   0  0  0  0  0  0  0  0  0  0  0  0
    9.0896  -14.4124   20.7580 C   0  0  1  0  0  0  0  0  0  0  0  0
   10.4214  -13.9460   21.2696 C   0  0  0  0  0  0  0  0  0  0  0  0
   11.4146  -14.0253   20.5192 O   0  0  0  0  0  0  0  0  0  0  0  0
   10.5270  -13.4476   22.5326 O   0  0  0  0  0  0  0  0  0  0  0  0
  1  2  1  0
  3  2  1  0
  3  4  1  1
  5  3  1  0
  5  6  1  6
  7  8  2  0
  7  5  1  0
 10  9  1  0
 11 12  1  0
 11 10  1  0
 13 12  1  1
 13 15  1  0
 13 14  1  0
 14  7  1  0
 15 17  1  0
 16 15  2  0
 17 21  1  0
 17 18  1  0
 19 18  1  0
 20 19  1  0
 20 21  1  0
 21 22  1  1
 22 23  2  0
 22 24  1  0
M  END
$$$$
