IMP.pdb
     RDKit          3D

 24 24  0  0  1  0  0  0  0  0999 V2000
    2.0062  -18.8456   22.5142 C   0  0  0  0  0  0  0  0  0  0  0  0
    3.4281  -18.5087   22.9040 C   0  0  0  0  0  0  0  0  0  0  0  0
    4.3832  -19.2609   22.0402 C   0  0  2  0  0  0  0  0  0  0  0  0
    4.1113  -20.7357   22.0112 C   0  0  0  0  0  0  0  0  0  0  0  0
    5.8255  -18.9108   22.3383 C   0  0  2  0  0  0  0  0  0  0  0  0
    6.0494  -19.4600   23.6946 N   0  0  0  0  0  0  0  0  0  0  0  0
    6.1101  -17.4694   22.3283 C   0  0  0  0  0  0  0  0  0  0  0  0
    5.9637  -16.8312   21.2319 O   0  0  0  0  0  0  0  0  0  0  0  0
    6.8172  -13.6853   27.5341 C   0  0  0  0  0  0  0  0  0  0  0  0
    6.9542  -12.6356   26.0643 S   0  0  0  0  0  0  0  0  0  0  0  0
    7.9404  -13.5072   24.7728 C   0  0  0  0  0  0  0  0  0  0  0  0
    7.4008  -14.8670   24.6744 C   0  0  0  0  0  0  0  0  0  0  0  0
    6.9798  -15.2786   23.2702 C   0  0  2  0  0  0  0  0  0  0  0  0
    6.5376  -16.7067   23.4402 N   0  0  0  0  0  0  0  0  0  0  0  0
    8.0717  -15.2379   22.3038 C   0  0  0  0  0  0  0  0  0  0  0  0
    8.9861  -16.1376   22.4516 O   0  0  0  0  0  0  0  0  0  0  0  0
    8.2745  -14.3522   21.2133 N   0  0  0  0  0  0  0  0  0  0  0  0
    7.3366  -13.3121   20.9103 C   0  0  0  0  0  0  0  0  0  0  0  0
    8.1349  -12.3496   20.0655 C   0  0  0  0  0  0  0  0  0  0  0  0
    9.0245  -13.3034   19.2472 C   0  0  0  0  0  0  0  0  0  0  0  0
    9.3534  -14.3509   20.3143 C   0  0  1  0  0  0  0  0  0  0  0  0
   10.6528  -13.9830   20.9696 C   0  0  0  0  0  0  0  0  0  0  0  0
   10.6393  -13.5953   22.1550 O   0  0  0  0  0  0  0  0  0  0  0  0
   11.8169  -14.0763   20.2689 O   0  0  0  0  0  0  0  0  0  0  0  0
  1  2  1  0
  3  2  1  0
  3  4  1  1
  5  3  1  0
  5  6  1  1
  7  8  2  0
  7  5  1  0
 10  9  1  0
 11 12  1  0
 11 10  1  0
 13 12  1  1
 13 15  1  0
 13 14  1  0
 14  7  1  0
 15 17  1  0
 16 15  2  0
 17 21  1  0
 17 18  1  0
 19 18  1  0
 20 19  1  0
 20 21  1  0
 21 22  1  1
 22 23  2  0
 22 24  1  0
M  END
$$$$
