IMP.pdb
     RDKit          3D

 24 24  0  0  1  0  0  0  0  0999 V2000
    8.3900  -22.3186   23.3107 C   0  0  0  0  0  0  0  0  0  0  0  0
    7.7755  -21.3932   24.3369 C   0  0  0  0  0  0  0  0  0  0  0  0
    7.5284  -20.0537   23.7294 C   0  0  2  0  0  0  0  0  0  0  0  0
    8.7150  -19.5203   22.9831 C   0  0  0  0  0  0  0  0  0  0  0  0
    6.9381  -19.0735   24.7206 C   0  0  2  0  0  0  0  0  0  0  0  0
    5.6194  -19.6582   25.0531 N   0  0  0  0  0  0  0  0  0  0  0  0
    6.7643  -17.7135   24.1925 C   0  0  0  0  0  0  0  0  0  0  0  0
    5.8517  -17.5145   23.3216 O   0  0  0  0  0  0  0  0  0  0  0  0
    7.3567  -11.1851   26.3024 C   0  0  0  0  0  0  0  0  0  0  0  0
    7.1265  -12.7670   27.1543 S   0  0  0  0  0  0  0  0  0  0  0  0
    6.5370  -14.0353   25.9526 C   0  0  0  0  0  0  0  0  0  0  0  0
    7.6239  -14.2443   24.9909 C   0  0  0  0  0  0  0  0  0  0  0  0
    7.3104  -15.2527   23.8939 C   0  0  2  0  0  0  0  0  0  0  0  0
    7.5259  -16.5816   24.5658 N   0  0  0  0  0  0  0  0  0  0  0  0
    8.2065  -15.1567   22.7469 C   0  0  0  0  0  0  0  0  0  0  0  0
    9.2776  -15.8752   22.8094 O   0  0  0  0  0  0  0  0  0  0  0  0
    8.0696  -14.3888   21.5609 N   0  0  0  0  0  0  0  0  0  0  0  0
    6.9493  -13.5185   21.3587 C   0  0  0  0  0  0  0  0  0  0  0  0
    7.4256  -12.5709   20.2852 C   0  0  0  0  0  0  0  0  0  0  0  0
    8.2763  -13.4960   19.3957 C   0  0  0  0  0  0  0  0  0  0  0  0
    8.9491  -14.3591   20.4665 C   0  0  1  0  0  0  0  0  0  0  0  0
   10.2799  -13.7554   20.8093 C   0  0  0  0  0  0  0  0  0  0  0  0
   10.4083  -13.1634   21.8996 O   0  0  0  0  0  0  0  0  0  0  0  0
   11.3188  -13.8607   19.9349 O   0  0  0  0  0  0  0  0  0  0  0  0
  1  2  1  0
  3  2  1  0
  3  4  1  1
  5  3  1  0
  5  6  1  6
  7  8  2  0
  7  5  1  0
 10  9  1  0
 11 12  1  0
 11 10  1  0
 13 12  1  1
 13 15  1  0
 13 14  1  0
 14  7  1  0
 15 17  1  0
 16 15  2  0
 17 21  1  0
 17 18  1  0
 19 18  1  0
 20 19  1  0
 20 21  1  0
 21 22  1  1
 22 23  2  0
 22 24  1  0
M  END
$$$$
