IMP.pdb
     RDKit          3D

 24 24  0  0  1  0  0  0  0  0999 V2000
    7.7183  -22.5838   23.2044 C   0  0  0  0  0  0  0  0  0  0  0  0
    6.6382  -21.7974   23.9130 C   0  0  0  0  0  0  0  0  0  0  0  0
    6.6810  -20.3711   23.4790 C   0  0  2  0  0  0  0  0  0  0  0  0
    8.0679  -19.8001   23.4766 C   0  0  0  0  0  0  0  0  0  0  0  0
    5.6692  -19.5169   24.2127 C   0  0  2  0  0  0  0  0  0  0  0  0
    4.3640  -20.0246   23.7330 N   0  0  0  0  0  0  0  0  0  0  0  0
    5.7802  -18.0785   23.9343 C   0  0  0  0  0  0  0  0  0  0  0  0
    5.3350  -17.6417   22.8200 O   0  0  0  0  0  0  0  0  0  0  0  0
    7.8756  -13.5012   28.2483 C   0  0  0  0  0  0  0  0  0  0  0  0
    7.9692  -12.7736   26.5921 S   0  0  0  0  0  0  0  0  0  0  0  0
    6.6262  -13.4675   25.5361 C   0  0  0  0  0  0  0  0  0  0  0  0
    6.6978  -14.9264   25.6650 C   0  0  0  0  0  0  0  0  0  0  0  0
    6.5116  -15.6851   24.3580 C   0  0  2  0  0  0  0  0  0  0  0  0
    6.3429  -17.1129   24.8014 N   0  0  0  0  0  0  0  0  0  0  0  0
    7.6673  -15.6028   23.4719 C   0  0  0  0  0  0  0  0  0  0  0  0
    8.6941  -16.3034   23.8218 O   0  0  0  0  0  0  0  0  0  0  0  0
    7.8276  -14.8656   22.2696 N   0  0  0  0  0  0  0  0  0  0  0  0
    6.8183  -13.9593   21.8079 C   0  0  0  0  0  0  0  0  0  0  0  0
    7.5595  -13.0627   20.8466 C   0  0  0  0  0  0  0  0  0  0  0  0
    8.5431  -14.0456   20.1853 C   0  0  0  0  0  0  0  0  0  0  0  0
    8.9262  -14.9019   21.3954 C   0  0  1  0  0  0  0  0  0  0  0  0
   10.1746  -14.3399   22.0105 C   0  0  0  0  0  0  0  0  0  0  0  0
   10.0898  -13.7399   23.1007 O   0  0  0  0  0  0  0  0  0  0  0  0
   11.3709  -14.4907   21.3773 O   0  0  0  0  0  0  0  0  0  0  0  0
  1  2  1  0
  3  2  1  0
  3  4  1  1
  5  3  1  0
  5  6  1  6
  7  8  2  0
  7  5  1  0
 10  9  1  0
 11 12  1  0
 11 10  1  0
 13 12  1  1
 13 15  1  0
 13 14  1  0
 14  7  1  0
 15 17  1  0
 16 15  2  0
 17 21  1  0
 17 18  1  0
 19 18  1  0
 20 19  1  0
 20 21  1  0
 21 22  1  1
 22 23  2  0
 22 24  1  0
M  END
$$$$
