IMP.pdb
     RDKit          3D

 24 24  0  0  1  0  0  0  0  0999 V2000
    8.0990  -21.8478   24.6246 C   0  0  0  0  0  0  0  0  0  0  0  0
    7.0597  -21.6972   23.5364 C   0  0  0  0  0  0  0  0  0  0  0  0
    6.9576  -20.2670   23.1260 C   0  0  2  0  0  0  0  0  0  0  0  0
    8.2800  -19.6703   22.7453 C   0  0  0  0  0  0  0  0  0  0  0  0
    6.1767  -19.4376   24.1229 C   0  0  2  0  0  0  0  0  0  0  0  0
    4.7976  -19.9654   24.0182 N   0  0  0  0  0  0  0  0  0  0  0  0
    6.1836  -17.9952   23.8434 C   0  0  0  0  0  0  0  0  0  0  0  0
    5.5271  -17.5714   22.8334 O   0  0  0  0  0  0  0  0  0  0  0  0
    6.0105  -11.8330   27.3888 C   0  0  0  0  0  0  0  0  0  0  0  0
    7.5653  -12.6040   26.8700 S   0  0  0  0  0  0  0  0  0  0  0  0
    7.3550  -13.3541   25.1986 C   0  0  0  0  0  0  0  0  0  0  0  0
    7.2026  -14.7985   25.3993 C   0  0  0  0  0  0  0  0  0  0  0  0
    6.9387  -15.5882   24.1244 C   0  0  2  0  0  0  0  0  0  0  0  0
    6.8605  -17.0125   24.6029 N   0  0  0  0  0  0  0  0  0  0  0  0
    8.0142  -15.4812   23.1448 C   0  0  0  0  0  0  0  0  0  0  0  0
    9.0562  -16.2087   23.3734 O   0  0  0  0  0  0  0  0  0  0  0  0
    8.0811  -14.6940   21.9656 N   0  0  0  0  0  0  0  0  0  0  0  0
    7.0759  -13.7199   21.6587 C   0  0  0  0  0  0  0  0  0  0  0  0
    7.7539  -12.8128   20.6613 C   0  0  0  0  0  0  0  0  0  0  0  0
    8.6077  -13.8068   19.8528 C   0  0  0  0  0  0  0  0  0  0  0  0
    9.0749  -14.7385   20.9743 C   0  0  1  0  0  0  0  0  0  0  0  0
   10.4102  -14.2664   21.4713 C   0  0  0  0  0  0  0  0  0  0  0  0
   11.3912  -14.3219   20.7031 O   0  0  0  0  0  0  0  0  0  0  0  0
   10.5319  -13.7885   22.7409 O   0  0  0  0  0  0  0  0  0  0  0  0
  1  2  1  0
  3  2  1  0
  3  4  1  1
  5  3  1  0
  5  6  1  6
  7  8  2  0
  7  5  1  0
 10  9  1  0
 11 12  1  0
 11 10  1  0
 13 12  1  1
 13 15  1  0
 13 14  1  0
 14  7  1  0
 15 17  1  0
 16 15  2  0
 17 21  1  0
 17 18  1  0
 19 18  1  0
 20 19  1  0
 20 21  1  0
 21 22  1  1
 22 23  2  0
 22 24  1  0
M  END
$$$$
