IMP.pdb
     RDKit          3D

 24 24  0  0  1  0  0  0  0  0999 V2000
    6.7092  -22.6907   23.1384 C   0  0  0  0  0  0  0  0  0  0  0  0
    5.7875  -21.7382   23.8665 C   0  0  0  0  0  0  0  0  0  0  0  0
    6.1689  -20.3291   23.5608 C   0  0  2  0  0  0  0  0  0  0  0  0
    7.6514  -20.1034   23.5898 C   0  0  0  0  0  0  0  0  0  0  0  0
    5.3820  -19.3300   24.3819 C   0  0  2  0  0  0  0  0  0  0  0  0
    3.9868  -19.5169   23.9236 N   0  0  0  0  0  0  0  0  0  0  0  0
    5.7912  -17.9327   24.1846 C   0  0  0  0  0  0  0  0  0  0  0  0
    5.6020  -17.4028   23.0383 O   0  0  0  0  0  0  0  0  0  0  0  0
    5.6528  -12.5121   27.1746 C   0  0  0  0  0  0  0  0  0  0  0  0
    6.8864  -12.4976   25.8482 S   0  0  0  0  0  0  0  0  0  0  0  0
    8.0568  -13.9038   26.0783 C   0  0  0  0  0  0  0  0  0  0  0  0
    7.2443  -15.1216   26.1592 C   0  0  0  0  0  0  0  0  0  0  0  0
    6.8753  -15.7246   24.8106 C   0  0  2  0  0  0  0  0  0  0  0  0
    6.3847  -17.1024   25.1639 N   0  0  0  0  0  0  0  0  0  0  0  0
    8.0104  -15.8496   23.9030 C   0  0  0  0  0  0  0  0  0  0  0  0
    8.8737  -16.7608   24.2059 O   0  0  0  0  0  0  0  0  0  0  0  0
    8.3037  -15.1157   22.7240 N   0  0  0  0  0  0  0  0  0  0  0  0
    7.4789  -14.0242   22.2978 C   0  0  0  0  0  0  0  0  0  0  0  0
    8.3726  -13.2488   21.3612 C   0  0  0  0  0  0  0  0  0  0  0  0
    9.1578  -14.3741   20.6627 C   0  0  0  0  0  0  0  0  0  0  0  0
    9.3766  -15.3254   21.8423 C   0  0  1  0  0  0  0  0  0  0  0  0
   10.7074  -15.0235   22.4674 C   0  0  0  0  0  0  0  0  0  0  0  0
   10.7364  -14.5645   23.6268 O   0  0  0  0  0  0  0  0  0  0  0  0
   11.8535  -15.2524   21.7683 O   0  0  0  0  0  0  0  0  0  0  0  0
  1  2  1  0
  3  2  1  0
  3  4  1  1
  5  3  1  0
  5  6  1  6
  7  8  2  0
  7  5  1  0
 10  9  1  0
 11 12  1  0
 11 10  1  0
 13 12  1  1
 13 15  1  0
 13 14  1  0
 14  7  1  0
 15 17  1  0
 16 15  2  0
 17 21  1  0
 17 18  1  0
 19 18  1  0
 20 19  1  0
 20 21  1  0
 21 22  1  1
 22 23  2  0
 22 24  1  0
M  END
$$$$
