IMP.pdb
     RDKit          3D

 24 24  0  0  1  0  0  0  0  0999 V2000
    7.2492  -22.9153   23.1775 C   0  0  0  0  0  0  0  0  0  0  0  0
    6.2410  -22.0186   23.8606 C   0  0  0  0  0  0  0  0  0  0  0  0
    6.4907  -20.5965   23.4869 C   0  0  2  0  0  0  0  0  0  0  0  0
    7.9411  -20.2196   23.5500 C   0  0  0  0  0  0  0  0  0  0  0  0
    5.5777  -19.6401   24.2240 C   0  0  2  0  0  0  0  0  0  0  0  0
    4.2274  -19.9850   23.7246 N   0  0  0  0  0  0  0  0  0  0  0  0
    5.8589  -18.2209   23.9683 C   0  0  0  0  0  0  0  0  0  0  0  0
    5.6223  -17.7576   22.8020 O   0  0  0  0  0  0  0  0  0  0  0  0
    6.8178  -11.1898   27.2892 C   0  0  0  0  0  0  0  0  0  0  0  0
    6.5836  -12.9849   27.3524 S   0  0  0  0  0  0  0  0  0  0  0  0
    7.1137  -13.7334   25.7527 C   0  0  0  0  0  0  0  0  0  0  0  0
    6.8613  -15.1740   25.8555 C   0  0  0  0  0  0  0  0  0  0  0  0
    6.6599  -15.8762   24.5195 C   0  0  2  0  0  0  0  0  0  0  0  0
    6.3754  -17.3010   24.9105 N   0  0  0  0  0  0  0  0  0  0  0  0
    7.8445  -15.8512   23.6687 C   0  0  0  0  0  0  0  0  0  0  0  0
    8.8078  -16.6342   24.0244 O   0  0  0  0  0  0  0  0  0  0  0  0
    8.0928  -15.0920   22.4954 N   0  0  0  0  0  0  0  0  0  0  0  0
    7.2319  -14.0149   22.1055 C   0  0  0  0  0  0  0  0  0  0  0  0
    8.0847  -13.2030   21.1617 C   0  0  0  0  0  0  0  0  0  0  0  0
    8.8813  -14.2973   20.4278 C   0  0  0  0  0  0  0  0  0  0  0  0
    9.1502  -15.2611   21.5867 C   0  0  1  0  0  0  0  0  0  0  0  0
   10.4870  -14.9359   22.1867 C   0  0  0  0  0  0  0  0  0  0  0  0
   10.5281  -14.4475   23.3337 O   0  0  0  0  0  0  0  0  0  0  0  0
   11.6255  -15.1758   21.4788 O   0  0  0  0  0  0  0  0  0  0  0  0
  1  2  1  0
  3  2  1  0
  3  4  1  1
  5  3  1  0
  5  6  1  6
  7  8  2  0
  7  5  1  0
 10  9  1  0
 11 12  1  0
 11 10  1  0
 13 12  1  1
 13 15  1  0
 13 14  1  0
 14  7  1  0
 15 17  1  0
 16 15  2  0
 17 21  1  0
 17 18  1  0
 19 18  1  0
 20 19  1  0
 20 21  1  0
 21 22  1  1
 22 23  2  0
 22 24  1  0
M  END
$$$$
