IMP.pdb
     RDKit          3D

 24 24  0  0  1  0  0  0  0  0999 V2000
    6.2806  -23.0817   23.0055 C   0  0  0  0  0  0  0  0  0  0  0  0
    5.4012  -21.8515   23.0262 C   0  0  0  0  0  0  0  0  0  0  0  0
    6.2391  -20.6314   23.2101 C   0  0  2  0  0  0  0  0  0  0  0  0
    7.3077  -20.8048   24.2481 C   0  0  0  0  0  0  0  0  0  0  0  0
    5.4031  -19.3831   23.3955 C   0  0  2  0  0  0  0  0  0  0  0  0
    4.6352  -19.2814   22.1340 N   0  0  0  0  0  0  0  0  0  0  0  0
    6.1872  -18.1583   23.6048 C   0  0  0  0  0  0  0  0  0  0  0  0
    6.9725  -17.7760   22.6731 O   0  0  0  0  0  0  0  0  0  0  0  0
    7.7982  -11.4070   26.1378 C   0  0  0  0  0  0  0  0  0  0  0  0
    6.9367  -12.8849   25.5422 S   0  0  0  0  0  0  0  0  0  0  0  0
    7.3980  -14.3320   26.5879 C   0  0  0  0  0  0  0  0  0  0  0  0
    6.5683  -15.4564   26.1440 C   0  0  0  0  0  0  0  0  0  0  0  0
    7.0992  -16.1869   24.9180 C   0  0  2  0  0  0  0  0  0  0  0  0
    6.1527  -17.3461   24.7623 N   0  0  0  0  0  0  0  0  0  0  0  0
    8.4509  -16.7059   25.0944 C   0  0  0  0  0  0  0  0  0  0  0  0
    8.6231  -17.4925   26.1039 O   0  0  0  0  0  0  0  0  0  0  0  0
    9.6114  -16.4765   24.3099 N   0  0  0  0  0  0  0  0  0  0  0  0
    9.5819  -15.6156   23.1648 C   0  0  0  0  0  0  0  0  0  0  0  0
   11.0334  -15.2647   22.9473 C   0  0  0  0  0  0  0  0  0  0  0  0
   11.7402  -16.5816   23.3173 C   0  0  0  0  0  0  0  0  0  0  0  0
   10.8906  -17.0193   24.5134 C   0  0  1  0  0  0  0  0  0  0  0  0
   11.5367  -16.5225   25.7739 C   0  0  0  0  0  0  0  0  0  0  0  0
   12.6462  -16.9870   26.1038 O   0  0  0  0  0  0  0  0  0  0  0  0
   10.9098  -15.5812   26.5327 O   0  0  0  0  0  0  0  0  0  0  0  0
  1  2  1  0
  3  2  1  0
  3  4  1  1
  5  3  1  0
  5  6  1  6
  7  8  2  0
  7  5  1  0
 10  9  1  0
 11 12  1  0
 11 10  1  0
 13 12  1  1
 13 15  1  0
 13 14  1  0
 14  7  1  0
 15 17  1  0
 16 15  2  0
 17 21  1  0
 17 18  1  0
 19 18  1  0
 20 19  1  0
 20 21  1  0
 21 22  1  1
 22 23  2  0
 22 24  1  0
M  END
$$$$
