IMP.pdb
     RDKit          3D

 24 24  0  0  1  0  0  0  0  0999 V2000
   12.7859  -18.8644   22.0832 C   0  0  0  0  0  0  0  0  0  0  0  0
   12.0082  -17.5822   21.8876 C   0  0  0  0  0  0  0  0  0  0  0  0
   10.5928  -17.8952   21.5369 C   0  0  2  0  0  0  0  0  0  0  0  0
   10.4711  -18.8583   20.3936 C   0  0  0  0  0  0  0  0  0  0  0  0
    9.7511  -16.6471   21.3775 C   0  0  2  0  0  0  0  0  0  0  0  0
   10.4857  -15.8520   20.3677 N   0  0  0  0  0  0  0  0  0  0  0  0
    9.5922  -15.8657   22.6116 C   0  0  0  0  0  0  0  0  0  0  0  0
   10.5101  -15.0347   22.9240 O   0  0  0  0  0  0  0  0  0  0  0  0
    5.4994  -11.7127   26.3699 C   0  0  0  0  0  0  0  0  0  0  0  0
    7.0418  -12.6574   26.2706 S   0  0  0  0  0  0  0  0  0  0  0  0
    6.6716  -14.4593   26.3987 C   0  0  0  0  0  0  0  0  0  0  0  0
    6.9721  -15.0470   25.0895 C   0  0  0  0  0  0  0  0  0  0  0  0
    8.4554  -15.1085   24.7510 C   0  0  2  0  0  0  0  0  0  0  0  0
    8.4967  -15.9473   23.5027 N   0  0  0  0  0  0  0  0  0  0  0  0
    9.2570  -15.7606   25.7806 C   0  0  0  0  0  0  0  0  0  0  0  0
    9.2651  -17.0515   25.7521 O   0  0  0  0  0  0  0  0  0  0  0  0
   10.0400  -15.1800   26.8124 N   0  0  0  0  0  0  0  0  0  0  0  0
   10.1204  -13.7592   26.9807 C   0  0  0  0  0  0  0  0  0  0  0  0
   10.5978  -13.5970   28.4031 C   0  0  0  0  0  0  0  0  0  0  0  0
   11.5714  -14.7805   28.5512 C   0  0  0  0  0  0  0  0  0  0  0  0
   10.8116  -15.8567   27.7710 C   0  0  1  0  0  0  0  0  0  0  0  0
    9.9755  -16.6515   28.7314 C   0  0  0  0  0  0  0  0  0  0  0  0
   10.5478  -17.3913   29.5565 O   0  0  0  0  0  0  0  0  0  0  0  0
    8.6176  -16.5555   28.6899 O   0  0  0  0  0  0  0  0  0  0  0  0
  1  2  1  0
  3  2  1  0
  3  4  1  6
  5  3  1  0
  5  6  1  6
  7  8  2  0
  7  5  1  0
 10  9  1  0
 11 12  1  0
 11 10  1  0
 13 12  1  1
 13 15  1  0
 13 14  1  0
 14  7  1  0
 15 17  1  0
 16 15  2  0
 17 21  1  0
 17 18  1  0
 19 18  1  0
 20 19  1  0
 20 21  1  0
 21 22  1  1
 22 23  2  0
 22 24  1  0
M  END
$$$$
