IMP.pdb
     RDKit          3D

 24 24  0  0  1  0  0  0  0  0999 V2000
    6.5897  -18.7417   18.4304 C   0  0  0  0  0  0  0  0  0  0  0  0
    6.5105  -17.2642   18.7432 C   0  0  0  0  0  0  0  0  0  0  0  0
    7.3712  -16.9473   19.9192 C   0  0  2  0  0  0  0  0  0  0  0  0
    7.2199  -17.9332   21.0394 C   0  0  0  0  0  0  0  0  0  0  0  0
    7.2407  -15.5031   20.3539 C   0  0  2  0  0  0  0  0  0  0  0  0
    7.7281  -14.7368   19.1849 N   0  0  0  0  0  0  0  0  0  0  0  0
    8.0308  -15.1582   21.5437 C   0  0  0  0  0  0  0  0  0  0  0  0
    9.3008  -15.0905   21.4281 O   0  0  0  0  0  0  0  0  0  0  0  0
    5.4549  -12.0781   26.6279 C   0  0  0  0  0  0  0  0  0  0  0  0
    7.2320  -11.7390   26.7182 S   0  0  0  0  0  0  0  0  0  0  0  0
    8.1713  -13.1968   26.0916 C   0  0  0  0  0  0  0  0  0  0  0  0
    7.5827  -13.5548   24.7973 C   0  0  0  0  0  0  0  0  0  0  0  0
    8.4182  -14.5227   23.9704 C   0  0  2  0  0  0  0  0  0  0  0  0
    7.5075  -14.8872   22.8296 N   0  0  0  0  0  0  0  0  0  0  0  0
    8.7764  -15.7391   24.6913 C   0  0  0  0  0  0  0  0  0  0  0  0
    7.7877  -16.4330   25.1479 O   0  0  0  0  0  0  0  0  0  0  0  0
   10.0611  -16.2791   24.9609 N   0  0  0  0  0  0  0  0  0  0  0  0
   11.2570  -15.6043   24.5510 C   0  0  0  0  0  0  0  0  0  0  0  0
   12.3247  -16.2103   25.4284 C   0  0  0  0  0  0  0  0  0  0  0  0
   11.8656  -17.6767   25.5253 C   0  0  0  0  0  0  0  0  0  0  0  0
   10.3505  -17.4810   25.6273 C   0  0  1  0  0  0  0  0  0  0  0  0
    9.9631  -17.4472   27.0770 C   0  0  0  0  0  0  0  0  0  0  0  0
    9.6286  -16.3580   27.5843 O   0  0  0  0  0  0  0  0  0  0  0  0
    9.9816  -18.5938   27.8117 O   0  0  0  0  0  0  0  0  0  0  0  0
  1  2  1  0
  3  2  1  0
  3  4  1  1
  5  3  1  0
  5  6  1  6
  7  8  2  0
  7  5  1  0
 10  9  1  0
 11 12  1  0
 11 10  1  0
 13 12  1  1
 13 15  1  0
 13 14  1  0
 14  7  1  0
 15 17  1  0
 16 15  2  0
 17 21  1  0
 17 18  1  0
 19 18  1  0
 20 19  1  0
 20 21  1  0
 21 22  1  1
 22 23  2  0
 22 24  1  0
M  END
$$$$
