IMP.pdb
     RDKit          3D

 24 24  0  0  1  0  0  0  0  0999 V2000
    8.1620  -11.4156   28.2582 C   0  0  0  0  0  0  0  0  0  0  0  0
    7.0704  -12.4267   27.9879 C   0  0  0  0  0  0  0  0  0  0  0  0
    7.4868  -13.3412   26.8857 C   0  0  2  0  0  0  0  0  0  0  0  0
    8.8253  -12.9905   26.3069 C   0  0  0  0  0  0  0  0  0  0  0  0
    6.4000  -13.5217   25.8476 C   0  0  2  0  0  0  0  0  0  0  0  0
    5.3194  -14.2155   26.5842 N   0  0  0  0  0  0  0  0  0  0  0  0
    6.8055  -14.3209   24.6833 C   0  0  0  0  0  0  0  0  0  0  0  0
    6.8656  -15.5900   24.8116 O   0  0  0  0  0  0  0  0  0  0  0  0
    8.8519  -13.8590   17.0244 C   0  0  0  0  0  0  0  0  0  0  0  0
    8.2858  -13.1283   18.5823 S   0  0  0  0  0  0  0  0  0  0  0  0
    8.0782  -14.4544   19.8467 C   0  0  0  0  0  0  0  0  0  0  0  0
    7.6863  -13.7916   21.0944 C   0  0  0  0  0  0  0  0  0  0  0  0
    7.5143  -14.7306   22.2807 C   0  0  2  0  0  0  0  0  0  0  0  0
    7.1406  -13.8076   23.4085 N   0  0  0  0  0  0  0  0  0  0  0  0
    8.7381  -15.4385   22.6400 C   0  0  0  0  0  0  0  0  0  0  0  0
    9.6645  -14.7194   23.1805 O   0  0  0  0  0  0  0  0  0  0  0  0
    9.0596  -16.8125   22.4876 N   0  0  0  0  0  0  0  0  0  0  0  0
    8.0827  -17.7651   22.0501 C   0  0  0  0  0  0  0  0  0  0  0  0
    8.9136  -18.9247   21.5578 C   0  0  0  0  0  0  0  0  0  0  0  0
   10.0839  -18.9277   22.5582 C   0  0  0  0  0  0  0  0  0  0  0  0
   10.3026  -17.4216   22.7251 C   0  0  1  0  0  0  0  0  0  0  0  0
   11.3602  -16.9757   21.7578 C   0  0  0  0  0  0  0  0  0  0  0  0
   11.0083  -16.4482   20.6838 O   0  0  0  0  0  0  0  0  0  0  0  0
   12.6761  -17.1509   22.0621 O   0  0  0  0  0  0  0  0  0  0  0  0
  1  2  1  0
  3  2  1  0
  3  4  1  6
  5  3  1  0
  5  6  1  1
  7  8  2  0
  7  5  1  0
 10  9  1  0
 11 12  1  0
 11 10  1  0
 13 12  1  6
 13 15  1  0
 13 14  1  0
 14  7  1  0
 15 17  1  0
 16 15  2  0
 17 21  1  0
 17 18  1  0
 19 18  1  0
 20 19  1  0
 20 21  1  0
 21 22  1  6
 22 23  2  0
 22 24  1  0
M  END
$$$$
