IMP.pdb
     RDKit          3D

 24 24  0  0  1  0  0  0  0  0999 V2000
   10.9751  -18.4101   19.1528 C   0  0  0  0  0  0  0  0  0  0  0  0
    9.7658  -17.5671   19.4907 C   0  0  0  0  0  0  0  0  0  0  0  0
    9.9908  -16.8497   20.7787 C   0  0  2  0  0  0  0  0  0  0  0  0
   10.5872  -17.7247   21.8410 C   0  0  0  0  0  0  0  0  0  0  0  0
    8.7651  -16.0859   21.2325 C   0  0  2  0  0  0  0  0  0  0  0  0
    8.5203  -15.1252   20.1331 N   0  0  0  0  0  0  0  0  0  0  0  0
    8.9403  -15.3632   22.4996 C   0  0  0  0  0  0  0  0  0  0  0  0
    9.7318  -14.3612   22.5203 O   0  0  0  0  0  0  0  0  0  0  0  0
    6.0774  -10.9739   26.3779 C   0  0  0  0  0  0  0  0  0  0  0  0
    5.4017  -12.6224   26.0507 S   0  0  0  0  0  0  0  0  0  0  0  0
    6.4356  -13.4729   24.7827 C   0  0  0  0  0  0  0  0  0  0  0  0
    7.1320  -14.5660   25.4684 C   0  0  0  0  0  0  0  0  0  0  0  0
    8.5373  -14.8417   24.9509 C   0  0  2  0  0  0  0  0  0  0  0  0
    8.3017  -15.6773   23.7220 N   0  0  0  0  0  0  0  0  0  0  0  0
    9.3585  -15.6034   25.8853 C   0  0  0  0  0  0  0  0  0  0  0  0
    9.4956  -16.8592   25.6176 O   0  0  0  0  0  0  0  0  0  0  0  0
   10.0391  -15.1622   27.0501 N   0  0  0  0  0  0  0  0  0  0  0  0
    9.9342  -13.8092   27.5103 C   0  0  0  0  0  0  0  0  0  0  0  0
   10.3567  -13.8926   28.9565 C   0  0  0  0  0  0  0  0  0  0  0  0
   11.4699  -14.9550   28.9043 C   0  0  0  0  0  0  0  0  0  0  0  0
   10.8702  -15.9271   27.8848 C   0  0  1  0  0  0  0  0  0  0  0  0
   10.1220  -17.0001   28.6208 C   0  0  0  0  0  0  0  0  0  0  0  0
   10.7700  -17.8725   29.2330 O   0  0  0  0  0  0  0  0  0  0  0  0
    8.7602  -17.0072   28.6109 O   0  0  0  0  0  0  0  0  0  0  0  0
  1  2  1  0
  3  2  1  0
  3  4  1  1
  5  3  1  0
  5  6  1  6
  7  8  2  0
  7  5  1  0
 10  9  1  0
 11 12  1  0
 11 10  1  0
 13 12  1  1
 13 15  1  0
 13 14  1  0
 14  7  1  0
 15 17  1  0
 16 15  2  0
 17 21  1  0
 17 18  1  0
 19 18  1  0
 20 19  1  0
 20 21  1  0
 21 22  1  1
 22 23  2  0
 22 24  1  0
M  END
$$$$
