IMP.pdb
     RDKit          3D

 24 24  0  0  1  0  0  0  0  0999 V2000
    8.9907  -15.0364   18.0297 C   0  0  0  0  0  0  0  0  0  0  0  0
    9.0880  -16.0979   19.1025 C   0  0  0  0  0  0  0  0  0  0  0  0
    9.3610  -15.4615   20.4234 C   0  0  2  0  0  0  0  0  0  0  0  0
   10.3011  -16.2606   21.2762 C   0  0  0  0  0  0  0  0  0  0  0  0
    8.0907  -15.0482   21.1354 C   0  0  2  0  0  0  0  0  0  0  0  0
    7.5384  -13.9749   20.2784 N   0  0  0  0  0  0  0  0  0  0  0  0
    8.3013  -14.5422   22.4986 C   0  0  0  0  0  0  0  0  0  0  0  0
    8.7836  -13.3683   22.6406 O   0  0  0  0  0  0  0  0  0  0  0  0
    6.7604  -10.9755   26.9537 C   0  0  0  0  0  0  0  0  0  0  0  0
    5.7461  -12.4745   26.8821 S   0  0  0  0  0  0  0  0  0  0  0  0
    6.0825  -13.3730   25.3073 C   0  0  0  0  0  0  0  0  0  0  0  0
    6.8637  -14.5632   25.6579 C   0  0  0  0  0  0  0  0  0  0  0  0
    8.2525  -14.6122   25.0355 C   0  0  2  0  0  0  0  0  0  0  0  0
    8.0134  -15.2454   23.6917 N   0  0  0  0  0  0  0  0  0  0  0  0
    9.1923  -15.4401   25.7831 C   0  0  0  0  0  0  0  0  0  0  0  0
    9.3564  -16.6423   25.3411 O   0  0  0  0  0  0  0  0  0  0  0  0
    9.9632  -15.1138   26.9294 N   0  0  0  0  0  0  0  0  0  0  0  0
    9.8691  -13.8267   27.5523 C   0  0  0  0  0  0  0  0  0  0  0  0
   10.4196  -14.0619   28.9375 C   0  0  0  0  0  0  0  0  0  0  0  0
   11.5474  -15.0745   28.6664 C   0  0  0  0  0  0  0  0  0  0  0  0
   10.8817  -15.9420   27.5947 C   0  0  1  0  0  0  0  0  0  0  0  0
   10.2258  -17.1163   28.2609 C   0  0  0  0  0  0  0  0  0  0  0  0
    8.9801  -17.1669   28.2991 O   0  0  0  0  0  0  0  0  0  0  0  0
   10.9910  -18.1006   28.8092 O   0  0  0  0  0  0  0  0  0  0  0  0
  1  2  1  0
  3  2  1  0
  3  4  1  1
  5  3  1  0
  5  6  1  6
  7  8  2  0
  7  5  1  0
 10  9  1  0
 11 12  1  0
 11 10  1  0
 13 12  1  1
 13 15  1  0
 13 14  1  0
 14  7  1  0
 15 17  1  0
 16 15  2  0
 17 21  1  0
 17 18  1  0
 19 18  1  0
 20 19  1  0
 20 21  1  0
 21 22  1  1
 22 23  2  0
 22 24  1  0
M  END
$$$$
