GLQ.pdb
     RDKit          3D

 22 21  0  0  1  0  0  0  0  0999 V2000
   27.2829  -21.6963  -15.9005 N   0  0  0  0  0  0  0  0  0  0  0  0
   26.5592  -20.6503  -15.2386 C   0  0  0  0  0  0  0  0  0  0  0  0
   25.5849  -21.1645  -14.2335 C   0  0  0  0  0  0  0  0  0  0  0  0
   25.2485  -22.3719  -14.3502 O   0  0  0  0  0  0  0  0  0  0  0  0
   26.0028  -20.1657   -8.9640 C   0  0  0  0  0  0  0  0  0  0  0  0
   25.9661  -20.7780  -10.4140 C   0  0  1  0  0  0  0  0  0  0  0  0
   26.2542  -22.2749  -10.2154 C   0  0  0  0  0  0  0  0  0  0  0  0
   24.5871  -20.5139  -10.8753 C   0  0  0  0  0  0  0  0  0  0  0  0
   24.1314  -20.9292  -12.2140 C   0  0  2  0  0  0  0  0  0  0  0  0
   25.0747  -20.3516  -13.2197 N   0  0  0  0  0  0  0  0  0  0  0  0
   22.7616  -20.6525  -12.6388 C   0  0  0  0  0  0  0  0  0  0  0  0
   21.7096  -20.9441  -11.9908 O   0  0  0  0  0  0  0  0  0  0  0  0
   21.7959  -17.7871  -18.1918 N   0  0  0  0  0  0  0  0  0  0  0  0
   20.4864  -17.7080  -17.5937 C   0  0  0  0  0  0  0  0  0  0  0  0
   19.5590  -17.1685  -18.2410 O   0  0  0  0  0  0  0  0  0  0  0  0
   20.2151  -18.2409  -16.2493 C   0  0  0  0  0  0  0  0  0  0  0  0
   21.4114  -18.8690  -15.6425 C   0  0  0  0  0  0  0  0  0  0  0  0
   21.1909  -19.6081  -14.3489 C   0  0  2  0  0  0  0  0  0  0  0  0
   22.5175  -19.9965  -13.8876 N   0  0  0  0  0  0  0  0  0  0  0  0
   20.3185  -20.8025  -14.4963 C   0  0  0  0  0  0  0  0  0  0  0  0
   19.1086  -20.6993  -14.1834 O   0  0  0  0  0  0  0  0  0  0  0  0
   20.7703  -22.0275  -14.9618 O   0  0  0  0  0  0  0  0  0  0  0  0
  2  3  1  0
  2  1  1  0
  3 10  1  0
  4  3  2  0
  6  5  1  1
  7  6  1  0
  8  6  1  0
  9  8  1  1
 10  9  1  0
 11 19  1  0
 11  9  1  0
 12 11  2  0
 13 14  1  0
 14 15  2  0
 16 17  1  0
 16 14  1  0
 18 19  1  0
 18 17  1  6
 20 18  1  0
 21 20  2  0
 22 20  1  0
M  END
$$$$
