GLQ.pdb
     RDKit          3D

 22 21  0  0  1  0  0  0  0  0999 V2000
   30.8727  -22.1554  -11.3704 N   0  0  0  0  0  0  0  0  0  0  0  0
   30.0602  -20.9794  -11.2575 C   0  0  0  0  0  0  0  0  0  0  0  0
   28.7303  -21.2495  -10.6391 C   0  0  0  0  0  0  0  0  0  0  0  0
   28.1315  -22.2837  -11.0346 O   0  0  0  0  0  0  0  0  0  0  0  0
   27.4211  -18.8762   -5.8951 C   0  0  0  0  0  0  0  0  0  0  0  0
   27.9496  -19.8346   -7.0269 C   0  0  1  0  0  0  0  0  0  0  0  0
   28.5779  -21.0198   -6.2759 C   0  0  0  0  0  0  0  0  0  0  0  0
   26.7299  -20.2080   -7.7732 C   0  0  0  0  0  0  0  0  0  0  0  0
   26.7933  -20.6515   -9.1773 C   0  0  2  0  0  0  0  0  0  0  0  0
   28.1806  -20.4022   -9.6754 N   0  0  0  0  0  0  0  0  0  0  0  0
   25.8408  -20.1285  -10.1533 C   0  0  0  0  0  0  0  0  0  0  0  0
   25.7669  -18.9239  -10.5473 O   0  0  0  0  0  0  0  0  0  0  0  0
   25.1975  -24.7294  -14.3297 N   0  0  0  0  0  0  0  0  0  0  0  0
   24.5270  -23.4531  -14.3158 C   0  0  0  0  0  0  0  0  0  0  0  0
   24.2919  -22.8832  -15.4067 O   0  0  0  0  0  0  0  0  0  0  0  0
   24.1163  -22.8072  -13.0592 C   0  0  0  0  0  0  0  0  0  0  0  0
   24.4269  -21.3591  -13.0446 C   0  0  0  0  0  0  0  0  0  0  0  0
   23.9794  -20.5948  -11.8266 C   0  0  2  0  0  0  0  0  0  0  0  0
   24.8793  -21.0017  -10.7551 N   0  0  0  0  0  0  0  0  0  0  0  0
   22.5661  -20.8624  -11.4518 C   0  0  0  0  0  0  0  0  0  0  0  0
   22.3407  -21.5360  -10.4185 O   0  0  0  0  0  0  0  0  0  0  0  0
   21.4808  -20.4069  -12.1840 O   0  0  0  0  0  0  0  0  0  0  0  0
  2  3  1  0
  2  1  1  0
  3 10  1  0
  4  3  2  0
  6  5  1  1
  7  6  1  0
  8  6  1  0
  9  8  1  1
 10  9  1  0
 11 19  1  0
 11  9  1  0
 12 11  2  0
 13 14  1  0
 14 15  2  0
 16 17  1  0
 16 14  1  0
 18 19  1  0
 18 17  1  6
 20 18  1  0
 21 20  2  0
 22 20  1  0
M  END
$$$$
