GLQ.pdb
     RDKit          3D

 22 21  0  0  1  0  0  0  0  0999 V2000
   26.6720  -25.5475  -16.6943 N   0  0  0  0  0  0  0  0  0  0  0  0
   26.5373  -24.1769  -17.0930 C   0  0  0  0  0  0  0  0  0  0  0  0
   25.8620  -23.3362  -16.0630 C   0  0  0  0  0  0  0  0  0  0  0  0
   25.2925  -23.9537  -15.1254 O   0  0  0  0  0  0  0  0  0  0  0  0
   28.0003  -18.5543  -14.5387 C   0  0  0  0  0  0  0  0  0  0  0  0
   27.5305  -20.0517  -14.6641 C   0  0  1  0  0  0  0  0  0  0  0  0
   27.9581  -20.7093  -13.3419 C   0  0  0  0  0  0  0  0  0  0  0  0
   26.0631  -19.9518  -14.8087 C   0  0  0  0  0  0  0  0  0  0  0  0
   25.2302  -21.1458  -15.0385 C   0  0  2  0  0  0  0  0  0  0  0  0
   25.8616  -21.9420  -16.1349 N   0  0  0  0  0  0  0  0  0  0  0  0
   23.8049  -20.9997  -15.3225 C   0  0  0  0  0  0  0  0  0  0  0  0
   23.2977  -20.7161  -16.4512 O   0  0  0  0  0  0  0  0  0  0  0  0
   19.6537  -23.0795  -11.1034 N   0  0  0  0  0  0  0  0  0  0  0  0
   18.7765  -22.4568  -12.0633 C   0  0  0  0  0  0  0  0  0  0  0  0
   17.5394  -22.5034  -11.8693 O   0  0  0  0  0  0  0  0  0  0  0  0
   19.2958  -21.7736  -13.2585 C   0  0  0  0  0  0  0  0  0  0  0  0
   20.7756  -21.7945  -13.3186 C   0  0  0  0  0  0  0  0  0  0  0  0
   21.4049  -21.0635  -14.4751 C   0  0  2  0  0  0  0  0  0  0  0  0
   22.8439  -21.1797  -14.2770 N   0  0  0  0  0  0  0  0  0  0  0  0
   21.0023  -19.6349  -14.5560 C   0  0  0  0  0  0  0  0  0  0  0  0
   21.6518  -18.7939  -13.8904 O   0  0  0  0  0  0  0  0  0  0  0  0
   19.9453  -19.1803  -15.3291 O   0  0  0  0  0  0  0  0  0  0  0  0
  2  3  1  0
  2  1  1  0
  3 10  1  0
  4  3  2  0
  6  5  1  1
  7  6  1  0
  8  6  1  0
  9  8  1  6
 10  9  1  0
 11 19  1  0
 11  9  1  0
 12 11  2  0
 13 14  1  0
 14 15  2  0
 16 17  1  0
 16 14  1  0
 18 19  1  0
 18 17  1  1
 20 18  1  0
 21 20  2  0
 22 20  1  0
M  END
$$$$
