GLQ.pdb
     RDKit          3D

 22 21  0  0  1  0  0  0  0  0999 V2000
   22.1928  -12.5596  -19.8330 N   0  0  0  0  0  0  0  0  0  0  0  0
   22.3507  -12.9471  -18.4616 C   0  0  0  0  0  0  0  0  0  0  0  0
   22.5450  -11.7844  -17.5482 C   0  0  0  0  0  0  0  0  0  0  0  0
   21.6597  -11.6114  -16.6702 O   0  0  0  0  0  0  0  0  0  0  0  0
   27.5831   -9.8116  -16.2568 C   0  0  0  0  0  0  0  0  0  0  0  0
   26.1849  -10.5303  -16.1710 C   0  0  1  0  0  0  0  0  0  0  0  0
   26.0405  -10.9331  -14.6945 C   0  0  0  0  0  0  0  0  0  0  0  0
   25.2234   -9.4845  -16.5787 C   0  0  0  0  0  0  0  0  0  0  0  0
   23.7864   -9.7769  -16.7266 C   0  0  2  0  0  0  0  0  0  0  0  0
   23.6475  -10.9355  -17.6610 N   0  0  0  0  0  0  0  0  0  0  0  0
   22.8645   -8.7229  -17.1420 C   0  0  0  0  0  0  0  0  0  0  0  0
   22.6761   -8.3280  -18.3337 O   0  0  0  0  0  0  0  0  0  0  0  0
   17.8224   -9.0146  -18.0261 N   0  0  0  0  0  0  0  0  0  0  0  0
   17.5207   -7.7444  -17.4143 C   0  0  0  0  0  0  0  0  0  0  0  0
   16.4011   -7.2232  -17.6266 O   0  0  0  0  0  0  0  0  0  0  0  0
   18.4905   -7.0491  -16.5534 C   0  0  0  0  0  0  0  0  0  0  0  0
   19.7302   -7.8352  -16.3558 C   0  0  0  0  0  0  0  0  0  0  0  0
   21.0260   -7.0819  -16.5021 C   0  0  2  0  0  0  0  0  0  0  0  0
   22.0750   -8.0358  -16.1654 N   0  0  0  0  0  0  0  0  0  0  0  0
   21.1102   -5.8826  -15.6279 C   0  0  0  0  0  0  0  0  0  0  0  0
   21.6587   -5.9997  -14.5065 O   0  0  0  0  0  0  0  0  0  0  0  0
   20.6141   -4.6386  -15.9856 O   0  0  0  0  0  0  0  0  0  0  0  0
  2  3  1  0
  2  1  1  0
  3 10  1  0
  4  3  2  0
  6  5  1  1
  7  6  1  0
  8  6  1  0
  9  8  1  6
 10  9  1  0
 11 19  1  0
 11  9  1  0
 12 11  2  0
 13 14  1  0
 14 15  2  0
 16 17  1  0
 16 14  1  0
 18 19  1  0
 18 17  1  1
 20 18  1  0
 21 20  2  0
 22 20  1  0
M  END
$$$$
