GLQ.pdb
     RDKit          3D

 22 21  0  0  1  0  0  0  0  0999 V2000
   26.1762  -17.9398  -16.7368 N   0  0  0  0  0  0  0  0  0  0  0  0
   25.6073  -18.1904  -15.4448 C   0  0  0  0  0  0  0  0  0  0  0  0
   25.8534  -19.5795  -14.9614 C   0  0  0  0  0  0  0  0  0  0  0  0
   26.3658  -20.3758  -15.7909 O   0  0  0  0  0  0  0  0  0  0  0  0
   26.0390  -21.4081   -9.4161 C   0  0  0  0  0  0  0  0  0  0  0  0
   25.2490  -21.0626  -10.7333 C   0  0  1  0  0  0  0  0  0  0  0  0
   24.9088  -19.5688  -10.6067 C   0  0  0  0  0  0  0  0  0  0  0  0
   26.2195  -21.3421  -11.8123 C   0  0  0  0  0  0  0  0  0  0  0  0
   25.8073  -21.3783  -13.2268 C   0  0  2  0  0  0  0  0  0  0  0  0
   25.5332  -19.9744  -13.6612 N   0  0  0  0  0  0  0  0  0  0  0  0
   24.6933  -22.2266  -13.6426 C   0  0  0  0  0  0  0  0  0  0  0  0
   24.6892  -23.4961  -13.6510 O   0  0  0  0  0  0  0  0  0  0  0  0
   19.3051  -22.5931  -11.5801 N   0  0  0  0  0  0  0  0  0  0  0  0
   19.5585  -21.3253  -12.2181 C   0  0  0  0  0  0  0  0  0  0  0  0
   18.8827  -20.3290  -11.8704 O   0  0  0  0  0  0  0  0  0  0  0  0
   20.5842  -21.1746  -13.2623 C   0  0  0  0  0  0  0  0  0  0  0  0
   21.3269  -22.4329  -13.5054 C   0  0  0  0  0  0  0  0  0  0  0  0
   22.3461  -22.4004  -14.6136 C   0  0  2  0  0  0  0  0  0  0  0  0
   23.4700  -21.6338  -14.0912 N   0  0  0  0  0  0  0  0  0  0  0  0
   21.8324  -21.7868  -15.8662 C   0  0  0  0  0  0  0  0  0  0  0  0
   20.9657  -22.4104  -16.5237 O   0  0  0  0  0  0  0  0  0  0  0  0
   22.2601  -20.5596  -16.3486 O   0  0  0  0  0  0  0  0  0  0  0  0
  2  3  1  0
  2  1  1  0
  3 10  1  0
  4  3  2  0
  6  5  1  1
  7  6  1  0
  8  6  1  0
  9  8  1  1
 10  9  1  0
 11 19  1  0
 11  9  1  0
 12 11  2  0
 13 14  1  0
 14 15  2  0
 16 17  1  0
 16 14  1  0
 18 19  1  0
 18 17  1  1
 20 18  1  0
 21 20  2  0
 22 20  1  0
M  END
$$$$
