GLQ.pdb
     RDKit          3D

 22 21  0  0  1  0  0  0  0  0999 V2000
   25.7326  -20.4496   -9.4841 N   0  0  0  0  0  0  0  0  0  0  0  0
   26.1484  -20.9571  -10.7590 C   0  0  0  0  0  0  0  0  0  0  0  0
   25.5182  -20.2386  -11.9037 C   0  0  0  0  0  0  0  0  0  0  0  0
   24.5768  -19.4530  -11.6185 O   0  0  0  0  0  0  0  0  0  0  0  0
   28.2093  -18.4751  -16.4339 C   0  0  0  0  0  0  0  0  0  0  0  0
   27.3577  -18.4358  -15.1103 C   0  0  1  0  0  0  0  0  0  0  0  0
   26.8639  -16.9839  -15.0041 C   0  0  0  0  0  0  0  0  0  0  0  0
   26.2649  -19.3980  -15.3634 C   0  0  0  0  0  0  0  0  0  0  0  0
   25.2585  -19.7072  -14.3320 C   0  0  2  0  0  0  0  0  0  0  0  0
   25.9486  -20.4271  -13.2183 N   0  0  0  0  0  0  0  0  0  0  0  0
   24.0471  -20.4412  -14.6888 C   0  0  0  0  0  0  0  0  0  0  0  0
   23.9486  -21.7018  -14.8020 O   0  0  0  0  0  0  0  0  0  0  0  0
   19.2470  -22.1337  -11.2087 N   0  0  0  0  0  0  0  0  0  0  0  0
   19.4594  -21.1850  -12.2734 C   0  0  0  0  0  0  0  0  0  0  0  0
   18.5988  -20.2957  -12.4698 O   0  0  0  0  0  0  0  0  0  0  0  0
   20.6544  -21.2368  -13.1304 C   0  0  0  0  0  0  0  0  0  0  0  0
   20.6459  -20.1817  -14.1699 C   0  0  0  0  0  0  0  0  0  0  0  0
   21.5840  -20.3836  -15.3306 C   0  0  2  0  0  0  0  0  0  0  0  0
   22.8300  -19.7330  -14.9462 N   0  0  0  0  0  0  0  0  0  0  0  0
   21.0709  -19.8179  -16.6058 C   0  0  0  0  0  0  0  0  0  0  0  0
   21.4856  -18.6913  -16.9677 O   0  0  0  0  0  0  0  0  0  0  0  0
   20.1566  -20.4694  -17.4190 O   0  0  0  0  0  0  0  0  0  0  0  0
  2  3  1  0
  2  1  1  0
  3 10  1  0
  4  3  2  0
  6  5  1  6
  7  6  1  0
  8  6  1  0
  9  8  1  6
 10  9  1  0
 11 19  1  0
 11  9  1  0
 12 11  2  0
 13 14  1  0
 14 15  2  0
 16 17  1  0
 16 14  1  0
 18 19  1  0
 18 17  1  1
 20 18  1  0
 21 20  2  0
 22 20  1  0
M  END
$$$$
