GLQ.pdb
     RDKit          3D

 22 21  0  0  1  0  0  0  0  0999 V2000
   16.5579  -26.0878   -5.1325 N   0  0  0  0  0  0  0  0  0  0  0  0
   17.1215  -25.5708   -3.9198 C   0  0  0  0  0  0  0  0  0  0  0  0
   16.1022  -25.3497   -2.8538 C   0  0  0  0  0  0  0  0  0  0  0  0
   14.8999  -25.3362   -3.2266 O   0  0  0  0  0  0  0  0  0  0  0  0
   16.4845  -26.9411    2.4689 C   0  0  0  0  0  0  0  0  0  0  0  0
   16.0062  -26.8117    0.9745 C   0  0  1  0  0  0  0  0  0  0  0  0
   14.6865  -27.5981    0.9153 C   0  0  0  0  0  0  0  0  0  0  0  0
   15.8184  -25.3578    0.7871 C   0  0  0  0  0  0  0  0  0  0  0  0
   15.4171  -24.7960   -0.5150 C   0  0  2  0  0  0  0  0  0  0  0  0
   16.4619  -25.1680   -1.5173 N   0  0  0  0  0  0  0  0  0  0  0  0
   15.1315  -23.3689   -0.6391 C   0  0  0  0  0  0  0  0  0  0  0  0
   15.9879  -22.4555   -0.8488 O   0  0  0  0  0  0  0  0  0  0  0  0
    9.6811  -19.1437   -3.1780 N   0  0  0  0  0  0  0  0  0  0  0  0
   10.2918  -20.2751   -2.5255 C   0  0  0  0  0  0  0  0  0  0  0  0
    9.6883  -21.3732   -2.5315 O   0  0  0  0  0  0  0  0  0  0  0  0
   11.5978  -20.1712   -1.8556 C   0  0  0  0  0  0  0  0  0  0  0  0
   12.1624  -21.4982   -1.5175 C   0  0  0  0  0  0  0  0  0  0  0  0
   13.4081  -21.4952   -0.6712 C   0  0  2  0  0  0  0  0  0  0  0  0
   13.7858  -22.8948   -0.5233 N   0  0  0  0  0  0  0  0  0  0  0  0
   13.2122  -20.8634    0.6600 C   0  0  0  0  0  0  0  0  0  0  0  0
   13.0518  -19.6209    0.7124 O   0  0  0  0  0  0  0  0  0  0  0  0
   13.1970  -21.5746    1.8497 O   0  0  0  0  0  0  0  0  0  0  0  0
  2  3  1  0
  2  1  1  0
  3 10  1  0
  4  3  2  0
  6  5  1  1
  7  6  1  0
  8  6  1  0
  9  8  1  1
 10  9  1  0
 11 19  1  0
 11  9  1  0
 12 11  2  0
 13 14  1  0
 14 15  2  0
 16 17  1  0
 16 14  1  0
 18 19  1  0
 18 17  1  6
 20 18  1  0
 21 20  2  0
 22 20  1  0
M  END
$$$$
