GLQ.pdb
     RDKit          3D

 22 21  0  0  1  0  0  0  0  0999 V2000
   26.5036  -21.7451  -11.7190 N   0  0  0  0  0  0  0  0  0  0  0  0
   25.6923  -21.9934  -12.8749 C   0  0  0  0  0  0  0  0  0  0  0  0
   25.0559  -20.7572  -13.4141 C   0  0  0  0  0  0  0  0  0  0  0  0
   24.2952  -20.1337  -12.6284 O   0  0  0  0  0  0  0  0  0  0  0  0
   27.5253  -17.2813  -16.7773 C   0  0  0  0  0  0  0  0  0  0  0  0
   26.7659  -17.8385  -15.5157 C   0  0  1  0  0  0  0  0  0  0  0  0
   26.5858  -16.6200  -14.5959 C   0  0  0  0  0  0  0  0  0  0  0  0
   25.4880  -18.3393  -16.0639 C   0  0  0  0  0  0  0  0  0  0  0  0
   24.5532  -19.1255  -15.2392 C   0  0  2  0  0  0  0  0  0  0  0  0
   25.2910  -20.3165  -14.7177 N   0  0  0  0  0  0  0  0  0  0  0  0
   23.2787  -19.5682  -15.7988 C   0  0  0  0  0  0  0  0  0  0  0  0
   23.1133  -20.5548  -16.5805 O   0  0  0  0  0  0  0  0  0  0  0  0
   20.7414  -20.5773  -12.2713 N   0  0  0  0  0  0  0  0  0  0  0  0
   20.5385  -21.3075  -13.4978 C   0  0  0  0  0  0  0  0  0  0  0  0
   21.1742  -22.3720  -13.6786 O   0  0  0  0  0  0  0  0  0  0  0  0
   19.6096  -20.8346  -14.5365 C   0  0  0  0  0  0  0  0  0  0  0  0
   19.8493  -19.4193  -14.9017 C   0  0  0  0  0  0  0  0  0  0  0  0
   20.7765  -19.1801  -16.0641 C   0  0  2  0  0  0  0  0  0  0  0  0
   22.0725  -18.8686  -15.4752 N   0  0  0  0  0  0  0  0  0  0  0  0
   20.3289  -18.0776  -16.9551 C   0  0  0  0  0  0  0  0  0  0  0  0
   20.9079  -16.9688  -16.8684 O   0  0  0  0  0  0  0  0  0  0  0  0
   19.3039  -18.2085  -17.8790 O   0  0  0  0  0  0  0  0  0  0  0  0
  2  3  1  0
  2  1  1  0
  3 10  1  0
  4  3  2  0
  6  5  1  6
  7  6  1  0
  8  6  1  0
  9  8  1  6
 10  9  1  0
 11 19  1  0
 11  9  1  0
 12 11  2  0
 13 14  1  0
 14 15  2  0
 16 17  1  0
 16 14  1  0
 18 19  1  0
 18 17  1  1
 20 18  1  0
 21 20  2  0
 22 20  1  0
M  END
$$$$
