GLQ.pdb
     RDKit          3D

 22 21  0  0  1  0  0  0  0  0999 V2000
   27.7875  -21.8146  -15.3337 N   0  0  0  0  0  0  0  0  0  0  0  0
   27.8166  -21.0554  -14.1177 C   0  0  0  0  0  0  0  0  0  0  0  0
   26.5939  -21.2452  -13.2852 C   0  0  0  0  0  0  0  0  0  0  0  0
   25.9164  -22.2804  -13.5178 O   0  0  0  0  0  0  0  0  0  0  0  0
   26.3604  -19.5242   -8.1090 C   0  0  0  0  0  0  0  0  0  0  0  0
   26.4462  -20.3996   -9.4148 C   0  0  1  0  0  0  0  0  0  0  0  0
   26.4778  -21.8521   -8.9124 C   0  0  0  0  0  0  0  0  0  0  0  0
   25.2039  -20.0701  -10.1444 C   0  0  0  0  0  0  0  0  0  0  0  0
   24.9691  -20.5493  -11.5183 C   0  0  2  0  0  0  0  0  0  0  0  0
   26.2219  -20.3258  -12.3028 N   0  0  0  0  0  0  0  0  0  0  0  0
   23.8350  -20.0417  -12.2862 C   0  0  0  0  0  0  0  0  0  0  0  0
   23.8096  -18.9563  -12.9440 O   0  0  0  0  0  0  0  0  0  0  0  0
   20.1164  -22.2029  -16.3283 N   0  0  0  0  0  0  0  0  0  0  0  0
   21.1473  -23.0006  -15.7120 C   0  0  0  0  0  0  0  0  0  0  0  0
   21.2393  -24.2114  -16.0215 O   0  0  0  0  0  0  0  0  0  0  0  0
   22.0869  -22.4309  -14.7334 C   0  0  0  0  0  0  0  0  0  0  0  0
   21.9313  -20.9645  -14.5937 C   0  0  0  0  0  0  0  0  0  0  0  0
   21.5113  -20.4664  -13.2360 C   0  0  2  0  0  0  0  0  0  0  0  0
   22.6150  -20.7886  -12.3407 N   0  0  0  0  0  0  0  0  0  0  0  0
   20.2480  -21.0806  -12.7500 C   0  0  0  0  0  0  0  0  0  0  0  0
   19.1647  -20.6840  -13.2414 O   0  0  0  0  0  0  0  0  0  0  0  0
   20.2018  -22.0705  -11.7807 O   0  0  0  0  0  0  0  0  0  0  0  0
  2  3  1  0
  2  1  1  0
  3 10  1  0
  4  3  2  0
  6  5  1  1
  7  6  1  0
  8  6  1  0
  9  8  1  1
 10  9  1  0
 11 19  1  0
 11  9  1  0
 12 11  2  0
 13 14  1  0
 14 15  2  0
 16 17  1  0
 16 14  1  0
 18 19  1  0
 18 17  1  6
 20 18  1  0
 21 20  2  0
 22 20  1  0
M  END
$$$$
