GLQ.pdb
     RDKit          3D

 22 21  0  0  1  0  0  0  0  0999 V2000
   23.5122  -10.8449  -20.3429 N   0  0  0  0  0  0  0  0  0  0  0  0
   22.4824   -9.8615  -20.1749 C   0  0  0  0  0  0  0  0  0  0  0  0
   22.2062   -9.5486  -18.7432 C   0  0  0  0  0  0  0  0  0  0  0  0
   21.0890   -9.0253  -18.4926 O   0  0  0  0  0  0  0  0  0  0  0  0
   24.0981  -12.6779  -14.6428 C   0  0  0  0  0  0  0  0  0  0  0  0
   23.1242  -11.9580  -15.6487 C   0  0  1  0  0  0  0  0  0  0  0  0
   21.7140  -12.3481  -15.1771 C   0  0  0  0  0  0  0  0  0  0  0  0
   23.4173  -10.5219  -15.4593 C   0  0  0  0  0  0  0  0  0  0  0  0
   22.8039   -9.4923  -16.3172 C   0  0  2  0  0  0  0  0  0  0  0  0
   23.1350   -9.8211  -17.7374 N   0  0  0  0  0  0  0  0  0  0  0  0
   23.0886   -8.0792  -16.0815 C   0  0  0  0  0  0  0  0  0  0  0  0
   24.1804   -7.4875  -16.3452 O   0  0  0  0  0  0  0  0  0  0  0  0
   19.8954   -1.6392  -16.9022 N   0  0  0  0  0  0  0  0  0  0  0  0
   20.1695   -3.0547  -16.8975 C   0  0  0  0  0  0  0  0  0  0  0  0
   19.4877   -3.8038  -17.6351 O   0  0  0  0  0  0  0  0  0  0  0  0
   21.2232   -3.6371  -16.0515 C   0  0  0  0  0  0  0  0  0  0  0  0
   21.2554   -5.1157  -16.1331 C   0  0  0  0  0  0  0  0  0  0  0  0
   22.2758   -5.8076  -15.2683 C   0  0  2  0  0  0  0  0  0  0  0  0
   22.0885   -7.2334  -15.5041 N   0  0  0  0  0  0  0  0  0  0  0  0
   22.1303   -5.4937  -13.8227 C   0  0  0  0  0  0  0  0  0  0  0  0
   21.6080   -6.3544  -13.0753 O   0  0  0  0  0  0  0  0  0  0  0  0
   22.5415   -4.2982  -13.2540 O   0  0  0  0  0  0  0  0  0  0  0  0
  2  3  1  0
  2  1  1  0
  3 10  1  0
  4  3  2  0
  6  5  1  1
  7  6  1  0
  8  6  1  0
  9  8  1  1
 10  9  1  0
 11 19  1  0
 11  9  1  0
 12 11  2  0
 13 14  1  0
 14 15  2  0
 16 17  1  0
 16 14  1  0
 18 19  1  0
 18 17  1  6
 20 18  1  0
 21 20  2  0
 22 20  1  0
M  END
$$$$
