GLQ.pdb
     RDKit          3D

 22 21  0  0  1  0  0  0  0  0999 V2000
   26.6563  -19.6476  -17.1744 N   0  0  0  0  0  0  0  0  0  0  0  0
   25.5906  -19.0316  -17.9096 C   0  0  0  0  0  0  0  0  0  0  0  0
   25.2717  -17.6567  -17.4281 C   0  0  0  0  0  0  0  0  0  0  0  0
   24.2339  -17.5390  -16.7254 O   0  0  0  0  0  0  0  0  0  0  0  0
   28.5671  -12.8940  -16.0315 C   0  0  0  0  0  0  0  0  0  0  0  0
   27.0471  -13.1522  -16.3501 C   0  0  1  0  0  0  0  0  0  0  0  0
   26.7042  -12.1514  -17.4655 C   0  0  0  0  0  0  0  0  0  0  0  0
   27.0147  -14.5571  -16.8079 C   0  0  0  0  0  0  0  0  0  0  0  0
   25.7493  -15.2164  -17.1771 C   0  0  2  0  0  0  0  0  0  0  0  0
   26.0795  -16.5616  -17.7394 N   0  0  0  0  0  0  0  0  0  0  0  0
   24.8108  -14.5476  -18.0745 C   0  0  0  0  0  0  0  0  0  0  0  0
   25.0064  -14.3010  -19.3044 O   0  0  0  0  0  0  0  0  0  0  0  0
   17.4813  -13.7787  -18.6467 N   0  0  0  0  0  0  0  0  0  0  0  0
   18.7567  -13.9470  -17.9958 C   0  0  0  0  0  0  0  0  0  0  0  0
   18.7987  -14.5473  -16.8967 O   0  0  0  0  0  0  0  0  0  0  0  0
   20.0022  -13.4327  -18.5870 C   0  0  0  0  0  0  0  0  0  0  0  0
   21.2071  -13.9784  -17.9205 C   0  0  0  0  0  0  0  0  0  0  0  0
   22.5326  -13.4637  -18.4167 C   0  0  2  0  0  0  0  0  0  0  0  0
   23.5405  -14.1068  -17.5836 N   0  0  0  0  0  0  0  0  0  0  0  0
   22.6552  -11.9845  -18.3372 C   0  0  0  0  0  0  0  0  0  0  0  0
   23.2447  -11.4875  -17.3484 O   0  0  0  0  0  0  0  0  0  0  0  0
   22.1522  -11.1221  -19.2988 O   0  0  0  0  0  0  0  0  0  0  0  0
  2  3  1  0
  2  1  1  0
  3 10  1  0
  4  3  2  0
  6  5  1  6
  7  6  1  0
  8  6  1  0
  9  8  1  6
 10  9  1  0
 11 19  1  0
 11  9  1  0
 12 11  2  0
 13 14  1  0
 14 15  2  0
 16 17  1  0
 16 14  1  0
 18 19  1  0
 18 17  1  1
 20 18  1  0
 21 20  2  0
 22 20  1  0
M  END
$$$$
