YTN.pdb
     RDKit          3D

 28 28  0  0  1  0  0  0  0  0999 V2000
   20.1075  -19.4387  -14.3080 O   0  0  0  0  0  0  0  0  0  0  0  0
   20.4682  -18.1221  -14.6323 C   0  0  0  0  0  0  0  0  0  0  0  0
   21.7844  -17.7432  -14.7632 C   0  0  0  0  0  0  0  0  0  0  0  0
   22.1185  -16.4241  -15.0873 C   0  0  0  0  0  0  0  0  0  0  0  0
   21.1365  -15.4851  -15.2801 C   0  0  0  0  0  0  0  0  0  0  0  0
   21.4934  -14.0834  -15.6245 C   0  0  0  0  0  0  0  0  0  0  0  0
   21.4013  -13.9647  -17.1314 C   0  0  2  0  0  0  0  0  0  0  0  0
   22.4097  -14.7287  -17.7962 N   0  0  0  0  0  0  0  0  0  0  0  0
   21.4992  -12.5567  -17.5917 C   0  0  0  0  0  0  0  0  0  0  0  0
   22.5695  -12.0762  -18.0634 O   0  0  0  0  0  0  0  0  0  0  0  0
   19.8125  -15.8726  -15.1470 C   0  0  0  0  0  0  0  0  0  0  0  0
   19.4813  -17.1788  -14.8261 C   0  0  0  0  0  0  0  0  0  0  0  0
   19.2876   -8.4765  -19.2061 C   0  0  0  0  0  0  0  0  0  0  0  0
   19.2437   -9.9277  -18.7804 C   0  0  1  0  0  0  0  0  0  0  0  0
   19.1265  -10.7937  -19.8695 O   0  0  0  0  0  0  0  0  0  0  0  0
   20.4800  -10.2791  -17.9405 C   0  0  2  0  0  0  0  0  0  0  0  0
   20.3757  -11.6586  -17.5255 N   0  0  0  0  0  0  0  0  0  0  0  0
   20.4585   -9.3489  -16.7812 C   0  0  0  0  0  0  0  0  0  0  0  0
   19.7237   -9.6574  -15.8092 O   0  0  0  0  0  0  0  0  0  0  0  0
   22.6696   -3.9732  -14.7141 N   0  0  0  0  0  0  0  0  0  0  0  0
   22.3835   -5.3482  -14.4868 C   0  0  0  0  0  0  0  0  0  0  0  0
   22.2195   -5.6993  -13.2937 O   0  0  0  0  0  0  0  0  0  0  0  0
   22.3055   -6.2292  -15.6546 C   0  0  0  0  0  0  0  0  0  0  0  0
   21.2134   -7.2633  -15.5657 C   0  0  2  0  0  0  0  0  0  0  0  0
   21.2001   -8.1608  -16.7063 N   0  0  0  0  0  0  0  0  0  0  0  0
   19.8742   -6.6237  -15.4932 C   0  0  0  0  0  0  0  0  0  0  0  0
   19.0714   -6.6387  -14.3620 O   0  0  0  0  0  0  0  0  0  0  0  0
   19.4274   -6.0299  -16.5073 O   0  0  0  0  0  0  0  0  0  0  0  0
  2  1  1  0
  3  2  2  0
  4  3  1  0
  5 11  1  0
  5  4  2  0
  6  7  1  0
  6  5  1  0
  7  8  1  6
  7  9  1  0
  9 10  2  0
 11 12  2  0
 12  2  1  0
 14 13  1  6
 14 15  1  0
 16 14  1  0
 17  9  1  0
 16 17  1  1
 18 16  1  0
 18 19  2  0
 20 21  1  0
 21 23  1  0
 22 21  2  0
 24 23  1  6
 24 26  1  0
 24 25  1  0
 25 18  1  0
 26 27  1  0
 28 26  2  0
M  END
$$$$
