YTN.pdb
     RDKit          3D

 28 28  0  0  1  0  0  0  0  0999 V2000
   20.5639  -23.4154   -6.5931 O   0  0  0  0  0  0  0  0  0  0  0  0
   21.2931  -22.5956   -7.4677 C   0  0  0  0  0  0  0  0  0  0  0  0
   22.2700  -21.7401   -7.0131 C   0  0  0  0  0  0  0  0  0  0  0  0
   22.9833  -20.9327   -7.9053 C   0  0  0  0  0  0  0  0  0  0  0  0
   22.7192  -20.9814   -9.2512 C   0  0  0  0  0  0  0  0  0  0  0  0
   23.4783  -20.1225  -10.1981 C   0  0  0  0  0  0  0  0  0  0  0  0
   24.3732  -21.0413  -11.0032 C   0  0  2  0  0  0  0  0  0  0  0  0
   25.5461  -21.4223  -10.2809 N   0  0  0  0  0  0  0  0  0  0  0  0
   24.7918  -20.4325  -12.2907 C   0  0  0  0  0  0  0  0  0  0  0  0
   25.8206  -19.7036  -12.3871 O   0  0  0  0  0  0  0  0  0  0  0  0
   21.7340  -21.8450   -9.7031 C   0  0  0  0  0  0  0  0  0  0  0  0
   21.0274  -22.6447   -8.8199 C   0  0  0  0  0  0  0  0  0  0  0  0
   26.8679  -20.9212  -14.1371 C   0  0  0  0  0  0  0  0  0  0  0  0
   25.7580  -21.1029  -15.1491 C   0  0  1  0  0  0  0  0  0  0  0  0
   25.3704  -22.4387  -15.2729 O   0  0  0  0  0  0  0  0  0  0  0  0
   24.5535  -20.2212  -14.7900 C   0  0  2  0  0  0  0  0  0  0  0  0
   24.0454  -20.6400  -13.5045 N   0  0  0  0  0  0  0  0  0  0  0  0
   23.5593  -20.4343  -15.8745 C   0  0  0  0  0  0  0  0  0  0  0  0
   22.6342  -21.2560  -15.6540 O   0  0  0  0  0  0  0  0  0  0  0  0
   20.0382  -19.2318  -15.1054 N   0  0  0  0  0  0  0  0  0  0  0  0
   20.3347  -18.8614  -16.4466 C   0  0  0  0  0  0  0  0  0  0  0  0
   19.4281  -19.0433  -17.2945 O   0  0  0  0  0  0  0  0  0  0  0  0
   21.6613  -18.3039  -16.7214 C   0  0  0  0  0  0  0  0  0  0  0  0
   22.4611  -19.0989  -17.7205 C   0  0  2  0  0  0  0  0  0  0  0  0
   23.5901  -19.7815  -17.1155 N   0  0  0  0  0  0  0  0  0  0  0  0
   22.9995  -18.2240  -18.7940 C   0  0  0  0  0  0  0  0  0  0  0  0
   22.6709  -18.3558  -20.1353 O   0  0  0  0  0  0  0  0  0  0  0  0
   23.8009  -17.3055  -18.4862 O   0  0  0  0  0  0  0  0  0  0  0  0
  2  1  1  0
  3  2  2  0
  4  3  1  0
  5 11  1  0
  5  4  2  0
  6  7  1  0
  6  5  1  0
  7  8  1  1
  7  9  1  0
  9 10  2  0
 11 12  2  0
 12  2  1  0
 14 13  1  1
 14 15  1  0
 16 14  1  0
 17  9  1  0
 16 17  1  1
 18 16  1  0
 18 19  2  0
 20 21  1  0
 21 23  1  0
 22 21  2  0
 24 23  1  1
 24 26  1  0
 24 25  1  0
 25 18  1  0
 26 27  1  0
 28 26  2  0
M  END
$$$$
