YTN.pdb
     RDKit          3D

 28 28  0  0  1  0  0  0  0  0999 V2000
   19.6170  -23.5217   -7.5240 O   0  0  0  0  0  0  0  0  0  0  0  0
   20.5248  -22.6725   -8.1748 C   0  0  0  0  0  0  0  0  0  0  0  0
   20.5940  -22.6018   -9.5471 C   0  0  0  0  0  0  0  0  0  0  0  0
   21.5078  -21.7470  -10.1725 C   0  0  0  0  0  0  0  0  0  0  0  0
   22.3514  -20.9637   -9.4253 C   0  0  0  0  0  0  0  0  0  0  0  0
   23.3221  -20.0558  -10.0916 C   0  0  0  0  0  0  0  0  0  0  0  0
   24.5861  -20.8574  -10.3219 C   0  0  2  0  0  0  0  0  0  0  0  0
   25.3053  -21.0923   -9.1094 N   0  0  0  0  0  0  0  0  0  0  0  0
   25.4999  -20.2009  -11.2902 C   0  0  0  0  0  0  0  0  0  0  0  0
   26.3549  -19.3410  -10.9315 O   0  0  0  0  0  0  0  0  0  0  0  0
   22.2770  -21.0393   -8.0434 C   0  0  0  0  0  0  0  0  0  0  0  0
   21.3722  -21.8856   -7.4238 C   0  0  0  0  0  0  0  0  0  0  0  0
   28.4145  -20.8948  -12.5286 C   0  0  0  0  0  0  0  0  0  0  0  0
   27.5879  -20.8606  -13.7953 C   0  0  1  0  0  0  0  0  0  0  0  0
   27.1610  -22.1329  -14.1811 O   0  0  0  0  0  0  0  0  0  0  0  0
   26.3896  -19.9151  -13.6300 C   0  0  2  0  0  0  0  0  0  0  0  0
   25.4618  -20.5093  -12.6962 N   0  0  0  0  0  0  0  0  0  0  0  0
   25.7965  -19.7737  -14.9857 C   0  0  0  0  0  0  0  0  0  0  0  0
   24.7252  -20.3905  -15.2126 O   0  0  0  0  0  0  0  0  0  0  0  0
   24.6797  -18.1763  -19.7643 N   0  0  0  0  0  0  0  0  0  0  0  0
   25.2818  -17.0822  -19.0826 C   0  0  0  0  0  0  0  0  0  0  0  0
   25.2854  -15.9795  -19.6806 O   0  0  0  0  0  0  0  0  0  0  0  0
   25.8413  -17.3339  -17.7522 C   0  0  0  0  0  0  0  0  0  0  0  0
   25.7293  -18.7685  -17.3057 C   0  0  2  0  0  0  0  0  0  0  0  0
   26.3533  -19.0022  -16.0163 N   0  0  0  0  0  0  0  0  0  0  0  0
   26.3756  -19.6852  -18.2802 C   0  0  0  0  0  0  0  0  0  0  0  0
   25.7141  -20.2608  -19.3551 O   0  0  0  0  0  0  0  0  0  0  0  0
   27.5927  -19.9662  -18.1370 O   0  0  0  0  0  0  0  0  0  0  0  0
  2  1  1  0
  3  2  2  0
  4  3  1  0
  5 11  1  0
  5  4  2  0
  6  7  1  0
  6  5  1  0
  7  8  1  1
  7  9  1  0
  9 10  2  0
 11 12  2  0
 12  2  1  0
 14 13  1  1
 14 15  1  0
 16 14  1  0
 17  9  1  0
 16 17  1  1
 18 16  1  0
 18 19  2  0
 20 21  1  0
 21 23  1  0
 22 21  2  0
 24 23  1  6
 24 26  1  0
 24 25  1  0
 25 18  1  0
 26 27  1  0
 28 26  2  0
M  END
$$$$
