YTN.pdb
     RDKit          3D

 28 28  0  0  1  0  0  0  0  0999 V2000
   16.1668  -17.7038  -15.7901 O   0  0  0  0  0  0  0  0  0  0  0  0
   17.0076  -16.5893  -15.9310 C   0  0  0  0  0  0  0  0  0  0  0  0
   18.3387  -16.7224  -16.2522 C   0  0  0  0  0  0  0  0  0  0  0  0
   19.1565  -15.5955  -16.3871 C   0  0  0  0  0  0  0  0  0  0  0  0
   18.6426  -14.3367  -16.2006 C   0  0  0  0  0  0  0  0  0  0  0  0
   19.5133  -13.1401  -16.3443 C   0  0  0  0  0  0  0  0  0  0  0  0
   19.3332  -12.6338  -17.7601 C   0  0  2  0  0  0  0  0  0  0  0  0
   19.8667  -13.5385  -18.7294 N   0  0  0  0  0  0  0  0  0  0  0  0
   19.9586  -11.3033  -17.9655 C   0  0  0  0  0  0  0  0  0  0  0  0
   21.1696  -11.1747  -18.3061 O   0  0  0  0  0  0  0  0  0  0  0  0
   17.3010  -14.2090  -15.8772 C   0  0  0  0  0  0  0  0  0  0  0  0
   16.4909  -15.3246  -15.7436 C   0  0  0  0  0  0  0  0  0  0  0  0
   18.6924   -8.5289  -20.2551 C   0  0  0  0  0  0  0  0  0  0  0  0
   18.8335   -7.9502  -18.8643 C   0  0  1  0  0  0  0  0  0  0  0  0
   17.6037   -7.8366  -18.2129 O   0  0  0  0  0  0  0  0  0  0  0  0
   19.8121   -8.7889  -18.0299 C   0  0  2  0  0  0  0  0  0  0  0  0
   19.2167  -10.0822  -17.7872 N   0  0  0  0  0  0  0  0  0  0  0  0
   20.0210   -8.0300  -16.7688 C   0  0  0  0  0  0  0  0  0  0  0  0
   19.6982   -8.5980  -15.6950 O   0  0  0  0  0  0  0  0  0  0  0  0
   22.2975   -6.4184  -12.3461 N   0  0  0  0  0  0  0  0  0  0  0  0
   22.6236   -5.9596  -13.6528 C   0  0  0  0  0  0  0  0  0  0  0  0
   23.3409   -4.9331  -13.7263 O   0  0  0  0  0  0  0  0  0  0  0  0
   22.0988   -6.7179  -14.7911 C   0  0  0  0  0  0  0  0  0  0  0  0
   20.9345   -6.0548  -15.4800 C   0  0  2  0  0  0  0  0  0  0  0  0
   20.5504   -6.7328  -16.7045 N   0  0  0  0  0  0  0  0  0  0  0  0
   21.2534   -4.6481  -15.8371 C   0  0  0  0  0  0  0  0  0  0  0  0
   20.9393   -3.5583  -15.0384 O   0  0  0  0  0  0  0  0  0  0  0  0
   21.8421   -4.4142  -16.9231 O   0  0  0  0  0  0  0  0  0  0  0  0
  2  1  1  0
  3  2  2  0
  4  3  1  0
  5 11  1  0
  5  4  2  0
  6  7  1  0
  6  5  1  0
  7  8  1  6
  7  9  1  0
  9 10  2  0
 11 12  2  0
 12  2  1  0
 14 13  1  6
 14 15  1  0
 16 14  1  0
 17  9  1  0
 16 17  1  1
 18 16  1  0
 18 19  2  0
 20 21  1  0
 21 23  1  0
 22 21  2  0
 24 23  1  6
 24 26  1  0
 24 25  1  0
 25 18  1  0
 26 27  1  0
 28 26  2  0
M  END
$$$$
