YTN.pdb
     RDKit          3D

 28 28  0  0  1  0  0  0  0  0999 V2000
   28.7438  -19.9818   -3.8791 O   0  0  0  0  0  0  0  0  0  0  0  0
   28.4615  -19.8933   -5.2507 C   0  0  0  0  0  0  0  0  0  0  0  0
   27.1810  -19.6999   -5.7154 C   0  0  0  0  0  0  0  0  0  0  0  0
   26.9251  -19.6150   -7.0880 C   0  0  0  0  0  0  0  0  0  0  0  0
   27.9497  -19.7237   -7.9947 C   0  0  0  0  0  0  0  0  0  0  0  0
   27.6760  -19.6333   -9.4533 C   0  0  0  0  0  0  0  0  0  0  0  0
   27.4440  -21.0468   -9.9447 C   0  0  2  0  0  0  0  0  0  0  0  0
   28.6556  -21.8021  -10.0089 N   0  0  0  0  0  0  0  0  0  0  0  0
   26.7994  -21.0789  -11.2815 C   0  0  0  0  0  0  0  0  0  0  0  0
   27.4683  -21.0129  -12.3526 O   0  0  0  0  0  0  0  0  0  0  0  0
   29.2374  -19.9185   -7.5205 C   0  0  0  0  0  0  0  0  0  0  0  0
   29.4911  -20.0026   -6.1614 C   0  0  0  0  0  0  0  0  0  0  0  0
   23.5643  -22.7051  -14.3561 C   0  0  0  0  0  0  0  0  0  0  0  0
   24.3214  -22.6492  -13.0474 C   0  0  1  0  0  0  0  0  0  0  0  0
   25.4302  -23.4980  -13.0428 O   0  0  0  0  0  0  0  0  0  0  0  0
   24.7428  -21.2071  -12.7313 C   0  0  2  0  0  0  0  0  0  0  0  0
   25.3713  -21.1873  -11.4311 N   0  0  0  0  0  0  0  0  0  0  0  0
   23.4905  -20.4063  -12.7532 C   0  0  0  0  0  0  0  0  0  0  0  0
   22.8450  -20.3178  -11.6784 O   0  0  0  0  0  0  0  0  0  0  0  0
   20.4696  -16.0589  -15.1408 N   0  0  0  0  0  0  0  0  0  0  0  0
   20.3368  -17.4669  -15.2959 C   0  0  0  0  0  0  0  0  0  0  0  0
   19.1750  -17.9070  -15.4697 O   0  0  0  0  0  0  0  0  0  0  0  0
   21.5569  -18.2759  -15.2401 C   0  0  0  0  0  0  0  0  0  0  0  0
   21.7586  -18.9841  -13.9257 C   0  0  2  0  0  0  0  0  0  0  0  0
   22.9905  -19.7505  -13.8878 N   0  0  0  0  0  0  0  0  0  0  0  0
   20.6445  -19.9275  -13.6487 C   0  0  0  0  0  0  0  0  0  0  0  0
   19.6106  -19.6628  -12.7625 O   0  0  0  0  0  0  0  0  0  0  0  0
   20.6223  -21.0349  -14.2437 O   0  0  0  0  0  0  0  0  0  0  0  0
  2  1  1  0
  3  2  2  0
  4  3  1  0
  5 11  1  0
  5  4  2  0
  6  7  1  0
  6  5  1  0
  7  8  1  6
  7  9  1  0
  9 10  2  0
 11 12  2  0
 12  2  1  0
 14 13  1  6
 14 15  1  0
 16 14  1  0
 17  9  1  0
 16 17  1  1
 18 16  1  0
 18 19  2  0
 20 21  1  0
 21 23  1  0
 22 21  2  0
 24 23  1  6
 24 26  1  0
 24 25  1  0
 25 18  1  0
 26 27  1  0
 28 26  2  0
M  END
$$$$
