YTN.pdb
     RDKit          3D

 28 28  0  0  1  0  0  0  0  0999 V2000
   22.8360  -15.4459  -22.8357 O   0  0  0  0  0  0  0  0  0  0  0  0
   22.1680  -14.6016  -21.9359 C   0  0  0  0  0  0  0  0  0  0  0  0
   21.0447  -15.0119  -21.2556 C   0  0  0  0  0  0  0  0  0  0  0  0
   20.3964  -14.1512  -20.3636 C   0  0  0  0  0  0  0  0  0  0  0  0
   20.8718  -12.8812  -20.1526 C   0  0  0  0  0  0  0  0  0  0  0  0
   20.1815  -11.9676  -19.2041 C   0  0  0  0  0  0  0  0  0  0  0  0
   20.8001  -12.2006  -17.8416 C   0  0  2  0  0  0  0  0  0  0  0  0
   20.4878  -13.4942  -17.3205 N   0  0  0  0  0  0  0  0  0  0  0  0
   20.3768  -11.1803  -16.8499 C   0  0  0  0  0  0  0  0  0  0  0  0
   19.8169  -11.4931  -15.7601 O   0  0  0  0  0  0  0  0  0  0  0  0
   22.0037  -12.4736  -20.8407 C   0  0  0  0  0  0  0  0  0  0  0  0
   22.6459  -13.3256  -21.7241 C   0  0  0  0  0  0  0  0  0  0  0  0
   20.9788   -7.7823  -13.9139 C   0  0  0  0  0  0  0  0  0  0  0  0
   21.2392   -8.8731  -14.9294 C   0  0  1  0  0  0  0  0  0  0  0  0
   21.2178  -10.1454  -14.3543 O   0  0  0  0  0  0  0  0  0  0  0  0
   20.2310   -8.7845  -16.0840 C   0  0  2  0  0  0  0  0  0  0  0  0
   20.5820   -9.7732  -17.0766 N   0  0  0  0  0  0  0  0  0  0  0  0
   20.3463   -7.4010  -16.6156 C   0  0  0  0  0  0  0  0  0  0  0  0
   21.4921   -7.0059  -16.9485 O   0  0  0  0  0  0  0  0  0  0  0  0
   15.8021   -5.4084  -18.3567 N   0  0  0  0  0  0  0  0  0  0  0  0
   17.2140   -5.4254  -18.5312 C   0  0  0  0  0  0  0  0  0  0  0  0
   17.6599   -6.1652  -19.4409 O   0  0  0  0  0  0  0  0  0  0  0  0
   18.0199   -4.5852  -17.6420 C   0  0  0  0  0  0  0  0  0  0  0  0
   19.3646   -5.1733  -17.3016 C   0  0  2  0  0  0  0  0  0  0  0  0
   19.2663   -6.5189  -16.7668 N   0  0  0  0  0  0  0  0  0  0  0  0
   20.0697   -4.3471  -16.2876 C   0  0  0  0  0  0  0  0  0  0  0  0
   20.3992   -4.7978  -15.0177 O   0  0  0  0  0  0  0  0  0  0  0  0
   20.3940   -3.1684  -16.5813 O   0  0  0  0  0  0  0  0  0  0  0  0
  2  1  1  0
  3  2  2  0
  4  3  1  0
  5 11  1  0
  5  4  2  0
  6  7  1  0
  6  5  1  0
  7  8  1  1
  7  9  1  0
  9 10  2  0
 11 12  2  0
 12  2  1  0
 14 13  1  1
 14 15  1  0
 16 14  1  0
 17  9  1  0
 16 17  1  6
 18 16  1  0
 18 19  2  0
 20 21  1  0
 21 23  1  0
 22 21  2  0
 24 23  1  1
 24 26  1  0
 24 25  1  0
 25 18  1  0
 26 27  1  0
 28 26  2  0
M  END
$$$$
