YTN.pdb
     RDKit          3D

 28 28  0  0  1  0  0  0  0  0999 V2000
   25.0593  -21.1468   -7.0277 O   0  0  0  0  0  0  0  0  0  0  0  0
   25.2801  -20.8215   -8.3746 C   0  0  0  0  0  0  0  0  0  0  0  0
   26.5428  -20.8177   -8.9210 C   0  0  0  0  0  0  0  0  0  0  0  0
   26.7370  -20.4897  -10.2670 C   0  0  0  0  0  0  0  0  0  0  0  0
   25.6687  -20.1659  -11.0652 C   0  0  0  0  0  0  0  0  0  0  0  0
   25.8769  -19.8176  -12.4956 C   0  0  0  0  0  0  0  0  0  0  0  0
   25.2244  -20.9125  -13.3134 C   0  0  2  0  0  0  0  0  0  0  0  0
   26.1354  -21.9677  -13.6280 N   0  0  0  0  0  0  0  0  0  0  0  0
   24.6452  -20.3990  -14.5801 C   0  0  0  0  0  0  0  0  0  0  0  0
   25.3151  -20.3405  -15.6510 O   0  0  0  0  0  0  0  0  0  0  0  0
   24.3992  -20.1715  -10.5091 C   0  0  0  0  0  0  0  0  0  0  0  0
   24.2065  -20.4962   -9.1764 C   0  0  0  0  0  0  0  0  0  0  0  0
   23.9855  -21.2207  -17.2079 C   0  0  0  0  0  0  0  0  0  0  0  0
   22.6027  -20.7290  -16.8404 C   0  0  1  0  0  0  0  0  0  0  0  0
   21.8214  -21.7331  -16.2650 O   0  0  0  0  0  0  0  0  0  0  0  0
   22.6948  -19.5136  -15.9068 C   0  0  2  0  0  0  0  0  0  0  0  0
   23.2833  -19.9379  -14.6579 N   0  0  0  0  0  0  0  0  0  0  0  0
   21.2988  -19.0356  -15.7269 C   0  0  0  0  0  0  0  0  0  0  0  0
   20.8724  -18.9339  -14.5489 O   0  0  0  0  0  0  0  0  0  0  0  0
   19.2385  -14.1029  -17.2220 N   0  0  0  0  0  0  0  0  0  0  0  0
   19.1078  -15.1938  -16.3182 C   0  0  0  0  0  0  0  0  0  0  0  0
   18.1630  -15.1329  -15.4951 O   0  0  0  0  0  0  0  0  0  0  0  0
   20.0786  -16.2857  -16.4244 C   0  0  0  0  0  0  0  0  0  0  0  0
   19.4593  -17.6233  -16.7363 C   0  0  2  0  0  0  0  0  0  0  0  0
   20.4373  -18.6948  -16.7800 N   0  0  0  0  0  0  0  0  0  0  0  0
   18.7712  -17.6014  -18.0531 C   0  0  0  0  0  0  0  0  0  0  0  0
   19.3626  -18.0077  -19.2404 O   0  0  0  0  0  0  0  0  0  0  0  0
   17.5835  -17.1936  -18.1127 O   0  0  0  0  0  0  0  0  0  0  0  0
  2  1  1  0
  3  2  2  0
  4  3  1  0
  5 11  1  0
  5  4  2  0
  6  7  1  0
  6  5  1  0
  7  8  1  6
  7  9  1  0
  9 10  2  0
 11 12  2  0
 12  2  1  0
 14 13  1  1
 14 15  1  0
 16 14  1  0
 17  9  1  0
 16 17  1  1
 18 16  1  0
 18 19  2  0
 20 21  1  0
 21 23  1  0
 22 21  2  0
 24 23  1  6
 24 26  1  0
 24 25  1  0
 25 18  1  0
 26 27  1  0
 28 26  2  0
M  END
$$$$
