YTN.pdb
     RDKit          3D

 28 28  0  0  1  0  0  0  0  0999 V2000
   28.4228  -29.0321  -18.1124 O   0  0  0  0  0  0  0  0  0  0  0  0
   27.9154  -27.8991  -17.4584 C   0  0  0  0  0  0  0  0  0  0  0  0
   26.5631  -27.6692  -17.3523 C   0  0  0  0  0  0  0  0  0  0  0  0
   26.0818  -26.5319  -16.6953 C   0  0  0  0  0  0  0  0  0  0  0  0
   26.9531  -25.6255  -16.1450 C   0  0  0  0  0  0  0  0  0  0  0  0
   26.4399  -24.4172  -15.4470 C   0  0  0  0  0  0  0  0  0  0  0  0
   26.0511  -23.4223  -16.5205 C   0  0  2  0  0  0  0  0  0  0  0  0
   27.1900  -22.8773  -17.1901 N   0  0  0  0  0  0  0  0  0  0  0  0
   25.2422  -22.3004  -15.9812 C   0  0  0  0  0  0  0  0  0  0  0  0
   25.7732  -21.2525  -15.5132 O   0  0  0  0  0  0  0  0  0  0  0  0
   28.3142  -25.8625  -16.2551 C   0  0  0  0  0  0  0  0  0  0  0  0
   28.7911  -26.9886  -16.9056 C   0  0  0  0  0  0  0  0  0  0  0  0
   24.7469  -19.5104  -16.1167 C   0  0  0  0  0  0  0  0  0  0  0  0
   23.3503  -20.0120  -16.4117 C   0  0  1  0  0  0  0  0  0  0  0  0
   23.1782  -20.3307  -17.7603 O   0  0  0  0  0  0  0  0  0  0  0  0
   23.0135  -21.2182  -15.5236 C   0  0  2  0  0  0  0  0  0  0  0  0
   23.8032  -22.3453  -15.9618 N   0  0  0  0  0  0  0  0  0  0  0  0
   21.5577  -21.4586  -15.7038 C   0  0  0  0  0  0  0  0  0  0  0  0
   21.2071  -22.1577  -16.6877 O   0  0  0  0  0  0  0  0  0  0  0  0
   19.4153  -23.6829  -13.9066 N   0  0  0  0  0  0  0  0  0  0  0  0
   18.6509  -22.7594  -13.1404 C   0  0  0  0  0  0  0  0  0  0  0  0
   18.2180  -23.1670  -12.0358 O   0  0  0  0  0  0  0  0  0  0  0  0
   18.4362  -21.4231  -13.7012 C   0  0  0  0  0  0  0  0  0  0  0  0
   19.1387  -21.1934  -15.0141 C   0  0  2  0  0  0  0  0  0  0  0  0
   20.5618  -20.9582  -14.8522 N   0  0  0  0  0  0  0  0  0  0  0  0
   18.5760  -20.0157  -15.7242 C   0  0  0  0  0  0  0  0  0  0  0  0
   19.1886  -18.7716  -15.7625 O   0  0  0  0  0  0  0  0  0  0  0  0
   17.4815  -20.1363  -16.3309 O   0  0  0  0  0  0  0  0  0  0  0  0
  2  1  1  0
  3  2  2  0
  4  3  1  0
  5 11  1  0
  5  4  2  0
  6  7  1  0
  6  5  1  0
  7  8  1  1
  7  9  1  0
  9 10  2  0
 11 12  2  0
 12  2  1  0
 14 13  1  6
 14 15  1  0
 16 14  1  0
 17  9  1  0
 16 17  1  6
 18 16  1  0
 18 19  2  0
 20 21  1  0
 21 23  1  0
 22 21  2  0
 24 23  1  1
 24 26  1  0
 24 25  1  0
 25 18  1  0
 26 27  1  0
 28 26  2  0
M  END
$$$$
