YTN.pdb
     RDKit          3D

 28 28  0  0  1  0  0  0  0  0999 V2000
   21.0955  -22.0809   -6.6229 O   0  0  0  0  0  0  0  0  0  0  0  0
   22.1446  -21.5679   -7.4009 C   0  0  0  0  0  0  0  0  0  0  0  0
   21.9444  -21.1350   -8.6914 C   0  0  0  0  0  0  0  0  0  0  0  0
   23.0068  -20.6275   -9.4468 C   0  0  0  0  0  0  0  0  0  0  0  0
   24.2682  -20.5534   -8.9112 C   0  0  0  0  0  0  0  0  0  0  0  0
   25.3962  -20.0137   -9.7155 C   0  0  0  0  0  0  0  0  0  0  0  0
   25.6740  -21.0201  -10.8125 C   0  0  2  0  0  0  0  0  0  0  0  0
   26.6568  -21.9830  -10.4261 N   0  0  0  0  0  0  0  0  0  0  0  0
   26.1214  -20.3715  -12.0706 C   0  0  0  0  0  0  0  0  0  0  0  0
   27.2494  -19.8093  -12.1733 O   0  0  0  0  0  0  0  0  0  0  0  0
   24.4636  -20.9910   -7.6107 C   0  0  0  0  0  0  0  0  0  0  0  0
   23.4119  -21.4935   -6.8624 C   0  0  0  0  0  0  0  0  0  0  0  0
   27.8932  -20.9798  -14.5698 C   0  0  0  0  0  0  0  0  0  0  0  0
   26.5707  -20.7354  -15.2630 C   0  0  1  0  0  0  0  0  0  0  0  0
   25.8555  -21.9172  -15.4666 O   0  0  0  0  0  0  0  0  0  0  0  0
   25.7289  -19.7229  -14.4733 C   0  0  2  0  0  0  0  0  0  0  0  0
   25.2913  -20.3476  -13.2469 N   0  0  0  0  0  0  0  0  0  0  0  0
   24.5848  -19.3734  -15.3557 C   0  0  0  0  0  0  0  0  0  0  0  0
   23.4985  -19.9726  -15.1543 O   0  0  0  0  0  0  0  0  0  0  0  0
   21.3910  -16.9362  -18.5659 N   0  0  0  0  0  0  0  0  0  0  0  0
   22.5660  -16.1341  -18.5507 C   0  0  0  0  0  0  0  0  0  0  0  0
   22.5265  -15.0652  -19.2062 O   0  0  0  0  0  0  0  0  0  0  0  0
   23.7119  -16.6200  -17.7780 C   0  0  0  0  0  0  0  0  0  0  0  0
   23.5033  -17.9830  -17.1708 C   0  0  2  0  0  0  0  0  0  0  0  0
   24.6427  -18.4260  -16.3884 N   0  0  0  0  0  0  0  0  0  0  0  0
   23.2656  -19.0070  -18.2210 C   0  0  0  0  0  0  0  0  0  0  0  0
   22.0046  -19.4112  -18.6342 O   0  0  0  0  0  0  0  0  0  0  0  0
   24.2541  -19.5487  -18.7779 O   0  0  0  0  0  0  0  0  0  0  0  0
  2  1  1  0
  3  2  2  0
  4  3  1  0
  5 11  1  0
  5  4  2  0
  6  7  1  0
  6  5  1  0
  7  8  1  1
  7  9  1  0
  9 10  2  0
 11 12  2  0
 12  2  1  0
 14 13  1  1
 14 15  1  0
 16 14  1  0
 17  9  1  0
 16 17  1  1
 18 16  1  0
 18 19  2  0
 20 21  1  0
 21 23  1  0
 22 21  2  0
 24 23  1  6
 24 26  1  0
 24 25  1  0
 25 18  1  0
 26 27  1  0
 28 26  2  0
M  END
$$$$
