YTN.pdb
     RDKit          3D

 28 28  0  0  1  0  0  0  0  0999 V2000
   16.0900  -23.0778  -10.3620 O   0  0  0  0  0  0  0  0  0  0  0  0
   17.2947  -22.8955  -11.0578 C   0  0  0  0  0  0  0  0  0  0  0  0
   17.8823  -23.9167  -11.7683 C   0  0  0  0  0  0  0  0  0  0  0  0
   19.0839  -23.7099  -12.4539 C   0  0  0  0  0  0  0  0  0  0  0  0
   19.6969  -22.4822  -12.4286 C   0  0  0  0  0  0  0  0  0  0  0  0
   20.9741  -22.2641  -13.1579 C   0  0  0  0  0  0  0  0  0  0  0  0
   20.6908  -21.2484  -14.2448 C   0  0  2  0  0  0  0  0  0  0  0  0
   19.6840  -21.6970  -15.1544 N   0  0  0  0  0  0  0  0  0  0  0  0
   21.9069  -20.9037  -15.0232 C   0  0  0  0  0  0  0  0  0  0  0  0
   22.2554  -21.5546  -16.0498 O   0  0  0  0  0  0  0  0  0  0  0  0
   19.1002  -21.4574  -11.7112 C   0  0  0  0  0  0  0  0  0  0  0  0
   17.9104  -21.6619  -11.0322 C   0  0  0  0  0  0  0  0  0  0  0  0
   22.5637  -18.2785  -17.1616 C   0  0  0  0  0  0  0  0  0  0  0  0
   23.6607  -18.1192  -16.1320 C   0  0  1  0  0  0  0  0  0  0  0  0
   23.3718  -17.1165  -15.2042 O   0  0  0  0  0  0  0  0  0  0  0  0
   23.9284  -19.4533  -15.4209 C   0  0  2  0  0  0  0  0  0  0  0  0
   22.7590  -19.8047  -14.6495 N   0  0  0  0  0  0  0  0  0  0  0  0
   25.1133  -19.2187  -14.5545 C   0  0  0  0  0  0  0  0  0  0  0  0
   24.9206  -18.6233  -13.4644 O   0  0  0  0  0  0  0  0  0  0  0  0
   26.1134  -21.3527  -10.5780 N   0  0  0  0  0  0  0  0  0  0  0  0
   26.5302  -20.6074  -11.7159 C   0  0  0  0  0  0  0  0  0  0  0  0
   26.9737  -19.4537  -11.5017 O   0  0  0  0  0  0  0  0  0  0  0  0
   26.4073  -21.2447  -13.0293 C   0  0  0  0  0  0  0  0  0  0  0  0
   27.2067  -20.5675  -14.1121 C   0  0  2  0  0  0  0  0  0  0  0  0
   26.4194  -19.6167  -14.8755 N   0  0  0  0  0  0  0  0  0  0  0  0
   27.7536  -21.5589  -15.0742 C   0  0  0  0  0  0  0  0  0  0  0  0
   27.0449  -22.0551  -16.1586 O   0  0  0  0  0  0  0  0  0  0  0  0
   28.9257  -21.9835  -14.9107 O   0  0  0  0  0  0  0  0  0  0  0  0
  2  1  1  0
  3  2  2  0
  4  3  1  0
  5 11  1  0
  5  4  2  0
  6  7  1  0
  6  5  1  0
  7  8  1  6
  7  9  1  0
  9 10  2  0
 11 12  2  0
 12  2  1  0
 14 13  1  6
 14 15  1  0
 16 14  1  0
 17  9  1  0
 16 17  1  1
 18 16  1  0
 18 19  2  0
 20 21  1  0
 21 23  1  0
 22 21  2  0
 24 23  1  1
 24 26  1  0
 24 25  1  0
 25 18  1  0
 26 27  1  0
 28 26  2  0
M  END
$$$$
