YTN.pdb
     RDKit          3D

 28 28  0  0  1  0  0  0  0  0999 V2000
   17.1893  -18.2017  -19.1457 O   0  0  0  0  0  0  0  0  0  0  0  0
   17.5472  -16.9359  -18.6574 C   0  0  0  0  0  0  0  0  0  0  0  0
   17.3655  -15.7942  -19.4033 C   0  0  0  0  0  0  0  0  0  0  0  0
   17.7305  -14.5434  -18.8941 C   0  0  0  0  0  0  0  0  0  0  0  0
   18.2767  -14.4355  -17.6397 C   0  0  0  0  0  0  0  0  0  0  0  0
   18.6641  -13.1053  -17.1000 C   0  0  0  0  0  0  0  0  0  0  0  0
   19.9119  -12.6766  -17.8433 C   0  0  2  0  0  0  0  0  0  0  0  0
   21.0185  -13.5436  -17.5863 N   0  0  0  0  0  0  0  0  0  0  0  0
   20.3161  -11.2877  -17.5096 C   0  0  0  0  0  0  0  0  0  0  0  0
   20.9504  -11.0075  -16.4521 O   0  0  0  0  0  0  0  0  0  0  0  0
   18.4572  -15.5891  -16.8931 C   0  0  0  0  0  0  0  0  0  0  0  0
   18.0960  -16.8278  -17.3970 C   0  0  0  0  0  0  0  0  0  0  0  0
   22.3545   -8.9324  -19.6828 C   0  0  0  0  0  0  0  0  0  0  0  0
   21.0611   -8.2273  -19.3383 C   0  0  1  0  0  0  0  0  0  0  0  0
   20.1497   -8.2505  -20.3959 O   0  0  0  0  0  0  0  0  0  0  0  0
   20.4377   -8.8352  -18.0737 C   0  0  2  0  0  0  0  0  0  0  0  0
   20.0063  -10.1800  -18.3758 N   0  0  0  0  0  0  0  0  0  0  0  0
   19.2943   -7.9526  -17.7226 C   0  0  0  0  0  0  0  0  0  0  0  0
   18.1383   -8.4280  -17.8546 O   0  0  0  0  0  0  0  0  0  0  0  0
   16.3018   -4.2567  -15.7990 N   0  0  0  0  0  0  0  0  0  0  0  0
   16.5234   -5.4962  -15.1368 C   0  0  0  0  0  0  0  0  0  0  0  0
   15.8207   -5.7266  -14.1234 O   0  0  0  0  0  0  0  0  0  0  0  0
   17.5439   -6.3903  -15.6893 C   0  0  0  0  0  0  0  0  0  0  0  0
   18.3215   -5.7937  -16.8337 C   0  0  2  0  0  0  0  0  0  0  0  0
   19.4250   -6.6356  -17.2578 N   0  0  0  0  0  0  0  0  0  0  0  0
   18.8927   -4.4731  -16.4628 C   0  0  0  0  0  0  0  0  0  0  0  0
   18.1260   -3.3678  -16.1236 O   0  0  0  0  0  0  0  0  0  0  0  0
   20.1419   -4.3318  -16.4504 O   0  0  0  0  0  0  0  0  0  0  0  0
  2  1  1  0
  3  2  2  0
  4  3  1  0
  5 11  1  0
  5  4  2  0
  6  7  1  0
  6  5  1  0
  7  8  1  1
  7  9  1  0
  9 10  2  0
 11 12  2  0
 12  2  1  0
 14 13  1  6
 14 15  1  0
 16 14  1  0
 17  9  1  0
 16 17  1  6
 18 16  1  0
 18 19  2  0
 20 21  1  0
 21 23  1  0
 22 21  2  0
 24 23  1  1
 24 26  1  0
 24 25  1  0
 25 18  1  0
 26 27  1  0
 28 26  2  0
M  END
$$$$
