YTN.pdb
     RDKit          3D

 28 28  0  0  1  0  0  0  0  0999 V2000
   24.2097  -21.5866   -6.4550 O   0  0  0  0  0  0  0  0  0  0  0  0
   24.7449  -21.1852   -7.6883 C   0  0  0  0  0  0  0  0  0  0  0  0
   25.9852  -20.5974   -7.7826 C   0  0  0  0  0  0  0  0  0  0  0  0
   26.4970  -20.2059   -9.0243 C   0  0  0  0  0  0  0  0  0  0  0  0
   25.7681  -20.4026  -10.1704 C   0  0  0  0  0  0  0  0  0  0  0  0
   26.3135  -19.9859  -11.4893 C   0  0  0  0  0  0  0  0  0  0  0  0
   25.6383  -20.8478  -12.5355 C   0  0  2  0  0  0  0  0  0  0  0  0
   26.2867  -22.1113  -12.6952 N   0  0  0  0  0  0  0  0  0  0  0  0
   25.5778  -20.1805  -13.8603 C   0  0  0  0  0  0  0  0  0  0  0  0
   26.5029  -20.2962  -14.7146 O   0  0  0  0  0  0  0  0  0  0  0  0
   24.5194  -20.9952  -10.0691 C   0  0  0  0  0  0  0  0  0  0  0  0
   24.0123  -21.3830   -8.8397 C   0  0  0  0  0  0  0  0  0  0  0  0
   24.9473  -21.1093  -16.5075 C   0  0  0  0  0  0  0  0  0  0  0  0
   23.8822  -20.0349  -16.4966 C   0  0  1  0  0  0  0  0  0  0  0  0
   22.6363  -20.5310  -16.1074 O   0  0  0  0  0  0  0  0  0  0  0  0
   24.3055  -18.8674  -15.5937 C   0  0  2  0  0  0  0  0  0  0  0  0
   24.4575  -19.3620  -14.2453 N   0  0  0  0  0  0  0  0  0  0  0  0
   23.2151  -17.8622  -15.6953 C   0  0  0  0  0  0  0  0  0  0  0  0
   22.7005  -17.4606  -14.6212 O   0  0  0  0  0  0  0  0  0  0  0  0
   21.7885  -13.6167  -15.8599 N   0  0  0  0  0  0  0  0  0  0  0  0
   23.1844  -13.8822  -15.9305 C   0  0  0  0  0  0  0  0  0  0  0  0
   23.9404  -13.0855  -15.3243 O   0  0  0  0  0  0  0  0  0  0  0  0
   23.6167  -15.0528  -16.6980 C   0  0  0  0  0  0  0  0  0  0  0  0
   22.4831  -15.9326  -17.1574 C   0  0  2  0  0  0  0  0  0  0  0  0
   22.7305  -17.3400  -16.9035 N   0  0  0  0  0  0  0  0  0  0  0  0
   22.2464  -15.7835  -18.6167 C   0  0  0  0  0  0  0  0  0  0  0  0
   23.2374  -15.9205  -19.5778 O   0  0  0  0  0  0  0  0  0  0  0  0
   21.0862  -15.5177  -19.0213 O   0  0  0  0  0  0  0  0  0  0  0  0
  2  1  1  0
  3  2  2  0
  4  3  1  0
  5 11  1  0
  5  4  2  0
  6  7  1  0
  6  5  1  0
  7  8  1  6
  7  9  1  0
  9 10  2  0
 11 12  2  0
 12  2  1  0
 14 13  1  1
 14 15  1  0
 16 14  1  0
 17  9  1  0
 16 17  1  1
 18 16  1  0
 18 19  2  0
 20 21  1  0
 21 23  1  0
 22 21  2  0
 24 23  1  6
 24 26  1  0
 24 25  1  0
 25 18  1  0
 26 27  1  0
 28 26  2  0
M  END
$$$$
