YTN.pdb
     RDKit          3D

 28 28  0  0  1  0  0  0  0  0999 V2000
   21.1709  -22.8925   -7.1100 O   0  0  0  0  0  0  0  0  0  0  0  0
   22.2023  -22.2106   -7.7733 C   0  0  0  0  0  0  0  0  0  0  0  0
   22.0411  -21.7156   -9.0468 C   0  0  0  0  0  0  0  0  0  0  0  0
   23.0848  -21.0390   -9.6870 C   0  0  0  0  0  0  0  0  0  0  0  0
   24.2885  -20.8580   -9.0532 C   0  0  0  0  0  0  0  0  0  0  0  0
   25.3968  -20.1386   -9.7350 C   0  0  0  0  0  0  0  0  0  0  0  0
   25.6935  -20.8982  -11.0110 C   0  0  2  0  0  0  0  0  0  0  0  0
   26.3070  -22.1636  -10.7563 N   0  0  0  0  0  0  0  0  0  0  0  0
   26.5675  -20.1298  -11.9327 C   0  0  0  0  0  0  0  0  0  0  0  0
   27.8287  -20.2067  -11.8842 O   0  0  0  0  0  0  0  0  0  0  0  0
   24.4449  -21.3588   -7.7704 C   0  0  0  0  0  0  0  0  0  0  0  0
   23.4116  -22.0288   -7.1362 C   0  0  0  0  0  0  0  0  0  0  0  0
   28.3828  -20.5793  -14.1140 C   0  0  0  0  0  0  0  0  0  0  0  0
   27.4352  -19.6632  -14.8569 C   0  0  1  0  0  0  0  0  0  0  0  0
   26.4044  -20.3664  -15.4834 O   0  0  0  0  0  0  0  0  0  0  0  0
   26.8653  -18.5973  -13.9102 C   0  0  2  0  0  0  0  0  0  0  0  0
   26.0236  -19.2517  -12.9359 N   0  0  0  0  0  0  0  0  0  0  0  0
   26.0929  -17.6637  -14.7713 C   0  0  0  0  0  0  0  0  0  0  0  0
   24.9722  -18.0552  -15.1844 O   0  0  0  0  0  0  0  0  0  0  0  0
   26.2090  -11.7972  -16.9231 N   0  0  0  0  0  0  0  0  0  0  0  0
   25.6292  -13.0820  -16.7303 C   0  0  0  0  0  0  0  0  0  0  0  0
   24.4849  -13.2614  -17.2122 O   0  0  0  0  0  0  0  0  0  0  0  0
   26.4104  -14.0776  -15.9922 C   0  0  0  0  0  0  0  0  0  0  0  0
   25.7456  -15.4263  -15.8987 C   0  0  2  0  0  0  0  0  0  0  0  0
   26.5334  -16.3861  -15.1472 N   0  0  0  0  0  0  0  0  0  0  0  0
   25.5159  -16.0054  -17.2476 C   0  0  0  0  0  0  0  0  0  0  0  0
   24.2586  -16.2026  -17.7996 O   0  0  0  0  0  0  0  0  0  0  0  0
   26.5080  -16.3418  -17.9428 O   0  0  0  0  0  0  0  0  0  0  0  0
  2  1  1  0
  3  2  2  0
  4  3  1  0
  5 11  1  0
  5  4  2  0
  6  7  1  0
  6  5  1  0
  7  8  1  1
  7  9  1  0
  9 10  2  0
 11 12  2  0
 12  2  1  0
 14 13  1  1
 14 15  1  0
 16 14  1  0
 17  9  1  0
 16 17  1  1
 18 16  1  0
 18 19  2  0
 20 21  1  0
 21 23  1  0
 22 21  2  0
 24 23  1  6
 24 26  1  0
 24 25  1  0
 25 18  1  0
 26 27  1  0
 28 26  2  0
M  END
$$$$
