YTN.pdb
     RDKit          3D

 28 28  0  0  1  0  0  0  0  0999 V2000
   27.1916  -19.3558   -5.6143 O   0  0  0  0  0  0  0  0  0  0  0  0
   26.9090  -19.4693   -6.9839 C   0  0  0  0  0  0  0  0  0  0  0  0
   26.1442  -20.4986   -7.4826 C   0  0  0  0  0  0  0  0  0  0  0  0
   25.8764  -20.5899   -8.8526 C   0  0  0  0  0  0  0  0  0  0  0  0
   26.3735  -19.6520   -9.7226 C   0  0  0  0  0  0  0  0  0  0  0  0
   26.0879  -19.7506  -11.1784 C   0  0  0  0  0  0  0  0  0  0  0  0
   25.2939  -21.0235  -11.3846 C   0  0  2  0  0  0  0  0  0  0  0  0
   26.1011  -22.1936  -11.2374 N   0  0  0  0  0  0  0  0  0  0  0  0
   24.6399  -21.0688  -12.7166 C   0  0  0  0  0  0  0  0  0  0  0  0
   25.2367  -21.5000  -13.7446 O   0  0  0  0  0  0  0  0  0  0  0  0
   27.1432  -18.6176   -9.2143 C   0  0  0  0  0  0  0  0  0  0  0  0
   27.4086  -18.5269   -7.8578 C   0  0  0  0  0  0  0  0  0  0  0  0
   20.8617  -22.2807  -13.4073 C   0  0  0  0  0  0  0  0  0  0  0  0
   21.1307  -20.9042  -13.9746 C   0  0  1  0  0  0  0  0  0  0  0  0
   20.6112  -19.8901  -13.1673 O   0  0  0  0  0  0  0  0  0  0  0  0
   22.6359  -20.6998  -14.1983 C   0  0  2  0  0  0  0  0  0  0  0  0
   23.2848  -20.6222  -12.9103 N   0  0  0  0  0  0  0  0  0  0  0  0
   22.7622  -19.4291  -14.9594 C   0  0  0  0  0  0  0  0  0  0  0  0
   23.2781  -18.4500  -14.3635 O   0  0  0  0  0  0  0  0  0  0  0  0
   23.2632  -16.2425  -19.0382 N   0  0  0  0  0  0  0  0  0  0  0  0
   24.2711  -17.2206  -18.8114 C   0  0  0  0  0  0  0  0  0  0  0  0
   25.3481  -17.0749  -19.4380 O   0  0  0  0  0  0  0  0  0  0  0  0
   23.9687  -18.3050  -17.8739 C   0  0  0  0  0  0  0  0  0  0  0  0
   22.6785  -18.1157  -17.1193 C   0  0  2  0  0  0  0  0  0  0  0  0
   22.3455  -19.2577  -16.2876 N   0  0  0  0  0  0  0  0  0  0  0  0
   21.5398  -17.9018  -18.0496 C   0  0  0  0  0  0  0  0  0  0  0  0
   21.0596  -16.6505  -18.4077 O   0  0  0  0  0  0  0  0  0  0  0  0
   20.9667  -18.9023  -18.5507 O   0  0  0  0  0  0  0  0  0  0  0  0
  2  1  1  0
  3  2  2  0
  4  3  1  0
  5 11  1  0
  5  4  2  0
  6  7  1  0
  6  5  1  0
  7  8  1  6
  7  9  1  0
  9 10  2  0
 11 12  2  0
 12  2  1  0
 14 13  1  1
 14 15  1  0
 16 14  1  0
 17  9  1  0
 16 17  1  1
 18 16  1  0
 18 19  2  0
 20 21  1  0
 21 23  1  0
 22 21  2  0
 24 23  1  6
 24 26  1  0
 24 25  1  0
 25 18  1  0
 26 27  1  0
 28 26  2  0
M  END
$$$$
