YTN.pdb
     RDKit          3D

 28 28  0  0  1  0  0  0  0  0999 V2000
   20.4122  -23.0175   -7.1663 O   0  0  0  0  0  0  0  0  0  0  0  0
   21.2793  -22.2318   -7.9406 C   0  0  0  0  0  0  0  0  0  0  0  0
   21.0752  -22.0408   -9.2877 C   0  0  0  0  0  0  0  0  0  0  0  0
   21.9542  -21.2528  -10.0381 C   0  0  0  0  0  0  0  0  0  0  0  0
   23.0365  -20.6564   -9.4409 C   0  0  0  0  0  0  0  0  0  0  0  0
   23.9698  -19.8192  -10.2400 C   0  0  0  0  0  0  0  0  0  0  0  0
   25.0486  -20.7433  -10.7648 C   0  0  2  0  0  0  0  0  0  0  0  0
   25.8907  -21.2380   -9.7215 N   0  0  0  0  0  0  0  0  0  0  0  0
   25.9029  -20.0875  -11.7865 C   0  0  0  0  0  0  0  0  0  0  0  0
   26.9862  -19.5085  -11.4863 O   0  0  0  0  0  0  0  0  0  0  0  0
   23.2368  -20.8524   -8.0836 C   0  0  0  0  0  0  0  0  0  0  0  0
   22.3666  -21.6327   -7.3402 C   0  0  0  0  0  0  0  0  0  0  0  0
   28.4690  -20.2740  -12.9137 C   0  0  0  0  0  0  0  0  0  0  0  0
   27.7029  -20.4302  -14.2090 C   0  0  1  0  0  0  0  0  0  0  0  0
   27.3828  -21.7630  -14.4752 O   0  0  0  0  0  0  0  0  0  0  0  0
   26.4363  -19.5626  -14.1923 C   0  0  2  0  0  0  0  0  0  0  0  0
   25.5422  -20.0754  -13.1805 N   0  0  0  0  0  0  0  0  0  0  0  0
   25.8525  -19.6739  -15.5549 C   0  0  0  0  0  0  0  0  0  0  0  0
   25.1035  -20.6574  -15.7818 O   0  0  0  0  0  0  0  0  0  0  0  0
   22.8317  -18.6383  -16.6804 N   0  0  0  0  0  0  0  0  0  0  0  0
   23.2327  -17.4301  -17.3156 C   0  0  0  0  0  0  0  0  0  0  0  0
   22.4198  -16.4755  -17.2741 O   0  0  0  0  0  0  0  0  0  0  0  0
   24.5489  -17.4033  -17.9583 C   0  0  0  0  0  0  0  0  0  0  0  0
   25.3190  -18.6913  -17.8236 C   0  0  2  0  0  0  0  0  0  0  0  0
   26.0838  -18.7582  -16.5919 N   0  0  0  0  0  0  0  0  0  0  0  0
   26.2769  -18.8630  -18.9464 C   0  0  0  0  0  0  0  0  0  0  0  0
   27.4104  -19.6599  -18.8796 O   0  0  0  0  0  0  0  0  0  0  0  0
   26.0626  -18.2579  -20.0274 O   0  0  0  0  0  0  0  0  0  0  0  0
  2  1  1  0
  3  2  2  0
  4  3  1  0
  5 11  1  0
  5  4  2  0
  6  7  1  0
  6  5  1  0
  7  8  1  1
  7  9  1  0
  9 10  2  0
 11 12  2  0
 12  2  1  0
 14 13  1  1
 14 15  1  0
 16 14  1  0
 17  9  1  0
 16 17  1  1
 18 16  1  0
 18 19  2  0
 20 21  1  0
 21 23  1  0
 22 21  2  0
 24 23  1  6
 24 26  1  0
 24 25  1  0
 25 18  1  0
 26 27  1  0
 28 26  2  0
M  END
$$$$
