YTN.pdb
     RDKit          3D

 28 28  0  0  1  0  0  0  0  0999 V2000
   15.7117  -15.4966  -15.9400 O   0  0  0  0  0  0  0  0  0  0  0  0
   16.4805  -14.3228  -15.9419 C   0  0  0  0  0  0  0  0  0  0  0  0
   16.2000  -13.2748  -16.7879 C   0  0  0  0  0  0  0  0  0  0  0  0
   16.9817  -12.1148  -16.7707 C   0  0  0  0  0  0  0  0  0  0  0  0
   18.0430  -12.0038  -15.9077 C   0  0  0  0  0  0  0  0  0  0  0  0
   18.8727  -10.7702  -15.8907 C   0  0  0  0  0  0  0  0  0  0  0  0
   19.7749  -10.8314  -17.1055 C   0  0  2  0  0  0  0  0  0  0  0  0
   20.7634  -11.8574  -16.9932 N   0  0  0  0  0  0  0  0  0  0  0  0
   20.4639   -9.5413  -17.3599 C   0  0  0  0  0  0  0  0  0  0  0  0
   21.4999   -9.1951  -16.7230 O   0  0  0  0  0  0  0  0  0  0  0  0
   18.3206  -13.0629  -15.0579 C   0  0  0  0  0  0  0  0  0  0  0  0
   17.5468  -14.2116  -15.0746 C   0  0  0  0  0  0  0  0  0  0  0  0
   21.9654   -8.4469  -20.5328 C   0  0  0  0  0  0  0  0  0  0  0  0
   20.9914   -7.3524  -20.1558 C   0  0  1  0  0  0  0  0  0  0  0  0
   19.8058   -7.4254  -20.8899 O   0  0  0  0  0  0  0  0  0  0  0  0
   20.6979   -7.3894  -18.6493 C   0  0  2  0  0  0  0  0  0  0  0  0
   19.9875   -8.6108  -18.3501 N   0  0  0  0  0  0  0  0  0  0  0  0
   19.8720   -6.1856  -18.3689 C   0  0  0  0  0  0  0  0  0  0  0  0
   18.6716   -6.3732  -18.0469 O   0  0  0  0  0  0  0  0  0  0  0  0
   16.9463   -2.2737  -16.7551 N   0  0  0  0  0  0  0  0  0  0  0  0
   18.3153   -2.4317  -16.4020 C   0  0  0  0  0  0  0  0  0  0  0  0
   18.8545   -1.4745  -15.7962 O   0  0  0  0  0  0  0  0  0  0  0  0
   18.9734   -3.6871  -16.7723 C   0  0  0  0  0  0  0  0  0  0  0  0
   19.5494   -3.6854  -18.1644 C   0  0  2  0  0  0  0  0  0  0  0  0
   20.3453   -4.8672  -18.4408 N   0  0  0  0  0  0  0  0  0  0  0  0
   20.4250   -2.5046  -18.3807 C   0  0  0  0  0  0  0  0  0  0  0  0
   19.9507   -1.2358  -18.6803 O   0  0  0  0  0  0  0  0  0  0  0  0
   21.6711   -2.6459  -18.2908 O   0  0  0  0  0  0  0  0  0  0  0  0
  2  1  1  0
  3  2  2  0
  4  3  1  0
  5 11  1  0
  5  4  2  0
  6  7  1  0
  6  5  1  0
  7  8  1  1
  7  9  1  0
  9 10  2  0
 11 12  2  0
 12  2  1  0
 14 13  1  6
 14 15  1  0
 16 14  1  0
 17  9  1  0
 16 17  1  6
 18 16  1  0
 18 19  2  0
 20 21  1  0
 21 23  1  0
 22 21  2  0
 24 23  1  1
 24 26  1  0
 24 25  1  0
 25 18  1  0
 26 27  1  0
 28 26  2  0
M  END
$$$$
