IYD.pdb
     RDKit          3D

 29 29  0  0  1  0  0  0  0  0999 V2000
    7.7310  -12.3735   17.8195 C   0  0  0  0  0  0  0  0  0  0  0  0
    7.7232  -13.6203   18.6525 C   0  0  0  0  0  0  0  0  0  0  0  0
    9.0431  -14.4034   18.5345 C   0  0  2  0  0  0  0  0  0  0  0  0
    9.3000  -14.7602   17.1102 C   0  0  0  0  0  0  0  0  0  0  0  0
    9.0045  -15.5724   19.4885 C   0  0  2  0  0  0  0  0  0  0  0  0
    7.7113  -16.2652   19.2652 N   0  0  0  0  0  0  0  0  0  0  0  0
    9.1546  -15.2218   20.9038 C   0  0  0  0  0  0  0  0  0  0  0  0
   10.2725  -14.7457   21.2640 O   0  0  0  0  0  0  0  0  0  0  0  0
    7.0188  -12.1963   29.0857 O   0  0  0  0  0  0  0  0  0  0  0  0
    7.0192  -12.7326   27.7953 C   0  0  0  0  0  0  0  0  0  0  0  0
    7.5631  -12.0368   26.7381 C   0  0  0  0  0  0  0  0  0  0  0  0
    7.5701  -12.5536   25.4604 C   0  0  0  0  0  0  0  0  0  0  0  0
    7.0392  -13.7897   25.1552 C   0  0  0  0  0  0  0  0  0  0  0  0
    7.0306  -14.3823   23.8093 C   0  0  0  0  0  0  0  0  0  0  0  0
    8.3814  -14.7829   23.2734 C   0  0  2  0  0  0  0  0  0  0  0  0
    8.1733  -15.3594   21.9122 N   0  0  0  0  0  0  0  0  0  0  0  0
    8.9635  -15.8390   24.1029 C   0  0  0  0  0  0  0  0  0  0  0  0
    8.4158  -16.9955   24.0355 O   0  0  0  0  0  0  0  0  0  0  0  0
    6.4894  -14.4830   26.2472 C   0  0  0  0  0  0  0  0  0  0  0  0
    6.4796  -13.9719   27.5241 C   0  0  0  0  0  0  0  0  0  0  0  0
   10.0629  -15.7597   24.9721 N   0  0  0  0  0  0  0  0  0  0  0  0
   10.5491  -16.8977   25.6819 C   0  0  1  0  0  0  0  0  0  0  0  0
   12.0666  -16.9317   25.7154 C   0  0  0  0  0  0  0  0  0  0  0  0
   12.6462  -17.5691   24.5312 C   0  0  0  0  0  0  0  0  0  0  0  0
   12.1903  -18.5857   23.9520 O   0  0  0  0  0  0  0  0  0  0  0  0
   10.0764  -17.0910   27.0437 C   0  0  0  0  0  0  0  0  0  0  0  0
   10.4758  -18.1617   27.6259 O   0  0  0  0  0  0  0  0  0  0  0  0
   13.7980  -17.0114   23.9937 O   0  0  0  0  0  0  0  0  0  0  0  0
    9.2636  -16.2905   27.7954 O   0  0  0  0  0  0  0  0  0  0  0  0
  1  2  1  0
  2  3  1  0
  3  4  1  6
  5  3  1  0
  5  6  1  1
  7  5  1  0
  8  7  2  0
  9 10  1  0
 10 11  2  0
 11 12  1  0
 13 12  2  0
 13 14  1  0
 15 14  1  1
 15 16  1  0
 16  7  1  0
 17 21  1  0
 17 15  1  0
 18 17  2  0
 19 13  1  0
 20 10  1  0
 20 19  2  0
 22 21  1  0
 22 26  1  0
 22 23  1  1
 23 24  1  0
 24 25  2  0
 26 29  1  0
 27 26  2  0
 28 24  1  0
M  END
$$$$
