IYD.pdb
     RDKit          3D

 29 29  0  0  1  0  0  0  0  0999 V2000
    6.6434  -15.4699   17.1686 C   0  0  0  0  0  0  0  0  0  0  0  0
    6.9257  -14.3231   18.0925 C   0  0  0  0  0  0  0  0  0  0  0  0
    7.6295  -14.7794   19.3831 C   0  0  2  0  0  0  0  0  0  0  0  0
    6.8823  -15.9126   19.9994 C   0  0  0  0  0  0  0  0  0  0  0  0
    7.8278  -13.5824   20.2808 C   0  0  2  0  0  0  0  0  0  0  0  0
    8.5698  -12.5706   19.4883 N   0  0  0  0  0  0  0  0  0  0  0  0
    8.5320  -13.8597   21.5362 C   0  0  0  0  0  0  0  0  0  0  0  0
    9.7806  -14.0641   21.4633 O   0  0  0  0  0  0  0  0  0  0  0  0
   10.1720  -15.5135   30.2369 O   0  0  0  0  0  0  0  0  0  0  0  0
    9.6376  -15.0947   29.0154 C   0  0  0  0  0  0  0  0  0  0  0  0
    9.8386  -13.8117   28.5560 C   0  0  0  0  0  0  0  0  0  0  0  0
    9.3174  -13.3853   27.3533 C   0  0  0  0  0  0  0  0  0  0  0  0
    8.5671  -14.2045   26.5356 C   0  0  0  0  0  0  0  0  0  0  0  0
    7.9975  -13.7941   25.2434 C   0  0  0  0  0  0  0  0  0  0  0  0
    8.7942  -14.2013   24.0301 C   0  0  2  0  0  0  0  0  0  0  0  0
    7.9573  -13.9200   22.8264 N   0  0  0  0  0  0  0  0  0  0  0  0
    9.0477  -15.6427   24.0499 C   0  0  0  0  0  0  0  0  0  0  0  0
    8.1985  -16.3878   23.4452 O   0  0  0  0  0  0  0  0  0  0  0  0
    8.3736  -15.5088   27.0224 C   0  0  0  0  0  0  0  0  0  0  0  0
    8.8913  -15.9395   28.2218 C   0  0  0  0  0  0  0  0  0  0  0  0
   10.1158  -16.3327   24.6446 N   0  0  0  0  0  0  0  0  0  0  0  0
   10.6562  -17.5242   24.0759 C   0  0  1  0  0  0  0  0  0  0  0  0
   10.9742  -17.3480   22.6018 C   0  0  0  0  0  0  0  0  0  0  0  0
   11.5295  -18.5583   21.9924 C   0  0  0  0  0  0  0  0  0  0  0  0
   11.8215  -19.6158   22.6033 O   0  0  0  0  0  0  0  0  0  0  0  0
   11.8316  -18.0978   24.7120 C   0  0  0  0  0  0  0  0  0  0  0  0
   12.2740  -19.1831   24.1912 O   0  0  0  0  0  0  0  0  0  0  0  0
   11.7570  -18.5482   20.6231 O   0  0  0  0  0  0  0  0  0  0  0  0
   12.5356  -17.6431   25.7910 O   0  0  0  0  0  0  0  0  0  0  0  0
  1  2  1  0
  2  3  1  0
  3  4  1  1
  5  3  1  0
  5  6  1  6
  7  5  1  0
  8  7  2  0
  9 10  1  0
 10 11  2  0
 11 12  1  0
 13 12  2  0
 13 14  1  0
 15 14  1  1
 15 16  1  0
 16  7  1  0
 17 21  1  0
 17 15  1  0
 18 17  2  0
 19 13  1  0
 20 10  1  0
 20 19  2  0
 22 21  1  0
 22 26  1  0
 22 23  1  6
 23 24  1  0
 24 25  2  0
 26 29  1  0
 27 26  2  0
 28 24  1  0
M  END
$$$$
