IYD.pdb
     RDKit          3D

 29 29  0  0  1  0  0  0  0  0999 V2000
    6.6591  -17.3202   17.6658 C   0  0  0  0  0  0  0  0  0  0  0  0
    6.6461  -16.0137   18.4014 C   0  0  0  0  0  0  0  0  0  0  0  0
    7.5503  -16.0416   19.6467 C   0  0  2  0  0  0  0  0  0  0  0  0
    7.3035  -17.2859   20.4296 C   0  0  0  0  0  0  0  0  0  0  0  0
    7.3631  -14.7562   20.4153 C   0  0  2  0  0  0  0  0  0  0  0  0
    7.6872  -13.6482   19.4829 N   0  0  0  0  0  0  0  0  0  0  0  0
    8.1654  -14.6426   21.6368 C   0  0  0  0  0  0  0  0  0  0  0  0
    9.3999  -14.3937   21.4941 O   0  0  0  0  0  0  0  0  0  0  0  0
   10.6135  -14.8369   30.3080 O   0  0  0  0  0  0  0  0  0  0  0  0
    9.9207  -14.7425   29.0981 C   0  0  0  0  0  0  0  0  0  0  0  0
    9.8097  -13.5395   28.4363 C   0  0  0  0  0  0  0  0  0  0  0  0
    9.1294  -13.4321   27.2424 C   0  0  0  0  0  0  0  0  0  0  0  0
    8.5196  -14.5096   26.6342 C   0  0  0  0  0  0  0  0  0  0  0  0
    7.7896  -14.4423   25.3594 C   0  0  0  0  0  0  0  0  0  0  0  0
    8.6291  -14.6505   24.1248 C   0  0  2  0  0  0  0  0  0  0  0  0
    7.6993  -14.7807   22.9643 N   0  0  0  0  0  0  0  0  0  0  0  0
    9.3725  -15.9075   24.2229 C   0  0  0  0  0  0  0  0  0  0  0  0
    8.7049  -16.9888   24.0583 O   0  0  0  0  0  0  0  0  0  0  0  0
    8.6445  -15.7272   27.3253 C   0  0  0  0  0  0  0  0  0  0  0  0
    9.3221  -15.8400   28.5169 C   0  0  0  0  0  0  0  0  0  0  0  0
   10.7417  -16.0946   24.4697 N   0  0  0  0  0  0  0  0  0  0  0  0
   11.3386  -17.3903   24.4764 C   0  0  1  0  0  0  0  0  0  0  0  0
   12.3670  -17.5398   23.3696 C   0  0  0  0  0  0  0  0  0  0  0  0
   11.8282  -18.2023   22.1799 C   0  0  0  0  0  0  0  0  0  0  0  0
   10.6390  -18.5752   22.0271 O   0  0  0  0  0  0  0  0  0  0  0  0
   11.9586  -17.8367   25.7138 C   0  0  0  0  0  0  0  0  0  0  0  0
   12.0618  -16.9522   26.6368 O   0  0  0  0  0  0  0  0  0  0  0  0
   12.6962  -18.4441   21.1240 O   0  0  0  0  0  0  0  0  0  0  0  0
   12.4493  -19.0706   26.0354 O   0  0  0  0  0  0  0  0  0  0  0  0
  1  2  1  0
  2  3  1  0
  3  4  1  1
  5  3  1  0
  5  6  1  6
  7  5  1  0
  8  7  2  0
  9 10  1  0
 10 11  2  0
 11 12  1  0
 13 12  2  0
 13 14  1  0
 15 14  1  1
 15 16  1  0
 16  7  1  0
 17 21  1  0
 17 15  1  0
 18 17  2  0
 19 13  1  0
 20 10  1  0
 20 19  2  0
 22 21  1  0
 22 26  1  0
 22 23  1  6
 23 24  1  0
 24 25  2  0
 26 29  1  0
 27 26  2  0
 28 24  1  0
M  END
$$$$
