IYD.pdb
     RDKit          3D

 29 29  0  0  1  0  0  0  0  0999 V2000
    5.4855  -13.7578   18.7206 C   0  0  0  0  0  0  0  0  0  0  0  0
    6.8063  -14.3499   18.3292 C   0  0  0  0  0  0  0  0  0  0  0  0
    7.6467  -14.7511   19.5548 C   0  0  2  0  0  0  0  0  0  0  0  0
    7.0833  -15.9813   20.1802 C   0  0  0  0  0  0  0  0  0  0  0  0
    7.7636  -13.5622   20.4773 C   0  0  2  0  0  0  0  0  0  0  0  0
    8.3959  -12.4722   19.6936 N   0  0  0  0  0  0  0  0  0  0  0  0
    8.5200  -13.8062   21.7090 C   0  0  0  0  0  0  0  0  0  0  0  0
    9.7789  -13.9062   21.6017 O   0  0  0  0  0  0  0  0  0  0  0  0
   10.5961  -15.6544   30.2757 O   0  0  0  0  0  0  0  0  0  0  0  0
    9.9640  -15.2708   29.0899 C   0  0  0  0  0  0  0  0  0  0  0  0
   10.0537  -13.9774   28.6246 C   0  0  0  0  0  0  0  0  0  0  0  0
    9.4353  -13.5854   27.4568 C   0  0  0  0  0  0  0  0  0  0  0  0
    8.6923  -14.4514   26.6817 C   0  0  0  0  0  0  0  0  0  0  0  0
    8.0215  -14.0786   25.4273 C   0  0  0  0  0  0  0  0  0  0  0  0
    8.8728  -14.1788   24.1873 C   0  0  2  0  0  0  0  0  0  0  0  0
    7.9855  -13.9395   23.0109 N   0  0  0  0  0  0  0  0  0  0  0  0
    9.4123  -15.5325   24.0502 C   0  0  0  0  0  0  0  0  0  0  0  0
    8.5824  -16.4569   23.7358 O   0  0  0  0  0  0  0  0  0  0  0  0
    8.6132  -15.7657   27.1737 C   0  0  0  0  0  0  0  0  0  0  0  0
    9.2281  -16.1621   28.3384 C   0  0  0  0  0  0  0  0  0  0  0  0
   10.7383  -15.9638   24.2117 N   0  0  0  0  0  0  0  0  0  0  0  0
   11.1077  -17.3359   24.0847 C   0  0  1  0  0  0  0  0  0  0  0  0
   11.5757  -17.6629   22.6778 C   0  0  0  0  0  0  0  0  0  0  0  0
   11.9874  -19.0601   22.5270 C   0  0  0  0  0  0  0  0  0  0  0  0
   11.4488  -20.0451   23.0896 O   0  0  0  0  0  0  0  0  0  0  0  0
   12.1059  -17.8501   25.0090 C   0  0  0  0  0  0  0  0  0  0  0  0
   12.3999  -19.0917   24.8784 O   0  0  0  0  0  0  0  0  0  0  0  0
   13.0637  -19.3319   21.6937 O   0  0  0  0  0  0  0  0  0  0  0  0
   12.7790  -17.1959   26.0018 O   0  0  0  0  0  0  0  0  0  0  0  0
  1  2  1  0
  2  3  1  0
  3  4  1  1
  5  3  1  0
  5  6  1  6
  7  5  1  0
  8  7  2  0
  9 10  1  0
 10 11  2  0
 11 12  1  0
 13 12  2  0
 13 14  1  0
 15 14  1  1
 15 16  1  0
 16  7  1  0
 17 21  1  0
 17 15  1  0
 18 17  2  0
 19 13  1  0
 20 10  1  0
 20 19  2  0
 22 21  1  0
 22 26  1  0
 22 23  1  6
 23 24  1  0
 24 25  2  0
 26 29  1  0
 27 26  2  0
 28 24  1  0
M  END
$$$$
