IYD.pdb
     RDKit          3D

 29 29  0  0  1  0  0  0  0  0999 V2000
    6.4123  -13.1412   18.1684 C   0  0  0  0  0  0  0  0  0  0  0  0
    7.2866  -14.2125   18.7482 C   0  0  0  0  0  0  0  0  0  0  0  0
    7.7665  -13.8625   20.1682 C   0  0  2  0  0  0  0  0  0  0  0  0
    8.4441  -12.5348   20.1659 C   0  0  0  0  0  0  0  0  0  0  0  0
    8.6005  -15.0038   20.6973 C   0  0  2  0  0  0  0  0  0  0  0  0
    7.7271  -16.2035   20.7087 N   0  0  0  0  0  0  0  0  0  0  0  0
    9.1784  -14.7843   22.0264 C   0  0  0  0  0  0  0  0  0  0  0  0
   10.1751  -14.0048   22.0996 O   0  0  0  0  0  0  0  0  0  0  0  0
   10.8792  -15.1586   30.8612 O   0  0  0  0  0  0  0  0  0  0  0  0
   10.3061  -15.2140   29.5878 C   0  0  0  0  0  0  0  0  0  0  0  0
   10.0069  -14.0623   28.8939 C   0  0  0  0  0  0  0  0  0  0  0  0
    9.4416  -14.1023   27.6375 C   0  0  0  0  0  0  0  0  0  0  0  0
    9.1400  -15.2851   26.9950 C   0  0  0  0  0  0  0  0  0  0  0  0
    8.5430  -15.3749   25.6540 C   0  0  0  0  0  0  0  0  0  0  0  0
    9.4993  -15.1639   24.5079 C   0  0  2  0  0  0  0  0  0  0  0  0
    8.7333  -15.3546   23.2409 N   0  0  0  0  0  0  0  0  0  0  0  0
   10.5514  -16.1812   24.5312 C   0  0  0  0  0  0  0  0  0  0  0  0
   11.4359  -16.0778   25.4527 O   0  0  0  0  0  0  0  0  0  0  0  0
    9.4528  -16.4481   27.7196 C   0  0  0  0  0  0  0  0  0  0  0  0
   10.0168  -16.4139   28.9736 C   0  0  0  0  0  0  0  0  0  0  0  0
   10.7238  -17.2780   23.6721 N   0  0  0  0  0  0  0  0  0  0  0  0
   11.8050  -18.1960   23.8259 C   0  0  1  0  0  0  0  0  0  0  0  0
   11.3264  -19.6365   23.7944 C   0  0  0  0  0  0  0  0  0  0  0  0
   10.5171  -19.9913   24.9622 C   0  0  0  0  0  0  0  0  0  0  0  0
   10.5073  -19.3778   26.0578 O   0  0  0  0  0  0  0  0  0  0  0  0
   12.9176  -18.0836   22.8961 C   0  0  0  0  0  0  0  0  0  0  0  0
   12.7818  -17.2104   21.9667 O   0  0  0  0  0  0  0  0  0  0  0  0
    9.6856  -21.0982   24.8619 O   0  0  0  0  0  0  0  0  0  0  0  0
   14.0934  -18.7791   22.8714 O   0  0  0  0  0  0  0  0  0  0  0  0
  1  2  1  0
  2  3  1  0
  3  4  1  6
  5  3  1  0
  5  6  1  1
  7  5  1  0
  8  7  2  0
  9 10  1  0
 10 11  2  0
 11 12  1  0
 13 12  2  0
 13 14  1  0
 15 14  1  1
 15 16  1  0
 16  7  1  0
 17 21  1  0
 17 15  1  0
 18 17  2  0
 19 13  1  0
 20 10  1  0
 20 19  2  0
 22 21  1  0
 22 26  1  0
 22 23  1  6
 23 24  1  0
 24 25  2  0
 26 29  1  0
 27 26  2  0
 28 24  1  0
M  END
$$$$
