IYD.pdb
     RDKit          3D

 29 29  0  0  1  0  0  0  0  0999 V2000
    9.9515  -16.8904   17.3412 C   0  0  0  0  0  0  0  0  0  0  0  0
    9.5712  -15.5252   17.8307 C   0  0  0  0  0  0  0  0  0  0  0  0
    8.0592  -15.2657   17.7053 C   0  0  2  0  0  0  0  0  0  0  0  0
    7.6182  -15.4842   16.2982 C   0  0  0  0  0  0  0  0  0  0  0  0
    7.7498  -13.8990   18.2661 C   0  0  2  0  0  0  0  0  0  0  0  0
    8.4653  -12.9151   17.4163 N   0  0  0  0  0  0  0  0  0  0  0  0
    8.1114  -13.7111   19.6742 C   0  0  0  0  0  0  0  0  0  0  0  0
    9.1499  -13.0260   19.9157 O   0  0  0  0  0  0  0  0  0  0  0  0
    7.7295  -13.1257   28.6374 O   0  0  0  0  0  0  0  0  0  0  0  0
    7.4702  -13.3368   27.2805 C   0  0  0  0  0  0  0  0  0  0  0  0
    7.5566  -12.3043   26.3728 C   0  0  0  0  0  0  0  0  0  0  0  0
    7.3036  -12.4983   25.0319 C   0  0  0  0  0  0  0  0  0  0  0  0
    6.9506  -13.7262   24.5117 C   0  0  0  0  0  0  0  0  0  0  0  0
    6.6780  -13.9799   23.0890 C   0  0  0  0  0  0  0  0  0  0  0  0
    7.8833  -13.9361   22.1847 C   0  0  2  0  0  0  0  0  0  0  0  0
    7.4147  -14.2169   20.7954 N   0  0  0  0  0  0  0  0  0  0  0  0
    8.8254  -14.9974   22.5431 C   0  0  0  0  0  0  0  0  0  0  0  0
    9.3571  -14.9301   23.7071 O   0  0  0  0  0  0  0  0  0  0  0  0
    6.8680  -14.7659   25.4539 C   0  0  0  0  0  0  0  0  0  0  0  0
    7.1192  -14.5777   26.7931 C   0  0  0  0  0  0  0  0  0  0  0  0
    9.2283  -16.1021   21.7764 N   0  0  0  0  0  0  0  0  0  0  0  0
   10.0797  -17.1181   22.3037 C   0  0  1  0  0  0  0  0  0  0  0  0
    9.9448  -18.4190   21.5325 C   0  0  0  0  0  0  0  0  0  0  0  0
    8.5647  -18.9057   21.4777 C   0  0  0  0  0  0  0  0  0  0  0  0
    7.5774  -18.3669   22.0361 O   0  0  0  0  0  0  0  0  0  0  0  0
   11.4985  -16.8163   22.4089 C   0  0  0  0  0  0  0  0  0  0  0  0
   11.8680  -15.6927   21.9131 O   0  0  0  0  0  0  0  0  0  0  0  0
    8.3135  -20.0605   20.7495 O   0  0  0  0  0  0  0  0  0  0  0  0
   12.4993  -17.5628   22.9637 O   0  0  0  0  0  0  0  0  0  0  0  0
  1  2  1  0
  2  3  1  0
  3  4  1  6
  5  3  1  0
  5  6  1  6
  7  5  1  0
  8  7  2  0
  9 10  1  0
 10 11  2  0
 11 12  1  0
 13 12  2  0
 13 14  1  0
 15 14  1  1
 15 16  1  0
 16  7  1  0
 17 21  1  0
 17 15  1  0
 18 17  2  0
 19 13  1  0
 20 10  1  0
 20 19  2  0
 22 21  1  0
 22 26  1  0
 22 23  1  6
 23 24  1  0
 24 25  2  0
 26 29  1  0
 27 26  2  0
 28 24  1  0
M  END
$$$$
