IYD.pdb
     RDKit          3D

 29 29  0  0  1  0  0  0  0  0999 V2000
    4.3339  -21.7664   22.9816 C   0  0  0  0  0  0  0  0  0  0  0  0
    4.4292  -20.2726   22.8927 C   0  0  0  0  0  0  0  0  0  0  0  0
    5.8374  -19.8060   22.4821 C   0  0  2  0  0  0  0  0  0  0  0  0
    6.8690  -20.5479   23.2615 C   0  0  0  0  0  0  0  0  0  0  0  0
    5.9075  -18.3028   22.5995 C   0  0  2  0  0  0  0  0  0  0  0  0
    4.7774  -17.7579   21.8069 N   0  0  0  0  0  0  0  0  0  0  0  0
    7.1713  -17.7055   22.1582 C   0  0  0  0  0  0  0  0  0  0  0  0
    7.6693  -18.1435   21.0782 O   0  0  0  0  0  0  0  0  0  0  0  0
    6.3422  -12.3909   17.7627 O   0  0  0  0  0  0  0  0  0  0  0  0
    7.0094  -12.9400   18.8610 C   0  0  0  0  0  0  0  0  0  0  0  0
    6.4766  -12.8571   20.1286 C   0  0  0  0  0  0  0  0  0  0  0  0
    7.1237  -13.3941   21.2207 C   0  0  0  0  0  0  0  0  0  0  0  0
    8.3360  -14.0447   21.1210 C   0  0  0  0  0  0  0  0  0  0  0  0
    9.0581  -14.6374   22.2568 C   0  0  0  0  0  0  0  0  0  0  0  0
    9.1592  -16.1414   22.2414 C   0  0  2  0  0  0  0  0  0  0  0  0
    7.8931  -16.6840   22.8169 N   0  0  0  0  0  0  0  0  0  0  0  0
   10.2507  -16.5854   23.1096 C   0  0  0  0  0  0  0  0  0  0  0  0
   11.4436  -16.3447   22.7082 O   0  0  0  0  0  0  0  0  0  0  0  0
    8.8624  -14.1183   19.8198 C   0  0  0  0  0  0  0  0  0  0  0  0
    8.2209  -13.5841   18.7267 C   0  0  0  0  0  0  0  0  0  0  0  0
   10.1690  -17.2440   24.3466 N   0  0  0  0  0  0  0  0  0  0  0  0
   11.3319  -17.6729   25.0530 C   0  0  1  0  0  0  0  0  0  0  0  0
   12.4375  -16.6339   24.9966 C   0  0  0  0  0  0  0  0  0  0  0  0
   13.6753  -17.1535   24.4116 C   0  0  0  0  0  0  0  0  0  0  0  0
   13.8517  -18.3258   23.9976 O   0  0  0  0  0  0  0  0  0  0  0  0
   11.1661  -18.0612   26.4447 C   0  0  0  0  0  0  0  0  0  0  0  0
   12.2147  -18.5178   27.0251 O   0  0  0  0  0  0  0  0  0  0  0  0
   14.7530  -16.2859   24.2997 O   0  0  0  0  0  0  0  0  0  0  0  0
   10.0469  -18.0084   27.2265 O   0  0  0  0  0  0  0  0  0  0  0  0
  1  2  1  0
  2  3  1  0
  3  4  1  1
  5  3  1  0
  5  6  1  6
  7  5  1  0
  8  7  2  0
  9 10  1  0
 10 11  2  0
 11 12  1  0
 13 12  2  0
 13 14  1  0
 15 14  1  1
 15 16  1  0
 16  7  1  0
 17 21  1  0
 17 15  1  0
 18 17  2  0
 19 13  1  0
 20 10  1  0
 20 19  2  0
 22 21  1  0
 22 26  1  0
 22 23  1  1
 23 24  1  0
 24 25  2  0
 26 29  1  0
 27 26  2  0
 28 24  1  0
M  END
$$$$
