IYD.pdb
     RDKit          3D

 29 29  0  0  1  0  0  0  0  0999 V2000
    6.6500  -15.9042   16.9571 C   0  0  0  0  0  0  0  0  0  0  0  0
    6.6330  -14.7384   17.8998 C   0  0  0  0  0  0  0  0  0  0  0  0
    7.4954  -14.9919   19.1494 C   0  0  2  0  0  0  0  0  0  0  0  0
    7.1636  -16.3205   19.7382 C   0  0  0  0  0  0  0  0  0  0  0  0
    7.3473  -13.8216   20.0909 C   0  0  2  0  0  0  0  0  0  0  0  0
    7.7649  -12.6117   19.3398 N   0  0  0  0  0  0  0  0  0  0  0  0
    8.1074  -13.9311   21.3394 C   0  0  0  0  0  0  0  0  0  0  0  0
    9.3607  -13.7570   21.2680 O   0  0  0  0  0  0  0  0  0  0  0  0
   10.1523  -14.7703   30.0858 O   0  0  0  0  0  0  0  0  0  0  0  0
    9.5265  -14.5885   28.8496 C   0  0  0  0  0  0  0  0  0  0  0  0
    8.9770  -15.6529   28.1694 C   0  0  0  0  0  0  0  0  0  0  0  0
    8.3570  -15.4880   26.9496 C   0  0  0  0  0  0  0  0  0  0  0  0
    8.2447  -14.2595   26.3323 C   0  0  0  0  0  0  0  0  0  0  0  0
    7.5870  -14.0366   25.0360 C   0  0  0  0  0  0  0  0  0  0  0  0
    8.4629  -14.2399   23.8261 C   0  0  2  0  0  0  0  0  0  0  0  0
    7.5815  -14.2102   22.6216 N   0  0  0  0  0  0  0  0  0  0  0  0
    9.0879  -15.5627   23.8687 C   0  0  0  0  0  0  0  0  0  0  0  0
    8.3085  -16.5744   23.7637 O   0  0  0  0  0  0  0  0  0  0  0  0
    8.8116  -13.1871   27.0423 C   0  0  0  0  0  0  0  0  0  0  0  0
    9.4316  -13.3460   28.2598 C   0  0  0  0  0  0  0  0  0  0  0  0
   10.4484  -15.8810   24.0040 N   0  0  0  0  0  0  0  0  0  0  0  0
   10.8953  -17.2216   24.2002 C   0  0  1  0  0  0  0  0  0  0  0  0
   12.2910  -17.4349   23.6421 C   0  0  0  0  0  0  0  0  0  0  0  0
   12.3664  -17.2026   22.1982 C   0  0  0  0  0  0  0  0  0  0  0  0
   11.4278  -17.3710   21.3812 O   0  0  0  0  0  0  0  0  0  0  0  0
   10.8826  -17.7407   25.5587 C   0  0  0  0  0  0  0  0  0  0  0  0
   11.2207  -18.9710   25.6888 O   0  0  0  0  0  0  0  0  0  0  0  0
   13.5732  -16.7581   21.6758 O   0  0  0  0  0  0  0  0  0  0  0  0
   10.5604  -17.1014   26.7224 O   0  0  0  0  0  0  0  0  0  0  0  0
  1  2  1  0
  2  3  1  0
  3  4  1  1
  5  3  1  0
  5  6  1  6
  7  5  1  0
  8  7  2  0
  9 10  1  0
 10 11  2  0
 11 12  1  0
 13 12  2  0
 13 14  1  0
 15 14  1  1
 15 16  1  0
 16  7  1  0
 17 21  1  0
 17 15  1  0
 18 17  2  0
 19 13  1  0
 20 10  1  0
 20 19  2  0
 22 21  1  0
 22 26  1  0
 22 23  1  1
 23 24  1  0
 24 25  2  0
 26 29  1  0
 27 26  2  0
 28 24  1  0
M  END
$$$$
