IYD.pdb
     RDKit          3D

 29 29  0  0  1  0  0  0  0  0999 V2000
    6.9863  -12.6911   18.2659 C   0  0  0  0  0  0  0  0  0  0  0  0
    7.5638  -13.9715   18.7906 C   0  0  0  0  0  0  0  0  0  0  0  0
    7.9506  -13.8657   20.2767 C   0  0  2  0  0  0  0  0  0  0  0  0
    8.8349  -12.6851   20.4918 C   0  0  0  0  0  0  0  0  0  0  0  0
    8.5277  -15.1858   20.7265 C   0  0  2  0  0  0  0  0  0  0  0  0
    7.4822  -16.2126   20.4926 N   0  0  0  0  0  0  0  0  0  0  0  0
    8.9727  -15.2236   22.1227 C   0  0  0  0  0  0  0  0  0  0  0  0
   10.0810  -14.6697   22.3892 O   0  0  0  0  0  0  0  0  0  0  0  0
    5.9911  -10.4501   27.2305 O   0  0  0  0  0  0  0  0  0  0  0  0
    6.3888  -11.7229   26.8127 C   0  0  0  0  0  0  0  0  0  0  0  0
    7.7195  -12.0782   26.7896 C   0  0  0  0  0  0  0  0  0  0  0  0
    8.1259  -13.3299   26.3799 C   0  0  0  0  0  0  0  0  0  0  0  0
    7.2382  -14.3027   25.9693 C   0  0  0  0  0  0  0  0  0  0  0  0
    7.6262  -15.6516   25.5305 C   0  0  0  0  0  0  0  0  0  0  0  0
    8.8115  -15.7104   24.6010 C   0  0  2  0  0  0  0  0  0  0  0  0
    8.2866  -15.8159   23.2075 N   0  0  0  0  0  0  0  0  0  0  0  0
    9.5974  -16.9184   24.8568 C   0  0  0  0  0  0  0  0  0  0  0  0
    9.0422  -18.0393   24.5789 O   0  0  0  0  0  0  0  0  0  0  0  0
    5.8860  -13.9202   26.0002 C   0  0  0  0  0  0  0  0  0  0  0  0
    5.4751  -12.6726   26.4080 C   0  0  0  0  0  0  0  0  0  0  0  0
   10.9013  -17.0193   25.3669 N   0  0  0  0  0  0  0  0  0  0  0  0
   11.4592  -18.2676   25.7741 C   0  0  1  0  0  0  0  0  0  0  0  0
   12.9669  -18.2925   25.5970 C   0  0  0  0  0  0  0  0  0  0  0  0
   13.3779  -18.1055   24.2040 C   0  0  0  0  0  0  0  0  0  0  0  0
   12.6029  -17.9526   23.2280 O   0  0  0  0  0  0  0  0  0  0  0  0
   11.1691  -18.7234   27.1243 C   0  0  0  0  0  0  0  0  0  0  0  0
   11.6148  -19.8870   27.4281 O   0  0  0  0  0  0  0  0  0  0  0  0
   14.7378  -18.0942   23.9258 O   0  0  0  0  0  0  0  0  0  0  0  0
   10.4860  -18.0855   28.1209 O   0  0  0  0  0  0  0  0  0  0  0  0
  1  2  1  0
  2  3  1  0
  3  4  1  6
  5  3  1  0
  5  6  1  1
  7  5  1  0
  8  7  2  0
  9 10  1  0
 10 11  2  0
 11 12  1  0
 13 12  2  0
 13 14  1  0
 15 14  1  1
 15 16  1  0
 16  7  1  0
 17 21  1  0
 17 15  1  0
 18 17  2  0
 19 13  1  0
 20 10  1  0
 20 19  2  0
 22 21  1  0
 22 26  1  0
 22 23  1  1
 23 24  1  0
 24 25  2  0
 26 29  1  0
 27 26  2  0
 28 24  1  0
M  END
$$$$
