IYD.pdb
     RDKit          3D

 29 29  0  0  1  0  0  0  0  0999 V2000
    8.7912  -16.7830   18.5269 C   0  0  0  0  0  0  0  0  0  0  0  0
    8.7585  -15.5069   19.3135 C   0  0  0  0  0  0  0  0  0  0  0  0
    7.3290  -15.1253   19.7382 C   0  0  2  0  0  0  0  0  0  0  0  0
    6.4314  -15.1022   18.5484 C   0  0  0  0  0  0  0  0  0  0  0  0
    7.3802  -13.8378   20.5242 C   0  0  2  0  0  0  0  0  0  0  0  0
    7.9179  -12.7992   19.6108 N   0  0  0  0  0  0  0  0  0  0  0  0
    8.1766  -13.8940   21.7535 C   0  0  0  0  0  0  0  0  0  0  0  0
    9.3681  -13.4672   21.6880 O   0  0  0  0  0  0  0  0  0  0  0  0
   10.7564  -14.9808   30.3091 O   0  0  0  0  0  0  0  0  0  0  0  0
   10.0462  -14.8353   29.1143 C   0  0  0  0  0  0  0  0  0  0  0  0
    9.3765  -15.9002   28.5531 C   0  0  0  0  0  0  0  0  0  0  0  0
    8.6723  -15.7709   27.3753 C   0  0  0  0  0  0  0  0  0  0  0  0
    8.5901  -14.5795   26.6849 C   0  0  0  0  0  0  0  0  0  0  0  0
    7.8460  -14.3946   25.4299 C   0  0  0  0  0  0  0  0  0  0  0  0
    8.6809  -14.4289   24.1753 C   0  0  2  0  0  0  0  0  0  0  0  0
    7.7476  -14.3760   23.0114 N   0  0  0  0  0  0  0  0  0  0  0  0
    9.4090  -15.6954   24.0848 C   0  0  0  0  0  0  0  0  0  0  0  0
    8.7192  -16.7414   23.8163 O   0  0  0  0  0  0  0  0  0  0  0  0
    9.2800  -13.5059   27.2739 C   0  0  0  0  0  0  0  0  0  0  0  0
    9.9843  -13.6295   28.4489 C   0  0  0  0  0  0  0  0  0  0  0  0
   10.7843  -15.9248   24.2476 N   0  0  0  0  0  0  0  0  0  0  0  0
   11.3276  -17.2419   24.3212 C   0  0  1  0  0  0  0  0  0  0  0  0
   12.7637  -17.2845   23.8305 C   0  0  0  0  0  0  0  0  0  0  0  0
   12.9064  -16.8133   22.4513 C   0  0  0  0  0  0  0  0  0  0  0  0
   12.1185  -17.0677   21.5073 O   0  0  0  0  0  0  0  0  0  0  0  0
   11.2849  -17.9139   25.6103 C   0  0  0  0  0  0  0  0  0  0  0  0
   10.8155  -19.1074   25.6018 O   0  0  0  0  0  0  0  0  0  0  0  0
   14.0022  -16.0167   22.1491 O   0  0  0  0  0  0  0  0  0  0  0  0
   11.6758  -17.4529   26.8356 O   0  0  0  0  0  0  0  0  0  0  0  0
  1  2  1  0
  2  3  1  0
  3  4  1  6
  5  3  1  0
  5  6  1  6
  7  5  1  0
  8  7  2  0
  9 10  1  0
 10 11  2  0
 11 12  1  0
 13 12  2  0
 13 14  1  0
 15 14  1  1
 15 16  1  0
 16  7  1  0
 17 21  1  0
 17 15  1  0
 18 17  2  0
 19 13  1  0
 20 10  1  0
 20 19  2  0
 22 21  1  0
 22 26  1  0
 22 23  1  1
 23 24  1  0
 24 25  2  0
 26 29  1  0
 27 26  2  0
 28 24  1  0
M  END
$$$$
