IYD.pdb
     RDKit          3D

 29 29  0  0  1  0  0  0  0  0999 V2000
    6.1605  -14.1367   19.2055 C   0  0  0  0  0  0  0  0  0  0  0  0
    7.2919  -14.0041   18.2304 C   0  0  0  0  0  0  0  0  0  0  0  0
    8.6101  -14.5647   18.7938 C   0  0  2  0  0  0  0  0  0  0  0  0
    8.9400  -13.8952   20.0842 C   0  0  0  0  0  0  0  0  0  0  0  0
    9.6775  -14.4640   17.7314 C   0  0  2  0  0  0  0  0  0  0  0  0
    9.1630  -15.1802   16.5378 N   0  0  0  0  0  0  0  0  0  0  0  0
   10.9875  -14.9967   18.1172 C   0  0  0  0  0  0  0  0  0  0  0  0
   11.2263  -16.2064   17.8246 O   0  0  0  0  0  0  0  0  0  0  0  0
   19.5205  -15.6793   20.9428 O   0  0  0  0  0  0  0  0  0  0  0  0
   18.2510  -15.2383   20.5598 C   0  0  0  0  0  0  0  0  0  0  0  0
   17.6294  -15.7507   19.4424 C   0  0  0  0  0  0  0  0  0  0  0  0
   16.3777  -15.3248   19.0531 C   0  0  0  0  0  0  0  0  0  0  0  0
   15.6685  -14.3670   19.7476 C   0  0  0  0  0  0  0  0  0  0  0  0
   14.3297  -13.8879   19.3727 C   0  0  0  0  0  0  0  0  0  0  0  0
   13.3012  -14.9656   19.1423 C   0  0  2  0  0  0  0  0  0  0  0  0
   12.0172  -14.2938   18.7836 N   0  0  0  0  0  0  0  0  0  0  0  0
   13.0643  -15.7132   20.3782 C   0  0  0  0  0  0  0  0  0  0  0  0
   12.3811  -15.1245   21.2885 O   0  0  0  0  0  0  0  0  0  0  0  0
   16.3201  -13.8571   20.8839 C   0  0  0  0  0  0  0  0  0  0  0  0
   17.5691  -14.2784   21.2768 C   0  0  0  0  0  0  0  0  0  0  0  0
   13.4838  -17.0120   20.7063 N   0  0  0  0  0  0  0  0  0  0  0  0
   13.2349  -17.5856   21.9886 C   0  0  1  0  0  0  0  0  0  0  0  0
   12.9218  -19.0678   21.8888 C   0  0  0  0  0  0  0  0  0  0  0  0
   11.9244  -19.3692   20.8599 C   0  0  0  0  0  0  0  0  0  0  0  0
   12.0652  -20.1972   19.9263 O   0  0  0  0  0  0  0  0  0  0  0  0
   14.2601  -17.4219   23.0070 C   0  0  0  0  0  0  0  0  0  0  0  0
   13.9622  -17.8624   24.1741 O   0  0  0  0  0  0  0  0  0  0  0  0
   10.7159  -18.6881   20.9098 O   0  0  0  0  0  0  0  0  0  0  0  0
   15.5021  -16.8632   22.8974 O   0  0  0  0  0  0  0  0  0  0  0  0
  1  2  1  0
  2  3  1  0
  3  4  1  1
  5  3  1  0
  5  6  1  6
  7  5  1  0
  8  7  2  0
  9 10  1  0
 10 11  2  0
 11 12  1  0
 13 12  2  0
 13 14  1  0
 15 14  1  1
 15 16  1  0
 16  7  1  0
 17 21  1  0
 17 15  1  0
 18 17  2  0
 19 13  1  0
 20 10  1  0
 20 19  2  0
 22 21  1  0
 22 26  1  0
 22 23  1  6
 23 24  1  0
 24 25  2  0
 26 29  1  0
 27 26  2  0
 28 24  1  0
M  END
$$$$
