IYD.pdb
     RDKit          3D

 29 29  0  0  1  0  0  0  0  0999 V2000
    8.1602  -16.8172   18.6625 C   0  0  0  0  0  0  0  0  0  0  0  0
    8.4949  -15.5253   19.3460 C   0  0  0  0  0  0  0  0  0  0  0  0
    7.2353  -14.7764   19.8171 C   0  0  2  0  0  0  0  0  0  0  0  0
    6.3267  -14.5275   18.6619 C   0  0  0  0  0  0  0  0  0  0  0  0
    7.6563  -13.5413   20.5757 C   0  0  2  0  0  0  0  0  0  0  0  0
    8.4517  -12.7120   19.6367 N   0  0  0  0  0  0  0  0  0  0  0  0
    8.4212  -13.7971   21.7997 C   0  0  0  0  0  0  0  0  0  0  0  0
    9.6793  -13.6589   21.7322 O   0  0  0  0  0  0  0  0  0  0  0  0
   10.6094  -15.6905   30.3232 O   0  0  0  0  0  0  0  0  0  0  0  0
    9.9676  -15.3253   29.1367 C   0  0  0  0  0  0  0  0  0  0  0  0
    9.8971  -14.0065   28.7453 C   0  0  0  0  0  0  0  0  0  0  0  0
    9.2673  -13.6323   27.5779 C   0  0  0  0  0  0  0  0  0  0  0  0
    8.6708  -14.5422   26.7299 C   0  0  0  0  0  0  0  0  0  0  0  0
    7.9942  -14.1889   25.4729 C   0  0  0  0  0  0  0  0  0  0  0  0
    8.7925  -14.4401   24.2191 C   0  0  2  0  0  0  0  0  0  0  0  0
    7.8954  -14.1815   23.0543 N   0  0  0  0  0  0  0  0  0  0  0  0
    9.1956  -15.8454   24.1474 C   0  0  0  0  0  0  0  0  0  0  0  0
    8.4550  -16.6247   23.4501 O   0  0  0  0  0  0  0  0  0  0  0  0
    8.7538  -15.8818   27.1472 C   0  0  0  0  0  0  0  0  0  0  0  0
    9.3809  -16.2607   28.3113 C   0  0  0  0  0  0  0  0  0  0  0  0
   10.3053  -16.4663   24.7420 N   0  0  0  0  0  0  0  0  0  0  0  0
   11.0677  -17.4629   24.0631 C   0  0  1  0  0  0  0  0  0  0  0  0
   11.4841  -17.0033   22.6773 C   0  0  0  0  0  0  0  0  0  0  0  0
   12.2499  -18.0173   21.9494 C   0  0  0  0  0  0  0  0  0  0  0  0
   13.4805  -18.2330   22.0751 O   0  0  0  0  0  0  0  0  0  0  0  0
   12.2554  -17.9699   24.7319 C   0  0  0  0  0  0  0  0  0  0  0  0
   12.8321  -18.9658   24.1657 O   0  0  0  0  0  0  0  0  0  0  0  0
   11.5687  -18.8145   21.0399 O   0  0  0  0  0  0  0  0  0  0  0  0
   12.8481  -17.5342   25.8832 O   0  0  0  0  0  0  0  0  0  0  0  0
  1  2  1  0
  2  3  1  0
  3  4  1  6
  5  3  1  0
  5  6  1  6
  7  5  1  0
  8  7  2  0
  9 10  1  0
 10 11  2  0
 11 12  1  0
 13 12  2  0
 13 14  1  0
 15 14  1  1
 15 16  1  0
 16  7  1  0
 17 21  1  0
 17 15  1  0
 18 17  2  0
 19 13  1  0
 20 10  1  0
 20 19  2  0
 22 21  1  0
 22 26  1  0
 22 23  1  6
 23 24  1  0
 24 25  2  0
 26 29  1  0
 27 26  2  0
 28 24  1  0
M  END
$$$$
