IYD.pdb
     RDKit          3D

 29 29  0  0  1  0  0  0  0  0999 V2000
    8.0480  -19.6204   18.0854 C   0  0  0  0  0  0  0  0  0  0  0  0
    9.4816  -19.2480   18.3190 C   0  0  0  0  0  0  0  0  0  0  0  0
    9.6617  -18.4149   19.6007 C   0  0  2  0  0  0  0  0  0  0  0  0
    9.1175  -19.1572   20.7733 C   0  0  0  0  0  0  0  0  0  0  0  0
    9.0673  -17.0451   19.3805 C   0  0  2  0  0  0  0  0  0  0  0  0
    9.7715  -16.4545   18.2154 N   0  0  0  0  0  0  0  0  0  0  0  0
    9.1478  -16.1427   20.5329 C   0  0  0  0  0  0  0  0  0  0  0  0
   10.2923  -15.6847   20.8271 O   0  0  0  0  0  0  0  0  0  0  0  0
    6.8956  -11.9626   28.1968 O   0  0  0  0  0  0  0  0  0  0  0  0
    6.9118  -12.5474   26.9277 C   0  0  0  0  0  0  0  0  0  0  0  0
    7.4326  -11.8755   25.8437 C   0  0  0  0  0  0  0  0  0  0  0  0
    7.4549  -12.4402   24.5866 C   0  0  0  0  0  0  0  0  0  0  0  0
    6.9631  -13.7031   24.3296 C   0  0  0  0  0  0  0  0  0  0  0  0
    6.9721  -14.3465   23.0073 C   0  0  0  0  0  0  0  0  0  0  0  0
    8.3071  -14.8884   22.5639 C   0  0  2  0  0  0  0  0  0  0  0  0
    8.0728  -15.7274   21.3517 N   0  0  0  0  0  0  0  0  0  0  0  0
    8.8653  -15.7668   23.5931 C   0  0  0  0  0  0  0  0  0  0  0  0
    8.2698  -16.8852   23.7842 O   0  0  0  0  0  0  0  0  0  0  0  0
    6.4364  -14.3714   25.4484 C   0  0  0  0  0  0  0  0  0  0  0  0
    6.4115  -13.8126   26.7050 C   0  0  0  0  0  0  0  0  0  0  0  0
    9.9872  -15.5519   24.4090 N   0  0  0  0  0  0  0  0  0  0  0  0
   10.4031  -16.5024   25.3882 C   0  0  1  0  0  0  0  0  0  0  0  0
   11.9136  -16.6528   25.4179 C   0  0  0  0  0  0  0  0  0  0  0  0
   12.4588  -17.1553   24.1551 C   0  0  0  0  0  0  0  0  0  0  0  0
   11.9880  -18.1057   23.4830 O   0  0  0  0  0  0  0  0  0  0  0  0
    9.9565  -16.2948   26.7566 C   0  0  0  0  0  0  0  0  0  0  0  0
    9.4212  -15.1554   27.0018 O   0  0  0  0  0  0  0  0  0  0  0  0
   13.5928  -16.5365   23.6473 O   0  0  0  0  0  0  0  0  0  0  0  0
   10.0258  -17.1449   27.8239 O   0  0  0  0  0  0  0  0  0  0  0  0
  1  2  1  0
  2  3  1  0
  3  4  1  1
  5  3  1  0
  5  6  1  6
  7  5  1  0
  8  7  2  0
  9 10  1  0
 10 11  2  0
 11 12  1  0
 13 12  2  0
 13 14  1  0
 15 14  1  1
 15 16  1  0
 16  7  1  0
 17 21  1  0
 17 15  1  0
 18 17  2  0
 19 13  1  0
 20 10  1  0
 20 19  2  0
 22 21  1  0
 22 26  1  0
 22 23  1  1
 23 24  1  0
 24 25  2  0
 26 29  1  0
 27 26  2  0
 28 24  1  0
M  END
$$$$
