IYD.pdb
     RDKit          3D

 29 29  0  0  1  0  0  0  0  0999 V2000
    7.7601  -12.4793   18.8022 C   0  0  0  0  0  0  0  0  0  0  0  0
    7.7130  -13.8153   19.4813 C   0  0  0  0  0  0  0  0  0  0  0  0
    8.9839  -14.6431   19.2188 C   0  0  2  0  0  0  0  0  0  0  0  0
    9.1492  -14.8756   17.7557 C   0  0  0  0  0  0  0  0  0  0  0  0
    8.9351  -15.8938   20.0622 C   0  0  2  0  0  0  0  0  0  0  0  0
    7.8272  -16.7260   19.5310 N   0  0  0  0  0  0  0  0  0  0  0  0
    8.7542  -15.6653   21.4988 C   0  0  0  0  0  0  0  0  0  0  0  0
    7.6906  -16.1118   22.0237 O   0  0  0  0  0  0  0  0  0  0  0  0
    5.8301  -11.6148   28.4199 O   0  0  0  0  0  0  0  0  0  0  0  0
    6.3461  -12.1514   27.2373 C   0  0  0  0  0  0  0  0  0  0  0  0
    5.9195  -13.3742   26.7679 C   0  0  0  0  0  0  0  0  0  0  0  0
    6.4200  -13.9153   25.6031 C   0  0  0  0  0  0  0  0  0  0  0  0
    7.3717  -13.2769   24.8353 C   0  0  0  0  0  0  0  0  0  0  0  0
    7.9284  -13.8134   23.5844 C   0  0  0  0  0  0  0  0  0  0  0  0
    9.2282  -14.5635   23.7274 C   0  0  2  0  0  0  0  0  0  0  0  0
    9.6512  -14.9963   22.3628 N   0  0  0  0  0  0  0  0  0  0  0  0
    9.0288  -15.7773   24.5206 C   0  0  0  0  0  0  0  0  0  0  0  0
    8.6604  -15.6190   25.7377 O   0  0  0  0  0  0  0  0  0  0  0  0
    7.7934  -12.0313   25.3315 C   0  0  0  0  0  0  0  0  0  0  0  0
    7.2975  -11.4868   26.4931 C   0  0  0  0  0  0  0  0  0  0  0  0
    9.1815  -17.1147   24.1224 N   0  0  0  0  0  0  0  0  0  0  0  0
   10.1643  -17.9693   24.7047 C   0  0  1  0  0  0  0  0  0  0  0  0
   11.5549  -17.6668   24.1757 C   0  0  0  0  0  0  0  0  0  0  0  0
   12.5823  -18.5388   24.7490 C   0  0  0  0  0  0  0  0  0  0  0  0
   12.5304  -19.7924   24.8012 O   0  0  0  0  0  0  0  0  0  0  0  0
   10.2461  -18.0060   26.1563 C   0  0  0  0  0  0  0  0  0  0  0  0
    9.3687  -17.3106   26.7821 O   0  0  0  0  0  0  0  0  0  0  0  0
   13.7150  -17.9406   25.2836 O   0  0  0  0  0  0  0  0  0  0  0  0
   11.1287  -18.6792   26.9528 O   0  0  0  0  0  0  0  0  0  0  0  0
  1  2  1  0
  2  3  1  0
  3  4  1  6
  5  3  1  0
  5  6  1  6
  7  5  1  0
  8  7  2  0
  9 10  1  0
 10 11  2  0
 11 12  1  0
 13 12  2  0
 13 14  1  0
 15 14  1  6
 15 16  1  0
 16  7  1  0
 17 21  1  0
 17 15  1  0
 18 17  2  0
 19 13  1  0
 20 10  1  0
 20 19  2  0
 22 21  1  0
 22 26  1  0
 22 23  1  6
 23 24  1  0
 24 25  2  0
 26 29  1  0
 27 26  2  0
 28 24  1  0
M  END
$$$$
