IYD.pdb
     RDKit          3D

 29 29  0  0  1  0  0  0  0  0999 V2000
    7.1336  -13.4788   16.4516 C   0  0  0  0  0  0  0  0  0  0  0  0
    7.9381  -14.4958   17.2043 C   0  0  0  0  0  0  0  0  0  0  0  0
    8.2181  -14.0557   18.6525 C   0  0  2  0  0  0  0  0  0  0  0  0
    8.9971  -12.7848   18.6589 C   0  0  0  0  0  0  0  0  0  0  0  0
    8.8602  -15.2017   19.3958 C   0  0  2  0  0  0  0  0  0  0  0  0
    8.0299  -16.4029   19.1316 N   0  0  0  0  0  0  0  0  0  0  0  0
    9.0109  -14.9965   20.8394 C   0  0  0  0  0  0  0  0  0  0  0  0
   10.1518  -14.6318   21.2535 O   0  0  0  0  0  0  0  0  0  0  0  0
    7.2395  -12.7316   29.3232 O   0  0  0  0  0  0  0  0  0  0  0  0
    7.1942  -13.0735   27.9690 C   0  0  0  0  0  0  0  0  0  0  0  0
    6.7592  -14.3166   27.5654 C   0  0  0  0  0  0  0  0  0  0  0  0
    6.7094  -14.6671   26.2333 C   0  0  0  0  0  0  0  0  0  0  0  0
    7.0873  -13.8069   25.2233 C   0  0  0  0  0  0  0  0  0  0  0  0
    7.0448  -14.1359   23.7906 C   0  0  0  0  0  0  0  0  0  0  0  0
    8.2685  -14.8333   23.2535 C   0  0  2  0  0  0  0  0  0  0  0  0
    8.0072  -15.1625   21.8210 N   0  0  0  0  0  0  0  0  0  0  0  0
    8.4787  -16.1010   23.9542 C   0  0  0  0  0  0  0  0  0  0  0  0
    7.8227  -17.1148   23.5254 O   0  0  0  0  0  0  0  0  0  0  0  0
    7.5279  -12.5442   25.6560 C   0  0  0  0  0  0  0  0  0  0  0  0
    7.5797  -12.1894   26.9839 C   0  0  0  0  0  0  0  0  0  0  0  0
    9.3203  -16.3652   25.0462 N   0  0  0  0  0  0  0  0  0  0  0  0
   10.0390  -17.5916   25.1673 C   0  0  1  0  0  0  0  0  0  0  0  0
   10.7605  -17.9484   23.8800 C   0  0  0  0  0  0  0  0  0  0  0  0
   11.5632  -19.1675   23.9984 C   0  0  0  0  0  0  0  0  0  0  0  0
   11.1700  -20.2568   24.4836 O   0  0  0  0  0  0  0  0  0  0  0  0
   11.0004  -17.7012   26.2531 C   0  0  0  0  0  0  0  0  0  0  0  0
   11.6377  -18.8119   26.3238 O   0  0  0  0  0  0  0  0  0  0  0  0
   12.8724  -19.1282   23.5386 O   0  0  0  0  0  0  0  0  0  0  0  0
   11.3235  -16.7848   27.2136 O   0  0  0  0  0  0  0  0  0  0  0  0
  1  2  1  0
  2  3  1  0
  3  4  1  6
  5  3  1  0
  5  6  1  1
  7  5  1  0
  8  7  2  0
  9 10  1  0
 10 11  2  0
 11 12  1  0
 13 12  2  0
 13 14  1  0
 15 14  1  1
 15 16  1  0
 16  7  1  0
 17 21  1  0
 17 15  1  0
 18 17  2  0
 19 13  1  0
 20 10  1  0
 20 19  2  0
 22 21  1  0
 22 26  1  0
 22 23  1  6
 23 24  1  0
 24 25  2  0
 26 29  1  0
 27 26  2  0
 28 24  1  0
M  END
$$$$
