YGM.pdb
     RDKit          3D

 25 25  0  0  1  0  0  0  0  0999 V2000
    6.0303  -12.7971   17.4240 O   0  0  0  0  0  0  0  0  0  0  0  0
    6.9037  -13.5319   18.2168 C   0  0  0  0  0  0  0  0  0  0  0  0
    7.7529  -12.9143   19.1232 C   0  0  0  0  0  0  0  0  0  0  0  0
    8.6074  -13.6688   19.8953 C   0  0  0  0  0  0  0  0  0  0  0  0
    8.6744  -15.0520   19.8214 C   0  0  0  0  0  0  0  0  0  0  0  0
    9.5968  -15.8217   20.6638 C   0  0  0  0  0  0  0  0  0  0  0  0
    8.9022  -16.4777   21.8639 C   0  0  2  0  0  0  0  0  0  0  0  0
    8.3062  -15.4291   22.6404 N   0  0  0  0  0  0  0  0  0  0  0  0
    9.9607  -17.1363   22.6626 C   0  0  0  0  0  0  0  0  0  0  0  0
   10.6809  -18.0635   22.2152 O   0  0  0  0  0  0  0  0  0  0  0  0
    7.8221  -15.6635   18.9126 C   0  0  0  0  0  0  0  0  0  0  0  0
    6.9677  -14.9064   18.1407 C   0  0  0  0  0  0  0  0  0  0  0  0
   10.1968  -16.7229   23.9980 N   0  0  0  0  0  0  0  0  0  0  0  0
   11.0809  -17.3840   24.9004 C   0  0  0  0  0  0  0  0  0  0  0  0
   11.1312  -16.7404   26.2383 C   0  0  0  0  0  0  0  0  0  0  0  0
   12.1940  -16.8499   26.8959 O   0  0  0  0  0  0  0  0  0  0  0  0
    7.4287  -11.3216   25.0862 C   0  0  0  0  0  0  0  0  0  0  0  0
    7.6110  -12.1628   26.6390 S   0  0  0  0  0  0  0  0  0  0  0  0
    8.8588  -13.4377   26.7249 C   0  0  0  0  0  0  0  0  0  0  0  0
    9.0552  -14.1100   28.0261 C   0  0  0  0  0  0  0  0  0  0  0  0
   10.0578  -15.2228   27.9909 C   0  0  2  0  0  0  0  0  0  0  0  0
   10.0594  -16.0223   26.7994 N   0  0  0  0  0  0  0  0  0  0  0  0
   10.1230  -16.0092   29.2269 C   0  0  0  0  0  0  0  0  0  0  0  0
   10.4763  -15.4170   30.4288 O   0  0  0  0  0  0  0  0  0  0  0  0
    9.8631  -17.2430   29.2459 O   0  0  0  0  0  0  0  0  0  0  0  0
  1  2  1  0
  2 12  2  0
  2  3  1  0
  3  4  2  0
  4  5  1  0
  5  6  1  0
  6  7  1  0
  7  8  1  1
  7  9  1  0
  9 10  2  0
 11  5  2  0
 12 11  1  0
 13  9  1  0
 13 14  1  0
 15 14  1  0
 15 22  1  0
 16 15  2  0
 17 18  1  0
 18 19  1  0
 20 19  1  0
 21 22  1  0
 21 20  1  1
 23 21  1  0
 24 23  1  0
 25 23  2  0
M  END
$$$$
