YGM.pdb
     RDKit          3D

 25 25  0  0  1  0  0  0  0  0999 V2000
   11.4466  -14.5252   30.3181 O   0  0  0  0  0  0  0  0  0  0  0  0
   10.5208  -15.1152   29.4659 C   0  0  0  0  0  0  0  0  0  0  0  0
    9.9522  -14.4107   28.4148 C   0  0  0  0  0  0  0  0  0  0  0  0
    9.0376  -15.0221   27.5871 C   0  0  0  0  0  0  0  0  0  0  0  0
    8.6361  -16.3403   27.7432 C   0  0  0  0  0  0  0  0  0  0  0  0
    7.6603  -16.9577   26.8377 C   0  0  0  0  0  0  0  0  0  0  0  0
    8.0664  -18.3694   26.3961 C   0  0  2  0  0  0  0  0  0  0  0  0
    9.4509  -18.3208   26.0238 N   0  0  0  0  0  0  0  0  0  0  0  0
    7.2509  -18.6953   25.2042 C   0  0  0  0  0  0  0  0  0  0  0  0
    6.7426  -19.8277   25.0096 O   0  0  0  0  0  0  0  0  0  0  0  0
    9.2087  -17.0393   28.7966 C   0  0  0  0  0  0  0  0  0  0  0  0
   10.1240  -16.4255   29.6240 C   0  0  0  0  0  0  0  0  0  0  0  0
    7.0145  -17.7039   24.2187 N   0  0  0  0  0  0  0  0  0  0  0  0
    6.4791  -17.9682   22.9239 C   0  0  0  0  0  0  0  0  0  0  0  0
    6.3510  -16.7462   22.0892 C   0  0  0  0  0  0  0  0  0  0  0  0
    5.1935  -16.3313   21.8405 O   0  0  0  0  0  0  0  0  0  0  0  0
    7.0845  -12.3044   26.9038 C   0  0  0  0  0  0  0  0  0  0  0  0
    6.6393  -12.5574   25.2038 S   0  0  0  0  0  0  0  0  0  0  0  0
    7.6616  -13.6769   24.2596 C   0  0  0  0  0  0  0  0  0  0  0  0
    7.2852  -13.9169   22.8510 C   0  0  0  0  0  0  0  0  0  0  0  0
    8.1446  -14.9280   22.1553 C   0  0  2  0  0  0  0  0  0  0  0  0
    7.4498  -16.0382   21.5689 N   0  0  0  0  0  0  0  0  0  0  0  0
    9.3423  -15.3149   22.9077 C   0  0  0  0  0  0  0  0  0  0  0  0
   10.5448  -14.6524   22.7203 O   0  0  0  0  0  0  0  0  0  0  0  0
    9.3267  -16.2560   23.7468 O   0  0  0  0  0  0  0  0  0  0  0  0
  1  2  1  0
  2 12  2  0
  2  3  1  0
  3  4  2  0
  4  5  1  0
  5  6  1  0
  6  7  1  0
  7  8  1  6
  7  9  1  0
  9 10  2  0
 11  5  2  0
 12 11  1  0
 13  9  1  0
 13 14  1  0
 15 14  1  0
 15 22  1  0
 16 15  2  0
 17 18  1  0
 18 19  1  0
 20 19  1  0
 21 22  1  0
 21 20  1  1
 23 21  1  0
 24 23  1  0
 25 23  2  0
M  END
$$$$
