YGM.pdb
     RDKit          3D

 25 25  0  0  1  0  0  0  0  0999 V2000
   12.3065  -17.3334   30.1710 O   0  0  0  0  0  0  0  0  0  0  0  0
   11.1893  -17.4279   29.3499 C   0  0  0  0  0  0  0  0  0  0  0  0
   10.0561  -18.1231   29.7460 C   0  0  0  0  0  0  0  0  0  0  0  0
    8.9643  -18.1995   28.9108 C   0  0  0  0  0  0  0  0  0  0  0  0
    8.9251  -17.6059   27.6581 C   0  0  0  0  0  0  0  0  0  0  0  0
    7.7408  -17.7072   26.7976 C   0  0  0  0  0  0  0  0  0  0  0  0
    7.3872  -19.1558   26.4377 C   0  0  2  0  0  0  0  0  0  0  0  0
    8.5262  -19.9674   26.7567 N   0  0  0  0  0  0  0  0  0  0  0  0
    7.1575  -19.1888   24.9754 C   0  0  0  0  0  0  0  0  0  0  0  0
    6.9771  -20.2536   24.3333 O   0  0  0  0  0  0  0  0  0  0  0  0
   10.0619  -16.9120   27.2679 C   0  0  0  0  0  0  0  0  0  0  0  0
   11.1537  -16.8368   28.1055 C   0  0  0  0  0  0  0  0  0  0  0  0
    7.1343  -17.9785   24.2376 N   0  0  0  0  0  0  0  0  0  0  0  0
    6.9038  -17.8970   22.8329 C   0  0  0  0  0  0  0  0  0  0  0  0
    6.7841  -16.4989   22.3454 C   0  0  0  0  0  0  0  0  0  0  0  0
    6.4340  -16.3275   21.1530 O   0  0  0  0  0  0  0  0  0  0  0  0
    4.6660  -12.0456   26.2801 C   0  0  0  0  0  0  0  0  0  0  0  0
    6.2380  -12.8388   26.0530 S   0  0  0  0  0  0  0  0  0  0  0  0
    6.9115  -12.8374   24.3989 C   0  0  0  0  0  0  0  0  0  0  0  0
    8.2345  -13.4660   24.2031 C   0  0  0  0  0  0  0  0  0  0  0  0
    8.2369  -14.5792   23.2003 C   0  0  2  0  0  0  0  0  0  0  0  0
    7.0406  -15.3696   23.1442 N   0  0  0  0  0  0  0  0  0  0  0  0
    9.4686  -15.3750   23.1923 C   0  0  0  0  0  0  0  0  0  0  0  0
   10.6971  -14.7817   22.9501 O   0  0  0  0  0  0  0  0  0  0  0  0
    9.4597  -16.6182   23.4031 O   0  0  0  0  0  0  0  0  0  0  0  0
  1  2  1  0
  2 12  2  0
  2  3  1  0
  3  4  2  0
  4  5  1  0
  5  6  1  0
  6  7  1  0
  7  8  1  6
  7  9  1  0
  9 10  2  0
 11  5  2  0
 12 11  1  0
 13  9  1  0
 13 14  1  0
 15 14  1  0
 15 22  1  0
 16 15  2  0
 17 18  1  0
 18 19  1  0
 20 19  1  0
 21 22  1  0
 21 20  1  1
 23 21  1  0
 24 23  1  0
 25 23  2  0
M  END
$$$$
