YGM.pdb
     RDKit          3D

 25 25  0  0  1  0  0  0  0  0999 V2000
    5.5372  -12.6033   27.2175 O   0  0  0  0  0  0  0  0  0  0  0  0
    6.0780  -13.1227   26.0474 C   0  0  0  0  0  0  0  0  0  0  0  0
    6.7355  -12.3139   25.1321 C   0  0  0  0  0  0  0  0  0  0  0  0
    7.2611  -12.8572   23.9814 C   0  0  0  0  0  0  0  0  0  0  0  0
    7.1715  -14.2055   23.6700 C   0  0  0  0  0  0  0  0  0  0  0  0
    7.7475  -14.7477   22.4341 C   0  0  0  0  0  0  0  0  0  0  0  0
    8.1617  -16.2189   22.5643 C   0  0  2  0  0  0  0  0  0  0  0  0
    8.2420  -16.5196   23.9646 N   0  0  0  0  0  0  0  0  0  0  0  0
    9.5083  -16.3386   21.9606 C   0  0  0  0  0  0  0  0  0  0  0  0
    9.8087  -15.8366   20.8487 O   0  0  0  0  0  0  0  0  0  0  0  0
    6.5125  -15.0091   24.5899 C   0  0  0  0  0  0  0  0  0  0  0  0
    5.9871  -14.4632   25.7410 C   0  0  0  0  0  0  0  0  0  0  0  0
   10.5279  -17.0467   22.6455 N   0  0  0  0  0  0  0  0  0  0  0  0
   11.8133  -16.5108   22.9512 C   0  0  0  0  0  0  0  0  0  0  0  0
   12.1500  -16.5999   24.3952 C   0  0  0  0  0  0  0  0  0  0  0  0
   13.3258  -16.9143   24.6992 O   0  0  0  0  0  0  0  0  0  0  0  0
   10.0824  -11.5682   27.4439 C   0  0  0  0  0  0  0  0  0  0  0  0
   10.6231  -12.9384   28.4350 S   0  0  0  0  0  0  0  0  0  0  0  0
   11.4026  -14.2972   27.5772 C   0  0  0  0  0  0  0  0  0  0  0  0
   10.8293  -15.6447   27.7755 C   0  0  0  0  0  0  0  0  0  0  0  0
   11.3513  -16.6746   26.8208 C   0  0  2  0  0  0  0  0  0  0  0  0
   11.2273  -16.3525   25.4280 N   0  0  0  0  0  0  0  0  0  0  0  0
   10.9521  -18.0480   27.1446 C   0  0  0  0  0  0  0  0  0  0  0  0
   11.2416  -18.5997   28.3823 O   0  0  0  0  0  0  0  0  0  0  0  0
   10.3358  -18.7748   26.3188 O   0  0  0  0  0  0  0  0  0  0  0  0
  1  2  1  0
  2 12  2  0
  2  3  1  0
  3  4  2  0
  4  5  1  0
  5  6  1  0
  6  7  1  0
  7  8  1  1
  7  9  1  0
  9 10  2  0
 11  5  2  0
 12 11  1  0
 13  9  1  0
 13 14  1  0
 15 14  1  0
 15 22  1  0
 16 15  2  0
 17 18  1  0
 18 19  1  0
 20 19  1  0
 21 22  1  0
 21 20  1  1
 23 21  1  0
 24 23  1  0
 25 23  2  0
M  END
$$$$
