YGM.pdb
     RDKit          3D

 25 25  0  0  1  0  0  0  0  0999 V2000
   11.4804  -15.1440   31.3103 O   0  0  0  0  0  0  0  0  0  0  0  0
   10.7396  -15.4792   30.1832 C   0  0  0  0  0  0  0  0  0  0  0  0
   10.2619  -16.7667   29.9870 C   0  0  0  0  0  0  0  0  0  0  0  0
    9.5307  -17.0688   28.8602 C   0  0  0  0  0  0  0  0  0  0  0  0
    9.2323  -16.1369   27.8776 C   0  0  0  0  0  0  0  0  0  0  0  0
    8.4470  -16.4971   26.6915 C   0  0  0  0  0  0  0  0  0  0  0  0
    8.5674  -17.9816   26.3247 C   0  0  2  0  0  0  0  0  0  0  0  0
    9.9562  -18.3320   26.4047 N   0  0  0  0  0  0  0  0  0  0  0  0
    8.1100  -18.1137   24.9227 C   0  0  0  0  0  0  0  0  0  0  0  0
    8.8890  -18.3547   23.9669 O   0  0  0  0  0  0  0  0  0  0  0  0
    9.7131  -14.8509   28.0801 C   0  0  0  0  0  0  0  0  0  0  0  0
   10.4449  -14.5505   29.2085 C   0  0  0  0  0  0  0  0  0  0  0  0
    6.7344  -17.9669   24.6128 N   0  0  0  0  0  0  0  0  0  0  0  0
    6.1965  -18.0233   23.2935 C   0  0  0  0  0  0  0  0  0  0  0  0
    6.4512  -16.7870   22.5105 C   0  0  0  0  0  0  0  0  0  0  0  0
    6.0232  -16.7474   21.3319 O   0  0  0  0  0  0  0  0  0  0  0  0
    6.0904  -13.3458   26.6397 C   0  0  0  0  0  0  0  0  0  0  0  0
    7.2430  -12.5733   25.5321 S   0  0  0  0  0  0  0  0  0  0  0  0
    7.0112  -12.8744   23.7870 C   0  0  0  0  0  0  0  0  0  0  0  0
    8.1634  -13.4068   23.0302 C   0  0  0  0  0  0  0  0  0  0  0  0
    7.8700  -14.6741   22.2869 C   0  0  2  0  0  0  0  0  0  0  0  0
    7.1405  -15.6704   23.0178 N   0  0  0  0  0  0  0  0  0  0  0  0
    9.0143  -15.2106   21.5431 C   0  0  0  0  0  0  0  0  0  0  0  0
    9.6961  -14.4279   20.6253 O   0  0  0  0  0  0  0  0  0  0  0  0
    9.4199  -16.3933   21.7070 O   0  0  0  0  0  0  0  0  0  0  0  0
  1  2  1  0
  2 12  2  0
  2  3  1  0
  3  4  2  0
  4  5  1  0
  5  6  1  0
  6  7  1  0
  7  8  1  6
  7  9  1  0
  9 10  2  0
 11  5  2  0
 12 11  1  0
 13  9  1  0
 13 14  1  0
 15 14  1  0
 15 22  1  0
 16 15  2  0
 17 18  1  0
 18 19  1  0
 20 19  1  0
 21 22  1  0
 21 20  1  1
 23 21  1  0
 24 23  1  0
 25 23  2  0
M  END
$$$$
