YGM.pdb
     RDKit          3D

 25 25  0  0  1  0  0  0  0  0999 V2000
   12.8611  -19.2814   25.1871 O   0  0  0  0  0  0  0  0  0  0  0  0
   11.8034  -19.1334   24.2979 C   0  0  0  0  0  0  0  0  0  0  0  0
   11.8336  -19.7058   23.0347 C   0  0  0  0  0  0  0  0  0  0  0  0
   10.7705  -19.5417   22.1755 C   0  0  0  0  0  0  0  0  0  0  0  0
    9.6348  -18.8169   22.5041 C   0  0  0  0  0  0  0  0  0  0  0  0
    8.5204  -18.6673   21.5614 C   0  0  0  0  0  0  0  0  0  0  0  0
    8.9462  -18.0359   20.2298 C   0  0  2  0  0  0  0  0  0  0  0  0
   10.2548  -18.5341   19.9179 N   0  0  0  0  0  0  0  0  0  0  0  0
    9.0204  -16.5743   20.4545 C   0  0  0  0  0  0  0  0  0  0  0  0
   10.1043  -15.9399   20.4900 O   0  0  0  0  0  0  0  0  0  0  0  0
    9.6110  -18.2470   23.7694 C   0  0  0  0  0  0  0  0  0  0  0  0
   10.6762  -18.4123   24.6279 C   0  0  0  0  0  0  0  0  0  0  0  0
    7.8295  -15.8281   20.6412 N   0  0  0  0  0  0  0  0  0  0  0  0
    7.3633  -15.3601   21.9048 C   0  0  0  0  0  0  0  0  0  0  0  0
    8.4490  -14.8076   22.7548 C   0  0  0  0  0  0  0  0  0  0  0  0
    9.6322  -15.0566   22.4204 O   0  0  0  0  0  0  0  0  0  0  0  0
    4.7281  -10.8491   26.8797 C   0  0  0  0  0  0  0  0  0  0  0  0
    6.3581  -11.4839   27.1831 S   0  0  0  0  0  0  0  0  0  0  0  0
    7.0161  -12.6274   25.9792 C   0  0  0  0  0  0  0  0  0  0  0  0
    8.3595  -13.1866   26.2363 C   0  0  0  0  0  0  0  0  0  0  0  0
    8.8198  -14.1654   25.1996 C   0  0  2  0  0  0  0  0  0  0  0  0
    8.2203  -14.0278   23.9032 N   0  0  0  0  0  0  0  0  0  0  0  0
    8.8859  -15.5519   25.6728 C   0  0  0  0  0  0  0  0  0  0  0  0
    8.1080  -16.5399   25.0908 O   0  0  0  0  0  0  0  0  0  0  0  0
    9.6453  -15.8975   26.6183 O   0  0  0  0  0  0  0  0  0  0  0  0
  1  2  1  0
  2 12  2  0
  2  3  1  0
  3  4  2  0
  4  5  1  0
  5  6  1  0
  6  7  1  0
  7  8  1  1
  7  9  1  0
  9 10  2  0
 11  5  2  0
 12 11  1  0
 13  9  1  0
 13 14  1  0
 15 14  1  0
 15 22  1  0
 16 15  2  0
 17 18  1  0
 18 19  1  0
 20 19  1  0
 21 22  1  0
 21 20  1  1
 23 21  1  0
 24 23  1  0
 25 23  2  0
M  END
$$$$
