YGM.pdb
     RDKit          3D

 25 25  0  0  1  0  0  0  0  0999 V2000
   11.5105  -25.5679   22.5927 O   0  0  0  0  0  0  0  0  0  0  0  0
   11.1448  -24.2333   22.4651 C   0  0  0  0  0  0  0  0  0  0  0  0
   11.9422  -23.3258   21.7834 C   0  0  0  0  0  0  0  0  0  0  0  0
   11.5535  -22.0096   21.6735 C   0  0  0  0  0  0  0  0  0  0  0  0
   10.3770  -21.5184   22.2190 C   0  0  0  0  0  0  0  0  0  0  0  0
    9.9956  -20.1085   22.0777 C   0  0  0  0  0  0  0  0  0  0  0  0
    8.6891  -19.9195   21.2964 C   0  0  2  0  0  0  0  0  0  0  0  0
    8.8637  -20.5365   20.0132 N   0  0  0  0  0  0  0  0  0  0  0  0
    8.5060  -18.4613   21.1168 C   0  0  0  0  0  0  0  0  0  0  0  0
    8.7249  -17.8714   20.0293 O   0  0  0  0  0  0  0  0  0  0  0  0
    9.5838  -22.4315   22.8996 C   0  0  0  0  0  0  0  0  0  0  0  0
    9.9748  -23.7485   23.0085 C   0  0  0  0  0  0  0  0  0  0  0  0
    8.0636  -17.6668   22.2043 N   0  0  0  0  0  0  0  0  0  0  0  0
    7.9057  -16.2506   22.1541 C   0  0  0  0  0  0  0  0  0  0  0  0
    9.0107  -15.5200   22.8262 C   0  0  0  0  0  0  0  0  0  0  0  0
   10.0961  -16.1283   22.9866 O   0  0  0  0  0  0  0  0  0  0  0  0
    5.5303  -11.2387   28.3898 C   0  0  0  0  0  0  0  0  0  0  0  0
    5.6221  -12.0440   26.8102 S   0  0  0  0  0  0  0  0  0  0  0  0
    7.2044  -12.7286   26.3439 C   0  0  0  0  0  0  0  0  0  0  0  0
    7.3968  -13.0899   24.9240 C   0  0  0  0  0  0  0  0  0  0  0  0
    8.7153  -13.7400   24.6348 C   0  0  2  0  0  0  0  0  0  0  0  0
    8.9031  -14.1951   23.2871 N   0  0  0  0  0  0  0  0  0  0  0  0
    9.1387  -14.7117   25.6482 C   0  0  0  0  0  0  0  0  0  0  0  0
    8.4295  -15.8851   25.8486 O   0  0  0  0  0  0  0  0  0  0  0  0
   10.1545  -14.5209   26.3706 O   0  0  0  0  0  0  0  0  0  0  0  0
  1  2  1  0
  2 12  2  0
  2  3  1  0
  3  4  2  0
  4  5  1  0
  5  6  1  0
  6  7  1  0
  7  8  1  6
  7  9  1  0
  9 10  2  0
 11  5  2  0
 12 11  1  0
 13  9  1  0
 13 14  1  0
 15 14  1  0
 15 22  1  0
 16 15  2  0
 17 18  1  0
 18 19  1  0
 20 19  1  0
 21 22  1  0
 21 20  1  1
 23 21  1  0
 24 23  1  0
 25 23  2  0
M  END
$$$$
