YGM.pdb
     RDKit          3D

 25 25  0  0  1  0  0  0  0  0999 V2000
   -0.7450  -20.8015   21.3479 O   0  0  0  0  0  0  0  0  0  0  0  0
    0.3944  -20.0136   21.2359 C   0  0  0  0  0  0  0  0  0  0  0  0
    0.7918  -19.1653   22.2590 C   0  0  0  0  0  0  0  0  0  0  0  0
    1.9255  -18.3968   22.1191 C   0  0  0  0  0  0  0  0  0  0  0  0
    2.7206  -18.4181   20.9831 C   0  0  0  0  0  0  0  0  0  0  0  0
    3.9240  -17.5858   20.8729 C   0  0  0  0  0  0  0  0  0  0  0  0
    5.2159  -18.3658   21.1479 C   0  0  2  0  0  0  0  0  0  0  0  0
    5.2610  -18.6385   22.5555 N   0  0  0  0  0  0  0  0  0  0  0  0
    6.3396  -17.4720   20.7869 C   0  0  0  0  0  0  0  0  0  0  0  0
    6.5934  -17.1326   19.6041 O   0  0  0  0  0  0  0  0  0  0  0  0
    2.3174  -19.2690   19.9635 C   0  0  0  0  0  0  0  0  0  0  0  0
    1.1823  -20.0373   20.1055 C   0  0  0  0  0  0  0  0  0  0  0  0
    7.1865  -16.9586   21.8014 N   0  0  0  0  0  0  0  0  0  0  0  0
    8.2681  -16.0594   21.5678 C   0  0  0  0  0  0  0  0  0  0  0  0
    8.9718  -15.6630   22.8144 C   0  0  0  0  0  0  0  0  0  0  0  0
   10.0422  -15.0192   22.6975 O   0  0  0  0  0  0  0  0  0  0  0  0
    5.8868  -11.1946   26.1285 C   0  0  0  0  0  0  0  0  0  0  0  0
    6.5250  -12.7115   26.7948 S   0  0  0  0  0  0  0  0  0  0  0  0
    7.6838  -13.6148   25.7795 C   0  0  0  0  0  0  0  0  0  0  0  0
    8.2172  -14.8823   26.3203 C   0  0  0  0  0  0  0  0  0  0  0  0
    9.0989  -15.6280   25.3658 C   0  0  2  0  0  0  0  0  0  0  0  0
    8.5042  -15.9694   24.1054 N   0  0  0  0  0  0  0  0  0  0  0  0
    9.8496  -16.7283   25.9791 C   0  0  0  0  0  0  0  0  0  0  0  0
   10.6818  -16.5037   27.0640 O   0  0  0  0  0  0  0  0  0  0  0  0
    9.7692  -17.9109   25.5487 O   0  0  0  0  0  0  0  0  0  0  0  0
  1  2  1  0
  2 12  2  0
  2  3  1  0
  3  4  2  0
  4  5  1  0
  5  6  1  0
  6  7  1  0
  7  8  1  1
  7  9  1  0
  9 10  2  0
 11  5  2  0
 12 11  1  0
 13  9  1  0
 13 14  1  0
 15 14  1  0
 15 22  1  0
 16 15  2  0
 17 18  1  0
 18 19  1  0
 20 19  1  0
 21 22  1  0
 21 20  1  1
 23 21  1  0
 24 23  1  0
 25 23  2  0
M  END
$$$$
