YGM.pdb
     RDKit          3D

 25 25  0  0  1  0  0  0  0  0999 V2000
    7.9336  -13.4876   14.9912 O   0  0  0  0  0  0  0  0  0  0  0  0
    7.8137  -13.8268   16.3336 C   0  0  0  0  0  0  0  0  0  0  0  0
    7.2694  -15.0402   16.7281 C   0  0  0  0  0  0  0  0  0  0  0  0
    7.1635  -15.3484   18.0657 C   0  0  0  0  0  0  0  0  0  0  0  0
    7.5802  -14.4945   19.0758 C   0  0  0  0  0  0  0  0  0  0  0  0
    7.4534  -14.8605   20.4911 C   0  0  0  0  0  0  0  0  0  0  0  0
    8.7943  -14.8369   21.2358 C   0  0  2  0  0  0  0  0  0  0  0  0
    9.6815  -15.7318   20.5503 N   0  0  0  0  0  0  0  0  0  0  0  0
    8.5352  -15.3542   22.5987 C   0  0  0  0  0  0  0  0  0  0  0  0
    7.7411  -14.8038   23.4018 O   0  0  0  0  0  0  0  0  0  0  0  0
    8.1239  -13.2824   18.6743 C   0  0  0  0  0  0  0  0  0  0  0  0
    8.2289  -12.9758   17.3348 C   0  0  0  0  0  0  0  0  0  0  0  0
    9.1990  -16.5239   23.0472 N   0  0  0  0  0  0  0  0  0  0  0  0
    9.0751  -17.0658   24.3601 C   0  0  0  0  0  0  0  0  0  0  0  0
    9.8107  -16.2796   25.3835 C   0  0  0  0  0  0  0  0  0  0  0  0
   11.0263  -16.0493   25.1759 O   0  0  0  0  0  0  0  0  0  0  0  0
    6.3569  -10.9240   26.1914 C   0  0  0  0  0  0  0  0  0  0  0  0
    7.0362  -11.9476   27.4732 S   0  0  0  0  0  0  0  0  0  0  0  0
    8.3858  -13.0244   27.0163 C   0  0  0  0  0  0  0  0  0  0  0  0
    8.9984  -13.8381   28.0869 C   0  0  0  0  0  0  0  0  0  0  0  0
    9.8250  -14.9821   27.5842 C   0  0  2  0  0  0  0  0  0  0  0  0
    9.2199  -15.7855   26.5608 N   0  0  0  0  0  0  0  0  0  0  0  0
   10.4693  -15.7658   28.6431 C   0  0  0  0  0  0  0  0  0  0  0  0
   10.2230  -17.1232   28.7733 O   0  0  0  0  0  0  0  0  0  0  0  0
   11.2650  -15.2419   29.4692 O   0  0  0  0  0  0  0  0  0  0  0  0
  1  2  1  0
  2 12  2  0
  2  3  1  0
  3  4  2  0
  4  5  1  0
  5  6  1  0
  6  7  1  0
  7  8  1  6
  7  9  1  0
  9 10  2  0
 11  5  2  0
 12 11  1  0
 13  9  1  0
 13 14  1  0
 15 14  1  0
 15 22  1  0
 16 15  2  0
 17 18  1  0
 18 19  1  0
 20 19  1  0
 21 22  1  0
 21 20  1  1
 23 21  1  0
 24 23  1  0
 25 23  2  0
M  END
$$$$
