YGM.pdb
     RDKit          3D

 25 25  0  0  1  0  0  0  0  0999 V2000
    7.6538  -12.7827   16.1939 O   0  0  0  0  0  0  0  0  0  0  0  0
    7.5468  -13.2983   17.4800 C   0  0  0  0  0  0  0  0  0  0  0  0
    6.9829  -14.5434   17.7166 C   0  0  0  0  0  0  0  0  0  0  0  0
    6.8906  -15.0280   19.0019 C   0  0  0  0  0  0  0  0  0  0  0  0
    7.3404  -14.3269   20.1106 C   0  0  0  0  0  0  0  0  0  0  0  0
    7.2270  -14.8788   21.4655 C   0  0  0  0  0  0  0  0  0  0  0  0
    8.5247  -15.5361   21.9523 C   0  0  2  0  0  0  0  0  0  0  0  0
    8.8714  -16.5550   21.0039 N   0  0  0  0  0  0  0  0  0  0  0  0
    8.2210  -16.1660   23.2574 C   0  0  0  0  0  0  0  0  0  0  0  0
    7.8602  -15.5116   24.2674 O   0  0  0  0  0  0  0  0  0  0  0  0
    7.9035  -13.0820   19.8670 C   0  0  0  0  0  0  0  0  0  0  0  0
    7.9949  -12.5988   18.5796 C   0  0  0  0  0  0  0  0  0  0  0  0
    8.3332  -17.5715   23.4053 N   0  0  0  0  0  0  0  0  0  0  0  0
    8.3096  -18.2530   24.6575 C   0  0  0  0  0  0  0  0  0  0  0  0
    9.5924  -18.1475   25.3990 C   0  0  0  0  0  0  0  0  0  0  0  0
   10.6542  -18.1965   24.7328 O   0  0  0  0  0  0  0  0  0  0  0  0
    9.2148  -12.7642   29.2797 C   0  0  0  0  0  0  0  0  0  0  0  0
   10.5441  -13.7753   28.6774 S   0  0  0  0  0  0  0  0  0  0  0  0
   10.1957  -15.5111   28.4425 C   0  0  0  0  0  0  0  0  0  0  0  0
   11.2320  -16.3286   27.7782 C   0  0  0  0  0  0  0  0  0  0  0  0
   10.8472  -17.7645   27.5912 C   0  0  2  0  0  0  0  0  0  0  0  0
    9.6761  -17.9970   26.7953 N   0  0  0  0  0  0  0  0  0  0  0  0
   10.8895  -18.5607   28.8219 C   0  0  0  0  0  0  0  0  0  0  0  0
   12.0652  -18.6937   29.5430 O   0  0  0  0  0  0  0  0  0  0  0  0
    9.8685  -19.1505   29.2691 O   0  0  0  0  0  0  0  0  0  0  0  0
  1  2  1  0
  2 12  2  0
  2  3  1  0
  3  4  2  0
  4  5  1  0
  5  6  1  0
  6  7  1  0
  7  8  1  6
  7  9  1  0
  9 10  2  0
 11  5  2  0
 12 11  1  0
 13  9  1  0
 13 14  1  0
 15 14  1  0
 15 22  1  0
 16 15  2  0
 17 18  1  0
 18 19  1  0
 20 19  1  0
 21 22  1  0
 21 20  1  1
 23 21  1  0
 24 23  1  0
 25 23  2  0
M  END
$$$$
