YGM.pdb
     RDKit          3D

 25 25  0  0  1  0  0  0  0  0999 V2000
    6.7870  -13.6687   27.0206 O   0  0  0  0  0  0  0  0  0  0  0  0
    7.0911  -13.6736   25.6645 C   0  0  0  0  0  0  0  0  0  0  0  0
    6.8557  -14.7885   24.8735 C   0  0  0  0  0  0  0  0  0  0  0  0
    7.1674  -14.7636   23.5327 C   0  0  0  0  0  0  0  0  0  0  0  0
    7.7197  -13.6582   22.9031 C   0  0  0  0  0  0  0  0  0  0  0  0
    8.0354  -13.6693   21.4702 C   0  0  0  0  0  0  0  0  0  0  0  0
    7.9199  -15.0651   20.8447 C   0  0  2  0  0  0  0  0  0  0  0  0
    6.7072  -15.6552   21.3337 N   0  0  0  0  0  0  0  0  0  0  0  0
    9.0767  -15.8493   21.3334 C   0  0  0  0  0  0  0  0  0  0  0  0
   10.2692  -15.5340   21.0947 O   0  0  0  0  0  0  0  0  0  0  0  0
    7.9525  -12.5462   23.7002 C   0  0  0  0  0  0  0  0  0  0  0  0
    7.6398  -12.5733   25.0421 C   0  0  0  0  0  0  0  0  0  0  0  0
    8.8607  -17.0157   22.1100 N   0  0  0  0  0  0  0  0  0  0  0  0
    9.9015  -17.8160   22.6660 C   0  0  0  0  0  0  0  0  0  0  0  0
   10.6690  -17.1138   23.7264 C   0  0  0  0  0  0  0  0  0  0  0  0
   11.0153  -15.9286   23.5045 O   0  0  0  0  0  0  0  0  0  0  0  0
    9.8502  -13.0316   29.4094 C   0  0  0  0  0  0  0  0  0  0  0  0
    9.9008  -13.8410   27.8300 S   0  0  0  0  0  0  0  0  0  0  0  0
    9.6974  -15.6154   27.8253 C   0  0  0  0  0  0  0  0  0  0  0  0
    9.6990  -16.2962   26.5138 C   0  0  0  0  0  0  0  0  0  0  0  0
   10.9101  -17.1437   26.2696 C   0  0  2  0  0  0  0  0  0  0  0  0
   11.0234  -17.7038   24.9534 N   0  0  0  0  0  0  0  0  0  0  0  0
   11.1973  -18.1009   27.3428 C   0  0  0  0  0  0  0  0  0  0  0  0
   11.3353  -19.4528   27.0720 O   0  0  0  0  0  0  0  0  0  0  0  0
   11.3289  -17.7364   28.5428 O   0  0  0  0  0  0  0  0  0  0  0  0
  1  2  1  0
  2 12  2  0
  2  3  1  0
  3  4  2  0
  4  5  1  0
  5  6  1  0
  6  7  1  0
  7  8  1  1
  7  9  1  0
  9 10  2  0
 11  5  2  0
 12 11  1  0
 13  9  1  0
 13 14  1  0
 15 14  1  0
 15 22  1  0
 16 15  2  0
 17 18  1  0
 18 19  1  0
 20 19  1  0
 21 22  1  0
 21 20  1  1
 23 21  1  0
 24 23  1  0
 25 23  2  0
M  END
$$$$
