YGM.pdb
     RDKit          3D

 25 25  0  0  1  0  0  0  0  0999 V2000
    3.6317  -25.2761   26.2607 O   0  0  0  0  0  0  0  0  0  0  0  0
    4.4644  -24.3606   25.6284 C   0  0  0  0  0  0  0  0  0  0  0  0
    4.6473  -24.3772   24.2535 C   0  0  0  0  0  0  0  0  0  0  0  0
    5.4788  -23.4574   23.6552 C   0  0  0  0  0  0  0  0  0  0  0  0
    6.1670  -22.4839   24.3637 C   0  0  0  0  0  0  0  0  0  0  0  0
    7.0423  -21.5185   23.6891 C   0  0  0  0  0  0  0  0  0  0  0  0
    6.6312  -20.0625   23.9420 C   0  0  2  0  0  0  0  0  0  0  0  0
    5.3456  -19.8683   23.3360 N   0  0  0  0  0  0  0  0  0  0  0  0
    7.6290  -19.2114   23.2550 C   0  0  0  0  0  0  0  0  0  0  0  0
    8.8456  -19.1914   23.5684 O   0  0  0  0  0  0  0  0  0  0  0  0
    5.9795  -22.4728   25.7387 C   0  0  0  0  0  0  0  0  0  0  0  0
    5.1469  -23.3945   26.3356 C   0  0  0  0  0  0  0  0  0  0  0  0
    7.2233  -18.3688   22.1894 N   0  0  0  0  0  0  0  0  0  0  0  0
    8.0684  -17.4127   21.5534 C   0  0  0  0  0  0  0  0  0  0  0  0
    8.5057  -16.3267   22.4676 C   0  0  0  0  0  0  0  0  0  0  0  0
    9.4809  -15.6234   22.1095 O   0  0  0  0  0  0  0  0  0  0  0  0
    6.0382  -10.8490   27.6806 C   0  0  0  0  0  0  0  0  0  0  0  0
    5.7086  -12.2177   26.5989 S   0  0  0  0  0  0  0  0  0  0  0  0
    7.1232  -13.1066   25.9676 C   0  0  0  0  0  0  0  0  0  0  0  0
    6.8648  -14.2105   25.0199 C   0  0  0  0  0  0  0  0  0  0  0  0
    8.1014  -14.9227   24.5634 C   0  0  2  0  0  0  0  0  0  0  0  0
    7.8887  -16.0499   23.7013 N   0  0  0  0  0  0  0  0  0  0  0  0
    9.0760  -15.1736   25.6300 C   0  0  0  0  0  0  0  0  0  0  0  0
    9.9562  -14.1836   26.0365 O   0  0  0  0  0  0  0  0  0  0  0  0
    9.1518  -16.2886   26.2142 O   0  0  0  0  0  0  0  0  0  0  0  0
  1  2  1  0
  2 12  2  0
  2  3  1  0
  3  4  2  0
  4  5  1  0
  5  6  1  0
  6  7  1  0
  7  8  1  6
  7  9  1  0
  9 10  2  0
 11  5  2  0
 12 11  1  0
 13  9  1  0
 13 14  1  0
 15 14  1  0
 15 22  1  0
 16 15  2  0
 17 18  1  0
 18 19  1  0
 20 19  1  0
 21 22  1  0
 21 20  1  1
 23 21  1  0
 24 23  1  0
 25 23  2  0
M  END
$$$$
