YGM.pdb
     RDKit          3D

 25 25  0  0  1  0  0  0  0  0999 V2000
    7.8010  -13.9144   14.6673 O   0  0  0  0  0  0  0  0  0  0  0  0
    7.9383  -13.7723   16.0429 C   0  0  0  0  0  0  0  0  0  0  0  0
    6.8629  -13.4213   16.8457 C   0  0  0  0  0  0  0  0  0  0  0  0
    7.0296  -13.2880   18.2058 C   0  0  0  0  0  0  0  0  0  0  0  0
    8.2442  -13.4891   18.8441 C   0  0  0  0  0  0  0  0  0  0  0  0
    8.3813  -13.3404   20.2975 C   0  0  0  0  0  0  0  0  0  0  0  0
    9.4181  -14.2970   20.8998 C   0  0  2  0  0  0  0  0  0  0  0  0
    9.6004  -15.3733   19.9691 N   0  0  0  0  0  0  0  0  0  0  0  0
    8.8331  -14.8276   22.1521 C   0  0  0  0  0  0  0  0  0  0  0  0
    8.4034  -14.0906   23.0745 O   0  0  0  0  0  0  0  0  0  0  0  0
    9.3159  -13.8401   18.0352 C   0  0  0  0  0  0  0  0  0  0  0  0
    9.1469  -13.9729   16.6740 C   0  0  0  0  0  0  0  0  0  0  0  0
    8.7396  -16.2285   22.3488 N   0  0  0  0  0  0  0  0  0  0  0  0
    8.2672  -16.8430   23.5455 C   0  0  0  0  0  0  0  0  0  0  0  0
    9.1540  -16.5983   24.7118 C   0  0  0  0  0  0  0  0  0  0  0  0
   10.3160  -17.0691   24.6668 O   0  0  0  0  0  0  0  0  0  0  0  0
    6.0318  -11.3175   27.2983 C   0  0  0  0  0  0  0  0  0  0  0  0
    7.3718  -12.1661   28.0959 S   0  0  0  0  0  0  0  0  0  0  0  0
    8.2456  -13.3859   27.1272 C   0  0  0  0  0  0  0  0  0  0  0  0
    8.9900  -14.4305   27.8608 C   0  0  0  0  0  0  0  0  0  0  0  0
    9.5628  -15.5002   26.9821 C   0  0  2  0  0  0  0  0  0  0  0  0
    8.7614  -15.8733   25.8518 N   0  0  0  0  0  0  0  0  0  0  0  0
   10.1157  -16.6442   27.7143 C   0  0  0  0  0  0  0  0  0  0  0  0
   11.1943  -16.4871   28.5698 O   0  0  0  0  0  0  0  0  0  0  0  0
    9.6370  -17.8049   27.5964 O   0  0  0  0  0  0  0  0  0  0  0  0
  1  2  1  0
  2 12  2  0
  2  3  1  0
  3  4  2  0
  4  5  1  0
  5  6  1  0
  6  7  1  0
  7  8  1  6
  7  9  1  0
  9 10  2  0
 11  5  2  0
 12 11  1  0
 13  9  1  0
 13 14  1  0
 15 14  1  0
 15 22  1  0
 16 15  2  0
 17 18  1  0
 18 19  1  0
 20 19  1  0
 21 22  1  0
 21 20  1  1
 23 21  1  0
 24 23  1  0
 25 23  2  0
M  END
$$$$
