RQD.pdb
     RDKit          3D

 29 28  0  0  1  0  0  0  0  0999 V2000
   17.7330  -18.6063  -15.6990 N   0  0  0  0  0  0  0  0  0  0  0  0
   18.4573  -18.9890  -16.8671 C   0  0  0  0  0  0  0  0  0  0  0  0
   18.0745  -20.0085  -17.5419 N   0  0  0  0  0  0  0  0  0  0  0  0
   19.5948  -18.2838  -17.3217 N   0  0  0  0  0  0  0  0  0  0  0  0
   20.0515  -17.0518  -16.7240 C   0  0  0  0  0  0  0  0  0  0  0  0
   19.0572  -15.9642  -17.0932 C   0  0  0  0  0  0  0  0  0  0  0  0
   19.4470  -14.6279  -16.5755 C   0  0  0  0  0  0  0  0  0  0  0  0
   18.5343  -13.5401  -17.0607 C   0  0  2  0  0  0  0  0  0  0  0  0
   18.4002  -13.7117  -18.5258 N   0  0  0  0  0  0  0  0  0  0  0  0
   19.2074  -12.2321  -16.8943 C   0  0  0  0  0  0  0  0  0  0  0  0
   19.5164  -11.8256  -15.7478 O   0  0  0  0  0  0  0  0  0  0  0  0
   18.4787  -20.3180  -18.4473 N   0  0  0  0  0  0  0  0  0  0  0  0
   21.4457   -8.6090  -21.3867 C   0  0  0  0  0  0  0  0  0  0  0  0
   21.8884   -7.8602  -20.2744 O   0  0  0  0  0  0  0  0  0  0  0  0
   22.5840   -6.8343  -20.4096 C   0  0  0  0  0  0  0  0  0  0  0  0
   21.4802   -8.3596  -18.9175 C   0  0  0  0  0  0  0  0  0  0  0  0
   20.6653   -9.6017  -19.1240 C   0  0  2  0  0  0  0  0  0  0  0  0
   20.2949  -10.1829  -17.7894 N   0  0  0  0  0  0  0  0  0  0  0  0
   19.5292  -11.3909  -18.0028 C   0  0  0  0  0  0  0  0  0  0  0  0
   19.4463   -9.2737  -16.9761 O   0  0  0  0  0  0  0  0  0  0  0  0
   18.2400   -9.0491  -17.2490 N   0  0  0  0  0  0  0  0  0  0  0  0
   20.0196   -8.6305  -15.8428 C   0  0  1  0  0  0  0  0  0  0  0  0
   19.2515   -7.6908  -15.0655 C   0  0  0  0  0  0  0  0  0  0  0  0
   18.5611   -8.3714  -13.9157 C   0  0  0  0  0  0  0  0  0  0  0  0
   17.7398   -7.4143  -13.1538 O   0  0  0  0  0  0  0  0  0  0  0  0
   17.4523   -6.2886  -13.6099 C   0  0  0  0  0  0  0  0  0  0  0  0
   20.1568   -6.6057  -14.5849 O   0  0  0  0  0  0  0  0  0  0  0  0
   19.6555   -5.4107  -14.0735 O   0  0  0  0  0  0  0  0  0  0  0  0
   17.2498   -7.7278  -11.8910 O   0  0  0  0  0  0  0  0  0  0  0  0
  1  2  1  0
  2  3  2  0
  4  5  1  0
  4  2  1  0
  6  5  1  0
  7  6  1  0
  8  7  1  0
  8  9  1  6
 10  8  1  0
 10 11  2  0
 12 13  1  0
 13 14  2  0
 15 16  1  0
 15 13  1  0
 17 16  1  1
 17 18  1  0
 18 10  1  0
 19 17  1  0
 20 19  2  0
 21 19  1  0
 22 21  1  0
 22 26  1  0
 22 23  1  6
 24 23  1  0
 24 25  2  0
 26 27  1  0
 28 24  1  0
 29 26  2  0
M  END
$$$$
