RQD.pdb
     RDKit          3D

 29 28  0  0  1  0  0  0  0  0999 V2000
   29.6529  -20.5090  -19.1114 N   0  0  0  0  0  0  0  0  0  0  0  0
   29.2937  -19.2977  -18.4484 C   0  0  0  0  0  0  0  0  0  0  0  0
   29.3725  -18.1853  -19.0790 N   0  0  0  0  0  0  0  0  0  0  0  0
   28.8470  -19.2682  -17.1078 N   0  0  0  0  0  0  0  0  0  0  0  0
   28.7283  -20.4507  -16.2884 C   0  0  0  0  0  0  0  0  0  0  0  0
   27.6109  -21.3019  -16.8669 C   0  0  0  0  0  0  0  0  0  0  0  0
   26.6342  -21.7455  -15.8397 C   0  0  0  0  0  0  0  0  0  0  0  0
   25.4500  -20.8287  -15.7454 C   0  0  2  0  0  0  0  0  0  0  0  0
   25.9503  -19.5291  -15.2407 N   0  0  0  0  0  0  0  0  0  0  0  0
   24.5399  -21.3195  -14.6860 C   0  0  0  0  0  0  0  0  0  0  0  0
   23.9599  -22.4247  -14.8180 O   0  0  0  0  0  0  0  0  0  0  0  0
   29.1729  -17.2490  -18.6759 N   0  0  0  0  0  0  0  0  0  0  0  0
   24.4974  -20.8884   -8.4515 C   0  0  0  0  0  0  0  0  0  0  0  0
   25.4915  -20.8993   -9.4542 O   0  0  0  0  0  0  0  0  0  0  0  0
   26.6627  -20.5413   -9.2202 C   0  0  0  0  0  0  0  0  0  0  0  0
   25.0697  -21.3638  -10.8193 C   0  0  0  0  0  0  0  0  0  0  0  0
   23.7817  -20.6703  -11.1502 C   0  0  2  0  0  0  0  0  0  0  0  0
   23.3342  -21.0784  -12.5247 N   0  0  0  0  0  0  0  0  0  0  0  0
   24.2843  -20.5774  -13.4927 C   0  0  0  0  0  0  0  0  0  0  0  0
   22.0082  -20.5179  -12.8934 O   0  0  0  0  0  0  0  0  0  0  0  0
   21.8661  -19.3491  -13.3335 N   0  0  0  0  0  0  0  0  0  0  0  0
   20.8519  -21.3347  -12.7432 C   0  0  1  0  0  0  0  0  0  0  0  0
   19.5630  -20.8720  -13.1924 C   0  0  0  0  0  0  0  0  0  0  0  0
   19.6064  -20.4592  -14.6379 C   0  0  0  0  0  0  0  0  0  0  0  0
   18.2785  -20.0174  -15.0992 O   0  0  0  0  0  0  0  0  0  0  0  0
   17.5842  -19.2222  -14.4332 C   0  0  0  0  0  0  0  0  0  0  0  0
   18.5564  -21.9514  -12.9698 O   0  0  0  0  0  0  0  0  0  0  0  0
   17.2202  -21.6594  -12.7050 O   0  0  0  0  0  0  0  0  0  0  0  0
   17.7434  -20.4700  -16.3000 O   0  0  0  0  0  0  0  0  0  0  0  0
  1  2  1  0
  2  3  2  0
  4  5  1  0
  4  2  1  0
  6  5  1  0
  7  6  1  0
  8  7  1  0
  8  9  1  1
 10  8  1  0
 10 11  2  0
 12 13  1  0
 13 14  2  0
 15 16  1  0
 15 13  1  0
 17 16  1  1
 17 18  1  0
 18 10  1  0
 19 17  1  0
 20 19  2  0
 21 19  1  0
 22 21  1  0
 22 26  1  0
 22 23  1  1
 24 23  1  0
 24 25  2  0
 26 27  1  0
 28 24  1  0
 29 26  2  0
M  END
$$$$
