RQD.pdb
     RDKit          3D

 29 28  0  0  1  0  0  0  0  0999 V2000
   17.7250  -15.3934  -20.1909 N   0  0  0  0  0  0  0  0  0  0  0  0
   19.0258  -15.6841  -20.6998 C   0  0  0  0  0  0  0  0  0  0  0  0
   19.1437  -16.3152  -21.8085 N   0  0  0  0  0  0  0  0  0  0  0  0
   20.2086  -15.3011  -20.0274 N   0  0  0  0  0  0  0  0  0  0  0  0
   20.2118  -14.6977  -18.7160 C   0  0  0  0  0  0  0  0  0  0  0  0
   21.6604  -14.4992  -18.3037 C   0  0  0  0  0  0  0  0  0  0  0  0
   22.3954  -13.5785  -19.2080 C   0  0  0  0  0  0  0  0  0  0  0  0
   23.8592  -13.5103  -18.8852 C   0  0  2  0  0  0  0  0  0  0  0  0
   24.2147  -14.7875  -18.2246 N   0  0  0  0  0  0  0  0  0  0  0  0
   24.0797  -12.4759  -17.8495 C   0  0  0  0  0  0  0  0  0  0  0  0
   23.9498  -12.7646  -16.6350 O   0  0  0  0  0  0  0  0  0  0  0  0
   20.0416  -16.5910  -22.2521 N   0  0  0  0  0  0  0  0  0  0  0  0
   28.2617   -8.3540  -18.2258 C   0  0  0  0  0  0  0  0  0  0  0  0
   28.4304   -9.7105  -17.8720 O   0  0  0  0  0  0  0  0  0  0  0  0
   29.5510  -10.2572  -17.8855 C   0  0  0  0  0  0  0  0  0  0  0  0
   27.1926  -10.4652  -17.4776 C   0  0  0  0  0  0  0  0  0  0  0  0
   26.0513   -9.4922  -17.4917 C   0  0  2  0  0  0  0  0  0  0  0  0
   24.7831  -10.2054  -17.1188 N   0  0  0  0  0  0  0  0  0  0  0  0
   24.4417  -11.1330  -18.1744 C   0  0  0  0  0  0  0  0  0  0  0  0
   23.6255   -9.2869  -16.9621 O   0  0  0  0  0  0  0  0  0  0  0  0
   22.8786   -8.9694  -17.9220 N   0  0  0  0  0  0  0  0  0  0  0  0
   23.3493   -8.7441  -15.6753 C   0  0  1  0  0  0  0  0  0  0  0  0
   22.2346   -7.8519  -15.4790 C   0  0  0  0  0  0  0  0  0  0  0  0
   20.9482   -8.4776  -15.9432 C   0  0  0  0  0  0  0  0  0  0  0  0
   19.7979   -7.6132  -15.6260 O   0  0  0  0  0  0  0  0  0  0  0  0
   19.9173   -6.3752  -15.5210 C   0  0  0  0  0  0  0  0  0  0  0  0
   22.1622   -7.4777  -14.0358 O   0  0  0  0  0  0  0  0  0  0  0  0
   21.2241   -6.5610  -13.5662 O   0  0  0  0  0  0  0  0  0  0  0  0
   18.5277   -8.1439  -15.4303 O   0  0  0  0  0  0  0  0  0  0  0  0
  1  2  1  0
  2  3  2  0
  4  5  1  0
  4  2  1  0
  6  5  1  0
  7  6  1  0
  8  7  1  0
  8  9  1  1
 10  8  1  0
 10 11  2  0
 12 13  1  0
 13 14  2  0
 15 16  1  0
 15 13  1  0
 17 16  1  1
 17 18  1  0
 18 10  1  0
 19 17  1  0
 20 19  2  0
 21 19  1  0
 22 21  1  0
 22 26  1  0
 22 23  1  6
 24 23  1  0
 24 25  2  0
 26 27  1  0
 28 24  1  0
 29 26  2  0
M  END
$$$$
