RQD.pdb
     RDKit          3D

 29 28  0  0  1  0  0  0  0  0999 V2000
   23.9323  -16.9791  -20.5551 N   0  0  0  0  0  0  0  0  0  0  0  0
   23.1337  -17.5805  -19.5371 C   0  0  0  0  0  0  0  0  0  0  0  0
   21.8626  -17.6414  -19.6850 N   0  0  0  0  0  0  0  0  0  0  0  0
   23.6891  -18.1216  -18.3553 N   0  0  0  0  0  0  0  0  0  0  0  0
   25.0051  -17.7783  -17.8716 C   0  0  0  0  0  0  0  0  0  0  0  0
   25.9585  -18.8760  -18.3116 C   0  0  0  0  0  0  0  0  0  0  0  0
   25.8081  -20.1219  -17.5173 C   0  0  0  0  0  0  0  0  0  0  0  0
   26.7359  -20.1622  -16.3387 C   0  0  2  0  0  0  0  0  0  0  0  0
   27.7300  -21.2264  -16.6091 N   0  0  0  0  0  0  0  0  0  0  0  0
   25.9905  -20.6355  -15.1505 C   0  0  0  0  0  0  0  0  0  0  0  0
   25.6302  -21.8352  -15.0714 O   0  0  0  0  0  0  0  0  0  0  0  0
   21.1967  -18.0609  -19.0071 N   0  0  0  0  0  0  0  0  0  0  0  0
   26.4036  -21.9287  -10.5354 C   0  0  0  0  0  0  0  0  0  0  0  0
   25.2413  -21.4115   -9.9227 O   0  0  0  0  0  0  0  0  0  0  0  0
   24.7043  -21.9793   -8.9511 C   0  0  0  0  0  0  0  0  0  0  0  0
   24.6815  -20.1418  -10.4987 C   0  0  0  0  0  0  0  0  0  0  0  0
   25.5396  -19.7646  -11.6694 C   0  0  1  0  0  0  0  0  0  0  0  0
   24.9207  -20.2926  -12.9321 N   0  0  0  0  0  0  0  0  0  0  0  0
   25.6537  -19.7713  -14.0644 C   0  0  0  0  0  0  0  0  0  0  0  0
   23.5060  -19.8719  -13.1048 O   0  0  0  0  0  0  0  0  0  0  0  0
   23.1596  -18.6644  -13.1493 N   0  0  0  0  0  0  0  0  0  0  0  0
   22.5017  -20.8737  -13.2247 C   0  0  1  0  0  0  0  0  0  0  0  0
   21.1235  -20.5097  -13.4373 C   0  0  0  0  0  0  0  0  0  0  0  0
   20.8482  -20.2467  -14.8923 C   0  0  0  0  0  0  0  0  0  0  0  0
   19.4278  -19.9199  -15.1085 O   0  0  0  0  0  0  0  0  0  0  0  0
   19.0067  -18.7471  -15.0374 C   0  0  0  0  0  0  0  0  0  0  0  0
   20.2484  -21.5984  -12.9112 O   0  0  0  0  0  0  0  0  0  0  0  0
   18.9169  -21.3651  -12.5739 O   0  0  0  0  0  0  0  0  0  0  0  0
   18.4956  -20.9088  -15.4021 O   0  0  0  0  0  0  0  0  0  0  0  0
  1  2  1  0
  2  3  2  0
  4  5  1  0
  4  2  1  0
  6  5  1  0
  7  6  1  0
  8  7  1  0
  8  9  1  6
 10  8  1  0
 10 11  2  0
 12 13  1  0
 13 14  2  0
 15 16  1  0
 15 13  1  0
 17 16  1  1
 17 18  1  0
 18 10  1  0
 19 17  1  0
 20 19  2  0
 21 19  1  0
 22 21  1  0
 22 26  1  0
 22 23  1  1
 24 23  1  0
 24 25  2  0
 26 27  1  0
 28 24  1  0
 29 26  2  0
M  END
$$$$
