RQD.pdb
     RDKit          3D

 29 28  0  0  1  0  0  0  0  0999 V2000
   29.1836  -16.8096  -19.6930 N   0  0  0  0  0  0  0  0  0  0  0  0
   28.0825  -16.3127  -18.9338 C   0  0  0  0  0  0  0  0  0  0  0  0
   27.2191  -15.5520  -19.4969 N   0  0  0  0  0  0  0  0  0  0  0  0
   27.8969  -16.6268  -17.5682 N   0  0  0  0  0  0  0  0  0  0  0  0
   28.4108  -17.8294  -16.9572 C   0  0  0  0  0  0  0  0  0  0  0  0
   27.8422  -19.0133  -17.7207 C   0  0  0  0  0  0  0  0  0  0  0  0
   26.8578  -19.7915  -16.9263 C   0  0  0  0  0  0  0  0  0  0  0  0
   27.5149  -20.6411  -15.8784 C   0  0  2  0  0  0  0  0  0  0  0  0
   28.0066  -21.8614  -16.5591 N   0  0  0  0  0  0  0  0  0  0  0  0
   26.4855  -21.1262  -14.9317 C   0  0  0  0  0  0  0  0  0  0  0  0
   25.6611  -22.0008  -15.2933 O   0  0  0  0  0  0  0  0  0  0  0  0
   26.4253  -15.0838  -19.0178 N   0  0  0  0  0  0  0  0  0  0  0  0
   26.1931  -20.3487   -8.8239 C   0  0  0  0  0  0  0  0  0  0  0  0
   24.9474  -20.9870   -9.0104 O   0  0  0  0  0  0  0  0  0  0  0  0
   24.2132  -21.2857   -8.0479 C   0  0  0  0  0  0  0  0  0  0  0  0
   24.5483  -21.2898  -10.4268 C   0  0  0  0  0  0  0  0  0  0  0  0
   25.6633  -20.8245  -11.3155 C   0  0  2  0  0  0  0  0  0  0  0  0
   25.2930  -21.0697  -12.7504 N   0  0  0  0  0  0  0  0  0  0  0  0
   26.3833  -20.6344  -13.5946 C   0  0  0  0  0  0  0  0  0  0  0  0
   24.0890  -20.3102  -13.1768 O   0  0  0  0  0  0  0  0  0  0  0  0
   24.1278  -19.0880  -13.4681 N   0  0  0  0  0  0  0  0  0  0  0  0
   22.8416  -20.9911  -13.2594 C   0  0  1  0  0  0  0  0  0  0  0  0
   21.6590  -20.3039  -13.7137 C   0  0  0  0  0  0  0  0  0  0  0  0
   21.4486  -20.5003  -15.1898 C   0  0  0  0  0  0  0  0  0  0  0  0
   20.2433  -19.7879  -15.6491 O   0  0  0  0  0  0  0  0  0  0  0  0
   19.5676  -19.0772  -14.8770 C   0  0  0  0  0  0  0  0  0  0  0  0
   20.4848  -20.7922  -12.9320 O   0  0  0  0  0  0  0  0  0  0  0  0
   19.4335  -19.9448  -12.5891 O   0  0  0  0  0  0  0  0  0  0  0  0
   19.8084  -19.8788  -16.9666 O   0  0  0  0  0  0  0  0  0  0  0  0
  1  2  1  0
  2  3  2  0
  4  5  1  0
  4  2  1  0
  6  5  1  0
  7  6  1  0
  8  7  1  0
  8  9  1  6
 10  8  1  0
 10 11  2  0
 12 13  1  0
 13 14  2  0
 15 16  1  0
 15 13  1  0
 17 16  1  1
 17 18  1  0
 18 10  1  0
 19 17  1  0
 20 19  2  0
 21 19  1  0
 22 21  1  0
 22 26  1  0
 22 23  1  1
 24 23  1  0
 24 25  2  0
 26 27  1  0
 28 24  1  0
 29 26  2  0
M  END
$$$$
