RQD.pdb
     RDKit          3D

 29 28  0  0  1  0  0  0  0  0999 V2000
   42.3008   -5.0594   -3.1484 N   0  0  0  0  0  0  0  0  0  0  0  0
   43.5042   -4.7194   -3.8352 C   0  0  0  0  0  0  0  0  0  0  0  0
   44.2539   -3.7890   -3.3731 N   0  0  0  0  0  0  0  0  0  0  0  0
   43.9143   -5.3725   -5.0197 N   0  0  0  0  0  0  0  0  0  0  0  0
   43.1591   -6.4366   -5.6372 C   0  0  0  0  0  0  0  0  0  0  0  0
   43.6053   -7.7444   -5.0063 C   0  0  0  0  0  0  0  0  0  0  0  0
   44.3647   -8.6076   -5.9464 C   0  0  0  0  0  0  0  0  0  0  0  0
   43.4678   -9.5045   -6.7482 C   0  0  2  0  0  0  0  0  0  0  0  0
   42.9089  -10.5052   -5.8101 N   0  0  0  0  0  0  0  0  0  0  0  0
   44.2898  -10.2922   -7.6943 C   0  0  0  0  0  0  0  0  0  0  0  0
   44.8439   -9.7261   -8.6678 O   0  0  0  0  0  0  0  0  0  0  0  0
   45.1250   -3.4401   -3.8185 N   0  0  0  0  0  0  0  0  0  0  0  0
   46.7431  -15.7702   -6.7560 C   0  0  0  0  0  0  0  0  0  0  0  0
   47.4191  -14.5776   -6.4176 O   0  0  0  0  0  0  0  0  0  0  0  0
   48.3423  -14.5625   -5.5796 C   0  0  0  0  0  0  0  0  0  0  0  0
   46.9718  -13.3253   -7.1167 C   0  0  0  0  0  0  0  0  0  0  0  0
   45.7765  -13.6803   -7.9502 C   0  0  2  0  0  0  0  0  0  0  0  0
   45.2085  -12.4328   -8.5645 N   0  0  0  0  0  0  0  0  0  0  0  0
   44.4867  -11.6994   -7.5486 C   0  0  0  0  0  0  0  0  0  0  0  0
   44.2441  -12.7128   -9.6598 O   0  0  0  0  0  0  0  0  0  0  0  0
   43.0062  -12.8079   -9.4639 N   0  0  0  0  0  0  0  0  0  0  0  0
   44.7392  -12.8802  -10.9841 C   0  0  1  0  0  0  0  0  0  0  0  0
   43.8489  -13.2319  -12.0615 C   0  0  0  0  0  0  0  0  0  0  0  0
   42.7278  -12.2373  -12.1878 C   0  0  0  0  0  0  0  0  0  0  0  0
   41.8593  -12.5656  -13.3319 O   0  0  0  0  0  0  0  0  0  0  0  0
   41.9752  -13.6404  -13.9559 C   0  0  0  0  0  0  0  0  0  0  0  0
   44.6337  -13.3234  -13.3279 O   0  0  0  0  0  0  0  0  0  0  0  0
   45.3473  -12.2345  -13.8240 O   0  0  0  0  0  0  0  0  0  0  0  0
   40.8714  -11.6880  -13.7642 O   0  0  0  0  0  0  0  0  0  0  0  0
  1  2  1  0
  2  3  2  0
  4  5  1  0
  4  2  1  0
  6  5  1  0
  7  6  1  0
  8  7  1  0
  8  9  1  1
 10  8  1  0
 10 11  2  0
 12 13  1  0
 13 14  2  0
 15 16  1  0
 15 13  1  0
 17 16  1  1
 17 18  1  0
 18 10  1  0
 19 17  1  0
 20 19  2  0
 21 19  1  0
 22 21  1  0
 22 26  1  0
 22 23  1  1
 24 23  1  0
 24 25  2  0
 26 27  1  0
 28 24  1  0
 29 26  2  0
M  END
$$$$
