RQD.pdb
     RDKit          3D

 29 28  0  0  1  0  0  0  0  0999 V2000
   31.2840  -25.0804  -16.2478 N   0  0  0  0  0  0  0  0  0  0  0  0
   30.2101  -25.0495  -17.1866 C   0  0  0  0  0  0  0  0  0  0  0  0
   29.7945  -26.1439  -17.7071 N   0  0  0  0  0  0  0  0  0  0  0  0
   29.5731  -23.8487  -17.5741 N   0  0  0  0  0  0  0  0  0  0  0  0
   30.1414  -22.5422  -17.3417 C   0  0  0  0  0  0  0  0  0  0  0  0
   29.6944  -22.0838  -15.9641 C   0  0  0  0  0  0  0  0  0  0  0  0
   28.9531  -20.7974  -15.9978 C   0  0  0  0  0  0  0  0  0  0  0  0
   27.5730  -20.9193  -15.4215 C   0  0  2  0  0  0  0  0  0  0  0  0
   27.0724  -22.2656  -15.7832 N   0  0  0  0  0  0  0  0  0  0  0  0
   26.6695  -19.9799  -16.1233 C   0  0  0  0  0  0  0  0  0  0  0  0
   26.7760  -18.7440  -15.9319 O   0  0  0  0  0  0  0  0  0  0  0  0
   29.0730  -26.2216  -18.4503 N   0  0  0  0  0  0  0  0  0  0  0  0
   24.7895  -20.0756  -21.7195 C   0  0  0  0  0  0  0  0  0  0  0  0
   23.9895  -18.9856  -21.3124 O   0  0  0  0  0  0  0  0  0  0  0  0
   23.3611  -18.2904  -22.1349 C   0  0  0  0  0  0  0  0  0  0  0  0
   23.9317  -18.7030  -19.8380 C   0  0  0  0  0  0  0  0  0  0  0  0
   24.8054  -19.7121  -19.1540 C   0  0  2  0  0  0  0  0  0  0  0  0
   24.7970  -19.4573  -17.6737 N   0  0  0  0  0  0  0  0  0  0  0  0
   25.6583  -20.4236  -17.0291 C   0  0  0  0  0  0  0  0  0  0  0  0
   23.4493  -19.6096  -17.0665 O   0  0  0  0  0  0  0  0  0  0  0  0
   23.1146  -20.6267  -16.4080 N   0  0  0  0  0  0  0  0  0  0  0  0
   22.4982  -18.5639  -17.2355 C   0  0  2  0  0  0  0  0  0  0  0  0
   21.2202  -18.6198  -16.5717 C   0  0  0  0  0  0  0  0  0  0  0  0
   21.3846  -18.8162  -15.0897 C   0  0  0  0  0  0  0  0  0  0  0  0
   20.1930  -19.4590  -14.5085 O   0  0  0  0  0  0  0  0  0  0  0  0
   19.2314  -19.8204  -15.2175 C   0  0  0  0  0  0  0  0  0  0  0  0
   20.4648  -17.3672  -16.8691 O   0  0  0  0  0  0  0  0  0  0  0  0
   19.0926  -17.2730  -16.6475 O   0  0  0  0  0  0  0  0  0  0  0  0
   20.0914  -19.6902  -13.1413 O   0  0  0  0  0  0  0  0  0  0  0  0
  1  2  1  0
  2  3  2  0
  4  5  1  0
  4  2  1  0
  6  5  1  0
  7  6  1  0
  8  7  1  0
  8  9  1  6
 10  8  1  0
 10 11  2  0
 12 13  1  0
 13 14  2  0
 15 16  1  0
 15 13  1  0
 17 16  1  6
 17 18  1  0
 18 10  1  0
 19 17  1  0
 20 19  2  0
 21 19  1  0
 22 21  1  0
 22 26  1  0
 22 23  1  6
 24 23  1  0
 24 25  2  0
 26 27  1  0
 28 24  1  0
 29 26  2  0
M  END
$$$$
