RQD.pdb
     RDKit          3D

 29 28  0  0  1  0  0  0  0  0999 V2000
   27.1791  -20.5321   -9.2585 N   0  0  0  0  0  0  0  0  0  0  0  0
   28.3545  -21.1322   -9.8009 C   0  0  0  0  0  0  0  0  0  0  0  0
   29.4868  -20.9236   -9.2392 N   0  0  0  0  0  0  0  0  0  0  0  0
   28.3265  -21.9598  -10.9464 N   0  0  0  0  0  0  0  0  0  0  0  0
   27.2891  -21.8882  -11.9476 C   0  0  0  0  0  0  0  0  0  0  0  0
   26.8519  -20.4373  -12.0551 C   0  0  0  0  0  0  0  0  0  0  0  0
   25.8247  -20.2219  -13.1059 C   0  0  0  0  0  0  0  0  0  0  0  0
   25.7733  -21.3509  -14.0930 C   0  0  2  0  0  0  0  0  0  0  0  0
   26.9900  -21.2461  -14.9312 N   0  0  0  0  0  0  0  0  0  0  0  0
   24.6494  -21.1253  -15.0297 C   0  0  0  0  0  0  0  0  0  0  0  0
   24.8017  -20.3768  -16.0255 O   0  0  0  0  0  0  0  0  0  0  0  0
   30.4000  -21.2931   -9.5689 N   0  0  0  0  0  0  0  0  0  0  0  0
   21.9552  -24.9203  -18.1066 C   0  0  0  0  0  0  0  0  0  0  0  0
   22.0271  -25.1741  -16.7194 O   0  0  0  0  0  0  0  0  0  0  0  0
   21.9543  -26.3310  -16.2600 C   0  0  0  0  0  0  0  0  0  0  0  0
   22.1959  -23.9813  -15.8218 C   0  0  0  0  0  0  0  0  0  0  0  0
   22.2430  -22.7647  -16.6977 C   0  0  1  0  0  0  0  0  0  0  0  0
   22.3344  -21.5354  -15.8395 N   0  0  0  0  0  0  0  0  0  0  0  0
   23.3696  -21.7333  -14.8495 C   0  0  0  0  0  0  0  0  0  0  0  0
   21.0785  -21.2510  -15.0978 O   0  0  0  0  0  0  0  0  0  0  0  0
   20.5504  -22.0825  -14.3170 N   0  0  0  0  0  0  0  0  0  0  0  0
   20.4467  -19.9878  -15.2768 C   0  0  1  0  0  0  0  0  0  0  0  0
   19.1940  -19.6951  -14.6270 C   0  0  0  0  0  0  0  0  0  0  0  0
   18.7068  -18.3167  -14.9800 C   0  0  0  0  0  0  0  0  0  0  0  0
   18.0475  -17.6800  -13.8264 O   0  0  0  0  0  0  0  0  0  0  0  0
   17.8733  -18.2903  -12.7517 C   0  0  0  0  0  0  0  0  0  0  0  0
   18.1946  -20.7351  -15.0110 O   0  0  0  0  0  0  0  0  0  0  0  0
   17.2598  -21.2202  -14.0991 O   0  0  0  0  0  0  0  0  0  0  0  0
   17.5914  -16.3680  -13.8885 O   0  0  0  0  0  0  0  0  0  0  0  0
  1  2  1  0
  2  3  2  0
  4  5  1  0
  4  2  1  0
  6  5  1  0
  7  6  1  0
  8  7  1  0
  8  9  1  6
 10  8  1  0
 10 11  2  0
 12 13  1  0
 13 14  2  0
 15 16  1  0
 15 13  1  0
 17 16  1  6
 17 18  1  0
 18 10  1  0
 19 17  1  0
 20 19  2  0
 21 19  1  0
 22 21  1  0
 22 26  1  0
 22 23  1  6
 24 23  1  0
 24 25  2  0
 26 27  1  0
 28 24  1  0
 29 26  2  0
M  END
$$$$
