RQD.pdb
     RDKit          3D

 29 28  0  0  1  0  0  0  0  0999 V2000
   32.8416  -25.3533  -15.5366 N   0  0  0  0  0  0  0  0  0  0  0  0
   32.5064  -24.2078  -14.7548 C   0  0  0  0  0  0  0  0  0  0  0  0
   33.0272  -24.0614  -13.5935 N   0  0  0  0  0  0  0  0  0  0  0  0
   31.6133  -23.2113  -15.2098 N   0  0  0  0  0  0  0  0  0  0  0  0
   30.7683  -23.3771  -16.3684 C   0  0  0  0  0  0  0  0  0  0  0  0
   30.1411  -22.0286  -16.6780 C   0  0  0  0  0  0  0  0  0  0  0  0
   28.6939  -21.9773  -16.3483 C   0  0  0  0  0  0  0  0  0  0  0  0
   28.2815  -23.0807  -15.4187 C   0  0  2  0  0  0  0  0  0  0  0  0
   27.9562  -24.2548  -16.2610 N   0  0  0  0  0  0  0  0  0  0  0  0
   27.0019  -22.7156  -14.7702 C   0  0  0  0  0  0  0  0  0  0  0  0
   25.9179  -23.1504  -15.2295 O   0  0  0  0  0  0  0  0  0  0  0  0
   32.8438  -23.2697  -12.9465 N   0  0  0  0  0  0  0  0  0  0  0  0
   26.2621  -20.5643   -9.0636 C   0  0  0  0  0  0  0  0  0  0  0  0
   24.9048  -20.7669   -9.3963 O   0  0  0  0  0  0  0  0  0  0  0  0
   23.9981  -20.6555   -8.5476 C   0  0  0  0  0  0  0  0  0  0  0  0
   24.6048  -21.1237  -10.8245 C   0  0  0  0  0  0  0  0  0  0  0  0
   25.9179  -21.3143  -11.5238 C   0  0  2  0  0  0  0  0  0  0  0  0
   25.6709  -21.6317  -12.9710 N   0  0  0  0  0  0  0  0  0  0  0  0
   26.9409  -21.8717  -13.6194 C   0  0  0  0  0  0  0  0  0  0  0  0
   25.0163  -20.5182  -13.7056 O   0  0  0  0  0  0  0  0  0  0  0  0
   25.6427  -19.7687  -14.4968 N   0  0  0  0  0  0  0  0  0  0  0  0
   23.6253  -20.2891  -13.5075 C   0  0  2  0  0  0  0  0  0  0  0  0
   22.7916  -19.8476  -14.5971 C   0  0  0  0  0  0  0  0  0  0  0  0
   22.9689  -20.7228  -15.8073 C   0  0  0  0  0  0  0  0  0  0  0  0
   23.3129  -19.9182  -16.9928 O   0  0  0  0  0  0  0  0  0  0  0  0
   23.3773  -18.6727  -16.9437 C   0  0  0  0  0  0  0  0  0  0  0  0
   21.3693  -19.8352  -14.1444 O   0  0  0  0  0  0  0  0  0  0  0  0
   20.4949  -18.8160  -14.5149 O   0  0  0  0  0  0  0  0  0  0  0  0
   23.5812  -20.5164  -18.2189 O   0  0  0  0  0  0  0  0  0  0  0  0
  1  2  1  0
  2  3  2  0
  4  5  1  0
  4  2  1  0
  6  5  1  0
  7  6  1  0
  8  7  1  0
  8  9  1  6
 10  8  1  0
 10 11  2  0
 12 13  1  0
 13 14  2  0
 15 16  1  0
 15 13  1  0
 17 16  1  1
 17 18  1  0
 18 10  1  0
 19 17  1  0
 20 19  2  0
 21 19  1  0
 22 21  1  0
 22 26  1  0
 22 23  1  1
 24 23  1  0
 24 25  2  0
 26 27  1  0
 28 24  1  0
 29 26  2  0
M  END
$$$$
