RQD.pdb
     RDKit          3D

 29 28  0  0  1  0  0  0  0  0999 V2000
   23.2052  -20.7917   -9.6348 N   0  0  0  0  0  0  0  0  0  0  0  0
   23.8133  -20.9179   -8.3504 C   0  0  0  0  0  0  0  0  0  0  0  0
   23.1355  -21.3984   -7.3752 N   0  0  0  0  0  0  0  0  0  0  0  0
   25.1500  -20.5324   -8.1006 N   0  0  0  0  0  0  0  0  0  0  0  0
   26.0784  -20.1768   -9.1472 C   0  0  0  0  0  0  0  0  0  0  0  0
   26.2589  -21.3951  -10.0365 C   0  0  0  0  0  0  0  0  0  0  0  0
   25.8164  -21.1582  -11.4343 C   0  0  0  0  0  0  0  0  0  0  0  0
   26.9587  -21.1892  -12.4069 C   0  0  2  0  0  0  0  0  0  0  0  0
   28.1972  -20.9723  -11.6240 N   0  0  0  0  0  0  0  0  0  0  0  0
   26.8667  -20.0127  -13.3007 C   0  0  0  0  0  0  0  0  0  0  0  0
   27.2997  -18.8981  -12.9193 O   0  0  0  0  0  0  0  0  0  0  0  0
   23.4754  -21.5033   -6.3992 N   0  0  0  0  0  0  0  0  0  0  0  0
   28.5514  -19.5051  -18.7364 C   0  0  0  0  0  0  0  0  0  0  0  0
   28.4580  -20.6362  -17.8964 O   0  0  0  0  0  0  0  0  0  0  0  0
   28.9938  -21.7215  -18.1962 C   0  0  0  0  0  0  0  0  0  0  0  0
   27.6806  -20.4693  -16.6216 C   0  0  0  0  0  0  0  0  0  0  0  0
   27.1512  -19.0662  -16.6004 C   0  0  1  0  0  0  0  0  0  0  0  0
   26.2245  -18.9004  -15.4300 N   0  0  0  0  0  0  0  0  0  0  0  0
   26.2947  -20.0876  -14.6073 C   0  0  0  0  0  0  0  0  0  0  0  0
   24.8034  -18.7399  -15.8334 O   0  0  0  0  0  0  0  0  0  0  0  0
   23.9776  -19.6868  -15.7943 N   0  0  0  0  0  0  0  0  0  0  0  0
   24.3570  -17.4647  -16.2821 C   0  0  2  0  0  0  0  0  0  0  0  0
   22.9875  -17.2664  -16.6850 C   0  0  0  0  0  0  0  0  0  0  0  0
   22.6412  -15.8037  -16.7349 C   0  0  0  0  0  0  0  0  0  0  0  0
   21.2540  -15.6065  -17.1909 O   0  0  0  0  0  0  0  0  0  0  0  0
   20.9872  -14.9309  -18.2059 C   0  0  0  0  0  0  0  0  0  0  0  0
   22.7740  -17.9166  -18.0115 O   0  0  0  0  0  0  0  0  0  0  0  0
   21.5296  -18.4187  -18.3858 O   0  0  0  0  0  0  0  0  0  0  0  0
   20.1819  -16.1677  -16.5063 O   0  0  0  0  0  0  0  0  0  0  0  0
  1  2  1  0
  2  3  2  0
  4  5  1  0
  4  2  1  0
  6  5  1  0
  7  6  1  0
  8  7  1  0
  8  9  1  1
 10  8  1  0
 10 11  2  0
 12 13  1  0
 13 14  2  0
 15 16  1  0
 15 13  1  0
 17 16  1  1
 17 18  1  0
 18 10  1  0
 19 17  1  0
 20 19  2  0
 21 19  1  0
 22 21  1  0
 22 26  1  0
 22 23  1  6
 24 23  1  0
 24 25  2  0
 26 27  1  0
 28 24  1  0
 29 26  2  0
M  END
$$$$
