RQD.pdb
     RDKit          3D

 29 28  0  0  1  0  0  0  0  0999 V2000
   26.5641  -19.3634  -20.7721 N   0  0  0  0  0  0  0  0  0  0  0  0
   27.9146  -18.9764  -21.0210 C   0  0  0  0  0  0  0  0  0  0  0  0
   28.3359  -18.8942  -22.2280 N   0  0  0  0  0  0  0  0  0  0  0  0
   28.8229  -18.6737  -19.9811 N   0  0  0  0  0  0  0  0  0  0  0  0
   28.4789  -18.7596  -18.5818 C   0  0  0  0  0  0  0  0  0  0  0  0
   29.0058  -20.0848  -18.0583 C   0  0  0  0  0  0  0  0  0  0  0  0
   28.1104  -20.7010  -17.0463 C   0  0  0  0  0  0  0  0  0  0  0  0
   27.1691  -19.7047  -16.4357 C   0  0  2  0  0  0  0  0  0  0  0  0
   27.9790  -18.8283  -15.5583 N   0  0  0  0  0  0  0  0  0  0  0  0
   26.2463  -20.4090  -15.5170 C   0  0  0  0  0  0  0  0  0  0  0  0
   25.5110  -21.3299  -15.9488 O   0  0  0  0  0  0  0  0  0  0  0  0
   29.2931  -18.6096  -22.5140 N   0  0  0  0  0  0  0  0  0  0  0  0
   26.2602  -20.5622   -9.3720 C   0  0  0  0  0  0  0  0  0  0  0  0
   25.0271  -21.2162   -9.5854 O   0  0  0  0  0  0  0  0  0  0  0  0
   24.3722  -21.7043   -8.6433 C   0  0  0  0  0  0  0  0  0  0  0  0
   24.5410  -21.2960  -11.0047 C   0  0  0  0  0  0  0  0  0  0  0  0
   25.5879  -20.6638  -11.8729 C   0  0  1  0  0  0  0  0  0  0  0  0
   25.1489  -20.7242  -13.3081 N   0  0  0  0  0  0  0  0  0  0  0  0
   26.1506  -20.0823  -14.1299 C   0  0  0  0  0  0  0  0  0  0  0  0
   23.8689  -20.0105  -13.5537 O   0  0  0  0  0  0  0  0  0  0  0  0
   23.8205  -18.8669  -14.0734 N   0  0  0  0  0  0  0  0  0  0  0  0
   22.6481  -20.6445  -13.1872 C   0  0  1  0  0  0  0  0  0  0  0  0
   21.3975  -20.2169  -13.7618 C   0  0  0  0  0  0  0  0  0  0  0  0
   21.4209  -20.3292  -15.2614 C   0  0  0  0  0  0  0  0  0  0  0  0
   20.1356  -19.9015  -15.8413 O   0  0  0  0  0  0  0  0  0  0  0  0
   19.6208  -18.8012  -15.5548 C   0  0  0  0  0  0  0  0  0  0  0  0
   20.2921  -21.0319  -13.1772 O   0  0  0  0  0  0  0  0  0  0  0  0
   19.0473  -20.4749  -12.8921 O   0  0  0  0  0  0  0  0  0  0  0  0
   19.4418  -20.7096  -16.7351 O   0  0  0  0  0  0  0  0  0  0  0  0
  1  2  1  0
  2  3  2  0
  4  5  1  0
  4  2  1  0
  6  5  1  0
  7  6  1  0
  8  7  1  0
  8  9  1  1
 10  8  1  0
 10 11  2  0
 12 13  1  0
 13 14  2  0
 15 16  1  0
 15 13  1  0
 17 16  1  6
 17 18  1  0
 18 10  1  0
 19 17  1  0
 20 19  2  0
 21 19  1  0
 22 21  1  0
 22 26  1  0
 22 23  1  1
 24 23  1  0
 24 25  2  0
 26 27  1  0
 28 24  1  0
 29 26  2  0
M  END
$$$$
