RQD.pdb
     RDKit          3D

 29 28  0  0  1  0  0  0  0  0999 V2000
   27.8782  -16.8160  -19.4033 N   0  0  0  0  0  0  0  0  0  0  0  0
   29.2154  -17.0746  -18.9782 C   0  0  0  0  0  0  0  0  0  0  0  0
   30.1323  -16.2127  -19.2184 N   0  0  0  0  0  0  0  0  0  0  0  0
   29.5806  -18.2556  -18.2928 N   0  0  0  0  0  0  0  0  0  0  0  0
   28.6209  -19.2308  -17.8327 C   0  0  0  0  0  0  0  0  0  0  0  0
   27.7331  -18.5533  -16.8029 C   0  0  0  0  0  0  0  0  0  0  0  0
   26.6769  -19.4525  -16.2725 C   0  0  0  0  0  0  0  0  0  0  0  0
   27.2248  -20.4786  -15.3244 C   0  0  2  0  0  0  0  0  0  0  0  0
   27.7496  -21.5910  -16.1497 N   0  0  0  0  0  0  0  0  0  0  0  0
   26.1085  -21.0735  -14.5555 C   0  0  0  0  0  0  0  0  0  0  0  0
   25.4345  -22.0104  -15.0486 O   0  0  0  0  0  0  0  0  0  0  0  0
   31.1294  -16.3006  -18.9408 N   0  0  0  0  0  0  0  0  0  0  0  0
   24.9006  -20.7389   -8.5433 C   0  0  0  0  0  0  0  0  0  0  0  0
   26.1458  -20.8345   -9.2021 O   0  0  0  0  0  0  0  0  0  0  0  0
   27.2236  -20.7845   -8.5772 C   0  0  0  0  0  0  0  0  0  0  0  0
   26.1100  -20.9995  -10.6950 C   0  0  0  0  0  0  0  0  0  0  0  0
   24.6766  -20.8922  -11.1231 C   0  0  2  0  0  0  0  0  0  0  0  0
   24.5759  -21.1528  -12.5989 N   0  0  0  0  0  0  0  0  0  0  0  0
   25.7535  -20.6210  -13.2481 C   0  0  0  0  0  0  0  0  0  0  0  0
   23.4027  -20.4907  -13.2262 O   0  0  0  0  0  0  0  0  0  0  0  0
   23.5107  -19.4769  -13.9615 N   0  0  0  0  0  0  0  0  0  0  0  0
   22.1045  -21.0235  -12.9868 C   0  0  1  0  0  0  0  0  0  0  0  0
   20.9652  -20.5409  -13.7258 C   0  0  0  0  0  0  0  0  0  0  0  0
   21.1690  -20.7025  -15.2071 C   0  0  0  0  0  0  0  0  0  0  0  0
   20.0056  -20.1970  -15.9567 O   0  0  0  0  0  0  0  0  0  0  0  0
   19.6121  -19.0183  -15.8398 C   0  0  0  0  0  0  0  0  0  0  0  0
   19.7461  -21.2695  -13.2666 O   0  0  0  0  0  0  0  0  0  0  0  0
   18.4897  -20.6675  -13.2762 O   0  0  0  0  0  0  0  0  0  0  0  0
   19.2966  -21.0159  -16.8285 O   0  0  0  0  0  0  0  0  0  0  0  0
  1  2  1  0
  2  3  2  0
  4  5  1  0
  4  2  1  0
  6  5  1  0
  7  6  1  0
  8  7  1  0
  8  9  1  6
 10  8  1  0
 10 11  2  0
 12 13  1  0
 13 14  2  0
 15 16  1  0
 15 13  1  0
 17 16  1  1
 17 18  1  0
 18 10  1  0
 19 17  1  0
 20 19  2  0
 21 19  1  0
 22 21  1  0
 22 26  1  0
 22 23  1  1
 24 23  1  0
 24 25  2  0
 26 27  1  0
 28 24  1  0
 29 26  2  0
M  END
$$$$
