FNW.pdb
     RDKit          3D

 34 36  0  0  1  0  0  0  0  0999 V2000
   25.8628  -20.1087  -20.0695 N   0  0  0  0  0  0  0  0  0  0  0  0
   25.9179  -19.4955  -18.7429 C   0  0  1  0  0  0  0  0  0  0  0  0
   24.7469  -18.5219  -18.5908 C   0  0  0  0  0  0  0  0  0  0  0  0
   24.8763  -17.3793  -19.5110 C   0  0  0  0  0  0  0  0  0  0  0  0
   25.8879  -16.4573  -19.3603 C   0  0  0  0  0  0  0  0  0  0  0  0
   26.0459  -15.3724  -20.2048 C   0  0  0  0  0  0  0  0  0  0  0  0
   25.1464  -15.2106  -21.2440 C   0  0  0  0  0  0  0  0  0  0  0  0
   24.1340  -16.1093  -21.4166 C   0  0  0  0  0  0  0  0  0  0  0  0
   23.9893  -17.1971  -20.5566 C   0  0  0  0  0  0  0  0  0  0  0  0
   25.8052  -20.5234  -17.6781 C   0  0  0  0  0  0  0  0  0  0  0  0
   25.0784  -21.5255  -17.9376 O   0  0  0  0  0  0  0  0  0  0  0  0
   29.5433  -21.6232  -16.6046 N   0  0  0  0  0  0  0  0  0  0  0  0
   28.6307  -22.4824  -15.8831 C   0  0  0  0  0  0  0  0  0  0  0  0
   28.7080  -23.7055  -16.0856 O   0  0  0  0  0  0  0  0  0  0  0  0
   27.6959  -21.8480  -14.9795 C   0  0  0  0  0  0  0  0  0  0  0  0
   26.3072  -21.5488  -15.4809 C   0  0  2  0  0  0  0  0  0  0  0  0
   26.4658  -20.4097  -16.4327 N   0  0  0  0  0  0  0  0  0  0  0  0
   25.3873  -21.0140  -14.4470 C   0  0  0  0  0  0  0  0  0  0  0  0
   25.6208  -19.8264  -13.9937 O   0  0  0  0  0  0  0  0  0  0  0  0
   24.2681  -21.6403  -13.8878 N   0  0  0  0  0  0  0  0  0  0  0  0
   23.0209  -20.9444  -13.7628 C   0  0  1  0  0  0  0  0  0  0  0  0
   22.6423  -20.2122  -15.0314 C   0  0  0  0  0  0  0  0  0  0  0  0
   21.2317  -19.7797  -14.9144 C   0  0  0  0  0  0  0  0  0  0  0  0
   20.6786  -18.7969  -14.0918 C   0  0  0  0  0  0  0  0  0  0  0  0
   19.3425  -18.7394  -14.3107 N   0  0  0  0  0  0  0  0  0  0  0  0
   18.9924  -19.6369  -15.2370 C   0  0  0  0  0  0  0  0  0  0  0  0
   17.7805  -19.9594  -15.7901 C   0  0  0  0  0  0  0  0  0  0  0  0
   17.6739  -20.9587  -16.7613 C   0  0  0  0  0  0  0  0  0  0  0  0
   18.8249  -21.6113  -17.1462 C   0  0  0  0  0  0  0  0  0  0  0  0
   20.0359  -21.2750  -16.5795 C   0  0  0  0  0  0  0  0  0  0  0  0
   20.1407  -20.2880  -15.6214 C   0  0  0  0  0  0  0  0  0  0  0  0
   21.9500  -21.9118  -13.4465 C   0  0  0  0  0  0  0  0  0  0  0  0
   21.0588  -21.5495  -12.6068 O   0  0  0  0  0  0  0  0  0  0  0  0
   21.8411  -23.1810  -13.9942 O   0  0  0  0  0  0  0  0  0  0  0  0
  2  1  1  6
  3  2  1  0
  4  5  2  0
  4  3  1  0
  6  5  1  0
  7  6  2  0
  8  7  1  0
  8  9  2  0
  9  4  1  0
 10  2  1  0
 11 10  2  0
 13 14  2  0
 13 12  1  0
 15 13  1  0
 16 17  1  0
 16 15  1  1
 17 10  1  0
 18 16  1  0
 19 18  2  0
 20 18  1  0
 21 20  1  0
 21 22  1  6
 23 22  1  0
 23 31  1  0
 24 25  1  0
 24 23  2  0
 25 26  1  0
 26 31  2  0
 26 27  1  0
 27 28  2  0
 28 29  1  0
 30 29  2  0
 31 30  1  0
 32 21  1  0
 32 34  1  0
 33 32  2  0
M  END
$$$$
