FNW.pdb
     RDKit          3D

 34 36  0  0  1  0  0  0  0  0999 V2000
   26.9079  -22.0648   -8.1223 N   0  0  0  0  0  0  0  0  0  0  0  0
   26.6619  -20.7365   -8.6824 C   0  0  1  0  0  0  0  0  0  0  0  0
   27.9218  -19.8825   -8.5215 C   0  0  0  0  0  0  0  0  0  0  0  0
   28.2030  -19.6032   -7.1031 C   0  0  0  0  0  0  0  0  0  0  0  0
   28.9823  -20.4551   -6.3527 C   0  0  0  0  0  0  0  0  0  0  0  0
   29.2725  -20.2271   -5.0189 C   0  0  0  0  0  0  0  0  0  0  0  0
   28.7552  -19.0932   -4.4171 C   0  0  0  0  0  0  0  0  0  0  0  0
   27.9796  -18.2317   -5.1373 C   0  0  0  0  0  0  0  0  0  0  0  0
   27.6970  -18.4765   -6.4804 C   0  0  0  0  0  0  0  0  0  0  0  0
   26.3433  -20.8215  -10.1295 C   0  0  0  0  0  0  0  0  0  0  0  0
   27.2114  -21.3729  -10.8658 O   0  0  0  0  0  0  0  0  0  0  0  0
   25.3427  -22.4409  -14.2768 N   0  0  0  0  0  0  0  0  0  0  0  0
   24.9225  -23.0975  -13.0586 C   0  0  0  0  0  0  0  0  0  0  0  0
   24.9096  -24.3395  -13.0477 O   0  0  0  0  0  0  0  0  0  0  0  0
   24.5484  -22.2535  -11.9448 C   0  0  0  0  0  0  0  0  0  0  0  0
   24.7904  -20.7709  -12.0577 C   0  0  2  0  0  0  0  0  0  0  0  0
   25.1400  -20.3198  -10.6783 N   0  0  0  0  0  0  0  0  0  0  0  0
   23.5804  -19.9786  -12.3877 C   0  0  0  0  0  0  0  0  0  0  0  0
   22.6427  -19.9190  -11.5002 O   0  0  0  0  0  0  0  0  0  0  0  0
   23.3164  -19.2642  -13.5614 N   0  0  0  0  0  0  0  0  0  0  0  0
   22.0790  -18.5606  -13.7324 C   0  0  1  0  0  0  0  0  0  0  0  0
   22.0071  -17.8397  -15.0604 C   0  0  0  0  0  0  0  0  0  0  0  0
   22.2391  -18.8274  -16.1380 C   0  0  0  0  0  0  0  0  0  0  0  0
   21.3063  -19.5295  -16.9031 C   0  0  0  0  0  0  0  0  0  0  0  0
   21.9650  -20.3330  -17.7732 N   0  0  0  0  0  0  0  0  0  0  0  0
   23.2846  -20.1921  -17.6156 C   0  0  0  0  0  0  0  0  0  0  0  0
   24.3515  -20.7782  -18.2457 C   0  0  0  0  0  0  0  0  0  0  0  0
   25.6644  -20.4570  -17.8904 C   0  0  0  0  0  0  0  0  0  0  0  0
   25.8545  -19.5330  -16.8859 C   0  0  0  0  0  0  0  0  0  0  0  0
   24.7703  -18.9532  -16.2620 C   0  0  0  0  0  0  0  0  0  0  0  0
   23.4746  -19.2700  -16.6137 C   0  0  0  0  0  0  0  0  0  0  0  0
   20.9570  -19.5193  -13.6618 C   0  0  0  0  0  0  0  0  0  0  0  0
   21.2060  -20.7387  -13.9476 O   0  0  0  0  0  0  0  0  0  0  0  0
   19.6567  -19.1932  -13.3075 O   0  0  0  0  0  0  0  0  0  0  0  0
  2  1  1  6
  3  2  1  0
  4  5  2  0
  4  3  1  0
  6  5  1  0
  7  6  2  0
  8  7  1  0
  8  9  2  0
  9  4  1  0
 10  2  1  0
 11 10  2  0
 13 14  2  0
 13 12  1  0
 15 13  1  0
 16 17  1  0
 16 15  1  1
 17 10  1  0
 18 16  1  0
 19 18  2  0
 20 18  1  0
 21 20  1  0
 21 22  1  6
 23 22  1  0
 23 31  1  0
 24 25  1  0
 24 23  2  0
 25 26  1  0
 26 31  2  0
 26 27  1  0
 27 28  2  0
 28 29  1  0
 30 29  2  0
 31 30  1  0
 32 21  1  0
 32 34  1  0
 33 32  2  0
M  END
$$$$
