FNW.pdb
     RDKit          3D

 34 36  0  0  1  0  0  0  0  0999 V2000
   26.0373  -18.2435  -16.0597 N   0  0  0  0  0  0  0  0  0  0  0  0
   26.7017  -18.8603  -14.9121 C   0  0  1  0  0  0  0  0  0  0  0  0
   27.8419  -17.9528  -14.4446 C   0  0  0  0  0  0  0  0  0  0  0  0
   28.9494  -17.9394  -15.4154 C   0  0  0  0  0  0  0  0  0  0  0  0
   29.7992  -19.0159  -15.5379 C   0  0  0  0  0  0  0  0  0  0  0  0
   30.8489  -19.0441  -16.4394 C   0  0  0  0  0  0  0  0  0  0  0  0
   31.0499  -17.9409  -17.2505 C   0  0  0  0  0  0  0  0  0  0  0  0
   30.2227  -16.8601  -17.1501 C   0  0  0  0  0  0  0  0  0  0  0  0
   29.1696  -16.8483  -16.2365 C   0  0  0  0  0  0  0  0  0  0  0  0
   25.7559  -19.0333  -13.7814 C   0  0  0  0  0  0  0  0  0  0  0  0
   25.0297  -18.0375  -13.4974 O   0  0  0  0  0  0  0  0  0  0  0  0
   22.2084  -19.3216  -13.3322 N   0  0  0  0  0  0  0  0  0  0  0  0
   22.4036  -20.7533  -13.3924 C   0  0  0  0  0  0  0  0  0  0  0  0
   21.5797  -21.4211  -14.0390 O   0  0  0  0  0  0  0  0  0  0  0  0
   23.5465  -21.2974  -12.6920 C   0  0  0  0  0  0  0  0  0  0  0  0
   24.5286  -20.3382  -12.0718 C   0  0  2  0  0  0  0  0  0  0  0  0
   25.6548  -20.2377  -13.0467 N   0  0  0  0  0  0  0  0  0  0  0  0
   25.1793  -20.8438  -10.8382 C   0  0  0  0  0  0  0  0  0  0  0  0
   25.7237  -22.0151  -10.8847 O   0  0  0  0  0  0  0  0  0  0  0  0
   25.2888  -20.2004   -9.6005 N   0  0  0  0  0  0  0  0  0  0  0  0
   25.4335  -20.9540   -8.3894 C   0  0  1  0  0  0  0  0  0  0  0  0
   25.8478  -20.0879   -7.2203 C   0  0  0  0  0  0  0  0  0  0  0  0
   27.3141  -20.2022   -7.0546 C   0  0  0  0  0  0  0  0  0  0  0  0
   28.2767  -20.5923   -7.9870 C   0  0  0  0  0  0  0  0  0  0  0  0
   29.4981  -20.5569   -7.4011 N   0  0  0  0  0  0  0  0  0  0  0  0
   29.3832  -20.1626   -6.1293 C   0  0  0  0  0  0  0  0  0  0  0  0
   30.3127  -19.9743   -5.1397 C   0  0  0  0  0  0  0  0  0  0  0  0
   29.9318  -19.5497   -3.8638 C   0  0  0  0  0  0  0  0  0  0  0  0
   28.5923  -19.3263   -3.6300 C   0  0  0  0  0  0  0  0  0  0  0  0
   27.6702  -19.5209   -4.6364 C   0  0  0  0  0  0  0  0  0  0  0  0
   28.0468  -19.9393   -5.8958 C   0  0  0  0  0  0  0  0  0  0  0  0
   24.1465  -21.5992   -8.0576 C   0  0  0  0  0  0  0  0  0  0  0  0
   23.0774  -20.9910   -8.4010 O   0  0  0  0  0  0  0  0  0  0  0  0
   24.0144  -22.8146   -7.4034 O   0  0  0  0  0  0  0  0  0  0  0  0
  2  1  1  6
  3  2  1  0
  4  5  2  0
  4  3  1  0
  6  5  1  0
  7  6  2  0
  8  7  1  0
  8  9  2  0
  9  4  1  0
 10  2  1  0
 11 10  2  0
 13 14  2  0
 13 12  1  0
 15 13  1  0
 16 17  1  0
 16 15  1  6
 17 10  1  0
 18 16  1  0
 19 18  2  0
 20 18  1  0
 21 20  1  0
 21 22  1  1
 23 22  1  0
 23 31  1  0
 24 25  1  0
 24 23  2  0
 25 26  1  0
 26 31  2  0
 26 27  1  0
 27 28  2  0
 28 29  1  0
 30 29  2  0
 31 30  1  0
 32 21  1  0
 32 34  1  0
 33 32  2  0
M  END
$$$$
