FNW.pdb
     RDKit          3D

 34 36  0  0  1  0  0  0  0  0999 V2000
   26.8608  -17.0261  -16.9945 N   0  0  0  0  0  0  0  0  0  0  0  0
   27.4895  -17.9746  -16.0760 C   0  0  1  0  0  0  0  0  0  0  0  0
   28.8697  -17.4474  -15.6768 C   0  0  0  0  0  0  0  0  0  0  0  0
   29.8075  -17.4855  -16.8118 C   0  0  0  0  0  0  0  0  0  0  0  0
   30.3985  -16.3348  -17.2834 C   0  0  0  0  0  0  0  0  0  0  0  0
   31.2868  -16.3284  -18.3446 C   0  0  0  0  0  0  0  0  0  0  0  0
   31.5912  -17.5323  -18.9555 C   0  0  0  0  0  0  0  0  0  0  0  0
   31.0197  -18.6883  -18.5087 C   0  0  0  0  0  0  0  0  0  0  0  0
   30.1268  -18.6768  -17.4380 C   0  0  0  0  0  0  0  0  0  0  0  0
   26.6809  -18.1332  -14.8415 C   0  0  0  0  0  0  0  0  0  0  0  0
   26.5038  -17.0912  -14.1467 O   0  0  0  0  0  0  0  0  0  0  0  0
   22.9129  -19.1894  -15.9059 N   0  0  0  0  0  0  0  0  0  0  0  0
   23.1200  -18.8622  -14.5125 C   0  0  0  0  0  0  0  0  0  0  0  0
   22.6222  -17.8063  -14.0879 O   0  0  0  0  0  0  0  0  0  0  0  0
   23.8935  -19.7928  -13.7200 C   0  0  0  0  0  0  0  0  0  0  0  0
   25.2528  -19.3616  -13.2343 C   0  0  2  0  0  0  0  0  0  0  0  0
   26.1282  -19.3728  -14.4435 N   0  0  0  0  0  0  0  0  0  0  0  0
   25.9089  -20.3280  -12.3197 C   0  0  0  0  0  0  0  0  0  0  0  0
   26.3660  -21.4228  -12.8325 O   0  0  0  0  0  0  0  0  0  0  0  0
   26.1079  -20.2044  -10.9403 N   0  0  0  0  0  0  0  0  0  0  0  0
   26.5815  -21.3120  -10.1628 C   0  0  1  0  0  0  0  0  0  0  0  0
   27.8551  -20.9854   -9.4145 C   0  0  0  0  0  0  0  0  0  0  0  0
   27.4959  -20.6088   -8.0290 C   0  0  0  0  0  0  0  0  0  0  0  0
   26.2608  -20.6998   -7.3851 C   0  0  0  0  0  0  0  0  0  0  0  0
   26.3889  -20.2367   -6.1180 N   0  0  0  0  0  0  0  0  0  0  0  0
   27.6482  -19.8462   -5.8997 C   0  0  0  0  0  0  0  0  0  0  0  0
   28.2658  -19.3146   -4.7975 C   0  0  0  0  0  0  0  0  0  0  0  0
   29.6227  -18.9806   -4.8220 C   0  0  0  0  0  0  0  0  0  0  0  0
   30.3217  -19.2014   -5.9888 C   0  0  0  0  0  0  0  0  0  0  0  0
   29.6852  -19.7366   -7.0885 C   0  0  0  0  0  0  0  0  0  0  0  0
   28.3460  -20.0667   -7.0636 C   0  0  0  0  0  0  0  0  0  0  0  0
   25.5489  -21.6963   -9.1786 C   0  0  0  0  0  0  0  0  0  0  0  0
   24.5539  -20.9094   -9.0319 O   0  0  0  0  0  0  0  0  0  0  0  0
   25.5799  -22.8467   -8.4051 O   0  0  0  0  0  0  0  0  0  0  0  0
  2  1  1  6
  3  2  1  0
  4  5  2  0
  4  3  1  0
  6  5  1  0
  7  6  2  0
  8  7  1  0
  8  9  2  0
  9  4  1  0
 10  2  1  0
 11 10  2  0
 13 14  2  0
 13 12  1  0
 15 13  1  0
 16 17  1  0
 16 15  1  6
 17 10  1  0
 18 16  1  0
 19 18  2  0
 20 18  1  0
 21 20  1  0
 21 22  1  1
 23 22  1  0
 23 31  1  0
 24 25  1  0
 24 23  2  0
 25 26  1  0
 26 31  2  0
 26 27  1  0
 27 28  2  0
 28 29  1  0
 30 29  2  0
 31 30  1  0
 32 21  1  0
 32 34  1  0
 33 32  2  0
M  END
$$$$
