FNW.pdb
     RDKit          3D

 34 36  0  0  1  0  0  0  0  0999 V2000
   25.6288  -18.0476  -17.8424 N   0  0  0  0  0  0  0  0  0  0  0  0
   25.5618  -17.4854  -16.4940 C   0  0  1  0  0  0  0  0  0  0  0  0
   26.3399  -16.1679  -16.4600 C   0  0  0  0  0  0  0  0  0  0  0  0
   27.7247  -16.3507  -16.9272 C   0  0  0  0  0  0  0  0  0  0  0  0
   28.2447  -15.5647  -17.9311 C   0  0  0  0  0  0  0  0  0  0  0  0
   29.5409  -15.7023  -18.3961 C   0  0  0  0  0  0  0  0  0  0  0  0
   30.3456  -16.6728  -17.8252 C   0  0  0  0  0  0  0  0  0  0  0  0
   29.8558  -17.4659  -16.8284 C   0  0  0  0  0  0  0  0  0  0  0  0
   28.5474  -17.3138  -16.3717 C   0  0  0  0  0  0  0  0  0  0  0  0
   24.1573  -17.2023  -16.1064 C   0  0  0  0  0  0  0  0  0  0  0  0
   23.9902  -16.4121  -15.1330 O   0  0  0  0  0  0  0  0  0  0  0  0
   21.6791  -15.0628  -17.7248 N   0  0  0  0  0  0  0  0  0  0  0  0
   20.7771  -16.1049  -18.1629 C   0  0  0  0  0  0  0  0  0  0  0  0
   20.0487  -15.8641  -19.1397 O   0  0  0  0  0  0  0  0  0  0  0  0
   20.7936  -17.3499  -17.4264 C   0  0  0  0  0  0  0  0  0  0  0  0
   21.6974  -17.4592  -16.2261 C   0  0  2  0  0  0  0  0  0  0  0  0
   23.0496  -17.7738  -16.7749 N   0  0  0  0  0  0  0  0  0  0  0  0
   21.4019  -18.6141  -15.3430 C   0  0  0  0  0  0  0  0  0  0  0  0
   21.6288  -19.7982  -15.8089 O   0  0  0  0  0  0  0  0  0  0  0  0
   20.9023  -18.5892  -14.0364 N   0  0  0  0  0  0  0  0  0  0  0  0
   20.5848  -19.8053  -13.3464 C   0  0  1  0  0  0  0  0  0  0  0  0
   20.4816  -19.6064  -11.8503 C   0  0  0  0  0  0  0  0  0  0  0  0
   20.1402  -20.9068  -11.2315 C   0  0  0  0  0  0  0  0  0  0  0  0
   20.9605  -22.0116  -10.9973 C   0  0  0  0  0  0  0  0  0  0  0  0
   20.2270  -22.9893  -10.4122 N   0  0  0  0  0  0  0  0  0  0  0  0
   18.9651  -22.5794  -10.2515 C   0  0  0  0  0  0  0  0  0  0  0  0
   17.8617  -23.1941   -9.7193 C   0  0  0  0  0  0  0  0  0  0  0  0
   16.6275  -22.5405   -9.6659 C   0  0  0  0  0  0  0  0  0  0  0  0
   16.5529  -21.2584  -10.1655 C   0  0  0  0  0  0  0  0  0  0  0  0
   17.6724  -20.6548  -10.6978 C   0  0  0  0  0  0  0  0  0  0  0  0
   18.8905  -21.3001  -10.7496 C   0  0  0  0  0  0  0  0  0  0  0  0
   19.2913  -20.3233  -13.8374 C   0  0  0  0  0  0  0  0  0  0  0  0
   19.2368  -21.5568  -14.1634 O   0  0  0  0  0  0  0  0  0  0  0  0
   18.1341  -19.5706  -13.9686 O   0  0  0  0  0  0  0  0  0  0  0  0
  2  1  1  6
  3  2  1  0
  4  5  2  0
  4  3  1  0
  6  5  1  0
  7  6  2  0
  8  7  1  0
  8  9  2  0
  9  4  1  0
 10  2  1  0
 11 10  2  0
 13 14  2  0
 13 12  1  0
 15 13  1  0
 16 17  1  0
 16 15  1  6
 17 10  1  0
 18 16  1  0
 19 18  2  0
 20 18  1  0
 21 20  1  0
 21 22  1  1
 23 22  1  0
 23 31  1  0
 24 25  1  0
 24 23  2  0
 25 26  1  0
 26 31  2  0
 26 27  1  0
 27 28  2  0
 28 29  1  0
 30 29  2  0
 31 30  1  0
 32 21  1  0
 32 34  1  0
 33 32  2  0
M  END
$$$$
