FNW.pdb
     RDKit          3D

 34 36  0  0  1  0  0  0  0  0999 V2000
   15.9479  -15.4250    6.1700 N   0  0  0  0  0  0  0  0  0  0  0  0
   17.0904  -16.3230    6.0057 C   0  0  1  0  0  0  0  0  0  0  0  0
   18.3790  -15.4974    5.9848 C   0  0  0  0  0  0  0  0  0  0  0  0
   18.4881  -14.7046    4.7483 C   0  0  0  0  0  0  0  0  0  0  0  0
   18.4030  -15.3033    3.5113 C   0  0  0  0  0  0  0  0  0  0  0  0
   18.4973  -14.5940    2.3267 C   0  0  0  0  0  0  0  0  0  0  0  0
   18.6853  -13.2245    2.3925 C   0  0  0  0  0  0  0  0  0  0  0  0
   18.7732  -12.6051    3.6055 C   0  0  0  0  0  0  0  0  0  0  0  0
   18.6760  -13.3349    4.7895 C   0  0  0  0  0  0  0  0  0  0  0  0
   17.1762  -17.2843    7.1334 C   0  0  0  0  0  0  0  0  0  0  0  0
   16.7126  -16.8930    8.2432 O   0  0  0  0  0  0  0  0  0  0  0  0
   14.8472  -20.4071    7.9678 N   0  0  0  0  0  0  0  0  0  0  0  0
   15.9501  -20.9055    7.1760 C   0  0  0  0  0  0  0  0  0  0  0  0
   15.6874  -21.3970    6.0659 O   0  0  0  0  0  0  0  0  0  0  0  0
   17.2770  -20.7929    7.7411 C   0  0  0  0  0  0  0  0  0  0  0  0
   17.7408  -19.4397    8.2135 C   0  0  2  0  0  0  0  0  0  0  0  0
   17.7416  -18.5736    6.9976 N   0  0  0  0  0  0  0  0  0  0  0  0
   19.1524  -19.4032    8.6685 C   0  0  0  0  0  0  0  0  0  0  0  0
   20.0692  -19.6807    7.8008 O   0  0  0  0  0  0  0  0  0  0  0  0
   19.6346  -19.0945    9.9452 N   0  0  0  0  0  0  0  0  0  0  0  0
   21.0370  -19.1550   10.2370 C   0  0  1  0  0  0  0  0  0  0  0  0
   21.5427  -17.8878   10.8906 C   0  0  0  0  0  0  0  0  0  0  0  0
   22.7728  -17.4615   10.1867 C   0  0  0  0  0  0  0  0  0  0  0  0
   23.0638  -17.5011    8.8221 C   0  0  0  0  0  0  0  0  0  0  0  0
   24.3122  -17.0131    8.6230 N   0  0  0  0  0  0  0  0  0  0  0  0
   24.8544  -16.6555    9.7911 C   0  0  0  0  0  0  0  0  0  0  0  0
   26.0752  -16.1204   10.1102 C   0  0  0  0  0  0  0  0  0  0  0  0
   26.4114  -15.8304   11.4354 C   0  0  0  0  0  0  0  0  0  0  0  0
   25.4780  -16.0994   12.4127 C   0  0  0  0  0  0  0  0  0  0  0  0
   24.2548  -16.6382   12.0746 C   0  0  0  0  0  0  0  0  0  0  0  0
   23.9232  -16.9236   10.7664 C   0  0  0  0  0  0  0  0  0  0  0  0
   21.2985  -20.2863   11.1505 C   0  0  0  0  0  0  0  0  0  0  0  0
   20.4916  -20.4537   12.1260 O   0  0  0  0  0  0  0  0  0  0  0  0
   22.3527  -21.1785   11.0260 O   0  0  0  0  0  0  0  0  0  0  0  0
  2  1  1  1
  3  2  1  0
  4  5  2  0
  4  3  1  0
  6  5  1  0
  7  6  2  0
  8  7  1  0
  8  9  2  0
  9  4  1  0
 10  2  1  0
 11 10  2  0
 13 14  2  0
 13 12  1  0
 15 13  1  0
 16 17  1  0
 16 15  1  6
 17 10  1  0
 18 16  1  0
 19 18  2  0
 20 18  1  0
 21 20  1  0
 21 22  1  1
 23 22  1  0
 23 31  1  0
 24 25  1  0
 24 23  2  0
 25 26  1  0
 26 31  2  0
 26 27  1  0
 27 28  2  0
 28 29  1  0
 30 29  2  0
 31 30  1  0
 32 21  1  0
 32 34  1  0
 33 32  2  0
M  END
$$$$
