FNW.pdb
     RDKit          3D

 34 36  0  0  1  0  0  0  0  0999 V2000
   16.6632  -13.5978    7.4521 N   0  0  0  0  0  0  0  0  0  0  0  0
   16.6214  -14.7095    6.5028 C   0  0  1  0  0  0  0  0  0  0  0  0
   18.0135  -14.9057    5.8978 C   0  0  0  0  0  0  0  0  0  0  0  0
   18.3661  -13.7984    4.9929 C   0  0  0  0  0  0  0  0  0  0  0  0
   19.2448  -12.8135    5.3851 C   0  0  0  0  0  0  0  0  0  0  0  0
   19.6043  -11.7588    4.5643 C   0  0  0  0  0  0  0  0  0  0  0  0
   19.0546  -11.6948    3.2958 C   0  0  0  0  0  0  0  0  0  0  0  0
   18.1808  -12.6577    2.8812 C   0  0  0  0  0  0  0  0  0  0  0  0
   17.8295  -13.7137    3.7209 C   0  0  0  0  0  0  0  0  0  0  0  0
   16.2302  -15.9710    7.1799 C   0  0  0  0  0  0  0  0  0  0  0  0
   16.6296  -16.1181    8.3709 O   0  0  0  0  0  0  0  0  0  0  0  0
   12.7323  -17.3087    8.6023 N   0  0  0  0  0  0  0  0  0  0  0  0
   12.5853  -18.1545    7.4383 C   0  0  0  0  0  0  0  0  0  0  0  0
   11.4332  -18.3898    7.0382 O   0  0  0  0  0  0  0  0  0  0  0  0
   13.7955  -18.6621    6.8297 C   0  0  0  0  0  0  0  0  0  0  0  0
   15.1201  -18.1772    7.3585 C   0  0  2  0  0  0  0  0  0  0  0  0
   15.4530  -16.9691    6.5471 N   0  0  0  0  0  0  0  0  0  0  0  0
   16.2549  -19.0964    7.0972 C   0  0  0  0  0  0  0  0  0  0  0  0
   17.1499  -18.7167    6.2456 O   0  0  0  0  0  0  0  0  0  0  0  0
   16.4926  -20.3504    7.6705 N   0  0  0  0  0  0  0  0  0  0  0  0
   17.8230  -20.8768    7.7638 C   0  0  1  0  0  0  0  0  0  0  0  0
   18.8316  -19.8214    8.1605 C   0  0  0  0  0  0  0  0  0  0  0  0
   20.1569  -20.4686    8.2833 C   0  0  0  0  0  0  0  0  0  0  0  0
   20.9025  -21.1371    7.3109 C   0  0  0  0  0  0  0  0  0  0  0  0
   22.0582  -21.5761    7.8660 N   0  0  0  0  0  0  0  0  0  0  0  0
   22.1067  -21.2280    9.1554 C   0  0  0  0  0  0  0  0  0  0  0  0
   23.0499  -21.4379   10.1275 C   0  0  0  0  0  0  0  0  0  0  0  0
   22.8618  -20.9652   11.4292 C   0  0  0  0  0  0  0  0  0  0  0  0
   21.6979  -20.2816   11.7066 C   0  0  0  0  0  0  0  0  0  0  0  0
   20.7591  -20.0795   10.7173 C   0  0  0  0  0  0  0  0  0  0  0  0
   20.9457  -20.5457    9.4325 C   0  0  0  0  0  0  0  0  0  0  0  0
   17.8536  -21.9534    8.7752 C   0  0  0  0  0  0  0  0  0  0  0  0
   17.3037  -21.7169    9.9032 O   0  0  0  0  0  0  0  0  0  0  0  0
   18.4330  -23.1994    8.5896 O   0  0  0  0  0  0  0  0  0  0  0  0
  2  1  1  1
  3  2  1  0
  4  5  2  0
  4  3  1  0
  6  5  1  0
  7  6  2  0
  8  7  1  0
  8  9  2  0
  9  4  1  0
 10  2  1  0
 11 10  2  0
 13 14  2  0
 13 12  1  0
 15 13  1  0
 16 17  1  0
 16 15  1  6
 17 10  1  0
 18 16  1  0
 19 18  2  0
 20 18  1  0
 21 20  1  0
 21 22  1  1
 23 22  1  0
 23 31  1  0
 24 25  1  0
 24 23  2  0
 25 26  1  0
 26 31  2  0
 26 27  1  0
 27 28  2  0
 28 29  1  0
 30 29  2  0
 31 30  1  0
 32 21  1  0
 32 34  1  0
 33 32  2  0
M  END
$$$$
