FNW.pdb
     RDKit          3D

 34 36  0  0  1  0  0  0  0  0999 V2000
   26.7556  -16.5264  -18.3587 N   0  0  0  0  0  0  0  0  0  0  0  0
   27.3359  -17.4201  -17.3570 C   0  0  1  0  0  0  0  0  0  0  0  0
   27.3066  -16.7299  -15.9913 C   0  0  0  0  0  0  0  0  0  0  0  0
   28.1681  -15.5354  -15.9753 C   0  0  0  0  0  0  0  0  0  0  0  0
   29.4127  -15.5499  -16.5642 C   0  0  0  0  0  0  0  0  0  0  0  0
   30.2508  -14.4486  -16.5737 C   0  0  0  0  0  0  0  0  0  0  0  0
   29.8157  -13.2849  -15.9639 C   0  0  0  0  0  0  0  0  0  0  0  0
   28.5865  -13.2427  -15.3724 C   0  0  0  0  0  0  0  0  0  0  0  0
   27.7546  -14.3615  -15.3721 C   0  0  0  0  0  0  0  0  0  0  0  0
   26.5571  -18.6794  -17.2548 C   0  0  0  0  0  0  0  0  0  0  0  0
   25.3726  -18.6464  -17.6971 O   0  0  0  0  0  0  0  0  0  0  0  0
   29.5424  -22.6596  -17.1124 N   0  0  0  0  0  0  0  0  0  0  0  0
   28.1790  -22.4969  -17.5667 C   0  0  0  0  0  0  0  0  0  0  0  0
   27.9635  -22.5826  -18.7869 O   0  0  0  0  0  0  0  0  0  0  0  0
   27.1698  -22.2457  -16.5611 C   0  0  0  0  0  0  0  0  0  0  0  0
   26.2318  -21.0845  -16.7633 C   0  0  2  0  0  0  0  0  0  0  0  0
   27.0900  -19.8648  -16.6966 N   0  0  0  0  0  0  0  0  0  0  0  0
   25.2587  -20.8870  -15.6610 C   0  0  0  0  0  0  0  0  0  0  0  0
   25.7229  -20.5310  -14.5085 O   0  0  0  0  0  0  0  0  0  0  0  0
   23.8680  -21.0339  -15.7076 N   0  0  0  0  0  0  0  0  0  0  0  0
   23.0549  -20.7074  -14.5729 C   0  0  1  0  0  0  0  0  0  0  0  0
   22.9739  -19.2157  -14.3346 C   0  0  0  0  0  0  0  0  0  0  0  0
   21.5955  -18.7711  -14.6388 C   0  0  0  0  0  0  0  0  0  0  0  0
   20.4614  -18.8036  -13.8257 C   0  0  0  0  0  0  0  0  0  0  0  0
   19.4098  -18.2983  -14.5152 N   0  0  0  0  0  0  0  0  0  0  0  0
   19.7993  -17.9361  -15.7413 C   0  0  0  0  0  0  0  0  0  0  0  0
   19.1175  -17.3852  -16.7950 C   0  0  0  0  0  0  0  0  0  0  0  0
   19.7642  -17.0937  -17.9992 C   0  0  0  0  0  0  0  0  0  0  0  0
   21.1091  -17.3777  -18.0958 C   0  0  0  0  0  0  0  0  0  0  0  0
   21.7799  -17.9322  -17.0264 C   0  0  0  0  0  0  0  0  0  0  0  0
   21.1412  -18.2190  -15.8378 C   0  0  0  0  0  0  0  0  0  0  0  0
   21.6858  -21.2194  -14.7881 C   0  0  0  0  0  0  0  0  0  0  0  0
   21.3504  -21.5180  -15.9836 O   0  0  0  0  0  0  0  0  0  0  0  0
   20.7409  -21.4003  -13.7896 O   0  0  0  0  0  0  0  0  0  0  0  0
  2  1  1  6
  3  2  1  0
  4  5  2  0
  4  3  1  0
  6  5  1  0
  7  6  2  0
  8  7  1  0
  8  9  2  0
  9  4  1  0
 10  2  1  0
 11 10  2  0
 13 14  2  0
 13 12  1  0
 15 13  1  0
 16 17  1  0
 16 15  1  1
 17 10  1  0
 18 16  1  0
 19 18  2  0
 20 18  1  0
 21 20  1  0
 21 22  1  6
 23 22  1  0
 23 31  1  0
 24 25  1  0
 24 23  2  0
 25 26  1  0
 26 31  2  0
 26 27  1  0
 27 28  2  0
 28 29  1  0
 30 29  2  0
 31 30  1  0
 32 21  1  0
 32 34  1  0
 33 32  2  0
M  END
$$$$
