FNW.pdb
     RDKit          3D

 34 36  0  0  1  0  0  0  0  0999 V2000
   27.3027  -18.6803  -18.3465 N   0  0  0  0  0  0  0  0  0  0  0  0
   27.6035  -19.2801  -17.0470 C   0  0  1  0  0  0  0  0  0  0  0  0
   27.8224  -18.1675  -16.0191 C   0  0  0  0  0  0  0  0  0  0  0  0
   28.9136  -17.2667  -16.4278 C   0  0  0  0  0  0  0  0  0  0  0  0
   30.2102  -17.7201  -16.5240 C   0  0  0  0  0  0  0  0  0  0  0  0
   31.2626  -16.9072  -16.9073 C   0  0  0  0  0  0  0  0  0  0  0  0
   30.9962  -15.5823  -17.2056 C   0  0  0  0  0  0  0  0  0  0  0  0
   29.7201  -15.1062  -17.1186 C   0  0  0  0  0  0  0  0  0  0  0  0
   28.6714  -15.9390  -16.7309 C   0  0  0  0  0  0  0  0  0  0  0  0
   26.4768  -20.1257  -16.5794 C   0  0  0  0  0  0  0  0  0  0  0  0
   25.3242  -19.6075  -16.6323 O   0  0  0  0  0  0  0  0  0  0  0  0
   24.6544  -22.2501  -18.5118 N   0  0  0  0  0  0  0  0  0  0  0  0
   25.1941  -23.4823  -17.9808 C   0  0  0  0  0  0  0  0  0  0  0  0
   25.3148  -24.4421  -18.7600 O   0  0  0  0  0  0  0  0  0  0  0  0
   25.5517  -23.5008  -16.5792 C   0  0  0  0  0  0  0  0  0  0  0  0
   25.4232  -22.2233  -15.7912 C   0  0  2  0  0  0  0  0  0  0  0  0
   26.6584  -21.4427  -16.0966 N   0  0  0  0  0  0  0  0  0  0  0  0
   25.4805  -22.4055  -14.3200 C   0  0  0  0  0  0  0  0  0  0  0  0
   26.2804  -23.3100  -13.8589 O   0  0  0  0  0  0  0  0  0  0  0  0
   24.7682  -21.7051  -13.3404 N   0  0  0  0  0  0  0  0  0  0  0  0
   24.8037  -22.1181  -11.9679 C   0  0  1  0  0  0  0  0  0  0  0  0
   26.1772  -21.9559  -11.3548 C   0  0  0  0  0  0  0  0  0  0  0  0
   26.1967  -20.6902  -10.5879 C   0  0  0  0  0  0  0  0  0  0  0  0
   25.6396  -19.4536  -10.9175 C   0  0  0  0  0  0  0  0  0  0  0  0
   25.9043  -18.5716   -9.9233 N   0  0  0  0  0  0  0  0  0  0  0  0
   26.6083  -19.1699   -8.9576 C   0  0  0  0  0  0  0  0  0  0  0  0
   27.1095  -18.7091   -7.7680 C   0  0  0  0  0  0  0  0  0  0  0  0
   27.8292  -19.5498   -6.9145 C   0  0  0  0  0  0  0  0  0  0  0  0
   28.0206  -20.8572   -7.3055 C   0  0  0  0  0  0  0  0  0  0  0  0
   27.5101  -21.3046   -8.5056 C   0  0  0  0  0  0  0  0  0  0  0  0
   26.7992  -20.4744   -9.3473 C   0  0  0  0  0  0  0  0  0  0  0  0
   23.8469  -21.3067  -11.1876 C   0  0  0  0  0  0  0  0  0  0  0  0
   23.3455  -20.2793  -11.7566 O   0  0  0  0  0  0  0  0  0  0  0  0
   23.4532  -21.5789   -9.8862 O   0  0  0  0  0  0  0  0  0  0  0  0
  2  1  1  6
  3  2  1  0
  4  5  2  0
  4  3  1  0
  6  5  1  0
  7  6  2  0
  8  7  1  0
  8  9  2  0
  9  4  1  0
 10  2  1  0
 11 10  2  0
 13 14  2  0
 13 12  1  0
 15 13  1  0
 16 17  1  0
 16 15  1  6
 17 10  1  0
 18 16  1  0
 19 18  2  0
 20 18  1  0
 21 20  1  0
 21 22  1  1
 23 22  1  0
 23 31  1  0
 24 25  1  0
 24 23  2  0
 25 26  1  0
 26 31  2  0
 26 27  1  0
 27 28  2  0
 28 29  1  0
 30 29  2  0
 31 30  1  0
 32 21  1  0
 32 34  1  0
 33 32  2  0
M  END
$$$$
