FNW.pdb
     RDKit          3D

 34 36  0  0  1  0  0  0  0  0999 V2000
   29.4448  -19.8172  -14.4869 N   0  0  0  0  0  0  0  0  0  0  0  0
   28.5954  -20.9395  -14.0897 C   0  0  1  0  0  0  0  0  0  0  0  0
   28.2191  -20.7867  -12.6141 C   0  0  0  0  0  0  0  0  0  0  0  0
   29.3080  -21.2416  -11.7329 C   0  0  0  0  0  0  0  0  0  0  0  0
   30.4036  -21.9027  -12.2415 C   0  0  0  0  0  0  0  0  0  0  0  0
   31.4486  -22.3433  -11.4483 C   0  0  0  0  0  0  0  0  0  0  0  0
   31.3859  -22.1074  -10.0861 C   0  0  0  0  0  0  0  0  0  0  0  0
   30.3116  -21.4544   -9.5551 C   0  0  0  0  0  0  0  0  0  0  0  0
   29.2672  -21.0171  -10.3687 C   0  0  0  0  0  0  0  0  0  0  0  0
   27.3428  -20.9644  -14.8855 C   0  0  0  0  0  0  0  0  0  0  0  0
   26.9689  -19.8627  -15.3818 O   0  0  0  0  0  0  0  0  0  0  0  0
   25.3277  -25.5410  -15.5547 N   0  0  0  0  0  0  0  0  0  0  0  0
   25.9843  -24.4307  -16.2086 C   0  0  0  0  0  0  0  0  0  0  0  0
   27.2107  -24.5107  -16.3885 O   0  0  0  0  0  0  0  0  0  0  0  0
   25.1588  -23.3100  -16.6026 C   0  0  0  0  0  0  0  0  0  0  0  0
   25.3212  -22.0072  -15.8640 C   0  0  2  0  0  0  0  0  0  0  0  0
   26.5910  -22.1447  -15.0912 N   0  0  0  0  0  0  0  0  0  0  0  0
   24.2990  -21.7686  -14.8156 C   0  0  0  0  0  0  0  0  0  0  0  0
   23.3831  -22.6665  -14.6562 O   0  0  0  0  0  0  0  0  0  0  0  0
   24.1965  -20.6736  -13.9507 N   0  0  0  0  0  0  0  0  0  0  0  0
   23.2057  -20.6438  -12.9149 C   0  0  1  0  0  0  0  0  0  0  0  0
   23.6896  -19.9197  -11.6779 C   0  0  0  0  0  0  0  0  0  0  0  0
   24.8575  -20.6517  -11.1386 C   0  0  0  0  0  0  0  0  0  0  0  0
   25.3377  -21.9165  -11.4818 C   0  0  0  0  0  0  0  0  0  0  0  0
   26.4310  -22.1920  -10.7301 N   0  0  0  0  0  0  0  0  0  0  0  0
   26.6911  -21.1691   -9.9102 C   0  0  0  0  0  0  0  0  0  0  0  0
   27.6709  -20.9714   -8.9724 C   0  0  0  0  0  0  0  0  0  0  0  0
   27.7281  -19.7905   -8.2271 C   0  0  0  0  0  0  0  0  0  0  0  0
   26.7685  -18.8302   -8.4630 C   0  0  0  0  0  0  0  0  0  0  0  0
   25.7895  -19.0452   -9.4098 C   0  0  0  0  0  0  0  0  0  0  0  0
   25.7340  -20.2107  -10.1457 C   0  0  0  0  0  0  0  0  0  0  0  0
   21.9967  -19.9565  -13.4136 C   0  0  0  0  0  0  0  0  0  0  0  0
   20.9999  -19.8691  -12.6202 O   0  0  0  0  0  0  0  0  0  0  0  0
   21.8656  -19.3992  -14.6765 O   0  0  0  0  0  0  0  0  0  0  0  0
  2  1  1  6
  3  2  1  0
  4  5  2  0
  4  3  1  0
  6  5  1  0
  7  6  2  0
  8  7  1  0
  8  9  2  0
  9  4  1  0
 10  2  1  0
 11 10  2  0
 13 14  2  0
 13 12  1  0
 15 13  1  0
 16 17  1  0
 16 15  1  1
 17 10  1  0
 18 16  1  0
 19 18  2  0
 20 18  1  0
 21 20  1  0
 21 22  1  1
 23 22  1  0
 23 31  1  0
 24 25  1  0
 24 23  2  0
 25 26  1  0
 26 31  2  0
 26 27  1  0
 27 28  2  0
 28 29  1  0
 30 29  2  0
 31 30  1  0
 32 21  1  0
 32 34  1  0
 33 32  2  0
M  END
$$$$
