FNW.pdb
     RDKit          3D

 34 36  0  0  1  0  0  0  0  0999 V2000
   25.5909  -18.0891  -17.7210 N   0  0  0  0  0  0  0  0  0  0  0  0
   26.1065  -18.7815  -16.5406 C   0  0  1  0  0  0  0  0  0  0  0  0
   26.4507  -17.7498  -15.4637 C   0  0  0  0  0  0  0  0  0  0  0  0
   27.6080  -16.9287  -15.8579 C   0  0  0  0  0  0  0  0  0  0  0  0
   27.5001  -15.5613  -15.9789 C   0  0  0  0  0  0  0  0  0  0  0  0
   28.5636  -14.7543  -16.3435 C   0  0  0  0  0  0  0  0  0  0  0  0
   29.7863  -15.3512  -16.5968 C   0  0  0  0  0  0  0  0  0  0  0  0
   29.9216  -16.7046  -16.4845 C   0  0  0  0  0  0  0  0  0  0  0  0
   28.8396  -17.5029  -16.1159 C   0  0  0  0  0  0  0  0  0  0  0  0
   25.0905  -19.7091  -15.9835 C   0  0  0  0  0  0  0  0  0  0  0  0
   23.8817  -19.4417  -16.2427 O   0  0  0  0  0  0  0  0  0  0  0  0
   24.4898  -24.7061  -12.7316 N   0  0  0  0  0  0  0  0  0  0  0  0
   24.0730  -24.1114  -13.9823 C   0  0  0  0  0  0  0  0  0  0  0  0
   23.0273  -24.5347  -14.5020 O   0  0  0  0  0  0  0  0  0  0  0  0
   24.9097  -23.0673  -14.5321 C   0  0  0  0  0  0  0  0  0  0  0  0
   24.3061  -21.7032  -14.7427 C   0  0  2  0  0  0  0  0  0  0  0  0
   25.4321  -20.8375  -15.2022 N   0  0  0  0  0  0  0  0  0  0  0  0
   23.8433  -21.0420  -13.4979 C   0  0  0  0  0  0  0  0  0  0  0  0
   24.7443  -20.6171  -12.6744 O   0  0  0  0  0  0  0  0  0  0  0  0
   22.5257  -20.8069  -13.0901 N   0  0  0  0  0  0  0  0  0  0  0  0
   22.2379  -20.3310  -11.7687 C   0  0  1  0  0  0  0  0  0  0  0  0
   21.7964  -18.8841  -11.7629 C   0  0  0  0  0  0  0  0  0  0  0  0
   20.6086  -18.7576  -12.6368 C   0  0  0  0  0  0  0  0  0  0  0  0
   19.2605  -18.9310  -12.3188 C   0  0  0  0  0  0  0  0  0  0  0  0
   18.5147  -18.7202  -13.4305 N   0  0  0  0  0  0  0  0  0  0  0  0
   19.3083  -18.4173  -14.4622 C   0  0  0  0  0  0  0  0  0  0  0  0
   19.0369  -18.1263  -15.7739 C   0  0  0  0  0  0  0  0  0  0  0  0
   20.0645  -17.8387  -16.6764 C   0  0  0  0  0  0  0  0  0  0  0  0
   21.3602  -17.8570  -16.2078 C   0  0  0  0  0  0  0  0  0  0  0  0
   21.6159  -18.1521  -14.8855 C   0  0  0  0  0  0  0  0  0  0  0  0
   20.6012  -18.4352  -13.9949 C   0  0  0  0  0  0  0  0  0  0  0  0
   21.1588  -21.1492  -11.1779 C   0  0  0  0  0  0  0  0  0  0  0  0
   20.4838  -21.8918  -11.9676 O   0  0  0  0  0  0  0  0  0  0  0  0
   20.8269  -21.1712   -9.8318 O   0  0  0  0  0  0  0  0  0  0  0  0
  2  1  1  6
  3  2  1  0
  4  5  2  0
  4  3  1  0
  6  5  1  0
  7  6  2  0
  8  7  1  0
  8  9  2  0
  9  4  1  0
 10  2  1  0
 11 10  2  0
 13 14  2  0
 13 12  1  0
 15 13  1  0
 16 17  1  0
 16 15  1  1
 17 10  1  0
 18 16  1  0
 19 18  2  0
 20 18  1  0
 21 20  1  0
 21 22  1  6
 23 22  1  0
 23 31  1  0
 24 25  1  0
 24 23  2  0
 25 26  1  0
 26 31  2  0
 26 27  1  0
 27 28  2  0
 28 29  1  0
 30 29  2  0
 31 30  1  0
 32 21  1  0
 32 34  1  0
 33 32  2  0
M  END
$$$$
