FNW.pdb
     RDKit          3D

 34 36  0  0  1  0  0  0  0  0999 V2000
   29.8534  -20.6389  -14.4395 N   0  0  0  0  0  0  0  0  0  0  0  0
   29.5585  -20.8732  -13.0264 C   0  0  1  0  0  0  0  0  0  0  0  0
   30.5932  -20.1402  -12.1694 C   0  0  0  0  0  0  0  0  0  0  0  0
   31.2543  -21.0572  -11.2253 C   0  0  0  0  0  0  0  0  0  0  0  0
   30.9368  -21.0470   -9.8855 C   0  0  0  0  0  0  0  0  0  0  0  0
   31.5322  -21.8939   -8.9671 C   0  0  0  0  0  0  0  0  0  0  0  0
   32.4874  -22.7877   -9.4186 C   0  0  0  0  0  0  0  0  0  0  0  0
   32.8215  -22.8193  -10.7415 C   0  0  0  0  0  0  0  0  0  0  0  0
   32.2117  -21.9590  -11.6535 C   0  0  0  0  0  0  0  0  0  0  0  0
   28.2140  -20.3542  -12.6718 C   0  0  0  0  0  0  0  0  0  0  0  0
   27.9570  -19.1676  -13.0264 O   0  0  0  0  0  0  0  0  0  0  0  0
   23.3476  -19.4086  -11.5478 N   0  0  0  0  0  0  0  0  0  0  0  0
   23.6304  -20.3804  -12.5809 C   0  0  0  0  0  0  0  0  0  0  0  0
   22.7012  -20.7029  -13.3393 O   0  0  0  0  0  0  0  0  0  0  0  0
   24.9776  -20.9028  -12.6498 C   0  0  0  0  0  0  0  0  0  0  0  0
   25.9754  -20.4469  -11.6173 C   0  0  2  0  0  0  0  0  0  0  0  0
   27.2555  -21.1266  -11.9752 N   0  0  0  0  0  0  0  0  0  0  0  0
   25.6959  -20.9310  -10.2431 C   0  0  0  0  0  0  0  0  0  0  0  0
   25.8744  -22.1883  -10.0028 O   0  0  0  0  0  0  0  0  0  0  0  0
   25.2583  -20.1851   -9.1432 N   0  0  0  0  0  0  0  0  0  0  0  0
   24.9273  -20.8258   -7.9040 C   0  0  1  0  0  0  0  0  0  0  0  0
   25.1212  -19.9109   -6.7149 C   0  0  0  0  0  0  0  0  0  0  0  0
   26.5362  -19.4777   -6.6883 C   0  0  0  0  0  0  0  0  0  0  0  0
   27.2202  -18.6527   -7.5827 C   0  0  0  0  0  0  0  0  0  0  0  0
   28.5055  -18.5272   -7.1721 N   0  0  0  0  0  0  0  0  0  0  0  0
   28.6977  -19.2302   -6.0518 C   0  0  0  0  0  0  0  0  0  0  0  0
   29.8046  -19.4188   -5.2657 C   0  0  0  0  0  0  0  0  0  0  0  0
   29.7485  -20.2185   -4.1209 C   0  0  0  0  0  0  0  0  0  0  0  0
   28.5458  -20.8129   -3.8061 C   0  0  0  0  0  0  0  0  0  0  0  0
   27.4420  -20.6131   -4.6078 C   0  0  0  0  0  0  0  0  0  0  0  0
   27.4979  -19.8230   -5.7372 C   0  0  0  0  0  0  0  0  0  0  0  0
   23.5136  -21.2536   -7.9365 C   0  0  0  0  0  0  0  0  0  0  0  0
   22.7592  -20.7257   -8.8213 O   0  0  0  0  0  0  0  0  0  0  0  0
   22.9473  -22.1852   -7.0797 O   0  0  0  0  0  0  0  0  0  0  0  0
  2  1  1  6
  3  2  1  0
  4  5  2  0
  4  3  1  0
  6  5  1  0
  7  6  2  0
  8  7  1  0
  8  9  2  0
  9  4  1  0
 10  2  1  0
 11 10  2  0
 13 14  2  0
 13 12  1  0
 15 13  1  0
 16 17  1  0
 16 15  1  6
 17 10  1  0
 18 16  1  0
 19 18  2  0
 20 18  1  0
 21 20  1  0
 21 22  1  1
 23 22  1  0
 23 31  1  0
 24 25  1  0
 24 23  2  0
 25 26  1  0
 26 31  2  0
 26 27  1  0
 27 28  2  0
 28 29  1  0
 30 29  2  0
 31 30  1  0
 32 21  1  0
 32 34  1  0
 33 32  2  0
M  END
$$$$
