WHV.pdb
     RDKit          3D

 32 34  0  0  1  0  0  0  0  0999 V2000
   27.9109  -19.9400  -15.6519 N   0  0  0  0  0  0  0  0  0  0  0  0
   26.6997  -19.2260  -15.4162 C   0  0  1  0  0  0  0  0  0  0  0  0
   26.2139  -18.5674  -16.6508 C   0  0  0  0  0  0  0  0  0  0  0  0
   27.0138  -17.4175  -17.1018 C   0  0  0  0  0  0  0  0  0  0  0  0
   27.8074  -17.2375  -18.1919 C   0  0  0  0  0  0  0  0  0  0  0  0
   28.3221  -16.0183  -18.1578 N   0  0  0  0  0  0  0  0  0  0  0  0
   27.8878  -15.3742  -17.0621 C   0  0  0  0  0  0  0  0  0  0  0  0
   28.1330  -14.1053  -16.5832 C   0  0  0  0  0  0  0  0  0  0  0  0
   27.5317  -13.7256  -15.4104 C   0  0  0  0  0  0  0  0  0  0  0  0
   26.6975  -14.5652  -14.7017 C   0  0  0  0  0  0  0  0  0  0  0  0
   26.4542  -15.8300  -15.1810 C   0  0  0  0  0  0  0  0  0  0  0  0
   27.0586  -16.2281  -16.3710 C   0  0  0  0  0  0  0  0  0  0  0  0
   25.6810  -20.0409  -14.7111 C   0  0  0  0  0  0  0  0  0  0  0  0
   25.6539  -21.2763  -14.9679 O   0  0  0  0  0  0  0  0  0  0  0  0
   24.7645  -19.4870  -13.7851 N   0  0  0  0  0  0  0  0  0  0  0  0
   23.8230  -20.3416  -13.1225 C   0  0  1  0  0  0  0  0  0  0  0  0
   23.8308  -20.1199  -11.6107 C   0  0  0  0  0  0  0  0  0  0  0  0
   25.0651  -20.6528  -10.9864 C   0  0  0  0  0  0  0  0  0  0  0  0
   26.0736  -21.3690  -11.5964 C   0  0  0  0  0  0  0  0  0  0  0  0
   27.0238  -21.6746  -10.7001 N   0  0  0  0  0  0  0  0  0  0  0  0
   26.6472  -21.1674   -9.5178 C   0  0  0  0  0  0  0  0  0  0  0  0
   25.4454  -20.5401   -9.6923 N   0  0  0  0  0  0  0  0  0  0  0  0
   22.4315  -20.1265  -13.6197 C   0  0  0  0  0  0  0  0  0  0  0  0
   21.9324  -18.9756  -13.6659 O   0  0  0  0  0  0  0  0  0  0  0  0
   18.8064  -21.7305  -16.5485 C   0  0  0  0  0  0  0  0  0  0  0  0
   20.1399  -21.9010  -15.8974 C   0  0  2  0  0  0  0  0  0  0  0  0
   20.5301  -23.3465  -15.6804 C   0  0  0  0  0  0  0  0  0  0  0  0
   20.3104  -21.0815  -14.6366 C   0  0  2  0  0  0  0  0  0  0  0  0
   21.6281  -21.2161  -14.0558 N   0  0  0  0  0  0  0  0  0  0  0  0
   19.3002  -21.4953  -13.6308 C   0  0  0  0  0  0  0  0  0  0  0  0
   18.1060  -21.1454  -13.7336 O   0  0  0  0  0  0  0  0  0  0  0  0
   19.6870  -22.2950  -12.5409 O   0  0  0  0  0  0  0  0  0  0  0  0
  2  1  1  6
  3  2  1  0
  3  4  1  0
  4  5  2  0
  5  6  1  0
  7  6  1  0
  8  7  2  0
  9  8  1  0
 10 11  1  0
 10  9  2  0
 11 12  2  0
 12  4  1  0
 12  7  1  0
 13  2  1  0
 13 14  2  0
 15 13  1  0
 16 15  1  0
 16 17  1  1
 18 22  1  0
 18 17  1  0
 19 18  2  0
 20 19  1  0
 20 21  1  0
 21 22  2  0
 23 16  1  0
 24 23  2  0
 26 25  1  1
 27 26  1  0
 28 26  1  0
 28 29  1  1
 29 23  1  0
 30 28  1  0
 31 30  2  0
 32 30  1  0
M  END
$$$$
