WHV.pdb
     RDKit          3D

 32 34  0  0  1  0  0  0  0  0999 V2000
   19.6170  -12.7086  -18.6774 N   0  0  0  0  0  0  0  0  0  0  0  0
   19.8990  -12.1557  -17.3939 C   0  0  1  0  0  0  0  0  0  0  0  0
   21.1889  -12.6548  -16.8642 C   0  0  0  0  0  0  0  0  0  0  0  0
   21.2702  -14.1137  -16.6896 C   0  0  0  0  0  0  0  0  0  0  0  0
   21.9348  -15.0742  -17.3869 C   0  0  0  0  0  0  0  0  0  0  0  0
   21.6923  -16.2548  -16.8392 N   0  0  0  0  0  0  0  0  0  0  0  0
   20.8749  -16.1048  -15.7841 C   0  0  0  0  0  0  0  0  0  0  0  0
   20.3387  -17.0153  -14.8990 C   0  0  0  0  0  0  0  0  0  0  0  0
   19.5198  -16.5487  -13.9027 C   0  0  0  0  0  0  0  0  0  0  0  0
   19.2185  -15.2101  -13.7596 C   0  0  0  0  0  0  0  0  0  0  0  0
   19.7541  -14.3039  -14.6430 C   0  0  0  0  0  0  0  0  0  0  0  0
   20.5875  -14.7645  -15.6595 C   0  0  0  0  0  0  0  0  0  0  0  0
   19.7479  -10.6808  -17.3586 C   0  0  0  0  0  0  0  0  0  0  0  0
   20.2268  -10.0300  -18.3281 O   0  0  0  0  0  0  0  0  0  0  0  0
   19.1005  -10.0029  -16.2978 N   0  0  0  0  0  0  0  0  0  0  0  0
   18.9371   -8.5798  -16.3615 C   0  0  1  0  0  0  0  0  0  0  0  0
   17.4802   -8.1718  -16.1473 C   0  0  0  0  0  0  0  0  0  0  0  0
   16.6288   -8.5615  -17.2965 C   0  0  0  0  0  0  0  0  0  0  0  0
   16.5028   -7.9127  -18.5071 C   0  0  0  0  0  0  0  0  0  0  0  0
   15.6363   -8.5718  -19.2908 N   0  0  0  0  0  0  0  0  0  0  0  0
   15.1983   -9.6384  -18.6072 C   0  0  0  0  0  0  0  0  0  0  0  0
   15.8067   -9.6331  -17.3833 N   0  0  0  0  0  0  0  0  0  0  0  0
   19.7739   -7.8782  -15.3430 C   0  0  0  0  0  0  0  0  0  0  0  0
   19.8366   -8.2944  -14.1603 O   0  0  0  0  0  0  0  0  0  0  0  0
   23.5856   -4.7705  -14.5467 C   0  0  0  0  0  0  0  0  0  0  0  0
   22.6690   -5.5226  -15.4551 C   0  0  2  0  0  0  0  0  0  0  0  0
   22.3475   -4.7885  -16.7382 C   0  0  0  0  0  0  0  0  0  0  0  0
   21.4165   -6.0284  -14.7726 C   0  0  2  0  0  0  0  0  0  0  0  0
   20.5251   -6.7181  -15.6789 N   0  0  0  0  0  0  0  0  0  0  0  0
   20.6873   -4.8906  -14.1586 C   0  0  0  0  0  0  0  0  0  0  0  0
   19.6472   -4.4348  -14.6779 O   0  0  0  0  0  0  0  0  0  0  0  0
   21.1696   -4.3110  -12.9718 O   0  0  0  0  0  0  0  0  0  0  0  0
  2  1  1  6
  3  2  1  0
  3  4  1  0
  4  5  2  0
  5  6  1  0
  7  6  1  0
  8  7  2  0
  9  8  1  0
 10 11  1  0
 10  9  2  0
 11 12  2  0
 12  4  1  0
 12  7  1  0
 13  2  1  0
 13 14  2  0
 15 13  1  0
 16 15  1  0
 16 17  1  1
 18 22  1  0
 18 17  1  0
 19 18  2  0
 20 19  1  0
 20 21  1  0
 21 22  2  0
 23 16  1  0
 24 23  2  0
 26 25  1  1
 27 26  1  0
 28 26  1  0
 28 29  1  6
 29 23  1  0
 30 28  1  0
 31 30  2  0
 32 30  1  0
M  END
$$$$
