WHV.pdb
     RDKit          3D

 32 34  0  0  1  0  0  0  0  0999 V2000
   15.6191  -11.6129  -10.7736 N   0  0  0  0  0  0  0  0  0  0  0  0
   15.2674  -10.2770  -10.4211 C   0  0  1  0  0  0  0  0  0  0  0  0
   14.6708  -10.2168   -9.0668 C   0  0  0  0  0  0  0  0  0  0  0  0
   13.2447  -10.5730   -8.9958 C   0  0  0  0  0  0  0  0  0  0  0  0
   12.5846  -11.7294   -9.2743 C   0  0  0  0  0  0  0  0  0  0  0  0
   11.2908  -11.5544   -9.0555 N   0  0  0  0  0  0  0  0  0  0  0  0
   11.0688  -10.2985   -8.6341 C   0  0  0  0  0  0  0  0  0  0  0  0
    9.9121   -9.6377   -8.2807 C   0  0  0  0  0  0  0  0  0  0  0  0
   10.0069   -8.3286   -7.8829 C   0  0  0  0  0  0  0  0  0  0  0  0
   11.2115   -7.6587   -7.8258 C   0  0  0  0  0  0  0  0  0  0  0  0
   12.3638   -8.3194   -8.1784 C   0  0  0  0  0  0  0  0  0  0  0  0
   12.2814   -9.6492   -8.5843 C   0  0  0  0  0  0  0  0  0  0  0  0
   16.3707   -9.3132  -10.6516 C   0  0  0  0  0  0  0  0  0  0  0  0
   17.4393   -9.4967  -10.0055 O   0  0  0  0  0  0  0  0  0  0  0  0
   16.2609   -8.2245  -11.5498 N   0  0  0  0  0  0  0  0  0  0  0  0
   17.3490   -7.2997  -11.6784 C   0  0  1  0  0  0  0  0  0  0  0  0
   18.1388   -7.5373  -12.9647 C   0  0  0  0  0  0  0  0  0  0  0  0
   19.2736   -6.5922  -13.0919 C   0  0  0  0  0  0  0  0  0  0  0  0
   20.4963   -6.6570  -12.4569 C   0  0  0  0  0  0  0  0  0  0  0  0
   21.2602   -5.6190  -12.8294 N   0  0  0  0  0  0  0  0  0  0  0  0
   20.5518   -4.8819  -13.6964 C   0  0  0  0  0  0  0  0  0  0  0  0
   19.3326   -5.4782  -13.8582 N   0  0  0  0  0  0  0  0  0  0  0  0
   16.8775   -5.8828  -11.6740 C   0  0  0  0  0  0  0  0  0  0  0  0
   15.8842   -5.5302  -12.3558 O   0  0  0  0  0  0  0  0  0  0  0  0
   18.1895   -2.9759   -8.6266 C   0  0  0  0  0  0  0  0  0  0  0  0
   16.9490   -2.9774   -9.4586 C   0  0  2  0  0  0  0  0  0  0  0  0
   15.7694   -3.6486   -8.7902 C   0  0  0  0  0  0  0  0  0  0  0  0
   17.1609   -3.4930  -10.8656 C   0  0  2  0  0  0  0  0  0  0  0  0
   17.5370   -4.8890  -10.8992 N   0  0  0  0  0  0  0  0  0  0  0  0
   18.2191   -2.6966  -11.5360 C   0  0  0  0  0  0  0  0  0  0  0  0
   19.3375   -3.1916  -11.7880 O   0  0  0  0  0  0  0  0  0  0  0  0
   17.9653   -1.3615  -11.8966 O   0  0  0  0  0  0  0  0  0  0  0  0
  2  1  1  1
  3  2  1  0
  3  4  1  0
  4  5  2  0
  5  6  1  0
  7  6  1  0
  8  7  2  0
  9  8  1  0
 10 11  1  0
 10  9  2  0
 11 12  2  0
 12  4  1  0
 12  7  1  0
 13  2  1  0
 13 14  2  0
 15 13  1  0
 16 15  1  0
 16 17  1  6
 18 22  1  0
 18 17  1  0
 19 18  2  0
 20 19  1  0
 20 21  1  0
 21 22  2  0
 23 16  1  0
 24 23  2  0
 26 25  1  1
 27 26  1  0
 28 26  1  0
 28 29  1  1
 29 23  1  0
 30 28  1  0
 31 30  2  0
 32 30  1  0
M  END
$$$$
