WHV.pdb
     RDKit          3D

 32 34  0  0  1  0  0  0  0  0999 V2000
   23.4197  -18.1667  -15.6007 N   0  0  0  0  0  0  0  0  0  0  0  0
   24.6708  -18.5459  -15.0320 C   0  0  1  0  0  0  0  0  0  0  0  0
   25.3210  -17.4029  -14.3504 C   0  0  0  0  0  0  0  0  0  0  0  0
   25.9327  -16.4075  -15.2451 C   0  0  0  0  0  0  0  0  0  0  0  0
   25.6504  -15.0958  -15.4692 C   0  0  0  0  0  0  0  0  0  0  0  0
   26.4878  -14.6204  -16.3776 N   0  0  0  0  0  0  0  0  0  0  0  0
   27.3296  -15.5910  -16.7691 C   0  0  0  0  0  0  0  0  0  0  0  0
   28.3654  -15.5989  -17.6783 C   0  0  0  0  0  0  0  0  0  0  0  0
   29.0569  -16.7684  -17.8659 C   0  0  0  0  0  0  0  0  0  0  0  0
   28.7516  -17.9258  -17.1802 C   0  0  0  0  0  0  0  0  0  0  0  0
   27.7185  -17.9159  -16.2739 C   0  0  0  0  0  0  0  0  0  0  0  0
   27.0082  -16.7346  -16.0740 C   0  0  0  0  0  0  0  0  0  0  0  0
   24.5792  -19.7796  -14.2143 C   0  0  0  0  0  0  0  0  0  0  0  0
   23.4636  -20.0361  -13.6828 O   0  0  0  0  0  0  0  0  0  0  0  0
   25.6771  -20.6518  -14.0190 N   0  0  0  0  0  0  0  0  0  0  0  0
   25.5003  -21.8538  -13.2577 C   0  0  1  0  0  0  0  0  0  0  0  0
   26.1996  -23.0427  -13.9152 C   0  0  0  0  0  0  0  0  0  0  0  0
   25.6197  -23.3516  -15.2439 C   0  0  0  0  0  0  0  0  0  0  0  0
   26.1260  -23.0122  -16.4812 C   0  0  0  0  0  0  0  0  0  0  0  0
   25.3160  -23.4699  -17.4476 N   0  0  0  0  0  0  0  0  0  0  0  0
   24.2920  -24.1012  -16.8562 C   0  0  0  0  0  0  0  0  0  0  0  0
   24.4774  -24.0293  -15.5040 N   0  0  0  0  0  0  0  0  0  0  0  0
   26.0252  -21.7131  -11.8669 C   0  0  0  0  0  0  0  0  0  0  0  0
   27.2592  -21.7281  -11.6372 O   0  0  0  0  0  0  0  0  0  0  0  0
   26.8858  -19.9593   -7.7833 C   0  0  0  0  0  0  0  0  0  0  0  0
   26.3824  -20.1258   -9.1797 C   0  0  2  0  0  0  0  0  0  0  0  0
   25.6607  -18.9087   -9.7149 C   0  0  0  0  0  0  0  0  0  0  0  0
   25.5765  -21.3895   -9.3891 C   0  0  2  0  0  0  0  0  0  0  0  0
   25.1462  -21.5580  -10.7596 N   0  0  0  0  0  0  0  0  0  0  0  0
   24.3797  -21.3707   -8.5112 C   0  0  0  0  0  0  0  0  0  0  0  0
   24.4912  -21.3129   -7.2689 O   0  0  0  0  0  0  0  0  0  0  0  0
   23.0951  -21.4183   -9.0810 O   0  0  0  0  0  0  0  0  0  0  0  0
  2  1  1  1
  3  2  1  0
  3  4  1  0
  4  5  2  0
  5  6  1  0
  7  6  1  0
  8  7  2  0
  9  8  1  0
 10 11  1  0
 10  9  2  0
 11 12  2  0
 12  4  1  0
 12  7  1  0
 13  2  1  0
 13 14  2  0
 15 13  1  0
 16 15  1  0
 16 17  1  6
 18 22  1  0
 18 17  1  0
 19 18  2  0
 20 19  1  0
 20 21  1  0
 21 22  2  0
 23 16  1  0
 24 23  2  0
 26 25  1  1
 27 26  1  0
 28 26  1  0
 28 29  1  6
 29 23  1  0
 30 28  1  0
 31 30  2  0
 32 30  1  0
M  END
$$$$
