WHV.pdb
     RDKit          3D

 32 34  0  0  1  0  0  0  0  0999 V2000
   27.0837  -22.0720  -12.3951 N   0  0  0  0  0  0  0  0  0  0  0  0
   26.1690  -21.3518  -11.5722 C   0  0  1  0  0  0  0  0  0  0  0  0
   26.8521  -20.2688  -10.8277 C   0  0  0  0  0  0  0  0  0  0  0  0
   28.0069  -20.6965  -10.0221 C   0  0  0  0  0  0  0  0  0  0  0  0
   29.1822  -21.2890  -10.3661 C   0  0  0  0  0  0  0  0  0  0  0  0
   29.9074  -21.4807   -9.2753 N   0  0  0  0  0  0  0  0  0  0  0  0
   29.2394  -21.0269   -8.2021 C   0  0  0  0  0  0  0  0  0  0  0  0
   29.5617  -20.9981   -6.8624 C   0  0  0  0  0  0  0  0  0  0  0  0
   28.6540  -20.4592   -5.9867 C   0  0  0  0  0  0  0  0  0  0  0  0
   27.4405  -19.9500   -6.4002 C   0  0  0  0  0  0  0  0  0  0  0  0
   27.1210  -19.9795   -7.7366 C   0  0  0  0  0  0  0  0  0  0  0  0
   28.0340  -20.5241   -8.6364 C   0  0  0  0  0  0  0  0  0  0  0  0
   24.9528  -20.9235  -12.3048 C   0  0  0  0  0  0  0  0  0  0  0  0
   24.6560  -19.6976  -12.2599 O   0  0  0  0  0  0  0  0  0  0  0  0
   24.1393  -21.8259  -13.0315 N   0  0  0  0  0  0  0  0  0  0  0  0
   22.9838  -21.3369  -13.7254 C   0  0  1  0  0  0  0  0  0  0  0  0
   22.9731  -21.7879  -15.1853 C   0  0  0  0  0  0  0  0  0  0  0  0
   24.0011  -21.0791  -15.9841 C   0  0  0  0  0  0  0  0  0  0  0  0
   24.8746  -20.1026  -15.5528 C   0  0  0  0  0  0  0  0  0  0  0  0
   25.6536  -19.7049  -16.5698 N   0  0  0  0  0  0  0  0  0  0  0  0
   25.2991  -20.4085  -17.6544 C   0  0  0  0  0  0  0  0  0  0  0  0
   24.2851  -21.2521  -17.2960 N   0  0  0  0  0  0  0  0  0  0  0  0
   21.7154  -21.7955  -13.0848 C   0  0  0  0  0  0  0  0  0  0  0  0
   21.5642  -22.9913  -12.7340 O   0  0  0  0  0  0  0  0  0  0  0  0
   18.5296  -18.8928  -11.9437 C   0  0  0  0  0  0  0  0  0  0  0  0
   18.9425  -20.1393  -11.2319 C   0  0  2  0  0  0  0  0  0  0  0  0
   19.9189  -19.8990  -10.1016 C   0  0  0  0  0  0  0  0  0  0  0  0
   19.4190  -21.2385  -12.1567 C   0  0  2  0  0  0  0  0  0  0  0  0
   20.6397  -20.8947  -12.8519 N   0  0  0  0  0  0  0  0  0  0  0  0
   18.3666  -21.5396  -13.1593 C   0  0  0  0  0  0  0  0  0  0  0  0
   18.5175  -21.2427  -14.3627 O   0  0  0  0  0  0  0  0  0  0  0  0
   17.1768  -22.1702  -12.7546 O   0  0  0  0  0  0  0  0  0  0  0  0
  2  1  1  6
  3  2  1  0
  3  4  1  0
  4  5  2  0
  5  6  1  0
  7  6  1  0
  8  7  2  0
  9  8  1  0
 10 11  1  0
 10  9  2  0
 11 12  2  0
 12  4  1  0
 12  7  1  0
 13  2  1  0
 13 14  2  0
 15 13  1  0
 16 15  1  0
 16 17  1  6
 18 22  1  0
 18 17  1  0
 19 18  2  0
 20 19  1  0
 20 21  1  0
 21 22  2  0
 23 16  1  0
 24 23  2  0
 26 25  1  6
 27 26  1  0
 28 26  1  0
 28 29  1  6
 29 23  1  0
 30 28  1  0
 31 30  2  0
 32 30  1  0
M  END
$$$$
