WHV.pdb
     RDKit          3D

 32 34  0  0  1  0  0  0  0  0999 V2000
   21.4610  -11.3932  -15.6261 N   0  0  0  0  0  0  0  0  0  0  0  0
   20.3782  -10.5983  -16.1039 C   0  0  1  0  0  0  0  0  0  0  0  0
   19.0757  -11.2596  -15.8589 C   0  0  0  0  0  0  0  0  0  0  0  0
   18.8248  -12.4640  -16.6664 C   0  0  0  0  0  0  0  0  0  0  0  0
   19.6623  -13.4184  -17.1546 C   0  0  0  0  0  0  0  0  0  0  0  0
   18.9564  -14.3107  -17.8313 N   0  0  0  0  0  0  0  0  0  0  0  0
   17.6567  -13.9726  -17.8068 C   0  0  0  0  0  0  0  0  0  0  0  0
   16.5407  -14.5682  -18.3540 C   0  0  0  0  0  0  0  0  0  0  0  0
   15.3215  -13.9731  -18.1528 C   0  0  0  0  0  0  0  0  0  0  0  0
   15.1781  -12.8086  -17.4273 C   0  0  0  0  0  0  0  0  0  0  0  0
   16.2920  -12.2163  -16.8823 C   0  0  0  0  0  0  0  0  0  0  0  0
   17.5363  -12.8105  -17.0791 C   0  0  0  0  0  0  0  0  0  0  0  0
   20.4512   -9.1913  -15.6411 C   0  0  0  0  0  0  0  0  0  0  0  0
   20.1360   -8.9634  -14.4405 O   0  0  0  0  0  0  0  0  0  0  0  0
   20.8527   -8.1279  -16.4850 N   0  0  0  0  0  0  0  0  0  0  0  0
   20.8614   -6.7864  -15.9788 C   0  0  1  0  0  0  0  0  0  0  0  0
   21.9846   -5.9586  -16.6017 C   0  0  0  0  0  0  0  0  0  0  0  0
   22.0589   -4.6028  -16.0070 C   0  0  0  0  0  0  0  0  0  0  0  0
   21.3400   -4.1144  -14.9361 C   0  0  0  0  0  0  0  0  0  0  0  0
   21.6868   -2.8411  -14.6954 N   0  0  0  0  0  0  0  0  0  0  0  0
   22.6200   -2.4960  -15.5937 C   0  0  0  0  0  0  0  0  0  0  0  0
   22.8491   -3.5763  -16.3991 N   0  0  0  0  0  0  0  0  0  0  0  0
   19.5673   -6.0871  -16.2357 C   0  0  0  0  0  0  0  0  0  0  0  0
   19.0531   -6.0794  -17.3809 O   0  0  0  0  0  0  0  0  0  0  0  0
   16.2193   -6.7025  -14.8618 C   0  0  0  0  0  0  0  0  0  0  0  0
   16.4998   -5.2673  -14.5575 C   0  0  2  0  0  0  0  0  0  0  0  0
   15.2720   -4.3847  -14.6040 C   0  0  0  0  0  0  0  0  0  0  0  0
   17.6370   -4.6846  -15.3684 C   0  0  2  0  0  0  0  0  0  0  0  0
   18.8769   -5.4083  -15.1938 N   0  0  0  0  0  0  0  0  0  0  0  0
   17.8522   -3.2677  -14.9819 C   0  0  0  0  0  0  0  0  0  0  0  0
   17.2932   -2.3379  -15.6001 O   0  0  0  0  0  0  0  0  0  0  0  0
   18.6983   -2.9593  -13.9020 O   0  0  0  0  0  0  0  0  0  0  0  0
  2  1  1  1
  3  2  1  0
  3  4  1  0
  4  5  2  0
  5  6  1  0
  7  6  1  0
  8  7  2  0
  9  8  1  0
 10 11  1  0
 10  9  2  0
 11 12  2  0
 12  4  1  0
 12  7  1  0
 13  2  1  0
 13 14  2  0
 15 13  1  0
 16 15  1  0
 16 17  1  6
 18 22  1  0
 18 17  1  0
 19 18  2  0
 20 19  1  0
 20 21  1  0
 21 22  2  0
 23 16  1  0
 24 23  2  0
 26 25  1  6
 27 26  1  0
 28 26  1  0
 28 29  1  1
 29 23  1  0
 30 28  1  0
 31 30  2  0
 32 30  1  0
M  END
$$$$
