WHV.pdb
     RDKit          3D

 32 34  0  0  1  0  0  0  0  0999 V2000
   28.9647  -20.5782   -9.7349 N   0  0  0  0  0  0  0  0  0  0  0  0
   27.5550  -20.7059   -9.5646 C   0  0  1  0  0  0  0  0  0  0  0  0
   27.0103  -19.6035   -8.7389 C   0  0  0  0  0  0  0  0  0  0  0  0
   27.8114  -19.2551   -7.5547 C   0  0  0  0  0  0  0  0  0  0  0  0
   28.7622  -18.3037   -7.3517 C   0  0  0  0  0  0  0  0  0  0  0  0
   29.1992  -18.3854   -6.1048 N   0  0  0  0  0  0  0  0  0  0  0  0
   28.5579  -19.3768   -5.4646 C   0  0  0  0  0  0  0  0  0  0  0  0
   28.6539  -19.8521   -4.1744 C   0  0  0  0  0  0  0  0  0  0  0  0
   27.8495  -20.9000   -3.8061 C   0  0  0  0  0  0  0  0  0  0  0  0
   26.9560  -21.4879   -4.6773 C   0  0  0  0  0  0  0  0  0  0  0  0
   26.8616  -21.0125   -5.9633 C   0  0  0  0  0  0  0  0  0  0  0  0
   27.6729  -19.9485   -6.3503 C   0  0  0  0  0  0  0  0  0  0  0  0
   26.8400  -20.9279  -10.8448 C   0  0  0  0  0  0  0  0  0  0  0  0
   27.3284  -20.3909  -11.8772 O   0  0  0  0  0  0  0  0  0  0  0  0
   25.6589  -21.7028  -10.9374 N   0  0  0  0  0  0  0  0  0  0  0  0
   25.0674  -21.9419  -12.2215 C   0  0  1  0  0  0  0  0  0  0  0  0
   24.3151  -23.2715  -12.2542 C   0  0  0  0  0  0  0  0  0  0  0  0
   23.7920  -23.5705  -13.6086 C   0  0  0  0  0  0  0  0  0  0  0  0
   23.9446  -22.8168  -14.7535 C   0  0  0  0  0  0  0  0  0  0  0  0
   23.3269  -23.4175  -15.7817 N   0  0  0  0  0  0  0  0  0  0  0  0
   22.7761  -24.5495  -15.3213 C   0  0  0  0  0  0  0  0  0  0  0  0
   23.0609  -24.6444  -13.9879 N   0  0  0  0  0  0  0  0  0  0  0  0
   24.1164  -20.8569  -12.6060 C   0  0  0  0  0  0  0  0  0  0  0  0
   23.4172  -20.2739  -11.7416 O   0  0  0  0  0  0  0  0  0  0  0  0
   23.9046  -19.4872  -16.8010 C   0  0  0  0  0  0  0  0  0  0  0  0
   23.7586  -18.6172  -15.5957 C   0  0  2  0  0  0  0  0  0  0  0  0
   25.0207  -17.8670  -15.2309 C   0  0  0  0  0  0  0  0  0  0  0  0
   23.1675  -19.3302  -14.3988 C   0  0  2  0  0  0  0  0  0  0  0  0
   23.9718  -20.4496  -13.9611 N   0  0  0  0  0  0  0  0  0  0  0  0
   21.8064  -19.8206  -14.7309 C   0  0  0  0  0  0  0  0  0  0  0  0
   20.7885  -19.1927  -14.3717 O   0  0  0  0  0  0  0  0  0  0  0  0
   21.6524  -21.0115  -15.4623 O   0  0  0  0  0  0  0  0  0  0  0  0
  2  1  1  6
  3  2  1  0
  3  4  1  0
  4  5  2  0
  5  6  1  0
  7  6  1  0
  8  7  2  0
  9  8  1  0
 10 11  1  0
 10  9  2  0
 11 12  2  0
 12  4  1  0
 12  7  1  0
 13  2  1  0
 13 14  2  0
 15 13  1  0
 16 15  1  0
 16 17  1  1
 18 22  1  0
 18 17  1  0
 19 18  2  0
 20 19  1  0
 20 21  1  0
 21 22  2  0
 23 16  1  0
 24 23  2  0
 26 25  1  6
 27 26  1  0
 28 26  1  0
 28 29  1  6
 29 23  1  0
 30 28  1  0
 31 30  2  0
 32 30  1  0
M  END
$$$$
