WHV.pdb
     RDKit          3D

 32 34  0  0  1  0  0  0  0  0999 V2000
   16.4738  -16.5289    2.6798 N   0  0  0  0  0  0  0  0  0  0  0  0
   17.5838  -17.2480    3.2121 C   0  0  1  0  0  0  0  0  0  0  0  0
   18.8360  -16.9132    2.4954 C   0  0  0  0  0  0  0  0  0  0  0  0
   19.1083  -17.7266    1.2997 C   0  0  0  0  0  0  0  0  0  0  0  0
   18.2918  -18.4662    0.5017 C   0  0  0  0  0  0  0  0  0  0  0  0
   19.0120  -19.0234   -0.4592 N   0  0  0  0  0  0  0  0  0  0  0  0
   20.3007  -18.6709   -0.3211 C   0  0  0  0  0  0  0  0  0  0  0  0
   21.4240  -18.9847   -1.0555 C   0  0  0  0  0  0  0  0  0  0  0  0
   22.6277  -18.4607   -0.6585 C   0  0  0  0  0  0  0  0  0  0  0  0
   22.7487  -17.6375    0.4419 C   0  0  0  0  0  0  0  0  0  0  0  0
   21.6274  -17.3257    1.1728 C   0  0  0  0  0  0  0  0  0  0  0  0
   20.3987  -17.8513    0.7803 C   0  0  0  0  0  0  0  0  0  0  0  0
   17.6748  -17.1519    4.6891 C   0  0  0  0  0  0  0  0  0  0  0  0
   17.6805  -15.9940    5.1911 O   0  0  0  0  0  0  0  0  0  0  0  0
   17.7538  -18.2904    5.5268 N   0  0  0  0  0  0  0  0  0  0  0  0
   17.9399  -18.1199    6.9383 C   0  0  1  0  0  0  0  0  0  0  0  0
   17.2860  -19.2505    7.7314 C   0  0  0  0  0  0  0  0  0  0  0  0
   15.8119  -19.1025    7.7805 C   0  0  0  0  0  0  0  0  0  0  0  0
   15.0535  -18.0705    7.2685 C   0  0  0  0  0  0  0  0  0  0  0  0
   13.7534  -18.2949    7.5110 N   0  0  0  0  0  0  0  0  0  0  0  0
   13.6567  -19.4568    8.1724 C   0  0  0  0  0  0  0  0  0  0  0  0
   14.9193  -19.9533    8.3383 N   0  0  0  0  0  0  0  0  0  0  0  0
   19.3862  -18.0664    7.3057 C   0  0  0  0  0  0  0  0  0  0  0  0
   20.2462  -18.6909    6.6377 O   0  0  0  0  0  0  0  0  0  0  0  0
   22.9303  -15.5628    9.7655 C   0  0  0  0  0  0  0  0  0  0  0  0
   21.4855  -15.8163    9.4836 C   0  0  2  0  0  0  0  0  0  0  0  0
   20.5895  -15.6315   10.6885 C   0  0  0  0  0  0  0  0  0  0  0  0
   21.2233  -17.1357    8.7902 C   0  0  2  0  0  0  0  0  0  0  0  0
   19.8354  -17.3081    8.4220 N   0  0  0  0  0  0  0  0  0  0  0  0
   21.6250  -18.2556    9.6778 C   0  0  0  0  0  0  0  0  0  0  0  0
   20.7802  -18.8770   10.3557 O   0  0  0  0  0  0  0  0  0  0  0  0
   22.9780  -18.6291    9.7619 O   0  0  0  0  0  0  0  0  0  0  0  0
  2  1  1  6
  3  2  1  0
  3  4  1  0
  4  5  2  0
  5  6  1  0
  7  6  1  0
  8  7  2  0
  9  8  1  0
 10 11  1  0
 10  9  2  0
 11 12  2  0
 12  4  1  0
 12  7  1  0
 13  2  1  0
 13 14  2  0
 15 13  1  0
 16 15  1  0
 16 17  1  1
 18 22  1  0
 18 17  1  0
 19 18  2  0
 20 19  1  0
 20 21  1  0
 21 22  2  0
 23 16  1  0
 24 23  2  0
 26 25  1  1
 27 26  1  0
 28 26  1  0
 28 29  1  1
 29 23  1  0
 30 28  1  0
 31 30  2  0
 32 30  1  0
M  END
$$$$
