WHV.pdb
     RDKit          3D

 32 34  0  0  1  0  0  0  0  0999 V2000
   27.2575  -21.2601  -16.1789 N   0  0  0  0  0  0  0  0  0  0  0  0
   26.6078  -21.1870  -14.9120 C   0  0  1  0  0  0  0  0  0  0  0  0
   26.9283  -19.9201  -14.2148 C   0  0  0  0  0  0  0  0  0  0  0  0
   28.1221  -19.9646  -13.3554 C   0  0  0  0  0  0  0  0  0  0  0  0
   29.4195  -19.6287  -13.5886 C   0  0  0  0  0  0  0  0  0  0  0  0
   30.1290  -19.8497  -12.4931 N   0  0  0  0  0  0  0  0  0  0  0  0
   29.3302  -20.3292  -11.5256 C   0  0  0  0  0  0  0  0  0  0  0  0
   29.5857  -20.7085  -10.2254 C   0  0  0  0  0  0  0  0  0  0  0  0
   28.5410  -21.1685   -9.4651 C   0  0  0  0  0  0  0  0  0  0  0  0
   27.2551  -21.2627   -9.9555 C   0  0  0  0  0  0  0  0  0  0  0  0
   27.0023  -20.8838  -11.2521 C   0  0  0  0  0  0  0  0  0  0  0  0
   28.0544  -20.4149  -12.0351 C   0  0  0  0  0  0  0  0  0  0  0  0
   25.1598  -21.4974  -14.9908 C   0  0  0  0  0  0  0  0  0  0  0  0
   24.5032  -20.9477  -15.9179 O   0  0  0  0  0  0  0  0  0  0  0  0
   24.5129  -22.3677  -14.0808 N   0  0  0  0  0  0  0  0  0  0  0  0
   23.1166  -22.6506  -14.2419 C   0  0  1  0  0  0  0  0  0  0  0  0
   22.8426  -24.1538  -14.2244 C   0  0  0  0  0  0  0  0  0  0  0  0
   23.4814  -24.8393  -15.3730 C   0  0  0  0  0  0  0  0  0  0  0  0
   24.6606  -25.5546  -15.3747 C   0  0  0  0  0  0  0  0  0  0  0  0
   24.9081  -26.0249  -16.6064 N   0  0  0  0  0  0  0  0  0  0  0  0
   23.9074  -25.6257  -17.4039 C   0  0  0  0  0  0  0  0  0  0  0  0
   23.0313  -24.8981  -16.6481 N   0  0  0  0  0  0  0  0  0  0  0  0
   22.2932  -22.0127  -13.1719 C   0  0  0  0  0  0  0  0  0  0  0  0
   22.6637  -22.0333  -11.9727 O   0  0  0  0  0  0  0  0  0  0  0  0
   19.3910  -18.3876  -11.8063 C   0  0  0  0  0  0  0  0  0  0  0  0
   20.1795  -19.1601  -12.8126 C   0  0  2  0  0  0  0  0  0  0  0  0
   19.7604  -18.9003  -14.2428 C   0  0  0  0  0  0  0  0  0  0  0  0
   20.2599  -20.6418  -12.5149 C   0  0  2  0  0  0  0  0  0  0  0  0
   21.0653  -21.3626  -13.4759 N   0  0  0  0  0  0  0  0  0  0  0  0
   18.8947  -21.2243  -12.5028 C   0  0  0  0  0  0  0  0  0  0  0  0
   18.4916  -21.9441  -13.4402 O   0  0  0  0  0  0  0  0  0  0  0  0
   18.0349  -20.9659  -11.4207 O   0  0  0  0  0  0  0  0  0  0  0  0
  2  1  1  6
  3  2  1  0
  3  4  1  0
  4  5  2  0
  5  6  1  0
  7  6  1  0
  8  7  2  0
  9  8  1  0
 10 11  1  0
 10  9  2  0
 11 12  2  0
 12  4  1  0
 12  7  1  0
 13  2  1  0
 13 14  2  0
 15 13  1  0
 16 15  1  0
 16 17  1  1
 18 22  1  0
 18 17  1  0
 19 18  2  0
 20 19  1  0
 20 21  1  0
 21 22  2  0
 23 16  1  0
 24 23  2  0
 26 25  1  1
 27 26  1  0
 28 26  1  0
 28 29  1  6
 29 23  1  0
 30 28  1  0
 31 30  2  0
 32 30  1  0
M  END
$$$$
