WHV.pdb
     RDKit          3D

 32 34  0  0  1  0  0  0  0  0999 V2000
   20.5396  -19.5866  -17.8501 N   0  0  0  0  0  0  0  0  0  0  0  0
   21.1506  -18.6673  -16.9478 C   0  0  1  0  0  0  0  0  0  0  0  0
   20.3010  -18.4365  -15.7567 C   0  0  0  0  0  0  0  0  0  0  0  0
   18.9683  -17.8796  -16.0381 C   0  0  0  0  0  0  0  0  0  0  0  0
   17.7359  -18.4542  -16.0775 C   0  0  0  0  0  0  0  0  0  0  0  0
   16.8360  -17.5317  -16.3803 N   0  0  0  0  0  0  0  0  0  0  0  0
   17.4427  -16.3448  -16.5457 C   0  0  0  0  0  0  0  0  0  0  0  0
   16.9513  -15.0969  -16.8632 C   0  0  0  0  0  0  0  0  0  0  0  0
   17.8379  -14.0553  -16.9633 C   0  0  0  0  0  0  0  0  0  0  0  0
   19.1927  -14.2153  -16.7584 C   0  0  0  0  0  0  0  0  0  0  0  0
   19.6806  -15.4604  -16.4417 C   0  0  0  0  0  0  0  0  0  0  0  0
   18.7909  -16.5269  -16.3369 C   0  0  0  0  0  0  0  0  0  0  0  0
   22.5595  -19.0143  -16.6416 C   0  0  0  0  0  0  0  0  0  0  0  0
   22.8339  -20.2386  -16.5049 O   0  0  0  0  0  0  0  0  0  0  0  0
   23.5752  -18.0381  -16.5019 N   0  0  0  0  0  0  0  0  0  0  0  0
   24.9117  -18.4471  -16.1821 C   0  0  1  0  0  0  0  0  0  0  0  0
   25.9380  -17.4021  -16.6175 C   0  0  0  0  0  0  0  0  0  0  0  0
   27.2324  -18.0258  -16.9820 C   0  0  0  0  0  0  0  0  0  0  0  0
   27.5586  -19.3655  -16.9486 C   0  0  0  0  0  0  0  0  0  0  0  0
   28.8262  -19.5374  -17.3523 N   0  0  0  0  0  0  0  0  0  0  0  0
   29.3275  -18.3296  -17.6473 C   0  0  0  0  0  0  0  0  0  0  0  0
   28.3503  -17.4013  -17.4204 N   0  0  0  0  0  0  0  0  0  0  0  0
   25.0835  -18.6900  -14.7188 C   0  0  0  0  0  0  0  0  0  0  0  0
   24.4372  -18.0246  -13.8730 O   0  0  0  0  0  0  0  0  0  0  0  0
   25.0752  -21.2008  -10.8829 C   0  0  0  0  0  0  0  0  0  0  0  0
   25.0863  -21.0093  -12.3642 C   0  0  2  0  0  0  0  0  0  0  0  0
   25.1268  -22.3047  -13.1445 C   0  0  0  0  0  0  0  0  0  0  0  0
   26.1411  -20.0356  -12.8437 C   0  0  2  0  0  0  0  0  0  0  0  0
   25.9829  -19.6807  -14.2368 N   0  0  0  0  0  0  0  0  0  0  0  0
   27.4899  -20.6244  -12.6506 C   0  0  0  0  0  0  0  0  0  0  0  0
   28.1150  -21.1326  -13.6046 O   0  0  0  0  0  0  0  0  0  0  0  0
   28.0805  -20.6130  -11.3746 O   0  0  0  0  0  0  0  0  0  0  0  0
  2  1  1  1
  3  2  1  0
  3  4  1  0
  4  5  2  0
  5  6  1  0
  7  6  1  0
  8  7  2  0
  9  8  1  0
 10 11  1  0
 10  9  2  0
 11 12  2  0
 12  4  1  0
 12  7  1  0
 13  2  1  0
 13 14  2  0
 15 13  1  0
 16 15  1  0
 16 17  1  1
 18 22  1  0
 18 17  1  0
 19 18  2  0
 20 19  1  0
 20 21  1  0
 21 22  2  0
 23 16  1  0
 24 23  2  0
 26 25  1  1
 27 26  1  0
 28 26  1  0
 28 29  1  6
 29 23  1  0
 30 28  1  0
 31 30  2  0
 32 30  1  0
M  END
$$$$
