WHV.pdb
     RDKit          3D

 32 34  0  0  1  0  0  0  0  0999 V2000
   26.2941  -19.4567  -11.7735 N   0  0  0  0  0  0  0  0  0  0  0  0
   25.5367  -20.6645  -11.7647 C   0  0  1  0  0  0  0  0  0  0  0  0
   25.4487  -21.2351  -10.4007 C   0  0  0  0  0  0  0  0  0  0  0  0
   26.5599  -20.8819   -9.5028 C   0  0  0  0  0  0  0  0  0  0  0  0
   26.6269  -20.0519   -8.4270 C   0  0  0  0  0  0  0  0  0  0  0  0
   27.8597  -20.0645   -7.9450 N   0  0  0  0  0  0  0  0  0  0  0  0
   28.6243  -20.8896   -8.6789 C   0  0  0  0  0  0  0  0  0  0  0  0
   29.9541  -21.2394   -8.5840 C   0  0  0  0  0  0  0  0  0  0  0  0
   30.4601  -22.1259   -9.5000 C   0  0  0  0  0  0  0  0  0  0  0  0
   29.6880  -22.6733  -10.5036 C   0  0  0  0  0  0  0  0  0  0  0  0
   28.3622  -22.3234  -10.5965 C   0  0  0  0  0  0  0  0  0  0  0  0
   27.8357  -21.4240   -9.6724 C   0  0  0  0  0  0  0  0  0  0  0  0
   24.2344  -20.5305  -12.4614 C   0  0  0  0  0  0  0  0  0  0  0  0
   23.4889  -19.5751  -12.1087 O   0  0  0  0  0  0  0  0  0  0  0  0
   23.8169  -21.4192  -13.4812 N   0  0  0  0  0  0  0  0  0  0  0  0
   22.5070  -21.2819  -14.0479 C   0  0  1  0  0  0  0  0  0  0  0  0
   22.5468  -21.3397  -15.5743 C   0  0  0  0  0  0  0  0  0  0  0  0
   23.0291  -20.0650  -16.1572 C   0  0  0  0  0  0  0  0  0  0  0  0
   24.1077  -19.3089  -15.7481 C   0  0  0  0  0  0  0  0  0  0  0  0
   24.2250  -18.2221  -16.5256 N   0  0  0  0  0  0  0  0  0  0  0  0
   23.2392  -18.2616  -17.4331 C   0  0  0  0  0  0  0  0  0  0  0  0
   22.5048  -19.3921  -17.2080 N   0  0  0  0  0  0  0  0  0  0  0  0
   21.5777  -22.3457  -13.5637 C   0  0  0  0  0  0  0  0  0  0  0  0
   21.9217  -23.5530  -13.5627 O   0  0  0  0  0  0  0  0  0  0  0  0
   17.3710  -21.4469  -12.2752 C   0  0  0  0  0  0  0  0  0  0  0  0
   18.3390  -22.3638  -11.6018 C   0  0  2  0  0  0  0  0  0  0  0  0
   19.0152  -21.7533  -10.3940 C   0  0  0  0  0  0  0  0  0  0  0  0
   19.3424  -22.9892  -12.5465 C   0  0  2  0  0  0  0  0  0  0  0  0
   20.2754  -22.0266  -13.0890 N   0  0  0  0  0  0  0  0  0  0  0  0
   18.6289  -23.6483  -13.6690 C   0  0  0  0  0  0  0  0  0  0  0  0
   18.1442  -24.7922  -13.5429 O   0  0  0  0  0  0  0  0  0  0  0  0
   18.4923  -22.9795  -14.8982 O   0  0  0  0  0  0  0  0  0  0  0  0
  2  1  1  1
  3  2  1  0
  3  4  1  0
  4  5  2  0
  5  6  1  0
  7  6  1  0
  8  7  2  0
  9  8  1  0
 10 11  1  0
 10  9  2  0
 11 12  2  0
 12  4  1  0
 12  7  1  0
 13  2  1  0
 13 14  2  0
 15 13  1  0
 16 15  1  0
 16 17  1  6
 18 22  1  0
 18 17  1  0
 19 18  2  0
 20 19  1  0
 20 21  1  0
 21 22  2  0
 23 16  1  0
 24 23  2  0
 26 25  1  6
 27 26  1  0
 28 26  1  0
 28 29  1  6
 29 23  1  0
 30 28  1  0
 31 30  2  0
 32 30  1  0
M  END
$$$$
