WHV.pdb
     RDKit          3D

 32 34  0  0  1  0  0  0  0  0999 V2000
   16.2550  -10.9479  -10.3902 N   0  0  0  0  0  0  0  0  0  0  0  0
   15.3939   -9.8415  -10.6490 C   0  0  1  0  0  0  0  0  0  0  0  0
   14.0999   -9.9898   -9.9437 C   0  0  0  0  0  0  0  0  0  0  0  0
   13.2263  -11.0563  -10.4584 C   0  0  0  0  0  0  0  0  0  0  0  0
   13.4152  -11.9950  -11.4248 C   0  0  0  0  0  0  0  0  0  0  0  0
   12.3243  -12.7379  -11.5277 N   0  0  0  0  0  0  0  0  0  0  0  0
   11.4036  -12.3146  -10.6461 C   0  0  0  0  0  0  0  0  0  0  0  0
   10.1265  -12.7521  -10.3682 C   0  0  0  0  0  0  0  0  0  0  0  0
    9.4154  -12.1038   -9.3910 C   0  0  0  0  0  0  0  0  0  0  0  0
    9.9327  -11.0380   -8.6842 C   0  0  0  0  0  0  0  0  0  0  0  0
   11.2063  -10.6033   -8.9627 C   0  0  0  0  0  0  0  0  0  0  0  0
   11.9393  -11.2530   -9.9529 C   0  0  0  0  0  0  0  0  0  0  0  0
   16.0618   -8.5337  -10.4422 C   0  0  0  0  0  0  0  0  0  0  0  0
   16.6365   -8.3501   -9.3337 O   0  0  0  0  0  0  0  0  0  0  0  0
   16.0715   -7.5153  -11.4254 N   0  0  0  0  0  0  0  0  0  0  0  0
   16.6358   -6.2346  -11.1133 C   0  0  1  0  0  0  0  0  0  0  0  0
   17.3487   -5.6261  -12.3201 C   0  0  0  0  0  0  0  0  0  0  0  0
   18.5937   -6.3609  -12.6474 C   0  0  0  0  0  0  0  0  0  0  0  0
   19.1331   -7.4399  -11.9786 C   0  0  0  0  0  0  0  0  0  0  0  0
   20.2686   -7.8280  -12.5782 N   0  0  0  0  0  0  0  0  0  0  0  0
   20.4741   -7.0174  -13.6259 C   0  0  0  0  0  0  0  0  0  0  0  0
   19.4469   -6.1167  -13.6693 N   0  0  0  0  0  0  0  0  0  0  0  0
   15.5971   -5.2683  -10.6474 C   0  0  0  0  0  0  0  0  0  0  0  0
   14.5040   -5.1523  -11.2538 O   0  0  0  0  0  0  0  0  0  0  0  0
   15.8286   -3.6132   -6.6278 C   0  0  0  0  0  0  0  0  0  0  0  0
   14.6009   -3.8017   -7.4576 C   0  0  2  0  0  0  0  0  0  0  0  0
   13.8928   -5.1147   -7.2061 C   0  0  0  0  0  0  0  0  0  0  0  0
   14.8227   -3.5613   -8.9352 C   0  0  2  0  0  0  0  0  0  0  0  0
   15.8119   -4.4497   -9.5043 N   0  0  0  0  0  0  0  0  0  0  0  0
   15.2575   -2.1590   -9.1540 C   0  0  0  0  0  0  0  0  0  0  0  0
   16.4335   -1.8907   -9.4770 O   0  0  0  0  0  0  0  0  0  0  0  0
   14.3351   -1.1094   -8.9970 O   0  0  0  0  0  0  0  0  0  0  0  0
  2  1  1  1
  3  2  1  0
  3  4  1  0
  4  5  2  0
  5  6  1  0
  7  6  1  0
  8  7  2  0
  9  8  1  0
 10 11  1  0
 10  9  2  0
 11 12  2  0
 12  4  1  0
 12  7  1  0
 13  2  1  0
 13 14  2  0
 15 13  1  0
 16 15  1  0
 16 17  1  6
 18 22  1  0
 18 17  1  0
 19 18  2  0
 20 19  1  0
 20 21  1  0
 21 22  2  0
 23 16  1  0
 24 23  2  0
 26 25  1  1
 27 26  1  0
 28 26  1  0
 28 29  1  1
 29 23  1  0
 30 28  1  0
 31 30  2  0
 32 30  1  0
M  END
$$$$
