WHV.pdb
     RDKit          3D

 32 34  0  0  1  0  0  0  0  0999 V2000
   24.5996  -22.3159  -18.5897 N   0  0  0  0  0  0  0  0  0  0  0  0
   23.5073  -21.4502  -18.8895 C   0  0  1  0  0  0  0  0  0  0  0  0
   22.7705  -21.9088  -20.0897 C   0  0  0  0  0  0  0  0  0  0  0  0
   23.4649  -21.6938  -21.3692 C   0  0  0  0  0  0  0  0  0  0  0  0
   24.3350  -22.4703  -22.0697 C   0  0  0  0  0  0  0  0  0  0  0  0
   24.6911  -21.8349  -23.1751 N   0  0  0  0  0  0  0  0  0  0  0  0
   24.0748  -20.6428  -23.2304 C   0  0  0  0  0  0  0  0  0  0  0  0
   24.1145  -19.6290  -24.1634 C   0  0  0  0  0  0  0  0  0  0  0  0
   23.3580  -18.5076  -23.9375 C   0  0  0  0  0  0  0  0  0  0  0  0
   22.5662  -18.3633  -22.8170 C   0  0  0  0  0  0  0  0  0  0  0  0
   22.5279  -19.3753  -21.8880 C   0  0  0  0  0  0  0  0  0  0  0  0
   23.2915  -20.5197  -22.1054 C   0  0  0  0  0  0  0  0  0  0  0  0
   22.6522  -21.1754  -17.7094 C   0  0  0  0  0  0  0  0  0  0  0  0
   22.4347  -22.1360  -16.9203 O   0  0  0  0  0  0  0  0  0  0  0  0
   22.0893  -19.9022  -17.4519 N   0  0  0  0  0  0  0  0  0  0  0  0
   21.3259  -19.6939  -16.2562 C   0  0  1  0  0  0  0  0  0  0  0  0
   21.3485  -18.2285  -15.8239 C   0  0  0  0  0  0  0  0  0  0  0  0
   20.6191  -18.0230  -14.5499 C   0  0  0  0  0  0  0  0  0  0  0  0
   19.9581  -18.9715  -13.7977 C   0  0  0  0  0  0  0  0  0  0  0  0
   19.4212  -18.3991  -12.7098 N   0  0  0  0  0  0  0  0  0  0  0  0
   19.7240  -17.0937  -12.7446 C   0  0  0  0  0  0  0  0  0  0  0  0
   20.4591  -16.8618  -13.8733 N   0  0  0  0  0  0  0  0  0  0  0  0
   19.9018  -20.1094  -16.4266 C   0  0  0  0  0  0  0  0  0  0  0  0
   19.2675  -19.8288  -17.4730 O   0  0  0  0  0  0  0  0  0  0  0  0
   17.8773  -23.2515  -14.0392 C   0  0  0  0  0  0  0  0  0  0  0  0
   17.5569  -22.6542  -15.3703 C   0  0  2  0  0  0  0  0  0  0  0  0
   18.1878  -23.3873  -16.5335 C   0  0  0  0  0  0  0  0  0  0  0  0
   17.8114  -21.1642  -15.4454 C   0  0  2  0  0  0  0  0  0  0  0  0
   19.2192  -20.8347  -15.4114 N   0  0  0  0  0  0  0  0  0  0  0  0
   17.1336  -20.4834  -14.3139 C   0  0  0  0  0  0  0  0  0  0  0  0
   17.7891  -19.9710  -13.3827 O   0  0  0  0  0  0  0  0  0  0  0  0
   15.7298  -20.4098  -14.2831 O   0  0  0  0  0  0  0  0  0  0  0  0
  2  1  1  1
  3  2  1  0
  3  4  1  0
  4  5  2  0
  5  6  1  0
  7  6  1  0
  8  7  2  0
  9  8  1  0
 10 11  1  0
 10  9  2  0
 11 12  2  0
 12  4  1  0
 12  7  1  0
 13  2  1  0
 13 14  2  0
 15 13  1  0
 16 15  1  0
 16 17  1  6
 18 22  1  0
 18 17  1  0
 19 18  2  0
 20 19  1  0
 20 21  1  0
 21 22  2  0
 23 16  1  0
 24 23  2  0
 26 25  1  1
 27 26  1  0
 28 26  1  0
 28 29  1  1
 29 23  1  0
 30 28  1  0
 31 30  2  0
 32 30  1  0
M  END
$$$$
