WHV.pdb
     RDKit          3D

 32 34  0  0  1  0  0  0  0  0999 V2000
   24.7397  -19.6937  -17.0361 N   0  0  0  0  0  0  0  0  0  0  0  0
   25.2241  -18.9342  -15.9312 C   0  0  1  0  0  0  0  0  0  0  0  0
   24.1785  -18.0299  -15.3995 C   0  0  0  0  0  0  0  0  0  0  0  0
   23.7563  -16.9570  -16.3139 C   0  0  0  0  0  0  0  0  0  0  0  0
   22.6200  -16.7807  -17.0407 C   0  0  0  0  0  0  0  0  0  0  0  0
   22.7100  -15.6476  -17.7194 N   0  0  0  0  0  0  0  0  0  0  0  0
   23.8888  -15.0579  -17.4613 C   0  0  0  0  0  0  0  0  0  0  0  0
   24.4479  -13.8823  -17.9140 C   0  0  0  0  0  0  0  0  0  0  0  0
   25.6959  -13.5390  -17.4604 C   0  0  0  0  0  0  0  0  0  0  0  0
   26.4025  -14.3253  -16.5742 C   0  0  0  0  0  0  0  0  0  0  0  0
   25.8432  -15.4971  -16.1238 C   0  0  0  0  0  0  0  0  0  0  0  0
   24.5763  -15.8574  -16.5767 C   0  0  0  0  0  0  0  0  0  0  0  0
   25.8919  -19.7732  -14.9068 C   0  0  0  0  0  0  0  0  0  0  0  0
   25.2012  -20.6814  -14.3675 O   0  0  0  0  0  0  0  0  0  0  0  0
   27.2434  -19.5881  -14.5281 N   0  0  0  0  0  0  0  0  0  0  0  0
   27.7519  -20.2581  -13.3669 C   0  0  1  0  0  0  0  0  0  0  0  0
   29.2482  -20.0078  -13.1844 C   0  0  0  0  0  0  0  0  0  0  0  0
   29.7922  -20.7634  -12.0310 C   0  0  0  0  0  0  0  0  0  0  0  0
   29.1326  -21.6825  -11.2421 C   0  0  0  0  0  0  0  0  0  0  0  0
   29.9613  -22.1522  -10.2975 N   0  0  0  0  0  0  0  0  0  0  0  0
   31.1485  -21.5519  -10.4616 C   0  0  0  0  0  0  0  0  0  0  0  0
   31.0459  -20.6994  -11.5251 N   0  0  0  0  0  0  0  0  0  0  0  0
   27.0499  -19.8238  -12.1226 C   0  0  0  0  0  0  0  0  0  0  0  0
   27.0060  -18.6129  -11.7945 O   0  0  0  0  0  0  0  0  0  0  0  0
   23.5092  -20.9926  -11.3270 C   0  0  0  0  0  0  0  0  0  0  0  0
   24.2914  -21.1180  -10.0606 C   0  0  2  0  0  0  0  0  0  0  0  0
   23.5061  -20.7473   -8.8218 C   0  0  0  0  0  0  0  0  0  0  0  0
   25.6321  -20.4172  -10.1019 C   0  0  2  0  0  0  0  0  0  0  0  0
   26.4097  -20.7656  -11.2706 N   0  0  0  0  0  0  0  0  0  0  0  0
   26.4138  -20.7611   -8.8878 C   0  0  0  0  0  0  0  0  0  0  0  0
   26.0126  -20.4408   -7.7495 O   0  0  0  0  0  0  0  0  0  0  0  0
   27.6276  -21.4597   -9.0136 O   0  0  0  0  0  0  0  0  0  0  0  0
  2  1  1  6
  3  2  1  0
  3  4  1  0
  4  5  2  0
  5  6  1  0
  7  6  1  0
  8  7  2  0
  9  8  1  0
 10 11  1  0
 10  9  2  0
 11 12  2  0
 12  4  1  0
 12  7  1  0
 13  2  1  0
 13 14  2  0
 15 13  1  0
 16 15  1  0
 16 17  1  1
 18 22  1  0
 18 17  1  0
 19 18  2  0
 20 19  1  0
 20 21  1  0
 21 22  2  0
 23 16  1  0
 24 23  2  0
 26 25  1  6
 27 26  1  0
 28 26  1  0
 28 29  1  6
 29 23  1  0
 30 28  1  0
 31 30  2  0
 32 30  1  0
M  END
$$$$
