WHV.pdb
     RDKit          3D

 32 34  0  0  1  0  0  0  0  0999 V2000
   15.9955  -16.7022    6.1256 N   0  0  0  0  0  0  0  0  0  0  0  0
   17.2754  -17.2771    5.8729 C   0  0  1  0  0  0  0  0  0  0  0  0
   18.3665  -16.3637    6.2841 C   0  0  0  0  0  0  0  0  0  0  0  0
   18.3360  -15.0322    5.6583 C   0  0  0  0  0  0  0  0  0  0  0  0
   17.4516  -14.4535    4.8019 C   0  0  0  0  0  0  0  0  0  0  0  0
   17.8616  -13.2275    4.5171 N   0  0  0  0  0  0  0  0  0  0  0  0
   19.0082  -12.9711    5.1679 C   0  0  0  0  0  0  0  0  0  0  0  0
   19.8177  -11.8560    5.2011 C   0  0  0  0  0  0  0  0  0  0  0  0
   20.9482  -11.8963    5.9765 C   0  0  0  0  0  0  0  0  0  0  0  0
   21.2976  -13.0064    6.7171 C   0  0  0  0  0  0  0  0  0  0  0  0
   20.4891  -14.1172    6.6828 C   0  0  0  0  0  0  0  0  0  0  0  0
   19.3379  -14.0895    5.8993 C   0  0  0  0  0  0  0  0  0  0  0  0
   17.3978  -18.6586    6.3979 C   0  0  0  0  0  0  0  0  0  0  0  0
   16.8943  -18.8899    7.5319 O   0  0  0  0  0  0  0  0  0  0  0  0
   18.0456  -19.6945    5.6829 N   0  0  0  0  0  0  0  0  0  0  0  0
   18.2147  -20.9798    6.2956 C   0  0  1  0  0  0  0  0  0  0  0  0
   18.2796  -22.0947    5.2527 C   0  0  0  0  0  0  0  0  0  0  0  0
   16.9786  -22.2772    4.5659 C   0  0  0  0  0  0  0  0  0  0  0  0
   15.7981  -21.6072    4.8103 C   0  0  0  0  0  0  0  0  0  0  0  0
   14.8406  -22.0516    3.9826 N   0  0  0  0  0  0  0  0  0  0  0  0
   15.3819  -22.9996    3.2047 C   0  0  0  0  0  0  0  0  0  0  0  0
   16.6939  -23.1389    3.5618 N   0  0  0  0  0  0  0  0  0  0  0  0
   19.4554  -21.0416    7.1241 C   0  0  0  0  0  0  0  0  0  0  0  0
   20.4782  -20.3868    6.8061 O   0  0  0  0  0  0  0  0  0  0  0  0
   19.3390  -22.6040   11.1878 C   0  0  0  0  0  0  0  0  0  0  0  0
   20.3504  -21.6681   10.6114 C   0  0  2  0  0  0  0  0  0  0  0  0
   20.0299  -20.2080   10.8440 C   0  0  0  0  0  0  0  0  0  0  0  0
   20.6760  -21.9436    9.1593 C   0  0  2  0  0  0  0  0  0  0  0  0
   19.5188  -21.8427    8.2976 N   0  0  0  0  0  0  0  0  0  0  0  0
   21.2541  -23.3042    9.0258 C   0  0  0  0  0  0  0  0  0  0  0  0
   20.6071  -24.2314    8.4958 O   0  0  0  0  0  0  0  0  0  0  0  0
   22.5520  -23.5611    9.5017 O   0  0  0  0  0  0  0  0  0  0  0  0
  2  1  1  1
  3  2  1  0
  3  4  1  0
  4  5  2  0
  5  6  1  0
  7  6  1  0
  8  7  2  0
  9  8  1  0
 10 11  1  0
 10  9  2  0
 11 12  2  0
 12  4  1  0
 12  7  1  0
 13  2  1  0
 13 14  2  0
 15 13  1  0
 16 15  1  0
 16 17  1  6
 18 22  1  0
 18 17  1  0
 19 18  2  0
 20 19  1  0
 20 21  1  0
 21 22  2  0
 23 16  1  0
 24 23  2  0
 26 25  1  6
 27 26  1  0
 28 26  1  0
 28 29  1  6
 29 23  1  0
 30 28  1  0
 31 30  2  0
 32 30  1  0
M  END
$$$$
