IHV.pdb
     RDKit          3D

 26 26  0  0  1  0  0  0  0  0999 V2000
   35.1337  -24.6851  -12.6709 C   0  0  0  0  0  0  0  0  0  0  0  0
   35.4607  -25.4749  -13.9041 C   0  0  0  0  0  0  0  0  0  0  0  0
   34.4737  -25.1756  -15.0373 C   0  0  2  0  0  0  0  0  0  0  0  0
   33.1176  -25.6659  -14.5767 C   0  0  0  0  0  0  0  0  0  0  0  0
   34.8892  -26.0336  -16.2141 C   0  0  2  0  0  0  0  0  0  0  0  0
   36.2121  -25.6165  -16.6189 N   0  0  0  0  0  0  0  0  0  0  0  0
   33.8946  -25.8974  -17.3375 C   0  0  0  0  0  0  0  0  0  0  0  0
   34.1855  -25.0823  -18.2472 O   0  0  0  0  0  0  0  0  0  0  0  0
   32.7341  -26.6796  -17.2849 N   0  0  0  0  0  0  0  0  0  0  0  0
   31.7653  -26.6863  -18.4368 C   0  0  1  0  0  0  0  0  0  0  0  0
   32.4651  -27.2537  -19.6063 C   0  0  0  0  0  0  0  0  0  0  0  0
   31.6748  -27.4533  -20.8220 C   0  0  0  0  0  0  0  0  0  0  0  0
   31.2031  -26.6043  -21.7789 C   0  0  0  0  0  0  0  0  0  0  0  0
   30.6093  -27.2980  -22.7623 N   0  0  0  0  0  0  0  0  0  0  0  0
   30.6924  -28.5941  -22.4518 C   0  0  0  0  0  0  0  0  0  0  0  0
   31.3293  -28.7035  -21.2902 N   0  0  0  0  0  0  0  0  0  0  0  0
   30.6620  -27.4860  -17.8596 C   0  0  0  0  0  0  0  0  0  0  0  0
   31.0216  -28.4370  -17.0468 O   0  0  0  0  0  0  0  0  0  0  0  0
   27.4989  -26.5633  -15.8558 C   0  0  0  0  0  0  0  0  0  0  0  0
   27.1042  -27.5720  -16.9136 C   0  0  1  0  0  0  0  0  0  0  0  0
   26.3804  -26.9237  -18.0530 C   0  0  0  0  0  0  0  0  0  0  0  0
   28.3490  -28.3021  -17.3241 C   0  0  2  0  0  0  0  0  0  0  0  0
   29.2864  -27.4131  -18.0240 N   0  0  0  0  0  0  0  0  0  0  0  0
   27.9740  -29.3650  -18.2921 C   0  0  0  0  0  0  0  0  0  0  0  0
   27.4442  -30.5742  -17.8432 O   0  0  0  0  0  0  0  0  0  0  0  0
   28.1075  -29.2417  -19.5335 O   0  0  0  0  0  0  0  0  0  0  0  0
  2  3  1  0
  2  1  1  0
  3  4  1  1
  5  6  1  6
  5  3  1  0
  7  5  1  0
  8  7  2  0
  9  7  1  0
 10  9  1  0
 11 12  1  0
 10 11  1  6
 12 16  1  0
 13 14  1  0
 13 12  2  0
 14 15  1  0
 15 16  2  0
 17 10  1  0
 17 18  2  0
 20 19  1  1
 20 22  1  0
 20 21  1  0
 22 23  1  6
 23 17  1  0
 24 22  1  0
 25 24  1  0
 26 24  2  0
M  END
$$$$
