IHV.pdb
     RDKit          3D

 26 26  0  0  1  0  0  0  0  0999 V2000
   29.9424  -23.6203  -16.6715 C   0  0  0  0  0  0  0  0  0  0  0  0
   29.1507  -22.5885  -17.4200 C   0  0  0  0  0  0  0  0  0  0  0  0
   28.3292  -21.7146  -16.4665 C   0  0  2  0  0  0  0  0  0  0  0  0
   27.3246  -22.6259  -15.7943 C   0  0  0  0  0  0  0  0  0  0  0  0
   27.5518  -20.7420  -17.3286 C   0  0  2  0  0  0  0  0  0  0  0  0
   28.5061  -19.9196  -18.0364 N   0  0  0  0  0  0  0  0  0  0  0  0
   26.6263  -19.9127  -16.4768 C   0  0  0  0  0  0  0  0  0  0  0  0
   27.1657  -19.0546  -15.7356 O   0  0  0  0  0  0  0  0  0  0  0  0
   25.2506  -20.1568  -16.5733 N   0  0  0  0  0  0  0  0  0  0  0  0
   24.2761  -19.3763  -15.7325 C   0  0  1  0  0  0  0  0  0  0  0  0
   23.1265  -19.0260  -16.5898 C   0  0  0  0  0  0  0  0  0  0  0  0
   21.9793  -18.3926  -15.9378 C   0  0  0  0  0  0  0  0  0  0  0  0
   21.6540  -17.0949  -15.6747 C   0  0  0  0  0  0  0  0  0  0  0  0
   20.4258  -17.0243  -15.1385 N   0  0  0  0  0  0  0  0  0  0  0  0
   19.9489  -18.2685  -15.0517 C   0  0  0  0  0  0  0  0  0  0  0  0
   20.8695  -19.1010  -15.5277 N   0  0  0  0  0  0  0  0  0  0  0  0
   24.0297  -20.3399  -14.6368 C   0  0  0  0  0  0  0  0  0  0  0  0
   23.8930  -21.5823  -15.0001 O   0  0  0  0  0  0  0  0  0  0  0  0
   25.7554  -21.3370  -11.3391 C   0  0  0  0  0  0  0  0  0  0  0  0
   24.2823  -21.1463  -11.0460 C   0  0  1  0  0  0  0  0  0  0  0  0
   24.0256  -19.8658  -10.3135 C   0  0  0  0  0  0  0  0  0  0  0  0
   23.5476  -21.2560  -12.3496 C   0  0  2  0  0  0  0  0  0  0  0  0
   23.9139  -20.1667  -13.2652 N   0  0  0  0  0  0  0  0  0  0  0  0
   22.0930  -21.1115  -12.0839 C   0  0  0  0  0  0  0  0  0  0  0  0
   21.3887  -22.1273  -11.4385 O   0  0  0  0  0  0  0  0  0  0  0  0
   21.4317  -20.0978  -12.4142 O   0  0  0  0  0  0  0  0  0  0  0  0
  2  3  1  0
  2  1  1  0
  3  4  1  6
  5  6  1  1
  5  3  1  0
  7  5  1  0
  8  7  2  0
  9  7  1  0
 10  9  1  0
 11 12  1  0
 10 11  1  6
 12 16  1  0
 13 14  1  0
 13 12  2  0
 14 15  1  0
 15 16  2  0
 17 10  1  0
 17 18  2  0
 20 19  1  6
 20 22  1  0
 20 21  1  0
 22 23  1  6
 23 17  1  0
 24 22  1  0
 25 24  1  0
 26 24  2  0
M  END
$$$$
