IHV.pdb
     RDKit          3D

 26 26  0  0  1  0  0  0  0  0999 V2000
   24.4425  -21.3616   -7.1191 C   0  0  0  0  0  0  0  0  0  0  0  0
   24.0488  -20.9706   -8.5132 C   0  0  0  0  0  0  0  0  0  0  0  0
   25.2768  -20.8013   -9.4139 C   0  0  2  0  0  0  0  0  0  0  0  0
   26.0724  -19.6413   -8.8546 C   0  0  0  0  0  0  0  0  0  0  0  0
   24.7631  -20.3828  -10.7757 C   0  0  2  0  0  0  0  0  0  0  0  0
   23.8720  -21.4175  -11.2482 N   0  0  0  0  0  0  0  0  0  0  0  0
   25.9134  -20.1634  -11.7236 C   0  0  0  0  0  0  0  0  0  0  0  0
   26.8348  -19.4112  -11.3214 O   0  0  0  0  0  0  0  0  0  0  0  0
   25.8706  -20.8061  -12.9672 N   0  0  0  0  0  0  0  0  0  0  0  0
   26.9510  -20.5670  -13.9875 C   0  0  1  0  0  0  0  0  0  0  0  0
   27.2279  -21.8541  -14.6554 C   0  0  0  0  0  0  0  0  0  0  0  0
   28.0283  -21.8092  -15.8801 C   0  0  0  0  0  0  0  0  0  0  0  0
   28.6645  -20.8020  -16.5433 C   0  0  0  0  0  0  0  0  0  0  0  0
   29.3594  -21.2959  -17.5797 N   0  0  0  0  0  0  0  0  0  0  0  0
   29.1802  -22.6190  -17.5948 C   0  0  0  0  0  0  0  0  0  0  0  0
   28.3839  -22.9424  -16.5808 N   0  0  0  0  0  0  0  0  0  0  0  0
   26.3227  -19.5058  -14.8054 C   0  0  0  0  0  0  0  0  0  0  0  0
   25.0475  -19.6460  -15.0259 O   0  0  0  0  0  0  0  0  0  0  0  0
   27.4311  -15.7005  -15.1030 C   0  0  0  0  0  0  0  0  0  0  0  0
   25.9995  -16.0620  -15.4378 C   0  0  1  0  0  0  0  0  0  0  0  0
   25.3272  -14.9826  -16.2284 C   0  0  0  0  0  0  0  0  0  0  0  0
   26.0229  -17.3936  -16.1288 C   0  0  2  0  0  0  0  0  0  0  0  0
   26.8463  -18.3645  -15.3952 N   0  0  0  0  0  0  0  0  0  0  0  0
   26.6597  -17.2222  -17.4602 C   0  0  0  0  0  0  0  0  0  0  0  0
   25.8774  -17.0184  -18.5963 O   0  0  0  0  0  0  0  0  0  0  0  0
   27.9016  -17.2497  -17.6362 O   0  0  0  0  0  0  0  0  0  0  0  0
  2  3  1  0
  2  1  1  0
  3  4  1  1
  5  6  1  6
  5  3  1  0
  7  5  1  0
  8  7  2  0
  9  7  1  0
 10  9  1  0
 11 12  1  0
 10 11  1  6
 12 16  1  0
 13 14  1  0
 13 12  2  0
 14 15  1  0
 15 16  2  0
 17 10  1  0
 17 18  2  0
 20 19  1  6
 20 22  1  0
 20 21  1  0
 22 23  1  1
 23 17  1  0
 24 22  1  0
 25 24  1  0
 26 24  2  0
M  END
$$$$
