IHV.pdb
     RDKit          3D

 26 26  0  0  1  0  0  0  0  0999 V2000
   29.2683  -20.6274  -11.9347 C   0  0  0  0  0  0  0  0  0  0  0  0
   27.8129  -20.8469  -11.6427 C   0  0  0  0  0  0  0  0  0  0  0  0
   26.9655  -20.7409  -12.9149 C   0  0  2  0  0  0  0  0  0  0  0  0
   27.1919  -19.3535  -13.4765 C   0  0  0  0  0  0  0  0  0  0  0  0
   25.5169  -20.8225  -12.4808 C   0  0  2  0  0  0  0  0  0  0  0  0
   25.3671  -22.0052  -11.6642 N   0  0  0  0  0  0  0  0  0  0  0  0
   24.6117  -20.8591  -13.6846 C   0  0  0  0  0  0  0  0  0  0  0  0
   25.1534  -21.1296  -14.7846 O   0  0  0  0  0  0  0  0  0  0  0  0
   23.2507  -20.5921  -13.4904 N   0  0  0  0  0  0  0  0  0  0  0  0
   22.2846  -20.6759  -14.6416 C   0  0  1  0  0  0  0  0  0  0  0  0
   21.6400  -22.0028  -14.5886 C   0  0  0  0  0  0  0  0  0  0  0  0
   20.6017  -22.2781  -15.5830 C   0  0  0  0  0  0  0  0  0  0  0  0
   20.1195  -21.5766  -16.6480 C   0  0  0  0  0  0  0  0  0  0  0  0
   19.2229  -22.3140  -17.3213 N   0  0  0  0  0  0  0  0  0  0  0  0
   19.1190  -23.4921  -16.7014 C   0  0  0  0  0  0  0  0  0  0  0  0
   19.9405  -23.4860  -15.6563 N   0  0  0  0  0  0  0  0  0  0  0  0
   21.4291  -19.5005  -14.3648 C   0  0  0  0  0  0  0  0  0  0  0  0
   21.2255  -19.2364  -13.1066 O   0  0  0  0  0  0  0  0  0  0  0  0
   21.7905  -16.2329  -15.5711 C   0  0  0  0  0  0  0  0  0  0  0  0
   20.2974  -16.2053  -15.3214 C   0  0  1  0  0  0  0  0  0  0  0  0
   19.5353  -15.8633  -16.5641 C   0  0  0  0  0  0  0  0  0  0  0  0
   19.9180  -17.5279  -14.7231 C   0  0  2  0  0  0  0  0  0  0  0  0
   20.7884  -18.6068  -15.2106 N   0  0  0  0  0  0  0  0  0  0  0  0
   18.5403  -17.8665  -15.1644 C   0  0  0  0  0  0  0  0  0  0  0  0
   17.4357  -17.3119  -14.5189 O   0  0  0  0  0  0  0  0  0  0  0  0
   18.2960  -18.6479  -16.1151 O   0  0  0  0  0  0  0  0  0  0  0  0
  2  3  1  0
  2  1  1  0
  3  4  1  1
  5  6  1  6
  5  3  1  0
  7  5  1  0
  8  7  2  0
  9  7  1  0
 10  9  1  0
 11 12  1  0
 10 11  1  1
 12 16  1  0
 13 14  1  0
 13 12  2  0
 14 15  1  0
 15 16  2  0
 17 10  1  0
 17 18  2  0
 20 19  1  6
 20 22  1  0
 20 21  1  0
 22 23  1  6
 23 17  1  0
 24 22  1  0
 25 24  1  0
 26 24  2  0
M  END
$$$$
