IHV.pdb
     RDKit          3D

 26 26  0  0  1  0  0  0  0  0999 V2000
   29.0302  -19.4584  -15.5548 C   0  0  0  0  0  0  0  0  0  0  0  0
   28.1756  -18.2251  -15.5426 C   0  0  0  0  0  0  0  0  0  0  0  0
   27.3977  -18.0974  -14.2286 C   0  0  2  0  0  0  0  0  0  0  0  0
   28.4243  -18.0146  -13.1192 C   0  0  0  0  0  0  0  0  0  0  0  0
   26.6371  -19.3941  -14.0455 C   0  0  2  0  0  0  0  0  0  0  0  0
   25.7853  -19.5726  -15.1989 N   0  0  0  0  0  0  0  0  0  0  0  0
   25.8417  -19.3575  -12.7665 C   0  0  0  0  0  0  0  0  0  0  0  0
   25.0102  -18.4238  -12.6507 O   0  0  0  0  0  0  0  0  0  0  0  0
   26.0852  -20.3546  -11.8136 N   0  0  0  0  0  0  0  0  0  0  0  0
   25.2384  -20.4475  -10.5727 C   0  0  1  0  0  0  0  0  0  0  0  0
   24.3322  -21.6015  -10.7352 C   0  0  0  0  0  0  0  0  0  0  0  0
   23.1112  -21.3840  -11.5126 C   0  0  0  0  0  0  0  0  0  0  0  0
   22.6619  -20.3463  -12.2745 C   0  0  0  0  0  0  0  0  0  0  0  0
   21.5077  -20.6771  -12.8739 N   0  0  0  0  0  0  0  0  0  0  0  0
   21.2031  -21.9245  -12.5075 C   0  0  0  0  0  0  0  0  0  0  0  0
   22.1561  -22.3625  -11.6907 N   0  0  0  0  0  0  0  0  0  0  0  0
   26.2878  -20.5568   -9.5350 C   0  0  0  0  0  0  0  0  0  0  0  0
   27.3173  -21.2880   -9.8505 O   0  0  0  0  0  0  0  0  0  0  0  0
   28.8239  -18.5383   -7.6914 C   0  0  0  0  0  0  0  0  0  0  0  0
   28.0560  -19.2840   -6.6206 C   0  0  1  0  0  0  0  0  0  0  0  0
   27.1113  -18.3820   -5.8883 C   0  0  0  0  0  0  0  0  0  0  0  0
   27.3874  -20.4539   -7.2804 C   0  0  2  0  0  0  0  0  0  0  0  0
   26.3847  -20.0159   -8.2611 N   0  0  0  0  0  0  0  0  0  0  0  0
   26.6534  -21.2234   -6.2428 C   0  0  0  0  0  0  0  0  0  0  0  0
   25.2772  -21.4202   -6.3510 O   0  0  0  0  0  0  0  0  0  0  0  0
   27.2111  -21.7268   -5.2380 O   0  0  0  0  0  0  0  0  0  0  0  0
  2  3  1  0
  2  1  1  0
  3  4  1  1
  5  6  1  6
  5  3  1  0
  7  5  1  0
  8  7  2  0
  9  7  1  0
 10  9  1  0
 11 12  1  0
 10 11  1  6
 12 16  1  0
 13 14  1  0
 13 12  2  0
 14 15  1  0
 15 16  2  0
 17 10  1  0
 17 18  2  0
 20 19  1  6
 20 22  1  0
 20 21  1  0
 22 23  1  6
 23 17  1  0
 24 22  1  0
 25 24  1  0
 26 24  2  0
M  END
$$$$
