IHV.pdb
     RDKit          3D

 26 26  0  0  1  0  0  0  0  0999 V2000
   28.7137  -20.1300  -20.0730 C   0  0  0  0  0  0  0  0  0  0  0  0
   27.4926  -19.2580  -20.0576 C   0  0  0  0  0  0  0  0  0  0  0  0
   27.0168  -18.9881  -18.6263 C   0  0  2  0  0  0  0  0  0  0  0  0
   26.6775  -20.3320  -18.0177 C   0  0  0  0  0  0  0  0  0  0  0  0
   25.7265  -18.2030  -18.7375 C   0  0  2  0  0  0  0  0  0  0  0  0
   26.0265  -16.9522  -19.3958 N   0  0  0  0  0  0  0  0  0  0  0  0
   25.1285  -17.9839  -17.3721 C   0  0  0  0  0  0  0  0  0  0  0  0
   25.7277  -17.1751  -16.6215 O   0  0  0  0  0  0  0  0  0  0  0  0
   23.9637  -18.6893  -17.0451 N   0  0  0  0  0  0  0  0  0  0  0  0
   23.2873  -18.4726  -15.7180 C   0  0  1  0  0  0  0  0  0  0  0  0
   21.8812  -18.1120  -15.9864 C   0  0  0  0  0  0  0  0  0  0  0  0
   21.0053  -17.9411  -14.8262 C   0  0  0  0  0  0  0  0  0  0  0  0
   21.2364  -17.8698  -13.4844 C   0  0  0  0  0  0  0  0  0  0  0  0
   20.0952  -17.6016  -12.8310 N   0  0  0  0  0  0  0  0  0  0  0  0
   19.1224  -17.4970  -13.7397 C   0  0  0  0  0  0  0  0  0  0  0  0
   19.6529  -17.6980  -14.9419 N   0  0  0  0  0  0  0  0  0  0  0  0
   23.5350  -19.7797  -15.0699 C   0  0  0  0  0  0  0  0  0  0  0  0
   23.4268  -20.8210  -15.8434 O   0  0  0  0  0  0  0  0  0  0  0  0
   26.4286  -21.0849  -12.7781 C   0  0  0  0  0  0  0  0  0  0  0  0
   25.1051  -21.5602  -12.2170 C   0  0  1  0  0  0  0  0  0  0  0  0
   24.7104  -20.7841  -10.9988 C   0  0  0  0  0  0  0  0  0  0  0  0
   24.0983  -21.4973  -13.3276 C   0  0  2  0  0  0  0  0  0  0  0  0
   23.8678  -20.1137  -13.7652 N   0  0  0  0  0  0  0  0  0  0  0  0
   22.7978  -21.9986  -12.8132 C   0  0  0  0  0  0  0  0  0  0  0  0
   21.7255  -21.1254  -12.6335 O   0  0  0  0  0  0  0  0  0  0  0  0
   22.5928  -23.2008  -12.5186 O   0  0  0  0  0  0  0  0  0  0  0  0
  2  3  1  0
  2  1  1  0
  3  4  1  6
  5  6  1  1
  5  3  1  0
  7  5  1  0
  8  7  2  0
  9  7  1  0
 10  9  1  0
 11 12  1  0
 10 11  1  6
 12 16  1  0
 13 14  1  0
 13 12  2  0
 14 15  1  0
 15 16  2  0
 17 10  1  0
 17 18  2  0
 20 19  1  6
 20 22  1  0
 20 21  1  0
 22 23  1  1
 23 17  1  0
 24 22  1  0
 25 24  1  0
 26 24  2  0
M  END
$$$$
