IHV.pdb
     RDKit          3D

 26 26  0  0  1  0  0  0  0  0999 V2000
   18.5322  -12.7374    4.4659 C   0  0  0  0  0  0  0  0  0  0  0  0
   17.6719  -13.6854    3.6832 C   0  0  0  0  0  0  0  0  0  0  0  0
   17.3862  -14.9651    4.4761 C   0  0  2  0  0  0  0  0  0  0  0  0
   18.6978  -15.7127    4.5866 C   0  0  0  0  0  0  0  0  0  0  0  0
   16.4567  -15.8055    3.6256 C   0  0  2  0  0  0  0  0  0  0  0  0
   15.2122  -15.0842    3.4874 N   0  0  0  0  0  0  0  0  0  0  0  0
   16.2492  -17.1574    4.2573 C   0  0  0  0  0  0  0  0  0  0  0  0
   15.3633  -17.2311    5.1441 O   0  0  0  0  0  0  0  0  0  0  0  0
   17.0491  -18.2182    3.8146 N   0  0  0  0  0  0  0  0  0  0  0  0
   16.9502  -19.5720    4.4652 C   0  0  1  0  0  0  0  0  0  0  0  0
   17.3250  -20.5817    3.4556 C   0  0  0  0  0  0  0  0  0  0  0  0
   17.4477  -21.9665    3.9136 C   0  0  0  0  0  0  0  0  0  0  0  0
   17.3315  -22.5594    5.1358 C   0  0  0  0  0  0  0  0  0  0  0  0
   17.4340  -23.8921    5.0162 N   0  0  0  0  0  0  0  0  0  0  0  0
   17.6155  -24.1707    3.7229 C   0  0  0  0  0  0  0  0  0  0  0  0
   17.6258  -23.0253    3.0483 N   0  0  0  0  0  0  0  0  0  0  0  0
   17.8702  -19.3914    5.6101 C   0  0  0  0  0  0  0  0  0  0  0  0
   18.8956  -18.6198    5.3919 O   0  0  0  0  0  0  0  0  0  0  0  0
   17.0149  -19.6695    9.4338 C   0  0  0  0  0  0  0  0  0  0  0  0
   18.3193  -18.9675    9.1206 C   0  0  1  0  0  0  0  0  0  0  0  0
   19.2472  -18.9751   10.2958 C   0  0  0  0  0  0  0  0  0  0  0  0
   18.8921  -19.6117    7.8927 C   0  0  2  0  0  0  0  0  0  0  0  0
   17.8471  -19.8997    6.9007 N   0  0  0  0  0  0  0  0  0  0  0  0
   19.4792  -20.9210    8.2781 C   0  0  0  0  0  0  0  0  0  0  0  0
   18.8216  -22.1098    7.9638 O   0  0  0  0  0  0  0  0  0  0  0  0
   20.5685  -21.0317    8.8906 O   0  0  0  0  0  0  0  0  0  0  0  0
  2  3  1  0
  2  1  1  0
  3  4  1  6
  5  6  1  1
  5  3  1  0
  7  5  1  0
  8  7  2  0
  9  7  1  0
 10  9  1  0
 11 12  1  0
 10 11  1  6
 12 16  1  0
 13 14  1  0
 13 12  2  0
 14 15  1  0
 15 16  2  0
 17 10  1  0
 17 18  2  0
 20 19  1  1
 20 22  1  0
 20 21  1  0
 22 23  1  6
 23 17  1  0
 24 22  1  0
 25 24  1  0
 26 24  2  0
M  END
$$$$
