IHV.pdb
     RDKit          3D

 26 26  0  0  1  0  0  0  0  0999 V2000
   28.9015  -18.6005  -16.4320 C   0  0  0  0  0  0  0  0  0  0  0  0
   28.7951  -19.6375  -15.3527 C   0  0  0  0  0  0  0  0  0  0  0  0
   27.9609  -19.1310  -14.1714 C   0  0  2  0  0  0  0  0  0  0  0  0
   28.7033  -19.5233  -12.9119 C   0  0  0  0  0  0  0  0  0  0  0  0
   26.6614  -19.9084  -14.1915 C   0  0  2  0  0  0  0  0  0  0  0  0
   25.9443  -19.5384  -15.3902 N   0  0  0  0  0  0  0  0  0  0  0  0
   25.8585  -19.6168  -12.9504 C   0  0  0  0  0  0  0  0  0  0  0  0
   25.3500  -18.4717  -12.8686 O   0  0  0  0  0  0  0  0  0  0  0  0
   25.7401  -20.6313  -11.9922 N   0  0  0  0  0  0  0  0  0  0  0  0
   24.8794  -20.4332  -10.7733 C   0  0  1  0  0  0  0  0  0  0  0  0
   23.7575  -21.3889  -10.8582 C   0  0  0  0  0  0  0  0  0  0  0  0
   22.5947  -20.9811  -11.6483 C   0  0  0  0  0  0  0  0  0  0  0  0
   22.3295  -19.8932  -12.4261 C   0  0  0  0  0  0  0  0  0  0  0  0
   21.1400  -20.0347  -13.0311 N   0  0  0  0  0  0  0  0  0  0  0  0
   20.6293  -21.2089  -12.6524 C   0  0  0  0  0  0  0  0  0  0  0  0
   21.4908  -21.7889  -11.8226 N   0  0  0  0  0  0  0  0  0  0  0  0
   25.8731  -20.6556   -9.6995 C   0  0  0  0  0  0  0  0  0  0  0  0
   26.6165  -21.7159   -9.8315 O   0  0  0  0  0  0  0  0  0  0  0  0
   26.9419  -18.1994   -6.4924 C   0  0  0  0  0  0  0  0  0  0  0  0
   27.9492  -19.1904   -7.0362 C   0  0  1  0  0  0  0  0  0  0  0  0
   28.9704  -19.5622   -6.0060 C   0  0  0  0  0  0  0  0  0  0  0  0
   27.1809  -20.3601   -7.5770 C   0  0  2  0  0  0  0  0  0  0  0  0
   26.1694  -19.9326   -8.5532 N   0  0  0  0  0  0  0  0  0  0  0  0
   26.4420  -20.9970   -6.4564 C   0  0  0  0  0  0  0  0  0  0  0  0
   27.1332  -21.6336   -5.4262 O   0  0  0  0  0  0  0  0  0  0  0  0
   25.1902  -20.9999   -6.3727 O   0  0  0  0  0  0  0  0  0  0  0  0
  2  3  1  0
  2  1  1  0
  3  4  1  1
  5  6  1  6
  5  3  1  0
  7  5  1  0
  8  7  2  0
  9  7  1  0
 10  9  1  0
 11 12  1  0
 10 11  1  1
 12 16  1  0
 13 14  1  0
 13 12  2  0
 14 15  1  0
 15 16  2  0
 17 10  1  0
 17 18  2  0
 20 19  1  1
 20 22  1  0
 20 21  1  0
 22 23  1  6
 23 17  1  0
 24 22  1  0
 25 24  1  0
 26 24  2  0
M  END
$$$$
