IHV.pdb
     RDKit          3D

 26 26  0  0  1  0  0  0  0  0999 V2000
   22.7122  -13.7749  -22.0356 C   0  0  0  0  0  0  0  0  0  0  0  0
   23.6282  -13.8618  -20.8503 C   0  0  0  0  0  0  0  0  0  0  0  0
   23.6429  -15.2749  -20.2579 C   0  0  2  0  0  0  0  0  0  0  0  0
   22.2313  -15.5707  -19.7981 C   0  0  0  0  0  0  0  0  0  0  0  0
   24.5187  -15.2202  -19.0237 C   0  0  2  0  0  0  0  0  0  0  0  0
   25.8613  -14.8972  -19.4494 N   0  0  0  0  0  0  0  0  0  0  0  0
   24.4690  -16.5344  -18.2887 C   0  0  0  0  0  0  0  0  0  0  0  0
   24.9075  -17.5372  -18.9041 O   0  0  0  0  0  0  0  0  0  0  0  0
   23.9443  -16.5406  -16.9902 N   0  0  0  0  0  0  0  0  0  0  0  0
   23.8921  -17.8170  -16.1941 C   0  0  1  0  0  0  0  0  0  0  0  0
   24.9158  -17.7251  -15.1345 C   0  0  0  0  0  0  0  0  0  0  0  0
   26.2996  -18.0053  -15.5205 C   0  0  0  0  0  0  0  0  0  0  0  0
   26.9031  -18.2525  -16.7179 C   0  0  0  0  0  0  0  0  0  0  0  0
   28.2318  -18.3493  -16.5561 N   0  0  0  0  0  0  0  0  0  0  0  0
   28.4972  -18.1656  -15.2604 C   0  0  0  0  0  0  0  0  0  0  0  0
   27.3478  -17.9578  -14.6258 N   0  0  0  0  0  0  0  0  0  0  0  0
   22.4761  -17.8116  -15.7642 C   0  0  0  0  0  0  0  0  0  0  0  0
   22.0665  -16.7178  -15.1897 O   0  0  0  0  0  0  0  0  0  0  0  0
   19.3224  -17.9786  -17.6424 C   0  0  0  0  0  0  0  0  0  0  0  0
   19.1086  -18.9157  -16.4726 C   0  0  1  0  0  0  0  0  0  0  0  0
   19.1861  -20.3509  -16.8925 C   0  0  0  0  0  0  0  0  0  0  0  0
   20.1000  -18.5411  -15.4105 C   0  0  2  0  0  0  0  0  0  0  0  0
   21.4800  -18.7725  -15.8592 N   0  0  0  0  0  0  0  0  0  0  0  0
   19.8861  -19.4233  -14.2344 C   0  0  0  0  0  0  0  0  0  0  0  0
   18.7605  -19.2633  -13.4270 O   0  0  0  0  0  0  0  0  0  0  0  0
   20.6811  -20.3371  -13.9074 O   0  0  0  0  0  0  0  0  0  0  0  0
  2  3  1  0
  2  1  1  0
  3  4  1  1
  5  6  1  6
  5  3  1  0
  7  5  1  0
  8  7  2  0
  9  7  1  0
 10  9  1  0
 11 12  1  0
 10 11  1  1
 12 16  1  0
 13 14  1  0
 13 12  2  0
 14 15  1  0
 15 16  2  0
 17 10  1  0
 17 18  2  0
 20 19  1  6
 20 22  1  0
 20 21  1  0
 22 23  1  6
 23 17  1  0
 24 22  1  0
 25 24  1  0
 26 24  2  0
M  END
$$$$
