IHV.pdb
     RDKit          3D

 26 26  0  0  1  0  0  0  0  0999 V2000
   43.3855   -0.8576   -7.0187 C   0  0  0  0  0  0  0  0  0  0  0  0
   42.3135   -1.6371   -7.7222 C   0  0  0  0  0  0  0  0  0  0  0  0
   42.1154   -3.0161   -7.0841 C   0  0  2  0  0  0  0  0  0  0  0  0
   43.4027   -3.7841   -7.2944 C   0  0  0  0  0  0  0  0  0  0  0  0
   41.0359   -3.7146   -7.8842 C   0  0  2  0  0  0  0  0  0  0  0  0
   39.8981   -2.8270   -7.9592 N   0  0  0  0  0  0  0  0  0  0  0  0
   40.6754   -5.0282   -7.2406 C   0  0  0  0  0  0  0  0  0  0  0  0
   39.9907   -4.9677   -6.1897 O   0  0  0  0  0  0  0  0  0  0  0  0
   41.1246   -6.2045   -7.8537 N   0  0  0  0  0  0  0  0  0  0  0  0
   40.8151   -7.5472   -7.2480 C   0  0  1  0  0  0  0  0  0  0  0  0
   39.5996   -8.0652   -7.9064 C   0  0  0  0  0  0  0  0  0  0  0  0
   39.0919   -9.3577   -7.4436 C   0  0  0  0  0  0  0  0  0  0  0  0
   39.4163  -10.1672   -6.3955 C   0  0  0  0  0  0  0  0  0  0  0  0
   38.5778  -11.2136   -6.3410 N   0  0  0  0  0  0  0  0  0  0  0  0
   37.7086  -11.0898   -7.3472 C   0  0  0  0  0  0  0  0  0  0  0  0
   38.0040   -9.9808   -8.0179 N   0  0  0  0  0  0  0  0  0  0  0  0
   42.0820   -8.2642   -7.5139 C   0  0  0  0  0  0  0  0  0  0  0  0
   42.7287   -7.8879   -8.5791 O   0  0  0  0  0  0  0  0  0  0  0  0
   43.6822  -11.7498   -5.8016 C   0  0  0  0  0  0  0  0  0  0  0  0
   44.6526  -10.6376   -6.1387 C   0  0  1  0  0  0  0  0  0  0  0  0
   46.0096  -11.1719   -6.4780 C   0  0  0  0  0  0  0  0  0  0  0  0
   44.0336   -9.8182   -7.2326 C   0  0  2  0  0  0  0  0  0  0  0  0
   42.7258   -9.2841   -6.8284 N   0  0  0  0  0  0  0  0  0  0  0  0
   43.7847  -10.7027   -8.4001 C   0  0  0  0  0  0  0  0  0  0  0  0
   44.7943  -10.9442   -9.3312 O   0  0  0  0  0  0  0  0  0  0  0  0
   42.6847  -11.2679   -8.6116 O   0  0  0  0  0  0  0  0  0  0  0  0
  2  3  1  0
  2  1  1  0
  3  4  1  6
  5  6  1  1
  5  3  1  0
  7  5  1  0
  8  7  2  0
  9  7  1  0
 10  9  1  0
 11 12  1  0
 10 11  1  6
 12 16  1  0
 13 14  1  0
 13 12  2  0
 14 15  1  0
 15 16  2  0
 17 10  1  0
 17 18  2  0
 20 19  1  6
 20 22  1  0
 20 21  1  0
 22 23  1  1
 23 17  1  0
 24 22  1  0
 25 24  1  0
 26 24  2  0
M  END
$$$$
