MEV.pdb
     RDKit          3D

 25 24  0  0  1  0  0  0  0  0999 V2000
    8.3562  -11.5205   19.9905 C   0  0  0  0  0  0  0  0  0  0  0  0
    8.5417  -12.8620   18.7694 S   0  0  0  0  0  0  0  0  0  0  0  0
    6.9690  -13.7744   18.5998 C   0  0  0  0  0  0  0  0  0  0  0  0
    6.6887  -14.4520   19.9139 C   0  0  0  0  0  0  0  0  0  0  0  0
    7.6057  -15.6012   20.2082 C   0  0  2  0  0  0  0  0  0  0  0  0
    7.2082  -16.7216   19.3893 N   0  0  0  0  0  0  0  0  0  0  0  0
    7.6816  -15.9304   21.6360 C   0  0  0  0  0  0  0  0  0  0  0  0
    6.6387  -15.9017   22.3257 O   0  0  0  0  0  0  0  0  0  0  0  0
    8.9223  -16.2797   22.2392 N   0  0  0  0  0  0  0  0  0  0  0  0
    9.0939  -16.5281   23.6313 C   0  0  1  0  0  0  0  0  0  0  0  0
   10.2286  -17.5050   23.8244 C   0  0  0  0  0  0  0  0  0  0  0  0
   10.4070  -17.7847   25.2864 C   0  0  0  0  0  0  0  0  0  0  0  0
   11.5831  -18.6608   25.5246 C   0  0  0  0  0  0  0  0  0  0  0  0
   12.5494  -18.2008   26.1673 O   0  0  0  0  0  0  0  0  0  0  0  0
    9.3821  -15.3195   24.4236 C   0  0  0  0  0  0  0  0  0  0  0  0
   10.4227  -14.6216   24.2800 O   0  0  0  0  0  0  0  0  0  0  0  0
   11.6243  -19.9551   25.0542 O   0  0  0  0  0  0  0  0  0  0  0  0
    7.3773  -11.6939   27.0029 C   0  0  0  0  0  0  0  0  0  0  0  0
    7.2476  -13.0128   26.2407 C   0  0  2  0  0  0  0  0  0  0  0  0
    6.1952  -13.8745   26.8871 C   0  0  0  0  0  0  0  0  0  0  0  0
    8.6034  -13.6935   26.1827 C   0  0  2  0  0  0  0  0  0  0  0  0
    8.4324  -14.9224   25.4016 N   0  0  0  0  0  0  0  0  0  0  0  0
    8.9650  -14.0206   27.5911 C   0  0  0  0  0  0  0  0  0  0  0  0
    9.0086  -15.3492   27.9830 O   0  0  0  0  0  0  0  0  0  0  0  0
    9.2369  -13.1516   28.4571 O   0  0  0  0  0  0  0  0  0  0  0  0
  2  1  1  0
  3  2  1  0
  4  3  1  0
  4  5  1  0
  5  6  1  6
  7  5  1  0
  7  9  1  0
  8  7  2  0
 10  9  1  0
 10 11  1  6
 12 11  1  0
 13 12  1  0
 14 13  2  0
 15 10  1  0
 16 15  2  0
 17 13  1  0
 19 18  1  1
 20 19  1  0
 21 22  1  6
 21 19  1  0
 22 15  1  0
 23 21  1  0
 24 23  1  0
 25 23  2  0
M  END
$$$$
