MEV.pdb
     RDKit          3D

 25 24  0  0  1  0  0  0  0  0999 V2000
    9.1700  -11.8109   19.4850 C   0  0  0  0  0  0  0  0  0  0  0  0
    7.9779  -12.3792   18.2276 S   0  0  0  0  0  0  0  0  0  0  0  0
    7.7098  -14.1782   18.3889 C   0  0  0  0  0  0  0  0  0  0  0  0
    7.6305  -14.4996   19.8569 C   0  0  0  0  0  0  0  0  0  0  0  0
    7.5594  -15.9683   20.1503 C   0  0  2  0  0  0  0  0  0  0  0  0
    6.3753  -16.5013   19.5198 N   0  0  0  0  0  0  0  0  0  0  0  0
    7.6369  -16.2770   21.5826 C   0  0  0  0  0  0  0  0  0  0  0  0
    6.5863  -16.2973   22.2608 O   0  0  0  0  0  0  0  0  0  0  0  0
    8.8878  -16.5516   22.2030 N   0  0  0  0  0  0  0  0  0  0  0  0
    9.0635  -16.7336   23.6048 C   0  0  1  0  0  0  0  0  0  0  0  0
   10.2328  -17.6588   23.8420 C   0  0  0  0  0  0  0  0  0  0  0  0
   10.4531  -17.8217   25.3159 C   0  0  0  0  0  0  0  0  0  0  0  0
   11.6014  -18.7241   25.5893 C   0  0  0  0  0  0  0  0  0  0  0  0
   11.5479  -19.9003   25.1746 O   0  0  0  0  0  0  0  0  0  0  0  0
    9.3040  -15.4824   24.3451 C   0  0  0  0  0  0  0  0  0  0  0  0
   10.2753  -14.7110   24.1166 O   0  0  0  0  0  0  0  0  0  0  0  0
   12.7095  -18.2899   26.2835 O   0  0  0  0  0  0  0  0  0  0  0  0
    7.3871  -11.9794   27.1524 C   0  0  0  0  0  0  0  0  0  0  0  0
    7.2291  -13.2742   26.3549 C   0  0  2  0  0  0  0  0  0  0  0  0
    6.2236  -14.1696   27.0296 C   0  0  0  0  0  0  0  0  0  0  0  0
    8.5866  -13.9357   26.1992 C   0  0  2  0  0  0  0  0  0  0  0  0
    8.3887  -15.1296   25.3716 N   0  0  0  0  0  0  0  0  0  0  0  0
    9.0206  -14.3225   27.5716 C   0  0  0  0  0  0  0  0  0  0  0  0
    9.4821  -13.3398   28.4330 O   0  0  0  0  0  0  0  0  0  0  0  0
    8.9928  -15.5032   28.0009 O   0  0  0  0  0  0  0  0  0  0  0  0
  2  1  1  0
  3  2  1  0
  4  3  1  0
  4  5  1  0
  5  6  1  1
  7  5  1  0
  7  9  1  0
  8  7  2  0
 10  9  1  0
 10 11  1  6
 12 11  1  0
 13 12  1  0
 14 13  2  0
 15 10  1  0
 16 15  2  0
 17 13  1  0
 19 18  1  1
 20 19  1  0
 21 22  1  6
 21 19  1  0
 22 15  1  0
 23 21  1  0
 24 23  1  0
 25 23  2  0
M  END
$$$$
