MEV.pdb
     RDKit          3D

 25 24  0  0  1  0  0  0  0  0999 V2000
    8.9449  -11.5786   19.7248 C   0  0  0  0  0  0  0  0  0  0  0  0
    7.8971  -12.2287   18.3815 S   0  0  0  0  0  0  0  0  0  0  0  0
    7.7832  -14.0472   18.5024 C   0  0  0  0  0  0  0  0  0  0  0  0
    7.5701  -14.3975   19.9502 C   0  0  0  0  0  0  0  0  0  0  0  0
    7.9451  -15.8085   20.2915 C   0  0  2  0  0  0  0  0  0  0  0  0
    7.1121  -16.6999   19.5199 N   0  0  0  0  0  0  0  0  0  0  0  0
    7.9051  -16.0861   21.7316 C   0  0  0  0  0  0  0  0  0  0  0  0
    6.8078  -16.0493   22.3305 O   0  0  0  0  0  0  0  0  0  0  0  0
    9.0951  -16.3947   22.4485 N   0  0  0  0  0  0  0  0  0  0  0  0
    9.1492  -16.6096   23.8556 C   0  0  1  0  0  0  0  0  0  0  0  0
   10.2103  -17.6397   24.1593 C   0  0  0  0  0  0  0  0  0  0  0  0
   10.2323  -17.9185   25.6322 C   0  0  0  0  0  0  0  0  0  0  0  0
   11.2723  -18.9240   25.9715 C   0  0  0  0  0  0  0  0  0  0  0  0
   11.2081  -20.0516   25.4398 O   0  0  0  0  0  0  0  0  0  0  0  0
    9.4451  -15.3948   24.6354 C   0  0  0  0  0  0  0  0  0  0  0  0
   10.4556  -14.6665   24.4379 O   0  0  0  0  0  0  0  0  0  0  0  0
   12.2928  -18.6361   26.8513 O   0  0  0  0  0  0  0  0  0  0  0  0
    6.4807  -13.9131   27.4380 C   0  0  0  0  0  0  0  0  0  0  0  0
    7.5025  -13.0986   26.6444 C   0  0  2  0  0  0  0  0  0  0  0  0
    6.9351  -12.7431   25.2955 C   0  0  0  0  0  0  0  0  0  0  0  0
    8.7987  -13.8825   26.5433 C   0  0  2  0  0  0  0  0  0  0  0  0
    8.5391  -15.0275   25.6652 N   0  0  0  0  0  0  0  0  0  0  0  0
    9.1114  -14.3487   27.9240 C   0  0  0  0  0  0  0  0  0  0  0  0
    9.5614  -13.4294   28.8585 O   0  0  0  0  0  0  0  0  0  0  0  0
    8.9898  -15.5425   28.2973 O   0  0  0  0  0  0  0  0  0  0  0  0
  2  1  1  0
  3  2  1  0
  4  3  1  0
  4  5  1  0
  5  6  1  6
  7  5  1  0
  7  9  1  0
  8  7  2  0
 10  9  1  0
 10 11  1  6
 12 11  1  0
 13 12  1  0
 14 13  2  0
 15 10  1  0
 16 15  2  0
 17 13  1  0
 19 18  1  6
 20 19  1  0
 21 22  1  6
 21 19  1  0
 22 15  1  0
 23 21  1  0
 24 23  1  0
 25 23  2  0
M  END
$$$$
