MEV.pdb
     RDKit          3D

 25 24  0  0  1  0  0  0  0  0999 V2000
    8.2451  -11.8136   17.7948 C   0  0  0  0  0  0  0  0  0  0  0  0
    7.9399  -12.4096   19.4909 S   0  0  0  0  0  0  0  0  0  0  0  0
    6.8857  -13.9000   19.4492 C   0  0  0  0  0  0  0  0  0  0  0  0
    6.6251  -14.3167   20.8715 C   0  0  0  0  0  0  0  0  0  0  0  0
    7.7357  -15.1209   21.4781 C   0  0  2  0  0  0  0  0  0  0  0  0
    7.9419  -16.2965   20.6662 N   0  0  0  0  0  0  0  0  0  0  0  0
    7.5184  -15.4314   22.8955 C   0  0  0  0  0  0  0  0  0  0  0  0
    7.2485  -14.5037   23.6896 O   0  0  0  0  0  0  0  0  0  0  0  0
    7.6113  -16.7691   23.3719 N   0  0  0  0  0  0  0  0  0  0  0  0
    7.5470  -17.1357   24.7468 C   0  0  1  0  0  0  0  0  0  0  0  0
    7.3568  -18.6297   24.8532 C   0  0  0  0  0  0  0  0  0  0  0  0
    7.1998  -19.0145   26.2936 C   0  0  0  0  0  0  0  0  0  0  0  0
    6.9426  -20.4711   26.4340 C   0  0  0  0  0  0  0  0  0  0  0  0
    6.7131  -20.9296   27.5721 O   0  0  0  0  0  0  0  0  0  0  0  0
    8.7438  -16.7639   25.5218 C   0  0  0  0  0  0  0  0  0  0  0  0
    9.9206  -17.0514   25.1709 O   0  0  0  0  0  0  0  0  0  0  0  0
    6.9531  -21.3128   25.3433 O   0  0  0  0  0  0  0  0  0  0  0  0
    8.6081  -13.2877   27.2684 C   0  0  0  0  0  0  0  0  0  0  0  0
    9.1885  -14.3011   28.2550 C   0  0  2  0  0  0  0  0  0  0  0  0
   10.2655  -13.6495   29.0817 C   0  0  0  0  0  0  0  0  0  0  0  0
    9.6928  -15.5122   27.4910 C   0  0  2  0  0  0  0  0  0  0  0  0
    8.5569  -16.0415   26.7298 N   0  0  0  0  0  0  0  0  0  0  0  0
   10.1330  -16.4983   28.5182 C   0  0  0  0  0  0  0  0  0  0  0  0
   11.3510  -16.3107   29.1521 O   0  0  0  0  0  0  0  0  0  0  0  0
    9.4562  -17.5041   28.8491 O   0  0  0  0  0  0  0  0  0  0  0  0
  2  1  1  0
  3  2  1  0
  4  3  1  0
  4  5  1  0
  5  6  1  6
  7  5  1  0
  7  9  1  0
  8  7  2  0
 10  9  1  0
 10 11  1  6
 12 11  1  0
 13 12  1  0
 14 13  2  0
 15 10  1  0
 16 15  2  0
 17 13  1  0
 19 18  1  6
 20 19  1  0
 21 22  1  1
 21 19  1  0
 22 15  1  0
 23 21  1  0
 24 23  1  0
 25 23  2  0
M  END
$$$$
