MEV.pdb
     RDKit          3D

 25 24  0  0  1  0  0  0  0  0999 V2000
    7.6185  -10.8228   20.8393 C   0  0  0  0  0  0  0  0  0  0  0  0
    8.2099  -12.3237   19.9893 S   0  0  0  0  0  0  0  0  0  0  0  0
    7.5797  -13.8122   20.8390 C   0  0  0  0  0  0  0  0  0  0  0  0
    8.0582  -15.0148   20.0713 C   0  0  0  0  0  0  0  0  0  0  0  0
    7.6153  -16.3213   20.6586 C   0  0  2  0  0  0  0  0  0  0  0  0
    6.2117  -16.4971   20.3705 N   0  0  0  0  0  0  0  0  0  0  0  0
    7.9302  -16.4509   22.0858 C   0  0  0  0  0  0  0  0  0  0  0  0
    7.0945  -16.0662   22.9330 O   0  0  0  0  0  0  0  0  0  0  0  0
    9.1690  -17.0065   22.5120 N   0  0  0  0  0  0  0  0  0  0  0  0
    9.5055  -17.2636   23.8721 C   0  0  1  0  0  0  0  0  0  0  0  0
   10.6828  -18.2075   23.9216 C   0  0  0  0  0  0  0  0  0  0  0  0
   10.3084  -19.5110   23.2828 C   0  0  0  0  0  0  0  0  0  0  0  0
   11.4474  -20.4648   23.3047 C   0  0  0  0  0  0  0  0  0  0  0  0
   12.5261  -20.0947   23.8124 O   0  0  0  0  0  0  0  0  0  0  0  0
    9.8469  -16.0549   24.6427 C   0  0  0  0  0  0  0  0  0  0  0  0
   10.6826  -15.1929   24.2564 O   0  0  0  0  0  0  0  0  0  0  0  0
   11.3342  -21.7342   22.7811 O   0  0  0  0  0  0  0  0  0  0  0  0
    7.5802  -13.5275   25.8445 C   0  0  0  0  0  0  0  0  0  0  0  0
    8.2529  -14.0263   27.1236 C   0  0  2  0  0  0  0  0  0  0  0  0
    8.4650  -12.8751   28.0710 C   0  0  0  0  0  0  0  0  0  0  0  0
    9.5481  -14.7329   26.7658 C   0  0  2  0  0  0  0  0  0  0  0  0
    9.1962  -15.8536   25.8885 N   0  0  0  0  0  0  0  0  0  0  0  0
   10.1148  -15.2372   28.0488 C   0  0  0  0  0  0  0  0  0  0  0  0
   10.8389  -14.3697   28.8512 O   0  0  0  0  0  0  0  0  0  0  0  0
    9.9734  -16.4188   28.4526 O   0  0  0  0  0  0  0  0  0  0  0  0
  2  1  1  0
  3  2  1  0
  4  3  1  0
  4  5  1  0
  5  6  1  1
  7  5  1  0
  7  9  1  0
  8  7  2  0
 10  9  1  0
 10 11  1  6
 12 11  1  0
 13 12  1  0
 14 13  2  0
 15 10  1  0
 16 15  2  0
 17 13  1  0
 19 18  1  6
 20 19  1  0
 21 22  1  6
 21 19  1  0
 22 15  1  0
 23 21  1  0
 24 23  1  0
 25 23  2  0
M  END
$$$$
