MEV.pdb
     RDKit          3D

 25 24  0  0  1  0  0  0  0  0999 V2000
    7.8158  -11.0106   19.8805 C   0  0  0  0  0  0  0  0  0  0  0  0
    8.4632  -12.6719   19.4982 S   0  0  0  0  0  0  0  0  0  0  0  0
    7.1169  -13.9024   19.5854 C   0  0  0  0  0  0  0  0  0  0  0  0
    7.7143  -15.2554   19.3081 C   0  0  0  0  0  0  0  0  0  0  0  0
    8.9335  -15.5563   20.1274 C   0  0  2  0  0  0  0  0  0  0  0  0
    9.5007  -16.7986   19.6596 N   0  0  0  0  0  0  0  0  0  0  0  0
    8.6766  -15.5491   21.5719 C   0  0  0  0  0  0  0  0  0  0  0  0
    8.1581  -14.5383   22.0950 O   0  0  0  0  0  0  0  0  0  0  0  0
    9.0096  -16.6737   22.3778 N   0  0  0  0  0  0  0  0  0  0  0  0
    8.7283  -16.7720   23.7707 C   0  0  1  0  0  0  0  0  0  0  0  0
    9.3605  -18.0297   24.3166 C   0  0  0  0  0  0  0  0  0  0  0  0
    8.9262  -19.2068   23.4960 C   0  0  0  0  0  0  0  0  0  0  0  0
    9.8584  -20.3513   23.6658 C   0  0  0  0  0  0  0  0  0  0  0  0
    9.3822  -21.4750   23.9279 O   0  0  0  0  0  0  0  0  0  0  0  0
    9.2142  -15.6275   24.5615 C   0  0  0  0  0  0  0  0  0  0  0  0
   10.3558  -15.1117   24.4156 O   0  0  0  0  0  0  0  0  0  0  0  0
   11.2215  -20.1949   23.5403 O   0  0  0  0  0  0  0  0  0  0  0  0
    6.4288  -13.9015   27.2442 C   0  0  0  0  0  0  0  0  0  0  0  0
    7.5590  -13.0841   26.6181 C   0  0  2  0  0  0  0  0  0  0  0  0
    7.0824  -12.4517   25.3372 C   0  0  0  0  0  0  0  0  0  0  0  0
    8.7690  -13.9776   26.4120 C   0  0  2  0  0  0  0  0  0  0  0  0
    8.3451  -15.0779   25.5407 N   0  0  0  0  0  0  0  0  0  0  0  0
    9.1373  -14.4962   27.7599 C   0  0  0  0  0  0  0  0  0  0  0  0
    9.7100  -13.6320   28.6796 O   0  0  0  0  0  0  0  0  0  0  0  0
    8.9571  -15.6872   28.1178 O   0  0  0  0  0  0  0  0  0  0  0  0
  2  1  1  0
  3  2  1  0
  4  3  1  0
  4  5  1  0
  5  6  1  6
  7  5  1  0
  7  9  1  0
  8  7  2  0
 10  9  1  0
 10 11  1  1
 12 11  1  0
 13 12  1  0
 14 13  2  0
 15 10  1  0
 16 15  2  0
 17 13  1  0
 19 18  1  6
 20 19  1  0
 21 22  1  6
 21 19  1  0
 22 15  1  0
 23 21  1  0
 24 23  1  0
 25 23  2  0
M  END
$$$$
