MEV.pdb
     RDKit          3D

 25 24  0  0  1  0  0  0  0  0999 V2000
    8.7378  -11.9050   19.7146 C   0  0  0  0  0  0  0  0  0  0  0  0
    7.7965  -12.3499   18.2176 S   0  0  0  0  0  0  0  0  0  0  0  0
    7.6013  -14.1628   18.1181 C   0  0  0  0  0  0  0  0  0  0  0  0
    7.3722  -14.6760   19.5141 C   0  0  0  0  0  0  0  0  0  0  0  0
    8.6362  -14.9160   20.2840 C   0  0  2  0  0  0  0  0  0  0  0  0
    9.4600  -15.8322   19.5318 N   0  0  0  0  0  0  0  0  0  0  0  0
    8.3992  -15.3555   21.6636 C   0  0  0  0  0  0  0  0  0  0  0  0
    7.5278  -14.7756   22.3482 O   0  0  0  0  0  0  0  0  0  0  0  0
    9.1465  -16.4280   22.2263 N   0  0  0  0  0  0  0  0  0  0  0  0
    9.0506  -16.8442   23.5852 C   0  0  1  0  0  0  0  0  0  0  0  0
    9.9079  -18.0701   23.7898 C   0  0  0  0  0  0  0  0  0  0  0  0
    9.8498  -18.4889   25.2281 C   0  0  0  0  0  0  0  0  0  0  0  0
   10.6734  -19.7024   25.4663 C   0  0  0  0  0  0  0  0  0  0  0  0
   10.7555  -20.1491   26.6290 O   0  0  0  0  0  0  0  0  0  0  0  0
    9.4691  -15.8179   24.5562 C   0  0  0  0  0  0  0  0  0  0  0  0
   10.6405  -15.3551   24.6226 O   0  0  0  0  0  0  0  0  0  0  0  0
   11.3391  -20.3343   24.4388 O   0  0  0  0  0  0  0  0  0  0  0  0
    7.7336  -12.1848   27.3737 C   0  0  0  0  0  0  0  0  0  0  0  0
    7.5453  -13.3123   26.3585 C   0  0  2  0  0  0  0  0  0  0  0  0
    6.2873  -14.0779   26.6736 C   0  0  0  0  0  0  0  0  0  0  0  0
    8.7800  -14.1955   26.3556 C   0  0  2  0  0  0  0  0  0  0  0  0
    8.4961  -15.3253   25.4654 N   0  0  0  0  0  0  0  0  0  0  0  0
    8.9542  -14.6712   27.7574 C   0  0  0  0  0  0  0  0  0  0  0  0
    9.4916  -13.8076   28.6987 O   0  0  0  0  0  0  0  0  0  0  0  0
    8.6384  -15.8249   28.1426 O   0  0  0  0  0  0  0  0  0  0  0  0
  2  1  1  0
  3  2  1  0
  4  3  1  0
  4  5  1  0
  5  6  1  6
  7  5  1  0
  7  9  1  0
  8  7  2  0
 10  9  1  0
 10 11  1  6
 12 11  1  0
 13 12  1  0
 14 13  2  0
 15 10  1  0
 16 15  2  0
 17 13  1  0
 19 18  1  1
 20 19  1  0
 21 22  1  6
 21 19  1  0
 22 15  1  0
 23 21  1  0
 24 23  1  0
 25 23  2  0
M  END
$$$$
