MEV.pdb
     RDKit          3D

 25 24  0  0  1  0  0  0  0  0999 V2000
    7.4233  -12.2063   17.5730 C   0  0  0  0  0  0  0  0  0  0  0  0
    7.6799  -13.0749   19.1557 S   0  0  0  0  0  0  0  0  0  0  0  0
    6.4379  -14.3995   19.3498 C   0  0  0  0  0  0  0  0  0  0  0  0
    6.6191  -15.0002   20.7176 C   0  0  0  0  0  0  0  0  0  0  0  0
    8.0485  -15.0594   21.1664 C   0  0  2  0  0  0  0  0  0  0  0  0
    8.7654  -15.9501   20.2853 N   0  0  0  0  0  0  0  0  0  0  0  0
    8.1964  -15.4098   22.5835 C   0  0  0  0  0  0  0  0  0  0  0  0
    7.5675  -14.7548   23.4435 O   0  0  0  0  0  0  0  0  0  0  0  0
    9.0430  -16.4806   22.9857 N   0  0  0  0  0  0  0  0  0  0  0  0
    9.2706  -16.8557   24.3409 C   0  0  1  0  0  0  0  0  0  0  0  0
   10.2192  -18.0297   24.3778 C   0  0  0  0  0  0  0  0  0  0  0  0
   10.4008  -18.4840   25.7949 C   0  0  0  0  0  0  0  0  0  0  0  0
   11.2928  -19.6700   25.8669 C   0  0  0  0  0  0  0  0  0  0  0  0
   12.2873  -19.6239   26.6200 O   0  0  0  0  0  0  0  0  0  0  0  0
    9.8333  -15.7780   25.1735 C   0  0  0  0  0  0  0  0  0  0  0  0
   11.0174  -15.3575   25.0656 O   0  0  0  0  0  0  0  0  0  0  0  0
   11.0439  -20.8047   25.1261 O   0  0  0  0  0  0  0  0  0  0  0  0
    7.1439  -13.6649   27.7310 C   0  0  0  0  0  0  0  0  0  0  0  0
    8.4200  -13.0710   27.1341 C   0  0  2  0  0  0  0  0  0  0  0  0
    8.1197  -12.4640   25.7891 C   0  0  0  0  0  0  0  0  0  0  0  0
    9.4879  -14.1477   27.0624 C   0  0  2  0  0  0  0  0  0  0  0  0
    8.9918  -15.1826   26.1500 N   0  0  0  0  0  0  0  0  0  0  0  0
    9.6210  -14.6941   28.4427 C   0  0  0  0  0  0  0  0  0  0  0  0
   10.2505  -13.9284   29.4112 O   0  0  0  0  0  0  0  0  0  0  0  0
    9.1903  -15.8236   28.7860 O   0  0  0  0  0  0  0  0  0  0  0  0
  2  1  1  0
  3  2  1  0
  4  3  1  0
  4  5  1  0
  5  6  1  6
  7  5  1  0
  7  9  1  0
  8  7  2  0
 10  9  1  0
 10 11  1  6
 12 11  1  0
 13 12  1  0
 14 13  2  0
 15 10  1  0
 16 15  2  0
 17 13  1  0
 19 18  1  6
 20 19  1  0
 21 22  1  6
 21 19  1  0
 22 15  1  0
 23 21  1  0
 24 23  1  0
 25 23  2  0
M  END
$$$$
