MEV.pdb
     RDKit          3D

 25 24  0  0  1  0  0  0  0  0999 V2000
    8.9917  -11.6298   20.3995 C   0  0  0  0  0  0  0  0  0  0  0  0
    7.5159  -12.2367   19.5168 S   0  0  0  0  0  0  0  0  0  0  0  0
    7.4836  -14.0624   19.5355 C   0  0  0  0  0  0  0  0  0  0  0  0
    7.8312  -14.5123   20.9288 C   0  0  0  0  0  0  0  0  0  0  0  0
    8.0228  -15.9941   21.0544 C   0  0  2  0  0  0  0  0  0  0  0  0
    6.8345  -16.6498   20.5625 N   0  0  0  0  0  0  0  0  0  0  0  0
    8.3942  -16.4171   22.4093 C   0  0  0  0  0  0  0  0  0  0  0  0
    7.4959  -16.5990   23.2602 O   0  0  0  0  0  0  0  0  0  0  0  0
    9.7578  -16.6209   22.7620 N   0  0  0  0  0  0  0  0  0  0  0  0
   10.2027  -16.9743   24.0681 C   0  0  1  0  0  0  0  0  0  0  0  0
   11.5239  -17.6974   23.9630 C   0  0  0  0  0  0  0  0  0  0  0  0
   11.3540  -18.9358   23.1353 C   0  0  0  0  0  0  0  0  0  0  0  0
   12.6502  -19.6377   22.9494 C   0  0  0  0  0  0  0  0  0  0  0  0
   12.9304  -20.0836   21.8176 O   0  0  0  0  0  0  0  0  0  0  0  0
   10.3738  -15.8244   24.9735 C   0  0  0  0  0  0  0  0  0  0  0  0
   11.2568  -14.9375   24.8176 O   0  0  0  0  0  0  0  0  0  0  0  0
   13.5363  -19.8024   23.9915 O   0  0  0  0  0  0  0  0  0  0  0  0
    7.3498  -14.5710   26.4419 C   0  0  0  0  0  0  0  0  0  0  0  0
    8.4327  -13.9624   27.3332 C   0  0  2  0  0  0  0  0  0  0  0  0
    8.5876  -12.4975   27.0200 C   0  0  0  0  0  0  0  0  0  0  0  0
    9.7254  -14.7373   27.1513 C   0  0  2  0  0  0  0  0  0  0  0  0
    9.4930  -15.7126   26.0816 N   0  0  0  0  0  0  0  0  0  0  0  0
    9.9770  -15.4356   28.4438 C   0  0  0  0  0  0  0  0  0  0  0  0
   10.4188  -14.6989   29.5313 O   0  0  0  0  0  0  0  0  0  0  0  0
    9.8101  -16.6701   28.6091 O   0  0  0  0  0  0  0  0  0  0  0  0
  2  1  1  0
  3  2  1  0
  4  3  1  0
  4  5  1  0
  5  6  1  1
  7  5  1  0
  7  9  1  0
  8  7  2  0
 10  9  1  0
 10 11  1  6
 12 11  1  0
 13 12  1  0
 14 13  2  0
 15 10  1  0
 16 15  2  0
 17 13  1  0
 19 18  1  6
 20 19  1  0
 21 22  1  6
 21 19  1  0
 22 15  1  0
 23 21  1  0
 24 23  1  0
 25 23  2  0
M  END
$$$$
