MEV.pdb
     RDKit          3D

 25 24  0  0  1  0  0  0  0  0999 V2000
    7.8039  -11.5782   21.5236 C   0  0  0  0  0  0  0  0  0  0  0  0
    8.2690  -12.6705   20.1395 S   0  0  0  0  0  0  0  0  0  0  0  0
    7.0207  -13.9877   19.9365 C   0  0  0  0  0  0  0  0  0  0  0  0
    6.9560  -14.7601   21.2263 C   0  0  0  0  0  0  0  0  0  0  0  0
    7.6716  -16.0768   21.1779 C   0  0  2  0  0  0  0  0  0  0  0  0
    6.7817  -17.0574   20.6031 N   0  0  0  0  0  0  0  0  0  0  0  0
    8.2180  -16.4869   22.4764 C   0  0  0  0  0  0  0  0  0  0  0  0
    7.4325  -16.7712   23.4072 O   0  0  0  0  0  0  0  0  0  0  0  0
    9.6235  -16.5637   22.6852 N   0  0  0  0  0  0  0  0  0  0  0  0
   10.2302  -16.9838   23.9036 C   0  0  1  0  0  0  0  0  0  0  0  0
   11.5059  -17.7286   23.5912 C   0  0  0  0  0  0  0  0  0  0  0  0
   12.1373  -18.1997   24.8666 C   0  0  0  0  0  0  0  0  0  0  0  0
   13.4226  -18.8967   24.6024 C   0  0  0  0  0  0  0  0  0  0  0  0
   14.1355  -19.2225   25.5739 O   0  0  0  0  0  0  0  0  0  0  0  0
   10.5515  -15.8789   24.8240 C   0  0  0  0  0  0  0  0  0  0  0  0
   11.4406  -15.0143   24.5945 O   0  0  0  0  0  0  0  0  0  0  0  0
   13.8349  -19.1858   23.3199 O   0  0  0  0  0  0  0  0  0  0  0  0
    7.8042  -14.7967   27.7205 C   0  0  0  0  0  0  0  0  0  0  0  0
    9.0244  -13.9494   27.3592 C   0  0  2  0  0  0  0  0  0  0  0  0
    8.7047  -13.0718   26.1779 C   0  0  0  0  0  0  0  0  0  0  0  0
   10.2102  -14.8621   27.1032 C   0  0  2  0  0  0  0  0  0  0  0  0
    9.8164  -15.7863   26.0353 N   0  0  0  0  0  0  0  0  0  0  0  0
   10.4437  -15.6066   28.3731 C   0  0  0  0  0  0  0  0  0  0  0  0
   10.9963  -14.9371   29.4534 O   0  0  0  0  0  0  0  0  0  0  0  0
   10.1654  -16.8226   28.5253 O   0  0  0  0  0  0  0  0  0  0  0  0
  2  1  1  0
  3  2  1  0
  4  3  1  0
  4  5  1  0
  5  6  1  1
  7  5  1  0
  7  9  1  0
  8  7  2  0
 10  9  1  0
 10 11  1  6
 12 11  1  0
 13 12  1  0
 14 13  2  0
 15 10  1  0
 16 15  2  0
 17 13  1  0
 19 18  1  6
 20 19  1  0
 21 22  1  6
 21 19  1  0
 22 15  1  0
 23 21  1  0
 24 23  1  0
 25 23  2  0
M  END
$$$$
