MEV.pdb
     RDKit          3D

 25 24  0  0  1  0  0  0  0  0999 V2000
    8.7418  -11.9015   19.5200 C   0  0  0  0  0  0  0  0  0  0  0  0
    8.1434  -12.8031   18.0523 S   0  0  0  0  0  0  0  0  0  0  0  0
    7.9960  -14.5836   18.4299 C   0  0  0  0  0  0  0  0  0  0  0  0
    7.3185  -14.7136   19.7673 C   0  0  0  0  0  0  0  0  0  0  0  0
    7.2438  -16.1236   20.2716 C   0  0  2  0  0  0  0  0  0  0  0  0
    6.3796  -16.8757   19.3933 N   0  0  0  0  0  0  0  0  0  0  0  0
    6.8498  -16.2139   21.6821 C   0  0  0  0  0  0  0  0  0  0  0  0
    5.6602  -15.9941   21.9992 O   0  0  0  0  0  0  0  0  0  0  0  0
    7.8022  -16.5470   22.6856 N   0  0  0  0  0  0  0  0  0  0  0  0
    7.5368  -16.5112   24.0847 C   0  0  1  0  0  0  0  0  0  0  0  0
    7.8471  -17.8622   24.6830 C   0  0  0  0  0  0  0  0  0  0  0  0
    7.4394  -17.8780   26.1255 C   0  0  0  0  0  0  0  0  0  0  0  0
    7.7359  -19.1925   26.7515 C   0  0  0  0  0  0  0  0  0  0  0  0
    7.3761  -19.3865   27.9310 O   0  0  0  0  0  0  0  0  0  0  0  0
    8.3108  -15.4916   24.8146 C   0  0  0  0  0  0  0  0  0  0  0  0
    9.5485  -15.3082   24.6565 O   0  0  0  0  0  0  0  0  0  0  0  0
    8.3924  -20.1876   26.0609 O   0  0  0  0  0  0  0  0  0  0  0  0
    6.2436  -13.4616   27.9045 C   0  0  0  0  0  0  0  0  0  0  0  0
    7.2783  -12.7031   27.0729 C   0  0  2  0  0  0  0  0  0  0  0  0
    6.5911  -11.9579   25.9593 C   0  0  0  0  0  0  0  0  0  0  0  0
    8.3240  -13.6785   26.5632 C   0  0  2  0  0  0  0  0  0  0  0  0
    7.6204  -14.6721   25.7462 N   0  0  0  0  0  0  0  0  0  0  0  0
    8.9141  -14.3239   27.7701 C   0  0  0  0  0  0  0  0  0  0  0  0
    9.7642  -13.5868   28.5792 O   0  0  0  0  0  0  0  0  0  0  0  0
    8.6836  -15.5136   28.1032 O   0  0  0  0  0  0  0  0  0  0  0  0
  2  1  1  0
  3  2  1  0
  4  3  1  0
  4  5  1  0
  5  6  1  6
  7  5  1  0
  7  9  1  0
  8  7  2  0
 10  9  1  0
 10 11  1  1
 12 11  1  0
 13 12  1  0
 14 13  2  0
 15 10  1  0
 16 15  2  0
 17 13  1  0
 19 18  1  6
 20 19  1  0
 21 22  1  6
 21 19  1  0
 22 15  1  0
 23 21  1  0
 24 23  1  0
 25 23  2  0
M  END
$$$$
