MEV.pdb
     RDKit          3D

 25 24  0  0  1  0  0  0  0  0999 V2000
    5.8234  -12.3029   26.0757 C   0  0  0  0  0  0  0  0  0  0  0  0
    7.0441  -11.4973   24.9867 S   0  0  0  0  0  0  0  0  0  0  0  0
    7.9403  -12.7563   24.0138 C   0  0  0  0  0  0  0  0  0  0  0  0
    6.9166  -13.6024   23.3061 C   0  0  0  0  0  0  0  0  0  0  0  0
    7.5115  -14.6838   22.4548 C   0  0  2  0  0  0  0  0  0  0  0  0
    6.4393  -15.3630   21.7672 N   0  0  0  0  0  0  0  0  0  0  0  0
    8.3838  -15.5958   23.2032 C   0  0  0  0  0  0  0  0  0  0  0  0
    7.8698  -16.4983   23.8999 O   0  0  0  0  0  0  0  0  0  0  0  0
    9.7995  -15.4639   23.1441 N   0  0  0  0  0  0  0  0  0  0  0  0
   10.7140  -16.3633   23.7638 C   0  0  1  0  0  0  0  0  0  0  0  0
   11.8847  -16.5952   22.8391 C   0  0  0  0  0  0  0  0  0  0  0  0
   11.8970  -18.0268   22.3941 C   0  0  0  0  0  0  0  0  0  0  0  0
   13.0319  -18.2914   21.4724 C   0  0  0  0  0  0  0  0  0  0  0  0
   13.2905  -17.4500   20.5873 O   0  0  0  0  0  0  0  0  0  0  0  0
   11.2326  -15.8908   25.0596 C   0  0  0  0  0  0  0  0  0  0  0  0
   12.2323  -15.1309   25.1770 O   0  0  0  0  0  0  0  0  0  0  0  0
   13.7935  -19.4348   21.5772 O   0  0  0  0  0  0  0  0  0  0  0  0
    8.7521  -15.6749   28.3031 C   0  0  0  0  0  0  0  0  0  0  0  0
   10.1429  -15.0446   28.2277 C   0  0  2  0  0  0  0  0  0  0  0  0
   10.0684  -13.7297   27.4974 C   0  0  0  0  0  0  0  0  0  0  0  0
   11.1013  -16.0222   27.5716 C   0  0  2  0  0  0  0  0  0  0  0  0
   10.5663  -16.3170   26.2388 N   0  0  0  0  0  0  0  0  0  0  0  0
   11.0884  -17.2488   28.4183 C   0  0  0  0  0  0  0  0  0  0  0  0
   11.7349  -17.2268   29.6439 O   0  0  0  0  0  0  0  0  0  0  0  0
   10.5181  -18.3171   28.0828 O   0  0  0  0  0  0  0  0  0  0  0  0
  2  1  1  0
  3  2  1  0
  4  3  1  0
  4  5  1  0
  5  6  1  1
  7  5  1  0
  7  9  1  0
  8  7  2  0
 10  9  1  0
 10 11  1  6
 12 11  1  0
 13 12  1  0
 14 13  2  0
 15 10  1  0
 16 15  2  0
 17 13  1  0
 19 18  1  6
 20 19  1  0
 21 22  1  6
 21 19  1  0
 22 15  1  0
 23 21  1  0
 24 23  1  0
 25 23  2  0
M  END
$$$$
