ADC.pdb
     RDKit          3D

 20 19  0  0  1  0  0  0  0  0999 V2000
   -3.0329  -26.8015   27.6111 C   0  0  0  0  0  0  0  0  0  0  0  0
   -4.1619  -26.2626   26.7569 C   0  0  2  0  0  0  0  0  0  0  0  0
   -3.6609  -25.0731   26.1021 N   0  0  0  0  0  0  0  0  0  0  0  0
   -5.2482  -25.8664   27.6740 C   0  0  0  0  0  0  0  0  0  0  0  0
   -5.8350  -26.7481   28.3391 O   0  0  0  0  0  0  0  0  0  0  0  0
   -5.6283  -24.5015   27.8047 N   0  0  0  0  0  0  0  0  0  0  0  0
   -6.7219  -24.0800   28.6615 C   0  0  1  0  0  0  0  0  0  0  0  0
   -6.5783  -22.6479   29.0566 C   0  0  0  0  0  0  0  0  0  0  0  0
   -7.5448  -22.1813   30.0540 C   0  0  0  0  0  0  0  0  0  0  0  0
   -7.8720  -20.9586   30.0013 O   0  0  0  0  0  0  0  0  0  0  0  0
   -8.0414  -24.3514   28.0012 C   0  0  0  0  0  0  0  0  0  0  0  0
   -8.3127  -23.8804   26.8699 O   0  0  0  0  0  0  0  0  0  0  0  0
   -8.1230  -22.9411   31.0317 O   0  0  0  0  0  0  0  0  0  0  0  0
   -8.9834  -25.1496   28.6723 N   0  0  0  0  0  0  0  0  0  0  0  0
  -10.2608  -25.5376   28.1137 C   0  0  1  0  0  0  0  0  0  0  0  0
  -10.3492  -27.0511   27.9292 C   0  0  0  0  0  0  0  0  0  0  0  0
   -9.1928  -27.5614   26.6568 S   0  0  0  0  0  0  0  0  0  0  0  0
  -11.3662  -25.1652   29.0296 C   0  0  0  0  0  0  0  0  0  0  0  0
  -11.0930  -24.9216   30.2289 O   0  0  0  0  0  0  0  0  0  0  0  0
  -12.6730  -25.0786   28.6102 O   0  0  0  0  0  0  0  0  0  0  0  0
  2  1  1  1
  2  4  1  0
  2  3  1  0
  4  5  2  0
  6  4  1  0
  6  7  1  0
  8  9  1  0
  7  8  1  6
  9 10  2  0
 11  7  1  0
 11 12  2  0
 13  9  1  0
 14 11  1  0
 15 14  1  0
 15 18  1  0
 15 16  1  1
 17 16  1  0
 18 19  2  0
 18 20  1  0
M  END
$$$$
