ADC.pdb
     RDKit          3D

 20 19  0  0  1  0  0  0  0  0999 V2000
    7.0589  -13.1258   19.4194 C   0  0  0  0  0  0  0  0  0  0  0  0
    8.3479  -13.1804   20.2132 C   0  0  2  0  0  0  0  0  0  0  0  0
    9.3301  -13.8316   19.3731 N   0  0  0  0  0  0  0  0  0  0  0  0
    8.0977  -14.0384   21.3876 C   0  0  0  0  0  0  0  0  0  0  0  0
    7.0785  -13.8356   22.0834 O   0  0  0  0  0  0  0  0  0  0  0  0
    8.9998  -15.0843   21.7298 N   0  0  0  0  0  0  0  0  0  0  0  0
    8.8363  -15.8880   22.9277 C   0  0  1  0  0  0  0  0  0  0  0  0
    9.5931  -17.1704   22.8259 C   0  0  0  0  0  0  0  0  0  0  0  0
    9.0209  -18.1550   21.9042 C   0  0  0  0  0  0  0  0  0  0  0  0
    7.7920  -18.0265   21.6247 O   0  0  0  0  0  0  0  0  0  0  0  0
    9.2238  -15.1016   24.1451 C   0  0  0  0  0  0  0  0  0  0  0  0
   10.3919  -14.6680   24.2957 O   0  0  0  0  0  0  0  0  0  0  0  0
    9.6888  -19.1949   21.3208 O   0  0  0  0  0  0  0  0  0  0  0  0
    8.2515  -14.8523   25.1285 N   0  0  0  0  0  0  0  0  0  0  0  0
    8.4966  -14.0927   26.3357 C   0  0  1  0  0  0  0  0  0  0  0  0
    7.2004  -13.5164   26.9016 C   0  0  0  0  0  0  0  0  0  0  0  0
    6.4824  -12.3879   25.7067 S   0  0  0  0  0  0  0  0  0  0  0  0
    9.0619  -14.9632   27.3950 C   0  0  0  0  0  0  0  0  0  0  0  0
    9.1683  -16.1915   27.1663 O   0  0  0  0  0  0  0  0  0  0  0  0
    9.4708  -14.4714   28.6124 O   0  0  0  0  0  0  0  0  0  0  0  0
  2  1  1  6
  2  4  1  0
  2  3  1  0
  4  5  2  0
  6  4  1  0
  6  7  1  0
  8  9  1  0
  7  8  1  6
  9 10  2  0
 11  7  1  0
 11 12  2  0
 13  9  1  0
 14 11  1  0
 15 14  1  0
 15 18  1  0
 15 16  1  1
 17 16  1  0
 18 19  2  0
 18 20  1  0
M  END
$$$$
