ADC.pdb
     RDKit          3D

 20 19  0  0  1  0  0  0  0  0999 V2000
    8.3585  -12.3418   19.6352 C   0  0  0  0  0  0  0  0  0  0  0  0
    8.3725  -13.8443   19.4427 C   0  0  2  0  0  0  0  0  0  0  0  0
    7.2534  -14.1671   18.5836 N   0  0  0  0  0  0  0  0  0  0  0  0
    8.1342  -14.4530   20.7659 C   0  0  0  0  0  0  0  0  0  0  0  0
    6.9653  -14.5139   21.2062 O   0  0  0  0  0  0  0  0  0  0  0  0
    9.2152  -14.9659   21.5360 N   0  0  0  0  0  0  0  0  0  0  0  0
    9.0077  -15.6946   22.7744 C   0  0  1  0  0  0  0  0  0  0  0  0
    9.9754  -16.8232   22.9064 C   0  0  0  0  0  0  0  0  0  0  0  0
    9.8561  -17.8635   21.8818 C   0  0  0  0  0  0  0  0  0  0  0  0
    8.6987  -18.3404   21.6865 O   0  0  0  0  0  0  0  0  0  0  0  0
    9.0670  -14.7628   23.9486 C   0  0  0  0  0  0  0  0  0  0  0  0
   10.0931  -14.0805   24.1874 O   0  0  0  0  0  0  0  0  0  0  0  0
   10.8746  -18.3645   21.1207 O   0  0  0  0  0  0  0  0  0  0  0  0
    7.9462  -14.6608   24.7900 N   0  0  0  0  0  0  0  0  0  0  0  0
    7.8968  -13.8341   25.9769 C   0  0  1  0  0  0  0  0  0  0  0  0
    6.4623  -13.4339   26.3152 C   0  0  0  0  0  0  0  0  0  0  0  0
    6.3951  -11.6669   26.6150 S   0  0  0  0  0  0  0  0  0  0  0  0
    8.4094  -14.5777   27.1531 C   0  0  0  0  0  0  0  0  0  0  0  0
    8.4346  -15.8304   27.1044 O   0  0  0  0  0  0  0  0  0  0  0  0
    8.8555  -13.9432   28.2887 O   0  0  0  0  0  0  0  0  0  0  0  0
  2  1  1  1
  2  4  1  0
  2  3  1  0
  4  5  2  0
  6  4  1  0
  6  7  1  0
  8  9  1  0
  7  8  1  1
  9 10  2  0
 11  7  1  0
 11 12  2  0
 13  9  1  0
 14 11  1  0
 15 14  1  0
 15 18  1  0
 15 16  1  1
 17 16  1  0
 18 19  2  0
 18 20  1  0
M  END
$$$$
