ADC.pdb
     RDKit          3D

 20 19  0  0  1  0  0  0  0  0999 V2000
    8.1001  -12.2951   19.6204 C   0  0  0  0  0  0  0  0  0  0  0  0
    8.3029  -13.7568   19.2784 C   0  0  2  0  0  0  0  0  0  0  0  0
    7.2311  -14.1295   18.3801 N   0  0  0  0  0  0  0  0  0  0  0  0
    8.1469  -14.5208   20.5314 C   0  0  0  0  0  0  0  0  0  0  0  0
    6.9969  -14.8105   20.9284 O   0  0  0  0  0  0  0  0  0  0  0  0
    9.2852  -14.9256   21.2831 N   0  0  0  0  0  0  0  0  0  0  0  0
    9.1711  -15.6946   22.5092 C   0  0  1  0  0  0  0  0  0  0  0  0
   10.2205  -16.7533   22.5832 C   0  0  0  0  0  0  0  0  0  0  0  0
   10.2202  -17.5394   23.8195 C   0  0  0  0  0  0  0  0  0  0  0  0
    9.0909  -17.9080   24.2596 O   0  0  0  0  0  0  0  0  0  0  0  0
    9.2028  -14.7871   23.7035 C   0  0  0  0  0  0  0  0  0  0  0  0
   10.2299  -14.1262   23.9922 O   0  0  0  0  0  0  0  0  0  0  0  0
   11.3219  -17.9098   24.5383 O   0  0  0  0  0  0  0  0  0  0  0  0
    8.0543  -14.6837   24.5065 N   0  0  0  0  0  0  0  0  0  0  0  0
    7.9568  -13.8360   25.6754 C   0  0  1  0  0  0  0  0  0  0  0  0
    6.5770  -13.1897   25.7789 C   0  0  0  0  0  0  0  0  0  0  0  0
    6.5296  -12.1209   27.2183 S   0  0  0  0  0  0  0  0  0  0  0  0
    8.1373  -14.6314   26.9140 C   0  0  0  0  0  0  0  0  0  0  0  0
    7.6250  -15.7744   26.9709 O   0  0  0  0  0  0  0  0  0  0  0  0
    8.8435  -14.1601   27.9959 O   0  0  0  0  0  0  0  0  0  0  0  0
  2  1  1  1
  2  4  1  0
  2  3  1  0
  4  5  2  0
  6  4  1  0
  6  7  1  0
  8  9  1  0
  7  8  1  1
  9 10  2  0
 11  7  1  0
 11 12  2  0
 13  9  1  0
 14 11  1  0
 15 14  1  0
 15 18  1  0
 15 16  1  1
 17 16  1  0
 18 19  2  0
 18 20  1  0
M  END
$$$$
