ADC.pdb
     RDKit          3D

 20 19  0  0  1  0  0  0  0  0999 V2000
   -3.1525  -26.6026   24.8407 C   0  0  0  0  0  0  0  0  0  0  0  0
   -3.3122  -25.1483   25.2331 C   0  0  2  0  0  0  0  0  0  0  0  0
   -1.9788  -24.6094   25.3959 N   0  0  0  0  0  0  0  0  0  0  0  0
   -3.9869  -25.1250   26.5454 C   0  0  0  0  0  0  0  0  0  0  0  0
   -5.1602  -25.5487   26.6340 O   0  0  0  0  0  0  0  0  0  0  0  0
   -3.3177  -24.6285   27.6988 N   0  0  0  0  0  0  0  0  0  0  0  0
   -3.9383  -24.6193   29.0112 C   0  0  1  0  0  0  0  0  0  0  0  0
   -2.9132  -24.6764   30.0945 C   0  0  0  0  0  0  0  0  0  0  0  0
   -2.2278  -25.9641   30.2305 C   0  0  0  0  0  0  0  0  0  0  0  0
   -2.9365  -26.9513   30.5884 O   0  0  0  0  0  0  0  0  0  0  0  0
   -4.8438  -23.4319   29.1560 C   0  0  0  0  0  0  0  0  0  0  0  0
   -4.4873  -22.2907   28.7744 O   0  0  0  0  0  0  0  0  0  0  0  0
   -0.8997  -26.1966   30.0077 O   0  0  0  0  0  0  0  0  0  0  0  0
   -6.1128  -23.6138   29.7315 N   0  0  0  0  0  0  0  0  0  0  0  0
   -7.1149  -22.5741   29.8282 C   0  0  1  0  0  0  0  0  0  0  0  0
   -7.6982  -22.2363   28.4578 C   0  0  0  0  0  0  0  0  0  0  0  0
   -9.0166  -21.0364   28.6544 S   0  0  0  0  0  0  0  0  0  0  0  0
   -8.2536  -23.0224   30.6658 C   0  0  0  0  0  0  0  0  0  0  0  0
   -8.5813  -24.2322   30.6318 O   0  0  0  0  0  0  0  0  0  0  0  0
   -8.9580  -22.1609   31.4737 O   0  0  0  0  0  0  0  0  0  0  0  0
  2  1  1  1
  2  4  1  0
  2  3  1  0
  4  5  2  0
  6  4  1  0
  6  7  1  0
  8  9  1  0
  7  8  1  1
  9 10  2  0
 11  7  1  0
 11 12  2  0
 13  9  1  0
 14 11  1  0
 15 14  1  0
 15 18  1  0
 15 16  1  6
 17 16  1  0
 18 19  2  0
 18 20  1  0
M  END
$$$$
