ADC.pdb
     RDKit          3D

 20 19  0  0  1  0  0  0  0  0999 V2000
    7.9006  -12.4189   19.7271 C   0  0  0  0  0  0  0  0  0  0  0  0
    8.1346  -13.8714   19.3664 C   0  0  2  0  0  0  0  0  0  0  0  0
    7.0257  -14.2795   18.5306 N   0  0  0  0  0  0  0  0  0  0  0  0
    8.0797  -14.6442   20.6224 C   0  0  0  0  0  0  0  0  0  0  0  0
    6.9658  -14.9706   21.0880 O   0  0  0  0  0  0  0  0  0  0  0  0
    9.2741  -15.0165   21.3003 N   0  0  0  0  0  0  0  0  0  0  0  0
    9.2579  -15.7447   22.5561 C   0  0  1  0  0  0  0  0  0  0  0  0
   10.3890  -16.7156   22.6329 C   0  0  0  0  0  0  0  0  0  0  0  0
   10.4598  -17.4859   23.8770 C   0  0  0  0  0  0  0  0  0  0  0  0
    9.3611  -17.8966   24.3557 O   0  0  0  0  0  0  0  0  0  0  0  0
    9.2544  -14.7928   23.7156 C   0  0  0  0  0  0  0  0  0  0  0  0
   10.1917  -13.9767   23.8911 O   0  0  0  0  0  0  0  0  0  0  0  0
   11.5976  -17.8007   24.5654 O   0  0  0  0  0  0  0  0  0  0  0  0
    8.1757  -14.8251   24.6155 N   0  0  0  0  0  0  0  0  0  0  0  0
    8.0342  -13.9288   25.7429 C   0  0  1  0  0  0  0  0  0  0  0  0
    6.6629  -13.2566   25.7488 C   0  0  0  0  0  0  0  0  0  0  0  0
    6.5403  -12.1729   27.1727 S   0  0  0  0  0  0  0  0  0  0  0  0
    8.1366  -14.6756   27.0200 C   0  0  0  0  0  0  0  0  0  0  0  0
    7.8978  -15.9065   27.0141 O   0  0  0  0  0  0  0  0  0  0  0  0
    8.4827  -14.0670   28.2037 O   0  0  0  0  0  0  0  0  0  0  0  0
  2  1  1  1
  2  4  1  0
  2  3  1  0
  4  5  2  0
  6  4  1  0
  6  7  1  0
  8  9  1  0
  7  8  1  1
  9 10  2  0
 11  7  1  0
 11 12  2  0
 13  9  1  0
 14 11  1  0
 15 14  1  0
 15 18  1  0
 15 16  1  6
 17 16  1  0
 18 19  2  0
 18 20  1  0
M  END
$$$$
