FRI.pdb
     RDKit          3D

 31 31  0  0  1  0  0  0  0  0999 V2000
    5.4277  -16.4891   25.0375 N   0  0  0  0  0  0  0  0  0  0  0  0
    6.5353  -15.7051   24.5988 C   0  0  1  0  0  0  0  0  0  0  0  0
    7.0675  -14.7331   25.6113 C   0  0  0  0  0  0  0  0  0  0  0  0
    6.4874  -13.3719   25.3916 C   0  0  0  0  0  0  0  0  0  0  0  0
    7.1613  -12.5426   24.5208 C   0  0  0  0  0  0  0  0  0  0  0  0
    6.6853  -11.2689   24.2687 C   0  0  0  0  0  0  0  0  0  0  0  0
    5.5332  -10.8501   24.9009 C   0  0  0  0  0  0  0  0  0  0  0  0
    4.8646  -11.6831   25.7697 C   0  0  0  0  0  0  0  0  0  0  0  0
    5.3270  -12.9531   26.0299 C   0  0  0  0  0  0  0  0  0  0  0  0
    7.6584  -16.6364   24.2446 C   0  0  0  0  0  0  0  0  0  0  0  0
    7.8440  -17.6673   24.9044 O   0  0  0  0  0  0  0  0  0  0  0  0
   14.3662  -19.5600   19.0238 N   0  0  0  0  0  0  0  0  0  0  0  0
   13.2086  -20.1321   19.6141 C   0  0  0  0  0  0  0  0  0  0  0  0
   13.1959  -21.3649   19.9831 N   0  0  0  0  0  0  0  0  0  0  0  0
   12.0276  -19.3695   19.8229 N   0  0  0  0  0  0  0  0  0  0  0  0
   11.5615  -19.1277   21.1412 C   0  0  0  0  0  0  0  0  0  0  0  0
   11.7494  -17.7126   21.6416 C   0  0  0  0  0  0  0  0  0  0  0  0
   10.3979  -17.0439   21.7004 C   0  0  0  0  0  0  0  0  0  0  0  0
    9.7850  -17.0410   23.0636 C   0  0  2  0  0  0  0  0  0  0  0  0
    8.5327  -16.3935   23.1759 N   0  0  0  0  0  0  0  0  0  0  0  0
   10.6820  -16.5611   24.1413 C   0  0  0  0  0  0  0  0  0  0  0  0
   11.3557  -15.5016   23.9946 O   0  0  0  0  0  0  0  0  0  0  0  0
   12.3886  -21.7452   20.4852 C   0  0  0  0  0  0  0  0  0  0  0  0
   10.4799  -14.5556   29.4881 C   0  0  0  0  0  0  0  0  0  0  0  0
   11.4373  -15.2694   28.5220 C   0  0  2  0  0  0  0  0  0  0  0  0
   10.6535  -15.9334   27.4235 C   0  0  0  0  0  0  0  0  0  0  0  0
    9.6010  -16.8107   28.0179 C   0  0  2  0  0  0  0  0  0  0  0  0
   11.5900  -16.6123   26.4710 N   0  0  0  0  0  0  0  0  0  0  0  0
   10.8404  -17.2363   25.3734 C   0  0  0  0  0  0  0  0  0  0  0  0
   12.3285  -17.6853   27.1608 O   0  0  0  0  0  0  0  0  0  0  0  0
   11.9516  -18.8757   27.0102 O   0  0  0  0  0  0  0  0  0  0  0  0
  2  1  1  1
  2 10  1  0
  3  2  1  0
  3  4  1  0
  4  9  2  0
  4  5  1  0
  5  6  2  0
  6  7  1  0
  8  7  2  0
  9  8  1  0
 10 11  2  0
 13 15  1  0
 13 12  1  0
 14 13  2  0
 16 15  1  0
 16 17  1  0
 19 18  1  6
 18 17  1  0
 20 19  1  0
 20 10  1  0
 21 19  1  0
 21 22  2  0
 23 24  1  0
 24 25  1  0
 25 26  1  6
 27 28  1  1
 27 25  1  0
 28 21  1  0
 29 31  1  0
 29 27  1  0
 30 29  2  0
M  END
$$$$
