FRI.pdb
     RDKit          3D

 31 31  0  0  1  0  0  0  0  0999 V2000
    6.0374  -18.1122   20.3781 N   0  0  0  0  0  0  0  0  0  0  0  0
    6.7485  -16.8862   20.5362 C   0  0  1  0  0  0  0  0  0  0  0  0
    5.9070  -15.7098   20.9378 C   0  0  0  0  0  0  0  0  0  0  0  0
    6.7271  -14.4590   20.9640 C   0  0  0  0  0  0  0  0  0  0  0  0
    7.2890  -14.0596   19.7704 C   0  0  0  0  0  0  0  0  0  0  0  0
    8.0610  -12.9134   19.7173 C   0  0  0  0  0  0  0  0  0  0  0  0
    8.2548  -12.1855   20.8727 C   0  0  0  0  0  0  0  0  0  0  0  0
    7.6908  -12.5897   22.0620 C   0  0  0  0  0  0  0  0  0  0  0  0
    6.9203  -13.7283   22.1294 C   0  0  0  0  0  0  0  0  0  0  0  0
    7.7827  -17.0784   21.6075 C   0  0  0  0  0  0  0  0  0  0  0  0
    7.4489  -17.4782   22.7306 O   0  0  0  0  0  0  0  0  0  0  0  0
   14.2537  -15.4197   24.0852 N   0  0  0  0  0  0  0  0  0  0  0  0
   15.1589  -16.5122   24.1395 C   0  0  0  0  0  0  0  0  0  0  0  0
   16.2057  -16.4661   24.8866 N   0  0  0  0  0  0  0  0  0  0  0  0
   14.9436  -17.6933   23.3788 N   0  0  0  0  0  0  0  0  0  0  0  0
   13.8427  -17.7737   22.4872 C   0  0  0  0  0  0  0  0  0  0  0  0
   12.5044  -17.3914   23.0798 C   0  0  0  0  0  0  0  0  0  0  0  0
   11.5088  -17.2456   21.9553 C   0  0  0  0  0  0  0  0  0  0  0  0
   10.1104  -16.9904   22.4169 C   0  0  2  0  0  0  0  0  0  0  0  0
    9.1449  -16.8220   21.3973 N   0  0  0  0  0  0  0  0  0  0  0  0
    9.9778  -15.8912   23.4022 C   0  0  0  0  0  0  0  0  0  0  0  0
   10.4730  -14.7522   23.1671 O   0  0  0  0  0  0  0  0  0  0  0  0
   16.8535  -17.2585   24.9170 C   0  0  0  0  0  0  0  0  0  0  0  0
    6.9737  -12.0650   26.3758 C   0  0  0  0  0  0  0  0  0  0  0  0
    8.1739  -13.0068   26.5545 C   0  0  2  0  0  0  0  0  0  0  0  0
    8.1232  -14.1003   25.5232 C   0  0  0  0  0  0  0  0  0  0  0  0
    6.8209  -14.8248   25.6236 C   0  0  2  0  0  0  0  0  0  0  0  0
    9.3447  -14.9608   25.6356 N   0  0  0  0  0  0  0  0  0  0  0  0
    9.3062  -16.0373   24.6378 C   0  0  0  0  0  0  0  0  0  0  0  0
    9.3984  -15.5980   26.9636 O   0  0  0  0  0  0  0  0  0  0  0  0
    9.5621  -14.8735   27.9785 O   0  0  0  0  0  0  0  0  0  0  0  0
  2  1  1  1
  2 10  1  0
  3  2  1  0
  3  4  1  0
  4  9  2  0
  4  5  1  0
  5  6  2  0
  6  7  1  0
  8  7  2  0
  9  8  1  0
 10 11  2  0
 13 15  1  0
 13 12  1  0
 14 13  2  0
 16 15  1  0
 16 17  1  0
 19 18  1  6
 18 17  1  0
 20 19  1  0
 20 10  1  0
 21 19  1  0
 21 22  2  0
 23 24  1  0
 24 25  1  0
 25 26  1  6
 27 28  1  1
 27 25  1  0
 28 21  1  0
 29 31  1  0
 29 27  1  0
 30 29  2  0
M  END
$$$$
