FRI.pdb
     RDKit          3D

 31 31  0  0  1  0  0  0  0  0999 V2000
    5.9604  -16.0902   21.2028 N   0  0  0  0  0  0  0  0  0  0  0  0
    7.3352  -15.8698   21.5114 C   0  0  1  0  0  0  0  0  0  0  0  0
    7.7350  -14.4288   21.6411 C   0  0  0  0  0  0  0  0  0  0  0  0
    7.6943  -13.7482   20.3096 C   0  0  0  0  0  0  0  0  0  0  0  0
    8.4817  -14.2846   19.3135 C   0  0  0  0  0  0  0  0  0  0  0  0
    8.4966  -13.7085   18.0564 C   0  0  0  0  0  0  0  0  0  0  0  0
    7.7145  -12.5966   17.8227 C   0  0  0  0  0  0  0  0  0  0  0  0
    6.9301  -12.0655   18.8220 C   0  0  0  0  0  0  0  0  0  0  0  0
    6.9056  -12.6285   20.0776 C   0  0  0  0  0  0  0  0  0  0  0  0
    7.6333  -16.5329   22.8250 C   0  0  0  0  0  0  0  0  0  0  0  0
    6.8621  -16.3917   23.7831 O   0  0  0  0  0  0  0  0  0  0  0  0
   13.8358  -19.5437   24.0545 N   0  0  0  0  0  0  0  0  0  0  0  0
   13.8116  -19.8354   22.6652 C   0  0  0  0  0  0  0  0  0  0  0  0
   14.8724  -19.7155   21.9465 N   0  0  0  0  0  0  0  0  0  0  0  0
   12.6236  -20.2723   22.0189 N   0  0  0  0  0  0  0  0  0  0  0  0
   11.3783  -20.1982   22.6949 C   0  0  0  0  0  0  0  0  0  0  0  0
   11.2304  -19.0320   23.6470 C   0  0  0  0  0  0  0  0  0  0  0  0
    9.8761  -19.1230   24.3063 C   0  0  0  0  0  0  0  0  0  0  0  0
    9.1158  -17.8362   24.3031 C   0  0  2  0  0  0  0  0  0  0  0  0
    8.7710  -17.3262   23.0299 N   0  0  0  0  0  0  0  0  0  0  0  0
    9.7286  -16.7566   25.1127 C   0  0  0  0  0  0  0  0  0  0  0  0
   10.7114  -16.0971   24.6687 O   0  0  0  0  0  0  0  0  0  0  0  0
   14.8193  -19.8089   20.9282 C   0  0  0  0  0  0  0  0  0  0  0  0
    6.9182  -12.9427   26.9121 C   0  0  0  0  0  0  0  0  0  0  0  0
    8.1007  -13.7934   26.4248 C   0  0  2  0  0  0  0  0  0  0  0  0
    8.8723  -14.3186   27.6041 C   0  0  0  0  0  0  0  0  0  0  0  0
    9.3974  -13.1757   28.4096 C   0  0  2  0  0  0  0  0  0  0  0  0
    9.9037  -15.3010   27.1388 N   0  0  0  0  0  0  0  0  0  0  0  0
    9.2680  -16.3998   26.4009 C   0  0  0  0  0  0  0  0  0  0  0  0
   10.5987  -15.8956   28.2946 O   0  0  0  0  0  0  0  0  0  0  0  0
   10.2629  -17.0448   28.6797 O   0  0  0  0  0  0  0  0  0  0  0  0
  2  1  1  1
  2 10  1  0
  3  2  1  0
  3  4  1  0
  4  9  2  0
  4  5  1  0
  5  6  2  0
  6  7  1  0
  8  7  2  0
  9  8  1  0
 10 11  2  0
 13 15  1  0
 13 12  1  0
 14 13  2  0
 16 15  1  0
 16 17  1  0
 19 18  1  6
 18 17  1  0
 20 19  1  0
 20 10  1  0
 21 19  1  0
 21 22  2  0
 23 24  1  0
 24 25  1  0
 25 26  1  1
 27 28  1  6
 27 25  1  0
 28 21  1  0
 29 31  1  0
 29 27  1  0
 30 29  2  0
M  END
$$$$
