FRI.pdb
     RDKit          3D

 31 31  0  0  1  0  0  0  0  0999 V2000
    5.2122  -16.8008   26.1279 N   0  0  0  0  0  0  0  0  0  0  0  0
    5.9275  -15.7296   25.5158 C   0  0  1  0  0  0  0  0  0  0  0  0
    6.6505  -14.8215   26.4677 C   0  0  0  0  0  0  0  0  0  0  0  0
    6.0414  -13.4553   26.4588 C   0  0  0  0  0  0  0  0  0  0  0  0
    6.7198  -12.4772   25.7636 C   0  0  0  0  0  0  0  0  0  0  0  0
    6.2180  -11.1896   25.7118 C   0  0  0  0  0  0  0  0  0  0  0  0
    5.0360  -10.9074   26.3642 C   0  0  0  0  0  0  0  0  0  0  0  0
    4.3631  -11.8888   27.0571 C   0  0  0  0  0  0  0  0  0  0  0  0
    4.8509  -13.1744   27.1170 C   0  0  0  0  0  0  0  0  0  0  0  0
    6.9573  -16.3184   24.5956 C   0  0  0  0  0  0  0  0  0  0  0  0
    7.5824  -17.3337   24.9287 O   0  0  0  0  0  0  0  0  0  0  0  0
    9.4098  -14.3135   16.1237 N   0  0  0  0  0  0  0  0  0  0  0  0
    9.6780  -14.1000   17.5015 C   0  0  0  0  0  0  0  0  0  0  0  0
    9.4867  -12.9473   18.0408 N   0  0  0  0  0  0  0  0  0  0  0  0
   10.1611  -15.1453   18.3345 N   0  0  0  0  0  0  0  0  0  0  0  0
    9.2600  -16.1024   18.8688 C   0  0  0  0  0  0  0  0  0  0  0  0
    9.4681  -16.4382   20.3291 C   0  0  0  0  0  0  0  0  0  0  0  0
    8.3130  -15.8724   21.1181 C   0  0  0  0  0  0  0  0  0  0  0  0
    8.3699  -16.1841   22.5787 C   0  0  2  0  0  0  0  0  0  0  0  0
    7.2570  -15.7636   23.3433 N   0  0  0  0  0  0  0  0  0  0  0  0
    9.6173  -15.7525   23.2527 C   0  0  0  0  0  0  0  0  0  0  0  0
   10.1185  -14.6168   23.0143 O   0  0  0  0  0  0  0  0  0  0  0  0
    9.6423  -12.8145   19.0441 C   0  0  0  0  0  0  0  0  0  0  0  0
   10.0198  -14.3394   27.8806 C   0  0  0  0  0  0  0  0  0  0  0  0
   10.2675  -14.6584   26.3985 C   0  0  2  0  0  0  0  0  0  0  0  0
   11.2755  -15.7678   26.2764 C   0  0  0  0  0  0  0  0  0  0  0  0
   12.4864  -15.4369   27.0857 C   0  0  2  0  0  0  0  0  0  0  0  0
   11.5332  -16.0622   24.8299 N   0  0  0  0  0  0  0  0  0  0  0  0
   10.3122  -16.5590   24.1831 C   0  0  0  0  0  0  0  0  0  0  0  0
   12.5562  -17.1153   24.6989 O   0  0  0  0  0  0  0  0  0  0  0  0
   12.1850  -18.3037   24.5217 O   0  0  0  0  0  0  0  0  0  0  0  0
  2  1  1  1
  2 10  1  0
  3  2  1  0
  3  4  1  0
  4  9  2  0
  4  5  1  0
  5  6  2  0
  6  7  1  0
  8  7  2  0
  9  8  1  0
 10 11  2  0
 13 15  1  0
 13 12  1  0
 14 13  2  0
 16 15  1  0
 16 17  1  0
 19 18  1  6
 18 17  1  0
 20 19  1  0
 20 10  1  0
 21 19  1  0
 21 22  2  0
 23 24  1  0
 24 25  1  0
 25 26  1  1
 27 28  1  6
 27 25  1  0
 28 21  1  0
 29 31  1  0
 29 27  1  0
 30 29  2  0
M  END
$$$$
