FRI.pdb
     RDKit          3D

 31 31  0  0  1  0  0  0  0  0999 V2000
    7.7994  -17.2240   20.0808 N   0  0  0  0  0  0  0  0  0  0  0  0
    7.6534  -16.0301   20.8472 C   0  0  1  0  0  0  0  0  0  0  0  0
    6.5245  -15.1361   20.4233 C   0  0  0  0  0  0  0  0  0  0  0  0
    7.0503  -13.8639   19.8380 C   0  0  0  0  0  0  0  0  0  0  0  0
    7.2490  -13.8432   18.4741 C   0  0  0  0  0  0  0  0  0  0  0  0
    7.7340  -12.7020   17.8619 C   0  0  0  0  0  0  0  0  0  0  0  0
    8.0119  -11.5957   18.6374 C   0  0  0  0  0  0  0  0  0  0  0  0
    7.8113  -11.6226   19.9993 C   0  0  0  0  0  0  0  0  0  0  0  0
    7.3292  -12.7516   20.6217 C   0  0  0  0  0  0  0  0  0  0  0  0
    7.4004  -16.4174   22.2755 C   0  0  0  0  0  0  0  0  0  0  0  0
    6.7350  -15.6781   23.0127 O   0  0  0  0  0  0  0  0  0  0  0  0
    5.5890  -21.0500   27.8813 N   0  0  0  0  0  0  0  0  0  0  0  0
    6.8278  -21.4775   28.4274 C   0  0  0  0  0  0  0  0  0  0  0  0
    6.9127  -21.8583   29.6538 N   0  0  0  0  0  0  0  0  0  0  0  0
    8.0141  -21.5052   27.6451 N   0  0  0  0  0  0  0  0  0  0  0  0
    7.9781  -21.1023   26.2851 C   0  0  0  0  0  0  0  0  0  0  0  0
    7.8679  -19.6108   26.0577 C   0  0  0  0  0  0  0  0  0  0  0  0
    7.8424  -19.3555   24.5707 C   0  0  0  0  0  0  0  0  0  0  0  0
    7.7487  -17.9085   24.2085 C   0  0  2  0  0  0  0  0  0  0  0  0
    7.8915  -17.6057   22.8345 N   0  0  0  0  0  0  0  0  0  0  0  0
    8.6296  -17.0171   24.9997 C   0  0  0  0  0  0  0  0  0  0  0  0
    9.8234  -16.8072   24.6409 O   0  0  0  0  0  0  0  0  0  0  0  0
    7.8132  -22.1541   30.0414 C   0  0  0  0  0  0  0  0  0  0  0  0
    6.4184  -12.5926   26.9415 C   0  0  0  0  0  0  0  0  0  0  0  0
    7.3741  -13.6219   26.3195 C   0  0  2  0  0  0  0  0  0  0  0  0
    8.2205  -14.2476   27.3938 C   0  0  0  0  0  0  0  0  0  0  0  0
    8.9771  -13.1839   28.1197 C   0  0  2  0  0  0  0  0  0  0  0  0
    9.0588  -15.3419   26.8063 N   0  0  0  0  0  0  0  0  0  0  0  0
    8.2063  -16.3581   26.1768 C   0  0  0  0  0  0  0  0  0  0  0  0
    9.8320  -16.0153   27.8651 O   0  0  0  0  0  0  0  0  0  0  0  0
    9.3478  -17.0385   28.4132 O   0  0  0  0  0  0  0  0  0  0  0  0
  2  1  1  6
  2 10  1  0
  3  2  1  0
  3  4  1  0
  4  9  2  0
  4  5  1  0
  5  6  2  0
  6  7  1  0
  8  7  2  0
  9  8  1  0
 10 11  2  0
 13 15  1  0
 13 12  1  0
 14 13  2  0
 16 15  1  0
 16 17  1  0
 19 18  1  6
 18 17  1  0
 20 19  1  0
 20 10  1  0
 21 19  1  0
 21 22  2  0
 23 24  1  0
 24 25  1  0
 25 26  1  1
 27 28  1  6
 27 25  1  0
 28 21  1  0
 29 31  1  0
 29 27  1  0
 30 29  2  0
M  END
$$$$
