FRI.pdb
     RDKit          3D

 31 31  0  0  1  0  0  0  0  0999 V2000
    5.7968  -17.2615   19.8262 N   0  0  0  0  0  0  0  0  0  0  0  0
    6.5474  -16.5070   20.7755 C   0  0  1  0  0  0  0  0  0  0  0  0
    6.2237  -15.0421   20.8229 C   0  0  0  0  0  0  0  0  0  0  0  0
    7.1721  -14.2642   19.9667 C   0  0  0  0  0  0  0  0  0  0  0  0
    6.6552  -13.7034   18.8185 C   0  0  0  0  0  0  0  0  0  0  0  0
    7.4722  -12.9710   17.9767 C   0  0  0  0  0  0  0  0  0  0  0  0
    8.8022  -12.8151   18.3072 C   0  0  0  0  0  0  0  0  0  0  0  0
    9.3126  -13.3778   19.4556 C   0  0  0  0  0  0  0  0  0  0  0  0
    8.5110  -14.1092   20.3024 C   0  0  0  0  0  0  0  0  0  0  0  0
    6.2735  -17.0665   22.1416 C   0  0  0  0  0  0  0  0  0  0  0  0
    5.1230  -17.0585   22.5985 O   0  0  0  0  0  0  0  0  0  0  0  0
    6.0483  -22.8512   26.8136 N   0  0  0  0  0  0  0  0  0  0  0  0
    7.1601  -22.5845   25.9719 C   0  0  0  0  0  0  0  0  0  0  0  0
    7.5805  -23.4660   25.1339 N   0  0  0  0  0  0  0  0  0  0  0  0
    7.8454  -21.3402   26.0188 N   0  0  0  0  0  0  0  0  0  0  0  0
    7.5061  -20.3788   27.0057 C   0  0  0  0  0  0  0  0  0  0  0  0
    7.3537  -18.9616   26.4990 C   0  0  0  0  0  0  0  0  0  0  0  0
    7.3135  -18.9958   24.9909 C   0  0  0  0  0  0  0  0  0  0  0  0
    7.1797  -17.6475   24.3602 C   0  0  2  0  0  0  0  0  0  0  0  0
    7.2802  -17.6131   22.9499 N   0  0  0  0  0  0  0  0  0  0  0  0
    8.0618  -16.6065   24.9387 C   0  0  0  0  0  0  0  0  0  0  0  0
    9.2746  -16.5243   24.5919 O   0  0  0  0  0  0  0  0  0  0  0  0
    8.3908  -23.2685   24.5398 C   0  0  0  0  0  0  0  0  0  0  0  0
    6.3368  -11.8483   27.6562 C   0  0  0  0  0  0  0  0  0  0  0  0
    6.7703  -13.3004   27.4051 C   0  0  2  0  0  0  0  0  0  0  0  0
    7.9683  -13.3260   26.4963 C   0  0  0  0  0  0  0  0  0  0  0  0
    7.5953  -12.7755   25.1588 C   0  0  1  0  0  0  0  0  0  0  0  0
    8.5630  -14.7012   26.4792 N   0  0  0  0  0  0  0  0  0  0  0  0
    7.6191  -15.6599   25.8911 C   0  0  0  0  0  0  0  0  0  0  0  0
    8.8433  -15.1519   27.8543 O   0  0  0  0  0  0  0  0  0  0  0  0
    8.1500  -16.0810   28.3420 O   0  0  0  0  0  0  0  0  0  0  0  0
  2  1  1  6
  2 10  1  0
  3  2  1  0
  3  4  1  0
  4  9  2  0
  4  5  1  0
  5  6  2  0
  6  7  1  0
  8  7  2  0
  9  8  1  0
 10 11  2  0
 13 15  1  0
 13 12  1  0
 14 13  2  0
 16 15  1  0
 16 17  1  0
 19 18  1  1
 18 17  1  0
 20 19  1  0
 20 10  1  0
 21 19  1  0
 21 22  2  0
 23 24  1  0
 24 25  1  0
 25 26  1  1
 27 28  1  6
 27 25  1  0
 28 21  1  0
 29 31  1  0
 29 27  1  0
 30 29  2  0
M  END
$$$$
