FRI.pdb
     RDKit          3D

 31 31  0  0  1  0  0  0  0  0999 V2000
    6.4651  -17.6339   20.1323 N   0  0  0  0  0  0  0  0  0  0  0  0
    7.1259  -16.4861   20.6612 C   0  0  1  0  0  0  0  0  0  0  0  0
    6.2781  -15.2509   20.7552 C   0  0  0  0  0  0  0  0  0  0  0  0
    7.0634  -14.0407   20.3598 C   0  0  0  0  0  0  0  0  0  0  0  0
    7.2993  -13.8660   19.0129 C   0  0  0  0  0  0  0  0  0  0  0  0
    8.0191  -12.7707   18.5720 C   0  0  0  0  0  0  0  0  0  0  0  0
    8.4916  -11.8656   19.4994 C   0  0  0  0  0  0  0  0  0  0  0  0
    8.2527  -12.0456   20.8434 C   0  0  0  0  0  0  0  0  0  0  0  0
    7.5378  -13.1311   21.2963 C   0  0  0  0  0  0  0  0  0  0  0  0
    7.5914  -16.8115   22.0510 C   0  0  0  0  0  0  0  0  0  0  0  0
    6.7673  -17.0308   22.9484 O   0  0  0  0  0  0  0  0  0  0  0  0
    9.5256  -22.0173   22.7894 N   0  0  0  0  0  0  0  0  0  0  0  0
   10.6407  -22.0347   21.9108 C   0  0  0  0  0  0  0  0  0  0  0  0
   10.6137  -22.7216   20.8228 N   0  0  0  0  0  0  0  0  0  0  0  0
   11.8212  -21.2959   22.1945 N   0  0  0  0  0  0  0  0  0  0  0  0
   11.7527  -20.1274   22.9966 C   0  0  0  0  0  0  0  0  0  0  0  0
   10.4866  -19.3139   22.8432 C   0  0  0  0  0  0  0  0  0  0  0  0
   10.5622  -18.1324   23.7788 C   0  0  0  0  0  0  0  0  0  0  0  0
    9.3787  -17.2231   23.6994 C   0  0  2  0  0  0  0  0  0  0  0  0
    8.9485  -16.8824   22.3960 N   0  0  0  0  0  0  0  0  0  0  0  0
    9.4930  -15.9905   24.5144 C   0  0  0  0  0  0  0  0  0  0  0  0
   10.2004  -15.0202   24.1192 O   0  0  0  0  0  0  0  0  0  0  0  0
   11.4001  -22.6828   20.1682 C   0  0  0  0  0  0  0  0  0  0  0  0
    5.9573  -12.7704   26.4072 C   0  0  0  0  0  0  0  0  0  0  0  0
    7.2653  -13.4264   25.9398 C   0  0  2  0  0  0  0  0  0  0  0  0
    8.0095  -13.9817   27.1230 C   0  0  0  0  0  0  0  0  0  0  0  0
    8.2715  -12.8901   28.1083 C   0  0  2  0  0  0  0  0  0  0  0  0
    9.2226  -14.7266   26.6554 N   0  0  0  0  0  0  0  0  0  0  0  0
    8.8363  -15.8201   25.7548 C   0  0  0  0  0  0  0  0  0  0  0  0
    9.9220  -15.3322   27.8028 O   0  0  0  0  0  0  0  0  0  0  0  0
    9.7371  -16.5509   28.0523 O   0  0  0  0  0  0  0  0  0  0  0  0
  2  1  1  1
  2 10  1  0
  3  2  1  0
  3  4  1  0
  4  9  2  0
  4  5  1  0
  5  6  2  0
  6  7  1  0
  8  7  2  0
  9  8  1  0
 10 11  2  0
 13 15  1  0
 13 12  1  0
 14 13  2  0
 16 15  1  0
 16 17  1  0
 19 18  1  6
 18 17  1  0
 20 19  1  0
 20 10  1  0
 21 19  1  0
 21 22  2  0
 23 24  1  0
 24 25  1  0
 25 26  1  1
 27 28  1  6
 27 25  1  0
 28 21  1  0
 29 31  1  0
 29 27  1  0
 30 29  2  0
M  END
$$$$
