FRI.pdb
     RDKit          3D

 31 31  0  0  1  0  0  0  0  0999 V2000
    9.1105  -15.7391   20.3664 N   0  0  0  0  0  0  0  0  0  0  0  0
    8.3650  -14.8932   21.2396 C   0  0  1  0  0  0  0  0  0  0  0  0
    6.9846  -14.5455   20.7633 C   0  0  0  0  0  0  0  0  0  0  0  0
    7.0455  -13.8039   19.4656 C   0  0  0  0  0  0  0  0  0  0  0  0
    7.5280  -12.5134   19.5096 C   0  0  0  0  0  0  0  0  0  0  0  0
    7.6127  -11.7655   18.3495 C   0  0  0  0  0  0  0  0  0  0  0  0
    7.2080  -12.3326   17.1591 C   0  0  0  0  0  0  0  0  0  0  0  0
    6.7269  -13.6222   17.1216 C   0  0  0  0  0  0  0  0  0  0  0  0
    6.6372  -14.3780   18.2684 C   0  0  0  0  0  0  0  0  0  0  0  0
    8.2157  -15.5950   22.5584 C   0  0  0  0  0  0  0  0  0  0  0  0
    7.5010  -15.1092   23.4449 O   0  0  0  0  0  0  0  0  0  0  0  0
   11.5952  -20.7793   23.3084 N   0  0  0  0  0  0  0  0  0  0  0  0
   10.7954  -21.4846   22.3711 C   0  0  0  0  0  0  0  0  0  0  0  0
   11.3072  -21.9560   21.2886 N   0  0  0  0  0  0  0  0  0  0  0  0
    9.4080  -21.6997   22.5922 N   0  0  0  0  0  0  0  0  0  0  0  0
    8.7916  -21.2078   23.7718 C   0  0  0  0  0  0  0  0  0  0  0  0
    8.2173  -19.8124   23.6648 C   0  0  0  0  0  0  0  0  0  0  0  0
    9.2365  -18.8349   24.1964 C   0  0  0  0  0  0  0  0  0  0  0  0
    8.7982  -17.4078   24.1254 C   0  0  2  0  0  0  0  0  0  0  0  0
    8.8609  -16.8057   22.8473 N   0  0  0  0  0  0  0  0  0  0  0  0
    9.4420  -16.5154   25.1183 C   0  0  0  0  0  0  0  0  0  0  0  0
   10.6624  -16.2044   25.0090 O   0  0  0  0  0  0  0  0  0  0  0  0
   10.7255  -22.4780   20.6270 C   0  0  0  0  0  0  0  0  0  0  0  0
    7.2150  -12.0967   26.5425 C   0  0  0  0  0  0  0  0  0  0  0  0
    8.2444  -13.1950   26.2361 C   0  0  2  0  0  0  0  0  0  0  0  0
    8.6352  -13.8978   27.5070 C   0  0  0  0  0  0  0  0  0  0  0  0
    9.2713  -12.9237   28.4438 C   0  0  2  0  0  0  0  0  0  0  0  0
    9.4587  -15.1076   27.1852 N   0  0  0  0  0  0  0  0  0  0  0  0
    8.7540  -15.9657   26.2244 C   0  0  0  0  0  0  0  0  0  0  0  0
    9.6846  -15.9082   28.4020 O   0  0  0  0  0  0  0  0  0  0  0  0
   10.4467  -15.4552   29.2940 O   0  0  0  0  0  0  0  0  0  0  0  0
  2  1  1  6
  2 10  1  0
  3  2  1  0
  3  4  1  0
  4  9  2  0
  4  5  1  0
  5  6  2  0
  6  7  1  0
  8  7  2  0
  9  8  1  0
 10 11  2  0
 13 15  1  0
 13 12  1  0
 14 13  2  0
 16 15  1  0
 16 17  1  0
 19 18  1  6
 18 17  1  0
 20 19  1  0
 20 10  1  0
 21 19  1  0
 21 22  2  0
 23 24  1  0
 24 25  1  0
 25 26  1  1
 27 28  1  6
 27 25  1  0
 28 21  1  0
 29 31  1  0
 29 27  1  0
 30 29  2  0
M  END
$$$$
