FRI.pdb
     RDKit          3D

 31 31  0  0  1  0  0  0  0  0999 V2000
    5.3288  -15.7703   25.8193 N   0  0  0  0  0  0  0  0  0  0  0  0
    6.4971  -15.3846   25.0982 C   0  0  1  0  0  0  0  0  0  0  0  0
    7.3090  -14.2960   25.7376 C   0  0  0  0  0  0  0  0  0  0  0  0
    6.5972  -12.9836   25.6455 C   0  0  0  0  0  0  0  0  0  0  0  0
    6.9656  -12.1482   24.6128 C   0  0  0  0  0  0  0  0  0  0  0  0
    6.3520  -10.9178   24.4644 C   0  0  0  0  0  0  0  0  0  0  0  0
    5.3731  -10.5478   25.3630 C   0  0  0  0  0  0  0  0  0  0  0  0
    5.0095  -11.3867   26.3925 C   0  0  0  0  0  0  0  0  0  0  0  0
    5.6118  -12.6140   26.5521 C   0  0  0  0  0  0  0  0  0  0  0  0
    7.3882  -16.5863   24.9710 C   0  0  0  0  0  0  0  0  0  0  0  0
    7.4817  -17.3937   25.9048 O   0  0  0  0  0  0  0  0  0  0  0  0
   12.0725  -17.2035   19.5827 N   0  0  0  0  0  0  0  0  0  0  0  0
   13.0379  -18.1300   20.0575 C   0  0  0  0  0  0  0  0  0  0  0  0
   14.2888  -17.9701   19.8012 N   0  0  0  0  0  0  0  0  0  0  0  0
   12.6634  -19.2608   20.8328 N   0  0  0  0  0  0  0  0  0  0  0  0
   11.2966  -19.4955   21.1332 C   0  0  0  0  0  0  0  0  0  0  0  0
   10.8801  -19.1555   22.5471 C   0  0  0  0  0  0  0  0  0  0  0  0
    9.7615  -18.1445   22.4851 C   0  0  0  0  0  0  0  0  0  0  0  0
    9.2509  -17.7265   23.8261 C   0  0  2  0  0  0  0  0  0  0  0  0
    8.1411  -16.8500   23.8182 N   0  0  0  0  0  0  0  0  0  0  0  0
   10.2878  -17.1941   24.7415 C   0  0  0  0  0  0  0  0  0  0  0  0
   11.1151  -16.3256   24.3424 O   0  0  0  0  0  0  0  0  0  0  0  0
   14.9739  -18.6603   20.1218 C   0  0  0  0  0  0  0  0  0  0  0  0
    9.9217  -14.0987   28.5324 C   0  0  0  0  0  0  0  0  0  0  0  0
   10.4603  -14.9989   27.4103 C   0  0  2  0  0  0  0  0  0  0  0  0
   11.0627  -16.2447   27.9994 C   0  0  0  0  0  0  0  0  0  0  0  0
   12.0890  -15.8722   29.0186 C   0  0  2  0  0  0  0  0  0  0  0  0
   11.5470  -17.1422   26.9016 N   0  0  0  0  0  0  0  0  0  0  0  0
   10.4184  -17.6092   26.0867 C   0  0  0  0  0  0  0  0  0  0  0  0
   12.1987  -18.3358   27.4700 O   0  0  0  0  0  0  0  0  0  0  0  0
   11.5144  -19.3767   27.6435 O   0  0  0  0  0  0  0  0  0  0  0  0
  2  1  1  1
  2 10  1  0
  3  2  1  0
  3  4  1  0
  4  9  2  0
  4  5  1  0
  5  6  2  0
  6  7  1  0
  8  7  2  0
  9  8  1  0
 10 11  2  0
 13 15  1  0
 13 12  1  0
 14 13  2  0
 16 15  1  0
 16 17  1  0
 19 18  1  6
 18 17  1  0
 20 19  1  0
 20 10  1  0
 21 19  1  0
 21 22  2  0
 23 24  1  0
 24 25  1  0
 25 26  1  1
 27 28  1  6
 27 25  1  0
 28 21  1  0
 29 31  1  0
 29 27  1  0
 30 29  2  0
M  END
$$$$
