FRI.pdb
     RDKit          3D

 31 31  0  0  1  0  0  0  0  0999 V2000
    5.6805  -18.1881   25.6016 N   0  0  0  0  0  0  0  0  0  0  0  0
    5.9337  -16.7878   25.5066 C   0  0  1  0  0  0  0  0  0  0  0  0
    6.3067  -16.1197   26.7980 C   0  0  0  0  0  0  0  0  0  0  0  0
    6.1753  -14.6342   26.6805 C   0  0  0  0  0  0  0  0  0  0  0  0
    7.3435  -13.9030   26.7108 C   0  0  0  0  0  0  0  0  0  0  0  0
    7.3008  -12.5245   26.6085 C   0  0  0  0  0  0  0  0  0  0  0  0
    6.0766  -11.9029   26.4769 C   0  0  0  0  0  0  0  0  0  0  0  0
    4.9133  -12.6389   26.4473 C   0  0  0  0  0  0  0  0  0  0  0  0
    4.9409  -14.0113   26.5481 C   0  0  0  0  0  0  0  0  0  0  0  0
    7.0757  -16.5811   24.5540 C   0  0  0  0  0  0  0  0  0  0  0  0
    7.9882  -17.4150   24.4856 O   0  0  0  0  0  0  0  0  0  0  0  0
    9.0676  -13.8949   16.0199 N   0  0  0  0  0  0  0  0  0  0  0  0
    9.0029  -14.4153   17.3392 C   0  0  0  0  0  0  0  0  0  0  0  0
    9.7959  -15.3554   17.7181 N   0  0  0  0  0  0  0  0  0  0  0  0
    8.0684  -13.9190   18.2882 N   0  0  0  0  0  0  0  0  0  0  0  0
    8.5260  -13.3340   19.4972 C   0  0  0  0  0  0  0  0  0  0  0  0
    8.9566  -14.3151   20.5651 C   0  0  0  0  0  0  0  0  0  0  0  0
    7.8876  -14.3620   21.6291 C   0  0  0  0  0  0  0  0  0  0  0  0
    8.1668  -15.3422   22.7222 C   0  0  2  0  0  0  0  0  0  0  0  0
    7.1660  -15.4622   23.7141 N   0  0  0  0  0  0  0  0  0  0  0  0
    9.4862  -15.1760   23.3765 C   0  0  0  0  0  0  0  0  0  0  0  0
   10.2617  -14.2384   23.0338 O   0  0  0  0  0  0  0  0  0  0  0  0
    9.7449  -15.7201   18.6735 C   0  0  0  0  0  0  0  0  0  0  0  0
   10.5351  -15.1780   28.6272 C   0  0  0  0  0  0  0  0  0  0  0  0
   10.4944  -15.8997   27.2719 C   0  0  2  0  0  0  0  0  0  0  0  0
   11.2468  -15.0997   26.2443 C   0  0  0  0  0  0  0  0  0  0  0  0
   10.6654  -13.7269   26.1530 C   0  0  1  0  0  0  0  0  0  0  0  0
   11.3038  -15.8579   24.9531 N   0  0  0  0  0  0  0  0  0  0  0  0
    9.9543  -16.0308   24.4009 C   0  0  0  0  0  0  0  0  0  0  0  0
   11.8597  -17.2045   25.1774 O   0  0  0  0  0  0  0  0  0  0  0  0
   13.0659  -17.3148   25.5160 O   0  0  0  0  0  0  0  0  0  0  0  0
  2  1  1  1
  2 10  1  0
  3  2  1  0
  3  4  1  0
  4  9  2  0
  4  5  1  0
  5  6  2  0
  6  7  1  0
  8  7  2  0
  9  8  1  0
 10 11  2  0
 13 15  1  0
 13 12  1  0
 14 13  2  0
 16 15  1  0
 16 17  1  0
 19 18  1  6
 18 17  1  0
 20 19  1  0
 20 10  1  0
 21 19  1  0
 21 22  2  0
 23 24  1  0
 24 25  1  0
 25 26  1  1
 27 28  1  1
 27 25  1  0
 28 21  1  0
 29 31  1  0
 29 27  1  0
 30 29  2  0
M  END
$$$$
