FRI.pdb
     RDKit          3D

 31 31  0  0  1  0  0  0  0  0999 V2000
    5.4757  -16.6378   25.3150 N   0  0  0  0  0  0  0  0  0  0  0  0
    6.4708  -15.7029   24.9031 C   0  0  1  0  0  0  0  0  0  0  0  0
    7.0708  -14.8840   26.0088 C   0  0  0  0  0  0  0  0  0  0  0  0
    6.5710  -13.4752   25.9528 C   0  0  0  0  0  0  0  0  0  0  0  0
    5.3241  -13.2367   26.4900 C   0  0  0  0  0  0  0  0  0  0  0  0
    4.7955  -11.9589   26.4735 C   0  0  0  0  0  0  0  0  0  0  0  0
    5.5350  -10.9382   25.9135 C   0  0  0  0  0  0  0  0  0  0  0  0
    6.7799  -11.1828   25.3784 C   0  0  0  0  0  0  0  0  0  0  0  0
    7.3182  -12.4495   25.3881 C   0  0  0  0  0  0  0  0  0  0  0  0
    7.5915  -16.4648   24.2568 C   0  0  0  0  0  0  0  0  0  0  0  0
    7.9598  -17.5491   24.7272 O   0  0  0  0  0  0  0  0  0  0  0  0
    9.3962  -15.0768   17.2659 N   0  0  0  0  0  0  0  0  0  0  0  0
    8.5117  -14.0844   17.7644 C   0  0  0  0  0  0  0  0  0  0  0  0
    7.4892  -13.7071   17.0801 N   0  0  0  0  0  0  0  0  0  0  0  0
    8.7174  -13.4756   19.0321 N   0  0  0  0  0  0  0  0  0  0  0  0
    9.5514  -14.1017   19.9943 C   0  0  0  0  0  0  0  0  0  0  0  0
    9.0174  -15.3973   20.5642 C   0  0  0  0  0  0  0  0  0  0  0  0
   10.0787  -16.0024   21.4498 C   0  0  0  0  0  0  0  0  0  0  0  0
    9.5817  -16.3995   22.8022 C   0  0  2  0  0  0  0  0  0  0  0  0
    8.2619  -16.0002   23.1165 N   0  0  0  0  0  0  0  0  0  0  0  0
   10.4825  -16.0345   23.9212 C   0  0  0  0  0  0  0  0  0  0  0  0
   11.2176  -15.0088   23.8481 O   0  0  0  0  0  0  0  0  0  0  0  0
    6.8421  -13.0106   17.4603 C   0  0  0  0  0  0  0  0  0  0  0  0
   10.9918  -14.1134   29.2151 C   0  0  0  0  0  0  0  0  0  0  0  0
   11.7272  -15.0385   28.2338 C   0  0  2  0  0  0  0  0  0  0  0  0
   10.7538  -15.6003   27.2344 C   0  0  0  0  0  0  0  0  0  0  0  0
    9.6839  -16.3597   27.9482 C   0  0  2  0  0  0  0  0  0  0  0  0
   11.4935  -16.3712   26.1837 N   0  0  0  0  0  0  0  0  0  0  0  0
   10.5777  -16.7874   25.1141 C   0  0  0  0  0  0  0  0  0  0  0  0
   12.0729  -17.5960   26.7639 O   0  0  0  0  0  0  0  0  0  0  0  0
   13.0802  -17.4966   27.5103 O   0  0  0  0  0  0  0  0  0  0  0  0
  2  1  1  1
  2 10  1  0
  3  2  1  0
  3  4  1  0
  4  9  2  0
  4  5  1  0
  5  6  2  0
  6  7  1  0
  8  7  2  0
  9  8  1  0
 10 11  2  0
 13 15  1  0
 13 12  1  0
 14 13  2  0
 16 15  1  0
 16 17  1  0
 19 18  1  6
 18 17  1  0
 20 19  1  0
 20 10  1  0
 21 19  1  0
 21 22  2  0
 23 24  1  0
 24 25  1  0
 25 26  1  6
 27 28  1  1
 27 25  1  0
 28 21  1  0
 29 31  1  0
 29 27  1  0
 30 29  2  0
M  END
$$$$
