FRI.pdb
     RDKit          3D

 31 31  0  0  1  0  0  0  0  0999 V2000
    5.5087  -15.8317   25.8044 N   0  0  0  0  0  0  0  0  0  0  0  0
    6.0980  -15.7523   24.5082 C   0  0  1  0  0  0  0  0  0  0  0  0
    6.1571  -14.3728   23.9195 C   0  0  0  0  0  0  0  0  0  0  0  0
    6.3705  -13.3508   24.9908 C   0  0  0  0  0  0  0  0  0  0  0  0
    7.3887  -12.4435   24.7898 C   0  0  0  0  0  0  0  0  0  0  0  0
    7.6462  -11.4699   25.7375 C   0  0  0  0  0  0  0  0  0  0  0  0
    6.8702  -11.4262   26.8770 C   0  0  0  0  0  0  0  0  0  0  0  0
    5.8546  -12.3354   27.0720 C   0  0  0  0  0  0  0  0  0  0  0  0
    5.5873  -13.3096   26.1372 C   0  0  0  0  0  0  0  0  0  0  0  0
    7.5095  -16.2551   24.6029 C   0  0  0  0  0  0  0  0  0  0  0  0
    7.9764  -16.5976   25.6972 O   0  0  0  0  0  0  0  0  0  0  0  0
   12.4142  -20.1366   18.4278 N   0  0  0  0  0  0  0  0  0  0  0  0
   12.9673  -20.5821   19.6571 C   0  0  0  0  0  0  0  0  0  0  0  0
   13.8419  -21.5258   19.6845 N   0  0  0  0  0  0  0  0  0  0  0  0
   12.5822  -20.0044   20.8973 N   0  0  0  0  0  0  0  0  0  0  0  0
   11.5333  -19.0498   20.9414 C   0  0  0  0  0  0  0  0  0  0  0  0
   11.3428  -18.3631   22.2758 C   0  0  0  0  0  0  0  0  0  0  0  0
   10.1228  -17.4793   22.1877 C   0  0  0  0  0  0  0  0  0  0  0  0
    9.5572  -17.0975   23.5174 C   0  0  2  0  0  0  0  0  0  0  0  0
    8.3507  -16.3604   23.4862 N   0  0  0  0  0  0  0  0  0  0  0  0
   10.5171  -16.4259   24.4253 C   0  0  0  0  0  0  0  0  0  0  0  0
   11.3682  -15.6083   23.9723 O   0  0  0  0  0  0  0  0  0  0  0  0
   14.2301  -21.8442   20.5769 C   0  0  0  0  0  0  0  0  0  0  0  0
   10.0352  -15.2253   29.9424 C   0  0  0  0  0  0  0  0  0  0  0  0
    9.8858  -15.7532   28.5076 C   0  0  2  0  0  0  0  0  0  0  0  0
   10.7869  -14.9816   27.5831 C   0  0  0  0  0  0  0  0  0  0  0  0
   10.0054  -13.9053   26.9035 C   0  0  1  0  0  0  0  0  0  0  0  0
   11.5044  -15.9268   26.6682 N   0  0  0  0  0  0  0  0  0  0  0  0
   10.5450  -16.6470   25.8215 C   0  0  0  0  0  0  0  0  0  0  0  0
   12.2384  -16.9361   27.4525 O   0  0  0  0  0  0  0  0  0  0  0  0
   13.2695  -16.5846   28.0808 O   0  0  0  0  0  0  0  0  0  0  0  0
  2  1  1  1
  2 10  1  0
  3  2  1  0
  3  4  1  0
  4  9  2  0
  4  5  1  0
  5  6  2  0
  6  7  1  0
  8  7  2  0
  9  8  1  0
 10 11  2  0
 13 15  1  0
 13 12  1  0
 14 13  2  0
 16 15  1  0
 16 17  1  0
 19 18  1  6
 18 17  1  0
 20 19  1  0
 20 10  1  0
 21 19  1  0
 21 22  2  0
 23 24  1  0
 24 25  1  0
 25 26  1  6
 27 28  1  6
 27 25  1  0
 28 21  1  0
 29 31  1  0
 29 27  1  0
 30 29  2  0
M  END
$$$$
