FRI.pdb
     RDKit          3D

 31 31  0  0  1  0  0  0  0  0999 V2000
    5.4443  -16.9673   23.1388 N   0  0  0  0  0  0  0  0  0  0  0  0
    6.5243  -16.2069   23.6766 C   0  0  1  0  0  0  0  0  0  0  0  0
    6.2965  -15.6679   25.0590 C   0  0  0  0  0  0  0  0  0  0  0  0
    6.3839  -14.1746   25.0640 C   0  0  0  0  0  0  0  0  0  0  0  0
    6.9819  -13.5837   23.9715 C   0  0  0  0  0  0  0  0  0  0  0  0
    7.0997  -12.2074   23.9062 C   0  0  0  0  0  0  0  0  0  0  0  0
    6.6109  -11.4458   24.9471 C   0  0  0  0  0  0  0  0  0  0  0  0
    6.0146  -12.0420   26.0357 C   0  0  0  0  0  0  0  0  0  0  0  0
    5.8907  -13.4106   26.1139 C   0  0  0  0  0  0  0  0  0  0  0  0
    7.7356  -17.0917   23.7394 C   0  0  0  0  0  0  0  0  0  0  0  0
    7.6749  -18.2601   23.3346 O   0  0  0  0  0  0  0  0  0  0  0  0
   12.4850  -20.4817   20.3452 N   0  0  0  0  0  0  0  0  0  0  0  0
   13.4971  -19.5244   20.0716 C   0  0  0  0  0  0  0  0  0  0  0  0
   14.7197  -19.8869   19.8987 N   0  0  0  0  0  0  0  0  0  0  0  0
   13.2009  -18.1377   19.9748 N   0  0  0  0  0  0  0  0  0  0  0  0
   11.9755  -17.6354   20.4841 C   0  0  0  0  0  0  0  0  0  0  0  0
   11.7519  -17.8608   21.9632 C   0  0  0  0  0  0  0  0  0  0  0  0
   10.4811  -17.1543   22.3667 C   0  0  0  0  0  0  0  0  0  0  0  0
   10.1967  -17.2144   23.8328 C   0  0  2  0  0  0  0  0  0  0  0  0
    8.9666  -16.6525   24.2465 N   0  0  0  0  0  0  0  0  0  0  0  0
   11.2857  -16.6947   24.6933 C   0  0  0  0  0  0  0  0  0  0  0  0
   11.8532  -15.5982   24.4224 O   0  0  0  0  0  0  0  0  0  0  0  0
   15.4584  -19.1839   19.8054 C   0  0  0  0  0  0  0  0  0  0  0  0
    9.8557  -13.9774   28.7878 C   0  0  0  0  0  0  0  0  0  0  0  0
   10.9036  -14.4810   27.7838 C   0  0  2  0  0  0  0  0  0  0  0  0
   10.4976  -15.8290   27.2547 C   0  0  0  0  0  0  0  0  0  0  0  0
    9.3667  -16.3676   28.0682 C   0  0  2  0  0  0  0  0  0  0  0  0
   11.6988  -16.7197   27.1597 N   0  0  0  0  0  0  0  0  0  0  0  0
   11.7507  -17.3708   25.8447 C   0  0  0  0  0  0  0  0  0  0  0  0
   11.6226  -17.7873   28.1731 O   0  0  0  0  0  0  0  0  0  0  0  0
   10.9329  -18.8098   27.9270 O   0  0  0  0  0  0  0  0  0  0  0  0
  2  1  1  1
  2 10  1  0
  3  2  1  0
  3  4  1  0
  4  9  2  0
  4  5  1  0
  5  6  2  0
  6  7  1  0
  8  7  2  0
  9  8  1  0
 10 11  2  0
 13 15  1  0
 13 12  1  0
 14 13  2  0
 16 15  1  0
 16 17  1  0
 19 18  1  6
 18 17  1  0
 20 19  1  0
 20 10  1  0
 21 19  1  0
 21 22  2  0
 23 24  1  0
 24 25  1  0
 25 26  1  6
 27 28  1  1
 27 25  1  0
 28 21  1  0
 29 31  1  0
 29 27  1  0
 30 29  2  0
M  END
$$$$
