FRI.pdb
     RDKit          3D

 31 31  0  0  1  0  0  0  0  0999 V2000
    5.6340  -15.9346   25.9450 N   0  0  0  0  0  0  0  0  0  0  0  0
    6.4266  -15.3080   24.9385 C   0  0  1  0  0  0  0  0  0  0  0  0
    7.2631  -14.1555   25.4133 C   0  0  0  0  0  0  0  0  0  0  0  0
    6.3948  -13.0228   25.8613 C   0  0  0  0  0  0  0  0  0  0  0  0
    6.6040  -12.5471   27.1380 C   0  0  0  0  0  0  0  0  0  0  0  0
    5.8386  -11.5020   27.6220 C   0  0  0  0  0  0  0  0  0  0  0  0
    4.8708  -10.9511   26.8082 C   0  0  0  0  0  0  0  0  0  0  0  0
    4.6666  -11.4308   25.5338 C   0  0  0  0  0  0  0  0  0  0  0  0
    5.4210  -12.4703   25.0392 C   0  0  0  0  0  0  0  0  0  0  0  0
    7.3654  -16.3347   24.3739 C   0  0  0  0  0  0  0  0  0  0  0  0
    7.5675  -17.3945   24.9810 O   0  0  0  0  0  0  0  0  0  0  0  0
   10.3870  -13.5900   18.8380 N   0  0  0  0  0  0  0  0  0  0  0  0
    9.0354  -13.7036   18.4186 C   0  0  0  0  0  0  0  0  0  0  0  0
    8.3574  -12.6618   18.0855 N   0  0  0  0  0  0  0  0  0  0  0  0
    8.3837  -14.9646   18.3468 N   0  0  0  0  0  0  0  0  0  0  0  0
    8.8193  -16.0375   19.1670 C   0  0  0  0  0  0  0  0  0  0  0  0
    9.0635  -15.6819   20.6169 C   0  0  0  0  0  0  0  0  0  0  0  0
    9.5193  -16.9240   21.3425 C   0  0  0  0  0  0  0  0  0  0  0  0
    9.1570  -16.9430   22.7924 C   0  0  2  0  0  0  0  0  0  0  0  0
    8.0444  -16.1516   23.1610 N   0  0  0  0  0  0  0  0  0  0  0  0
   10.2840  -16.6609   23.7127 C   0  0  0  0  0  0  0  0  0  0  0  0
   11.1479  -15.7845   23.4237 O   0  0  0  0  0  0  0  0  0  0  0  0
    7.3756  -12.7514   17.8088 C   0  0  0  0  0  0  0  0  0  0  0  0
   10.6869  -14.6205   29.0462 C   0  0  0  0  0  0  0  0  0  0  0  0
   11.4959  -15.3064   27.9351 C   0  0  2  0  0  0  0  0  0  0  0  0
   10.5632  -15.9682   26.9583 C   0  0  0  0  0  0  0  0  0  0  0  0
    9.5096  -16.7214   27.7022 C   0  0  2  0  0  0  0  0  0  0  0  0
   11.3510  -16.7752   25.9717 N   0  0  0  0  0  0  0  0  0  0  0  0
   10.4644  -17.3337   24.9431 C   0  0  0  0  0  0  0  0  0  0  0  0
   12.0043  -17.9101   26.6482 O   0  0  0  0  0  0  0  0  0  0  0  0
   11.3982  -19.0102   26.7110 O   0  0  0  0  0  0  0  0  0  0  0  0
  2  1  1  1
  2 10  1  0
  3  2  1  0
  3  4  1  0
  4  9  2  0
  4  5  1  0
  5  6  2  0
  6  7  1  0
  8  7  2  0
  9  8  1  0
 10 11  2  0
 13 15  1  0
 13 12  1  0
 14 13  2  0
 16 15  1  0
 16 17  1  0
 19 18  1  6
 18 17  1  0
 20 19  1  0
 20 10  1  0
 21 19  1  0
 21 22  2  0
 23 24  1  0
 24 25  1  0
 25 26  1  6
 27 28  1  1
 27 25  1  0
 28 21  1  0
 29 31  1  0
 29 27  1  0
 30 29  2  0
M  END
$$$$
