TGF.pdb
     RDKit          3D

 23 23  0  0  1  0  0  0  0  0999 V2000
    9.4420  -18.4890   17.5523 C   0  0  0  0  0  0  0  0  0  0  0  0
    8.9722  -18.4324   18.9807 C   0  0  1  0  0  0  0  0  0  0  0  0
    9.9780  -17.8840   19.8014 O   0  0  0  0  0  0  0  0  0  0  0  0
    7.7361  -17.5498   19.0477 C   0  0  2  0  0  0  0  0  0  0  0  0
    8.1456  -16.1666   18.7107 N   0  0  0  0  0  0  0  0  0  0  0  0
    7.2320  -17.4676   20.4406 C   0  0  0  0  0  0  0  0  0  0  0  0
    6.8045  -18.5091   21.0393 O   0  0  0  0  0  0  0  0  0  0  0  0
    7.1825  -16.2697   21.2080 N   0  0  0  0  0  0  0  0  0  0  0  0
    6.6498  -16.3108   22.5376 C   0  0  0  0  0  0  0  0  0  0  0  0
    7.6451  -16.1936   23.6058 C   0  0  0  0  0  0  0  0  0  0  0  0
    8.8796  -16.1520   23.2575 O   0  0  0  0  0  0  0  0  0  0  0  0
    7.4028  -16.1201   24.9901 N   0  0  0  0  0  0  0  0  0  0  0  0
    8.4847  -15.8249   25.9231 C   0  0  1  0  0  0  0  0  0  0  0  0
    8.0241  -14.9589   27.0355 C   0  0  0  0  0  0  0  0  0  0  0  0
    7.4926  -13.6642   26.5818 C   0  0  0  0  0  0  0  0  0  0  0  0
    6.1349  -13.4335   26.6894 C   0  0  0  0  0  0  0  0  0  0  0  0
    5.5998  -12.2359   26.2763 C   0  0  0  0  0  0  0  0  0  0  0  0
    6.4237  -11.2614   25.7522 C   0  0  0  0  0  0  0  0  0  0  0  0
    7.7890  -11.4742   25.6361 C   0  0  0  0  0  0  0  0  0  0  0  0
    8.3188  -12.6756   26.0516 C   0  0  0  0  0  0  0  0  0  0  0  0
    9.1688  -17.0396   26.3747 C   0  0  0  0  0  0  0  0  0  0  0  0
    8.7683  -18.3174   26.0774 O   0  0  0  0  0  0  0  0  0  0  0  0
   10.2042  -16.9261   27.0931 O   0  0  0  0  0  0  0  0  0  0  0  0
  2  1  1  6
  2  4  1  0
  3  2  1  0
  4  5  1  1
  6  4  1  0
  6  8  1  0
  7  6  2  0
  9  8  1  0
  9 10  1  0
 10 12  1  0
 11 10  2  0
 12 13  1  0
 13 14  1  1
 14 15  1  0
 15 20  2  0
 16 17  2  0
 16 15  1  0
 17 18  1  0
 18 19  2  0
 20 19  1  0
 21 13  1  0
 21 22  1  0
 23 21  2  0
M  END
$$$$
