TGF.pdb
     RDKit          3D

 23 23  0  0  1  0  0  0  0  0999 V2000
    6.6691  -19.7502   18.4213 C   0  0  0  0  0  0  0  0  0  0  0  0
    7.6276  -18.6865   18.8841 C   0  0  1  0  0  0  0  0  0  0  0  0
    7.4929  -17.5316   18.0879 O   0  0  0  0  0  0  0  0  0  0  0  0
    7.3026  -18.3388   20.3280 C   0  0  2  0  0  0  0  0  0  0  0  0
    5.9461  -17.7443   20.3587 N   0  0  0  0  0  0  0  0  0  0  0  0
    8.1994  -17.2631   20.8173 C   0  0  0  0  0  0  0  0  0  0  0  0
    9.4554  -17.4595   20.9167 O   0  0  0  0  0  0  0  0  0  0  0  0
    7.7612  -15.9648   21.2030 N   0  0  0  0  0  0  0  0  0  0  0  0
    8.7123  -15.0327   21.7321 C   0  0  0  0  0  0  0  0  0  0  0  0
    8.9916  -15.1798   23.1625 C   0  0  0  0  0  0  0  0  0  0  0  0
   10.0573  -14.6252   23.6137 O   0  0  0  0  0  0  0  0  0  0  0  0
    8.2167  -15.8683   24.1141 N   0  0  0  0  0  0  0  0  0  0  0  0
    8.6218  -15.9148   25.5148 C   0  0  1  0  0  0  0  0  0  0  0  0
    7.5117  -15.5221   26.4166 C   0  0  0  0  0  0  0  0  0  0  0  0
    7.2832  -14.0694   26.4580 C   0  0  0  0  0  0  0  0  0  0  0  0
    6.0195  -13.5912   26.1707 C   0  0  0  0  0  0  0  0  0  0  0  0
    5.7661  -12.2399   26.1989 C   0  0  0  0  0  0  0  0  0  0  0  0
    6.7793  -11.3588   26.5157 C   0  0  0  0  0  0  0  0  0  0  0  0
    8.0544  -11.8195   26.8070 C   0  0  0  0  0  0  0  0  0  0  0  0
    8.3018  -13.1739   26.7771 C   0  0  0  0  0  0  0  0  0  0  0  0
    9.2340  -17.1983   25.8684 C   0  0  0  0  0  0  0  0  0  0  0  0
    9.3518  -18.2678   25.0175 O   0  0  0  0  0  0  0  0  0  0  0  0
    9.6920  -17.3551   27.0374 O   0  0  0  0  0  0  0  0  0  0  0  0
  2  1  1  6
  2  4  1  0
  3  2  1  0
  4  5  1  6
  6  4  1  0
  6  8  1  0
  7  6  2  0
  9  8  1  0
  9 10  1  0
 10 12  1  0
 11 10  2  0
 12 13  1  0
 13 14  1  1
 14 15  1  0
 15 20  2  0
 16 17  2  0
 16 15  1  0
 17 18  1  0
 18 19  2  0
 20 19  1  0
 21 13  1  0
 21 22  1  0
 23 21  2  0
M  END
$$$$
