TGF.pdb
     RDKit          3D

 23 23  0  0  1  0  0  0  0  0999 V2000
    8.7417  -19.4426   16.8809 C   0  0  0  0  0  0  0  0  0  0  0  0
    8.9158  -18.1232   17.5831 C   0  0  1  0  0  0  0  0  0  0  0  0
    8.0856  -17.1474   16.9961 O   0  0  0  0  0  0  0  0  0  0  0  0
    8.5268  -18.2980   19.0424 C   0  0  2  0  0  0  0  0  0  0  0  0
    7.0682  -18.5509   19.0975 N   0  0  0  0  0  0  0  0  0  0  0  0
    8.7202  -17.0292   19.7866 C   0  0  0  0  0  0  0  0  0  0  0  0
    9.8884  -16.5467   19.9555 O   0  0  0  0  0  0  0  0  0  0  0  0
    7.6646  -16.2623   20.3557 N   0  0  0  0  0  0  0  0  0  0  0  0
    7.9820  -15.0966   21.1262 C   0  0  0  0  0  0  0  0  0  0  0  0
    8.2398  -15.3460   22.5464 C   0  0  0  0  0  0  0  0  0  0  0  0
    7.8067  -16.4496   23.0378 O   0  0  0  0  0  0  0  0  0  0  0  0
    8.9169  -14.5048   23.4487 N   0  0  0  0  0  0  0  0  0  0  0  0
    9.0400  -14.8649   24.8569 C   0  0  1  0  0  0  0  0  0  0  0  0
    7.7177  -14.9037   25.5273 C   0  0  0  0  0  0  0  0  0  0  0  0
    7.2679  -13.5856   26.0015 C   0  0  0  0  0  0  0  0  0  0  0  0
    6.0563  -13.4986   26.6591 C   0  0  0  0  0  0  0  0  0  0  0  0
    5.6013  -12.2845   27.1174 C   0  0  0  0  0  0  0  0  0  0  0  0
    6.3592  -11.1491   26.9189 C   0  0  0  0  0  0  0  0  0  0  0  0
    7.5781  -11.2161   26.2610 C   0  0  0  0  0  0  0  0  0  0  0  0
    8.0282  -12.4349   25.8044 C   0  0  0  0  0  0  0  0  0  0  0  0
    9.8256  -16.0874   25.0458 C   0  0  0  0  0  0  0  0  0  0  0  0
   10.4838  -16.7548   24.0443 O   0  0  0  0  0  0  0  0  0  0  0  0
    9.9159  -16.5821   26.2069 O   0  0  0  0  0  0  0  0  0  0  0  0
  2  1  1  6
  2  4  1  0
  3  2  1  0
  4  5  1  6
  6  4  1  0
  6  8  1  0
  7  6  2  0
  9  8  1  0
  9 10  1  0
 10 12  1  0
 11 10  2  0
 12 13  1  0
 13 14  1  6
 14 15  1  0
 15 20  2  0
 16 17  2  0
 16 15  1  0
 17 18  1  0
 18 19  2  0
 20 19  1  0
 21 13  1  0
 21 22  1  0
 23 21  2  0
M  END
$$$$
