TGF.pdb
     RDKit          3D

 23 23  0  0  1  0  0  0  0  0999 V2000
    6.8187  -13.5792   18.7683 C   0  0  0  0  0  0  0  0  0  0  0  0
    8.0038  -14.2328   19.4261 C   0  0  1  0  0  0  0  0  0  0  0  0
    8.9593  -13.2601   19.7822 O   0  0  0  0  0  0  0  0  0  0  0  0
    7.5267  -14.9472   20.6804 C   0  0  2  0  0  0  0  0  0  0  0  0
    7.0534  -13.9200   21.6371 N   0  0  0  0  0  0  0  0  0  0  0  0
    8.6642  -15.6086   21.3656 C   0  0  0  0  0  0  0  0  0  0  0  0
    9.1431  -16.7034   20.9205 O   0  0  0  0  0  0  0  0  0  0  0  0
    9.3027  -15.1034   22.5332 N   0  0  0  0  0  0  0  0  0  0  0  0
   10.3677  -15.8539   23.1298 C   0  0  0  0  0  0  0  0  0  0  0  0
   10.3582  -15.8829   24.5943 C   0  0  0  0  0  0  0  0  0  0  0  0
   11.4594  -15.6122   25.1951 O   0  0  0  0  0  0  0  0  0  0  0  0
    9.2667  -16.1772   25.4322 N   0  0  0  0  0  0  0  0  0  0  0  0
    9.4135  -16.1611   26.8835 C   0  0  1  0  0  0  0  0  0  0  0  0
    8.1970  -15.6348   27.5487 C   0  0  0  0  0  0  0  0  0  0  0  0
    7.7489  -14.3440   27.0030 C   0  0  0  0  0  0  0  0  0  0  0  0
    6.7759  -14.3436   26.0226 C   0  0  0  0  0  0  0  0  0  0  0  0
    6.3307  -13.1576   25.4875 C   0  0  0  0  0  0  0  0  0  0  0  0
    6.8591  -11.9636   25.9326 C   0  0  0  0  0  0  0  0  0  0  0  0
    7.8366  -11.9434   26.9159 C   0  0  0  0  0  0  0  0  0  0  0  0
    8.2782  -13.1344   27.4479 C   0  0  0  0  0  0  0  0  0  0  0  0
    9.8493  -17.4585   27.4071 C   0  0  0  0  0  0  0  0  0  0  0  0
    9.9583  -18.6046   26.6612 O   0  0  0  0  0  0  0  0  0  0  0  0
   10.1497  -17.5529   28.6326 O   0  0  0  0  0  0  0  0  0  0  0  0
  2  1  1  1
  2  4  1  0
  3  2  1  0
  4  5  1  1
  6  4  1  0
  6  8  1  0
  7  6  2  0
  9  8  1  0
  9 10  1  0
 10 12  1  0
 11 10  2  0
 12 13  1  0
 13 14  1  1
 14 15  1  0
 15 20  2  0
 16 17  2  0
 16 15  1  0
 17 18  1  0
 18 19  2  0
 20 19  1  0
 21 13  1  0
 21 22  1  0
 23 21  2  0
M  END
$$$$
