TGF.pdb
     RDKit          3D

 23 23  0  0  1  0  0  0  0  0999 V2000
    7.4704  -12.5480   18.3319 C   0  0  0  0  0  0  0  0  0  0  0  0
    7.3251  -13.7125   19.2738 C   0  0  1  0  0  0  0  0  0  0  0  0
    7.7163  -14.9059   18.6345 O   0  0  0  0  0  0  0  0  0  0  0  0
    8.2212  -13.4738   20.4784 C   0  0  2  0  0  0  0  0  0  0  0  0
    9.6278  -13.5248   20.0165 N   0  0  0  0  0  0  0  0  0  0  0  0
    8.0989  -14.5918   21.4460 C   0  0  0  0  0  0  0  0  0  0  0  0
    7.0439  -14.7302   22.1487 O   0  0  0  0  0  0  0  0  0  0  0  0
    9.1039  -15.5748   21.6696 N   0  0  0  0  0  0  0  0  0  0  0  0
    8.8866  -16.5860   22.6613 C   0  0  0  0  0  0  0  0  0  0  0  0
    9.2168  -16.1882   24.0319 C   0  0  0  0  0  0  0  0  0  0  0  0
   10.2621  -15.4624   24.1980 O   0  0  0  0  0  0  0  0  0  0  0  0
    8.5117  -16.5135   25.2054 N   0  0  0  0  0  0  0  0  0  0  0  0
    9.0542  -16.1829   26.5186 C   0  0  1  0  0  0  0  0  0  0  0  0
    8.0337  -15.5447   27.3850 C   0  0  0  0  0  0  0  0  0  0  0  0
    7.5447  -14.2612   26.8577 C   0  0  0  0  0  0  0  0  0  0  0  0
    8.3245  -13.1347   27.0340 C   0  0  0  0  0  0  0  0  0  0  0  0
    7.9020  -11.9166   26.5557 C   0  0  0  0  0  0  0  0  0  0  0  0
    6.6937  -11.8205   25.8969 C   0  0  0  0  0  0  0  0  0  0  0  0
    5.8968  -12.9399   25.7101 C   0  0  0  0  0  0  0  0  0  0  0  0
    6.3255  -14.1569   26.1915 C   0  0  0  0  0  0  0  0  0  0  0  0
    9.7162  -17.3302   27.1455 C   0  0  0  0  0  0  0  0  0  0  0  0
   10.4596  -17.2692   28.2967 O   0  0  0  0  0  0  0  0  0  0  0  0
    9.6099  -18.4682   26.6027 O   0  0  0  0  0  0  0  0  0  0  0  0
  2  1  1  6
  2  4  1  0
  3  2  1  0
  4  5  1  6
  6  4  1  0
  6  8  1  0
  7  6  2  0
  9  8  1  0
  9 10  1  0
 10 12  1  0
 11 10  2  0
 12 13  1  0
 13 14  1  1
 14 15  1  0
 15 20  2  0
 16 17  2  0
 16 15  1  0
 17 18  1  0
 18 19  2  0
 20 19  1  0
 21 13  1  0
 21 22  1  0
 23 21  2  0
M  END
$$$$
