TGF.pdb
     RDKit          3D

 23 23  0  0  1  0  0  0  0  0999 V2000
   10.2298  -15.5505   18.7840 C   0  0  0  0  0  0  0  0  0  0  0  0
    9.6771  -14.1751   18.5249 C   0  0  1  0  0  0  0  0  0  0  0  0
   10.0680  -13.7274   17.2471 O   0  0  0  0  0  0  0  0  0  0  0  0
    8.1598  -14.2448   18.5874 C   0  0  2  0  0  0  0  0  0  0  0  0
    7.6293  -12.8948   18.2861 N   0  0  0  0  0  0  0  0  0  0  0  0
    7.7099  -14.5288   19.9723 C   0  0  0  0  0  0  0  0  0  0  0  0
    7.8267  -13.6478   20.8869 O   0  0  0  0  0  0  0  0  0  0  0  0
    7.1278  -15.7581   20.3921 N   0  0  0  0  0  0  0  0  0  0  0  0
    6.6890  -15.8983   21.7490 C   0  0  0  0  0  0  0  0  0  0  0  0
    7.7561  -15.8513   22.7514 C   0  0  0  0  0  0  0  0  0  0  0  0
    8.9640  -15.7916   22.3222 O   0  0  0  0  0  0  0  0  0  0  0  0
    7.6097  -15.8642   24.1509 N   0  0  0  0  0  0  0  0  0  0  0  0
    8.7669  -15.7029   25.0244 C   0  0  1  0  0  0  0  0  0  0  0  0
    9.0942  -14.2721   25.2370 C   0  0  0  0  0  0  0  0  0  0  0  0
    7.9957  -13.5100   25.8509 C   0  0  0  0  0  0  0  0  0  0  0  0
    6.8520  -13.2863   25.1093 C   0  0  0  0  0  0  0  0  0  0  0  0
    5.8033  -12.5783   25.6479 C   0  0  0  0  0  0  0  0  0  0  0  0
    5.8951  -12.0898   26.9347 C   0  0  0  0  0  0  0  0  0  0  0  0
    7.0348  -12.3040   27.6950 C   0  0  0  0  0  0  0  0  0  0  0  0
    8.0816  -13.0137   27.1500 C   0  0  0  0  0  0  0  0  0  0  0  0
    8.6254  -16.4601   26.2710 C   0  0  0  0  0  0  0  0  0  0  0  0
    7.5212  -17.1975   26.6153 O   0  0  0  0  0  0  0  0  0  0  0  0
    9.5763  -16.4458   27.1056 O   0  0  0  0  0  0  0  0  0  0  0  0
  2  1  1  6
  2  4  1  0
  3  2  1  0
  4  5  1  1
  6  4  1  0
  6  8  1  0
  7  6  2  0
  9  8  1  0
  9 10  1  0
 10 12  1  0
 11 10  2  0
 12 13  1  0
 13 14  1  1
 14 15  1  0
 15 20  2  0
 16 17  2  0
 16 15  1  0
 17 18  1  0
 18 19  2  0
 20 19  1  0
 21 13  1  0
 21 22  1  0
 23 21  2  0
M  END
$$$$
