TGF.pdb
     RDKit          3D

 23 23  0  0  1  0  0  0  0  0999 V2000
    8.5304  -18.7642   16.3594 C   0  0  0  0  0  0  0  0  0  0  0  0
    8.1126  -17.8327   17.4649 C   0  0  1  0  0  0  0  0  0  0  0  0
    6.7939  -18.1204   17.8700 O   0  0  0  0  0  0  0  0  0  0  0  0
    9.0519  -18.0305   18.6438 C   0  0  2  0  0  0  0  0  0  0  0  0
    8.8502  -19.4039   19.1610 N   0  0  0  0  0  0  0  0  0  0  0  0
    8.6684  -17.1416   19.7680 C   0  0  0  0  0  0  0  0  0  0  0  0
    9.0172  -15.9151   19.7745 O   0  0  0  0  0  0  0  0  0  0  0  0
    7.9051  -17.5559   20.8958 N   0  0  0  0  0  0  0  0  0  0  0  0
    7.5069  -16.5819   21.8685 C   0  0  0  0  0  0  0  0  0  0  0  0
    8.4460  -16.3962   22.9772 C   0  0  0  0  0  0  0  0  0  0  0  0
    9.5926  -16.9641   22.8781 O   0  0  0  0  0  0  0  0  0  0  0  0
    8.2352  -15.6571   24.1559 N   0  0  0  0  0  0  0  0  0  0  0  0
    9.3082  -15.4795   25.1282 C   0  0  1  0  0  0  0  0  0  0  0  0
    9.5036  -14.0494   25.4691 C   0  0  0  0  0  0  0  0  0  0  0  0
    8.2677  -13.3828   25.9080 C   0  0  0  0  0  0  0  0  0  0  0  0
    7.2189  -13.2818   25.0148 C   0  0  0  0  0  0  0  0  0  0  0  0
    6.0472  -12.6657   25.3873 C   0  0  0  0  0  0  0  0  0  0  0  0
    5.9199  -12.1467   26.6591 C   0  0  0  0  0  0  0  0  0  0  0  0
    6.9615  -12.2382   27.5700 C   0  0  0  0  0  0  0  0  0  0  0  0
    8.1323  -12.8563   27.1908 C   0  0  0  0  0  0  0  0  0  0  0  0
    9.1360  -16.3403   26.3014 C   0  0  0  0  0  0  0  0  0  0  0  0
   10.0822  -16.5296   27.2764 O   0  0  0  0  0  0  0  0  0  0  0  0
    8.0453  -16.9653   26.4456 O   0  0  0  0  0  0  0  0  0  0  0  0
  2  1  1  6
  2  4  1  0
  3  2  1  0
  4  5  1  1
  6  4  1  0
  6  8  1  0
  7  6  2  0
  9  8  1  0
  9 10  1  0
 10 12  1  0
 11 10  2  0
 12 13  1  0
 13 14  1  1
 14 15  1  0
 15 20  2  0
 16 17  2  0
 16 15  1  0
 17 18  1  0
 18 19  2  0
 20 19  1  0
 21 13  1  0
 21 22  1  0
 23 21  2  0
M  END
$$$$
