TGF.pdb
     RDKit          3D

 23 23  0  0  1  0  0  0  0  0999 V2000
   10.6099  -15.0550   19.5547 C   0  0  0  0  0  0  0  0  0  0  0  0
    9.9478  -13.8156   19.0163 C   0  0  1  0  0  0  0  0  0  0  0  0
   10.4920  -13.4808   17.7603 O   0  0  0  0  0  0  0  0  0  0  0  0
    8.4611  -14.0919   18.8592 C   0  0  2  0  0  0  0  0  0  0  0  0
    7.8128  -12.8435   18.3946 N   0  0  0  0  0  0  0  0  0  0  0  0
    7.8430  -14.3721   20.1784 C   0  0  0  0  0  0  0  0  0  0  0  0
    7.6152  -13.4266   21.0031 O   0  0  0  0  0  0  0  0  0  0  0  0
    7.4599  -15.6675   20.6276 N   0  0  0  0  0  0  0  0  0  0  0  0
    6.8223  -15.8065   21.9033 C   0  0  0  0  0  0  0  0  0  0  0  0
    7.7241  -15.7370   23.0555 C   0  0  0  0  0  0  0  0  0  0  0  0
    8.9829  -15.6728   22.8141 O   0  0  0  0  0  0  0  0  0  0  0  0
    7.3666  -15.7323   24.4165 N   0  0  0  0  0  0  0  0  0  0  0  0
    8.3768  -15.5528   25.4535 C   0  0  1  0  0  0  0  0  0  0  0  0
    7.7872  -15.0071   26.7002 C   0  0  0  0  0  0  0  0  0  0  0  0
    7.2202  -13.6599   26.5333 C   0  0  0  0  0  0  0  0  0  0  0  0
    5.8661  -13.4828   26.7415 C   0  0  0  0  0  0  0  0  0  0  0  0
    5.2985  -12.2388   26.5954 C   0  0  0  0  0  0  0  0  0  0  0  0
    6.0860  -11.1636   26.2392 C   0  0  0  0  0  0  0  0  0  0  0  0
    7.4471  -11.3212   26.0259 C   0  0  0  0  0  0  0  0  0  0  0  0
    8.0095  -12.5695   26.1738 C   0  0  0  0  0  0  0  0  0  0  0  0
    9.1693  -16.7669   25.6661 C   0  0  0  0  0  0  0  0  0  0  0  0
   10.4106  -16.7966   26.2492 O   0  0  0  0  0  0  0  0  0  0  0  0
    8.6959  -17.8787   25.2913 O   0  0  0  0  0  0  0  0  0  0  0  0
  2  1  1  6
  2  4  1  0
  3  2  1  0
  4  5  1  1
  6  4  1  0
  6  8  1  0
  7  6  2  0
  9  8  1  0
  9 10  1  0
 10 12  1  0
 11 10  2  0
 12 13  1  0
 13 14  1  1
 14 15  1  0
 15 20  2  0
 16 17  2  0
 16 15  1  0
 17 18  1  0
 18 19  2  0
 20 19  1  0
 21 13  1  0
 21 22  1  0
 23 21  2  0
M  END
$$$$
