TGF.pdb
     RDKit          3D

 23 23  0  0  1  0  0  0  0  0999 V2000
    7.3448  -12.6075   17.8096 C   0  0  0  0  0  0  0  0  0  0  0  0
    7.2857  -13.7531   18.7836 C   0  0  1  0  0  0  0  0  0  0  0  0
    7.9022  -14.8931   18.2303 O   0  0  0  0  0  0  0  0  0  0  0  0
    8.0252  -13.3495   20.0490 C   0  0  2  0  0  0  0  0  0  0  0  0
    9.4571  -13.1852   19.7066 N   0  0  0  0  0  0  0  0  0  0  0  0
    7.9965  -14.4523   21.0410 C   0  0  0  0  0  0  0  0  0  0  0  0
    6.9502  -14.6744   21.7353 O   0  0  0  0  0  0  0  0  0  0  0  0
    9.0868  -15.3305   21.2984 N   0  0  0  0  0  0  0  0  0  0  0  0
    8.9030  -16.4309   22.1976 C   0  0  0  0  0  0  0  0  0  0  0  0
    9.2041  -16.1388   23.6011 C   0  0  0  0  0  0  0  0  0  0  0  0
   10.4073  -15.7944   23.8852 O   0  0  0  0  0  0  0  0  0  0  0  0
    8.3154  -16.1923   24.6908 N   0  0  0  0  0  0  0  0  0  0  0  0
    8.7921  -15.9874   26.0542 C   0  0  1  0  0  0  0  0  0  0  0  0
    7.7303  -15.4260   26.9243 C   0  0  0  0  0  0  0  0  0  0  0  0
    7.3413  -14.0559   26.5555 C   0  0  0  0  0  0  0  0  0  0  0  0
    6.0448  -13.8275   26.1369 C   0  0  0  0  0  0  0  0  0  0  0  0
    5.6428  -12.5608   25.7837 C   0  0  0  0  0  0  0  0  0  0  0  0
    6.5391  -11.5142   25.8481 C   0  0  0  0  0  0  0  0  0  0  0  0
    7.8448  -11.7233   26.2658 C   0  0  0  0  0  0  0  0  0  0  0  0
    8.2413  -12.9942   26.6182 C   0  0  0  0  0  0  0  0  0  0  0  0
    9.4206  -17.1914   26.6043 C   0  0  0  0  0  0  0  0  0  0  0  0
    9.4055  -18.4242   26.0028 O   0  0  0  0  0  0  0  0  0  0  0  0
   10.0246  -17.1128   27.7134 O   0  0  0  0  0  0  0  0  0  0  0  0
  2  1  1  6
  2  4  1  0
  3  2  1  0
  4  5  1  6
  6  4  1  0
  6  8  1  0
  7  6  2  0
  9  8  1  0
  9 10  1  0
 10 12  1  0
 11 10  2  0
 12 13  1  0
 13 14  1  1
 14 15  1  0
 15 20  2  0
 16 17  2  0
 16 15  1  0
 17 18  1  0
 18 19  2  0
 20 19  1  0
 21 13  1  0
 21 22  1  0
 23 21  2  0
M  END
$$$$
