TGF.pdb
     RDKit          3D

 23 23  0  0  1  0  0  0  0  0999 V2000
    6.2993  -20.5604   19.6134 C   0  0  0  0  0  0  0  0  0  0  0  0
    7.2822  -19.4210   19.6077 C   0  0  1  0  0  0  0  0  0  0  0  0
    7.6074  -19.0668   18.2831 O   0  0  0  0  0  0  0  0  0  0  0  0
    6.6430  -18.2286   20.3012 C   0  0  2  0  0  0  0  0  0  0  0  0
    5.6285  -17.6588   19.3844 N   0  0  0  0  0  0  0  0  0  0  0  0
    7.6369  -17.1433   20.4890 C   0  0  0  0  0  0  0  0  0  0  0  0
    8.8781  -17.3573   20.2893 O   0  0  0  0  0  0  0  0  0  0  0  0
    7.3122  -15.8166   20.8902 N   0  0  0  0  0  0  0  0  0  0  0  0
    8.3691  -14.8835   21.1462 C   0  0  0  0  0  0  0  0  0  0  0  0
    8.7980  -14.8043   22.5446 C   0  0  0  0  0  0  0  0  0  0  0  0
    9.7626  -14.0038   22.8194 O   0  0  0  0  0  0  0  0  0  0  0  0
    8.2683  -15.5137   23.6384 N   0  0  0  0  0  0  0  0  0  0  0  0
    8.8300  -15.3536   24.9751 C   0  0  1  0  0  0  0  0  0  0  0  0
    7.7679  -15.1798   25.9955 C   0  0  0  0  0  0  0  0  0  0  0  0
    7.3077  -13.7882   26.1237 C   0  0  0  0  0  0  0  0  0  0  0  0
    5.9646  -13.5546   26.3459 C   0  0  0  0  0  0  0  0  0  0  0  0
    5.4956  -12.2680   26.4713 C   0  0  0  0  0  0  0  0  0  0  0  0
    6.3715  -11.2066   26.3745 C   0  0  0  0  0  0  0  0  0  0  0  0
    7.7233  -11.4208   26.1517 C   0  0  0  0  0  0  0  0  0  0  0  0
    8.1868  -12.7116   26.0270 C   0  0  0  0  0  0  0  0  0  0  0  0
    9.7842  -16.4166   25.3021 C   0  0  0  0  0  0  0  0  0  0  0  0
   10.0909  -17.4705   24.4794 O   0  0  0  0  0  0  0  0  0  0  0  0
   10.3784  -16.3817   26.4186 O   0  0  0  0  0  0  0  0  0  0  0  0
  2  1  1  6
  2  4  1  0
  3  2  1  0
  4  5  1  6
  6  4  1  0
  6  8  1  0
  7  6  2  0
  9  8  1  0
  9 10  1  0
 10 12  1  0
 11 10  2  0
 12 13  1  0
 13 14  1  1
 14 15  1  0
 15 20  2  0
 16 17  2  0
 16 15  1  0
 17 18  1  0
 18 19  2  0
 20 19  1  0
 21 13  1  0
 21 22  1  0
 23 21  2  0
M  END
$$$$
