TGF.pdb
     RDKit          3D

 23 23  0  0  1  0  0  0  0  0999 V2000
    6.9858  -12.5607   19.2560 C   0  0  0  0  0  0  0  0  0  0  0  0
    7.9150  -13.4593   18.4859 C   0  0  1  0  0  0  0  0  0  0  0  0
    8.5663  -12.7296   17.4714 O   0  0  0  0  0  0  0  0  0  0  0  0
    8.9537  -14.0166   19.4460 C   0  0  2  0  0  0  0  0  0  0  0  0
    9.9332  -14.7967   18.6544 N   0  0  0  0  0  0  0  0  0  0  0  0
    8.3350  -15.0044   20.3638 C   0  0  0  0  0  0  0  0  0  0  0  0
    8.5573  -16.2519   20.2212 O   0  0  0  0  0  0  0  0  0  0  0  0
    7.4736  -14.6668   21.4456 N   0  0  0  0  0  0  0  0  0  0  0  0
    6.9200  -15.7130   22.2533 C   0  0  0  0  0  0  0  0  0  0  0  0
    7.5252  -15.8555   23.5796 C   0  0  0  0  0  0  0  0  0  0  0  0
    7.0565  -16.7733   24.3445 O   0  0  0  0  0  0  0  0  0  0  0  0
    8.5760  -15.0925   24.1217 N   0  0  0  0  0  0  0  0  0  0  0  0
    9.0201  -15.3023   25.4953 C   0  0  1  0  0  0  0  0  0  0  0  0
    7.9034  -15.1473   26.4589 C   0  0  0  0  0  0  0  0  0  0  0  0
    7.3636  -13.7795   26.5072 C   0  0  0  0  0  0  0  0  0  0  0  0
    6.0604  -13.5984   26.9278 C   0  0  0  0  0  0  0  0  0  0  0  0
    5.5195  -12.3355   26.9867 C   0  0  0  0  0  0  0  0  0  0  0  0
    6.2828  -11.2452   26.6237 C   0  0  0  0  0  0  0  0  0  0  0  0
    7.5929  -11.4066   26.1988 C   0  0  0  0  0  0  0  0  0  0  0  0
    8.1288  -12.6740   26.1420 C   0  0  0  0  0  0  0  0  0  0  0  0
    9.7535  -16.5615   25.6504 C   0  0  0  0  0  0  0  0  0  0  0  0
   10.0852  -17.4036   24.6197 O   0  0  0  0  0  0  0  0  0  0  0  0
   10.1151  -16.9189   26.8090 O   0  0  0  0  0  0  0  0  0  0  0  0
  2  1  1  1
  2  4  1  0
  3  2  1  0
  4  5  1  6
  6  4  1  0
  6  8  1  0
  7  6  2  0
  9  8  1  0
  9 10  1  0
 10 12  1  0
 11 10  2  0
 12 13  1  0
 13 14  1  1
 14 15  1  0
 15 20  2  0
 16 17  2  0
 16 15  1  0
 17 18  1  0
 18 19  2  0
 20 19  1  0
 21 13  1  0
 21 22  1  0
 23 21  2  0
M  END
$$$$
