TGF.pdb
     RDKit          3D

 23 23  0  0  1  0  0  0  0  0999 V2000
   10.7158  -15.4103   19.1744 C   0  0  0  0  0  0  0  0  0  0  0  0
   10.1967  -14.0275   18.8868 C   0  0  1  0  0  0  0  0  0  0  0  0
   10.6324  -13.5996   17.6168 O   0  0  0  0  0  0  0  0  0  0  0  0
    8.6771  -14.0685   18.9062 C   0  0  2  0  0  0  0  0  0  0  0  0
    8.1808  -12.7162   18.5602 N   0  0  0  0  0  0  0  0  0  0  0  0
    8.1819  -14.3136   20.2830 C   0  0  0  0  0  0  0  0  0  0  0  0
    8.1521  -13.3700   21.1403 O   0  0  0  0  0  0  0  0  0  0  0  0
    7.7112  -15.5710   20.7559 N   0  0  0  0  0  0  0  0  0  0  0  0
    7.0213  -15.6342   22.0103 C   0  0  0  0  0  0  0  0  0  0  0  0
    7.8880  -15.6878   23.1899 C   0  0  0  0  0  0  0  0  0  0  0  0
    9.1554  -15.7022   22.9885 O   0  0  0  0  0  0  0  0  0  0  0  0
    7.4879  -15.7258   24.5385 N   0  0  0  0  0  0  0  0  0  0  0  0
    8.4707  -15.6289   25.6122 C   0  0  1  0  0  0  0  0  0  0  0  0
    7.8575  -15.1363   26.8696 C   0  0  0  0  0  0  0  0  0  0  0  0
    7.1644  -13.8481   26.7120 C   0  0  0  0  0  0  0  0  0  0  0  0
    7.9012  -12.6845   26.8180 C   0  0  0  0  0  0  0  0  0  0  0  0
    7.2897  -11.4609   26.6769 C   0  0  0  0  0  0  0  0  0  0  0  0
    5.9342  -11.3965   26.4283 C   0  0  0  0  0  0  0  0  0  0  0  0
    5.1777  -12.5534   26.3185 C   0  0  0  0  0  0  0  0  0  0  0  0
    5.7959  -13.7758   26.4608 C   0  0  0  0  0  0  0  0  0  0  0  0
    9.2266  -16.8729   25.7806 C   0  0  0  0  0  0  0  0  0  0  0  0
   10.4309  -16.9728   26.4296 O   0  0  0  0  0  0  0  0  0  0  0  0
    8.7551  -17.9439   25.2994 O   0  0  0  0  0  0  0  0  0  0  0  0
  2  1  1  6
  2  4  1  0
  3  2  1  0
  4  5  1  1
  6  4  1  0
  6  8  1  0
  7  6  2  0
  9  8  1  0
  9 10  1  0
 10 12  1  0
 11 10  2  0
 12 13  1  0
 13 14  1  1
 14 15  1  0
 15 20  2  0
 16 17  2  0
 16 15  1  0
 17 18  1  0
 18 19  2  0
 20 19  1  0
 21 13  1  0
 21 22  1  0
 23 21  2  0
M  END
$$$$
