TGF.pdb
     RDKit          3D

 23 23  0  0  1  0  0  0  0  0999 V2000
    5.4141  -15.7216   21.0019 C   0  0  0  0  0  0  0  0  0  0  0  0
    6.6263  -15.3386   21.8070 C   0  0  1  0  0  0  0  0  0  0  0  0
    6.5089  -15.8268   23.1238 O   0  0  0  0  0  0  0  0  0  0  0  0
    7.8538  -15.9533   21.1538 C   0  0  2  0  0  0  0  0  0  0  0  0
    7.8154  -17.4140   21.3971 N   0  0  0  0  0  0  0  0  0  0  0  0
    9.0895  -15.4882   21.8302 C   0  0  0  0  0  0  0  0  0  0  0  0
    9.5257  -14.3045   21.6444 O   0  0  0  0  0  0  0  0  0  0  0  0
    9.8700  -16.2850   22.7147 N   0  0  0  0  0  0  0  0  0  0  0  0
   10.9785  -15.6897   23.4004 C   0  0  0  0  0  0  0  0  0  0  0  0
   10.8381  -15.6185   24.8567 C   0  0  0  0  0  0  0  0  0  0  0  0
   11.7988  -15.0788   25.5146 O   0  0  0  0  0  0  0  0  0  0  0  0
    9.7570  -16.0794   25.6307 N   0  0  0  0  0  0  0  0  0  0  0  0
    9.7969  -16.0080   27.0872 C   0  0  1  0  0  0  0  0  0  0  0  0
    8.5112  -15.5226   27.6446 C   0  0  0  0  0  0  0  0  0  0  0  0
    7.9722  -14.3549   26.9300 C   0  0  0  0  0  0  0  0  0  0  0  0
    6.9743  -14.5549   25.9961 C   0  0  0  0  0  0  0  0  0  0  0  0
    6.4447  -13.4889   25.3074 C   0  0  0  0  0  0  0  0  0  0  0  0
    6.9132  -12.2145   25.5512 C   0  0  0  0  0  0  0  0  0  0  0  0
    7.9144  -11.9934   26.4847 C   0  0  0  0  0  0  0  0  0  0  0  0
    8.4406  -13.0651   27.1712 C   0  0  0  0  0  0  0  0  0  0  0  0
   10.2557  -17.2635   27.6875 C   0  0  0  0  0  0  0  0  0  0  0  0
   10.5000  -18.4190   26.9897 O   0  0  0  0  0  0  0  0  0  0  0  0
   10.4450  -17.3094   28.9377 O   0  0  0  0  0  0  0  0  0  0  0  0
  2  1  1  6
  2  4  1  0
  3  2  1  0
  4  5  1  1
  6  4  1  0
  6  8  1  0
  7  6  2  0
  9  8  1  0
  9 10  1  0
 10 12  1  0
 11 10  2  0
 12 13  1  0
 13 14  1  1
 14 15  1  0
 15 20  2  0
 16 17  2  0
 16 15  1  0
 17 18  1  0
 18 19  2  0
 20 19  1  0
 21 13  1  0
 21 22  1  0
 23 21  2  0
M  END
$$$$
