TGF.pdb
     RDKit          3D

 23 23  0  0  1  0  0  0  0  0999 V2000
    7.5763  -12.3543   18.5300 C   0  0  0  0  0  0  0  0  0  0  0  0
    7.5267  -13.6932   19.2149 C   0  0  1  0  0  0  0  0  0  0  0  0
    7.8522  -14.7174   18.3032 O   0  0  0  0  0  0  0  0  0  0  0  0
    8.5392  -13.6933   20.3490 C   0  0  2  0  0  0  0  0  0  0  0  0
    9.8898  -13.8183   19.7533 N   0  0  0  0  0  0  0  0  0  0  0  0
    8.3801  -14.9074   21.1866 C   0  0  0  0  0  0  0  0  0  0  0  0
    9.3338  -15.7459   21.3030 O   0  0  0  0  0  0  0  0  0  0  0  0
    7.1992  -15.2354   21.9106 N   0  0  0  0  0  0  0  0  0  0  0  0
    7.1377  -16.4752   22.6264 C   0  0  0  0  0  0  0  0  0  0  0  0
    7.7541  -16.4527   23.9550 C   0  0  0  0  0  0  0  0  0  0  0  0
    7.5919  -17.4878   24.6962 O   0  0  0  0  0  0  0  0  0  0  0  0
    8.5146  -15.4136   24.5225 N   0  0  0  0  0  0  0  0  0  0  0  0
    9.0877  -15.5504   25.8571 C   0  0  1  0  0  0  0  0  0  0  0  0
    8.0948  -15.2323   26.9119 C   0  0  0  0  0  0  0  0  0  0  0  0
    7.4920  -13.8990   26.7590 C   0  0  0  0  0  0  0  0  0  0  0  0
    6.1146  -13.7944   26.7473 C   0  0  0  0  0  0  0  0  0  0  0  0
    5.5133  -12.5658   26.6064 C   0  0  0  0  0  0  0  0  0  0  0  0
    6.2901  -11.4332   26.4762 C   0  0  0  0  0  0  0  0  0  0  0  0
    7.6742  -11.5177   26.4855 C   0  0  0  0  0  0  0  0  0  0  0  0
    8.2704  -12.7511   26.6269 C   0  0  0  0  0  0  0  0  0  0  0  0
    9.7422  -16.8480   26.0447 C   0  0  0  0  0  0  0  0  0  0  0  0
    9.8905  -17.7964   25.0648 O   0  0  0  0  0  0  0  0  0  0  0  0
   10.2099  -17.1370   27.1843 O   0  0  0  0  0  0  0  0  0  0  0  0
  2  1  1  6
  2  4  1  0
  3  2  1  0
  4  5  1  6
  6  4  1  0
  6  8  1  0
  7  6  2  0
  9  8  1  0
  9 10  1  0
 10 12  1  0
 11 10  2  0
 12 13  1  0
 13 14  1  1
 14 15  1  0
 15 20  2  0
 16 17  2  0
 16 15  1  0
 17 18  1  0
 18 19  2  0
 20 19  1  0
 21 13  1  0
 21 22  1  0
 23 21  2  0
M  END
$$$$
