PDR.pdb
     RDKit          3D

 27 27  0  0  1  0  0  0  0  0999 V2000
    8.3241  -14.4731   17.5313 N   0  0  0  0  0  0  0  0  0  0  0  0
    7.0988  -14.2014   18.2678 C   0  0  0  0  0  0  0  0  0  0  0  0
    7.3773  -12.8936   18.9353 C   0  0  0  0  0  0  0  0  0  0  0  0
    8.8645  -12.8481   19.0824 C   0  0  0  0  0  0  0  0  0  0  0  0
    9.4043  -14.0880   18.3820 C   0  0  1  0  0  0  0  0  0  0  0  0
    9.6470  -15.0934   19.4725 C   0  0  0  0  0  0  0  0  0  0  0  0
    8.7410  -15.2801   20.2993 O   0  0  0  0  0  0  0  0  0  0  0  0
   10.8440  -15.8157   19.5847 N   0  0  0  0  0  0  0  0  0  0  0  0
   11.0687  -16.8087   20.6104 C   0  0  1  0  0  0  0  0  0  0  0  0
   12.3984  -17.4881   20.4887 C   0  0  0  0  0  0  0  0  0  0  0  0
   12.5675  -18.2084   19.2089 C   0  0  0  0  0  0  0  0  0  0  0  0
   13.4288  -17.7413   18.4077 O   0  0  0  0  0  0  0  0  0  0  0  0
   10.9810  -16.2150   21.9616 C   0  0  0  0  0  0  0  0  0  0  0  0
   11.6268  -15.1418   22.1622 O   0  0  0  0  0  0  0  0  0  0  0  0
   11.8804  -19.3221   18.8235 O   0  0  0  0  0  0  0  0  0  0  0  0
    7.3586  -12.7319   27.6809 N   0  0  0  0  0  0  0  0  0  0  0  0
    6.3127  -12.3441   26.7849 C   0  0  0  0  0  0  0  0  0  0  0  0
    5.5724  -11.3619   27.1630 N   0  0  0  0  0  0  0  0  0  0  0  0
    6.1372  -13.0359   25.5519 N   0  0  0  0  0  0  0  0  0  0  0  0
    6.6929  -14.3709   25.4656 C   0  0  0  0  0  0  0  0  0  0  0  0
    8.1214  -14.4618   25.1647 C   0  0  0  0  0  0  0  0  0  0  0  0
    8.6972  -15.2829   24.1223 C   0  0  0  0  0  0  0  0  0  0  0  0
    9.9804  -15.9644   24.2896 C   0  0  2  0  0  0  0  0  0  0  0  0
   10.2452  -16.7463   23.0221 N   0  0  0  0  0  0  0  0  0  0  0  0
   10.0396  -16.9331   25.3792 C   0  0  0  0  0  0  0  0  0  0  0  0
    9.5342  -18.1960   25.2837 O   0  0  0  0  0  0  0  0  0  0  0  0
   10.5808  -16.6283   26.5168 O   0  0  0  0  0  0  0  0  0  0  0  0
  1  2  1  0
  2  3  1  0
  4  3  1  0
  5  1  1  0
  5  4  1  0
  5  6  1  1
  7  6  2  0
  8  6  1  0
  9  8  1  0
  9 10  1  6
 11 10  1  0
 11 12  2  0
 13  9  1  0
 13 14  2  0
 15 11  1  0
 17 18  2  0
 17 16  1  0
 19 17  1  0
 20 19  1  0
 21 20  1  0
 22 21  1  0
 23 22  1  6
 23 24  1  0
 24 13  1  0
 25 23  1  0
 26 25  1  0
 27 25  2  0
M  END
$$$$
