PDR.pdb
     RDKit          3D

 27 27  0  0  1  0  0  0  0  0999 V2000
    8.8667  -13.8141   17.5653 N   0  0  0  0  0  0  0  0  0  0  0  0
    7.5844  -14.5021   17.5629 C   0  0  0  0  0  0  0  0  0  0  0  0
    6.7821  -13.7453   18.5712 C   0  0  0  0  0  0  0  0  0  0  0  0
    7.7934  -13.1604   19.5042 C   0  0  0  0  0  0  0  0  0  0  0  0
    9.1604  -13.5051   18.9280 C   0  0  1  0  0  0  0  0  0  0  0  0
    9.6261  -14.7137   19.6907 C   0  0  0  0  0  0  0  0  0  0  0  0
    9.0014  -15.0270   20.7157 O   0  0  0  0  0  0  0  0  0  0  0  0
   10.7254  -15.4862   19.2885 N   0  0  0  0  0  0  0  0  0  0  0  0
   11.2371  -16.5898   20.0689 C   0  0  1  0  0  0  0  0  0  0  0  0
   12.2539  -17.4078   19.3329 C   0  0  0  0  0  0  0  0  0  0  0  0
   12.6430  -18.6375   20.0552 C   0  0  0  0  0  0  0  0  0  0  0  0
   11.7139  -19.2659   20.6415 O   0  0  0  0  0  0  0  0  0  0  0  0
   11.8542  -16.1179   21.3268 C   0  0  0  0  0  0  0  0  0  0  0  0
   12.6525  -15.1356   21.2438 O   0  0  0  0  0  0  0  0  0  0  0  0
   13.9060  -19.1459   20.1417 O   0  0  0  0  0  0  0  0  0  0  0  0
    9.3177  -15.3410   29.6835 N   0  0  0  0  0  0  0  0  0  0  0  0
   10.7179  -15.2232   29.4136 C   0  0  0  0  0  0  0  0  0  0  0  0
   11.2727  -14.1124   29.7516 N   0  0  0  0  0  0  0  0  0  0  0  0
   11.4194  -16.3021   28.8025 N   0  0  0  0  0  0  0  0  0  0  0  0
   10.9470  -16.7382   27.5043 C   0  0  0  0  0  0  0  0  0  0  0  0
   11.6873  -16.2435   26.3438 C   0  0  0  0  0  0  0  0  0  0  0  0
   11.3540  -16.5298   24.9657 C   0  0  0  0  0  0  0  0  0  0  0  0
   12.1714  -16.0488   23.8524 C   0  0  2  0  0  0  0  0  0  0  0  0
   11.6230  -16.6710   22.5874 N   0  0  0  0  0  0  0  0  0  0  0  0
   13.5820  -16.4186   23.9033 C   0  0  0  0  0  0  0  0  0  0  0  0
   14.0505  -17.6332   23.4976 O   0  0  0  0  0  0  0  0  0  0  0  0
   14.4742  -15.5935   24.3541 O   0  0  0  0  0  0  0  0  0  0  0  0
  1  2  1  0
  2  3  1  0
  4  3  1  0
  5  1  1  0
  5  4  1  0
  5  6  1  1
  7  6  2  0
  8  6  1  0
  9  8  1  0
  9 10  1  6
 11 10  1  0
 11 12  2  0
 13  9  1  0
 13 14  2  0
 15 11  1  0
 17 18  2  0
 17 16  1  0
 19 17  1  0
 20 19  1  0
 21 20  1  0
 22 21  1  0
 23 22  1  1
 23 24  1  0
 24 13  1  0
 25 23  1  0
 26 25  1  0
 27 25  2  0
M  END
$$$$
