PDR.pdb
     RDKit          3D

 27 27  0  0  1  0  0  0  0  0999 V2000
    8.2230  -14.4446   18.3576 N   0  0  0  0  0  0  0  0  0  0  0  0
    6.8107  -14.0987   18.4162 C   0  0  0  0  0  0  0  0  0  0  0  0
    6.8164  -12.7043   18.9538 C   0  0  0  0  0  0  0  0  0  0  0  0
    8.0783  -12.6062   19.7497 C   0  0  0  0  0  0  0  0  0  0  0  0
    8.8202  -13.9203   19.5439 C   0  0  1  0  0  0  0  0  0  0  0  0
    8.5007  -14.7568   20.7510 C   0  0  0  0  0  0  0  0  0  0  0  0
    8.8500  -14.3273   21.8613 O   0  0  0  0  0  0  0  0  0  0  0  0
    7.8320  -15.9866   20.6653 N   0  0  0  0  0  0  0  0  0  0  0  0
    7.5840  -16.8273   21.8144 C   0  0  1  0  0  0  0  0  0  0  0  0
    6.8551  -18.0905   21.4715 C   0  0  0  0  0  0  0  0  0  0  0  0
    6.3246  -18.7952   22.6577 C   0  0  0  0  0  0  0  0  0  0  0  0
    6.3892  -18.1745   23.7589 O   0  0  0  0  0  0  0  0  0  0  0  0
    8.8450  -17.1970   22.4919 C   0  0  0  0  0  0  0  0  0  0  0  0
    9.6430  -17.9484   21.8536 O   0  0  0  0  0  0  0  0  0  0  0  0
    5.7774  -20.0448   22.6647 O   0  0  0  0  0  0  0  0  0  0  0  0
   13.5270  -13.6866   19.8747 N   0  0  0  0  0  0  0  0  0  0  0  0
   13.5445  -15.1152   19.7982 C   0  0  0  0  0  0  0  0  0  0  0  0
   13.5871  -15.6229   18.6166 N   0  0  0  0  0  0  0  0  0  0  0  0
   13.5150  -15.8935   20.9912 N   0  0  0  0  0  0  0  0  0  0  0  0
   12.5180  -15.5379   21.9802 C   0  0  0  0  0  0  0  0  0  0  0  0
   12.5036  -16.3376   23.2048 C   0  0  0  0  0  0  0  0  0  0  0  0
   11.5035  -16.2404   24.2453 C   0  0  0  0  0  0  0  0  0  0  0  0
   10.4826  -17.2694   24.4404 C   0  0  2  0  0  0  0  0  0  0  0  0
    9.2163  -16.7819   23.7719 N   0  0  0  0  0  0  0  0  0  0  0  0
   10.1245  -17.5434   25.8281 C   0  0  0  0  0  0  0  0  0  0  0  0
   10.9088  -18.2736   26.6713 O   0  0  0  0  0  0  0  0  0  0  0  0
    9.0152  -17.1018   26.3327 O   0  0  0  0  0  0  0  0  0  0  0  0
  1  2  1  0
  2  3  1  0
  4  3  1  0
  5  1  1  0
  5  4  1  0
  5  6  1  1
  7  6  2  0
  8  6  1  0
  9  8  1  0
  9 10  1  6
 11 10  1  0
 11 12  2  0
 13  9  1  0
 13 14  2  0
 15 11  1  0
 17 18  2  0
 17 16  1  0
 19 17  1  0
 20 19  1  0
 21 20  1  0
 22 21  1  0
 23 22  1  1
 23 24  1  0
 24 13  1  0
 25 23  1  0
 26 25  1  0
 27 25  2  0
M  END
$$$$
