PDR.pdb
     RDKit          3D

 27 27  0  0  1  0  0  0  0  0999 V2000
    7.8236  -14.8827   18.8195 N   0  0  0  0  0  0  0  0  0  0  0  0
    7.0685  -14.2137   19.8682 C   0  0  0  0  0  0  0  0  0  0  0  0
    7.2562  -12.7634   19.5603 C   0  0  0  0  0  0  0  0  0  0  0  0
    8.5594  -12.6925   18.8311 C   0  0  0  0  0  0  0  0  0  0  0  0
    9.0236  -14.1302   18.6385 C   0  0  1  0  0  0  0  0  0  0  0  0
   10.0171  -14.3836   19.7373 C   0  0  0  0  0  0  0  0  0  0  0  0
   11.0633  -13.7167   19.7364 O   0  0  0  0  0  0  0  0  0  0  0  0
    9.8044  -15.3334   20.7471 N   0  0  0  0  0  0  0  0  0  0  0  0
   10.7383  -15.5529   21.8280 C   0  0  1  0  0  0  0  0  0  0  0  0
   10.3149  -16.6501   22.7562 C   0  0  0  0  0  0  0  0  0  0  0  0
   11.1882  -16.7767   23.9422 C   0  0  0  0  0  0  0  0  0  0  0  0
   12.3707  -17.1763   23.7325 O   0  0  0  0  0  0  0  0  0  0  0  0
   12.0855  -15.8823   21.3157 C   0  0  0  0  0  0  0  0  0  0  0  0
   12.1905  -16.9239   20.5994 O   0  0  0  0  0  0  0  0  0  0  0  0
   10.8300  -16.5020   25.2295 O   0  0  0  0  0  0  0  0  0  0  0  0
   15.9123  -13.0447   15.1228 N   0  0  0  0  0  0  0  0  0  0  0  0
   16.9925  -13.7364   15.7568 C   0  0  0  0  0  0  0  0  0  0  0  0
   17.6475  -14.5663   15.0233 N   0  0  0  0  0  0  0  0  0  0  0  0
   17.2909  -13.4885   17.1277 N   0  0  0  0  0  0  0  0  0  0  0  0
   16.1659  -13.2623   18.0118 C   0  0  0  0  0  0  0  0  0  0  0  0
   15.9043  -14.3000   19.0089 C   0  0  0  0  0  0  0  0  0  0  0  0
   14.7593  -14.3295   19.8923 C   0  0  0  0  0  0  0  0  0  0  0  0
   14.5446  -15.4136   20.8503 C   0  0  2  0  0  0  0  0  0  0  0  0
   13.2390  -15.1357   21.5617 N   0  0  0  0  0  0  0  0  0  0  0  0
   15.5543  -15.5361   21.8966 C   0  0  0  0  0  0  0  0  0  0  0  0
   16.8089  -16.0199   21.6704 O   0  0  0  0  0  0  0  0  0  0  0  0
   15.2967  -15.1900   23.1188 O   0  0  0  0  0  0  0  0  0  0  0  0
  1  2  1  0
  2  3  1  0
  4  3  1  0
  5  1  1  0
  5  4  1  0
  5  6  1  1
  7  6  2  0
  8  6  1  0
  9  8  1  0
  9 10  1  1
 11 10  1  0
 11 12  2  0
 13  9  1  0
 13 14  2  0
 15 11  1  0
 17 18  2  0
 17 16  1  0
 19 17  1  0
 20 19  1  0
 21 20  1  0
 22 21  1  0
 23 22  1  6
 23 24  1  0
 24 13  1  0
 25 23  1  0
 26 25  1  0
 27 25  2  0
M  END
$$$$
