PDR.pdb
     RDKit          3D

 27 27  0  0  1  0  0  0  0  0999 V2000
    8.3920  -14.0945   18.0433 N   0  0  0  0  0  0  0  0  0  0  0  0
    7.0436  -14.1016   18.5904 C   0  0  0  0  0  0  0  0  0  0  0  0
    7.0337  -12.9204   19.5058 C   0  0  0  0  0  0  0  0  0  0  0  0
    8.4606  -12.7414   19.9149 C   0  0  0  0  0  0  0  0  0  0  0  0
    9.2670  -13.7609   19.1212 C   0  0  1  0  0  0  0  0  0  0  0  0
    9.4787  -14.9209   20.0530 C   0  0  0  0  0  0  0  0  0  0  0  0
    8.5683  -15.1969   20.8493 O   0  0  0  0  0  0  0  0  0  0  0  0
   10.6521  -15.6892   20.0522 N   0  0  0  0  0  0  0  0  0  0  0  0
   10.8841  -16.7694   20.9839 C   0  0  1  0  0  0  0  0  0  0  0  0
   12.1317  -17.5437   20.6865 C   0  0  0  0  0  0  0  0  0  0  0  0
   12.0670  -18.9476   21.1446 C   0  0  0  0  0  0  0  0  0  0  0  0
   11.7747  -19.1313   22.3623 O   0  0  0  0  0  0  0  0  0  0  0  0
   10.9759  -16.2708   22.3727 C   0  0  0  0  0  0  0  0  0  0  0  0
   11.6277  -15.1985   22.5578 O   0  0  0  0  0  0  0  0  0  0  0  0
   12.2935  -20.0497   20.3731 O   0  0  0  0  0  0  0  0  0  0  0  0
    5.1971  -12.7582   26.7403 N   0  0  0  0  0  0  0  0  0  0  0  0
    6.5938  -12.4476   26.7402 C   0  0  0  0  0  0  0  0  0  0  0  0
    6.9060  -11.2229   26.9816 N   0  0  0  0  0  0  0  0  0  0  0  0
    7.5514  -13.4703   26.4819 N   0  0  0  0  0  0  0  0  0  0  0  0
    7.2623  -14.3770   25.3897 C   0  0  0  0  0  0  0  0  0  0  0  0
    8.2386  -15.4400   25.1521 C   0  0  0  0  0  0  0  0  0  0  0  0
    9.6696  -15.2461   25.0681 C   0  0  0  0  0  0  0  0  0  0  0  0
   10.5959  -16.3635   24.8888 C   0  0  2  0  0  0  0  0  0  0  0  0
   10.4019  -16.8902   23.4842 N   0  0  0  0  0  0  0  0  0  0  0  0
   10.3862  -17.5018   25.7773 C   0  0  0  0  0  0  0  0  0  0  0  0
   10.4948  -17.4198   27.1341 O   0  0  0  0  0  0  0  0  0  0  0  0
   10.0878  -18.6720   25.3066 O   0  0  0  0  0  0  0  0  0  0  0  0
  1  2  1  0
  2  3  1  0
  4  3  1  0
  5  1  1  0
  5  4  1  0
  5  6  1  1
  7  6  2  0
  8  6  1  0
  9  8  1  0
  9 10  1  6
 11 10  1  0
 11 12  2  0
 13  9  1  0
 13 14  2  0
 15 11  1  0
 17 18  2  0
 17 16  1  0
 19 17  1  0
 20 19  1  0
 21 20  1  0
 22 21  1  0
 23 22  1  1
 23 24  1  0
 24 13  1  0
 25 23  1  0
 26 25  1  0
 27 25  2  0
M  END
$$$$
