PDR.pdb
     RDKit          3D

 27 27  0  0  1  0  0  0  0  0999 V2000
    8.0665  -14.2738   17.6132 N   0  0  0  0  0  0  0  0  0  0  0  0
    6.7904  -14.2551   18.3124 C   0  0  0  0  0  0  0  0  0  0  0  0
    6.8530  -12.9968   19.1162 C   0  0  0  0  0  0  0  0  0  0  0  0
    8.3119  -12.7571   19.3390 C   0  0  0  0  0  0  0  0  0  0  0  0
    9.0498  -13.8297   18.5486 C   0  0  1  0  0  0  0  0  0  0  0  0
    9.3988  -14.8976   19.5469 C   0  0  0  0  0  0  0  0  0  0  0  0
    8.7577  -14.9287   20.6086 O   0  0  0  0  0  0  0  0  0  0  0  0
   10.4084  -15.8447   19.3217 N   0  0  0  0  0  0  0  0  0  0  0  0
   10.7206  -16.8980   20.2607 C   0  0  1  0  0  0  0  0  0  0  0  0
   11.6839  -17.9064   19.7131 C   0  0  0  0  0  0  0  0  0  0  0  0
   11.9357  -19.0312   20.6387 C   0  0  0  0  0  0  0  0  0  0  0  0
   10.9397  -19.7550   20.9319 O   0  0  0  0  0  0  0  0  0  0  0  0
   11.2920  -16.3520   21.5103 C   0  0  0  0  0  0  0  0  0  0  0  0
   12.1361  -15.4122   21.3952 O   0  0  0  0  0  0  0  0  0  0  0  0
   13.1387  -19.3506   21.1971 O   0  0  0  0  0  0  0  0  0  0  0  0
   10.4130  -16.5622   29.3752 N   0  0  0  0  0  0  0  0  0  0  0  0
   10.2551  -15.1444   29.4862 C   0  0  0  0  0  0  0  0  0  0  0  0
   10.6375  -14.6127   30.5938 N   0  0  0  0  0  0  0  0  0  0  0  0
    9.7001  -14.4021   28.4042 N   0  0  0  0  0  0  0  0  0  0  0  0
    9.3760  -15.1414   27.2013 C   0  0  0  0  0  0  0  0  0  0  0  0
   10.4804  -15.3925   26.2758 C   0  0  0  0  0  0  0  0  0  0  0  0
   10.3392  -15.9622   24.9537 C   0  0  0  0  0  0  0  0  0  0  0  0
   11.4715  -16.0872   24.0364 C   0  0  2  0  0  0  0  0  0  0  0  0
   10.9717  -16.7929   22.7954 N   0  0  0  0  0  0  0  0  0  0  0  0
   12.5923  -16.8823   24.5270 C   0  0  0  0  0  0  0  0  0  0  0  0
   13.6537  -16.3450   25.1934 O   0  0  0  0  0  0  0  0  0  0  0  0
   12.6354  -18.1643   24.3410 O   0  0  0  0  0  0  0  0  0  0  0  0
  1  2  1  0
  2  3  1  0
  4  3  1  0
  5  1  1  0
  5  4  1  0
  5  6  1  1
  7  6  2  0
  8  6  1  0
  9  8  1  0
  9 10  1  6
 11 10  1  0
 11 12  2  0
 13  9  1  0
 13 14  2  0
 15 11  1  0
 17 18  2  0
 17 16  1  0
 19 17  1  0
 20 19  1  0
 21 20  1  0
 22 21  1  0
 23 22  1  1
 23 24  1  0
 24 13  1  0
 25 23  1  0
 26 25  1  0
 27 25  2  0
M  END
$$$$
