PDR.pdb
     RDKit          3D

 27 27  0  0  1  0  0  0  0  0999 V2000
    8.9596  -14.0725   17.5678 N   0  0  0  0  0  0  0  0  0  0  0  0
    7.5817  -14.2872   17.9836 C   0  0  0  0  0  0  0  0  0  0  0  0
    7.3359  -13.1800   18.9568 C   0  0  0  0  0  0  0  0  0  0  0  0
    8.6855  -12.8484   19.5082 C   0  0  0  0  0  0  0  0  0  0  0  0
    9.6857  -13.7023   18.7402 C   0  0  1  0  0  0  0  0  0  0  0  0
    9.9679  -14.8851   19.6235 C   0  0  0  0  0  0  0  0  0  0  0  0
    9.0227  -15.3633   20.2694 O   0  0  0  0  0  0  0  0  0  0  0  0
   11.2433  -15.4568   19.7400 N   0  0  0  0  0  0  0  0  0  0  0  0
   11.5491  -16.5090   20.6824 C   0  0  1  0  0  0  0  0  0  0  0  0
   12.9547  -17.0136   20.5635 C   0  0  0  0  0  0  0  0  0  0  0  0
   13.3095  -17.4254   19.1888 C   0  0  0  0  0  0  0  0  0  0  0  0
   12.6459  -18.3849   18.6978 O   0  0  0  0  0  0  0  0  0  0  0  0
   11.3413  -16.0596   22.0756 C   0  0  0  0  0  0  0  0  0  0  0  0
   11.9658  -15.0189   22.4444 O   0  0  0  0  0  0  0  0  0  0  0  0
   14.2816  -16.8639   18.4138 O   0  0  0  0  0  0  0  0  0  0  0  0
    7.6305  -12.7772   27.8856 N   0  0  0  0  0  0  0  0  0  0  0  0
    6.7486  -12.3163   26.8575 C   0  0  0  0  0  0  0  0  0  0  0  0
    5.8955  -11.4156   27.1989 N   0  0  0  0  0  0  0  0  0  0  0  0
    6.8455  -12.8535   25.5415 N   0  0  0  0  0  0  0  0  0  0  0  0
    6.9019  -14.2965   25.4261 C   0  0  0  0  0  0  0  0  0  0  0  0
    8.2356  -14.8971   25.4335 C   0  0  0  0  0  0  0  0  0  0  0  0
    8.8349  -15.5961   24.3178 C   0  0  0  0  0  0  0  0  0  0  0  0
   10.2119  -16.0871   24.3576 C   0  0  2  0  0  0  0  0  0  0  0  0
   10.5147  -16.6930   23.0051 N   0  0  0  0  0  0  0  0  0  0  0  0
   10.4764  -17.1364   25.3364 C   0  0  0  0  0  0  0  0  0  0  0  0
   10.8979  -16.8822   26.6080 O   0  0  0  0  0  0  0  0  0  0  0  0
   10.3269  -18.3876   25.0329 O   0  0  0  0  0  0  0  0  0  0  0  0
  1  2  1  0
  2  3  1  0
  4  3  1  0
  5  1  1  0
  5  4  1  0
  5  6  1  1
  7  6  2  0
  8  6  1  0
  9  8  1  0
  9 10  1  1
 11 10  1  0
 11 12  2  0
 13  9  1  0
 13 14  2  0
 15 11  1  0
 17 18  2  0
 17 16  1  0
 19 17  1  0
 20 19  1  0
 21 20  1  0
 22 21  1  0
 23 22  1  6
 23 24  1  0
 24 13  1  0
 25 23  1  0
 26 25  1  0
 27 25  2  0
M  END
$$$$
