PDR.pdb
     RDKit          3D

 27 27  0  0  1  0  0  0  0  0999 V2000
    8.1315  -14.5602   19.2878 N   0  0  0  0  0  0  0  0  0  0  0  0
    6.9261  -14.3174   20.0660 C   0  0  0  0  0  0  0  0  0  0  0  0
    7.1111  -12.9217   20.5671 C   0  0  0  0  0  0  0  0  0  0  0  0
    8.5925  -12.7252   20.6140 C   0  0  0  0  0  0  0  0  0  0  0  0
    9.2125  -13.9836   20.0211 C   0  0  1  0  0  0  0  0  0  0  0  0
    9.6087  -14.8306   21.1978 C   0  0  0  0  0  0  0  0  0  0  0  0
   10.5048  -14.4039   21.9421 O   0  0  0  0  0  0  0  0  0  0  0  0
    9.0086  -16.0670   21.4776 N   0  0  0  0  0  0  0  0  0  0  0  0
    9.7376  -17.1867   22.0286 C   0  0  1  0  0  0  0  0  0  0  0  0
   10.8184  -17.6880   21.1203 C   0  0  0  0  0  0  0  0  0  0  0  0
   10.5550  -19.0457   20.5982 C   0  0  0  0  0  0  0  0  0  0  0  0
   10.0373  -19.8708   21.4063 O   0  0  0  0  0  0  0  0  0  0  0  0
   10.3557  -16.8396   23.3260 C   0  0  0  0  0  0  0  0  0  0  0  0
   11.4050  -16.1277   23.2921 O   0  0  0  0  0  0  0  0  0  0  0  0
   10.8204  -19.4788   19.3321 O   0  0  0  0  0  0  0  0  0  0  0  0
    5.4533  -13.4445   25.2200 N   0  0  0  0  0  0  0  0  0  0  0  0
    6.4977  -12.5195   25.5375 C   0  0  0  0  0  0  0  0  0  0  0  0
    6.3352  -11.3116   25.1245 N   0  0  0  0  0  0  0  0  0  0  0  0
    7.6373  -12.9558   26.2727 N   0  0  0  0  0  0  0  0  0  0  0  0
    7.7417  -14.3764   26.5361 C   0  0  0  0  0  0  0  0  0  0  0  0
    8.7805  -15.0986   25.8020 C   0  0  0  0  0  0  0  0  0  0  0  0
    9.9613  -15.6833   26.3988 C   0  0  0  0  0  0  0  0  0  0  0  0
   10.5867  -16.8912   25.8613 C   0  0  2  0  0  0  0  0  0  0  0  0
    9.8713  -17.2357   24.5738 N   0  0  0  0  0  0  0  0  0  0  0  0
   10.4890  -18.0776   26.7051 C   0  0  0  0  0  0  0  0  0  0  0  0
   11.1276  -18.1957   27.9041 O   0  0  0  0  0  0  0  0  0  0  0  0
    9.7806  -19.1006   26.3419 O   0  0  0  0  0  0  0  0  0  0  0  0
  1  2  1  0
  2  3  1  0
  4  3  1  0
  5  1  1  0
  5  4  1  0
  5  6  1  1
  7  6  2  0
  8  6  1  0
  9  8  1  0
  9 10  1  6
 11 10  1  0
 11 12  2  0
 13  9  1  0
 13 14  2  0
 15 11  1  0
 17 18  2  0
 17 16  1  0
 19 17  1  0
 20 19  1  0
 21 20  1  0
 22 21  1  0
 23 22  1  1
 23 24  1  0
 24 13  1  0
 25 23  1  0
 26 25  1  0
 27 25  2  0
M  END
$$$$
