PDR.pdb
     RDKit          3D

 27 27  0  0  1  0  0  0  0  0999 V2000
    2.5529  -20.9414   21.3704 N   0  0  0  0  0  0  0  0  0  0  0  0
    1.7069  -21.4996   22.4146 C   0  0  0  0  0  0  0  0  0  0  0  0
    0.7483  -20.3929   22.7139 C   0  0  0  0  0  0  0  0  0  0  0  0
    1.4807  -19.1424   22.3463 C   0  0  0  0  0  0  0  0  0  0  0  0
    2.8027  -19.5828   21.7317 C   0  0  1  0  0  0  0  0  0  0  0  0
    3.8170  -19.4720   22.8353 C   0  0  0  0  0  0  0  0  0  0  0  0
    3.9401  -18.3741   23.3997 O   0  0  0  0  0  0  0  0  0  0  0  0
    4.6156  -20.5510   23.2416 N   0  0  0  0  0  0  0  0  0  0  0  0
    5.6770  -20.4200   24.2137 C   0  0  1  0  0  0  0  0  0  0  0  0
    6.1460  -21.7370   24.7521 C   0  0  0  0  0  0  0  0  0  0  0  0
    5.1326  -22.4178   25.5855 C   0  0  0  0  0  0  0  0  0  0  0  0
    4.4701  -21.6869   26.3785 O   0  0  0  0  0  0  0  0  0  0  0  0
    6.8458  -19.7178   23.6419 C   0  0  0  0  0  0  0  0  0  0  0  0
    7.5719  -20.3720   22.8334 O   0  0  0  0  0  0  0  0  0  0  0  0
    4.8547  -23.7534   25.5716 O   0  0  0  0  0  0  0  0  0  0  0  0
    7.1760  -12.0638   19.8637 N   0  0  0  0  0  0  0  0  0  0  0  0
    8.3919  -12.7017   19.4615 C   0  0  0  0  0  0  0  0  0  0  0  0
    8.9959  -12.1906   18.4468 N   0  0  0  0  0  0  0  0  0  0  0  0
    8.8705  -13.8382   20.1750 N   0  0  0  0  0  0  0  0  0  0  0  0
    8.0758  -14.2871   21.2999 C   0  0  0  0  0  0  0  0  0  0  0  0
    8.6048  -15.4209   22.0576 C   0  0  0  0  0  0  0  0  0  0  0  0
    7.8012  -16.3702   22.7963 C   0  0  0  0  0  0  0  0  0  0  0  0
    8.3101  -17.6866   23.1799 C   0  0  2  0  0  0  0  0  0  0  0  0
    7.2036  -18.3988   23.9259 N   0  0  0  0  0  0  0  0  0  0  0  0
    9.4597  -17.6780   24.0785 C   0  0  0  0  0  0  0  0  0  0  0  0
   10.7484  -17.5927   23.6413 O   0  0  0  0  0  0  0  0  0  0  0  0
    9.3057  -17.7605   25.3629 O   0  0  0  0  0  0  0  0  0  0  0  0
  1  2  1  0
  2  3  1  0
  4  3  1  0
  5  1  1  0
  5  4  1  0
  5  6  1  1
  7  6  2  0
  8  6  1  0
  9  8  1  0
  9 10  1  6
 11 10  1  0
 11 12  2  0
 13  9  1  0
 13 14  2  0
 15 11  1  0
 17 18  2  0
 17 16  1  0
 19 17  1  0
 20 19  1  0
 21 20  1  0
 22 21  1  0
 23 22  1  1
 23 24  1  0
 24 13  1  0
 25 23  1  0
 26 25  1  0
 27 25  2  0
M  END
$$$$
