PDR.pdb
     RDKit          3D

 27 27  0  0  1  0  0  0  0  0999 V2000
    8.4499  -14.4733   18.1742 N   0  0  0  0  0  0  0  0  0  0  0  0
    7.1318  -14.4600   18.7906 C   0  0  0  0  0  0  0  0  0  0  0  0
    7.1749  -13.2576   19.6771 C   0  0  0  0  0  0  0  0  0  0  0  0
    8.6219  -13.0771   20.0071 C   0  0  0  0  0  0  0  0  0  0  0  0
    9.3813  -14.1195   19.1970 C   0  0  1  0  0  0  0  0  0  0  0  0
    9.6361  -15.2586   20.1438 C   0  0  0  0  0  0  0  0  0  0  0  0
    8.6632  -15.7402   20.7444 O   0  0  0  0  0  0  0  0  0  0  0  0
   10.9161  -15.7865   20.3670 N   0  0  0  0  0  0  0  0  0  0  0  0
   11.1713  -16.8583   21.3024 C   0  0  1  0  0  0  0  0  0  0  0  0
   12.5475  -17.4360   21.1723 C   0  0  0  0  0  0  0  0  0  0  0  0
   12.7402  -18.6632   21.9736 C   0  0  0  0  0  0  0  0  0  0  0  0
   11.6940  -19.3025   22.2878 O   0  0  0  0  0  0  0  0  0  0  0  0
   10.9958  -16.4058   22.6990 C   0  0  0  0  0  0  0  0  0  0  0  0
   11.6354  -15.3693   23.0533 O   0  0  0  0  0  0  0  0  0  0  0  0
   13.9383  -19.1588   22.3980 O   0  0  0  0  0  0  0  0  0  0  0  0
    4.8319  -12.3577   25.9924 N   0  0  0  0  0  0  0  0  0  0  0  0
    6.0126  -11.9853   26.7097 C   0  0  0  0  0  0  0  0  0  0  0  0
    6.0454  -10.7843   27.1704 N   0  0  0  0  0  0  0  0  0  0  0  0
    7.0694  -12.9253   26.8802 N   0  0  0  0  0  0  0  0  0  0  0  0
    7.2007  -13.9534   25.8680 C   0  0  0  0  0  0  0  0  0  0  0  0
    8.2551  -14.9443   26.0815 C   0  0  0  0  0  0  0  0  0  0  0  0
    8.6324  -15.9692   25.1329 C   0  0  0  0  0  0  0  0  0  0  0  0
   10.0006  -16.4778   25.0416 C   0  0  2  0  0  0  0  0  0  0  0  0
   10.1842  -17.0322   23.6463 N   0  0  0  0  0  0  0  0  0  0  0  0
   10.3271  -17.5688   25.9538 C   0  0  0  0  0  0  0  0  0  0  0  0
   10.6801  -17.3728   27.2562 O   0  0  0  0  0  0  0  0  0  0  0  0
   10.3037  -18.8025   25.5569 O   0  0  0  0  0  0  0  0  0  0  0  0
  1  2  1  0
  2  3  1  0
  4  3  1  0
  5  1  1  0
  5  4  1  0
  5  6  1  1
  7  6  2  0
  8  6  1  0
  9  8  1  0
  9 10  1  1
 11 10  1  0
 11 12  2  0
 13  9  1  0
 13 14  2  0
 15 11  1  0
 17 18  2  0
 17 16  1  0
 19 17  1  0
 20 19  1  0
 21 20  1  0
 22 21  1  0
 23 22  1  6
 23 24  1  0
 24 13  1  0
 25 23  1  0
 26 25  1  0
 27 25  2  0
M  END
$$$$
