PDR.pdb
     RDKit          3D

 27 27  0  0  1  0  0  0  0  0999 V2000
    7.6720  -14.0573   19.3733 N   0  0  0  0  0  0  0  0  0  0  0  0
    8.1716  -12.6912   19.4174 C   0  0  0  0  0  0  0  0  0  0  0  0
    8.1087  -12.2520   17.9904 C   0  0  0  0  0  0  0  0  0  0  0  0
    8.2228  -13.5136   17.1962 C   0  0  0  0  0  0  0  0  0  0  0  0
    8.2282  -14.6566   18.2027 C   0  0  1  0  0  0  0  0  0  0  0  0
    9.6741  -15.0212   18.3907 C   0  0  0  0  0  0  0  0  0  0  0  0
   10.2379  -15.6416   17.4761 O   0  0  0  0  0  0  0  0  0  0  0  0
   10.3953  -14.6889   19.5468 N   0  0  0  0  0  0  0  0  0  0  0  0
   11.7640  -15.0991   19.7635 C   0  0  1  0  0  0  0  0  0  0  0  0
   12.7264  -13.9510   19.7745 C   0  0  0  0  0  0  0  0  0  0  0  0
   14.1233  -14.3617   19.5191 C   0  0  0  0  0  0  0  0  0  0  0  0
   14.6663  -15.0936   20.3975 O   0  0  0  0  0  0  0  0  0  0  0  0
   11.9102  -15.8301   21.0403 C   0  0  0  0  0  0  0  0  0  0  0  0
   11.5565  -15.2221   22.0959 O   0  0  0  0  0  0  0  0  0  0  0  0
   14.8679  -14.0216   18.4278 O   0  0  0  0  0  0  0  0  0  0  0  0
   10.4481  -20.8240   17.7866 N   0  0  0  0  0  0  0  0  0  0  0  0
    9.9834  -20.7992   19.1396 C   0  0  0  0  0  0  0  0  0  0  0  0
    8.8561  -20.2139   19.3451 N   0  0  0  0  0  0  0  0  0  0  0  0
   10.7594  -21.4021   20.1711 N   0  0  0  0  0  0  0  0  0  0  0  0
   10.4363  -21.0329   21.5341 C   0  0  0  0  0  0  0  0  0  0  0  0
   10.8035  -19.6778   21.9445 C   0  0  0  0  0  0  0  0  0  0  0  0
   12.1463  -19.2448   22.2638 C   0  0  0  0  0  0  0  0  0  0  0  0
   12.4740  -17.8391   22.4996 C   0  0  2  0  0  0  0  0  0  0  0  0
   12.4049  -17.1293   21.1656 N   0  0  0  0  0  0  0  0  0  0  0  0
   13.8131  -17.5854   23.0209 C   0  0  0  0  0  0  0  0  0  0  0  0
   14.0853  -17.4617   24.3512 O   0  0  0  0  0  0  0  0  0  0  0  0
   14.8275  -17.4553   22.2246 O   0  0  0  0  0  0  0  0  0  0  0  0
  1  2  1  0
  2  3  1  0
  4  3  1  0
  5  1  1  0
  5  4  1  0
  5  6  1  1
  7  6  2  0
  8  6  1  0
  9  8  1  0
  9 10  1  1
 11 10  1  0
 11 12  2  0
 13  9  1  0
 13 14  2  0
 15 11  1  0
 17 18  2  0
 17 16  1  0
 19 17  1  0
 20 19  1  0
 21 20  1  0
 22 21  1  0
 23 22  1  6
 23 24  1  0
 24 13  1  0
 25 23  1  0
 26 25  1  0
 27 25  2  0
M  END
$$$$
