PDR.pdb
     RDKit          3D

 27 27  0  0  1  0  0  0  0  0999 V2000
    8.8185  -14.2571   18.0781 N   0  0  0  0  0  0  0  0  0  0  0  0
    7.3941  -14.3938   18.3429 C   0  0  0  0  0  0  0  0  0  0  0  0
    7.1153  -13.2969   19.3188 C   0  0  0  0  0  0  0  0  0  0  0  0
    8.4173  -13.0650   20.0163 C   0  0  0  0  0  0  0  0  0  0  0  0
    9.4389  -13.9621   19.3299 C   0  0  1  0  0  0  0  0  0  0  0  0
    9.5545  -15.1813   20.2011 C   0  0  0  0  0  0  0  0  0  0  0  0
    8.5135  -15.6384   20.6975 O   0  0  0  0  0  0  0  0  0  0  0  0
   10.7802  -15.8091   20.4670 N   0  0  0  0  0  0  0  0  0  0  0  0
   10.9090  -16.9281   21.3725 C   0  0  1  0  0  0  0  0  0  0  0  0
   12.1902  -17.6838   21.1935 C   0  0  0  0  0  0  0  0  0  0  0  0
   12.3993  -18.1524   19.8072 C   0  0  0  0  0  0  0  0  0  0  0  0
   11.4822  -18.8683   19.3088 O   0  0  0  0  0  0  0  0  0  0  0  0
   10.8299  -16.4905   22.7825 C   0  0  0  0  0  0  0  0  0  0  0  0
   11.5978  -15.5448   23.1360 O   0  0  0  0  0  0  0  0  0  0  0  0
   13.4861  -17.8807   19.0287 O   0  0  0  0  0  0  0  0  0  0  0  0
    5.2236  -12.6159   27.3183 N   0  0  0  0  0  0  0  0  0  0  0  0
    6.1954  -11.9075   26.5431 C   0  0  0  0  0  0  0  0  0  0  0  0
    6.1311  -10.6230   26.5831 N   0  0  0  0  0  0  0  0  0  0  0  0
    7.1628  -12.6263   25.7834 N   0  0  0  0  0  0  0  0  0  0  0  0
    7.1980  -14.0636   25.9606 C   0  0  0  0  0  0  0  0  0  0  0  0
    8.2565  -14.7801   25.2494 C   0  0  0  0  0  0  0  0  0  0  0  0
    8.6879  -16.1283   25.5472 C   0  0  0  0  0  0  0  0  0  0  0  0
   10.0218  -16.6131   25.1940 C   0  0  2  0  0  0  0  0  0  0  0  0
    9.9783  -17.0386   23.7431 N   0  0  0  0  0  0  0  0  0  0  0  0
   10.4846  -17.7782   25.9408 C   0  0  0  0  0  0  0  0  0  0  0  0
   11.1661  -17.6878   27.1183 O   0  0  0  0  0  0  0  0  0  0  0  0
   10.2709  -18.9802   25.5053 O   0  0  0  0  0  0  0  0  0  0  0  0
  1  2  1  0
  2  3  1  0
  4  3  1  0
  5  1  1  0
  5  4  1  0
  5  6  1  1
  7  6  2  0
  8  6  1  0
  9  8  1  0
  9 10  1  1
 11 10  1  0
 11 12  2  0
 13  9  1  0
 13 14  2  0
 15 11  1  0
 17 18  2  0
 17 16  1  0
 19 17  1  0
 20 19  1  0
 21 20  1  0
 22 21  1  0
 23 22  1  1
 23 24  1  0
 24 13  1  0
 25 23  1  0
 26 25  1  0
 27 25  2  0
M  END
$$$$
