PDR.pdb
     RDKit          3D

 27 27  0  0  1  0  0  0  0  0999 V2000
    9.1739  -13.7388   19.0063 N   0  0  0  0  0  0  0  0  0  0  0  0
    8.1691  -14.3215   18.1298 C   0  0  0  0  0  0  0  0  0  0  0  0
    6.9200  -13.5878   18.4971 C   0  0  0  0  0  0  0  0  0  0  0  0
    7.1294  -13.1614   19.9147 C   0  0  0  0  0  0  0  0  0  0  0  0
    8.5519  -13.5648   20.2797 C   0  0  1  0  0  0  0  0  0  0  0  0
    8.4238  -14.8638   21.0249 C   0  0  0  0  0  0  0  0  0  0  0  0
    7.4443  -15.0076   21.7726 O   0  0  0  0  0  0  0  0  0  0  0  0
    9.3594  -15.9017   20.9049 N   0  0  0  0  0  0  0  0  0  0  0  0
    9.2871  -17.1178   21.6824 C   0  0  1  0  0  0  0  0  0  0  0  0
   10.3402  -18.1163   21.3101 C   0  0  0  0  0  0  0  0  0  0  0  0
   10.3198  -18.4746   19.8761 C   0  0  0  0  0  0  0  0  0  0  0  0
    9.2059  -18.8443   19.4023 O   0  0  0  0  0  0  0  0  0  0  0  0
    9.4127  -16.8391   23.1289 C   0  0  0  0  0  0  0  0  0  0  0  0
   10.3210  -16.0273   23.4824 O   0  0  0  0  0  0  0  0  0  0  0  0
   11.3894  -18.4404   19.0300 O   0  0  0  0  0  0  0  0  0  0  0  0
    7.9450  -12.2149   25.3785 N   0  0  0  0  0  0  0  0  0  0  0  0
    6.8819  -12.3453   26.3272 C   0  0  0  0  0  0  0  0  0  0  0  0
    6.5542  -11.2782   26.9672 N   0  0  0  0  0  0  0  0  0  0  0  0
    6.2494  -13.6072   26.5201 N   0  0  0  0  0  0  0  0  0  0  0  0
    6.8743  -14.7550   25.8952 C   0  0  0  0  0  0  0  0  0  0  0  0
    6.9766  -15.9640   26.7121 C   0  0  0  0  0  0  0  0  0  0  0  0
    7.6138  -17.1937   26.2946 C   0  0  0  0  0  0  0  0  0  0  0  0
    8.8986  -17.2048   25.5958 C   0  0  2  0  0  0  0  0  0  0  0  0
    8.6105  -17.4004   24.1239 N   0  0  0  0  0  0  0  0  0  0  0  0
    9.8096  -18.2802   25.9735 C   0  0  0  0  0  0  0  0  0  0  0  0
   10.6947  -18.1809   27.0059 O   0  0  0  0  0  0  0  0  0  0  0  0
    9.8251  -19.4025   25.3252 O   0  0  0  0  0  0  0  0  0  0  0  0
  1  2  1  0
  2  3  1  0
  4  3  1  0
  5  1  1  0
  5  4  1  0
  5  6  1  6
  7  6  2  0
  8  6  1  0
  9  8  1  0
  9 10  1  6
 11 10  1  0
 11 12  2  0
 13  9  1  0
 13 14  2  0
 15 11  1  0
 17 18  2  0
 17 16  1  0
 19 17  1  0
 20 19  1  0
 21 20  1  0
 22 21  1  0
 23 22  1  1
 23 24  1  0
 24 13  1  0
 25 23  1  0
 26 25  1  0
 27 25  2  0
M  END
$$$$
