PDR.pdb
     RDKit          3D

 27 27  0  0  1  0  0  0  0  0999 V2000
    9.2386  -13.7527   18.1869 N   0  0  0  0  0  0  0  0  0  0  0  0
    7.9974  -14.3642   17.7362 C   0  0  0  0  0  0  0  0  0  0  0  0
    6.9468  -13.6119   18.4870 C   0  0  0  0  0  0  0  0  0  0  0  0
    7.6314  -13.1328   19.7268 C   0  0  0  0  0  0  0  0  0  0  0  0
    9.0959  -13.5280   19.5897 C   0  0  1  0  0  0  0  0  0  0  0  0
    9.2466  -14.7972   20.3805 C   0  0  0  0  0  0  0  0  0  0  0  0
    8.3798  -15.0562   21.2295 O   0  0  0  0  0  0  0  0  0  0  0  0
   10.3170  -15.6839   20.1935 N   0  0  0  0  0  0  0  0  0  0  0  0
   10.5360  -16.8387   21.0344 C   0  0  1  0  0  0  0  0  0  0  0  0
   11.8102  -17.5612   20.7196 C   0  0  0  0  0  0  0  0  0  0  0  0
   11.8830  -18.9043   21.3328 C   0  0  0  0  0  0  0  0  0  0  0  0
   10.8617  -19.2883   21.9742 O   0  0  0  0  0  0  0  0  0  0  0  0
   10.5643  -16.4646   22.4645 C   0  0  0  0  0  0  0  0  0  0  0  0
   11.4542  -15.6360   22.8257 O   0  0  0  0  0  0  0  0  0  0  0  0
   12.9474  -19.7550   21.2660 O   0  0  0  0  0  0  0  0  0  0  0  0
    7.7473  -12.7497   27.4444 N   0  0  0  0  0  0  0  0  0  0  0  0
    6.5735  -12.3247   26.7454 C   0  0  0  0  0  0  0  0  0  0  0  0
    5.9910  -11.2700   27.1971 N   0  0  0  0  0  0  0  0  0  0  0  0
    6.1109  -13.0597   25.6161 N   0  0  0  0  0  0  0  0  0  0  0  0
    6.4241  -14.4737   25.5823 C   0  0  0  0  0  0  0  0  0  0  0  0
    7.8162  -14.8242   25.3024 C   0  0  0  0  0  0  0  0  0  0  0  0
    8.3369  -16.1729   25.2553 C   0  0  0  0  0  0  0  0  0  0  0  0
    9.7171  -16.4599   24.8658 C   0  0  2  0  0  0  0  0  0  0  0  0
    9.6897  -16.9537   23.4363 N   0  0  0  0  0  0  0  0  0  0  0  0
   10.3838  -17.5028   25.6384 C   0  0  0  0  0  0  0  0  0  0  0  0
   10.9368  -17.2846   26.8656 O   0  0  0  0  0  0  0  0  0  0  0  0
   10.4902  -18.7105   25.1801 O   0  0  0  0  0  0  0  0  0  0  0  0
  1  2  1  0
  2  3  1  0
  4  3  1  0
  5  1  1  0
  5  4  1  0
  5  6  1  1
  7  6  2  0
  8  6  1  0
  9  8  1  0
  9 10  1  6
 11 10  1  0
 11 12  2  0
 13  9  1  0
 13 14  2  0
 15 11  1  0
 17 18  2  0
 17 16  1  0
 19 17  1  0
 20 19  1  0
 21 20  1  0
 22 21  1  0
 23 22  1  1
 23 24  1  0
 24 13  1  0
 25 23  1  0
 26 25  1  0
 27 25  2  0
M  END
$$$$
