FSC.pdb
     RDKit          3D

 24 24  0  0  1  0  0  0  0  0999 V2000
   24.9978  -12.3388  -18.5268 N   0  0  0  0  0  0  0  0  0  0  0  0
   25.0525  -11.1996  -17.6668 C   0  0  1  0  0  0  0  0  0  0  0  0
   25.8519  -10.0999  -18.3281 C   0  0  0  0  0  0  0  0  0  0  0  0
   27.3073  -10.3863  -18.2246 C   0  0  0  0  0  0  0  0  0  0  0  0
   27.9489  -11.2084  -19.1217 C   0  0  0  0  0  0  0  0  0  0  0  0
   29.2903  -11.4915  -19.0521 C   0  0  0  0  0  0  0  0  0  0  0  0
   30.0065  -10.8993  -18.0075 C   0  0  0  0  0  0  0  0  0  0  0  0
   29.3889  -10.0752  -17.0996 C   0  0  0  0  0  0  0  0  0  0  0  0
   28.0458   -9.8269  -17.2169 C   0  0  0  0  0  0  0  0  0  0  0  0
   23.6888  -10.6538  -17.3660 C   0  0  0  0  0  0  0  0  0  0  0  0
   22.8218  -10.6046  -18.2720 O   0  0  0  0  0  0  0  0  0  0  0  0
   22.9218   -9.4102  -13.5885 O   0  0  0  0  0  0  0  0  0  0  0  0
   21.7507   -9.7834  -14.2457 C   0  0  0  0  0  0  0  0  0  0  0  0
   22.0281   -9.6644  -15.7434 C   0  0  2  0  0  0  0  0  0  0  0  0
   23.3368  -10.1827  -16.0715 N   0  0  0  0  0  0  0  0  0  0  0  0
   21.8812   -8.2379  -16.1466 C   0  0  0  0  0  0  0  0  0  0  0  0
   22.8227   -7.4052  -16.0894 O   0  0  0  0  0  0  0  0  0  0  0  0
   20.6010   -7.8284  -16.6151 N   0  0  0  0  0  0  0  0  0  0  0  0
   20.3597   -6.5017  -17.0925 C   0  0  1  0  0  0  0  0  0  0  0  0
   19.1290   -6.4050  -17.9665 C   0  0  0  0  0  0  0  0  0  0  0  0
   18.9828   -4.6915  -18.5739 S   0  0  0  0  0  0  0  0  0  0  0  0
   20.3280   -5.4988  -15.9944 C   0  0  0  0  0  0  0  0  0  0  0  0
   21.0599   -4.3349  -16.0160 O   0  0  0  0  0  0  0  0  0  0  0  0
   19.5961   -5.7099  -14.9801 O   0  0  0  0  0  0  0  0  0  0  0  0
  2  1  1  6
  2 10  1  0
  3  2  1  0
  4  3  1  0
  5  4  2  0
  6  5  1  0
  7  6  2  0
  7  8  1  0
  8  9  2  0
  9  4  1  0
 10 15  1  0
 10 11  2  0
 12 13  1  0
 14 13  1  1
 14 16  1  0
 15 14  1  0
 16 17  2  0
 18 19  1  0
 18 16  1  0
 19 20  1  1
 21 20  1  0
 22 19  1  0
 22 23  1  0
 24 22  2  0
M  END
$$$$
