FSC.pdb
     RDKit          3D

 24 24  0  0  1  0  0  0  0  0999 V2000
   20.8894  -19.2484  -14.1485 N   0  0  0  0  0  0  0  0  0  0  0  0
   20.9715  -20.6176  -13.7497 C   0  0  1  0  0  0  0  0  0  0  0  0
   22.3509  -21.1554  -14.0556 C   0  0  0  0  0  0  0  0  0  0  0  0
   22.5787  -21.1858  -15.5247 C   0  0  0  0  0  0  0  0  0  0  0  0
   23.3574  -20.2438  -16.1561 C   0  0  0  0  0  0  0  0  0  0  0  0
   23.5859  -20.2455  -17.5097 C   0  0  0  0  0  0  0  0  0  0  0  0
   22.9831  -21.2671  -18.2497 C   0  0  0  0  0  0  0  0  0  0  0  0
   22.2017  -22.2189  -17.6427 C   0  0  0  0  0  0  0  0  0  0  0  0
   22.0072  -22.1689  -16.2866 C   0  0  0  0  0  0  0  0  0  0  0  0
   20.7297  -20.7927  -12.2803 C   0  0  0  0  0  0  0  0  0  0  0  0
   21.3465  -20.0751  -11.4559 O   0  0  0  0  0  0  0  0  0  0  0  0
   17.6105  -20.5280  -10.6697 O   0  0  0  0  0  0  0  0  0  0  0  0
   18.7370  -20.6735   -9.8619 C   0  0  0  0  0  0  0  0  0  0  0  0
   19.4940  -21.8967  -10.3766 C   0  0  2  0  0  0  0  0  0  0  0  0
   19.8128  -21.7571  -11.7795 N   0  0  0  0  0  0  0  0  0  0  0  0
   18.6754  -23.1131  -10.1139 C   0  0  0  0  0  0  0  0  0  0  0  0
   17.8581  -23.5865  -10.9452 O   0  0  0  0  0  0  0  0  0  0  0  0
   18.8495  -23.7477   -8.8518 N   0  0  0  0  0  0  0  0  0  0  0  0
   18.0263  -24.8411   -8.4356 C   0  0  1  0  0  0  0  0  0  0  0  0
   18.4293  -25.4030   -7.0903 C   0  0  0  0  0  0  0  0  0  0  0  0
   18.7881  -24.0127   -5.9656 S   0  0  0  0  0  0  0  0  0  0  0  0
   16.5768  -24.5092   -8.4752 C   0  0  0  0  0  0  0  0  0  0  0  0
   15.5871  -25.4623   -8.5298 O   0  0  0  0  0  0  0  0  0  0  0  0
   16.2164  -23.2930   -8.4585 O   0  0  0  0  0  0  0  0  0  0  0  0
  2  1  1  1
  2 10  1  0
  3  2  1  0
  4  3  1  0
  5  4  2  0
  6  5  1  0
  7  6  2  0
  7  8  1  0
  8  9  2  0
  9  4  1  0
 10 15  1  0
 10 11  2  0
 12 13  1  0
 14 13  1  6
 14 16  1  0
 15 14  1  0
 16 17  2  0
 18 19  1  0
 18 16  1  0
 19 20  1  1
 21 20  1  0
 22 19  1  0
 22 23  1  0
 24 22  2  0
M  END
$$$$
