FSC.pdb
     RDKit          3D

 24 24  0  0  1  0  0  0  0  0999 V2000
   20.5082  -12.9793  -17.5900 N   0  0  0  0  0  0  0  0  0  0  0  0
   20.6671  -11.7290  -18.2622 C   0  0  1  0  0  0  0  0  0  0  0  0
   19.5454  -11.5398  -19.2580 C   0  0  0  0  0  0  0  0  0  0  0  0
   19.6478  -12.5462  -20.3479 C   0  0  0  0  0  0  0  0  0  0  0  0
   18.6967  -13.5248  -20.5213 C   0  0  0  0  0  0  0  0  0  0  0  0
   18.7639  -14.4670  -21.5173 C   0  0  0  0  0  0  0  0  0  0  0  0
   19.8642  -14.3985  -22.3771 C   0  0  0  0  0  0  0  0  0  0  0  0
   20.8267  -13.4313  -22.2246 C   0  0  0  0  0  0  0  0  0  0  0  0
   20.7091  -12.5149  -21.2119 C   0  0  0  0  0  0  0  0  0  0  0  0
   20.6335  -10.5695  -17.3122 C   0  0  0  0  0  0  0  0  0  0  0  0
   19.8111  -10.5622  -16.3643 O   0  0  0  0  0  0  0  0  0  0  0  0
   22.9641   -7.2349  -18.0252 O   0  0  0  0  0  0  0  0  0  0  0  0
   22.8183   -7.5365  -16.6722 C   0  0  0  0  0  0  0  0  0  0  0  0
   21.5258   -8.3399  -16.5361 C   0  0  2  0  0  0  0  0  0  0  0  0
   21.5131   -9.4607  -17.4486 N   0  0  0  0  0  0  0  0  0  0  0  0
   20.3689   -7.4293  -16.7624 C   0  0  0  0  0  0  0  0  0  0  0  0
   19.8483   -7.2445  -17.8929 O   0  0  0  0  0  0  0  0  0  0  0  0
   19.8502   -6.7501  -15.6242 N   0  0  0  0  0  0  0  0  0  0  0  0
   18.7730   -5.8146  -15.7282 C   0  0  1  0  0  0  0  0  0  0  0  0
   17.7600   -5.9566  -14.6139 C   0  0  0  0  0  0  0  0  0  0  0  0
   16.4605   -4.6984  -14.8484 S   0  0  0  0  0  0  0  0  0  0  0  0
   19.2487   -4.4110  -15.8561 C   0  0  0  0  0  0  0  0  0  0  0  0
   20.2618   -3.8862  -15.0885 O   0  0  0  0  0  0  0  0  0  0  0  0
   18.7056   -3.6454  -16.7094 O   0  0  0  0  0  0  0  0  0  0  0  0
  2  1  1  1
  2 10  1  0
  3  2  1  0
  4  3  1  0
  5  4  2  0
  6  5  1  0
  7  6  2  0
  7  8  1  0
  8  9  2  0
  9  4  1  0
 10 15  1  0
 10 11  2  0
 12 13  1  0
 14 13  1  6
 14 16  1  0
 15 14  1  0
 16 17  2  0
 18 19  1  0
 18 16  1  0
 19 20  1  1
 21 20  1  0
 22 19  1  0
 22 23  1  0
 24 22  2  0
M  END
$$$$
