FSC.pdb
     RDKit          3D

 24 24  0  0  1  0  0  0  0  0999 V2000
   25.6600  -15.5270  -16.4683 N   0  0  0  0  0  0  0  0  0  0  0  0
   25.6666  -14.2467  -17.1015 C   0  0  1  0  0  0  0  0  0  0  0  0
   24.7778  -14.2785  -18.3240 C   0  0  0  0  0  0  0  0  0  0  0  0
   25.3519  -15.1819  -19.3561 C   0  0  0  0  0  0  0  0  0  0  0  0
   26.3983  -14.7911  -20.1591 C   0  0  0  0  0  0  0  0  0  0  0  0
   26.9491  -15.6021  -21.1200 C   0  0  0  0  0  0  0  0  0  0  0  0
   26.3956  -16.8782  -21.2612 C   0  0  0  0  0  0  0  0  0  0  0  0
   25.3510  -17.2915  -20.4719 C   0  0  0  0  0  0  0  0  0  0  0  0
   24.8396  -16.4397  -19.5274 C   0  0  0  0  0  0  0  0  0  0  0  0
   25.1568  -13.1664  -16.1954 C   0  0  0  0  0  0  0  0  0  0  0  0
   24.2853  -13.4342  -15.3329 O   0  0  0  0  0  0  0  0  0  0  0  0
   26.8485   -9.3988  -16.3374 O   0  0  0  0  0  0  0  0  0  0  0  0
   26.3450   -9.8008  -15.1014 C   0  0  0  0  0  0  0  0  0  0  0  0
   25.2041  -10.7764  -15.3860 C   0  0  2  0  0  0  0  0  0  0  0  0
   25.6322  -11.8290  -16.2791 N   0  0  0  0  0  0  0  0  0  0  0  0
   24.0497  -10.0158  -15.9408 C   0  0  0  0  0  0  0  0  0  0  0  0
   23.8663   -9.8437  -17.1737 O   0  0  0  0  0  0  0  0  0  0  0  0
   23.1269   -9.4699  -15.0046 N   0  0  0  0  0  0  0  0  0  0  0  0
   21.9448   -8.7810  -15.4222 C   0  0  1  0  0  0  0  0  0  0  0  0
   20.7119   -9.2106  -14.6584 C   0  0  0  0  0  0  0  0  0  0  0  0
   20.5580  -11.0239  -14.7792 S   0  0  0  0  0  0  0  0  0  0  0  0
   22.1105   -7.3029  -15.4020 C   0  0  0  0  0  0  0  0  0  0  0  0
   21.1451   -6.4306  -15.8469 O   0  0  0  0  0  0  0  0  0  0  0  0
   23.1882   -6.8038  -14.9561 O   0  0  0  0  0  0  0  0  0  0  0  0
  2  1  1  1
  2 10  1  0
  3  2  1  0
  4  3  1  0
  5  4  2  0
  6  5  1  0
  7  6  2  0
  7  8  1  0
  8  9  2  0
  9  4  1  0
 10 15  1  0
 10 11  2  0
 12 13  1  0
 14 13  1  6
 14 16  1  0
 15 14  1  0
 16 17  2  0
 18 19  1  0
 18 16  1  0
 19 20  1  1
 21 20  1  0
 22 19  1  0
 22 23  1  0
 24 22  2  0
M  END
$$$$
