FSC.pdb
     RDKit          3D

 24 24  0  0  1  0  0  0  0  0999 V2000
   26.6525  -18.1949   -8.3056 N   0  0  0  0  0  0  0  0  0  0  0  0
   26.7178  -19.5484   -8.7572 C   0  0  1  0  0  0  0  0  0  0  0  0
   26.3322  -20.4804   -7.6310 C   0  0  0  0  0  0  0  0  0  0  0  0
   27.2182  -20.2646   -6.4564 C   0  0  0  0  0  0  0  0  0  0  0  0
   28.5622  -20.5543   -6.5005 C   0  0  0  0  0  0  0  0  0  0  0  0
   29.4048  -20.3661   -5.4333 C   0  0  0  0  0  0  0  0  0  0  0  0
   28.8359  -19.8545   -4.2631 C   0  0  0  0  0  0  0  0  0  0  0  0
   27.4972  -19.5574   -4.1943 C   0  0  0  0  0  0  0  0  0  0  0  0
   26.7017  -19.7653   -5.2912 C   0  0  0  0  0  0  0  0  0  0  0  0
   25.7848  -19.8068   -9.9022 C   0  0  0  0  0  0  0  0  0  0  0  0
   24.5842  -19.4500   -9.8223 O   0  0  0  0  0  0  0  0  0  0  0  0
   26.8924  -22.1954  -13.0773 O   0  0  0  0  0  0  0  0  0  0  0  0
   26.2144  -21.0433  -13.4721 C   0  0  0  0  0  0  0  0  0  0  0  0
   25.3899  -20.5831  -12.2709 C   0  0  2  0  0  0  0  0  0  0  0  0
   26.2176  -20.4512  -11.0934 N   0  0  0  0  0  0  0  0  0  0  0  0
   24.2741  -21.5467  -12.0574 C   0  0  0  0  0  0  0  0  0  0  0  0
   24.2071  -22.3140  -11.0625 O   0  0  0  0  0  0  0  0  0  0  0  0
   23.2496  -21.5765  -13.0450 N   0  0  0  0  0  0  0  0  0  0  0  0
   21.8810  -21.8199  -12.7073 C   0  0  1  0  0  0  0  0  0  0  0  0
   21.3869  -20.9398  -11.5806 C   0  0  0  0  0  0  0  0  0  0  0  0
   19.7429  -21.5335  -11.0599 S   0  0  0  0  0  0  0  0  0  0  0  0
   20.9815  -21.7471  -13.8898 C   0  0  0  0  0  0  0  0  0  0  0  0
   20.1596  -22.7798  -14.2756 O   0  0  0  0  0  0  0  0  0  0  0  0
   20.9575  -20.6889  -14.5889 O   0  0  0  0  0  0  0  0  0  0  0  0
  2  1  1  1
  2 10  1  0
  3  2  1  0
  4  3  1  0
  5  4  2  0
  6  5  1  0
  7  6  2  0
  7  8  1  0
  8  9  2  0
  9  4  1  0
 10 15  1  0
 10 11  2  0
 12 13  1  0
 14 13  1  6
 14 16  1  0
 15 14  1  0
 16 17  2  0
 18 19  1  0
 18 16  1  0
 19 20  1  1
 21 20  1  0
 22 19  1  0
 22 23  1  0
 24 22  2  0
M  END
$$$$
