FSC.pdb
     RDKit          3D

 24 24  0  0  1  0  0  0  0  0999 V2000
   22.4227  -13.0053  -18.0869 N   0  0  0  0  0  0  0  0  0  0  0  0
   21.4944  -11.9317  -18.2479 C   0  0  1  0  0  0  0  0  0  0  0  0
   20.2943  -12.1580  -17.3567 C   0  0  0  0  0  0  0  0  0  0  0  0
   19.5687  -13.3881  -17.7707 C   0  0  0  0  0  0  0  0  0  0  0  0
   18.9298  -13.4774  -18.9857 C   0  0  0  0  0  0  0  0  0  0  0  0
   18.2523  -14.5987  -19.3956 C   0  0  0  0  0  0  0  0  0  0  0  0
   18.2312  -15.6813  -18.5112 C   0  0  0  0  0  0  0  0  0  0  0  0
   18.8612  -15.6167  -17.2930 C   0  0  0  0  0  0  0  0  0  0  0  0
   19.5235  -14.4712  -16.9348 C   0  0  0  0  0  0  0  0  0  0  0  0
   22.0932  -10.6078  -17.8784 C   0  0  0  0  0  0  0  0  0  0  0  0
   22.9218  -10.5375  -16.9384 O   0  0  0  0  0  0  0  0  0  0  0  0
   20.7429   -7.1397  -19.6747 O   0  0  0  0  0  0  0  0  0  0  0  0
   22.1084   -7.1323  -19.3957 C   0  0  0  0  0  0  0  0  0  0  0  0
   22.3311   -8.1235  -18.2546 C   0  0  2  0  0  0  0  0  0  0  0  0
   21.7511   -9.4106  -18.5648 N   0  0  0  0  0  0  0  0  0  0  0  0
   21.7643   -7.5489  -17.0026 C   0  0  0  0  0  0  0  0  0  0  0  0
   20.6531   -7.8971  -16.5259 O   0  0  0  0  0  0  0  0  0  0  0  0
   22.5421   -6.5602  -16.3367 N   0  0  0  0  0  0  0  0  0  0  0  0
   22.0968   -5.9347  -15.1297 C   0  0  1  0  0  0  0  0  0  0  0  0
   23.2213   -5.2871  -14.3525 C   0  0  0  0  0  0  0  0  0  0  0  0
   22.5789   -4.7712  -12.7252 S   0  0  0  0  0  0  0  0  0  0  0  0
   20.9766   -4.9838  -15.3613 C   0  0  0  0  0  0  0  0  0  0  0  0
   19.7905   -5.0339  -14.6675 O   0  0  0  0  0  0  0  0  0  0  0  0
   21.1030   -4.0754  -16.2377 O   0  0  0  0  0  0  0  0  0  0  0  0
  2  1  1  1
  2 10  1  0
  3  2  1  0
  4  3  1  0
  5  4  2  0
  6  5  1  0
  7  6  2  0
  7  8  1  0
  8  9  2  0
  9  4  1  0
 10 15  1  0
 10 11  2  0
 12 13  1  0
 14 13  1  6
 14 16  1  0
 15 14  1  0
 16 17  2  0
 18 19  1  0
 18 16  1  0
 19 20  1  6
 21 20  1  0
 22 19  1  0
 22 23  1  0
 24 22  2  0
M  END
$$$$
