FSC.pdb
     RDKit          3D

 24 24  0  0  1  0  0  0  0  0999 V2000
   19.3242   -8.5484  -13.0813 N   0  0  0  0  0  0  0  0  0  0  0  0
   19.1962   -8.0120  -11.7636 C   0  0  1  0  0  0  0  0  0  0  0  0
   20.5166   -7.4214  -11.3236 C   0  0  0  0  0  0  0  0  0  0  0  0
   21.4499   -7.3274  -12.4774 C   0  0  0  0  0  0  0  0  0  0  0  0
   21.6779   -6.1376  -13.1290 C   0  0  0  0  0  0  0  0  0  0  0  0
   22.5329   -6.0195  -14.1963 C   0  0  0  0  0  0  0  0  0  0  0  0
   23.1854   -7.1835  -14.6135 C   0  0  0  0  0  0  0  0  0  0  0  0
   22.9745   -8.3830  -13.9795 C   0  0  0  0  0  0  0  0  0  0  0  0
   22.1092   -8.4432  -12.9181 C   0  0  0  0  0  0  0  0  0  0  0  0
   18.1654   -6.9255  -11.6944 C   0  0  0  0  0  0  0  0  0  0  0  0
   17.8920   -6.2575  -12.7210 O   0  0  0  0  0  0  0  0  0  0  0  0
   16.3610   -6.2590   -8.1437 O   0  0  0  0  0  0  0  0  0  0  0  0
   15.5679   -5.7932   -9.1909 C   0  0  0  0  0  0  0  0  0  0  0  0
   16.4989   -5.5601  -10.3797 C   0  0  2  0  0  0  0  0  0  0  0  0
   17.4757   -6.6198  -10.4892 N   0  0  0  0  0  0  0  0  0  0  0  0
   17.1447   -4.2263  -10.2290 C   0  0  0  0  0  0  0  0  0  0  0  0
   18.2431   -4.0550   -9.6396 O   0  0  0  0  0  0  0  0  0  0  0  0
   16.4606   -3.1113  -10.7901 N   0  0  0  0  0  0  0  0  0  0  0  0
   17.0195   -1.7946  -10.7724 C   0  0  1  0  0  0  0  0  0  0  0  0
   16.7999   -1.0441  -12.0672 C   0  0  0  0  0  0  0  0  0  0  0  0
   17.5784    0.5990  -11.9238 S   0  0  0  0  0  0  0  0  0  0  0  0
   16.5672   -1.0002   -9.5990 C   0  0  0  0  0  0  0  0  0  0  0  0
   17.3964   -0.1608   -8.8928 O   0  0  0  0  0  0  0  0  0  0  0  0
   15.3610   -1.0880   -9.2159 O   0  0  0  0  0  0  0  0  0  0  0  0
  2  1  1  6
  2 10  1  0
  3  2  1  0
  4  3  1  0
  5  4  2  0
  6  5  1  0
  7  6  2  0
  7  8  1  0
  8  9  2  0
  9  4  1  0
 10 15  1  0
 10 11  2  0
 12 13  1  0
 14 13  1  1
 14 16  1  0
 15 14  1  0
 16 17  2  0
 18 19  1  0
 18 16  1  0
 19 20  1  6
 21 20  1  0
 22 19  1  0
 22 23  1  0
 24 22  2  0
M  END
$$$$
