FSC.pdb
     RDKit          3D

 24 24  0  0  1  0  0  0  0  0999 V2000
   26.5552  -18.3146   -8.1116 N   0  0  0  0  0  0  0  0  0  0  0  0
   26.9629  -19.5767   -8.6419 C   0  0  1  0  0  0  0  0  0  0  0  0
   26.8422  -20.6406   -7.5746 C   0  0  0  0  0  0  0  0  0  0  0  0
   27.7136  -20.3103   -6.4158 C   0  0  0  0  0  0  0  0  0  0  0  0
   27.1923  -19.8810   -5.2173 C   0  0  0  0  0  0  0  0  0  0  0  0
   27.9707  -19.5687   -4.1305 C   0  0  0  0  0  0  0  0  0  0  0  0
   29.3535  -19.7050   -4.2851 C   0  0  0  0  0  0  0  0  0  0  0  0
   29.8978  -20.1316   -5.4712 C   0  0  0  0  0  0  0  0  0  0  0  0
   29.0728  -20.4299   -6.5245 C   0  0  0  0  0  0  0  0  0  0  0  0
   26.1168  -19.9999   -9.8050 C   0  0  0  0  0  0  0  0  0  0  0  0
   24.8660  -19.9377   -9.7230 O   0  0  0  0  0  0  0  0  0  0  0  0
   27.8307  -21.5850  -13.1962 O   0  0  0  0  0  0  0  0  0  0  0  0
   27.0436  -20.4612  -13.4416 C   0  0  0  0  0  0  0  0  0  0  0  0
   26.0324  -20.3728  -12.2997 C   0  0  2  0  0  0  0  0  0  0  0  0
   26.6889  -20.4767  -11.0162 N   0  0  0  0  0  0  0  0  0  0  0  0
   25.0065  -21.4370  -12.4839 C   0  0  0  0  0  0  0  0  0  0  0  0
   25.1601  -22.6193  -12.0814 O   0  0  0  0  0  0  0  0  0  0  0  0
   23.8052  -21.0665  -13.1513 N   0  0  0  0  0  0  0  0  0  0  0  0
   22.6996  -21.9662  -13.2727 C   0  0  1  0  0  0  0  0  0  0  0  0
   21.3621  -21.2599  -13.2656 C   0  0  0  0  0  0  0  0  0  0  0  0
   21.4925  -19.7615  -14.2973 S   0  0  0  0  0  0  0  0  0  0  0  0
   22.8303  -22.8734  -14.4442 C   0  0  0  0  0  0  0  0  0  0  0  0
   22.2016  -24.0936  -14.5258 O   0  0  0  0  0  0  0  0  0  0  0  0
   23.5528  -22.5217  -15.4259 O   0  0  0  0  0  0  0  0  0  0  0  0
  2  1  1  1
  2 10  1  0
  3  2  1  0
  4  3  1  0
  5  4  2  0
  6  5  1  0
  7  6  2  0
  7  8  1  0
  8  9  2  0
  9  4  1  0
 10 15  1  0
 10 11  2  0
 12 13  1  0
 14 13  1  6
 14 16  1  0
 15 14  1  0
 16 17  2  0
 18 19  1  0
 18 16  1  0
 19 20  1  6
 21 20  1  0
 22 19  1  0
 22 23  1  0
 24 22  2  0
M  END
$$$$
