FSC.pdb
     RDKit          3D

 24 24  0  0  1  0  0  0  0  0999 V2000
   24.3138  -11.4559  -19.3101 N   0  0  0  0  0  0  0  0  0  0  0  0
   23.7074  -11.5107  -18.0180 C   0  0  1  0  0  0  0  0  0  0  0  0
   24.7796  -11.5886  -16.9550 C   0  0  0  0  0  0  0  0  0  0  0  0
   25.5154  -12.8767  -17.0577 C   0  0  0  0  0  0  0  0  0  0  0  0
   25.1168  -13.9953  -16.3634 C   0  0  0  0  0  0  0  0  0  0  0  0
   25.7753  -15.1976  -16.4377 C   0  0  0  0  0  0  0  0  0  0  0  0
   26.8993  -15.2509  -17.2674 C   0  0  0  0  0  0  0  0  0  0  0  0
   27.3170  -14.1481  -17.9705 C   0  0  0  0  0  0  0  0  0  0  0  0
   26.6212  -12.9722  -17.8588 C   0  0  0  0  0  0  0  0  0  0  0  0
   22.8722  -10.2982  -17.7347 C   0  0  0  0  0  0  0  0  0  0  0  0
   23.2966   -9.1599  -18.0497 O   0  0  0  0  0  0  0  0  0  0  0  0
   19.2465  -10.6270  -15.7172 O   0  0  0  0  0  0  0  0  0  0  0  0
   19.2607   -9.7287  -16.7828 C   0  0  0  0  0  0  0  0  0  0  0  0
   20.7071   -9.2656  -16.9502 C   0  0  2  0  0  0  0  0  0  0  0  0
   21.5972  -10.3927  -17.1127 N   0  0  0  0  0  0  0  0  0  0  0  0
   21.0821   -8.4296  -15.7757 C   0  0  0  0  0  0  0  0  0  0  0  0
   21.6651   -8.8900  -14.7602 O   0  0  0  0  0  0  0  0  0  0  0  0
   20.7510   -7.0466  -15.8362 N   0  0  0  0  0  0  0  0  0  0  0  0
   21.0898   -6.1415  -14.7816 C   0  0  1  0  0  0  0  0  0  0  0  0
   22.4808   -5.5648  -14.9245 C   0  0  0  0  0  0  0  0  0  0  0  0
   22.7590   -4.3793  -13.5667 S   0  0  0  0  0  0  0  0  0  0  0  0
   20.0725   -5.0713  -14.6014 C   0  0  0  0  0  0  0  0  0  0  0  0
   19.7187   -4.5677  -13.3717 O   0  0  0  0  0  0  0  0  0  0  0  0
   19.4920   -4.5870  -15.6201 O   0  0  0  0  0  0  0  0  0  0  0  0
  2  1  1  6
  2 10  1  0
  3  2  1  0
  4  3  1  0
  5  4  2  0
  6  5  1  0
  7  6  2  0
  7  8  1  0
  8  9  2  0
  9  4  1  0
 10 15  1  0
 10 11  2  0
 12 13  1  0
 14 13  1  1
 14 16  1  0
 15 14  1  0
 16 17  2  0
 18 19  1  0
 18 16  1  0
 19 20  1  6
 21 20  1  0
 22 19  1  0
 22 23  1  0
 24 22  2  0
M  END
$$$$
