FSC.pdb
     RDKit          3D

 24 24  0  0  1  0  0  0  0  0999 V2000
   27.2461  -18.7702   -9.2133 N   0  0  0  0  0  0  0  0  0  0  0  0
   26.7352  -20.0957   -9.3632 C   0  0  1  0  0  0  0  0  0  0  0  0
   26.1640  -20.5733   -8.0474 C   0  0  0  0  0  0  0  0  0  0  0  0
   27.1705  -20.4233   -6.9632 C   0  0  0  0  0  0  0  0  0  0  0  0
   28.2370  -21.2835   -6.8415 C   0  0  0  0  0  0  0  0  0  0  0  0
   29.1816  -21.1708   -5.8518 C   0  0  0  0  0  0  0  0  0  0  0  0
   29.0204  -20.1209   -4.9427 C   0  0  0  0  0  0  0  0  0  0  0  0
   27.9643  -19.2493   -5.0431 C   0  0  0  0  0  0  0  0  0  0  0  0
   27.0501  -19.4089   -6.0520 C   0  0  0  0  0  0  0  0  0  0  0  0
   25.6422  -20.1666  -10.3871 C   0  0  0  0  0  0  0  0  0  0  0  0
   24.6769  -19.3669  -10.3267 O   0  0  0  0  0  0  0  0  0  0  0  0
   25.5088  -23.1852  -13.2451 O   0  0  0  0  0  0  0  0  0  0  0  0
   25.3407  -21.8948  -13.7443 C   0  0  0  0  0  0  0  0  0  0  0  0
   24.7968  -21.0452  -12.5968 C   0  0  2  0  0  0  0  0  0  0  0  0
   25.6599  -21.1219  -11.4401 N   0  0  0  0  0  0  0  0  0  0  0  0
   23.4110  -21.4928  -12.2835 C   0  0  0  0  0  0  0  0  0  0  0  0
   23.1527  -22.4153  -11.4677 O   0  0  0  0  0  0  0  0  0  0  0  0
   22.3495  -20.8245  -12.9562 N   0  0  0  0  0  0  0  0  0  0  0  0
   20.9825  -21.2060  -12.7773 C   0  0  1  0  0  0  0  0  0  0  0  0
   20.0113  -20.1047  -13.1406 C   0  0  0  0  0  0  0  0  0  0  0  0
   18.5404  -20.2537  -12.0726 S   0  0  0  0  0  0  0  0  0  0  0  0
   20.6505  -22.4770  -13.4752 C   0  0  0  0  0  0  0  0  0  0  0  0
   21.3101  -22.9131  -14.6002 O   0  0  0  0  0  0  0  0  0  0  0  0
   19.7163  -23.2079  -13.0254 O   0  0  0  0  0  0  0  0  0  0  0  0
  2  1  1  1
  2 10  1  0
  3  2  1  0
  4  3  1  0
  5  4  2  0
  6  5  1  0
  7  6  2  0
  7  8  1  0
  8  9  2  0
  9  4  1  0
 10 15  1  0
 10 11  2  0
 12 13  1  0
 14 13  1  6
 14 16  1  0
 15 14  1  0
 16 17  2  0
 18 19  1  0
 18 16  1  0
 19 20  1  6
 21 20  1  0
 22 19  1  0
 22 23  1  0
 24 22  2  0
M  END
$$$$
