FSC.pdb
     RDKit          3D

 24 24  0  0  1  0  0  0  0  0999 V2000
   24.2500  -13.9792  -18.7566 N   0  0  0  0  0  0  0  0  0  0  0  0
   23.9396  -13.3527  -17.5111 C   0  0  1  0  0  0  0  0  0  0  0  0
   25.2170  -12.9357  -16.8182 C   0  0  0  0  0  0  0  0  0  0  0  0
   26.0054  -14.1336  -16.4249 C   0  0  0  0  0  0  0  0  0  0  0  0
   27.0283  -14.6161  -17.2081 C   0  0  0  0  0  0  0  0  0  0  0  0
   27.7733  -15.7189  -16.8719 C   0  0  0  0  0  0  0  0  0  0  0  0
   27.4495  -16.3564  -15.6705 C   0  0  0  0  0  0  0  0  0  0  0  0
   26.4331  -15.8941  -14.8716 C   0  0  0  0  0  0  0  0  0  0  0  0
   25.7212  -14.7876  -15.2565 C   0  0  0  0  0  0  0  0  0  0  0  0
   23.0973  -12.1254  -17.6912 C   0  0  0  0  0  0  0  0  0  0  0  0
   23.4099  -11.2754  -18.5600 O   0  0  0  0  0  0  0  0  0  0  0  0
   19.5434  -11.8188  -15.6790 O   0  0  0  0  0  0  0  0  0  0  0  0
   19.6195  -11.0956  -16.8680 C   0  0  0  0  0  0  0  0  0  0  0  0
   21.0892  -10.7293  -17.0683 C   0  0  2  0  0  0  0  0  0  0  0  0
   21.9396  -11.8861  -16.9013 N   0  0  0  0  0  0  0  0  0  0  0  0
   21.4457   -9.6391  -16.1180 C   0  0  0  0  0  0  0  0  0  0  0  0
   22.0062   -9.8461  -15.0106 O   0  0  0  0  0  0  0  0  0  0  0  0
   21.1234   -8.3096  -16.5110 N   0  0  0  0  0  0  0  0  0  0  0  0
   21.4107   -7.1839  -15.6764 C   0  0  1  0  0  0  0  0  0  0  0  0
   21.3211   -5.8661  -16.4134 C   0  0  0  0  0  0  0  0  0  0  0  0
   22.4069   -5.9455  -17.8767 S   0  0  0  0  0  0  0  0  0  0  0  0
   20.5899   -7.1711  -14.4359 C   0  0  0  0  0  0  0  0  0  0  0  0
   20.8317   -6.3223  -13.3815 O   0  0  0  0  0  0  0  0  0  0  0  0
   19.6148   -7.9753  -14.3269 O   0  0  0  0  0  0  0  0  0  0  0  0
  2  1  1  6
  2 10  1  0
  3  2  1  0
  4  3  1  0
  5  4  2  0
  6  5  1  0
  7  6  2  0
  7  8  1  0
  8  9  2  0
  9  4  1  0
 10 15  1  0
 10 11  2  0
 12 13  1  0
 14 13  1  1
 14 16  1  0
 15 14  1  0
 16 17  2  0
 18 19  1  0
 18 16  1  0
 19 20  1  6
 21 20  1  0
 22 19  1  0
 22 23  1  0
 24 22  2  0
M  END
$$$$
