FSC.pdb
     RDKit          3D

 24 24  0  0  1  0  0  0  0  0999 V2000
   25.1454  -10.5832  -18.0953 N   0  0  0  0  0  0  0  0  0  0  0  0
   24.8247  -10.1302  -16.7791 C   0  0  1  0  0  0  0  0  0  0  0  0
   26.0696   -9.5982  -16.1061 C   0  0  0  0  0  0  0  0  0  0  0  0
   27.1213  -10.6484  -16.0623 C   0  0  0  0  0  0  0  0  0  0  0  0
   28.2598  -10.5652  -16.8299 C   0  0  0  0  0  0  0  0  0  0  0  0
   29.2476  -11.5182  -16.8112 C   0  0  0  0  0  0  0  0  0  0  0  0
   29.0540  -12.6107  -15.9605 C   0  0  0  0  0  0  0  0  0  0  0  0
   27.9262  -12.7165  -15.1846 C   0  0  0  0  0  0  0  0  0  0  0  0
   26.9713  -11.7347  -15.2430 C   0  0  0  0  0  0  0  0  0  0  0  0
   23.8083   -9.0280  -16.7938 C   0  0  0  0  0  0  0  0  0  0  0  0
   23.8015   -8.1970  -17.7342 O   0  0  0  0  0  0  0  0  0  0  0  0
   21.3810   -8.5211  -13.5584 O   0  0  0  0  0  0  0  0  0  0  0  0
   20.7312   -8.1654  -14.7390 C   0  0  0  0  0  0  0  0  0  0  0  0
   21.8196   -7.8613  -15.7673 C   0  0  2  0  0  0  0  0  0  0  0  0
   22.8369   -8.8881  -15.7650 N   0  0  0  0  0  0  0  0  0  0  0  0
   22.3907   -6.5164  -15.4779 C   0  0  0  0  0  0  0  0  0  0  0  0
   23.4470   -6.3440  -14.8163 O   0  0  0  0  0  0  0  0  0  0  0  0
   21.6835   -5.3917  -15.9887 N   0  0  0  0  0  0  0  0  0  0  0  0
   22.1546   -4.0540  -15.8016 C   0  0  1  0  0  0  0  0  0  0  0  0
   22.3988   -3.3277  -17.1058 C   0  0  0  0  0  0  0  0  0  0  0  0
   23.0524   -1.6668  -16.7306 S   0  0  0  0  0  0  0  0  0  0  0  0
   21.2796   -3.2643  -14.8941 C   0  0  0  0  0  0  0  0  0  0  0  0
   21.7668   -2.4031  -13.9392 O   0  0  0  0  0  0  0  0  0  0  0  0
   20.0198   -3.3775  -14.9906 O   0  0  0  0  0  0  0  0  0  0  0  0
  2  1  1  6
  2 10  1  0
  3  2  1  0
  4  3  1  0
  5  4  2  0
  6  5  1  0
  7  6  2  0
  7  8  1  0
  8  9  2  0
  9  4  1  0
 10 15  1  0
 10 11  2  0
 12 13  1  0
 14 13  1  1
 14 16  1  0
 15 14  1  0
 16 17  2  0
 18 19  1  0
 18 16  1  0
 19 20  1  6
 21 20  1  0
 22 19  1  0
 22 23  1  0
 24 22  2  0
M  END
$$$$
