FSC.pdb
     RDKit          3D

 24 24  0  0  1  0  0  0  0  0999 V2000
   27.5998  -21.0916  -14.3553 N   0  0  0  0  0  0  0  0  0  0  0  0
   26.5764  -21.1696  -13.3619 C   0  0  1  0  0  0  0  0  0  0  0  0
   26.8758  -20.1960  -12.2447 C   0  0  0  0  0  0  0  0  0  0  0  0
   28.0865  -20.6260  -11.4961 C   0  0  0  0  0  0  0  0  0  0  0  0
   29.3521  -20.4576  -12.0083 C   0  0  0  0  0  0  0  0  0  0  0  0
   30.4879  -20.8443  -11.3415 C   0  0  0  0  0  0  0  0  0  0  0  0
   30.3125  -21.4332  -10.0857 C   0  0  0  0  0  0  0  0  0  0  0  0
   29.0597  -21.6122   -9.5530 C   0  0  0  0  0  0  0  0  0  0  0  0
   27.9594  -21.2070  -10.2632 C   0  0  0  0  0  0  0  0  0  0  0  0
   25.2257  -20.8269  -13.9152 C   0  0  0  0  0  0  0  0  0  0  0  0
   25.0175  -19.6851  -14.3925 O   0  0  0  0  0  0  0  0  0  0  0  0
   22.2238  -23.6486  -13.8422 O   0  0  0  0  0  0  0  0  0  0  0  0
   22.1623  -22.7739  -14.9256 C   0  0  0  0  0  0  0  0  0  0  0  0
   22.8584  -21.4848  -14.4920 C   0  0  2  0  0  0  0  0  0  0  0  0
   24.1557  -21.7632  -13.9188 N   0  0  0  0  0  0  0  0  0  0  0  0
   21.9750  -20.7609  -13.5356 C   0  0  0  0  0  0  0  0  0  0  0  0
   22.0681  -20.8797  -12.2864 O   0  0  0  0  0  0  0  0  0  0  0  0
   20.9878  -19.9007  -14.0937 N   0  0  0  0  0  0  0  0  0  0  0  0
   19.9589  -19.3116  -13.2933 C   0  0  1  0  0  0  0  0  0  0  0  0
   20.2358  -17.8649  -12.9495 C   0  0  0  0  0  0  0  0  0  0  0  0
   20.7887  -17.0058  -14.4604 S   0  0  0  0  0  0  0  0  0  0  0  0
   18.6069  -19.4804  -13.8902 C   0  0  0  0  0  0  0  0  0  0  0  0
   18.4003  -19.9434  -15.1684 O   0  0  0  0  0  0  0  0  0  0  0  0
   17.5821  -19.1883  -13.2019 O   0  0  0  0  0  0  0  0  0  0  0  0
  2  1  1  6
  2 10  1  0
  3  2  1  0
  4  3  1  0
  5  4  2  0
  6  5  1  0
  7  6  2  0
  7  8  1  0
  8  9  2  0
  9  4  1  0
 10 15  1  0
 10 11  2  0
 12 13  1  0
 14 13  1  1
 14 16  1  0
 15 14  1  0
 16 17  2  0
 18 19  1  0
 18 16  1  0
 19 20  1  6
 21 20  1  0
 22 19  1  0
 22 23  1  0
 24 22  2  0
M  END
$$$$
