FSC.pdb
     RDKit          3D

 24 24  0  0  1  0  0  0  0  0999 V2000
   25.2010  -10.6773  -18.1936 N   0  0  0  0  0  0  0  0  0  0  0  0
   24.8750  -10.4956  -16.8149 C   0  0  1  0  0  0  0  0  0  0  0  0
   26.1013  -10.0396  -16.0573 C   0  0  0  0  0  0  0  0  0  0  0  0
   27.1797  -11.0582  -16.1599 C   0  0  0  0  0  0  0  0  0  0  0  0
   27.0851  -12.2782  -15.5314 C   0  0  0  0  0  0  0  0  0  0  0  0
   28.0635  -13.2382  -15.6073 C   0  0  0  0  0  0  0  0  0  0  0  0
   29.1948  -12.9270  -16.3676 C   0  0  0  0  0  0  0  0  0  0  0  0
   29.3126  -11.7163  -17.0043 C   0  0  0  0  0  0  0  0  0  0  0  0
   28.3042  -10.7941  -16.8942 C   0  0  0  0  0  0  0  0  0  0  0  0
   23.8076   -9.4611  -16.6191 C   0  0  0  0  0  0  0  0  0  0  0  0
   23.6331   -8.5715  -17.4870 O   0  0  0  0  0  0  0  0  0  0  0  0
   20.3962  -10.2717  -14.5886 O   0  0  0  0  0  0  0  0  0  0  0  0
   20.9209   -9.0432  -14.1909 C   0  0  0  0  0  0  0  0  0  0  0  0
   21.8377   -8.5694  -15.3175 C   0  0  2  0  0  0  0  0  0  0  0  0
   22.9730   -9.4512  -15.4680 N   0  0  0  0  0  0  0  0  0  0  0  0
   22.2590   -7.1686  -15.0360 C   0  0  0  0  0  0  0  0  0  0  0  0
   23.2409   -6.8780  -14.3048 O   0  0  0  0  0  0  0  0  0  0  0  0
   21.4932   -6.1311  -15.6386 N   0  0  0  0  0  0  0  0  0  0  0  0
   21.8417   -4.7515  -15.4916 C   0  0  1  0  0  0  0  0  0  0  0  0
   21.9424   -4.0253  -16.8146 C   0  0  0  0  0  0  0  0  0  0  0  0
   22.4298   -2.2977  -16.4918 S   0  0  0  0  0  0  0  0  0  0  0  0
   20.9452   -4.0360  -14.5445 C   0  0  0  0  0  0  0  0  0  0  0  0
   21.4065   -3.1850  -13.5678 O   0  0  0  0  0  0  0  0  0  0  0  0
   19.6908   -4.2064  -14.6260 O   0  0  0  0  0  0  0  0  0  0  0  0
  2  1  1  6
  2 10  1  0
  3  2  1  0
  4  3  1  0
  5  4  2  0
  6  5  1  0
  7  6  2  0
  7  8  1  0
  8  9  2  0
  9  4  1  0
 10 15  1  0
 10 11  2  0
 12 13  1  0
 14 13  1  1
 14 16  1  0
 15 14  1  0
 16 17  2  0
 18 19  1  0
 18 16  1  0
 19 20  1  6
 21 20  1  0
 22 19  1  0
 22 23  1  0
 24 22  2  0
M  END
$$$$
