FSC.pdb
     RDKit          3D

 24 24  0  0  1  0  0  0  0  0999 V2000
   28.4259  -19.9792  -15.5127 N   0  0  0  0  0  0  0  0  0  0  0  0
   27.6172  -19.4059  -14.4843 C   0  0  1  0  0  0  0  0  0  0  0  0
   26.5615  -18.5175  -15.1023 C   0  0  0  0  0  0  0  0  0  0  0  0
   27.1740  -17.2567  -15.5985 C   0  0  0  0  0  0  0  0  0  0  0  0
   27.3877  -16.1803  -14.7690 C   0  0  0  0  0  0  0  0  0  0  0  0
   27.9505  -15.0039  -15.1977 C   0  0  0  0  0  0  0  0  0  0  0  0
   28.3111  -14.9320  -16.5466 C   0  0  0  0  0  0  0  0  0  0  0  0
   28.1081  -15.9927  -17.3944 C   0  0  0  0  0  0  0  0  0  0  0  0
   27.5417  -17.1442  -16.9122 C   0  0  0  0  0  0  0  0  0  0  0  0
   26.9142  -20.4509  -13.6708 C   0  0  0  0  0  0  0  0  0  0  0  0
   26.5474  -21.5220  -14.2124 O   0  0  0  0  0  0  0  0  0  0  0  0
   26.8104  -20.7663   -9.5517 O   0  0  0  0  0  0  0  0  0  0  0  0
   25.5505  -20.5651  -10.1128 C   0  0  0  0  0  0  0  0  0  0  0  0
   25.6383  -21.0196  -11.5688 C   0  0  2  0  0  0  0  0  0  0  0  0
   26.6438  -20.2696  -12.2868 N   0  0  0  0  0  0  0  0  0  0  0  0
   24.2940  -20.8832  -12.1958 C   0  0  0  0  0  0  0  0  0  0  0  0
   23.8097  -19.7786  -12.5543 O   0  0  0  0  0  0  0  0  0  0  0  0
   23.5460  -22.0793  -12.3849 N   0  0  0  0  0  0  0  0  0  0  0  0
   22.2979  -22.0877  -13.0839 C   0  0  1  0  0  0  0  0  0  0  0  0
   22.0714  -23.3602  -13.8696 C   0  0  0  0  0  0  0  0  0  0  0  0
   23.6372  -23.8273  -14.6800 S   0  0  0  0  0  0  0  0  0  0  0  0
   21.1452  -21.7849  -12.1937 C   0  0  0  0  0  0  0  0  0  0  0  0
   21.2500  -21.7107  -10.8246 O   0  0  0  0  0  0  0  0  0  0  0  0
   20.0016  -21.5822  -12.7040 O   0  0  0  0  0  0  0  0  0  0  0  0
  2  1  1  6
  2 10  1  0
  3  2  1  0
  4  3  1  0
  5  4  2  0
  6  5  1  0
  7  6  2  0
  7  8  1  0
  8  9  2  0
  9  4  1  0
 10 15  1  0
 10 11  2  0
 12 13  1  0
 14 13  1  1
 14 16  1  0
 15 14  1  0
 16 17  2  0
 18 19  1  0
 18 16  1  0
 19 20  1  1
 21 20  1  0
 22 19  1  0
 22 23  1  0
 24 22  2  0
M  END
$$$$
