FSC.pdb
     RDKit          3D

 24 24  0  0  1  0  0  0  0  0999 V2000
   20.2128  -21.0600  -12.2764 N   0  0  0  0  0  0  0  0  0  0  0  0
   21.3256  -21.3459  -13.1250 C   0  0  1  0  0  0  0  0  0  0  0  0
   21.0366  -20.8569  -14.5261 C   0  0  0  0  0  0  0  0  0  0  0  0
   20.0283  -21.7323  -15.1804 C   0  0  0  0  0  0  0  0  0  0  0  0
   18.7488  -21.2967  -15.4367 C   0  0  0  0  0  0  0  0  0  0  0  0
   17.7966  -22.0811  -16.0387 C   0  0  0  0  0  0  0  0  0  0  0  0
   18.1803  -23.3776  -16.3945 C   0  0  0  0  0  0  0  0  0  0  0  0
   19.4512  -23.8355  -16.1493 C   0  0  0  0  0  0  0  0  0  0  0  0
   20.3624  -23.0087  -15.5449 C   0  0  0  0  0  0  0  0  0  0  0  0
   22.5802  -20.6716  -12.6568 C   0  0  0  0  0  0  0  0  0  0  0  0
   22.5319  -19.4959  -12.2204 O   0  0  0  0  0  0  0  0  0  0  0  0
   25.9447  -22.7574  -11.9920 O   0  0  0  0  0  0  0  0  0  0  0  0
   26.0434  -21.4191  -11.6153 C   0  0  0  0  0  0  0  0  0  0  0  0
   25.1003  -20.6339  -12.5255 C   0  0  2  0  0  0  0  0  0  0  0  0
   23.8421  -21.3259  -12.6898 N   0  0  0  0  0  0  0  0  0  0  0  0
   25.7778  -20.4006  -13.8314 C   0  0  0  0  0  0  0  0  0  0  0  0
   25.7143  -21.2078  -14.7946 O   0  0  0  0  0  0  0  0  0  0  0  0
   26.5254  -19.1967  -13.9644 N   0  0  0  0  0  0  0  0  0  0  0  0
   27.2353  -18.8765  -15.1644 C   0  0  1  0  0  0  0  0  0  0  0  0
   28.0730  -17.6236  -15.0366 C   0  0  0  0  0  0  0  0  0  0  0  0
   28.7235  -17.1908  -16.6846 S   0  0  0  0  0  0  0  0  0  0  0  0
   28.0398  -20.0201  -15.6719 C   0  0  0  0  0  0  0  0  0  0  0  0
   28.1032  -20.3652  -17.0015 O   0  0  0  0  0  0  0  0  0  0  0  0
   28.7069  -20.7232  -14.8534 O   0  0  0  0  0  0  0  0  0  0  0  0
  2  1  1  1
  2 10  1  0
  3  2  1  0
  4  3  1  0
  5  4  2  0
  6  5  1  0
  7  6  2  0
  7  8  1  0
  8  9  2  0
  9  4  1  0
 10 15  1  0
 10 11  2  0
 12 13  1  0
 14 13  1  1
 14 16  1  0
 15 14  1  0
 16 17  2  0
 18 19  1  0
 18 16  1  0
 19 20  1  1
 21 20  1  0
 22 19  1  0
 22 23  1  0
 24 22  2  0
M  END
$$$$
