FSC.pdb
     RDKit          3D

 24 24  0  0  1  0  0  0  0  0999 V2000
   23.8911  -10.0317  -17.6124 N   0  0  0  0  0  0  0  0  0  0  0  0
   23.7658   -9.4951  -16.2946 C   0  0  1  0  0  0  0  0  0  0  0  0
   25.0731   -8.8614  -15.8762 C   0  0  0  0  0  0  0  0  0  0  0  0
   26.1841   -9.8424  -15.9972 C   0  0  0  0  0  0  0  0  0  0  0  0
   27.2348   -9.6430  -16.8624 C   0  0  0  0  0  0  0  0  0  0  0  0
   28.2740  -10.5298  -16.9962 C   0  0  0  0  0  0  0  0  0  0  0  0
   28.2295  -11.6784  -16.2003 C   0  0  0  0  0  0  0  0  0  0  0  0
   27.1916  -11.9000  -15.3292 C   0  0  0  0  0  0  0  0  0  0  0  0
   26.1794  -10.9802  -15.2362 C   0  0  0  0  0  0  0  0  0  0  0  0
   22.7021   -8.4416  -16.2131 C   0  0  0  0  0  0  0  0  0  0  0  0
   22.4012   -7.7774  -17.2346 O   0  0  0  0  0  0  0  0  0  0  0  0
   20.8213   -7.8425  -12.6501 O   0  0  0  0  0  0  0  0  0  0  0  0
   20.0331   -7.4628  -13.7351 C   0  0  0  0  0  0  0  0  0  0  0  0
   20.9880   -7.1494  -14.8859 C   0  0  2  0  0  0  0  0  0  0  0  0
   22.0112   -8.1636  -15.0020 N   0  0  0  0  0  0  0  0  0  0  0  0
   21.5725   -5.7964  -14.6693 C   0  0  0  0  0  0  0  0  0  0  0  0
   22.5922   -5.5916  -13.9612 O   0  0  0  0  0  0  0  0  0  0  0  0
   20.9225   -4.7030  -15.3080 N   0  0  0  0  0  0  0  0  0  0  0  0
   21.4062   -3.3621  -15.1891 C   0  0  1  0  0  0  0  0  0  0  0  0
   21.1513   -2.5320  -16.4276 C   0  0  0  0  0  0  0  0  0  0  0  0
   21.2134   -3.6290  -17.8833 S   0  0  0  0  0  0  0  0  0  0  0  0
   20.9037   -2.6824  -13.9650 C   0  0  0  0  0  0  0  0  0  0  0  0
   21.3894   -1.4751  -13.5207 O   0  0  0  0  0  0  0  0  0  0  0  0
   19.9824   -3.2277  -13.2845 O   0  0  0  0  0  0  0  0  0  0  0  0
  2  1  1  6
  2 10  1  0
  3  2  1  0
  4  3  1  0
  5  4  2  0
  6  5  1  0
  7  6  2  0
  7  8  1  0
  8  9  2  0
  9  4  1  0
 10 15  1  0
 10 11  2  0
 12 13  1  0
 14 13  1  1
 14 16  1  0
 15 14  1  0
 16 17  2  0
 18 19  1  0
 18 16  1  0
 19 20  1  6
 21 20  1  0
 22 19  1  0
 22 23  1  0
 24 22  2  0
M  END
$$$$
