QLK.pdb
     RDKit          3D

 27 26  0  0  1  0  0  0  0  0999 V2000
   19.8753  -18.8120  -13.8752 N   0  0  0  0  0  0  0  0  0  0  0  0
   19.4240  -19.7474  -12.9056 C   0  0  0  0  0  0  0  0  0  0  0  0
   18.1993  -20.0163  -12.8944 O   0  0  0  0  0  0  0  0  0  0  0  0
   20.3292  -20.3962  -11.9352 C   0  0  0  0  0  0  0  0  0  0  0  0
   21.7369  -19.9536  -12.2193 C   0  0  0  0  0  0  0  0  0  0  0  0
   22.3766  -20.7144  -13.3510 C   0  0  2  0  0  0  0  0  0  0  0  0
   22.4514  -22.1205  -13.0123 N   0  0  0  0  0  0  0  0  0  0  0  0
   23.7730  -20.2056  -13.6146 C   0  0  0  0  0  0  0  0  0  0  0  0
   23.9646  -18.9922  -13.8566 O   0  0  0  0  0  0  0  0  0  0  0  0
   28.0914  -19.1909  -11.7881 C   0  0  0  0  0  0  0  0  0  0  0  0
   28.3286  -20.5066  -12.4675 C   0  0  1  0  0  0  0  0  0  0  0  0
   29.1238  -21.3515  -11.4783 C   0  0  0  0  0  0  0  0  0  0  0  0
   27.1602  -21.1870  -13.0211 C   0  0  0  0  0  0  0  0  0  0  0  0
   26.2224  -20.5521  -13.9599 C   0  0  2  0  0  0  0  0  0  0  0  0
   24.8630  -21.0920  -13.5888 N   0  0  0  0  0  0  0  0  0  0  0  0
   26.3702  -20.9461  -15.3633 C   0  0  0  0  0  0  0  0  0  0  0  0
   27.0451  -20.1433  -16.1090 O   0  0  0  0  0  0  0  0  0  0  0  0
   25.8849  -22.1044  -16.0008 N   0  0  0  0  0  0  0  0  0  0  0  0
   26.0878  -22.3592  -17.3782 C   0  0  1  0  0  0  0  0  0  0  0  0
   26.4235  -23.6921  -17.8546 C   0  0  0  0  0  0  0  0  0  0  0  0
   27.7853  -24.1917  -18.0695 C   0  0  0  0  0  0  0  0  0  0  0  0
   28.7123  -24.4070  -16.9364 C   0  0  0  0  0  0  0  0  0  0  0  0
   30.0794  -24.8382  -17.2838 C   0  0  0  0  0  0  0  0  0  0  0  0
   30.7863  -25.0460  -15.9847 N   0  0  0  0  0  0  0  0  0  0  0  0
   24.8650  -21.8808  -18.2098 C   0  0  0  0  0  0  0  0  0  0  0  0
   23.7803  -21.3524  -17.5857 O   0  0  0  0  0  0  0  0  0  0  0  0
   24.9012  -21.9844  -19.4510 O   0  0  0  0  0  0  0  0  0  0  0  0
  2  4  1  0
  2  1  1  0
  3  2  2  0
  5  4  1  0
  6  5  1  0
  6  8  1  0
  6  7  1  1
  8 15  1  0
  9  8  2  0
 11 10  1  1
 11 12  1  0
 13 11  1  0
 14 13  1  1
 15 14  1  0
 16 14  1  0
 16 17  2  0
 18 16  1  0
 19 18  1  0
 19 20  1  1
 20 21  1  0
 22 23  1  0
 22 21  1  0
 23 24  1  0
 25 19  1  0
 26 25  1  0
 27 25  2  0
M  END
$$$$
