QLK.pdb
     RDKit          3D

 27 26  0  0  1  0  0  0  0  0999 V2000
   19.3620  -13.4478  -20.5122 N   0  0  0  0  0  0  0  0  0  0  0  0
   18.8408  -12.1833  -20.1275 C   0  0  0  0  0  0  0  0  0  0  0  0
   19.4365  -11.1644  -20.5510 O   0  0  0  0  0  0  0  0  0  0  0  0
   17.6498  -12.0353  -19.2664 C   0  0  0  0  0  0  0  0  0  0  0  0
   17.9386  -10.9966  -18.2194 C   0  0  0  0  0  0  0  0  0  0  0  0
   18.7888  -11.5183  -17.0908 C   0  0  2  0  0  0  0  0  0  0  0  0
   17.9883  -12.3606  -16.2265 N   0  0  0  0  0  0  0  0  0  0  0  0
   19.3483  -10.3795  -16.2732 C   0  0  0  0  0  0  0  0  0  0  0  0
   18.6911   -9.9107  -15.3162 O   0  0  0  0  0  0  0  0  0  0  0  0
   24.5136  -10.3422  -14.5277 C   0  0  0  0  0  0  0  0  0  0  0  0
   23.0409  -10.0600  -14.5437 C   0  0  1  0  0  0  0  0  0  0  0  0
   22.6564   -9.7588  -13.0994 C   0  0  0  0  0  0  0  0  0  0  0  0
   22.5671   -9.0639  -15.5019 C   0  0  0  0  0  0  0  0  0  0  0  0
   21.1453   -8.7423  -15.6996 C   0  0  2  0  0  0  0  0  0  0  0  0
   20.6090   -9.8419  -16.5831 N   0  0  0  0  0  0  0  0  0  0  0  0
   20.8743   -7.5270  -16.4718 C   0  0  0  0  0  0  0  0  0  0  0  0
   21.2203   -7.5543  -17.7110 O   0  0  0  0  0  0  0  0  0  0  0  0
   20.2633   -6.3347  -16.0376 N   0  0  0  0  0  0  0  0  0  0  0  0
   19.9901   -5.2551  -16.9113 C   0  0  1  0  0  0  0  0  0  0  0  0
   18.7565   -4.4920  -16.8004 C   0  0  0  0  0  0  0  0  0  0  0  0
   17.5605   -4.7000  -17.6227 C   0  0  0  0  0  0  0  0  0  0  0  0
   16.5906   -5.7732  -17.3105 C   0  0  0  0  0  0  0  0  0  0  0  0
   15.4809   -5.9489  -18.2661 C   0  0  0  0  0  0  0  0  0  0  0  0
   14.6812   -7.1033  -17.7578 N   0  0  0  0  0  0  0  0  0  0  0  0
   21.1559   -4.2275  -16.8937 C   0  0  0  0  0  0  0  0  0  0  0  0
   21.8892   -4.0086  -18.0160 O   0  0  0  0  0  0  0  0  0  0  0  0
   21.3991   -3.6082  -15.8401 O   0  0  0  0  0  0  0  0  0  0  0  0
  2  4  1  0
  2  1  1  0
  3  2  2  0
  5  4  1  0
  6  5  1  0
  6  8  1  0
  6  7  1  1
  8 15  1  0
  9  8  2  0
 11 10  1  1
 11 12  1  0
 13 11  1  0
 14 13  1  6
 15 14  1  0
 16 14  1  0
 16 17  2  0
 18 16  1  0
 19 18  1  0
 19 20  1  1
 20 21  1  0
 22 23  1  0
 22 21  1  0
 23 24  1  0
 25 19  1  0
 26 25  1  0
 27 25  2  0
M  END
$$$$
