QLK.pdb
     RDKit          3D

 27 26  0  0  1  0  0  0  0  0999 V2000
   14.6919  -11.3637  -17.2612 N   0  0  0  0  0  0  0  0  0  0  0  0
   15.1740  -12.4227  -18.0765 C   0  0  0  0  0  0  0  0  0  0  0  0
   14.3477  -12.9860  -18.8331 O   0  0  0  0  0  0  0  0  0  0  0  0
   16.5818  -12.8696  -18.0609 C   0  0  0  0  0  0  0  0  0  0  0  0
   17.3402  -12.0378  -17.0653 C   0  0  0  0  0  0  0  0  0  0  0  0
   18.7967  -12.4108  -16.9739 C   0  0  2  0  0  0  0  0  0  0  0  0
   18.9266  -13.7278  -16.3857 N   0  0  0  0  0  0  0  0  0  0  0  0
   19.5483  -11.4219  -16.1164 C   0  0  0  0  0  0  0  0  0  0  0  0
   19.1776  -11.1997  -14.9414 O   0  0  0  0  0  0  0  0  0  0  0  0
   24.9735  -11.1838  -15.3197 C   0  0  0  0  0  0  0  0  0  0  0  0
   23.5176  -10.9739  -15.0278 C   0  0  1  0  0  0  0  0  0  0  0  0
   23.4318  -10.6427  -13.5420 C   0  0  0  0  0  0  0  0  0  0  0  0
   22.7982  -10.0350  -15.8856 C   0  0  0  0  0  0  0  0  0  0  0  0
   21.3627   -9.7460  -15.7449 C   0  0  2  0  0  0  0  0  0  0  0  0
   20.6673  -10.7476  -16.6338 N   0  0  0  0  0  0  0  0  0  0  0  0
   20.9228   -8.4558  -16.2821 C   0  0  0  0  0  0  0  0  0  0  0  0
   20.9303   -8.3437  -17.5640 O   0  0  0  0  0  0  0  0  0  0  0  0
   20.4714   -7.3240  -15.5758 N   0  0  0  0  0  0  0  0  0  0  0  0
   20.1238   -6.1118  -16.2186 C   0  0  1  0  0  0  0  0  0  0  0  0
   18.7783   -5.5678  -16.1201 C   0  0  0  0  0  0  0  0  0  0  0  0
   18.3035   -4.3644  -16.8104 C   0  0  0  0  0  0  0  0  0  0  0  0
   16.9184   -3.8742  -16.6351 C   0  0  0  0  0  0  0  0  0  0  0  0
   16.5500   -2.6690  -17.4015 C   0  0  0  0  0  0  0  0  0  0  0  0
   15.1333   -2.3684  -17.0369 N   0  0  0  0  0  0  0  0  0  0  0  0
   21.0988   -4.9739  -15.8063 C   0  0  0  0  0  0  0  0  0  0  0  0
   21.4692   -4.0316  -16.7120 O   0  0  0  0  0  0  0  0  0  0  0  0
   21.5258   -4.9390  -14.6363 O   0  0  0  0  0  0  0  0  0  0  0  0
  2  4  1  0
  2  1  1  0
  3  2  2  0
  5  4  1  0
  6  5  1  0
  6  8  1  0
  6  7  1  1
  8 15  1  0
  9  8  2  0
 11 10  1  6
 11 12  1  0
 13 11  1  0
 14 13  1  6
 15 14  1  0
 16 14  1  0
 16 17  2  0
 18 16  1  0
 19 18  1  0
 19 20  1  1
 20 21  1  0
 22 23  1  0
 22 21  1  0
 23 24  1  0
 25 19  1  0
 26 25  1  0
 27 25  2  0
M  END
$$$$
