QLK.pdb
     RDKit          3D

 27 26  0  0  1  0  0  0  0  0999 V2000
   29.3790  -18.1115  -17.7336 N   0  0  0  0  0  0  0  0  0  0  0  0
   27.9654  -18.2520  -17.7618 C   0  0  0  0  0  0  0  0  0  0  0  0
   27.2879  -17.3447  -17.2233 O   0  0  0  0  0  0  0  0  0  0  0  0
   27.2866  -19.4040  -18.3896 C   0  0  0  0  0  0  0  0  0  0  0  0
   26.4176  -20.0703  -17.3605 C   0  0  0  0  0  0  0  0  0  0  0  0
   27.2079  -20.7679  -16.2845 C   0  0  2  0  0  0  0  0  0  0  0  0
   27.8613  -21.9353  -16.8390 N   0  0  0  0  0  0  0  0  0  0  0  0
   26.3042  -21.2085  -15.1588 C   0  0  0  0  0  0  0  0  0  0  0  0
   25.5263  -22.1762  -15.3193 O   0  0  0  0  0  0  0  0  0  0  0  0
   25.2596  -21.9784   -9.6957 C   0  0  0  0  0  0  0  0  0  0  0  0
   25.3356  -20.6002  -10.2820 C   0  0  1  0  0  0  0  0  0  0  0  0
   25.9440  -19.7169   -9.1983 C   0  0  0  0  0  0  0  0  0  0  0  0
   25.9836  -20.4689  -11.5849 C   0  0  0  0  0  0  0  0  0  0  0  0
   25.4307  -21.0345  -12.8252 C   0  0  2  0  0  0  0  0  0  0  0  0
   26.3331  -20.5342  -13.9262 N   0  0  0  0  0  0  0  0  0  0  0  0
   24.1113  -20.5308  -13.2155 C   0  0  0  0  0  0  0  0  0  0  0  0
   24.0481  -19.2809  -13.5150 O   0  0  0  0  0  0  0  0  0  0  0  0
   22.9020  -21.2441  -13.3259 N   0  0  0  0  0  0  0  0  0  0  0  0
   21.6786  -20.6229  -13.6735 C   0  0  1  0  0  0  0  0  0  0  0  0
   21.0784  -20.8252  -14.9831 C   0  0  0  0  0  0  0  0  0  0  0  0
   19.7924  -20.2689  -15.4154 C   0  0  0  0  0  0  0  0  0  0  0  0
   19.2414  -20.5607  -16.7574 C   0  0  0  0  0  0  0  0  0  0  0  0
   17.9464  -19.9338  -17.0822 C   0  0  0  0  0  0  0  0  0  0  0  0
   17.5557  -20.4697  -18.4204 N   0  0  0  0  0  0  0  0  0  0  0  0
   20.5810  -20.9480  -12.6222 C   0  0  0  0  0  0  0  0  0  0  0  0
   20.5818  -22.1469  -11.9836 O   0  0  0  0  0  0  0  0  0  0  0  0
   19.7106  -20.0917  -12.3736 O   0  0  0  0  0  0  0  0  0  0  0  0
  2  4  1  0
  2  1  1  0
  3  2  2  0
  5  4  1  0
  6  5  1  0
  6  8  1  0
  6  7  1  6
  8 15  1  0
  9  8  2  0
 11 10  1  1
 11 12  1  0
 13 11  1  0
 14 13  1  1
 15 14  1  0
 16 14  1  0
 16 17  2  0
 18 16  1  0
 19 18  1  0
 19 20  1  6
 20 21  1  0
 22 23  1  0
 22 21  1  0
 23 24  1  0
 25 19  1  0
 26 25  1  0
 27 25  2  0
M  END
$$$$
