QLK.pdb
     RDKit          3D

 27 26  0  0  1  0  0  0  0  0999 V2000
   27.5895  -34.0731  -19.3766 N   0  0  0  0  0  0  0  0  0  0  0  0
   27.7910  -35.0799  -18.3947 C   0  0  0  0  0  0  0  0  0  0  0  0
   27.6054  -36.2692  -18.7460 O   0  0  0  0  0  0  0  0  0  0  0  0
   28.2017  -34.7771  -17.0084 C   0  0  0  0  0  0  0  0  0  0  0  0
   28.3211  -33.2869  -16.8561 C   0  0  0  0  0  0  0  0  0  0  0  0
   29.6910  -32.7669  -17.2050 C   0  0  2  0  0  0  0  0  0  0  0  0
   30.6409  -33.1778  -16.1920 N   0  0  0  0  0  0  0  0  0  0  0  0
   29.6867  -31.2595  -17.2809 C   0  0  0  0  0  0  0  0  0  0  0  0
   29.9674  -30.5784  -16.2686 O   0  0  0  0  0  0  0  0  0  0  0  0
   31.9999  -28.5895  -21.4214 C   0  0  0  0  0  0  0  0  0  0  0  0
   31.4907  -28.9974  -20.0711 C   0  0  1  0  0  0  0  0  0  0  0  0
   32.4207  -28.3410  -19.0568 C   0  0  0  0  0  0  0  0  0  0  0  0
   30.0717  -28.7754  -19.8028 C   0  0  0  0  0  0  0  0  0  0  0  0
   29.4278  -29.1078  -18.5227 C   0  0  2  0  0  0  0  0  0  0  0  0
   29.3679  -30.6152  -18.4883 N   0  0  0  0  0  0  0  0  0  0  0  0
   28.0224  -28.7116  -18.4012 C   0  0  0  0  0  0  0  0  0  0  0  0
   27.7971  -27.4493  -18.2925 O   0  0  0  0  0  0  0  0  0  0  0  0
   26.8795  -29.5345  -18.4085 N   0  0  0  0  0  0  0  0  0  0  0  0
   25.5666  -29.0182  -18.2934 C   0  0  1  0  0  0  0  0  0  0  0  0
   24.5747  -29.2482  -19.3324 C   0  0  0  0  0  0  0  0  0  0  0  0
   23.1841  -28.7856  -19.2867 C   0  0  0  0  0  0  0  0  0  0  0  0
   22.8455  -27.3532  -19.4396 C   0  0  0  0  0  0  0  0  0  0  0  0
   21.4149  -27.0066  -19.3467 C   0  0  0  0  0  0  0  0  0  0  0  0
   21.3385  -25.5270  -19.5343 N   0  0  0  0  0  0  0  0  0  0  0  0
   24.9200  -29.4596  -16.9508 C   0  0  0  0  0  0  0  0  0  0  0  0
   23.9632  -28.6905  -16.3691 O   0  0  0  0  0  0  0  0  0  0  0  0
   25.2888  -30.5276  -16.4254 O   0  0  0  0  0  0  0  0  0  0  0  0
  2  4  1  0
  2  1  1  0
  3  2  2  0
  5  4  1  0
  6  5  1  0
  6  8  1  0
  6  7  1  1
  8 15  1  0
  9  8  2  0
 11 10  1  6
 11 12  1  0
 13 11  1  0
 14 13  1  6
 15 14  1  0
 16 14  1  0
 16 17  2  0
 18 16  1  0
 19 18  1  0
 19 20  1  6
 20 21  1  0
 22 23  1  0
 22 21  1  0
 23 24  1  0
 25 19  1  0
 26 25  1  0
 27 25  2  0
M  END
$$$$
