QLK.pdb
     RDKit          3D

 27 26  0  0  1  0  0  0  0  0999 V2000
   20.5229  -27.7239  -19.1961 N   0  0  0  0  0  0  0  0  0  0  0  0
   20.9958  -26.4677  -18.7304 C   0  0  0  0  0  0  0  0  0  0  0  0
   20.1556  -25.5435  -18.6199 O   0  0  0  0  0  0  0  0  0  0  0  0
   22.4101  -26.2227  -18.3814 C   0  0  0  0  0  0  0  0  0  0  0  0
   23.1990  -27.4701  -18.6640 C   0  0  0  0  0  0  0  0  0  0  0  0
   23.1726  -28.4547  -17.5243 C   0  0  2  0  0  0  0  0  0  0  0  0
   23.6455  -27.8133  -16.3151 N   0  0  0  0  0  0  0  0  0  0  0  0
   24.0589  -29.6397  -17.8217 C   0  0  0  0  0  0  0  0  0  0  0  0
   23.9636  -30.2364  -18.9182 O   0  0  0  0  0  0  0  0  0  0  0  0
   28.8118  -31.9120  -18.3260 C   0  0  0  0  0  0  0  0  0  0  0  0
   28.3414  -31.8249  -16.9048 C   0  0  1  0  0  0  0  0  0  0  0  0
   29.5639  -31.4334  -16.0821 C   0  0  0  0  0  0  0  0  0  0  0  0
   27.1646  -30.9985  -16.6454 C   0  0  0  0  0  0  0  0  0  0  0  0
   25.8347  -31.2845  -17.2054 C   0  0  2  0  0  0  0  0  0  0  0  0
   24.9946  -30.0770  -16.8689 N   0  0  0  0  0  0  0  0  0  0  0  0
   25.1074  -32.3881  -16.5731 C   0  0  0  0  0  0  0  0  0  0  0  0
   25.3802  -33.5685  -17.0071 O   0  0  0  0  0  0  0  0  0  0  0  0
   24.1593  -32.3269  -15.5334 N   0  0  0  0  0  0  0  0  0  0  0  0
   23.6234  -33.4846  -14.9203 C   0  0  1  0  0  0  0  0  0  0  0  0
   23.6900  -33.6711  -13.4791 C   0  0  0  0  0  0  0  0  0  0  0  0
   23.1803  -34.8408  -12.7566 C   0  0  0  0  0  0  0  0  0  0  0  0
   23.2663  -34.9304  -11.2820 C   0  0  0  0  0  0  0  0  0  0  0  0
   22.7556  -36.1725  -10.6723 C   0  0  0  0  0  0  0  0  0  0  0  0
   23.0235  -36.0507   -9.2081 N   0  0  0  0  0  0  0  0  0  0  0  0
   22.1374  -33.6834  -15.3298 C   0  0  0  0  0  0  0  0  0  0  0  0
   21.4585  -32.6790  -15.9427 O   0  0  0  0  0  0  0  0  0  0  0  0
   21.5867  -34.7757  -15.0928 O   0  0  0  0  0  0  0  0  0  0  0  0
  2  4  1  0
  2  1  1  0
  3  2  2  0
  5  4  1  0
  6  5  1  0
  6  8  1  0
  6  7  1  1
  8 15  1  0
  9  8  2  0
 11 10  1  6
 11 12  1  0
 13 11  1  0
 14 13  1  1
 15 14  1  0
 16 14  1  0
 16 17  2  0
 18 16  1  0
 19 18  1  0
 19 20  1  1
 20 21  1  0
 22 23  1  0
 22 21  1  0
 23 24  1  0
 25 19  1  0
 26 25  1  0
 27 25  2  0
M  END
$$$$
