QLK.pdb
     RDKit          3D

 27 26  0  0  1  0  0  0  0  0999 V2000
   26.0733  -17.9800  -16.4815 N   0  0  0  0  0  0  0  0  0  0  0  0
   27.4913  -18.0679  -16.4944 C   0  0  0  0  0  0  0  0  0  0  0  0
   28.1007  -17.3841  -17.3508 O   0  0  0  0  0  0  0  0  0  0  0  0
   28.2506  -18.9178  -15.5546 C   0  0  0  0  0  0  0  0  0  0  0  0
   27.2829  -19.5807  -14.6153 C   0  0  0  0  0  0  0  0  0  0  0  0
   27.9638  -20.3251  -13.4967 C   0  0  2  0  0  0  0  0  0  0  0  0
   28.7139  -21.4392  -14.0384 N   0  0  0  0  0  0  0  0  0  0  0  0
   26.9491  -20.8574  -12.5142 C   0  0  0  0  0  0  0  0  0  0  0  0
   26.3534  -21.9336  -12.7468 O   0  0  0  0  0  0  0  0  0  0  0  0
   27.0197  -19.3140   -7.0188 C   0  0  0  0  0  0  0  0  0  0  0  0
   26.9427  -20.1924   -8.2318 C   0  0  1  0  0  0  0  0  0  0  0  0
   27.0645  -21.6238   -7.7209 C   0  0  0  0  0  0  0  0  0  0  0  0
   25.8125  -19.9803   -9.1332 C   0  0  0  0  0  0  0  0  0  0  0  0
   25.6343  -20.7146  -10.3953 C   0  0  2  0  0  0  0  0  0  0  0  0
   26.6700  -20.1468  -11.3344 N   0  0  0  0  0  0  0  0  0  0  0  0
   24.3717  -20.4676  -11.0966 C   0  0  0  0  0  0  0  0  0  0  0  0
   24.2005  -19.2764  -11.5523 O   0  0  0  0  0  0  0  0  0  0  0  0
   23.3251  -21.3737  -11.3558 N   0  0  0  0  0  0  0  0  0  0  0  0
   22.1856  -21.0251  -12.1196 C   0  0  1  0  0  0  0  0  0  0  0  0
   21.7141  -21.8789  -13.1989 C   0  0  0  0  0  0  0  0  0  0  0  0
   20.5621  -21.5909  -14.0590 C   0  0  0  0  0  0  0  0  0  0  0  0
   20.1157  -22.5513  -15.0924 C   0  0  0  0  0  0  0  0  0  0  0  0
   18.9405  -22.1533  -15.8900 C   0  0  0  0  0  0  0  0  0  0  0  0
   18.7451  -23.2357  -16.9003 N   0  0  0  0  0  0  0  0  0  0  0  0
   20.9661  -20.7584  -11.1936 C   0  0  0  0  0  0  0  0  0  0  0  0
   19.8854  -20.0846  -11.6661 O   0  0  0  0  0  0  0  0  0  0  0  0
   20.9959  -21.1770  -10.0204 O   0  0  0  0  0  0  0  0  0  0  0  0
  2  4  1  0
  2  1  1  0
  3  2  2  0
  5  4  1  0
  6  5  1  0
  6  8  1  0
  6  7  1  6
  8 15  1  0
  9  8  2  0
 11 10  1  1
 11 12  1  0
 13 11  1  0
 14 13  1  1
 15 14  1  0
 16 14  1  0
 16 17  2  0
 18 16  1  0
 19 18  1  0
 19 20  1  6
 20 21  1  0
 22 23  1  0
 22 21  1  0
 23 24  1  0
 25 19  1  0
 26 25  1  0
 27 25  2  0
M  END
$$$$
