QLK.pdb
     RDKit          3D

 27 26  0  0  1  0  0  0  0  0999 V2000
   18.8325  -20.0698   -7.3313 N   0  0  0  0  0  0  0  0  0  0  0  0
   18.9849  -21.4208   -6.9189 C   0  0  0  0  0  0  0  0  0  0  0  0
   18.0794  -21.9069   -6.2003 O   0  0  0  0  0  0  0  0  0  0  0  0
   20.1467  -22.2494   -7.3003 C   0  0  0  0  0  0  0  0  0  0  0  0
   21.0901  -21.4102   -8.1152 C   0  0  0  0  0  0  0  0  0  0  0  0
   22.3320  -22.1545   -8.5304 C   0  0  2  0  0  0  0  0  0  0  0  0
   22.8664  -22.8813   -7.3974 N   0  0  0  0  0  0  0  0  0  0  0  0
   23.3859  -21.1972   -9.0315 C   0  0  0  0  0  0  0  0  0  0  0  0
   23.0636  -20.2354   -9.7652 O   0  0  0  0  0  0  0  0  0  0  0  0
   28.1160  -19.9508   -6.1407 C   0  0  0  0  0  0  0  0  0  0  0  0
   26.9266  -19.7210   -7.0246 C   0  0  1  0  0  0  0  0  0  0  0  0
   26.8196  -18.2101   -7.1986 C   0  0  0  0  0  0  0  0  0  0  0  0
   26.8805  -20.4658   -8.2808 C   0  0  0  0  0  0  0  0  0  0  0  0
   25.7475  -20.4053   -9.2172 C   0  0  2  0  0  0  0  0  0  0  0  0
   24.7328  -21.3820   -8.6757 N   0  0  0  0  0  0  0  0  0  0  0  0
   26.0156  -20.9105  -10.5661 C   0  0  0  0  0  0  0  0  0  0  0  0
   26.3014  -22.1620  -10.6558 O   0  0  0  0  0  0  0  0  0  0  0  0
   25.9810  -20.2062  -11.7852 N   0  0  0  0  0  0  0  0  0  0  0  0
   26.0559  -20.8524  -13.0423 C   0  0  1  0  0  0  0  0  0  0  0  0
   25.0447  -20.6285  -14.0639 C   0  0  0  0  0  0  0  0  0  0  0  0
   25.0174  -21.2772  -15.3786 C   0  0  0  0  0  0  0  0  0  0  0  0
   23.9537  -20.9756  -16.3621 C   0  0  0  0  0  0  0  0  0  0  0  0
   23.9848  -21.7512  -17.6163 C   0  0  0  0  0  0  0  0  0  0  0  0
   22.8371  -21.2555  -18.4334 N   0  0  0  0  0  0  0  0  0  0  0  0
   27.4343  -20.5917  -13.7111 C   0  0  0  0  0  0  0  0  0  0  0  0
   27.8948  -21.4314  -14.6745 O   0  0  0  0  0  0  0  0  0  0  0  0
   28.1011  -19.6015  -13.3540 O   0  0  0  0  0  0  0  0  0  0  0  0
  2  4  1  0
  2  1  1  0
  3  2  2  0
  5  4  1  0
  6  5  1  0
  6  8  1  0
  6  7  1  1
  8 15  1  0
  9  8  2  0
 11 10  1  6
 11 12  1  0
 13 11  1  0
 14 13  1  1
 15 14  1  0
 16 14  1  0
 16 17  2  0
 18 16  1  0
 19 18  1  0
 19 20  1  6
 20 21  1  0
 22 23  1  0
 22 21  1  0
 23 24  1  0
 25 19  1  0
 26 25  1  0
 27 25  2  0
M  END
$$$$
