QLK.pdb
     RDKit          3D

 27 26  0  0  1  0  0  0  0  0999 V2000
   18.8043  -15.7736  -16.1042 N   0  0  0  0  0  0  0  0  0  0  0  0
   19.0298  -15.7873  -17.5069 C   0  0  0  0  0  0  0  0  0  0  0  0
   18.3508  -16.5909  -18.1893 O   0  0  0  0  0  0  0  0  0  0  0  0
   20.0140  -14.9073  -18.1695 C   0  0  0  0  0  0  0  0  0  0  0  0
   20.6507  -14.0284  -17.1301 C   0  0  0  0  0  0  0  0  0  0  0  0
   20.7691  -12.5914  -17.5659 C   0  0  2  0  0  0  0  0  0  0  0  0
   21.3631  -12.5297  -18.8853 N   0  0  0  0  0  0  0  0  0  0  0  0
   21.6373  -11.8126  -16.6078 C   0  0  0  0  0  0  0  0  0  0  0  0
   21.4117  -11.8569  -15.3772 O   0  0  0  0  0  0  0  0  0  0  0  0
   26.4286  -10.5944  -14.4262 C   0  0  0  0  0  0  0  0  0  0  0  0
   26.1898  -10.2586  -15.8682 C   0  0  1  0  0  0  0  0  0  0  0  0
   27.4718  -10.6335  -16.6034 C   0  0  0  0  0  0  0  0  0  0  0  0
   24.9774  -10.7955  -16.4819 C   0  0  0  0  0  0  0  0  0  0  0  0
   23.6206  -10.3860  -16.0878 C   0  0  2  0  0  0  0  0  0  0  0  0
   22.7023  -11.0354  -17.0939 N   0  0  0  0  0  0  0  0  0  0  0  0
   23.3246   -8.9585  -16.2333 C   0  0  0  0  0  0  0  0  0  0  0  0
   23.7224   -8.1970  -15.2752 O   0  0  0  0  0  0  0  0  0  0  0  0
   22.6766   -8.3053  -17.2996 N   0  0  0  0  0  0  0  0  0  0  0  0
   21.3741   -7.7635  -17.1842 C   0  0  1  0  0  0  0  0  0  0  0  0
   20.1989   -8.6206  -17.2040 C   0  0  0  0  0  0  0  0  0  0  0  0
   18.8134   -8.1534  -17.0944 C   0  0  0  0  0  0  0  0  0  0  0  0
   17.6766   -9.0986  -17.1579 C   0  0  0  0  0  0  0  0  0  0  0  0
   16.3354   -8.5222  -16.9469 C   0  0  0  0  0  0  0  0  0  0  0  0
   15.3652   -9.5984  -17.3088 N   0  0  0  0  0  0  0  0  0  0  0  0
   21.2605   -6.8763  -15.9131 C   0  0  0  0  0  0  0  0  0  0  0  0
   21.2219   -7.4497  -14.6823 O   0  0  0  0  0  0  0  0  0  0  0  0
   21.2123   -5.6380  -16.0435 O   0  0  0  0  0  0  0  0  0  0  0  0
  2  4  1  0
  2  1  1  0
  3  2  2  0
  5  4  1  0
  6  5  1  0
  6  8  1  0
  6  7  1  6
  8 15  1  0
  9  8  2  0
 11 10  1  1
 11 12  1  0
 13 11  1  0
 14 13  1  6
 15 14  1  0
 16 14  1  0
 16 17  2  0
 18 16  1  0
 19 18  1  0
 19 20  1  1
 20 21  1  0
 22 23  1  0
 22 21  1  0
 23 24  1  0
 25 19  1  0
 26 25  1  0
 27 25  2  0
M  END
$$$$
