QLK.pdb
     RDKit          3D

 27 26  0  0  1  0  0  0  0  0999 V2000
   22.1206  -25.2082  -13.6238 N   0  0  0  0  0  0  0  0  0  0  0  0
   21.2609  -24.0822  -13.5153 C   0  0  0  0  0  0  0  0  0  0  0  0
   20.7012  -23.8923  -12.4093 O   0  0  0  0  0  0  0  0  0  0  0  0
   21.0122  -23.1522  -14.6357 C   0  0  0  0  0  0  0  0  0  0  0  0
   22.1478  -22.1706  -14.7080 C   0  0  0  0  0  0  0  0  0  0  0  0
   22.2578  -21.3055  -13.4798 C   0  0  2  0  0  0  0  0  0  0  0  0
   21.2134  -20.3023  -13.4951 N   0  0  0  0  0  0  0  0  0  0  0  0
   23.5963  -20.6094  -13.4351 C   0  0  0  0  0  0  0  0  0  0  0  0
   23.7690  -19.5384  -14.0600 O   0  0  0  0  0  0  0  0  0  0  0  0
   28.9990  -19.7930  -12.0253 C   0  0  0  0  0  0  0  0  0  0  0  0
   28.2756  -21.0678  -11.7083 C   0  0  1  0  0  0  0  0  0  0  0  0
   28.8552  -21.5610  -10.3871 C   0  0  0  0  0  0  0  0  0  0  0  0
   26.8153  -21.0256  -11.7344 C   0  0  0  0  0  0  0  0  0  0  0  0
   26.0382  -20.6026  -12.9096 C   0  0  2  0  0  0  0  0  0  0  0  0
   24.6534  -21.1610  -12.6914 N   0  0  0  0  0  0  0  0  0  0  0  0
   26.4455  -21.1997  -14.1842 C   0  0  0  0  0  0  0  0  0  0  0  0
   26.2833  -22.4718  -14.2913 O   0  0  0  0  0  0  0  0  0  0  0  0
   26.9749  -20.5568  -15.3199 N   0  0  0  0  0  0  0  0  0  0  0  0
   27.2510  -21.2436  -16.5263 C   0  0  1  0  0  0  0  0  0  0  0  0
   26.2965  -22.1854  -17.0905 C   0  0  0  0  0  0  0  0  0  0  0  0
   26.4306  -22.8410  -18.3951 C   0  0  0  0  0  0  0  0  0  0  0  0
   25.3543  -23.6993  -18.9378 C   0  0  0  0  0  0  0  0  0  0  0  0
   25.5782  -24.2539  -20.2861 C   0  0  0  0  0  0  0  0  0  0  0  0
   24.4252  -25.1653  -20.5512 N   0  0  0  0  0  0  0  0  0  0  0  0
   27.6132  -20.2408  -17.6571 C   0  0  0  0  0  0  0  0  0  0  0  0
   27.2944  -18.9264  -17.5311 O   0  0  0  0  0  0  0  0  0  0  0  0
   28.2030  -20.6614  -18.6710 O   0  0  0  0  0  0  0  0  0  0  0  0
  2  4  1  0
  2  1  1  0
  3  2  2  0
  5  4  1  0
  6  5  1  0
  6  8  1  0
  6  7  1  6
  8 15  1  0
  9  8  2  0
 11 10  1  1
 11 12  1  0
 13 11  1  0
 14 13  1  1
 15 14  1  0
 16 14  1  0
 16 17  2  0
 18 16  1  0
 19 18  1  0
 19 20  1  6
 20 21  1  0
 22 23  1  0
 22 21  1  0
 23 24  1  0
 25 19  1  0
 26 25  1  0
 27 25  2  0
M  END
$$$$
