QLK.pdb
     RDKit          3D

 27 26  0  0  1  0  0  0  0  0999 V2000
   21.5242  -13.8668  -21.2904 N   0  0  0  0  0  0  0  0  0  0  0  0
   20.4565  -14.7954  -21.4174 C   0  0  0  0  0  0  0  0  0  0  0  0
   20.2664  -15.2997  -22.5497 O   0  0  0  0  0  0  0  0  0  0  0  0
   19.5856  -15.1756  -20.2865 C   0  0  0  0  0  0  0  0  0  0  0  0
   20.0263  -14.4205  -19.0643 C   0  0  0  0  0  0  0  0  0  0  0  0
   21.0708  -15.1533  -18.2637 C   0  0  2  0  0  0  0  0  0  0  0  0
   20.5018  -16.3670  -17.7154 N   0  0  0  0  0  0  0  0  0  0  0  0
   21.5701  -14.2964  -17.1259 C   0  0  0  0  0  0  0  0  0  0  0  0
   20.9071  -14.2080  -16.0677 O   0  0  0  0  0  0  0  0  0  0  0  0
   27.0182  -13.8329  -16.1401 C   0  0  0  0  0  0  0  0  0  0  0  0
   25.5425  -13.9677  -15.9100 C   0  0  1  0  0  0  0  0  0  0  0  0
   25.3882  -14.5397  -14.5051 C   0  0  0  0  0  0  0  0  0  0  0  0
   24.7217  -12.7852  -16.1606 C   0  0  0  0  0  0  0  0  0  0  0  0
   23.2536  -12.7840  -16.0688 C   0  0  2  0  0  0  0  0  0  0  0  0
   22.7815  -13.5951  -17.2504 N   0  0  0  0  0  0  0  0  0  0  0  0
   22.6092  -11.4841  -16.2730 C   0  0  0  0  0  0  0  0  0  0  0  0
   22.6736  -11.0009  -17.4640 O   0  0  0  0  0  0  0  0  0  0  0  0
   21.9078  -10.7004  -15.3363 N   0  0  0  0  0  0  0  0  0  0  0  0
   21.3188   -9.4574  -15.6700 C   0  0  1  0  0  0  0  0  0  0  0  0
   19.8782   -9.2663  -15.6036 C   0  0  0  0  0  0  0  0  0  0  0  0
   19.1802   -8.0116  -15.9012 C   0  0  0  0  0  0  0  0  0  0  0  0
   17.7083   -7.9065  -15.7908 C   0  0  0  0  0  0  0  0  0  0  0  0
   17.1104   -6.6295  -16.2235 C   0  0  0  0  0  0  0  0  0  0  0  0
   17.1228   -6.6561  -17.7167 N   0  0  0  0  0  0  0  0  0  0  0  0
   21.9620   -8.3075  -14.8457 C   0  0  0  0  0  0  0  0  0  0  0  0
   21.8294   -7.0187  -15.2540 O   0  0  0  0  0  0  0  0  0  0  0  0
   22.5913   -8.5877  -13.8074 O   0  0  0  0  0  0  0  0  0  0  0  0
  2  4  1  0
  2  1  1  0
  3  2  2  0
  5  4  1  0
  6  5  1  0
  6  8  1  0
  6  7  1  1
  8 15  1  0
  9  8  2  0
 11 10  1  1
 11 12  1  0
 13 11  1  0
 14 13  1  6
 15 14  1  0
 16 14  1  0
 16 17  2  0
 18 16  1  0
 19 18  1  0
 19 20  1  1
 20 21  1  0
 22 23  1  0
 22 21  1  0
 23 24  1  0
 25 19  1  0
 26 25  1  0
 27 25  2  0
M  END
$$$$
