QLK.pdb
     RDKit          3D

 27 26  0  0  1  0  0  0  0  0999 V2000
   26.6586  -17.5402  -19.5156 N   0  0  0  0  0  0  0  0  0  0  0  0
   25.9917  -16.4522  -18.8911 C   0  0  0  0  0  0  0  0  0  0  0  0
   26.2738  -15.2988  -19.2943 O   0  0  0  0  0  0  0  0  0  0  0  0
   25.0020  -16.6326  -17.8095 C   0  0  0  0  0  0  0  0  0  0  0  0
   24.7685  -18.1037  -17.6107 C   0  0  0  0  0  0  0  0  0  0  0  0
   25.8729  -18.7764  -16.8382 C   0  0  2  0  0  0  0  0  0  0  0  0
   26.7620  -19.4602  -17.7543 N   0  0  0  0  0  0  0  0  0  0  0  0
   25.3080  -19.7858  -15.8685 C   0  0  0  0  0  0  0  0  0  0  0  0
   24.9014  -20.8954  -16.2820 O   0  0  0  0  0  0  0  0  0  0  0  0
   25.7549  -22.3324  -10.9472 C   0  0  0  0  0  0  0  0  0  0  0  0
   25.1630  -20.9562  -11.0169 C   0  0  1  0  0  0  0  0  0  0  0  0
   25.6248  -20.2372   -9.7542 C   0  0  0  0  0  0  0  0  0  0  0  0
   25.3896  -20.1985  -12.2454 C   0  0  0  0  0  0  0  0  0  0  0  0
   24.8337  -20.5870  -13.5508 C   0  0  2  0  0  0  0  0  0  0  0  0
   25.2371  -19.4838  -14.4980 N   0  0  0  0  0  0  0  0  0  0  0  0
   23.3711  -20.5890  -13.6388 C   0  0  0  0  0  0  0  0  0  0  0  0
   22.7895  -19.4602  -13.4301 O   0  0  0  0  0  0  0  0  0  0  0  0
   22.5162  -21.6659  -13.9436 N   0  0  0  0  0  0  0  0  0  0  0  0
   21.1078  -21.5331  -13.9890 C   0  0  1  0  0  0  0  0  0  0  0  0
   20.2866  -22.4821  -14.7245 C   0  0  0  0  0  0  0  0  0  0  0  0
   18.8214  -22.4636  -14.7786 C   0  0  0  0  0  0  0  0  0  0  0  0
   18.1018  -21.7889  -15.8817 C   0  0  0  0  0  0  0  0  0  0  0  0
   16.6290  -21.8547  -15.8374 C   0  0  0  0  0  0  0  0  0  0  0  0
   16.1498  -21.1390  -17.0575 N   0  0  0  0  0  0  0  0  0  0  0  0
   20.5189  -21.4491  -12.5531 C   0  0  0  0  0  0  0  0  0  0  0  0
   19.5129  -20.5786  -12.2783 O   0  0  0  0  0  0  0  0  0  0  0  0
   20.9793  -22.1946  -11.6672 O   0  0  0  0  0  0  0  0  0  0  0  0
  2  4  1  0
  2  1  1  0
  3  2  2  0
  5  4  1  0
  6  5  1  0
  6  8  1  0
  6  7  1  6
  8 15  1  0
  9  8  2  0
 11 10  1  6
 11 12  1  0
 13 11  1  0
 14 13  1  1
 15 14  1  0
 16 14  1  0
 16 17  2  0
 18 16  1  0
 19 18  1  0
 19 20  1  1
 20 21  1  0
 22 23  1  0
 22 21  1  0
 23 24  1  0
 25 19  1  0
 26 25  1  0
 27 25  2  0
M  END
$$$$
