QLK.pdb
     RDKit          3D

 27 26  0  0  1  0  0  0  0  0999 V2000
   23.4699  -22.8661  -13.9849 N   0  0  0  0  0  0  0  0  0  0  0  0
   24.2710  -23.7177  -13.1776 C   0  0  0  0  0  0  0  0  0  0  0  0
   24.1113  -24.9539  -13.3137 O   0  0  0  0  0  0  0  0  0  0  0  0
   25.2606  -23.2054  -12.2080 C   0  0  0  0  0  0  0  0  0  0  0  0
   25.2755  -21.7046  -12.2824 C   0  0  0  0  0  0  0  0  0  0  0  0
   25.4734  -21.1860  -13.6827 C   0  0  2  0  0  0  0  0  0  0  0  0
   26.6962  -21.7304  -14.2357 N   0  0  0  0  0  0  0  0  0  0  0  0
   25.5699  -19.6798  -13.6857 C   0  0  0  0  0  0  0  0  0  0  0  0
   25.5265  -19.0450  -12.6075 O   0  0  0  0  0  0  0  0  0  0  0  0
   26.6709  -14.5559  -15.0739 C   0  0  0  0  0  0  0  0  0  0  0  0
   26.2812  -15.4774  -16.1910 C   0  0  1  0  0  0  0  0  0  0  0  0
   27.1709  -15.1042  -17.3716 C   0  0  0  0  0  0  0  0  0  0  0  0
   26.2615  -16.9079  -15.8942 C   0  0  0  0  0  0  0  0  0  0  0  0
   25.3442  -17.5206  -14.9210 C   0  0  2  0  0  0  0  0  0  0  0  0
   25.7093  -18.9846  -14.8990 N   0  0  0  0  0  0  0  0  0  0  0  0
   23.9305  -17.5314  -15.3060 C   0  0  0  0  0  0  0  0  0  0  0  0
   23.3104  -16.4074  -15.2160 O   0  0  0  0  0  0  0  0  0  0  0  0
   23.1637  -18.6120  -15.7833 N   0  0  0  0  0  0  0  0  0  0  0  0
   21.7897  -18.4912  -16.1011 C   0  0  1  0  0  0  0  0  0  0  0  0
   21.2994  -18.7824  -17.4394 C   0  0  0  0  0  0  0  0  0  0  0  0
   19.8958  -18.7083  -17.8569 C   0  0  0  0  0  0  0  0  0  0  0  0
   19.4844  -19.0601  -19.2342 C   0  0  0  0  0  0  0  0  0  0  0  0
   18.0688  -18.8225  -19.5738 C   0  0  0  0  0  0  0  0  0  0  0  0
   17.8754  -19.3873  -20.9428 N   0  0  0  0  0  0  0  0  0  0  0  0
   20.9241  -19.3246  -15.1153 C   0  0  0  0  0  0  0  0  0  0  0  0
   21.4949  -20.3034  -14.3661 O   0  0  0  0  0  0  0  0  0  0  0  0
   19.7069  -19.0751  -15.0214 O   0  0  0  0  0  0  0  0  0  0  0  0
  2  4  1  0
  2  1  1  0
  3  2  2  0
  5  4  1  0
  6  5  1  0
  6  8  1  0
  6  7  1  1
  8 15  1  0
  9  8  2  0
 11 10  1  1
 11 12  1  0
 13 11  1  0
 14 13  1  6
 15 14  1  0
 16 14  1  0
 16 17  2  0
 18 16  1  0
 19 18  1  0
 19 20  1  6
 20 21  1  0
 22 23  1  0
 22 21  1  0
 23 24  1  0
 25 19  1  0
 26 25  1  0
 27 25  2  0
M  END
$$$$
