QLK.pdb
     RDKit          3D

 27 26  0  0  1  0  0  0  0  0999 V2000
   25.3575  -18.1839  -17.8616 N   0  0  0  0  0  0  0  0  0  0  0  0
   26.7692  -18.0300  -17.9067 C   0  0  0  0  0  0  0  0  0  0  0  0
   27.2318  -17.2243  -18.7489 O   0  0  0  0  0  0  0  0  0  0  0  0
   27.6854  -18.7703  -17.0153 C   0  0  0  0  0  0  0  0  0  0  0  0
   26.8687  -19.5236  -16.0035 C   0  0  0  0  0  0  0  0  0  0  0  0
   27.7116  -20.3067  -15.0312 C   0  0  2  0  0  0  0  0  0  0  0  0
   28.4143  -21.3603  -15.7338 N   0  0  0  0  0  0  0  0  0  0  0  0
   26.8506  -20.9306  -13.9599 C   0  0  0  0  0  0  0  0  0  0  0  0
   26.2059  -21.9762  -14.2015 O   0  0  0  0  0  0  0  0  0  0  0  0
   25.4519  -22.0207   -8.5741 C   0  0  0  0  0  0  0  0  0  0  0  0
   25.5551  -20.6312   -9.1285 C   0  0  1  0  0  0  0  0  0  0  0  0
   26.0512  -19.7581   -7.9813 C   0  0  0  0  0  0  0  0  0  0  0  0
   26.3120  -20.4663  -10.3674 C   0  0  0  0  0  0  0  0  0  0  0  0
   25.8551  -20.9756  -11.6696 C   0  0  2  0  0  0  0  0  0  0  0  0
   26.7701  -20.3401  -12.6874 N   0  0  0  0  0  0  0  0  0  0  0  0
   24.5235  -20.5312  -12.0894 C   0  0  0  0  0  0  0  0  0  0  0  0
   24.4593  -19.3639  -12.6273 O   0  0  0  0  0  0  0  0  0  0  0  0
   23.3021  -21.2266  -11.9990 N   0  0  0  0  0  0  0  0  0  0  0  0
   22.1287  -20.7978  -12.6642 C   0  0  1  0  0  0  0  0  0  0  0  0
   21.7933  -21.2921  -13.9906 C   0  0  0  0  0  0  0  0  0  0  0  0
   20.6030  -20.9089  -14.7564 C   0  0  0  0  0  0  0  0  0  0  0  0
   20.3575  -21.4446  -16.1138 C   0  0  0  0  0  0  0  0  0  0  0  0
   19.1233  -20.9906  -16.7818 C   0  0  0  0  0  0  0  0  0  0  0  0
   19.1131  -21.6547  -18.1194 N   0  0  0  0  0  0  0  0  0  0  0  0
   20.8777  -21.0268  -11.7709 C   0  0  0  0  0  0  0  0  0  0  0  0
   20.9421  -21.8745  -10.7114 O   0  0  0  0  0  0  0  0  0  0  0  0
   19.8244  -20.4176  -12.0393 O   0  0  0  0  0  0  0  0  0  0  0  0
  2  4  1  0
  2  1  1  0
  3  2  2  0
  5  4  1  0
  6  5  1  0
  6  8  1  0
  6  7  1  6
  8 15  1  0
  9  8  2  0
 11 10  1  1
 11 12  1  0
 13 11  1  0
 14 13  1  1
 15 14  1  0
 16 14  1  0
 16 17  2  0
 18 16  1  0
 19 18  1  0
 19 20  1  6
 20 21  1  0
 22 23  1  0
 22 21  1  0
 23 24  1  0
 25 19  1  0
 26 25  1  0
 27 25  2  0
M  END
$$$$
