MGY.pdb
     RDKit          3D

 25 25  0  0  1  0  0  0  0  0999 V2000
    9.0608  -18.2187   15.4574 C   0  0  0  0  0  0  0  0  0  0  0  0
    7.4532  -18.9683   15.8413 S   0  0  0  0  0  0  0  0  0  0  0  0
    7.4320  -19.2228   17.6675 C   0  0  0  0  0  0  0  0  0  0  0  0
    8.0534  -18.0087   18.2493 C   0  0  0  0  0  0  0  0  0  0  0  0
    8.2301  -17.9658   19.7256 C   0  0  2  0  0  0  0  0  0  0  0  0
    6.8637  -18.0561   20.2877 N   0  0  0  0  0  0  0  0  0  0  0  0
    8.8215  -16.7630   20.2902 C   0  0  0  0  0  0  0  0  0  0  0  0
   10.0457  -16.4891   20.2354 O   0  0  0  0  0  0  0  0  0  0  0  0
    7.9800  -15.8263   20.9470 N   0  0  0  0  0  0  0  0  0  0  0  0
    8.5001  -14.5934   21.4164 C   0  0  0  0  0  0  0  0  0  0  0  0
    9.0293  -14.5972   22.7997 C   0  0  0  0  0  0  0  0  0  0  0  0
    9.5271  -13.5017   23.2501 O   0  0  0  0  0  0  0  0  0  0  0  0
    5.1543  -11.2039   26.6047 O   0  0  0  0  0  0  0  0  0  0  0  0
    6.0180  -12.2726   26.4971 C   0  0  0  0  0  0  0  0  0  0  0  0
    5.6282  -13.3991   25.8148 C   0  0  0  0  0  0  0  0  0  0  0  0
    6.4797  -14.4967   25.6889 C   0  0  0  0  0  0  0  0  0  0  0  0
    7.7398  -14.4876   26.2448 C   0  0  0  0  0  0  0  0  0  0  0  0
    8.6406  -15.6500   26.1111 C   0  0  0  0  0  0  0  0  0  0  0  0
    9.6541  -15.5463   25.0220 C   0  0  2  0  0  0  0  0  0  0  0  0
    9.0519  -15.6857   23.6873 N   0  0  0  0  0  0  0  0  0  0  0  0
   10.6669  -16.6119   25.2197 C   0  0  0  0  0  0  0  0  0  0  0  0
   10.7981  -17.5913   24.2667 O   0  0  0  0  0  0  0  0  0  0  0  0
    8.1204  -13.3616   26.9224 C   0  0  0  0  0  0  0  0  0  0  0  0
    7.2761  -12.2555   27.0553 C   0  0  0  0  0  0  0  0  0  0  0  0
   11.3895  -16.6246   26.2306 O   0  0  0  0  0  0  0  0  0  0  0  0
  2  1  1  0
  3  2  1  0
  3  4  1  0
  5  4  1  0
  5  6  1  1
  7  5  1  0
  7  9  1  0
  8  7  2  0
 10 11  1  0
 10  9  1  0
 11 12  2  0
 14 13  1  0
 15 14  2  0
 16 15  1  0
 17 16  2  0
 17 23  1  0
 18 17  1  0
 19 18  1  1
 20 19  1  0
 20 11  1  0
 21 22  1  0
 21 19  1  0
 23 24  2  0
 24 14  1  0
 25 21  2  0
M  END
$$$$
