MGY.pdb
     RDKit          3D

 25 25  0  0  1  0  0  0  0  0999 V2000
    4.9421  -12.5664   25.3524 C   0  0  0  0  0  0  0  0  0  0  0  0
    6.5411  -12.9081   24.5651 S   0  0  0  0  0  0  0  0  0  0  0  0
    6.1880  -14.0664   23.1744 C   0  0  0  0  0  0  0  0  0  0  0  0
    7.4082  -14.0662   22.3320 C   0  0  0  0  0  0  0  0  0  0  0  0
    7.9251  -15.3818   21.8687 C   0  0  2  0  0  0  0  0  0  0  0  0
    7.2861  -16.3867   22.7478 N   0  0  0  0  0  0  0  0  0  0  0  0
    9.3583  -15.6070   21.9713 C   0  0  0  0  0  0  0  0  0  0  0  0
   10.2281  -14.7809   21.6000 O   0  0  0  0  0  0  0  0  0  0  0  0
    9.8243  -16.8294   22.5241 N   0  0  0  0  0  0  0  0  0  0  0  0
   11.1915  -16.9942   22.8623 C   0  0  0  0  0  0  0  0  0  0  0  0
   11.4819  -17.2231   24.2965 C   0  0  0  0  0  0  0  0  0  0  0  0
   12.7142  -17.2375   24.6598 O   0  0  0  0  0  0  0  0  0  0  0  0
   10.3448  -11.6549   28.2973 O   0  0  0  0  0  0  0  0  0  0  0  0
   10.3141  -13.0270   28.1706 C   0  0  0  0  0  0  0  0  0  0  0  0
    9.1993  -13.6398   27.6527 C   0  0  0  0  0  0  0  0  0  0  0  0
    9.1382  -15.0262   27.5122 C   0  0  0  0  0  0  0  0  0  0  0  0
   10.1937  -15.8271   27.8884 C   0  0  0  0  0  0  0  0  0  0  0  0
   10.1283  -17.2947   27.7394 C   0  0  0  0  0  0  0  0  0  0  0  0
   10.9831  -17.8621   26.6571 C   0  0  2  0  0  0  0  0  0  0  0  0
   10.5435  -17.4346   25.3201 N   0  0  0  0  0  0  0  0  0  0  0  0
   10.9301  -19.3420   26.7438 C   0  0  0  0  0  0  0  0  0  0  0  0
   11.3247  -19.9556   27.9068 O   0  0  0  0  0  0  0  0  0  0  0  0
   11.3005  -15.2087   28.4030 C   0  0  0  0  0  0  0  0  0  0  0  0
   11.3735  -13.8204   28.5486 C   0  0  0  0  0  0  0  0  0  0  0  0
   10.5354  -20.0231   25.7823 O   0  0  0  0  0  0  0  0  0  0  0  0
  2  1  1  0
  3  2  1  0
  3  4  1  0
  5  4  1  0
  5  6  1  1
  7  5  1  0
  7  9  1  0
  8  7  2  0
 10 11  1  0
 10  9  1  0
 11 12  2  0
 14 13  1  0
 15 14  2  0
 16 15  1  0
 17 16  2  0
 17 23  1  0
 18 17  1  0
 19 18  1  1
 20 19  1  0
 20 11  1  0
 21 22  1  0
 21 19  1  0
 23 24  2  0
 24 14  1  0
 25 21  2  0
M  END
$$$$
