MGY.pdb
     RDKit          3D

 25 25  0  0  1  0  0  0  0  0999 V2000
    5.7870  -11.8172   27.3312 C   0  0  0  0  0  0  0  0  0  0  0  0
    7.1839  -12.7123   26.5956 S   0  0  0  0  0  0  0  0  0  0  0  0
    6.4769  -13.7244   25.2259 C   0  0  0  0  0  0  0  0  0  0  0  0
    7.6322  -14.4021   24.5898 C   0  0  0  0  0  0  0  0  0  0  0  0
    7.3694  -15.2110   23.3694 C   0  0  2  0  0  0  0  0  0  0  0  0
    6.7167  -16.4490   23.8516 N   0  0  0  0  0  0  0  0  0  0  0  0
    8.5228  -15.6375   22.5928 C   0  0  0  0  0  0  0  0  0  0  0  0
    9.4692  -14.8797   22.2657 O   0  0  0  0  0  0  0  0  0  0  0  0
    8.6043  -16.9907   22.1696 N   0  0  0  0  0  0  0  0  0  0  0  0
    9.7360  -17.7815   22.4932 C   0  0  0  0  0  0  0  0  0  0  0  0
   10.9563  -17.0385   22.8835 C   0  0  0  0  0  0  0  0  0  0  0  0
   11.5127  -16.2974   21.9936 O   0  0  0  0  0  0  0  0  0  0  0  0
   10.2832  -16.1707   30.3543 O   0  0  0  0  0  0  0  0  0  0  0  0
   10.8175  -15.9146   29.1099 C   0  0  0  0  0  0  0  0  0  0  0  0
   10.5672  -14.7127   28.4940 C   0  0  0  0  0  0  0  0  0  0  0  0
   11.0936  -14.4242   27.2349 C   0  0  0  0  0  0  0  0  0  0  0  0
   11.8818  -15.3351   26.5671 C   0  0  0  0  0  0  0  0  0  0  0  0
   12.4387  -15.0289   25.2342 C   0  0  0  0  0  0  0  0  0  0  0  0
   12.7655  -16.2170   24.3940 C   0  0  2  0  0  0  0  0  0  0  0  0
   11.5863  -17.0583   24.1388 N   0  0  0  0  0  0  0  0  0  0  0  0
   13.8000  -17.0171   25.0939 C   0  0  0  0  0  0  0  0  0  0  0  0
   13.4908  -18.2885   25.5093 O   0  0  0  0  0  0  0  0  0  0  0  0
   12.1267  -16.5296   27.1878 C   0  0  0  0  0  0  0  0  0  0  0  0
   11.6048  -16.8302   28.4492 C   0  0  0  0  0  0  0  0  0  0  0  0
   14.9322  -16.5503   25.3048 O   0  0  0  0  0  0  0  0  0  0  0  0
  2  1  1  0
  3  2  1  0
  3  4  1  0
  5  4  1  0
  5  6  1  1
  7  5  1  0
  7  9  1  0
  8  7  2  0
 10 11  1  0
 10  9  1  0
 11 12  2  0
 14 13  1  0
 15 14  2  0
 16 15  1  0
 17 16  2  0
 17 23  1  0
 18 17  1  0
 19 18  1  1
 20 19  1  0
 20 11  1  0
 21 22  1  0
 21 19  1  0
 23 24  2  0
 24 14  1  0
 25 21  2  0
M  END
$$$$
