MGY.pdb
     RDKit          3D

 25 25  0  0  1  0  0  0  0  0999 V2000
    6.2311  -10.1052   27.8770 C   0  0  0  0  0  0  0  0  0  0  0  0
    6.0788  -11.9128   27.8222 S   0  0  0  0  0  0  0  0  0  0  0  0
    6.2934  -12.3896   26.0540 C   0  0  0  0  0  0  0  0  0  0  0  0
    6.1521  -13.8651   26.0160 C   0  0  0  0  0  0  0  0  0  0  0  0
    7.1164  -14.6277   25.1786 C   0  0  2  0  0  0  0  0  0  0  0  0
    7.0513  -14.0041   23.8377 N   0  0  0  0  0  0  0  0  0  0  0  0
    6.8503  -16.0437   24.9799 C   0  0  0  0  0  0  0  0  0  0  0  0
    6.9858  -16.9165   25.8725 O   0  0  0  0  0  0  0  0  0  0  0  0
    6.4074  -16.4878   23.7057 N   0  0  0  0  0  0  0  0  0  0  0  0
    6.8600  -17.7218   23.1737 C   0  0  0  0  0  0  0  0  0  0  0  0
    8.2810  -17.7669   22.7585 C   0  0  0  0  0  0  0  0  0  0  0  0
    8.6536  -18.7466   22.0154 O   0  0  0  0  0  0  0  0  0  0  0  0
    6.5542  -13.5122   18.5718 O   0  0  0  0  0  0  0  0  0  0  0  0
    7.5867  -13.9874   19.3515 C   0  0  0  0  0  0  0  0  0  0  0  0
    8.4258  -14.9557   18.8567 C   0  0  0  0  0  0  0  0  0  0  0  0
    9.4792  -15.4565   19.6216 C   0  0  0  0  0  0  0  0  0  0  0  0
    9.7129  -14.9971   20.8988 C   0  0  0  0  0  0  0  0  0  0  0  0
   10.8283  -15.5278   21.7079 C   0  0  0  0  0  0  0  0  0  0  0  0
   10.5646  -16.8367   22.3723 C   0  0  2  0  0  0  0  0  0  0  0  0
    9.2846  -16.8443   23.0968 N   0  0  0  0  0  0  0  0  0  0  0  0
   11.6703  -17.1127   23.3217 C   0  0  0  0  0  0  0  0  0  0  0  0
   12.9491  -17.2350   22.8376 O   0  0  0  0  0  0  0  0  0  0  0  0
    8.8727  -14.0324   21.3839 C   0  0  0  0  0  0  0  0  0  0  0  0
    7.8138  -13.5226   20.6271 C   0  0  0  0  0  0  0  0  0  0  0  0
   11.4503  -17.2327   24.5389 O   0  0  0  0  0  0  0  0  0  0  0  0
  2  1  1  0
  3  2  1  0
  3  4  1  0
  5  4  1  0
  5  6  1  6
  7  5  1  0
  7  9  1  0
  8  7  2  0
 10 11  1  0
 10  9  1  0
 11 12  2  0
 14 13  1  0
 15 14  2  0
 16 15  1  0
 17 16  2  0
 17 23  1  0
 18 17  1  0
 19 18  1  1
 20 19  1  0
 20 11  1  0
 21 22  1  0
 21 19  1  0
 23 24  2  0
 24 14  1  0
 25 21  2  0
M  END
$$$$
