MGY.pdb
     RDKit          3D

 25 25  0  0  1  0  0  0  0  0999 V2000
    6.2018  -10.9405   26.7281 C   0  0  0  0  0  0  0  0  0  0  0  0
    6.5511  -12.7158   26.5867 S   0  0  0  0  0  0  0  0  0  0  0  0
    6.2298  -13.1604   24.8262 C   0  0  0  0  0  0  0  0  0  0  0  0
    6.7520  -14.5380   24.6583 C   0  0  0  0  0  0  0  0  0  0  0  0
    8.2009  -14.6934   24.3595 C   0  0  2  0  0  0  0  0  0  0  0  0
    8.4224  -13.9569   23.0947 N   0  0  0  0  0  0  0  0  0  0  0  0
    8.6925  -16.0433   24.1334 C   0  0  0  0  0  0  0  0  0  0  0  0
    8.5387  -16.9920   24.9416 O   0  0  0  0  0  0  0  0  0  0  0  0
    9.3909  -16.3281   22.9301 N   0  0  0  0  0  0  0  0  0  0  0  0
   10.3996  -17.3244   22.8991 C   0  0  0  0  0  0  0  0  0  0  0  0
   11.7911  -16.8438   23.0618 C   0  0  0  0  0  0  0  0  0  0  0  0
   12.7323  -17.5667   22.5694 O   0  0  0  0  0  0  0  0  0  0  0  0
    9.6738  -15.1113   29.6155 O   0  0  0  0  0  0  0  0  0  0  0  0
   10.5942  -15.4753   28.6562 C   0  0  0  0  0  0  0  0  0  0  0  0
   11.1471  -14.5168   27.8425 C   0  0  0  0  0  0  0  0  0  0  0  0
   12.0808  -14.8540   26.8627 C   0  0  0  0  0  0  0  0  0  0  0  0
   12.4792  -16.1593   26.6782 C   0  0  0  0  0  0  0  0  0  0  0  0
   13.4677  -16.5155   25.6406 C   0  0  0  0  0  0  0  0  0  0  0  0
   13.4784  -15.6282   24.4420 C   0  0  2  0  0  0  0  0  0  0  0  0
   12.2032  -15.6678   23.7100 N   0  0  0  0  0  0  0  0  0  0  0  0
   14.5759  -16.0643   23.5445 C   0  0  0  0  0  0  0  0  0  0  0  0
   15.8748  -15.9397   23.9715 O   0  0  0  0  0  0  0  0  0  0  0  0
   11.9240  -17.1078   27.4931 C   0  0  0  0  0  0  0  0  0  0  0  0
   10.9875  -16.7823   28.4785 C   0  0  0  0  0  0  0  0  0  0  0  0
   14.3313  -16.5364   22.4213 O   0  0  0  0  0  0  0  0  0  0  0  0
  2  1  1  0
  3  2  1  0
  3  4  1  0
  5  4  1  0
  5  6  1  6
  7  5  1  0
  7  9  1  0
  8  7  2  0
 10 11  1  0
 10  9  1  0
 11 12  2  0
 14 13  1  0
 15 14  2  0
 16 15  1  0
 17 16  2  0
 17 23  1  0
 18 17  1  0
 19 18  1  1
 20 19  1  0
 20 11  1  0
 21 22  1  0
 21 19  1  0
 23 24  2  0
 24 14  1  0
 25 21  2  0
M  END
$$$$
