MGY.pdb
     RDKit          3D

 25 25  0  0  1  0  0  0  0  0999 V2000
    6.5567  -12.3987   25.1843 C   0  0  0  0  0  0  0  0  0  0  0  0
    6.1387  -14.1123   24.7570 S   0  0  0  0  0  0  0  0  0  0  0  0
    6.3477  -14.2481   22.9299 C   0  0  0  0  0  0  0  0  0  0  0  0
    7.7903  -14.0219   22.6729 C   0  0  0  0  0  0  0  0  0  0  0  0
    8.5626  -15.1340   22.0569 C   0  0  2  0  0  0  0  0  0  0  0  0
    7.8036  -16.3639   22.3770 N   0  0  0  0  0  0  0  0  0  0  0  0
    9.9151  -15.3546   22.5441 C   0  0  0  0  0  0  0  0  0  0  0  0
   10.7932  -14.4594   22.6101 O   0  0  0  0  0  0  0  0  0  0  0  0
   10.2858  -16.6549   22.9786 N   0  0  0  0  0  0  0  0  0  0  0  0
   11.6079  -16.9199   23.4175 C   0  0  0  0  0  0  0  0  0  0  0  0
   11.7934  -17.0394   24.8820 C   0  0  0  0  0  0  0  0  0  0  0  0
   12.9906  -17.2012   25.3195 O   0  0  0  0  0  0  0  0  0  0  0  0
    8.5231  -11.3185   27.1166 O   0  0  0  0  0  0  0  0  0  0  0  0
    8.8816  -12.6256   27.3669 C   0  0  0  0  0  0  0  0  0  0  0  0
   10.0357  -12.8957   28.0610 C   0  0  0  0  0  0  0  0  0  0  0  0
   10.4251  -14.2079   28.3296 C   0  0  0  0  0  0  0  0  0  0  0  0
    9.6656  -15.2765   27.9076 C   0  0  0  0  0  0  0  0  0  0  0  0
   10.0786  -16.6653   28.1924 C   0  0  0  0  0  0  0  0  0  0  0  0
   11.1189  -17.2189   27.2783 C   0  0  2  0  0  0  0  0  0  0  0  0
   10.7880  -16.9994   25.8621 N   0  0  0  0  0  0  0  0  0  0  0  0
   11.2438  -18.6744   27.5357 C   0  0  0  0  0  0  0  0  0  0  0  0
   10.8780  -19.5587   26.5514 O   0  0  0  0  0  0  0  0  0  0  0  0
    8.5175  -14.9987   27.2172 C   0  0  0  0  0  0  0  0  0  0  0  0
    8.1167  -13.6882   26.9419 C   0  0  0  0  0  0  0  0  0  0  0  0
   11.6725  -19.0948   28.6237 O   0  0  0  0  0  0  0  0  0  0  0  0
  2  1  1  0
  3  2  1  0
  3  4  1  0
  5  4  1  0
  5  6  1  1
  7  5  1  0
  7  9  1  0
  8  7  2  0
 10 11  1  0
 10  9  1  0
 11 12  2  0
 14 13  1  0
 15 14  2  0
 16 15  1  0
 17 16  2  0
 17 23  1  0
 18 17  1  0
 19 18  1  1
 20 19  1  0
 20 11  1  0
 21 22  1  0
 21 19  1  0
 23 24  2  0
 24 14  1  0
 25 21  2  0
M  END
$$$$
