MGY.pdb
     RDKit          3D

 25 25  0  0  1  0  0  0  0  0999 V2000
    8.7789  -11.2221   18.7778 C   0  0  0  0  0  0  0  0  0  0  0  0
    8.0784  -12.3239   20.0385 S   0  0  0  0  0  0  0  0  0  0  0  0
    8.5183  -14.0378   19.5195 C   0  0  0  0  0  0  0  0  0  0  0  0
    7.8542  -14.9355   20.4950 C   0  0  0  0  0  0  0  0  0  0  0  0
    8.2397  -16.3722   20.4817 C   0  0  2  0  0  0  0  0  0  0  0  0
    7.2907  -17.0250   19.5519 N   0  0  0  0  0  0  0  0  0  0  0  0
    8.1409  -17.0992   21.7375 C   0  0  0  0  0  0  0  0  0  0  0  0
    7.0550  -17.4125   22.2848 O   0  0  0  0  0  0  0  0  0  0  0  0
    9.3340  -17.4898   22.4014 N   0  0  0  0  0  0  0  0  0  0  0  0
    9.3118  -17.8532   23.7719 C   0  0  0  0  0  0  0  0  0  0  0  0
   10.0519  -16.9591   24.6920 C   0  0  0  0  0  0  0  0  0  0  0  0
   11.1445  -16.4361   24.2637 O   0  0  0  0  0  0  0  0  0  0  0  0
    5.1893  -12.6190   26.9333 O   0  0  0  0  0  0  0  0  0  0  0  0
    6.4788  -13.1057   26.9441 C   0  0  0  0  0  0  0  0  0  0  0  0
    7.4604  -12.4225   27.6194 C   0  0  0  0  0  0  0  0  0  0  0  0
    8.7744  -12.8897   27.6484 C   0  0  0  0  0  0  0  0  0  0  0  0
    9.1314  -14.0515   27.0006 C   0  0  0  0  0  0  0  0  0  0  0  0
   10.5226  -14.5454   27.0318 C   0  0  0  0  0  0  0  0  0  0  0  0
   10.6742  -16.0249   26.9213 C   0  0  2  0  0  0  0  0  0  0  0  0
    9.6880  -16.6176   26.0050 N   0  0  0  0  0  0  0  0  0  0  0  0
   10.5102  -16.6160   28.2718 C   0  0  0  0  0  0  0  0  0  0  0  0
   11.4104  -16.2895   29.2556 O   0  0  0  0  0  0  0  0  0  0  0  0
    8.1475  -14.7260   26.3306 C   0  0  0  0  0  0  0  0  0  0  0  0
    6.8273  -14.2680   26.2943 C   0  0  0  0  0  0  0  0  0  0  0  0
    9.5744  -17.3961   28.5168 O   0  0  0  0  0  0  0  0  0  0  0  0
  2  1  1  0
  3  2  1  0
  3  4  1  0
  5  4  1  0
  5  6  1  6
  7  5  1  0
  7  9  1  0
  8  7  2  0
 10 11  1  0
 10  9  1  0
 11 12  2  0
 14 13  1  0
 15 14  2  0
 16 15  1  0
 17 16  2  0
 17 23  1  0
 18 17  1  0
 19 18  1  1
 20 19  1  0
 20 11  1  0
 21 22  1  0
 21 19  1  0
 23 24  2  0
 24 14  1  0
 25 21  2  0
M  END
$$$$
