MGY.pdb
     RDKit          3D

 25 25  0  0  1  0  0  0  0  0999 V2000
    7.1202  -11.4288   26.2621 C   0  0  0  0  0  0  0  0  0  0  0  0
    7.0625  -12.8469   27.3932 S   0  0  0  0  0  0  0  0  0  0  0  0
    6.3549  -14.2456   26.4222 C   0  0  0  0  0  0  0  0  0  0  0  0
    7.3731  -14.5785   25.3971 C   0  0  0  0  0  0  0  0  0  0  0  0
    6.9521  -15.4469   24.2651 C   0  0  2  0  0  0  0  0  0  0  0  0
    6.7489  -16.7895   24.8544 N   0  0  0  0  0  0  0  0  0  0  0  0
    7.8976  -15.6225   23.1740 C   0  0  0  0  0  0  0  0  0  0  0  0
    8.6882  -14.7307   22.7784 O   0  0  0  0  0  0  0  0  0  0  0  0
    7.9473  -16.8726   22.5019 N   0  0  0  0  0  0  0  0  0  0  0  0
    9.1397  -17.6400   22.4916 C   0  0  0  0  0  0  0  0  0  0  0  0
   10.3843  -16.9091   22.8238 C   0  0  0  0  0  0  0  0  0  0  0  0
   11.2190  -16.6907   21.8717 O   0  0  0  0  0  0  0  0  0  0  0  0
    9.8960  -16.3983   30.3394 O   0  0  0  0  0  0  0  0  0  0  0  0
   10.4546  -16.0328   29.1335 C   0  0  0  0  0  0  0  0  0  0  0  0
    9.8868  -15.0222   28.3968 C   0  0  0  0  0  0  0  0  0  0  0  0
   10.4289  -14.6299   27.1729 C   0  0  0  0  0  0  0  0  0  0  0  0
   11.5514  -15.2430   26.6622 C   0  0  0  0  0  0  0  0  0  0  0  0
   12.1247  -14.8272   25.3665 C   0  0  0  0  0  0  0  0  0  0  0  0
   12.1074  -15.8697   24.3002 C   0  0  2  0  0  0  0  0  0  0  0  0
   10.7619  -16.4240   24.0868 N   0  0  0  0  0  0  0  0  0  0  0  0
   13.0331  -16.9597   24.6940 C   0  0  0  0  0  0  0  0  0  0  0  0
   14.3773  -16.6939   24.7792 O   0  0  0  0  0  0  0  0  0  0  0  0
   12.1110  -16.2484   27.4026 C   0  0  0  0  0  0  0  0  0  0  0  0
   11.5771  -16.6504   28.6302 C   0  0  0  0  0  0  0  0  0  0  0  0
   12.6058  -18.0994   24.9448 O   0  0  0  0  0  0  0  0  0  0  0  0
  2  1  1  0
  3  2  1  0
  3  4  1  0
  5  4  1  0
  5  6  1  1
  7  5  1  0
  7  9  1  0
  8  7  2  0
 10 11  1  0
 10  9  1  0
 11 12  2  0
 14 13  1  0
 15 14  2  0
 16 15  1  0
 17 16  2  0
 17 23  1  0
 18 17  1  0
 19 18  1  1
 20 19  1  0
 20 11  1  0
 21 22  1  0
 21 19  1  0
 23 24  2  0
 24 14  1  0
 25 21  2  0
M  END
$$$$
