MGY.pdb
     RDKit          3D

 25 25  0  0  1  0  0  0  0  0999 V2000
    8.0271  -11.8683   20.9784 C   0  0  0  0  0  0  0  0  0  0  0  0
    6.9087  -13.0450   21.7899 S   0  0  0  0  0  0  0  0  0  0  0  0
    7.6332  -14.7166   21.5055 C   0  0  0  0  0  0  0  0  0  0  0  0
    7.2241  -15.1035   20.1338 C   0  0  0  0  0  0  0  0  0  0  0  0
    7.7793  -16.3678   19.5806 C   0  0  2  0  0  0  0  0  0  0  0  0
    7.2028  -17.4475   20.4131 N   0  0  0  0  0  0  0  0  0  0  0  0
    9.2223  -16.5409   19.6355 C   0  0  0  0  0  0  0  0  0  0  0  0
   10.0424  -15.7994   19.0401 O   0  0  0  0  0  0  0  0  0  0  0  0
    9.7580  -17.6072   20.4055 N   0  0  0  0  0  0  0  0  0  0  0  0
   11.1276  -17.6154   20.7729 C   0  0  0  0  0  0  0  0  0  0  0  0
   11.4306  -17.1829   22.1566 C   0  0  0  0  0  0  0  0  0  0  0  0
   12.6313  -17.3483   22.5830 O   0  0  0  0  0  0  0  0  0  0  0  0
   10.6960  -14.6244   30.6534 O   0  0  0  0  0  0  0  0  0  0  0  0
   10.5332  -14.7539   29.2909 C   0  0  0  0  0  0  0  0  0  0  0  0
   11.5472  -15.2818   28.5296 C   0  0  0  0  0  0  0  0  0  0  0  0
   11.4124  -15.4254   27.1487 C   0  0  0  0  0  0  0  0  0  0  0  0
   10.2581  -15.0423   26.5025 C   0  0  0  0  0  0  0  0  0  0  0  0
   10.1161  -15.1946   25.0406 C   0  0  0  0  0  0  0  0  0  0  0  0
   10.9830  -16.2395   24.4236 C   0  0  2  0  0  0  0  0  0  0  0  0
   10.5343  -16.6065   23.0718 N   0  0  0  0  0  0  0  0  0  0  0  0
   10.9619  -17.4409   25.2933 C   0  0  0  0  0  0  0  0  0  0  0  0
   11.9532  -17.6034   26.2291 O   0  0  0  0  0  0  0  0  0  0  0  0
    9.2528  -14.5177   27.2682 C   0  0  0  0  0  0  0  0  0  0  0  0
    9.3761  -14.3689   28.6526 C   0  0  0  0  0  0  0  0  0  0  0  0
   10.0634  -18.2923   25.1826 O   0  0  0  0  0  0  0  0  0  0  0  0
  2  1  1  0
  3  2  1  0
  3  4  1  0
  5  4  1  0
  5  6  1  1
  7  5  1  0
  7  9  1  0
  8  7  2  0
 10 11  1  0
 10  9  1  0
 11 12  2  0
 14 13  1  0
 15 14  2  0
 16 15  1  0
 17 16  2  0
 17 23  1  0
 18 17  1  0
 19 18  1  1
 20 19  1  0
 20 11  1  0
 21 22  1  0
 21 19  1  0
 23 24  2  0
 24 14  1  0
 25 21  2  0
M  END
$$$$
