MGY.pdb
     RDKit          3D

 25 25  0  0  1  0  0  0  0  0999 V2000
    6.5318  -12.4187   24.8832 C   0  0  0  0  0  0  0  0  0  0  0  0
    7.3107  -12.9541   23.3339 S   0  0  0  0  0  0  0  0  0  0  0  0
    5.9915  -12.8805   22.0476 C   0  0  0  0  0  0  0  0  0  0  0  0
    6.6646  -13.1932   20.7639 C   0  0  0  0  0  0  0  0  0  0  0  0
    7.0822  -14.6017   20.5307 C   0  0  2  0  0  0  0  0  0  0  0  0
    6.6158  -15.3516   21.7188 N   0  0  0  0  0  0  0  0  0  0  0  0
    8.5087  -14.8633   20.4212 C   0  0  0  0  0  0  0  0  0  0  0  0
    9.2132  -14.5191   19.4403 O   0  0  0  0  0  0  0  0  0  0  0  0
    9.1654  -15.5473   21.4784 N   0  0  0  0  0  0  0  0  0  0  0  0
   10.5565  -15.8141   21.4116 C   0  0  0  0  0  0  0  0  0  0  0  0
   11.1407  -16.5086   22.5821 C   0  0  0  0  0  0  0  0  0  0  0  0
   12.4094  -16.7117   22.5822 O   0  0  0  0  0  0  0  0  0  0  0  0
   11.0803  -15.1011   31.3237 O   0  0  0  0  0  0  0  0  0  0  0  0
   10.7855  -15.2801   29.9893 C   0  0  0  0  0  0  0  0  0  0  0  0
   10.4181  -16.5221   29.5322 C   0  0  0  0  0  0  0  0  0  0  0  0
   10.1140  -16.7346   28.1876 C   0  0  0  0  0  0  0  0  0  0  0  0
   10.1722  -15.7062   27.2733 C   0  0  0  0  0  0  0  0  0  0  0  0
    9.8501  -15.9320   25.8501 C   0  0  0  0  0  0  0  0  0  0  0  0
   10.9048  -16.6343   25.0636 C   0  0  2  0  0  0  0  0  0  0  0  0
   10.4490  -16.9822   23.7092 N   0  0  0  0  0  0  0  0  0  0  0  0
   11.2860  -17.8711   25.7885 C   0  0  0  0  0  0  0  0  0  0  0  0
   12.2332  -17.7972   26.7795 O   0  0  0  0  0  0  0  0  0  0  0  0
   10.5386  -14.4722   27.7370 C   0  0  0  0  0  0  0  0  0  0  0  0
   10.8457  -14.2468   29.0819 C   0  0  0  0  0  0  0  0  0  0  0  0
   10.7601  -18.9617   25.5086 O   0  0  0  0  0  0  0  0  0  0  0  0
  2  1  1  0
  3  2  1  0
  3  4  1  0
  5  4  1  0
  5  6  1  1
  7  5  1  0
  7  9  1  0
  8  7  2  0
 10 11  1  0
 10  9  1  0
 11 12  2  0
 14 13  1  0
 15 14  2  0
 16 15  1  0
 17 16  2  0
 17 23  1  0
 18 17  1  0
 19 18  1  1
 20 19  1  0
 20 11  1  0
 21 22  1  0
 21 19  1  0
 23 24  2  0
 24 14  1  0
 25 21  2  0
M  END
$$$$
