MGY.pdb
     RDKit          3D

 25 25  0  0  1  0  0  0  0  0999 V2000
    8.7234  -12.0865   20.3856 C   0  0  0  0  0  0  0  0  0  0  0  0
    8.4612  -13.4414   19.2070 S   0  0  0  0  0  0  0  0  0  0  0  0
    7.3053  -14.6181   20.0313 C   0  0  0  0  0  0  0  0  0  0  0  0
    7.2314  -15.7999   19.1388 C   0  0  0  0  0  0  0  0  0  0  0  0
    6.3580  -16.9277   19.5606 C   0  0  2  0  0  0  0  0  0  0  0  0
    5.8160  -16.5326   20.8802 N   0  0  0  0  0  0  0  0  0  0  0  0
    6.9908  -18.2228   19.7542 C   0  0  0  0  0  0  0  0  0  0  0  0
    6.9666  -19.1505   18.9082 O   0  0  0  0  0  0  0  0  0  0  0  0
    7.6856  -18.4741   20.9670 N   0  0  0  0  0  0  0  0  0  0  0  0
    6.9745  -18.7102   22.1710 C   0  0  0  0  0  0  0  0  0  0  0  0
    7.0105  -17.6178   23.1705 C   0  0  0  0  0  0  0  0  0  0  0  0
    5.8925  -17.0818   23.5076 O   0  0  0  0  0  0  0  0  0  0  0  0
    6.5479  -10.6128   27.9827 O   0  0  0  0  0  0  0  0  0  0  0  0
    6.7212  -11.8570   27.4155 C   0  0  0  0  0  0  0  0  0  0  0  0
    5.8631  -12.2840   26.4317 C   0  0  0  0  0  0  0  0  0  0  0  0
    6.0126  -13.5377   25.8387 C   0  0  0  0  0  0  0  0  0  0  0  0
    7.0255  -14.3893   26.2202 C   0  0  0  0  0  0  0  0  0  0  0  0
    7.1831  -15.7163   25.5920 C   0  0  0  0  0  0  0  0  0  0  0  0
    8.1096  -15.7604   24.4241 C   0  0  2  0  0  0  0  0  0  0  0  0
    8.1514  -17.0906   23.7978 N   0  0  0  0  0  0  0  0  0  0  0  0
    9.4690  -15.3913   24.8888 C   0  0  0  0  0  0  0  0  0  0  0  0
    9.8456  -14.0713   24.8649 O   0  0  0  0  0  0  0  0  0  0  0  0
    7.8760  -13.9561   27.2004 C   0  0  0  0  0  0  0  0  0  0  0  0
    7.7365  -12.7022   27.8021 C   0  0  0  0  0  0  0  0  0  0  0  0
   10.2610  -16.2584   25.2952 O   0  0  0  0  0  0  0  0  0  0  0  0
  2  1  1  0
  3  2  1  0
  3  4  1  0
  5  4  1  0
  5  6  1  1
  7  5  1  0
  7  9  1  0
  8  7  2  0
 10 11  1  0
 10  9  1  0
 11 12  2  0
 14 13  1  0
 15 14  2  0
 16 15  1  0
 17 16  2  0
 17 23  1  0
 18 17  1  0
 19 18  1  1
 20 19  1  0
 20 11  1  0
 21 22  1  0
 21 19  1  0
 23 24  2  0
 24 14  1  0
 25 21  2  0
M  END
$$$$
