NRH.pdb
     RDKit          3D

 30 30  0  0  1  0  0  0  0  0999 V2000
    9.6061  -13.3373   17.9022 N   0  0  0  0  0  0  0  0  0  0  0  0
    9.9223  -12.7115   19.1370 C   0  0  0  0  0  0  0  0  0  0  0  0
   10.7511  -11.7659   19.1087 O   0  0  0  0  0  0  0  0  0  0  0  0
    9.2938  -13.1661   20.3922 C   0  0  0  0  0  0  0  0  0  0  0  0
    8.3647  -14.3372   20.0554 C   0  0  2  0  0  0  0  0  0  0  0  0
    7.2460  -13.7440   19.3270 N   0  0  0  0  0  0  0  0  0  0  0  0
    7.8751  -15.0008   21.2919 C   0  0  0  0  0  0  0  0  0  0  0  0
    7.0927  -14.3876   22.0628 O   0  0  0  0  0  0  0  0  0  0  0  0
    7.5938  -21.3154   21.1396 N   0  0  0  0  0  0  0  0  0  0  0  0
    7.1261  -22.0700   22.2414 C   0  0  0  0  0  0  0  0  0  0  0  0
    7.2616  -23.3646   22.3018 N   0  0  0  0  0  0  0  0  0  0  0  0
    6.4737  -21.4741   23.3625 N   0  0  0  0  0  0  0  0  0  0  0  0
    6.3524  -20.0615   23.4936 C   0  0  0  0  0  0  0  0  0  0  0  0
    7.6752  -19.3585   23.7627 C   0  0  0  0  0  0  0  0  0  0  0  0
    7.9300  -18.4499   22.5995 C   0  0  0  0  0  0  0  0  0  0  0  0
    7.7515  -16.9847   22.8538 C   0  0  2  0  0  0  0  0  0  0  0  0
    8.2657  -16.3110   21.6305 N   0  0  0  0  0  0  0  0  0  0  0  0
    8.5313  -16.4479   23.9886 C   0  0  0  0  0  0  0  0  0  0  0  0
    9.7880  -16.2278   23.8277 O   0  0  0  0  0  0  0  0  0  0  0  0
    6.9180  -23.8264   23.1709 N   0  0  0  0  0  0  0  0  0  0  0  0
    7.9905  -16.1448   25.2722 C   0  0  2  0  0  0  0  0  0  0  0  0
    8.8649  -15.6142   26.3115 C   0  0  0  0  0  0  0  0  0  0  0  0
    8.0589  -14.7975   27.2836 C   0  0  0  0  0  0  0  0  0  0  0  0
    7.3881  -13.6496   26.6473 C   0  0  0  0  0  0  0  0  0  0  0  0
    7.5328  -13.2118   25.3387 N   0  0  0  0  0  0  0  0  0  0  0  0
    6.7650  -12.1269   25.1391 C   0  0  0  0  0  0  0  0  0  0  0  0
    6.1366  -11.8693   26.2972 N   0  0  0  0  0  0  0  0  0  0  0  0
    6.5039  -12.7770   27.2075 C   0  0  0  0  0  0  0  0  0  0  0  0
    9.5643  -16.7229   26.9907 O   0  0  0  0  0  0  0  0  0  0  0  0
    9.3564  -18.0237   26.5632 O   0  0  0  0  0  0  0  0  0  0  0  0
  2  1  1  0
  3  2  2  0
  4  2  1  0
  4  5  1  0
  5  6  1  1
  7  5  1  0
  7  8  2  0
 10 12  1  0
 10  9  1  0
 11 10  2  0
 13 14  1  0
 13 12  1  0
 14 15  1  0
 16 15  1  6
 16 17  1  0
 17  7  1  0
 18 16  1  0
 19 18  2  0
 20 18  1  0
 21 28  1  0
 21 20  1  0
 21 22  1  6
 23 22  1  0
 24 23  2  0
 25 24  1  0
 26 25  1  0
 26 27  2  0
 27 23  1  0
 28 29  1  0
 30 28  2  0
M  END
$$$$
