NRH.pdb
     RDKit          3D

 30 30  0  0  1  0  0  0  0  0999 V2000
    9.6205  -20.4261   19.5487 N   0  0  0  0  0  0  0  0  0  0  0  0
   10.0928  -19.4700   18.6111 C   0  0  0  0  0  0  0  0  0  0  0  0
   10.3223  -19.8733   17.4421 O   0  0  0  0  0  0  0  0  0  0  0  0
   10.2999  -18.0648   19.0106 C   0  0  0  0  0  0  0  0  0  0  0  0
   10.0236  -17.9581   20.5141 C   0  0  2  0  0  0  0  0  0  0  0  0
    8.6753  -18.4896   20.6965 N   0  0  0  0  0  0  0  0  0  0  0  0
   10.0808  -16.5434   20.9667 C   0  0  0  0  0  0  0  0  0  0  0  0
   11.1725  -15.9195   20.9319 O   0  0  0  0  0  0  0  0  0  0  0  0
    8.6114  -15.2701   17.3893 N   0  0  0  0  0  0  0  0  0  0  0  0
    8.1923  -14.0170   16.8829 C   0  0  0  0  0  0  0  0  0  0  0  0
    8.1021  -13.7817   15.6045 N   0  0  0  0  0  0  0  0  0  0  0  0
    7.8398  -12.9226   17.7290 N   0  0  0  0  0  0  0  0  0  0  0  0
    8.1800  -12.9060   19.1115 C   0  0  0  0  0  0  0  0  0  0  0  0
    7.5704  -14.0541   19.9031 C   0  0  0  0  0  0  0  0  0  0  0  0
    7.8347  -13.7737   21.3504 C   0  0  0  0  0  0  0  0  0  0  0  0
    9.0083  -14.4795   21.9569 C   0  0  2  0  0  0  0  0  0  0  0  0
    8.9358  -15.8728   21.4390 N   0  0  0  0  0  0  0  0  0  0  0  0
    8.9850  -14.5774   23.4314 C   0  0  0  0  0  0  0  0  0  0  0  0
    8.5409  -13.5805   24.1114 O   0  0  0  0  0  0  0  0  0  0  0  0
    7.8317  -12.8131   15.3296 N   0  0  0  0  0  0  0  0  0  0  0  0
    9.4205  -15.7127   24.1751 C   0  0  1  0  0  0  0  0  0  0  0  0
    9.2441  -15.7325   25.6224 C   0  0  0  0  0  0  0  0  0  0  0  0
    7.7899  -15.5475   25.9582 C   0  0  0  0  0  0  0  0  0  0  0  0
    7.4499  -14.1490   26.2760 C   0  0  0  0  0  0  0  0  0  0  0  0
    8.3264  -13.0829   26.4181 N   0  0  0  0  0  0  0  0  0  0  0  0
    7.6367  -11.9699   26.7210 C   0  0  0  0  0  0  0  0  0  0  0  0
    6.3394  -12.3114   26.7737 N   0  0  0  0  0  0  0  0  0  0  0  0
    6.2175  -13.6159   26.5082 C   0  0  0  0  0  0  0  0  0  0  0  0
    9.7664  -16.9990   26.1727 O   0  0  0  0  0  0  0  0  0  0  0  0
   10.3048  -17.9440   25.3153 O   0  0  0  0  0  0  0  0  0  0  0  0
  2  1  1  0
  3  2  2  0
  4  2  1  0
  4  5  1  0
  5  6  1  6
  7  5  1  0
  7  8  2  0
 10 12  1  0
 10  9  1  0
 11 10  2  0
 13 14  1  0
 13 12  1  0
 14 15  1  0
 16 15  1  6
 16 17  1  0
 17  7  1  0
 18 16  1  0
 19 18  2  0
 20 18  1  0
 21 28  1  0
 21 20  1  0
 21 22  1  1
 23 22  1  0
 24 23  2  0
 25 24  1  0
 26 25  1  0
 26 27  2  0
 27 23  1  0
 28 29  1  0
 30 28  2  0
M  END
$$$$
