NRH.pdb
     RDKit          3D

 30 30  0  0  1  0  0  0  0  0999 V2000
   14.9070  -15.3192   18.2252 N   0  0  0  0  0  0  0  0  0  0  0  0
   14.5984  -14.2872   19.1505 C   0  0  0  0  0  0  0  0  0  0  0  0
   15.4879  -13.4258   19.3714 O   0  0  0  0  0  0  0  0  0  0  0  0
   13.2822  -14.2437   19.8159 C   0  0  0  0  0  0  0  0  0  0  0  0
   12.4910  -15.4793   19.3738 C   0  0  2  0  0  0  0  0  0  0  0  0
   11.8333  -15.0902   18.1288 N   0  0  0  0  0  0  0  0  0  0  0  0
   11.4758  -15.8538   20.3927 C   0  0  0  0  0  0  0  0  0  0  0  0
   10.3710  -15.2532   20.4249 O   0  0  0  0  0  0  0  0  0  0  0  0
    9.8933  -23.7771   20.6543 N   0  0  0  0  0  0  0  0  0  0  0  0
    9.1188  -22.9190   19.8381 C   0  0  0  0  0  0  0  0  0  0  0  0
    8.3910  -23.3687   18.8553 N   0  0  0  0  0  0  0  0  0  0  0  0
    9.0775  -21.5048   20.0278 N   0  0  0  0  0  0  0  0  0  0  0  0
    9.8644  -20.8603   21.0241 C   0  0  0  0  0  0  0  0  0  0  0  0
    9.6684  -19.3519   21.0742 C   0  0  0  0  0  0  0  0  0  0  0  0
   10.6129  -18.8242   22.1100 C   0  0  0  0  0  0  0  0  0  0  0  0
   10.6549  -17.3355   22.2692 C   0  0  2  0  0  0  0  0  0  0  0  0
   11.7166  -16.8730   21.3345 N   0  0  0  0  0  0  0  0  0  0  0  0
   11.0432  -16.8616   23.6141 C   0  0  0  0  0  0  0  0  0  0  0  0
   12.2597  -17.0200   23.9994 O   0  0  0  0  0  0  0  0  0  0  0  0
    7.8564  -22.6578   18.3116 N   0  0  0  0  0  0  0  0  0  0  0  0
   10.1604  -16.2268   24.5358 C   0  0  2  0  0  0  0  0  0  0  0  0
   10.6465  -15.8671   25.8626 C   0  0  0  0  0  0  0  0  0  0  0  0
    9.6816  -14.9160   26.5152 C   0  0  0  0  0  0  0  0  0  0  0  0
   10.0331  -14.6157   27.9147 C   0  0  0  0  0  0  0  0  0  0  0  0
   11.0855  -15.1439   28.6484 N   0  0  0  0  0  0  0  0  0  0  0  0
   11.0686  -14.6342   29.8918 C   0  0  0  0  0  0  0  0  0  0  0  0
   10.0245  -13.7928   29.9594 N   0  0  0  0  0  0  0  0  0  0  0  0
    9.3976  -13.7751   28.7787 C   0  0  0  0  0  0  0  0  0  0  0  0
   10.8325  -17.0860   26.6745 O   0  0  0  0  0  0  0  0  0  0  0  0
   11.9565  -17.2072   27.4745 O   0  0  0  0  0  0  0  0  0  0  0  0
  2  1  1  0
  3  2  2  0
  4  2  1  0
  4  5  1  0
  5  6  1  6
  7  5  1  0
  7  8  2  0
 10 12  1  0
 10  9  1  0
 11 10  2  0
 13 14  1  0
 13 12  1  0
 14 15  1  0
 16 15  1  1
 16 17  1  0
 17  7  1  0
 18 16  1  0
 19 18  2  0
 20 18  1  0
 21 28  1  0
 21 20  1  0
 21 22  1  6
 23 22  1  0
 24 23  2  0
 25 24  1  0
 26 25  1  0
 26 27  2  0
 27 23  1  0
 28 29  1  0
 30 28  2  0
M  END
$$$$
