NRH.pdb
     RDKit          3D

 30 30  0  0  1  0  0  0  0  0999 V2000
    9.0795  -15.1885   13.5717 N   0  0  0  0  0  0  0  0  0  0  0  0
    7.8616  -15.8566   13.8667 C   0  0  0  0  0  0  0  0  0  0  0  0
    6.9880  -15.8890   12.9624 O   0  0  0  0  0  0  0  0  0  0  0  0
    7.6480  -16.4814   15.1861 C   0  0  0  0  0  0  0  0  0  0  0  0
    8.8638  -16.1588   16.0613 C   0  0  2  0  0  0  0  0  0  0  0  0
    9.9841  -16.8581   15.4371 N   0  0  0  0  0  0  0  0  0  0  0  0
    8.6651  -16.6494   17.4502 C   0  0  0  0  0  0  0  0  0  0  0  0
    7.7179  -16.1972   18.1435 O   0  0  0  0  0  0  0  0  0  0  0  0
   11.0773  -24.5419   20.3041 N   0  0  0  0  0  0  0  0  0  0  0  0
   11.0780  -23.7777   21.4950 C   0  0  0  0  0  0  0  0  0  0  0  0
   11.5716  -24.2349   22.6110 N   0  0  0  0  0  0  0  0  0  0  0  0
   10.5408  -22.4570   21.5637 N   0  0  0  0  0  0  0  0  0  0  0  0
   10.7000  -21.5281   20.4965 C   0  0  0  0  0  0  0  0  0  0  0  0
    9.9627  -20.2150   20.7161 C   0  0  0  0  0  0  0  0  0  0  0  0
    9.9866  -19.4787   19.4119 C   0  0  0  0  0  0  0  0  0  0  0  0
    9.2692  -18.1643   19.3817 C   0  0  2  0  0  0  0  0  0  0  0  0
    9.5157  -17.6166   18.0200 N   0  0  0  0  0  0  0  0  0  0  0  0
    9.7720  -17.1558   20.3378 C   0  0  0  0  0  0  0  0  0  0  0  0
   10.9633  -16.6967   20.1845 O   0  0  0  0  0  0  0  0  0  0  0  0
   11.5294  -23.5949   23.4328 N   0  0  0  0  0  0  0  0  0  0  0  0
    9.0259  -16.6378   21.4363 C   0  0  2  0  0  0  0  0  0  0  0  0
    9.6597  -15.6988   22.3543 C   0  0  0  0  0  0  0  0  0  0  0  0
    8.7418  -14.5333   22.6009 C   0  0  0  0  0  0  0  0  0  0  0  0
    8.5508  -13.6931   21.4051 C   0  0  0  0  0  0  0  0  0  0  0  0
    9.1488  -13.8511   20.1631 N   0  0  0  0  0  0  0  0  0  0  0  0
    8.7315  -12.8783   19.3351 C   0  0  0  0  0  0  0  0  0  0  0  0
    7.8801  -12.1068   20.0296 N   0  0  0  0  0  0  0  0  0  0  0  0
    7.7655  -12.5875   21.2718 C   0  0  0  0  0  0  0  0  0  0  0  0
   10.0055  -16.3870   23.6138 O   0  0  0  0  0  0  0  0  0  0  0  0
   10.7511  -15.7208   24.5722 O   0  0  0  0  0  0  0  0  0  0  0  0
  2  1  1  0
  3  2  2  0
  4  2  1  0
  4  5  1  0
  5  6  1  6
  7  5  1  0
  7  8  2  0
 10 12  1  0
 10  9  1  0
 11 10  2  0
 13 14  1  0
 13 12  1  0
 14 15  1  0
 16 15  1  6
 16 17  1  0
 17  7  1  0
 18 16  1  0
 19 18  2  0
 20 18  1  0
 21 28  1  0
 21 20  1  0
 21 22  1  1
 23 22  1  0
 24 23  2  0
 25 24  1  0
 26 25  1  0
 26 27  2  0
 27 23  1  0
 28 29  1  0
 30 28  2  0
M  END
$$$$
