NRH.pdb
     RDKit          3D

 30 30  0  0  1  0  0  0  0  0999 V2000
   11.9105  -18.8455   17.3266 N   0  0  0  0  0  0  0  0  0  0  0  0
   12.2400  -18.7255   18.7026 C   0  0  0  0  0  0  0  0  0  0  0  0
   12.8498  -19.6879   19.2356 O   0  0  0  0  0  0  0  0  0  0  0  0
   11.8735  -17.5135   19.4600 C   0  0  0  0  0  0  0  0  0  0  0  0
   11.3211  -17.9574   20.8187 C   0  0  2  0  0  0  0  0  0  0  0  0
   10.1681  -18.7993   20.5091 N   0  0  0  0  0  0  0  0  0  0  0  0
   10.8958  -16.7861   21.6288 C   0  0  0  0  0  0  0  0  0  0  0  0
   11.7589  -15.9838   22.0690 O   0  0  0  0  0  0  0  0  0  0  0  0
    6.9324  -12.3682   17.8652 N   0  0  0  0  0  0  0  0  0  0  0  0
    7.9494  -13.3451   17.9819 C   0  0  0  0  0  0  0  0  0  0  0  0
    8.0454  -14.3471   17.1545 N   0  0  0  0  0  0  0  0  0  0  0  0
    8.9400  -13.3075   19.0090 N   0  0  0  0  0  0  0  0  0  0  0  0
    8.6011  -13.4741   20.3818 C   0  0  0  0  0  0  0  0  0  0  0  0
    7.7843  -14.7277   20.6602 C   0  0  0  0  0  0  0  0  0  0  0  0
    7.8056  -14.9411   22.1426 C   0  0  0  0  0  0  0  0  0  0  0  0
    9.1152  -15.3693   22.7300 C   0  0  2  0  0  0  0  0  0  0  0  0
    9.5395  -16.5448   21.9218 N   0  0  0  0  0  0  0  0  0  0  0  0
    9.0508  -15.8257   24.1342 C   0  0  0  0  0  0  0  0  0  0  0  0
    8.3789  -16.8868   24.4104 O   0  0  0  0  0  0  0  0  0  0  0  0
    8.8143  -15.0269   17.3375 N   0  0  0  0  0  0  0  0  0  0  0  0
    9.6898  -15.1731   25.2285 C   0  0  2  0  0  0  0  0  0  0  0  0
    9.3071  -15.5192   26.5923 C   0  0  0  0  0  0  0  0  0  0  0  0
    7.8088  -15.4956   26.7197 C   0  0  0  0  0  0  0  0  0  0  0  0
    7.2490  -14.1350   26.6321 C   0  0  0  0  0  0  0  0  0  0  0  0
    7.9514  -12.9417   26.5432 N   0  0  0  0  0  0  0  0  0  0  0  0
    7.0878  -11.9131   26.4943 C   0  0  0  0  0  0  0  0  0  0  0  0
    5.8512  -12.4327   26.5508 N   0  0  0  0  0  0  0  0  0  0  0  0
    5.9377  -13.7643   26.6335 C   0  0  0  0  0  0  0  0  0  0  0  0
    9.8561  -16.8435   26.9450 O   0  0  0  0  0  0  0  0  0  0  0  0
   10.9627  -16.9239   27.7739 O   0  0  0  0  0  0  0  0  0  0  0  0
  2  1  1  0
  3  2  2  0
  4  2  1  0
  4  5  1  0
  5  6  1  6
  7  5  1  0
  7  8  2  0
 10 12  1  0
 10  9  1  0
 11 10  2  0
 13 14  1  0
 13 12  1  0
 14 15  1  0
 16 15  1  6
 16 17  1  0
 17  7  1  0
 18 16  1  0
 19 18  2  0
 20 18  1  0
 21 28  1  0
 21 20  1  0
 21 22  1  6
 23 22  1  0
 24 23  2  0
 25 24  1  0
 26 25  1  0
 26 27  2  0
 27 23  1  0
 28 29  1  0
 30 28  2  0
M  END
$$$$
