NRH.pdb
     RDKit          3D

 30 30  0  0  1  0  0  0  0  0999 V2000
    9.0637  -13.1891   17.3320 N   0  0  0  0  0  0  0  0  0  0  0  0
    7.6734  -13.4530   17.4503 C   0  0  0  0  0  0  0  0  0  0  0  0
    6.9289  -13.0507   16.5198 O   0  0  0  0  0  0  0  0  0  0  0  0
    7.1423  -14.1712   18.6247 C   0  0  0  0  0  0  0  0  0  0  0  0
    8.3014  -14.3968   19.6014 C   0  0  2  0  0  0  0  0  0  0  0  0
    9.2244  -15.2888   18.9041 N   0  0  0  0  0  0  0  0  0  0  0  0
    7.8237  -15.0348   20.8560 C   0  0  0  0  0  0  0  0  0  0  0  0
    7.0083  -14.4263   21.5957 O   0  0  0  0  0  0  0  0  0  0  0  0
    7.3613  -23.3857   21.1746 N   0  0  0  0  0  0  0  0  0  0  0  0
    6.8993  -22.1680   20.6212 C   0  0  0  0  0  0  0  0  0  0  0  0
    6.4191  -22.0950   19.4120 N   0  0  0  0  0  0  0  0  0  0  0  0
    6.9252  -20.9355   21.3407 N   0  0  0  0  0  0  0  0  0  0  0  0
    7.5273  -20.8325   22.6268 C   0  0  0  0  0  0  0  0  0  0  0  0
    7.4778  -19.4286   23.2124 C   0  0  0  0  0  0  0  0  0  0  0  0
    7.8082  -18.4810   22.1005 C   0  0  0  0  0  0  0  0  0  0  0  0
    7.6605  -17.0228   22.4089 C   0  0  2  0  0  0  0  0  0  0  0  0
    8.2619  -16.3152   21.2460 N   0  0  0  0  0  0  0  0  0  0  0  0
    8.3921  -16.5602   23.6067 C   0  0  0  0  0  0  0  0  0  0  0  0
    9.6628  -16.3807   23.5255 O   0  0  0  0  0  0  0  0  0  0  0  0
    6.1447  -21.1459   19.0791 N   0  0  0  0  0  0  0  0  0  0  0  0
    7.7894  -16.2878   24.8694 C   0  0  1  0  0  0  0  0  0  0  0  0
    8.6088  -15.7675   25.9576 C   0  0  0  0  0  0  0  0  0  0  0  0
    7.7389  -15.0337   26.9407 C   0  0  0  0  0  0  0  0  0  0  0  0
    7.2195  -13.7619   26.4065 C   0  0  0  0  0  0  0  0  0  0  0  0
    7.5404  -13.1662   25.1952 N   0  0  0  0  0  0  0  0  0  0  0  0
    6.8709  -12.0074   25.0717 C   0  0  0  0  0  0  0  0  0  0  0  0
    6.1320  -11.8579   26.1826 N   0  0  0  0  0  0  0  0  0  0  0  0
    6.3344  -12.9050   26.9888 C   0  0  0  0  0  0  0  0  0  0  0  0
    9.3392  -16.8740   26.6070 O   0  0  0  0  0  0  0  0  0  0  0  0
   10.4664  -16.5962   27.3622 O   0  0  0  0  0  0  0  0  0  0  0  0
  2  1  1  0
  3  2  2  0
  4  2  1  0
  4  5  1  0
  5  6  1  6
  7  5  1  0
  7  8  2  0
 10 12  1  0
 10  9  1  0
 11 10  2  0
 13 14  1  0
 13 12  1  0
 14 15  1  0
 16 15  1  6
 16 17  1  0
 17  7  1  0
 18 16  1  0
 19 18  2  0
 20 18  1  0
 21 28  1  0
 21 20  1  0
 21 22  1  6
 23 22  1  0
 24 23  2  0
 25 24  1  0
 26 25  1  0
 26 27  2  0
 27 23  1  0
 28 29  1  0
 30 28  2  0
M  END
$$$$
