NRH.pdb
     RDKit          3D

 30 30  0  0  1  0  0  0  0  0999 V2000
   13.7102  -20.5445   18.2405 N   0  0  0  0  0  0  0  0  0  0  0  0
   12.4952  -19.9135   18.6173 C   0  0  0  0  0  0  0  0  0  0  0  0
   11.5058  -20.0661   17.8558 O   0  0  0  0  0  0  0  0  0  0  0  0
   12.4159  -19.1150   19.8556 C   0  0  0  0  0  0  0  0  0  0  0  0
   12.2780  -17.6419   19.4569 C   0  0  2  0  0  0  0  0  0  0  0  0
   13.6181  -17.2257   19.0511 N   0  0  0  0  0  0  0  0  0  0  0  0
   11.8137  -16.8208   20.6056 C   0  0  0  0  0  0  0  0  0  0  0  0
   12.6212  -16.5094   21.5185 O   0  0  0  0  0  0  0  0  0  0  0  0
    8.0960  -12.9316   17.3554 N   0  0  0  0  0  0  0  0  0  0  0  0
    7.4973  -14.1172   17.8436 C   0  0  0  0  0  0  0  0  0  0  0  0
    7.4156  -15.1995   17.1226 N   0  0  0  0  0  0  0  0  0  0  0  0
    6.9403  -14.2161   19.1542 N   0  0  0  0  0  0  0  0  0  0  0  0
    7.3855  -13.3849   20.2210 C   0  0  0  0  0  0  0  0  0  0  0  0
    8.7907  -13.7135   20.7044 C   0  0  0  0  0  0  0  0  0  0  0  0
    8.7005  -15.0033   21.4605 C   0  0  0  0  0  0  0  0  0  0  0  0
   10.0010  -15.6117   21.8872 C   0  0  2  0  0  0  0  0  0  0  0  0
   10.4810  -16.3759   20.7038 N   0  0  0  0  0  0  0  0  0  0  0  0
    9.9030  -16.5786   23.0006 C   0  0  0  0  0  0  0  0  0  0  0  0
    9.1478  -17.6099   22.8607 O   0  0  0  0  0  0  0  0  0  0  0  0
    7.0412  -16.0471   17.6002 N   0  0  0  0  0  0  0  0  0  0  0  0
   10.5955  -16.4593   24.2407 C   0  0  1  0  0  0  0  0  0  0  0  0
   10.3089  -17.4020   25.3156 C   0  0  0  0  0  0  0  0  0  0  0  0
   11.5894  -18.0277   25.7956 C   0  0  0  0  0  0  0  0  0  0  0  0
   12.1926  -18.9314   24.7997 C   0  0  0  0  0  0  0  0  0  0  0  0
   13.0715  -18.5921   23.7811 N   0  0  0  0  0  0  0  0  0  0  0  0
   13.3880  -19.6907   23.0745 C   0  0  0  0  0  0  0  0  0  0  0  0
   12.7256  -20.7197   23.6267 N   0  0  0  0  0  0  0  0  0  0  0  0
   12.0062  -20.2742   24.6617 C   0  0  0  0  0  0  0  0  0  0  0  0
    9.6038  -16.7102   26.4128 O   0  0  0  0  0  0  0  0  0  0  0  0
    9.2861  -15.3688   26.2801 O   0  0  0  0  0  0  0  0  0  0  0  0
  2  1  1  0
  3  2  2  0
  4  2  1  0
  4  5  1  0
  5  6  1  1
  7  5  1  0
  7  8  2  0
 10 12  1  0
 10  9  1  0
 11 10  2  0
 13 14  1  0
 13 12  1  0
 14 15  1  0
 16 15  1  6
 16 17  1  0
 17  7  1  0
 18 16  1  0
 19 18  2  0
 20 18  1  0
 21 28  1  0
 21 20  1  0
 21 22  1  1
 23 22  1  0
 24 23  2  0
 25 24  1  0
 26 25  1  0
 26 27  2  0
 27 23  1  0
 28 29  1  0
 30 28  2  0
M  END
$$$$
