NRH.pdb
     RDKit          3D

 30 30  0  0  1  0  0  0  0  0999 V2000
    7.8899  -12.2012   17.1457 N   0  0  0  0  0  0  0  0  0  0  0  0
    7.5921  -13.5531   16.8293 C   0  0  0  0  0  0  0  0  0  0  0  0
    7.1107  -13.7864   15.6910 O   0  0  0  0  0  0  0  0  0  0  0  0
    7.8439  -14.6270   17.8094 C   0  0  0  0  0  0  0  0  0  0  0  0
    8.3009  -13.9721   19.1172 C   0  0  2  0  0  0  0  0  0  0  0  0
    9.5277  -13.2543   18.7803 N   0  0  0  0  0  0  0  0  0  0  0  0
    8.5776  -14.9971   20.1574 C   0  0  0  0  0  0  0  0  0  0  0  0
    7.6294  -15.6634   20.6465 O   0  0  0  0  0  0  0  0  0  0  0  0
   13.8123  -17.0113   17.7871 N   0  0  0  0  0  0  0  0  0  0  0  0
   14.3887  -15.9558   18.5327 C   0  0  0  0  0  0  0  0  0  0  0  0
   14.8397  -14.8728   17.9654 N   0  0  0  0  0  0  0  0  0  0  0  0
   14.5197  -15.9976   19.9535 N   0  0  0  0  0  0  0  0  0  0  0  0
   13.5212  -16.5871   20.7798 C   0  0  0  0  0  0  0  0  0  0  0  0
   12.1305  -16.5698   20.1620 C   0  0  0  0  0  0  0  0  0  0  0  0
   11.1943  -17.1435   21.1807 C   0  0  0  0  0  0  0  0  0  0  0  0
   10.1512  -16.2127   21.7183 C   0  0  2  0  0  0  0  0  0  0  0  0
    9.8851  -15.2473   20.6174 N   0  0  0  0  0  0  0  0  0  0  0  0
   10.5711  -15.4118   22.8873 C   0  0  0  0  0  0  0  0  0  0  0  0
   11.0712  -14.2436   22.6905 O   0  0  0  0  0  0  0  0  0  0  0  0
   15.2186  -14.1395   18.6022 N   0  0  0  0  0  0  0  0  0  0  0  0
   10.4605  -15.8376   24.2431 C   0  0  1  0  0  0  0  0  0  0  0  0
    9.6662  -15.0507   25.1792 C   0  0  0  0  0  0  0  0  0  0  0  0
    8.3816  -14.6268   24.5222 C   0  0  0  0  0  0  0  0  0  0  0  0
    7.5308  -13.8086   25.4048 C   0  0  0  0  0  0  0  0  0  0  0  0
    7.8193  -13.3872   26.6949 N   0  0  0  0  0  0  0  0  0  0  0  0
    6.7891  -12.6705   27.1757 C   0  0  0  0  0  0  0  0  0  0  0  0
    5.8531  -12.6302   26.2140 N   0  0  0  0  0  0  0  0  0  0  0  0
    6.2889  -13.3099   25.1484 C   0  0  0  0  0  0  0  0  0  0  0  0
    9.4110  -15.8368   26.4025 O   0  0  0  0  0  0  0  0  0  0  0  0
    8.8950  -17.1175   26.2945 O   0  0  0  0  0  0  0  0  0  0  0  0
  2  1  1  0
  3  2  2  0
  4  2  1  0
  4  5  1  0
  5  6  1  6
  7  5  1  0
  7  8  2  0
 10 12  1  0
 10  9  1  0
 11 10  2  0
 13 14  1  0
 13 12  1  0
 14 15  1  0
 16 15  1  6
 16 17  1  0
 17  7  1  0
 18 16  1  0
 19 18  2  0
 20 18  1  0
 21 28  1  0
 21 20  1  0
 21 22  1  1
 23 22  1  0
 24 23  2  0
 25 24  1  0
 26 25  1  0
 26 27  2  0
 27 23  1  0
 28 29  1  0
 30 28  2  0
M  END
$$$$
