NRH.pdb
     RDKit          3D

 30 30  0  0  1  0  0  0  0  0999 V2000
   14.6300  -18.3324   19.7959 N   0  0  0  0  0  0  0  0  0  0  0  0
   13.9081  -17.4751   18.9238 C   0  0  0  0  0  0  0  0  0  0  0  0
   14.4271  -17.2188   17.8071 O   0  0  0  0  0  0  0  0  0  0  0  0
   12.6036  -16.9172   19.3288 C   0  0  0  0  0  0  0  0  0  0  0  0
   12.2993  -17.4145   20.7459 C   0  0  2  0  0  0  0  0  0  0  0  0
   11.4666  -18.6013   20.5669 N   0  0  0  0  0  0  0  0  0  0  0  0
   11.5616  -16.3853   21.5242 C   0  0  0  0  0  0  0  0  0  0  0  0
   12.1259  -15.3002   21.8181 O   0  0  0  0  0  0  0  0  0  0  0  0
    6.5499  -12.4606   18.3408 N   0  0  0  0  0  0  0  0  0  0  0  0
    7.5035  -13.3677   17.8210 C   0  0  0  0  0  0  0  0  0  0  0  0
    7.4473  -13.8042   16.5945 N   0  0  0  0  0  0  0  0  0  0  0  0
    8.5915  -13.8706   18.5962 N   0  0  0  0  0  0  0  0  0  0  0  0
    8.5043  -14.0013   20.0113 C   0  0  0  0  0  0  0  0  0  0  0  0
    8.2592  -15.4291   20.4776 C   0  0  0  0  0  0  0  0  0  0  0  0
    8.1875  -15.3925   21.9732 C   0  0  0  0  0  0  0  0  0  0  0  0
    9.4871  -15.5478   22.7013 C   0  0  2  0  0  0  0  0  0  0  0  0
   10.2342  -16.5912   21.9477 N   0  0  0  0  0  0  0  0  0  0  0  0
    9.3702  -16.0358   24.0914 C   0  0  0  0  0  0  0  0  0  0  0  0
    8.9097  -17.2189   24.2959 O   0  0  0  0  0  0  0  0  0  0  0  0
    8.1935  -14.4726   16.3060 N   0  0  0  0  0  0  0  0  0  0  0  0
    9.7381  -15.2866   25.2469 C   0  0  2  0  0  0  0  0  0  0  0  0
    9.1929  -15.6597   26.5468 C   0  0  0  0  0  0  0  0  0  0  0  0
    7.7005  -15.4749   26.5423 C   0  0  0  0  0  0  0  0  0  0  0  0
    7.3000  -14.0565   26.5351 C   0  0  0  0  0  0  0  0  0  0  0  0
    8.1248  -12.9500   26.6783 N   0  0  0  0  0  0  0  0  0  0  0  0
    7.3862  -11.8282   26.6304 C   0  0  0  0  0  0  0  0  0  0  0  0
    6.1086  -12.2037   26.4597 N   0  0  0  0  0  0  0  0  0  0  0  0
    6.0470  -13.5379   26.4014 C   0  0  0  0  0  0  0  0  0  0  0  0
    9.5614  -17.0541   26.8622 O   0  0  0  0  0  0  0  0  0  0  0  0
    9.2999  -17.5594   28.1249 O   0  0  0  0  0  0  0  0  0  0  0  0
  2  1  1  0
  3  2  2  0
  4  2  1  0
  4  5  1  0
  5  6  1  6
  7  5  1  0
  7  8  2  0
 10 12  1  0
 10  9  1  0
 11 10  2  0
 13 14  1  0
 13 12  1  0
 14 15  1  0
 16 15  1  6
 16 17  1  0
 17  7  1  0
 18 16  1  0
 19 18  2  0
 20 18  1  0
 21 28  1  0
 21 20  1  0
 21 22  1  1
 23 22  1  0
 24 23  2  0
 25 24  1  0
 26 25  1  0
 26 27  2  0
 27 23  1  0
 28 29  1  0
 30 28  2  0
M  END
$$$$
