NRH.pdb
     RDKit          3D

 30 30  0  0  1  0  0  0  0  0999 V2000
    7.5711  -12.1095   17.0198 N   0  0  0  0  0  0  0  0  0  0  0  0
    7.8973  -13.4911   16.9843 C   0  0  0  0  0  0  0  0  0  0  0  0
    8.4821  -13.9193   15.9564 O   0  0  0  0  0  0  0  0  0  0  0  0
    7.5557  -14.3729   18.1169 C   0  0  0  0  0  0  0  0  0  0  0  0
    8.5999  -14.1517   19.2163 C   0  0  2  0  0  0  0  0  0  0  0  0
    9.8884  -14.1459   18.5281 N   0  0  0  0  0  0  0  0  0  0  0  0
    8.5600  -15.2500   20.2170 C   0  0  0  0  0  0  0  0  0  0  0  0
    7.5094  -15.4563   20.8774 O   0  0  0  0  0  0  0  0  0  0  0  0
    9.6642  -23.2492   19.9759 N   0  0  0  0  0  0  0  0  0  0  0  0
   10.0077  -23.0824   21.3384 C   0  0  0  0  0  0  0  0  0  0  0  0
   10.0282  -24.0814   22.1748 N   0  0  0  0  0  0  0  0  0  0  0  0
   10.3545  -21.8151   21.8963 N   0  0  0  0  0  0  0  0  0  0  0  0
   10.2406  -20.6107   21.1454 C   0  0  0  0  0  0  0  0  0  0  0  0
   10.7912  -19.3886   21.8662 C   0  0  0  0  0  0  0  0  0  0  0  0
   10.5674  -18.2137   20.9646 C   0  0  0  0  0  0  0  0  0  0  0  0
    9.6475  -17.1503   21.4806 C   0  0  2  0  0  0  0  0  0  0  0  0
    9.6765  -16.0762   20.4509 N   0  0  0  0  0  0  0  0  0  0  0  0
   10.0665  -16.5249   22.7524 C   0  0  0  0  0  0  0  0  0  0  0  0
   10.9478  -15.5889   22.7216 O   0  0  0  0  0  0  0  0  0  0  0  0
   10.2746  -23.8541   23.1620 N   0  0  0  0  0  0  0  0  0  0  0  0
    9.5591  -16.8804   24.0361 C   0  0  2  0  0  0  0  0  0  0  0  0
   10.1001  -16.2331   25.2254 C   0  0  0  0  0  0  0  0  0  0  0  0
    9.0357  -15.3901   25.8720 C   0  0  0  0  0  0  0  0  0  0  0  0
    9.4734  -14.7965   27.1481 C   0  0  0  0  0  0  0  0  0  0  0  0
   10.7031  -14.9556   27.7706 N   0  0  0  0  0  0  0  0  0  0  0  0
   10.7166  -14.2664   28.9243 C   0  0  0  0  0  0  0  0  0  0  0  0
    9.5179  -13.6737   29.0443 N   0  0  0  0  0  0  0  0  0  0  0  0
    8.7657  -13.9857   27.9841 C   0  0  0  0  0  0  0  0  0  0  0  0
   10.6187  -17.2533   26.1580 O   0  0  0  0  0  0  0  0  0  0  0  0
   11.5070  -16.8792   27.1524 O   0  0  0  0  0  0  0  0  0  0  0  0
  2  1  1  0
  3  2  2  0
  4  2  1  0
  4  5  1  0
  5  6  1  6
  7  5  1  0
  7  8  2  0
 10 12  1  0
 10  9  1  0
 11 10  2  0
 13 14  1  0
 13 12  1  0
 14 15  1  0
 16 15  1  6
 16 17  1  0
 17  7  1  0
 18 16  1  0
 19 18  2  0
 20 18  1  0
 21 28  1  0
 21 20  1  0
 21 22  1  6
 23 22  1  0
 24 23  2  0
 25 24  1  0
 26 25  1  0
 26 27  2  0
 27 23  1  0
 28 29  1  0
 30 28  2  0
M  END
$$$$
