NRH.pdb
     RDKit          3D

 30 30  0  0  1  0  0  0  0  0999 V2000
    8.7788  -12.5961   17.7435 N   0  0  0  0  0  0  0  0  0  0  0  0
    7.5389  -13.2879   17.7242 C   0  0  0  0  0  0  0  0  0  0  0  0
    6.7825  -13.0884   16.7392 O   0  0  0  0  0  0  0  0  0  0  0  0
    7.1701  -14.1996   18.8240 C   0  0  0  0  0  0  0  0  0  0  0  0
    8.2024  -14.0275   19.9434 C   0  0  2  0  0  0  0  0  0  0  0  0
    9.4924  -14.3270   19.3269 N   0  0  0  0  0  0  0  0  0  0  0  0
    7.9384  -14.9716   21.0606 C   0  0  0  0  0  0  0  0  0  0  0  0
    6.8759  -14.8710   21.7264 O   0  0  0  0  0  0  0  0  0  0  0  0
   12.7367  -19.5690   22.1946 N   0  0  0  0  0  0  0  0  0  0  0  0
   12.1511  -20.3328   23.2320 C   0  0  0  0  0  0  0  0  0  0  0  0
   12.6844  -20.4136   24.4182 N   0  0  0  0  0  0  0  0  0  0  0  0
   10.9404  -21.0686   23.0582 N   0  0  0  0  0  0  0  0  0  0  0  0
    9.8753  -20.5768   22.2513 C   0  0  0  0  0  0  0  0  0  0  0  0
    9.0954  -19.4408   22.8973 C   0  0  0  0  0  0  0  0  0  0  0  0
    9.2521  -18.2449   22.0093 C   0  0  0  0  0  0  0  0  0  0  0  0
    8.5381  -17.0016   22.4426 C   0  0  2  0  0  0  0  0  0  0  0  0
    8.8532  -15.9873   21.4003 N   0  0  0  0  0  0  0  0  0  0  0  0
    8.9928  -16.4365   23.7303 C   0  0  0  0  0  0  0  0  0  0  0  0
   10.1397  -15.8574   23.7820 O   0  0  0  0  0  0  0  0  0  0  0  0
   12.2173  -21.0561   25.0933 N   0  0  0  0  0  0  0  0  0  0  0  0
    8.2452  -16.4794   24.9432 C   0  0  2  0  0  0  0  0  0  0  0  0
    8.8229  -15.9241   26.1615 C   0  0  0  0  0  0  0  0  0  0  0  0
    7.7452  -15.2682   26.9800 C   0  0  0  0  0  0  0  0  0  0  0  0
    7.2207  -14.0404   26.3558 C   0  0  0  0  0  0  0  0  0  0  0  0
    7.7436  -13.3642   25.2629 N   0  0  0  0  0  0  0  0  0  0  0  0
    6.9915  -12.2817   25.0007 C   0  0  0  0  0  0  0  0  0  0  0  0
    6.0017  -12.2595   25.9076 N   0  0  0  0  0  0  0  0  0  0  0  0
    6.1309  -13.3100   26.7243 C   0  0  0  0  0  0  0  0  0  0  0  0
    9.5033  -16.9901   26.9232 O   0  0  0  0  0  0  0  0  0  0  0  0
   10.1906  -16.6678   28.0815 O   0  0  0  0  0  0  0  0  0  0  0  0
  2  1  1  0
  3  2  2  0
  4  2  1  0
  4  5  1  0
  5  6  1  6
  7  5  1  0
  7  8  2  0
 10 12  1  0
 10  9  1  0
 11 10  2  0
 13 14  1  0
 13 12  1  0
 14 15  1  0
 16 15  1  6
 16 17  1  0
 17  7  1  0
 18 16  1  0
 19 18  2  0
 20 18  1  0
 21 28  1  0
 21 20  1  0
 21 22  1  1
 23 22  1  0
 24 23  2  0
 25 24  1  0
 26 25  1  0
 26 27  2  0
 27 23  1  0
 28 29  1  0
 30 28  2  0
M  END
$$$$
