NRH.pdb
     RDKit          3D

 30 30  0  0  1  0  0  0  0  0999 V2000
   16.4053  -14.2322   19.0305 N   0  0  0  0  0  0  0  0  0  0  0  0
   15.3971  -15.1513   19.4245 C   0  0  0  0  0  0  0  0  0  0  0  0
   15.3830  -16.2717   18.8531 O   0  0  0  0  0  0  0  0  0  0  0  0
   14.4145  -14.7886   20.4637 C   0  0  0  0  0  0  0  0  0  0  0  0
   13.0213  -15.1556   19.9419 C   0  0  2  0  0  0  0  0  0  0  0  0
   12.7697  -14.2354   18.8357 N   0  0  0  0  0  0  0  0  0  0  0  0
   11.9925  -14.9767   20.9997 C   0  0  0  0  0  0  0  0  0  0  0  0
   11.8354  -13.8491   21.5347 O   0  0  0  0  0  0  0  0  0  0  0  0
    8.4678  -14.1227   17.7268 N   0  0  0  0  0  0  0  0  0  0  0  0
    8.1500  -13.3732   18.8842 C   0  0  0  0  0  0  0  0  0  0  0  0
    8.6638  -12.1973   19.1105 N   0  0  0  0  0  0  0  0  0  0  0  0
    7.2490  -13.8460   19.8853 N   0  0  0  0  0  0  0  0  0  0  0  0
    7.7055  -14.5830   21.0148 C   0  0  0  0  0  0  0  0  0  0  0  0
    8.3818  -15.8973   20.6524 C   0  0  0  0  0  0  0  0  0  0  0  0
    8.9029  -16.4851   21.9277 C   0  0  0  0  0  0  0  0  0  0  0  0
   10.1469  -15.8625   22.4827 C   0  0  2  0  0  0  0  0  0  0  0  0
   11.1790  -16.0444   21.4261 N   0  0  0  0  0  0  0  0  0  0  0  0
   10.6767  -16.5059   23.7031 C   0  0  0  0  0  0  0  0  0  0  0  0
   11.8082  -17.1138   23.6416 O   0  0  0  0  0  0  0  0  0  0  0  0
    8.4626  -11.7754   20.0423 N   0  0  0  0  0  0  0  0  0  0  0  0
   10.0227  -16.5034   24.9696 C   0  0  1  0  0  0  0  0  0  0  0  0
   10.6440  -17.1856   26.0987 C   0  0  0  0  0  0  0  0  0  0  0  0
    9.9029  -16.8501   27.3636 C   0  0  0  0  0  0  0  0  0  0  0  0
    9.8864  -15.4045   27.6503 C   0  0  0  0  0  0  0  0  0  0  0  0
   10.5129  -14.3980   26.9295 N   0  0  0  0  0  0  0  0  0  0  0  0
   10.2741  -13.2108   27.5125 C   0  0  0  0  0  0  0  0  0  0  0  0
    9.5081  -13.4467   28.5895 N   0  0  0  0  0  0  0  0  0  0  0  0
    9.2704  -14.7592   28.6804 C   0  0  0  0  0  0  0  0  0  0  0  0
   10.6613  -18.6416   25.8554 O   0  0  0  0  0  0  0  0  0  0  0  0
   11.3372  -19.4716   26.7342 O   0  0  0  0  0  0  0  0  0  0  0  0
  2  1  1  0
  3  2  2  0
  4  2  1  0
  4  5  1  0
  5  6  1  6
  7  5  1  0
  7  8  2  0
 10 12  1  0
 10  9  1  0
 11 10  2  0
 13 14  1  0
 13 12  1  0
 14 15  1  0
 16 15  1  6
 16 17  1  0
 17  7  1  0
 18 16  1  0
 19 18  2  0
 20 18  1  0
 21 28  1  0
 21 20  1  0
 21 22  1  1
 23 22  1  0
 24 23  2  0
 25 24  1  0
 26 25  1  0
 26 27  2  0
 27 23  1  0
 28 29  1  0
 30 28  2  0
M  END
$$$$
