NRH.pdb
     RDKit          3D

 30 30  0  0  1  0  0  0  0  0999 V2000
   16.3068  -16.4902   16.9926 N   0  0  0  0  0  0  0  0  0  0  0  0
   16.7640  -15.8508   18.1753 C   0  0  0  0  0  0  0  0  0  0  0  0
   17.9879  -15.9495   18.4479 O   0  0  0  0  0  0  0  0  0  0  0  0
   15.8263  -15.1056   19.0369 C   0  0  0  0  0  0  0  0  0  0  0  0
   14.4144  -15.3014   18.4745 C   0  0  2  0  0  0  0  0  0  0  0  0
   14.3803  -14.5217   17.2397 N   0  0  0  0  0  0  0  0  0  0  0  0
   13.3883  -14.7984   19.4250 C   0  0  0  0  0  0  0  0  0  0  0  0
   13.5862  -13.7233   20.0473 O   0  0  0  0  0  0  0  0  0  0  0  0
    7.5505  -12.1327   18.0003 N   0  0  0  0  0  0  0  0  0  0  0  0
    7.8501  -13.4067   17.4622 C   0  0  0  0  0  0  0  0  0  0  0  0
    8.0759  -13.5860   16.1914 N   0  0  0  0  0  0  0  0  0  0  0  0
    7.9263  -14.5842   18.2654 N   0  0  0  0  0  0  0  0  0  0  0  0
    7.5069  -14.5901   19.6261 C   0  0  0  0  0  0  0  0  0  0  0  0
    8.6599  -14.6115   20.6193 C   0  0  0  0  0  0  0  0  0  0  0  0
    9.9086  -14.8636   19.8316 C   0  0  0  0  0  0  0  0  0  0  0  0
   11.1721  -15.0059   20.6232 C   0  0  2  0  0  0  0  0  0  0  0  0
   12.1872  -15.4979   19.6526 N   0  0  0  0  0  0  0  0  0  0  0  0
   11.1170  -16.0008   21.7146 C   0  0  0  0  0  0  0  0  0  0  0  0
   10.6691  -17.1784   21.4572 O   0  0  0  0  0  0  0  0  0  0  0  0
    8.2608  -14.5659   15.8875 N   0  0  0  0  0  0  0  0  0  0  0  0
   11.5326  -15.7562   23.0559 C   0  0  2  0  0  0  0  0  0  0  0  0
   10.5335  -15.6948   24.1162 C   0  0  0  0  0  0  0  0  0  0  0  0
    9.4418  -14.7357   23.7289 C   0  0  0  0  0  0  0  0  0  0  0  0
    8.4908  -14.4790   24.8252 C   0  0  0  0  0  0  0  0  0  0  0  0
    7.3048  -13.7621   24.7578 N   0  0  0  0  0  0  0  0  0  0  0  0
    6.7227  -13.7391   25.9689 C   0  0  0  0  0  0  0  0  0  0  0  0
    7.5183  -14.4281   26.8025 N   0  0  0  0  0  0  0  0  0  0  0  0
    8.5809  -14.8756   26.1258 C   0  0  0  0  0  0  0  0  0  0  0  0
    9.9961  -17.0451   24.3758 O   0  0  0  0  0  0  0  0  0  0  0  0
   10.8411  -18.0361   24.8470 O   0  0  0  0  0  0  0  0  0  0  0  0
  2  1  1  0
  3  2  2  0
  4  2  1  0
  4  5  1  0
  5  6  1  6
  7  5  1  0
  7  8  2  0
 10 12  1  0
 10  9  1  0
 11 10  2  0
 13 14  1  0
 13 12  1  0
 14 15  1  0
 16 15  1  6
 16 17  1  0
 17  7  1  0
 18 16  1  0
 19 18  2  0
 20 18  1  0
 21 28  1  0
 21 20  1  0
 21 22  1  1
 23 22  1  0
 24 23  2  0
 25 24  1  0
 26 25  1  0
 26 27  2  0
 27 23  1  0
 28 29  1  0
 30 28  2  0
M  END
$$$$
