NRH.pdb
     RDKit          3D

 30 30  0  0  1  0  0  0  0  0999 V2000
   16.6853  -15.8973   18.8512 N   0  0  0  0  0  0  0  0  0  0  0  0
   15.8869  -14.8308   18.3595 C   0  0  0  0  0  0  0  0  0  0  0  0
   16.3669  -14.1322   17.4302 O   0  0  0  0  0  0  0  0  0  0  0  0
   14.5511  -14.5683   18.9283 C   0  0  0  0  0  0  0  0  0  0  0  0
   14.2713  -15.6415   19.9857 C   0  0  2  0  0  0  0  0  0  0  0  0
   13.8173  -16.8107   19.2370 N   0  0  0  0  0  0  0  0  0  0  0  0
   13.2126  -15.1960   20.9290 C   0  0  0  0  0  0  0  0  0  0  0  0
   13.4356  -14.2365   21.7114 O   0  0  0  0  0  0  0  0  0  0  0  0
    5.9326  -12.9769   18.7371 N   0  0  0  0  0  0  0  0  0  0  0  0
    7.3181  -13.2520   18.6518 C   0  0  0  0  0  0  0  0  0  0  0  0
    8.0384  -12.8712   17.6350 N   0  0  0  0  0  0  0  0  0  0  0  0
    8.0264  -13.9636   19.6664 N   0  0  0  0  0  0  0  0  0  0  0  0
    7.3582  -14.8285   20.5789 C   0  0  0  0  0  0  0  0  0  0  0  0
    8.2715  -15.4082   21.6495 C   0  0  0  0  0  0  0  0  0  0  0  0
    9.5835  -15.7028   20.9898 C   0  0  0  0  0  0  0  0  0  0  0  0
   10.8066  -15.2168   21.7046 C   0  0  2  0  0  0  0  0  0  0  0  0
   11.9524  -15.8234   20.9738 N   0  0  0  0  0  0  0  0  0  0  0  0
   10.9248  -15.6564   23.1107 C   0  0  0  0  0  0  0  0  0  0  0  0
   11.3667  -16.8389   23.3550 O   0  0  0  0  0  0  0  0  0  0  0  0
    9.0030  -13.2626   17.5781 N   0  0  0  0  0  0  0  0  0  0  0  0
   10.5849  -14.8570   24.2408 C   0  0  2  0  0  0  0  0  0  0  0  0
   10.7510  -15.4042   25.5822 C   0  0  0  0  0  0  0  0  0  0  0  0
   10.5671  -14.3133   26.6008 C   0  0  0  0  0  0  0  0  0  0  0  0
   10.6438  -14.8070   27.9875 C   0  0  0  0  0  0  0  0  0  0  0  0
   10.9110  -16.1032   28.4040 N   0  0  0  0  0  0  0  0  0  0  0  0
   10.8826  -16.1599   29.7465 C   0  0  0  0  0  0  0  0  0  0  0  0
   10.6021  -14.9235   30.1881 N   0  0  0  0  0  0  0  0  0  0  0  0
   10.4573  -14.1054   29.1407 C   0  0  0  0  0  0  0  0  0  0  0  0
    9.7920  -16.5062   25.7950 O   0  0  0  0  0  0  0  0  0  0  0  0
    8.6425  -16.5678   25.0251 O   0  0  0  0  0  0  0  0  0  0  0  0
  2  1  1  0
  3  2  2  0
  4  2  1  0
  4  5  1  0
  5  6  1  6
  7  5  1  0
  7  8  2  0
 10 12  1  0
 10  9  1  0
 11 10  2  0
 13 14  1  0
 13 12  1  0
 14 15  1  0
 16 15  1  6
 16 17  1  0
 17  7  1  0
 18 16  1  0
 19 18  2  0
 20 18  1  0
 21 28  1  0
 21 20  1  0
 21 22  1  6
 23 22  1  0
 24 23  2  0
 25 24  1  0
 26 25  1  0
 26 27  2  0
 27 23  1  0
 28 29  1  0
 30 28  2  0
M  END
$$$$
