NVQ.pdb
     RDKit          3D

 25 24  0  0  1  0  0  0  0  0999 V2000
    7.7635  -20.8192   16.6849 N   0  0  0  0  0  0  0  0  0  0  0  0
    7.2403  -19.5580   17.0611 C   0  0  0  0  0  0  0  0  0  0  0  0
    6.0678  -19.2569   16.7348 O   0  0  0  0  0  0  0  0  0  0  0  0
    8.0900  -18.6414   17.8232 C   0  0  0  0  0  0  0  0  0  0  0  0
    7.9189  -17.1951   17.3984 C   0  0  2  0  0  0  0  0  0  0  0  0
    8.3714  -16.9982   16.0358 N   0  0  0  0  0  0  0  0  0  0  0  0
    8.7186  -16.3825   18.3543 C   0  0  0  0  0  0  0  0  0  0  0  0
    9.9649  -16.3534   18.1925 O   0  0  0  0  0  0  0  0  0  0  0  0
    7.4242  -12.9035   19.8481 C   0  0  0  0  0  0  0  0  0  0  0  0
    7.9317  -13.8276   20.8898 C   0  0  1  0  0  0  0  0  0  0  0  0
    6.8217  -14.5337   21.6370 C   0  0  0  0  0  0  0  0  0  0  0  0
    8.9401  -14.8113   20.3361 C   0  0  2  0  0  0  0  0  0  0  0  0
    8.1628  -15.6522   19.4187 N   0  0  0  0  0  0  0  0  0  0  0  0
    9.5770  -15.6480   21.3750 C   0  0  0  0  0  0  0  0  0  0  0  0
    9.0974  -16.7891   21.7004 O   0  0  0  0  0  0  0  0  0  0  0  0
   16.2827  -17.1350   24.2622 N   0  0  0  0  0  0  0  0  0  0  0  0
   15.2644  -16.3906   23.5667 C   0  0  0  0  0  0  0  0  0  0  0  0
   15.5824  -15.3506   22.9404 O   0  0  0  0  0  0  0  0  0  0  0  0
   13.8491  -16.8283   23.5760 C   0  0  0  0  0  0  0  0  0  0  0  0
   12.9977  -15.8102   22.8688 C   0  0  0  0  0  0  0  0  0  0  0  0
   11.5357  -16.2359   22.8302 C   0  0  2  0  0  0  0  0  0  0  0  0
   10.7420  -15.2693   22.0757 N   0  0  0  0  0  0  0  0  0  0  0  0
   11.0161  -16.3661   24.2164 C   0  0  0  0  0  0  0  0  0  0  0  0
   11.3959  -17.2487   25.0216 O   0  0  0  0  0  0  0  0  0  0  0  0
   10.0499  -15.4682   24.6745 O   0  0  0  0  0  0  0  0  0  0  0  0
  2  4  1  0
  2  1  1  0
  3  2  2  0
  5  6  1  6
  5  7  1  0
  5  4  1  0
  7  8  2  0
 10  9  1  6
 10 12  1  0
 11 10  1  0
 12 14  1  0
 12 13  1  6
 13  7  1  0
 14 22  1  0
 14 15  2  0
 16 17  1  0
 17 18  2  0
 19 17  1  0
 19 20  1  0
 21 20  1  1
 21 23  1  0
 22 21  1  0
 23 24  2  0
 23 25  1  0
M  END
$$$$
