NVQ.pdb
     RDKit          3D

 25 24  0  0  1  0  0  0  0  0999 V2000
   13.0422  -18.7884   16.2879 N   0  0  0  0  0  0  0  0  0  0  0  0
   11.6961  -18.3525   16.3501 C   0  0  0  0  0  0  0  0  0  0  0  0
   10.8292  -18.9332   15.6550 O   0  0  0  0  0  0  0  0  0  0  0  0
   11.3581  -17.2316   17.2290 C   0  0  0  0  0  0  0  0  0  0  0  0
   10.1168  -17.4939   18.0607 C   0  0  2  0  0  0  0  0  0  0  0  0
    8.9199  -17.4004   17.2490 N   0  0  0  0  0  0  0  0  0  0  0  0
   10.1157  -16.4716   19.1417 C   0  0  0  0  0  0  0  0  0  0  0  0
   11.1386  -16.3918   19.8681 O   0  0  0  0  0  0  0  0  0  0  0  0
    7.4920  -12.8401   21.3099 C   0  0  0  0  0  0  0  0  0  0  0  0
    7.8276  -13.7421   20.1828 C   0  0  1  0  0  0  0  0  0  0  0  0
    8.0288  -13.0005   18.8796 C   0  0  0  0  0  0  0  0  0  0  0  0
    9.0077  -14.6352   20.5002 C   0  0  2  0  0  0  0  0  0  0  0  0
    9.0441  -15.5979   19.3934 N   0  0  0  0  0  0  0  0  0  0  0  0
    8.8761  -15.3479   21.7885 C   0  0  0  0  0  0  0  0  0  0  0  0
    7.9331  -16.1886   21.9935 O   0  0  0  0  0  0  0  0  0  0  0  0
   13.6201  -16.8394   23.0912 N   0  0  0  0  0  0  0  0  0  0  0  0
   12.7708  -17.8525   23.6631 C   0  0  0  0  0  0  0  0  0  0  0  0
   13.2888  -18.8898   24.1436 O   0  0  0  0  0  0  0  0  0  0  0  0
   11.2983  -17.6946   23.6954 C   0  0  0  0  0  0  0  0  0  0  0  0
   10.9323  -16.5151   24.5535 C   0  0  0  0  0  0  0  0  0  0  0  0
    9.6043  -15.9044   24.1251 C   0  0  2  0  0  0  0  0  0  0  0  0
    9.7608  -15.1682   22.8732 N   0  0  0  0  0  0  0  0  0  0  0  0
    9.0981  -15.0070   25.1961 C   0  0  0  0  0  0  0  0  0  0  0  0
    9.0652  -13.7576   25.0989 O   0  0  0  0  0  0  0  0  0  0  0  0
    8.6263  -15.5593   26.3886 O   0  0  0  0  0  0  0  0  0  0  0  0
  2  4  1  0
  2  1  1  0
  3  2  2  0
  5  6  1  6
  5  7  1  0
  5  4  1  0
  7  8  2  0
 10  9  1  1
 10 12  1  0
 11 10  1  0
 12 14  1  0
 12 13  1  6
 13  7  1  0
 14 22  1  0
 14 15  2  0
 16 17  1  0
 17 18  2  0
 19 17  1  0
 19 20  1  0
 21 20  1  1
 21 23  1  0
 22 21  1  0
 23 24  2  0
 23 25  1  0
M  END
$$$$
