NVQ.pdb
     RDKit          3D

 25 24  0  0  1  0  0  0  0  0999 V2000
    5.9261  -19.3562   17.1309 N   0  0  0  0  0  0  0  0  0  0  0  0
    7.2499  -19.6018   17.5704 C   0  0  0  0  0  0  0  0  0  0  0  0
    7.8928  -20.5596   17.0793 O   0  0  0  0  0  0  0  0  0  0  0  0
    7.8282  -18.7246   18.5897 C   0  0  0  0  0  0  0  0  0  0  0  0
    8.2057  -17.3610   18.0423 C   0  0  2  0  0  0  0  0  0  0  0  0
    9.1351  -17.4854   16.9373 N   0  0  0  0  0  0  0  0  0  0  0  0
    8.8125  -16.6107   19.1747 C   0  0  0  0  0  0  0  0  0  0  0  0
    9.9654  -16.9482   19.5450 O   0  0  0  0  0  0  0  0  0  0  0  0
    7.9410  -12.7772   19.9077 C   0  0  0  0  0  0  0  0  0  0  0  0
    7.8985  -13.6037   21.1373 C   0  0  1  0  0  0  0  0  0  0  0  0
    6.4873  -13.9227   21.5795 C   0  0  0  0  0  0  0  0  0  0  0  0
    8.7362  -14.8578   21.0096 C   0  0  2  0  0  0  0  0  0  0  0  0
    8.1738  -15.5549   19.8474 N   0  0  0  0  0  0  0  0  0  0  0  0
    8.6758  -15.7293   22.2021 C   0  0  0  0  0  0  0  0  0  0  0  0
    8.0084  -16.8213   22.1982 O   0  0  0  0  0  0  0  0  0  0  0  0
   11.9631  -18.9733   21.5969 N   0  0  0  0  0  0  0  0  0  0  0  0
   12.3719  -19.0974   22.9724 C   0  0  0  0  0  0  0  0  0  0  0  0
   13.0895  -20.0682   23.3155 O   0  0  0  0  0  0  0  0  0  0  0  0
   11.9623  -18.1021   23.9903 C   0  0  0  0  0  0  0  0  0  0  0  0
   11.2652  -16.9492   23.3221 C   0  0  0  0  0  0  0  0  0  0  0  0
   10.0838  -16.4573   24.1482 C   0  0  2  0  0  0  0  0  0  0  0  0
    9.3365  -15.4388   23.4148 N   0  0  0  0  0  0  0  0  0  0  0  0
   10.5707  -15.9136   25.4426 C   0  0  0  0  0  0  0  0  0  0  0  0
   10.9606  -16.6293   26.3951 O   0  0  0  0  0  0  0  0  0  0  0  0
   10.6067  -14.5313   25.6366 O   0  0  0  0  0  0  0  0  0  0  0  0
  2  4  1  0
  2  1  1  0
  3  2  2  0
  5  6  1  6
  5  7  1  0
  5  4  1  0
  7  8  2  0
 10  9  1  6
 10 12  1  0
 11 10  1  0
 12 14  1  0
 12 13  1  6
 13  7  1  0
 14 22  1  0
 14 15  2  0
 16 17  1  0
 17 18  2  0
 19 17  1  0
 19 20  1  0
 21 20  1  6
 21 23  1  0
 22 21  1  0
 23 24  2  0
 23 25  1  0
M  END
$$$$
