NVQ.pdb
     RDKit          3D

 25 24  0  0  1  0  0  0  0  0999 V2000
    8.9652  -19.0862   15.6103 N   0  0  0  0  0  0  0  0  0  0  0  0
    9.7635  -17.9394   15.3797 C   0  0  0  0  0  0  0  0  0  0  0  0
   10.4161  -17.8490   14.3130 O   0  0  0  0  0  0  0  0  0  0  0  0
    9.8014  -16.8903   16.4001 C   0  0  0  0  0  0  0  0  0  0  0  0
    9.0336  -17.2653   17.6536 C   0  0  2  0  0  0  0  0  0  0  0  0
    7.6049  -17.1480   17.4407 N   0  0  0  0  0  0  0  0  0  0  0  0
    9.4974  -16.3370   18.7197 C   0  0  0  0  0  0  0  0  0  0  0  0
   10.7320  -16.2862   18.9504 O   0  0  0  0  0  0  0  0  0  0  0  0
    7.5488  -12.9688   19.6556 C   0  0  0  0  0  0  0  0  0  0  0  0
    7.9061  -13.7594   20.8573 C   0  0  1  0  0  0  0  0  0  0  0  0
    6.7253  -14.5042   21.4403 C   0  0  0  0  0  0  0  0  0  0  0  0
    9.0750  -14.6866   20.6021 C   0  0  2  0  0  0  0  0  0  0  0  0
    8.6391  -15.5210   19.4766 N   0  0  0  0  0  0  0  0  0  0  0  0
    9.4153  -15.5370   21.7623 C   0  0  0  0  0  0  0  0  0  0  0  0
    8.7563  -16.6019   22.0260 O   0  0  0  0  0  0  0  0  0  0  0  0
   15.2475  -16.2468   21.5922 N   0  0  0  0  0  0  0  0  0  0  0  0
   14.4085  -16.1607   22.7598 C   0  0  0  0  0  0  0  0  0  0  0  0
   14.8709  -15.6604   23.8138 O   0  0  0  0  0  0  0  0  0  0  0  0
   13.0107  -16.6509   22.7414 C   0  0  0  0  0  0  0  0  0  0  0  0
   12.2982  -16.2019   23.9873 C   0  0  0  0  0  0  0  0  0  0  0  0
   10.7914  -16.1345   23.7745 C   0  0  2  0  0  0  0  0  0  0  0  0
   10.4728  -15.2544   22.6530 N   0  0  0  0  0  0  0  0  0  0  0  0
   10.1322  -15.6534   25.0164 C   0  0  0  0  0  0  0  0  0  0  0  0
   10.1230  -16.2959   26.0928 O   0  0  0  0  0  0  0  0  0  0  0  0
    9.4785  -14.4195   25.0130 O   0  0  0  0  0  0  0  0  0  0  0  0
  2  4  1  0
  2  1  1  0
  3  2  2  0
  5  6  1  6
  5  7  1  0
  5  4  1  0
  7  8  2  0
 10  9  1  6
 10 12  1  0
 11 10  1  0
 12 14  1  0
 12 13  1  6
 13  7  1  0
 14 22  1  0
 14 15  2  0
 16 17  1  0
 17 18  2  0
 19 17  1  0
 19 20  1  0
 21 20  1  1
 21 23  1  0
 22 21  1  0
 23 24  2  0
 23 25  1  0
M  END
$$$$
