NVQ.pdb
     RDKit          3D

 25 24  0  0  1  0  0  0  0  0999 V2000
    5.7555  -16.5458   19.9707 N   0  0  0  0  0  0  0  0  0  0  0  0
    6.3086  -17.3856   20.9679 C   0  0  0  0  0  0  0  0  0  0  0  0
    6.0463  -18.6115   20.9540 O   0  0  0  0  0  0  0  0  0  0  0  0
    7.1738  -16.7920   21.9889 C   0  0  0  0  0  0  0  0  0  0  0  0
    7.1666  -15.2754   21.9521 C   0  0  2  0  0  0  0  0  0  0  0  0
    7.6333  -14.7859   20.6704 N   0  0  0  0  0  0  0  0  0  0  0  0
    8.0572  -14.8276   23.0565 C   0  0  0  0  0  0  0  0  0  0  0  0
    9.2938  -14.8001   22.8321 O   0  0  0  0  0  0  0  0  0  0  0  0
    7.4083  -11.7852   25.4665 C   0  0  0  0  0  0  0  0  0  0  0  0
    7.6447  -13.0392   26.2205 C   0  0  1  0  0  0  0  0  0  0  0  0
    6.3654  -13.6660   26.7298 C   0  0  0  0  0  0  0  0  0  0  0  0
    8.4719  -14.0310   25.4312 C   0  0  2  0  0  0  0  0  0  0  0  0
    7.5968  -14.4369   24.3256 N   0  0  0  0  0  0  0  0  0  0  0  0
    8.8787  -15.2148   26.2174 C   0  0  0  0  0  0  0  0  0  0  0  0
    8.0148  -16.0350   26.6852 O   0  0  0  0  0  0  0  0  0  0  0  0
   13.1718  -16.6226   24.4862 N   0  0  0  0  0  0  0  0  0  0  0  0
   12.5789  -17.9251   24.6501 C   0  0  0  0  0  0  0  0  0  0  0  0
   12.5805  -18.7274   23.6850 O   0  0  0  0  0  0  0  0  0  0  0  0
   11.9674  -18.3366   25.9351 C   0  0  0  0  0  0  0  0  0  0  0  0
   11.9918  -17.1847   26.9015 C   0  0  0  0  0  0  0  0  0  0  0  0
   10.5837  -16.7307   27.2638 C   0  0  2  0  0  0  0  0  0  0  0  0
   10.2223  -15.5343   26.5077 N   0  0  0  0  0  0  0  0  0  0  0  0
   10.5037  -16.4667   28.7241 C   0  0  0  0  0  0  0  0  0  0  0  0
   10.2902  -15.3332   29.2153 O   0  0  0  0  0  0  0  0  0  0  0  0
   10.6718  -17.5219   29.6228 O   0  0  0  0  0  0  0  0  0  0  0  0
  2  4  1  0
  2  1  1  0
  3  2  2  0
  5  6  1  6
  5  7  1  0
  5  4  1  0
  7  8  2  0
 10  9  1  6
 10 12  1  0
 11 10  1  0
 12 14  1  0
 12 13  1  6
 13  7  1  0
 14 22  1  0
 14 15  2  0
 16 17  1  0
 17 18  2  0
 19 17  1  0
 19 20  1  0
 21 20  1  1
 21 23  1  0
 22 21  1  0
 23 24  2  0
 23 25  1  0
M  END
$$$$
