NVQ.pdb
     RDKit          3D

 25 24  0  0  1  0  0  0  0  0999 V2000
    8.5470  -15.7291   13.4261 N   0  0  0  0  0  0  0  0  0  0  0  0
    9.1719  -16.4236   14.4905 C   0  0  0  0  0  0  0  0  0  0  0  0
    9.5191  -17.6170   14.3259 O   0  0  0  0  0  0  0  0  0  0  0  0
    9.3937  -15.7217   15.7560 C   0  0  0  0  0  0  0  0  0  0  0  0
    9.2474  -16.6300   16.9622 C   0  0  2  0  0  0  0  0  0  0  0  0
    7.8974  -17.1479   17.0602 N   0  0  0  0  0  0  0  0  0  0  0  0
    9.5952  -15.8045   18.1501 C   0  0  0  0  0  0  0  0  0  0  0  0
   10.7955  -15.4564   18.2855 O   0  0  0  0  0  0  0  0  0  0  0  0
    7.3359  -12.9740   19.5129 C   0  0  0  0  0  0  0  0  0  0  0  0
    7.7524  -13.8435   20.6387 C   0  0  1  0  0  0  0  0  0  0  0  0
    6.6418  -14.7522   21.1182 C   0  0  0  0  0  0  0  0  0  0  0  0
    9.0091  -14.6246   20.3203 C   0  0  2  0  0  0  0  0  0  0  0  0
    8.6644  -15.3960   19.1207 N   0  0  0  0  0  0  0  0  0  0  0  0
    9.4264  -15.5357   21.4069 C   0  0  0  0  0  0  0  0  0  0  0  0
    8.9146  -16.7018   21.5344 O   0  0  0  0  0  0  0  0  0  0  0  0
   15.0634  -15.9985   23.8395 N   0  0  0  0  0  0  0  0  0  0  0  0
   14.5224  -16.2324   22.5253 C   0  0  0  0  0  0  0  0  0  0  0  0
   15.3054  -16.4046   21.5596 O   0  0  0  0  0  0  0  0  0  0  0  0
   13.0603  -16.2739   22.2906 C   0  0  0  0  0  0  0  0  0  0  0  0
   12.3312  -16.0976   23.5940 C   0  0  0  0  0  0  0  0  0  0  0  0
   10.8214  -16.1525   23.4003 C   0  0  2  0  0  0  0  0  0  0  0  0
   10.4038  -15.2052   22.3698 N   0  0  0  0  0  0  0  0  0  0  0  0
   10.1410  -15.8540   24.6873 C   0  0  0  0  0  0  0  0  0  0  0  0
    9.4432  -14.8313   24.8844 O   0  0  0  0  0  0  0  0  0  0  0  0
   10.2690  -16.7453   25.7544 O   0  0  0  0  0  0  0  0  0  0  0  0
  2  4  1  0
  2  1  1  0
  3  2  2  0
  5  6  1  1
  5  7  1  0
  5  4  1  0
  7  8  2  0
 10  9  1  6
 10 12  1  0
 11 10  1  0
 12 14  1  0
 12 13  1  6
 13  7  1  0
 14 22  1  0
 14 15  2  0
 16 17  1  0
 17 18  2  0
 19 17  1  0
 19 20  1  0
 21 20  1  1
 21 23  1  0
 22 21  1  0
 23 24  2  0
 23 25  1  0
M  END
$$$$
