NVQ.pdb
     RDKit          3D

 25 24  0  0  1  0  0  0  0  0999 V2000
    9.6450  -17.1311   18.8027 N   0  0  0  0  0  0  0  0  0  0  0  0
    8.6034  -16.3707   19.3880 C   0  0  0  0  0  0  0  0  0  0  0  0
    7.4470  -16.4409   18.9087 O   0  0  0  0  0  0  0  0  0  0  0  0
    8.9121  -15.5223   20.5404 C   0  0  0  0  0  0  0  0  0  0  0  0
    8.2590  -16.0119   21.8191 C   0  0  2  0  0  0  0  0  0  0  0  0
    6.8150  -15.9302   21.7276 N   0  0  0  0  0  0  0  0  0  0  0  0
    8.7795  -15.1458   22.9110 C   0  0  0  0  0  0  0  0  0  0  0  0
   10.0232  -14.9753   22.9757 O   0  0  0  0  0  0  0  0  0  0  0  0
    6.0909  -13.4359   25.6563 C   0  0  0  0  0  0  0  0  0  0  0  0
    7.4216  -12.8280   25.4187 C   0  0  1  0  0  0  0  0  0  0  0  0
    7.8696  -11.9370   26.5565 C   0  0  0  0  0  0  0  0  0  0  0  0
    8.4702  -13.8663   25.0819 C   0  0  2  0  0  0  0  0  0  0  0  0
    7.9648  -14.5132   23.8657 N   0  0  0  0  0  0  0  0  0  0  0  0
    8.6657  -14.8718   26.1477 C   0  0  0  0  0  0  0  0  0  0  0  0
    7.6878  -15.5594   26.6048 O   0  0  0  0  0  0  0  0  0  0  0  0
   13.7530  -17.4897   26.3230 N   0  0  0  0  0  0  0  0  0  0  0  0
   12.5988  -17.7991   25.5186 C   0  0  0  0  0  0  0  0  0  0  0  0
   12.7606  -18.2483   24.3580 O   0  0  0  0  0  0  0  0  0  0  0  0
   11.2247  -17.5976   26.0340 C   0  0  0  0  0  0  0  0  0  0  0  0
   11.2819  -17.0648   27.4392 C   0  0  0  0  0  0  0  0  0  0  0  0
   10.0764  -16.1882   27.7529 C   0  0  2  0  0  0  0  0  0  0  0  0
    9.9181  -15.1537   26.7338 N   0  0  0  0  0  0  0  0  0  0  0  0
   10.2409  -15.5739   29.0960 C   0  0  0  0  0  0  0  0  0  0  0  0
   10.3100  -14.3376   29.2917 O   0  0  0  0  0  0  0  0  0  0  0  0
   10.3261  -16.3962   30.2213 O   0  0  0  0  0  0  0  0  0  0  0  0
  2  4  1  0
  2  1  1  0
  3  2  2  0
  5  6  1  6
  5  7  1  0
  5  4  1  0
  7  8  2  0
 10  9  1  1
 10 12  1  0
 11 10  1  0
 12 14  1  0
 12 13  1  6
 13  7  1  0
 14 22  1  0
 14 15  2  0
 16 17  1  0
 17 18  2  0
 19 17  1  0
 19 20  1  0
 21 20  1  6
 21 23  1  0
 22 21  1  0
 23 24  2  0
 23 25  1  0
M  END
$$$$
