NVQ.pdb
     RDKit          3D

 25 24  0  0  1  0  0  0  0  0999 V2000
    7.9070  -18.8093   20.3799 N   0  0  0  0  0  0  0  0  0  0  0  0
    8.4619  -17.5218   20.1798 C   0  0  0  0  0  0  0  0  0  0  0  0
    8.5809  -17.0782   19.0132 O   0  0  0  0  0  0  0  0  0  0  0  0
    8.8810  -16.7456   21.3482 C   0  0  0  0  0  0  0  0  0  0  0  0
    7.7904  -15.8238   21.8601 C   0  0  2  0  0  0  0  0  0  0  0  0
    7.3481  -14.9167   20.8200 N   0  0  0  0  0  0  0  0  0  0  0  0
    8.3770  -15.0816   23.0084 C   0  0  0  0  0  0  0  0  0  0  0  0
    9.6084  -15.2178   23.2212 O   0  0  0  0  0  0  0  0  0  0  0  0
    5.8387  -13.3138   25.8310 C   0  0  0  0  0  0  0  0  0  0  0  0
    7.1054  -12.6256   25.4869 C   0  0  1  0  0  0  0  0  0  0  0  0
    7.5911  -11.7086   26.5880 C   0  0  0  0  0  0  0  0  0  0  0  0
    8.1838  -13.5978   25.0594 C   0  0  2  0  0  0  0  0  0  0  0  0
    7.6372  -14.2442   23.8609 N   0  0  0  0  0  0  0  0  0  0  0  0
    8.4994  -14.6144   26.0851 C   0  0  0  0  0  0  0  0  0  0  0  0
    7.6982  -15.5801   26.3370 O   0  0  0  0  0  0  0  0  0  0  0  0
   13.3255  -17.9284   26.0098 N   0  0  0  0  0  0  0  0  0  0  0  0
   12.8423  -18.3169   27.3099 C   0  0  0  0  0  0  0  0  0  0  0  0
   13.3630  -19.2998   27.8911 O   0  0  0  0  0  0  0  0  0  0  0  0
   11.7430  -17.5793   27.9747 C   0  0  0  0  0  0  0  0  0  0  0  0
   11.2665  -16.4655   27.0837 C   0  0  0  0  0  0  0  0  0  0  0  0
   10.0686  -15.7429   27.6862 C   0  0  2  0  0  0  0  0  0  0  0  0
    9.6842  -14.6074   26.8516 N   0  0  0  0  0  0  0  0  0  0  0  0
   10.3989  -15.2886   29.0620 C   0  0  0  0  0  0  0  0  0  0  0  0
   10.6864  -16.0673   30.0015 O   0  0  0  0  0  0  0  0  0  0  0  0
   10.3966  -13.9230   29.3532 O   0  0  0  0  0  0  0  0  0  0  0  0
  2  4  1  0
  2  1  1  0
  3  2  2  0
  5  6  1  6
  5  7  1  0
  5  4  1  0
  7  8  2  0
 10  9  1  1
 10 12  1  0
 11 10  1  0
 12 14  1  0
 12 13  1  6
 13  7  1  0
 14 22  1  0
 14 15  2  0
 16 17  1  0
 17 18  2  0
 19 17  1  0
 19 20  1  0
 21 20  1  6
 21 23  1  0
 22 21  1  0
 23 24  2  0
 23 25  1  0
M  END
$$$$
