NVQ.pdb
     RDKit          3D

 25 24  0  0  1  0  0  0  0  0999 V2000
    6.4916  -16.2878   19.7838 N   0  0  0  0  0  0  0  0  0  0  0  0
    6.5249  -17.0553   20.9736 C   0  0  0  0  0  0  0  0  0  0  0  0
    6.1074  -18.2373   20.9545 O   0  0  0  0  0  0  0  0  0  0  0  0
    7.0489  -16.4405   22.1945 C   0  0  0  0  0  0  0  0  0  0  0  0
    7.3883  -14.9732   22.0115 C   0  0  2  0  0  0  0  0  0  0  0  0
    8.2143  -14.7750   20.8373 N   0  0  0  0  0  0  0  0  0  0  0  0
    8.1004  -14.5528   23.2482 C   0  0  0  0  0  0  0  0  0  0  0  0
    9.3225  -14.8326   23.3396 O   0  0  0  0  0  0  0  0  0  0  0  0
    7.1053  -11.2764   25.3133 C   0  0  0  0  0  0  0  0  0  0  0  0
    7.2726  -12.4610   26.1883 C   0  0  1  0  0  0  0  0  0  0  0  0
    5.9525  -13.0515   26.6327 C   0  0  0  0  0  0  0  0  0  0  0  0
    8.1662  -13.5099   25.5620 C   0  0  2  0  0  0  0  0  0  0  0  0
    7.4879  -13.8662   24.3106 N   0  0  0  0  0  0  0  0  0  0  0  0
    8.3415  -14.7120   26.4042 C   0  0  0  0  0  0  0  0  0  0  0  0
    7.4033  -15.5708   26.5460 O   0  0  0  0  0  0  0  0  0  0  0  0
   11.8562  -19.0938   25.5218 N   0  0  0  0  0  0  0  0  0  0  0  0
   12.6032  -18.1403   26.3011 C   0  0  0  0  0  0  0  0  0  0  0  0
   13.8561  -18.1340   26.2291 O   0  0  0  0  0  0  0  0  0  0  0  0
   11.9221  -17.1668   27.1859 C   0  0  0  0  0  0  0  0  0  0  0  0
   10.4320  -17.2868   27.0220 C   0  0  0  0  0  0  0  0  0  0  0  0
    9.6936  -16.2486   27.8569 C   0  0  2  0  0  0  0  0  0  0  0  0
    9.5314  -15.0082   27.1028 N   0  0  0  0  0  0  0  0  0  0  0  0
   10.4405  -15.9972   29.1168 C   0  0  0  0  0  0  0  0  0  0  0  0
   10.9407  -14.8882   29.4194 O   0  0  0  0  0  0  0  0  0  0  0  0
   10.6099  -17.0366   30.0336 O   0  0  0  0  0  0  0  0  0  0  0  0
  2  4  1  0
  2  1  1  0
  3  2  2  0
  5  6  1  6
  5  7  1  0
  5  4  1  0
  7  8  2  0
 10  9  1  6
 10 12  1  0
 11 10  1  0
 12 14  1  0
 12 13  1  6
 13  7  1  0
 14 22  1  0
 14 15  2  0
 16 17  1  0
 17 18  2  0
 19 17  1  0
 19 20  1  0
 21 20  1  6
 21 23  1  0
 22 21  1  0
 23 24  2  0
 23 25  1  0
M  END
$$$$
