NVQ.pdb
     RDKit          3D

 25 24  0  0  1  0  0  0  0  0999 V2000
    7.3806  -20.9546   16.7881 N   0  0  0  0  0  0  0  0  0  0  0  0
    6.9217  -19.7050   17.2715 C   0  0  0  0  0  0  0  0  0  0  0  0
    5.7218  -19.3833   17.1019 O   0  0  0  0  0  0  0  0  0  0  0  0
    7.8685  -18.8239   17.9575 C   0  0  0  0  0  0  0  0  0  0  0  0
    8.0412  -17.4904   17.2551 C   0  0  2  0  0  0  0  0  0  0  0  0
    8.8667  -17.6309   16.0723 N   0  0  0  0  0  0  0  0  0  0  0  0
    8.6705  -16.5760   18.2457 C   0  0  0  0  0  0  0  0  0  0  0  0
    9.9190  -16.6343   18.3802 O   0  0  0  0  0  0  0  0  0  0  0  0
    6.2514  -14.4036   20.8352 C   0  0  0  0  0  0  0  0  0  0  0  0
    7.4783  -13.7476   20.3243 C   0  0  1  0  0  0  0  0  0  0  0  0
    7.9818  -12.6537   21.2401 C   0  0  0  0  0  0  0  0  0  0  0  0
    8.5681  -14.7482   20.0047 C   0  0  2  0  0  0  0  0  0  0  0  0
    7.9529  -15.6588   19.0324 N   0  0  0  0  0  0  0  0  0  0  0  0
    9.0350  -15.5061   21.1848 C   0  0  0  0  0  0  0  0  0  0  0  0
    8.4095  -16.5408   21.6045 O   0  0  0  0  0  0  0  0  0  0  0  0
   15.0746  -16.5557   22.5181 N   0  0  0  0  0  0  0  0  0  0  0  0
   14.4126  -16.7907   23.7756 C   0  0  0  0  0  0  0  0  0  0  0  0
   15.0988  -16.9031   24.8203 O   0  0  0  0  0  0  0  0  0  0  0  0
   12.9378  -16.9023   23.8603 C   0  0  0  0  0  0  0  0  0  0  0  0
   12.2994  -15.9606   22.8768 C   0  0  0  0  0  0  0  0  0  0  0  0
   10.7812  -16.0819   22.8934 C   0  0  2  0  0  0  0  0  0  0  0  0
   10.1848  -15.1626   21.9276 N   0  0  0  0  0  0  0  0  0  0  0  0
   10.2721  -15.8013   24.2610 C   0  0  0  0  0  0  0  0  0  0  0  0
   10.4167  -16.5823   25.2309 O   0  0  0  0  0  0  0  0  0  0  0  0
    9.5905  -14.6081   24.5085 O   0  0  0  0  0  0  0  0  0  0  0  0
  2  4  1  0
  2  1  1  0
  3  2  2  0
  5  6  1  6
  5  7  1  0
  5  4  1  0
  7  8  2  0
 10  9  1  1
 10 12  1  0
 11 10  1  0
 12 14  1  0
 12 13  1  6
 13  7  1  0
 14 22  1  0
 14 15  2  0
 16 17  1  0
 17 18  2  0
 19 17  1  0
 19 20  1  0
 21 20  1  1
 21 23  1  0
 22 21  1  0
 23 24  2  0
 23 25  1  0
M  END
$$$$
