NVQ.pdb
     RDKit          3D

 25 24  0  0  1  0  0  0  0  0999 V2000
    5.3678  -19.7006   18.1085 N   0  0  0  0  0  0  0  0  0  0  0  0
    6.7478  -19.6281   17.7986 C   0  0  0  0  0  0  0  0  0  0  0  0
    7.1888  -20.2551   16.8065 O   0  0  0  0  0  0  0  0  0  0  0  0
    7.6201  -18.8187   18.6513 C   0  0  0  0  0  0  0  0  0  0  0  0
    7.9212  -17.4566   18.0551 C   0  0  2  0  0  0  0  0  0  0  0  0
    8.8627  -17.5675   16.9590 N   0  0  0  0  0  0  0  0  0  0  0  0
    8.4768  -16.6312   19.1611 C   0  0  0  0  0  0  0  0  0  0  0  0
    9.6440  -16.8893   19.5501 O   0  0  0  0  0  0  0  0  0  0  0  0
    7.5663  -12.8365   22.2485 C   0  0  0  0  0  0  0  0  0  0  0  0
    7.3445  -13.6207   21.0105 C   0  0  1  0  0  0  0  0  0  0  0  0
    7.3464  -12.7616   19.7652 C   0  0  0  0  0  0  0  0  0  0  0  0
    8.3134  -14.7770   20.8876 C   0  0  2  0  0  0  0  0  0  0  0  0
    7.7754  -15.5880   19.7895 N   0  0  0  0  0  0  0  0  0  0  0  0
    8.4159  -15.5916   22.1169 C   0  0  0  0  0  0  0  0  0  0  0  0
    7.3931  -16.1742   22.6193 O   0  0  0  0  0  0  0  0  0  0  0  0
   11.8700  -20.1841   23.3538 N   0  0  0  0  0  0  0  0  0  0  0  0
   12.5280  -18.9268   23.1072 C   0  0  0  0  0  0  0  0  0  0  0  0
   13.7114  -18.9235   22.6893 O   0  0  0  0  0  0  0  0  0  0  0  0
   11.8357  -17.6374   23.3370 C   0  0  0  0  0  0  0  0  0  0  0  0
   10.4275  -17.8919   23.7992 C   0  0  0  0  0  0  0  0  0  0  0  0
    9.6769  -16.5893   24.0441 C   0  0  2  0  0  0  0  0  0  0  0  0
    9.6224  -15.7933   22.8206 N   0  0  0  0  0  0  0  0  0  0  0  0
   10.3421  -15.8259   25.1318 C   0  0  0  0  0  0  0  0  0  0  0  0
   10.9122  -14.7228   24.9592 O   0  0  0  0  0  0  0  0  0  0  0  0
   10.3478  -16.3425   26.4290 O   0  0  0  0  0  0  0  0  0  0  0  0
  2  4  1  0
  2  1  1  0
  3  2  2  0
  5  6  1  6
  5  7  1  0
  5  4  1  0
  7  8  2  0
 10  9  1  1
 10 12  1  0
 11 10  1  0
 12 14  1  0
 12 13  1  6
 13  7  1  0
 14 22  1  0
 14 15  2  0
 16 17  1  0
 17 18  2  0
 19 17  1  0
 19 20  1  0
 21 20  1  6
 21 23  1  0
 22 21  1  0
 23 24  2  0
 23 25  1  0
M  END
$$$$
