NVQ.pdb
     RDKit          3D

 25 24  0  0  1  0  0  0  0  0999 V2000
    7.1624  -19.1911   16.2628 N   0  0  0  0  0  0  0  0  0  0  0  0
    7.8832  -18.4171   15.3210 C   0  0  0  0  0  0  0  0  0  0  0  0
    7.6768  -18.5900   14.0965 O   0  0  0  0  0  0  0  0  0  0  0  0
    8.8517  -17.4343   15.8102 C   0  0  0  0  0  0  0  0  0  0  0  0
    8.3115  -16.0169   15.7832 C   0  0  2  0  0  0  0  0  0  0  0  0
    8.4089  -15.4506   14.4528 N   0  0  0  0  0  0  0  0  0  0  0  0
    9.1246  -15.2424   16.7591 C   0  0  0  0  0  0  0  0  0  0  0  0
   10.3292  -15.0267   16.4714 O   0  0  0  0  0  0  0  0  0  0  0  0
    7.5324  -12.3717   19.0658 C   0  0  0  0  0  0  0  0  0  0  0  0
    8.3952  -13.3065   19.8264 C   0  0  1  0  0  0  0  0  0  0  0  0
    7.6016  -14.3177   20.6243 C   0  0  0  0  0  0  0  0  0  0  0  0
    9.4220  -13.9809   18.9422 C   0  0  2  0  0  0  0  0  0  0  0  0
    8.6250  -14.7429   17.9741 N   0  0  0  0  0  0  0  0  0  0  0  0
   10.3279  -14.8874   19.6790 C   0  0  0  0  0  0  0  0  0  0  0  0
    9.9940  -16.0938   19.9453 O   0  0  0  0  0  0  0  0  0  0  0  0
   17.2471  -15.8966   22.4110 N   0  0  0  0  0  0  0  0  0  0  0  0
   16.2035  -15.3130   21.6079 C   0  0  0  0  0  0  0  0  0  0  0  0
   16.4793  -14.3605   20.8386 O   0  0  0  0  0  0  0  0  0  0  0  0
   14.8111  -15.8147   21.6717 C   0  0  0  0  0  0  0  0  0  0  0  0
   13.9186  -14.9458   20.8290 C   0  0  0  0  0  0  0  0  0  0  0  0
   12.4778  -15.4394   20.8507 C   0  0  2  0  0  0  0  0  0  0  0  0
   11.6081  -14.5084   20.1362 N   0  0  0  0  0  0  0  0  0  0  0  0
   12.0250  -15.5985   22.2572 C   0  0  0  0  0  0  0  0  0  0  0  0
   11.2660  -14.7883   22.8395 O   0  0  0  0  0  0  0  0  0  0  0  0
   12.4534  -16.7034   22.9956 O   0  0  0  0  0  0  0  0  0  0  0  0
  2  4  1  0
  2  1  1  0
  3  2  2  0
  5  6  1  6
  5  7  1  0
  5  4  1  0
  7  8  2  0
 10  9  1  6
 10 12  1  0
 11 10  1  0
 12 14  1  0
 12 13  1  6
 13  7  1  0
 14 22  1  0
 14 15  2  0
 16 17  1  0
 17 18  2  0
 19 17  1  0
 19 20  1  0
 21 20  1  1
 21 23  1  0
 22 21  1  0
 23 24  2  0
 23 25  1  0
M  END
$$$$
