KPA.pdb
     RDKit          3D

 22 22  0  0  1  0  0  0  0  0999 V2000
   23.5465  -21.3625  -16.8317 N   0  0  0  0  0  0  0  0  0  0  0  0
   24.3350  -20.3935  -16.1696 C   0  0  1  0  0  0  0  0  0  0  0  0
   23.5093  -19.1581  -15.9100 C   0  0  0  0  0  0  0  0  0  0  0  0
   22.5808  -18.7474  -16.9776 C   0  0  0  0  0  0  0  0  0  0  0  0
   21.2590  -18.2027  -16.5851 C   0  0  0  0  0  0  0  0  0  0  0  0
   21.1818  -16.6934  -16.6386 C   0  0  0  0  0  0  0  0  0  0  0  0
   19.8535  -16.2503  -16.2077 N   0  0  0  0  0  0  0  0  0  0  0  0
   24.9438  -20.7877  -14.8756 C   0  0  0  0  0  0  0  0  0  0  0  0
   24.1004  -21.2113  -13.9904 O   0  0  0  0  0  0  0  0  0  0  0  0
   26.2903  -20.7614  -14.4971 N   0  0  0  0  0  0  0  0  0  0  0  0
   27.4189  -21.2629  -15.3126 C   0  0  0  0  0  0  0  0  0  0  0  0
   28.3685  -20.0470  -15.2014 C   0  0  0  0  0  0  0  0  0  0  0  0
   27.8912  -19.2603  -13.9901 C   0  0  0  0  0  0  0  0  0  0  0  0
   27.0163  -20.3276  -13.3380 C   0  0  1  0  0  0  0  0  0  0  0  0
   26.3627  -19.9197  -12.1457 C   0  0  0  0  0  0  0  0  0  0  0  0
   25.8480  -18.8186  -11.9297 O   0  0  0  0  0  0  0  0  0  0  0  0
   24.7071  -21.6119   -9.3263 C   0  0  0  0  0  0  0  0  0  0  0  0
   25.6732  -20.5320   -9.7990 C   0  0  2  0  0  0  0  0  0  0  0  0
   26.2774  -20.8684  -11.0607 N   0  0  0  0  0  0  0  0  0  0  0  0
   26.7343  -20.4448   -8.7665 C   0  0  0  0  0  0  0  0  0  0  0  0
   26.4976  -19.9151   -7.5016 O   0  0  0  0  0  0  0  0  0  0  0  0
   27.8801  -20.8693   -9.0634 O   0  0  0  0  0  0  0  0  0  0  0  0
  2  1  1  1
  3  2  1  0
  4  3  1  0
  5  4  1  0
  6  5  1  0
  7  6  1  0
  8  2  1  0
  8 10  1  0
  9  8  2  0
 10 11  1  0
 11 12  1  0
 13 14  1  0
 13 12  1  0
 14 10  1  0
 15 19  1  0
 14 15  1  1
 16 15  2  0
 18 17  1  1
 18 19  1  0
 20 21  1  0
 20 18  1  0
 22 20  2  0
M  END
$$$$
