KPA.pdb
     RDKit          3D

 22 22  0  0  1  0  0  0  0  0999 V2000
   18.9150  -11.3505  -18.9889 N   0  0  0  0  0  0  0  0  0  0  0  0
   19.4620  -11.1262  -17.7045 C   0  0  1  0  0  0  0  0  0  0  0  0
   20.7799  -11.8496  -17.5804 C   0  0  0  0  0  0  0  0  0  0  0  0
   20.8903  -13.1454  -18.2728 C   0  0  0  0  0  0  0  0  0  0  0  0
   22.2032  -13.8339  -18.2651 C   0  0  0  0  0  0  0  0  0  0  0  0
   22.2288  -15.1061  -19.0820 C   0  0  0  0  0  0  0  0  0  0  0  0
   23.5435  -15.7423  -18.9662 N   0  0  0  0  0  0  0  0  0  0  0  0
   19.7023   -9.7167  -17.3096 C   0  0  0  0  0  0  0  0  0  0  0  0
   20.7970   -9.2064  -17.7739 O   0  0  0  0  0  0  0  0  0  0  0  0
   18.9096   -8.8829  -16.5136 N   0  0  0  0  0  0  0  0  0  0  0  0
   17.4398   -8.7445  -16.6175 C   0  0  0  0  0  0  0  0  0  0  0  0
   17.0669   -8.9017  -15.1246 C   0  0  0  0  0  0  0  0  0  0  0  0
   18.3454   -8.6231  -14.3486 C   0  0  0  0  0  0  0  0  0  0  0  0
   19.1562   -7.9493  -15.4524 C   0  0  1  0  0  0  0  0  0  0  0  0
   20.4691   -7.5598  -15.0783 C   0  0  0  0  0  0  0  0  0  0  0  0
   21.4029   -8.3117  -14.7843 O   0  0  0  0  0  0  0  0  0  0  0  0
   22.4454   -4.4503  -15.6058 C   0  0  0  0  0  0  0  0  0  0  0  0
   22.0929   -5.6594  -14.7475 C   0  0  2  0  0  0  0  0  0  0  0  0
   20.7691   -6.1484  -15.0283 N   0  0  0  0  0  0  0  0  0  0  0  0
   22.1454   -5.1972  -13.3394 C   0  0  0  0  0  0  0  0  0  0  0  0
   23.3253   -5.1974  -12.6014 O   0  0  0  0  0  0  0  0  0  0  0  0
   21.0770   -4.7952  -12.8120 O   0  0  0  0  0  0  0  0  0  0  0  0
  2  1  1  6
  3  2  1  0
  4  3  1  0
  5  4  1  0
  6  5  1  0
  7  6  1  0
  8  2  1  0
  8 10  1  0
  9  8  2  0
 10 11  1  0
 11 12  1  0
 13 14  1  0
 13 12  1  0
 14 10  1  0
 15 19  1  0
 14 15  1  1
 16 15  2  0
 18 17  1  6
 18 19  1  0
 20 21  1  0
 20 18  1  0
 22 20  2  0
M  END
$$$$
