KPA.pdb
     RDKit          3D

 22 22  0  0  1  0  0  0  0  0999 V2000
   25.8096  -27.8622  -16.8752 N   0  0  0  0  0  0  0  0  0  0  0  0
   27.0428  -27.4197  -17.4069 C   0  0  1  0  0  0  0  0  0  0  0  0
   27.0795  -27.6835  -18.8917 C   0  0  0  0  0  0  0  0  0  0  0  0
   28.2706  -28.3787  -19.4102 C   0  0  0  0  0  0  0  0  0  0  0  0
   28.3743  -29.8424  -19.1993 C   0  0  0  0  0  0  0  0  0  0  0  0
   29.6747  -30.4380  -19.6901 C   0  0  0  0  0  0  0  0  0  0  0  0
   29.7580  -31.8443  -19.2877 N   0  0  0  0  0  0  0  0  0  0  0  0
   27.3883  -25.9904  -17.2120 C   0  0  0  0  0  0  0  0  0  0  0  0
   26.5033  -25.1570  -17.6556 O   0  0  0  0  0  0  0  0  0  0  0  0
   28.5286  -25.4379  -16.6191 N   0  0  0  0  0  0  0  0  0  0  0  0
   29.2539  -26.0086  -15.4621 C   0  0  0  0  0  0  0  0  0  0  0  0
   30.6972  -25.9457  -16.0149 C   0  0  0  0  0  0  0  0  0  0  0  0
   30.6587  -24.9390  -17.1548 C   0  0  0  0  0  0  0  0  0  0  0  0
   29.3262  -24.2654  -16.8376 C   0  0  1  0  0  0  0  0  0  0  0  0
   28.9389  -23.2465  -17.7471 C   0  0  0  0  0  0  0  0  0  0  0  0
   28.5819  -23.4040  -18.9183 O   0  0  0  0  0  0  0  0  0  0  0  0
   28.4573  -19.4775  -17.3636 C   0  0  0  0  0  0  0  0  0  0  0  0
   28.6250  -20.7764  -18.1433 C   0  0  2  0  0  0  0  0  0  0  0  0
   28.9553  -21.8801  -17.2813 N   0  0  0  0  0  0  0  0  0  0  0  0
   29.7470  -20.5512  -19.0865 C   0  0  0  0  0  0  0  0  0  0  0  0
   30.9861  -21.1641  -18.9261 O   0  0  0  0  0  0  0  0  0  0  0  0
   29.5524  -19.7768  -20.0580 O   0  0  0  0  0  0  0  0  0  0  0  0
  2  1  1  6
  3  2  1  0
  4  3  1  0
  5  4  1  0
  6  5  1  0
  7  6  1  0
  8  2  1  0
  8 10  1  0
  9  8  2  0
 10 11  1  0
 11 12  1  0
 13 14  1  0
 13 12  1  0
 14 10  1  0
 15 19  1  0
 14 15  1  6
 16 15  2  0
 18 17  1  1
 18 19  1  0
 20 21  1  0
 20 18  1  0
 22 20  2  0
M  END
$$$$
