KPA.pdb
     RDKit          3D

 22 22  0  0  1  0  0  0  0  0999 V2000
   23.6991  -20.5630  -17.1812 N   0  0  0  0  0  0  0  0  0  0  0  0
   24.2997  -19.7421  -16.1991 C   0  0  1  0  0  0  0  0  0  0  0  0
   23.2856  -18.7587  -15.6698 C   0  0  0  0  0  0  0  0  0  0  0  0
   23.3038  -17.4087  -16.2596 C   0  0  0  0  0  0  0  0  0  0  0  0
   23.6630  -17.2749  -17.6917 C   0  0  0  0  0  0  0  0  0  0  0  0
   23.7220  -15.8429  -18.1738 C   0  0  0  0  0  0  0  0  0  0  0  0
   24.2352  -15.8032  -19.5455 N   0  0  0  0  0  0  0  0  0  0  0  0
   24.8980  -20.4222  -15.0244 C   0  0  0  0  0  0  0  0  0  0  0  0
   24.0544  -21.0764  -14.2932 O   0  0  0  0  0  0  0  0  0  0  0  0
   26.2352  -20.4468  -14.6138 N   0  0  0  0  0  0  0  0  0  0  0  0
   27.3961  -20.7102  -15.4931 C   0  0  0  0  0  0  0  0  0  0  0  0
   28.3011  -19.5277  -15.0746 C   0  0  0  0  0  0  0  0  0  0  0  0
   27.7734  -19.0615  -13.7262 C   0  0  0  0  0  0  0  0  0  0  0  0
   26.9229  -20.2768  -13.3661 C   0  0  1  0  0  0  0  0  0  0  0  0
   26.2324  -20.1793  -12.1296 C   0  0  0  0  0  0  0  0  0  0  0  0
   25.5988  -19.2035  -11.7169 O   0  0  0  0  0  0  0  0  0  0  0  0
   26.3123  -20.1485   -9.0912 C   0  0  0  0  0  0  0  0  0  0  0  0
   25.7031  -21.2730   -9.9203 C   0  0  2  0  0  0  0  0  0  0  0  0
   26.2578  -21.3216  -11.2471 N   0  0  0  0  0  0  0  0  0  0  0  0
   24.2530  -20.9777  -10.0166 C   0  0  0  0  0  0  0  0  0  0  0  0
   23.6174  -20.7681  -11.2368 O   0  0  0  0  0  0  0  0  0  0  0  0
   23.5925  -20.9190   -8.9482 O   0  0  0  0  0  0  0  0  0  0  0  0
  2  1  1  6
  3  2  1  0
  4  3  1  0
  5  4  1  0
  6  5  1  0
  7  6  1  0
  8  2  1  0
  8 10  1  0
  9  8  2  0
 10 11  1  0
 11 12  1  0
 13 14  1  0
 13 12  1  0
 14 10  1  0
 15 19  1  0
 14 15  1  1
 16 15  2  0
 18 17  1  1
 18 19  1  0
 20 21  1  0
 20 18  1  0
 22 20  2  0
M  END
$$$$
