KPA.pdb
     RDKit          3D

 22 22  0  0  1  0  0  0  0  0999 V2000
   18.5003  -12.1952  -16.0266 N   0  0  0  0  0  0  0  0  0  0  0  0
   19.5802  -11.4343  -16.5304 C   0  0  1  0  0  0  0  0  0  0  0  0
   19.1624  -10.7402  -17.8028 C   0  0  0  0  0  0  0  0  0  0  0  0
   18.2442  -11.4784  -18.6875 C   0  0  0  0  0  0  0  0  0  0  0  0
   17.8328  -10.8391  -19.9602 C   0  0  0  0  0  0  0  0  0  0  0  0
   16.9330  -11.7044  -20.8136 C   0  0  0  0  0  0  0  0  0  0  0  0
   16.6428  -11.0216  -22.0770 N   0  0  0  0  0  0  0  0  0  0  0  0
   20.1494  -10.3959  -15.6370 C   0  0  0  0  0  0  0  0  0  0  0  0
   19.2853   -9.5516  -15.1735 O   0  0  0  0  0  0  0  0  0  0  0  0
   21.4781  -10.2165  -15.2378 N   0  0  0  0  0  0  0  0  0  0  0  0
   22.3704  -11.2819  -14.7286 C   0  0  0  0  0  0  0  0  0  0  0  0
   23.6148  -11.0072  -15.6053 C   0  0  0  0  0  0  0  0  0  0  0  0
   23.4532   -9.5835  -16.1163 C   0  0  0  0  0  0  0  0  0  0  0  0
   22.3754   -9.1004  -15.1494 C   0  0  1  0  0  0  0  0  0  0  0  0
   21.9422   -7.7642  -15.3547 C   0  0  0  0  0  0  0  0  0  0  0  0
   21.4553   -7.3006  -16.3900 O   0  0  0  0  0  0  0  0  0  0  0  0
   21.7472   -4.7241  -13.0454 C   0  0  0  0  0  0  0  0  0  0  0  0
   21.7002   -5.4493  -14.3852 C   0  0  2  0  0  0  0  0  0  0  0  0
   22.0730   -6.8332  -14.2589 N   0  0  0  0  0  0  0  0  0  0  0  0
   22.6823   -4.7654  -15.2610 C   0  0  0  0  0  0  0  0  0  0  0  0
   23.8690   -5.3721  -15.6612 O   0  0  0  0  0  0  0  0  0  0  0  0
   22.4155   -3.5979  -15.6444 O   0  0  0  0  0  0  0  0  0  0  0  0
  2  1  1  1
  3  2  1  0
  4  3  1  0
  5  4  1  0
  6  5  1  0
  7  6  1  0
  8  2  1  0
  8 10  1  0
  9  8  2  0
 10 11  1  0
 11 12  1  0
 13 14  1  0
 13 12  1  0
 14 10  1  0
 15 19  1  0
 14 15  1  6
 16 15  2  0
 18 17  1  1
 18 19  1  0
 20 21  1  0
 20 18  1  0
 22 20  2  0
M  END
$$$$
