KPA.pdb
     RDKit          3D

 22 22  0  0  1  0  0  0  0  0999 V2000
   15.8735  -22.2351  -15.3274 N   0  0  0  0  0  0  0  0  0  0  0  0
   14.8126  -21.7773  -14.5125 C   0  0  1  0  0  0  0  0  0  0  0  0
   13.4980  -22.2650  -15.0688 C   0  0  0  0  0  0  0  0  0  0  0  0
   12.2895  -21.9371  -14.2925 C   0  0  0  0  0  0  0  0  0  0  0  0
   11.5306  -20.7177  -14.6599 C   0  0  0  0  0  0  0  0  0  0  0  0
   10.2722  -20.5151  -13.8462 C   0  0  0  0  0  0  0  0  0  0  0  0
    9.5575  -19.3300  -14.3271 N   0  0  0  0  0  0  0  0  0  0  0  0
   14.8467  -22.1622  -13.0803 C   0  0  0  0  0  0  0  0  0  0  0  0
   14.2614  -23.2842  -12.8100 O   0  0  0  0  0  0  0  0  0  0  0  0
   15.4218  -21.4793  -12.0033 N   0  0  0  0  0  0  0  0  0  0  0  0
   16.6153  -20.6076  -12.0813 C   0  0  0  0  0  0  0  0  0  0  0  0
   16.0757  -19.3747  -11.3188 C   0  0  0  0  0  0  0  0  0  0  0  0
   14.8837  -19.8749  -10.5168 C   0  0  0  0  0  0  0  0  0  0  0  0
   15.1501  -21.3757  -10.5983 C   0  0  1  0  0  0  0  0  0  0  0  0
   14.1837  -22.1913   -9.9532 C   0  0  0  0  0  0  0  0  0  0  0  0
   13.0177  -22.3743  -10.3146 O   0  0  0  0  0  0  0  0  0  0  0  0
   14.3585  -24.4504   -6.8708 C   0  0  0  0  0  0  0  0  0  0  0  0
   13.6727  -23.7480   -8.0367 C   0  0  2  0  0  0  0  0  0  0  0  0
   14.5779  -22.8878   -8.7515 N   0  0  0  0  0  0  0  0  0  0  0  0
   12.5921  -22.9225   -7.4451 C   0  0  0  0  0  0  0  0  0  0  0  0
   12.7830  -21.5890   -7.0960 O   0  0  0  0  0  0  0  0  0  0  0  0
   11.4723  -23.4641   -7.2605 O   0  0  0  0  0  0  0  0  0  0  0  0
  2  1  1  6
  3  2  1  0
  4  3  1  0
  5  4  1  0
  6  5  1  0
  7  6  1  0
  8  2  1  0
  8 10  1  0
  9  8  2  0
 10 11  1  0
 11 12  1  0
 13 14  1  0
 13 12  1  0
 14 10  1  0
 15 19  1  0
 14 15  1  6
 16 15  2  0
 18 17  1  1
 18 19  1  0
 20 21  1  0
 20 18  1  0
 22 20  2  0
M  END
$$$$
