KPA.pdb
     RDKit          3D

 22 22  0  0  1  0  0  0  0  0999 V2000
   29.0819  -23.5815  -16.0533 N   0  0  0  0  0  0  0  0  0  0  0  0
   28.1883  -22.6800  -16.6762 C   0  0  1  0  0  0  0  0  0  0  0  0
   27.4523  -23.3826  -17.7898 C   0  0  0  0  0  0  0  0  0  0  0  0
   26.1592  -23.9973  -17.4424 C   0  0  0  0  0  0  0  0  0  0  0  0
   25.4119  -24.7064  -18.5086 C   0  0  0  0  0  0  0  0  0  0  0  0
   24.0980  -25.2935  -18.0444 C   0  0  0  0  0  0  0  0  0  0  0  0
   23.3951  -25.8938  -19.1811 N   0  0  0  0  0  0  0  0  0  0  0  0
   27.1635  -22.0413  -15.8147 C   0  0  0  0  0  0  0  0  0  0  0  0
   26.3070  -22.8620  -15.2977 O   0  0  0  0  0  0  0  0  0  0  0  0
   27.0082  -20.6884  -15.4945 N   0  0  0  0  0  0  0  0  0  0  0  0
   28.1122  -19.7386  -15.2312 C   0  0  0  0  0  0  0  0  0  0  0  0
   27.6645  -18.5738  -16.1452 C   0  0  0  0  0  0  0  0  0  0  0  0
   26.1839  -18.8022  -16.4090 C   0  0  0  0  0  0  0  0  0  0  0  0
   25.8926  -19.8077  -15.2981 C   0  0  1  0  0  0  0  0  0  0  0  0
   24.5548  -20.2807  -15.2542 C   0  0  0  0  0  0  0  0  0  0  0  0
   23.9385  -20.8280  -16.1731 O   0  0  0  0  0  0  0  0  0  0  0  0
   22.0429  -20.6724  -12.4209 C   0  0  0  0  0  0  0  0  0  0  0  0
   22.4576  -20.5642  -13.8835 C   0  0  2  0  0  0  0  0  0  0  0  0
   23.8182  -20.1175  -14.0232 N   0  0  0  0  0  0  0  0  0  0  0  0
   21.5566  -19.5581  -14.4961 C   0  0  0  0  0  0  0  0  0  0  0  0
   20.2122  -19.8186  -14.7440 O   0  0  0  0  0  0  0  0  0  0  0  0
   22.0428  -18.4375  -14.7946 O   0  0  0  0  0  0  0  0  0  0  0  0
  2  1  1  1
  3  2  1  0
  4  3  1  0
  5  4  1  0
  6  5  1  0
  7  6  1  0
  8  2  1  0
  8 10  1  0
  9  8  2  0
 10 11  1  0
 11 12  1  0
 13 14  1  0
 13 12  1  0
 14 10  1  0
 15 19  1  0
 14 15  1  6
 16 15  2  0
 18 17  1  1
 18 19  1  0
 20 21  1  0
 20 18  1  0
 22 20  2  0
M  END
$$$$
