KPA.pdb
     RDKit          3D

 22 22  0  0  1  0  0  0  0  0999 V2000
   24.8999  -21.7017  -12.7509 N   0  0  0  0  0  0  0  0  0  0  0  0
   25.4831  -21.0944  -13.8868 C   0  0  1  0  0  0  0  0  0  0  0  0
   24.8326  -21.6286  -15.1385 C   0  0  0  0  0  0  0  0  0  0  0  0
   23.6923  -22.5428  -14.9522 C   0  0  0  0  0  0  0  0  0  0  0  0
   22.4960  -22.0339  -14.2397 C   0  0  0  0  0  0  0  0  0  0  0  0
   21.2662  -22.8948  -14.4221 C   0  0  0  0  0  0  0  0  0  0  0  0
   20.2104  -22.4491  -13.5093 N   0  0  0  0  0  0  0  0  0  0  0  0
   25.4250  -19.6143  -13.9659 C   0  0  0  0  0  0  0  0  0  0  0  0
   24.2545  -19.1087  -13.7450 O   0  0  0  0  0  0  0  0  0  0  0  0
   26.4565  -18.7109  -14.2431 N   0  0  0  0  0  0  0  0  0  0  0  0
   27.8297  -18.7851  -13.6962 C   0  0  0  0  0  0  0  0  0  0  0  0
   28.6317  -18.6055  -15.0066 C   0  0  0  0  0  0  0  0  0  0  0  0
   27.6625  -17.9851  -16.0016 C   0  0  0  0  0  0  0  0  0  0  0  0
   26.5837  -17.5169  -15.0285 C   0  0  1  0  0  0  0  0  0  0  0  0
   25.4644  -16.8871  -15.6332 C   0  0  0  0  0  0  0  0  0  0  0  0
   24.6809  -17.3974  -16.4392 O   0  0  0  0  0  0  0  0  0  0  0  0
   23.7641  -13.5388  -14.9807 C   0  0  0  0  0  0  0  0  0  0  0  0
   24.0167  -14.8264  -15.7561 C   0  0  2  0  0  0  0  0  0  0  0  0
   25.1923  -15.5117  -15.2886 N   0  0  0  0  0  0  0  0  0  0  0  0
   24.2245  -14.4252  -17.1686 C   0  0  0  0  0  0  0  0  0  0  0  0
   23.1635  -14.1530  -18.0269 O   0  0  0  0  0  0  0  0  0  0  0  0
   25.4072  -14.3335  -17.5861 O   0  0  0  0  0  0  0  0  0  0  0  0
  2  1  1  1
  3  2  1  0
  4  3  1  0
  5  4  1  0
  6  5  1  0
  7  6  1  0
  8  2  1  0
  8 10  1  0
  9  8  2  0
 10 11  1  0
 11 12  1  0
 13 14  1  0
 13 12  1  0
 14 10  1  0
 15 19  1  0
 14 15  1  6
 16 15  2  0
 18 17  1  1
 18 19  1  0
 20 21  1  0
 20 18  1  0
 22 20  2  0
M  END
$$$$
