KPA.pdb
     RDKit          3D

 22 22  0  0  1  0  0  0  0  0999 V2000
   20.7904  -21.3190  -12.7274 N   0  0  0  0  0  0  0  0  0  0  0  0
   22.0808  -21.5399  -13.2613 C   0  0  1  0  0  0  0  0  0  0  0  0
   21.9767  -21.8294  -14.7381 C   0  0  0  0  0  0  0  0  0  0  0  0
   20.6356  -21.7249  -15.3391 C   0  0  0  0  0  0  0  0  0  0  0  0
   20.1925  -20.4005  -15.8367 C   0  0  0  0  0  0  0  0  0  0  0  0
   20.1520  -20.2988  -17.3449 C   0  0  0  0  0  0  0  0  0  0  0  0
   19.7739  -18.9393  -17.7392 N   0  0  0  0  0  0  0  0  0  0  0  0
   23.0732  -20.4489  -13.1023 C   0  0  0  0  0  0  0  0  0  0  0  0
   22.5833  -19.2558  -13.2067 O   0  0  0  0  0  0  0  0  0  0  0  0
   24.4473  -20.5436  -12.8574 N   0  0  0  0  0  0  0  0  0  0  0  0
   25.0673  -21.2702  -11.7269 C   0  0  0  0  0  0  0  0  0  0  0  0
   26.1345  -22.0775  -12.5027 C   0  0  0  0  0  0  0  0  0  0  0  0
   26.3024  -21.3645  -13.8360 C   0  0  0  0  0  0  0  0  0  0  0  0
   25.6334  -20.0378  -13.4867 C   0  0  1  0  0  0  0  0  0  0  0  0
   25.5831  -19.0951  -14.5468 C   0  0  0  0  0  0  0  0  0  0  0  0
   25.0200  -19.2428  -15.6354 O   0  0  0  0  0  0  0  0  0  0  0  0
   26.7811  -15.4843  -14.8607 C   0  0  0  0  0  0  0  0  0  0  0  0
   26.2832  -16.8242  -15.3897 C   0  0  2  0  0  0  0  0  0  0  0  0
   26.2497  -17.8281  -14.3595 N   0  0  0  0  0  0  0  0  0  0  0  0
   27.2485  -17.2411  -16.4354 C   0  0  0  0  0  0  0  0  0  0  0  0
   27.2122  -16.7255  -17.7275 O   0  0  0  0  0  0  0  0  0  0  0  0
   28.1221  -18.0905  -16.1244 O   0  0  0  0  0  0  0  0  0  0  0  0
  2  1  1  6
  3  2  1  0
  4  3  1  0
  5  4  1  0
  6  5  1  0
  7  6  1  0
  8  2  1  0
  8 10  1  0
  9  8  2  0
 10 11  1  0
 11 12  1  0
 13 14  1  0
 13 12  1  0
 14 10  1  0
 15 19  1  0
 14 15  1  6
 16 15  2  0
 18 17  1  1
 18 19  1  0
 20 21  1  0
 20 18  1  0
 22 20  2  0
M  END
$$$$
