KPA.pdb
     RDKit          3D

 22 22  0  0  1  0  0  0  0  0999 V2000
   19.8610  -20.2860  -14.5109 N   0  0  0  0  0  0  0  0  0  0  0  0
   19.9358  -19.4663  -15.6606 C   0  0  1  0  0  0  0  0  0  0  0  0
   18.7542  -19.7406  -16.5574 C   0  0  0  0  0  0  0  0  0  0  0  0
   18.3082  -21.1415  -16.6529 C   0  0  0  0  0  0  0  0  0  0  0  0
   17.0193  -21.5107  -16.0201 C   0  0  0  0  0  0  0  0  0  0  0  0
   16.6322  -22.9580  -16.2258 C   0  0  0  0  0  0  0  0  0  0  0  0
   15.4508  -23.2737  -15.4189 N   0  0  0  0  0  0  0  0  0  0  0  0
   19.9832  -17.9998  -15.4424 C   0  0  0  0  0  0  0  0  0  0  0  0
   18.8247  -17.4335  -15.3347 O   0  0  0  0  0  0  0  0  0  0  0  0
   21.1014  -17.1655  -15.3392 N   0  0  0  0  0  0  0  0  0  0  0  0
   22.3360  -17.4779  -14.5853 C   0  0  0  0  0  0  0  0  0  0  0  0
   23.3854  -17.1289  -15.6668 C   0  0  0  0  0  0  0  0  0  0  0  0
   22.6658  -16.2367  -16.6670 C   0  0  0  0  0  0  0  0  0  0  0  0
   21.4496  -15.8610  -15.8246 C   0  0  1  0  0  0  0  0  0  0  0  0
   20.5082  -15.0199  -16.4739 C   0  0  0  0  0  0  0  0  0  0  0  0
   19.9429  -15.2423  -17.5486 O   0  0  0  0  0  0  0  0  0  0  0  0
   18.3844  -12.1460  -15.3558 C   0  0  0  0  0  0  0  0  0  0  0  0
   19.2167  -12.8552  -16.4176 C   0  0  2  0  0  0  0  0  0  0  0  0
   20.1591  -13.7732  -15.8350 N   0  0  0  0  0  0  0  0  0  0  0  0
   19.9620  -11.7938  -17.1368 C   0  0  0  0  0  0  0  0  0  0  0  0
   19.3240  -10.8499  -17.9359 O   0  0  0  0  0  0  0  0  0  0  0  0
   21.2124  -11.7625  -17.0075 O   0  0  0  0  0  0  0  0  0  0  0  0
  2  1  1  1
  3  2  1  0
  4  3  1  0
  5  4  1  0
  6  5  1  0
  7  6  1  0
  8  2  1  0
  8 10  1  0
  9  8  2  0
 10 11  1  0
 11 12  1  0
 13 14  1  0
 13 12  1  0
 14 10  1  0
 15 19  1  0
 14 15  1  6
 16 15  2  0
 18 17  1  1
 18 19  1  0
 20 21  1  0
 20 18  1  0
 22 20  2  0
M  END
$$$$
