KPA.pdb
     RDKit          3D

 22 22  0  0  1  0  0  0  0  0999 V2000
   24.2260  -19.2868  -18.4142 N   0  0  0  0  0  0  0  0  0  0  0  0
   24.8159  -18.6261  -17.3121 C   0  0  1  0  0  0  0  0  0  0  0  0
   23.8923  -17.5412  -16.8166 C   0  0  0  0  0  0  0  0  0  0  0  0
   22.5557  -17.9663  -16.3655 C   0  0  0  0  0  0  0  0  0  0  0  0
   21.4386  -17.9138  -17.3387 C   0  0  0  0  0  0  0  0  0  0  0  0
   20.0990  -18.2947  -16.7495 C   0  0  0  0  0  0  0  0  0  0  0  0
   19.0582  -18.1847  -17.7748 N   0  0  0  0  0  0  0  0  0  0  0  0
   25.1748  -19.4592  -16.1384 C   0  0  0  0  0  0  0  0  0  0  0  0
   24.1798  -20.0855  -15.5979 O   0  0  0  0  0  0  0  0  0  0  0  0
   26.4303  -19.6516  -15.5520 N   0  0  0  0  0  0  0  0  0  0  0  0
   27.6960  -19.8640  -16.2890 C   0  0  0  0  0  0  0  0  0  0  0  0
   28.5888  -18.8354  -15.5559 C   0  0  0  0  0  0  0  0  0  0  0  0
   27.8872  -18.5458  -14.2375 C   0  0  0  0  0  0  0  0  0  0  0  0
   26.9275  -19.7324  -14.2085 C   0  0  1  0  0  0  0  0  0  0  0  0
   26.0626  -19.7757  -13.0837 C   0  0  0  0  0  0  0  0  0  0  0  0
   25.2932  -18.8841  -12.7138 O   0  0  0  0  0  0  0  0  0  0  0  0
   25.0782  -22.5514  -10.6741 C   0  0  0  0  0  0  0  0  0  0  0  0
   25.2411  -21.0969  -11.0996 C   0  0  2  0  0  0  0  0  0  0  0  0
   26.0631  -20.9709  -12.2737 N   0  0  0  0  0  0  0  0  0  0  0  0
   25.9091  -20.4072   -9.9694 C   0  0  0  0  0  0  0  0  0  0  0  0
   25.1987  -19.8943   -8.8882 O   0  0  0  0  0  0  0  0  0  0  0  0
   27.1607  -20.2917  -10.0078 O   0  0  0  0  0  0  0  0  0  0  0  0
  2  1  1  6
  3  2  1  0
  4  3  1  0
  5  4  1  0
  6  5  1  0
  7  6  1  0
  8  2  1  0
  8 10  1  0
  9  8  2  0
 10 11  1  0
 11 12  1  0
 13 14  1  0
 13 12  1  0
 14 10  1  0
 15 19  1  0
 14 15  1  1
 16 15  2  0
 18 17  1  1
 18 19  1  0
 20 21  1  0
 20 18  1  0
 22 20  2  0
M  END
$$$$
