KPA.pdb
     RDKit          3D

 22 22  0  0  1  0  0  0  0  0999 V2000
   26.8905  -20.8080  -17.5560 N   0  0  0  0  0  0  0  0  0  0  0  0
   27.4986  -20.1489  -16.4629 C   0  0  1  0  0  0  0  0  0  0  0  0
   27.2461  -18.6649  -16.5604 C   0  0  0  0  0  0  0  0  0  0  0  0
   26.5982  -18.1844  -17.7933 C   0  0  0  0  0  0  0  0  0  0  0  0
   25.1687  -17.7969  -17.7278 C   0  0  0  0  0  0  0  0  0  0  0  0
   24.6212  -17.2652  -19.0334 C   0  0  0  0  0  0  0  0  0  0  0  0
   23.2154  -16.8891  -18.8639 N   0  0  0  0  0  0  0  0  0  0  0  0
   27.0821  -20.5710  -15.1032 C   0  0  0  0  0  0  0  0  0  0  0  0
   25.8016  -20.6263  -14.9250 O   0  0  0  0  0  0  0  0  0  0  0  0
   27.8832  -20.9119  -14.0082 N   0  0  0  0  0  0  0  0  0  0  0  0
   29.1288  -21.7085  -14.0736 C   0  0  0  0  0  0  0  0  0  0  0  0
   30.0531  -20.7984  -13.2311 C   0  0  0  0  0  0  0  0  0  0  0  0
   29.1256  -19.9034  -12.4231 C   0  0  0  0  0  0  0  0  0  0  0  0
   27.8262  -20.6861  -12.5924 C   0  0  1  0  0  0  0  0  0  0  0  0
   26.6922  -20.1073  -11.9644 C   0  0  0  0  0  0  0  0  0  0  0  0
   26.3652  -18.9172  -11.9910 O   0  0  0  0  0  0  0  0  0  0  0  0
   23.3652  -20.8734  -11.1398 C   0  0  0  0  0  0  0  0  0  0  0  0
   24.6819  -20.4703  -10.4865 C   0  0  2  0  0  0  0  0  0  0  0  0
   25.8170  -20.9751  -11.2125 N   0  0  0  0  0  0  0  0  0  0  0  0
   24.6728  -21.0716   -9.1309 C   0  0  0  0  0  0  0  0  0  0  0  0
   23.8232  -20.6216   -8.1248 O   0  0  0  0  0  0  0  0  0  0  0  0
   25.4672  -22.0192   -8.9025 O   0  0  0  0  0  0  0  0  0  0  0  0
  2  1  1  6
  3  2  1  0
  4  3  1  0
  5  4  1  0
  6  5  1  0
  7  6  1  0
  8  2  1  0
  8 10  1  0
  9  8  2  0
 10 11  1  0
 11 12  1  0
 13 14  1  0
 13 12  1  0
 14 10  1  0
 15 19  1  0
 14 15  1  6
 16 15  2  0
 18 17  1  6
 18 19  1  0
 20 21  1  0
 20 18  1  0
 22 20  2  0
M  END
$$$$
