KPA.pdb
     RDKit          3D

 22 22  0  0  1  0  0  0  0  0999 V2000
   17.6856  -14.2816  -17.6256 N   0  0  0  0  0  0  0  0  0  0  0  0
   17.2885  -12.9247  -17.6145 C   0  0  1  0  0  0  0  0  0  0  0  0
   16.1499  -12.7366  -16.6430 C   0  0  0  0  0  0  0  0  0  0  0  0
   15.7033  -13.9333  -15.9087 C   0  0  0  0  0  0  0  0  0  0  0  0
   14.6659  -13.7666  -14.8628 C   0  0  0  0  0  0  0  0  0  0  0  0
   14.3633  -15.0350  -14.0971 C   0  0  0  0  0  0  0  0  0  0  0  0
   13.4687  -14.7350  -12.9763 N   0  0  0  0  0  0  0  0  0  0  0  0
   18.3242  -11.9208  -17.2679 C   0  0  0  0  0  0  0  0  0  0  0  0
   18.9286  -12.1364  -16.1443 O   0  0  0  0  0  0  0  0  0  0  0  0
   18.7246  -10.7909  -17.9890 N   0  0  0  0  0  0  0  0  0  0  0  0
   18.8305  -10.7089  -19.4629 C   0  0  0  0  0  0  0  0  0  0  0  0
   18.0604   -9.3879  -19.6966 C   0  0  0  0  0  0  0  0  0  0  0  0
   18.0513   -8.6727  -18.3541 C   0  0  0  0  0  0  0  0  0  0  0  0
   19.1518   -9.4634  -17.6515 C   0  0  1  0  0  0  0  0  0  0  0  0
   19.4098   -9.0700  -16.3121 C   0  0  0  0  0  0  0  0  0  0  0  0
   18.6039   -9.0739  -15.3770 O   0  0  0  0  0  0  0  0  0  0  0  0
   22.6017   -8.3865  -14.3994 C   0  0  0  0  0  0  0  0  0  0  0  0
   21.1058   -8.2301  -14.6461 C   0  0  2  0  0  0  0  0  0  0  0  0
   20.7401   -8.6153  -15.9833 N   0  0  0  0  0  0  0  0  0  0  0  0
   20.8040   -6.7899  -14.4617 C   0  0  0  0  0  0  0  0  0  0  0  0
   20.7125   -6.2059  -13.2019 O   0  0  0  0  0  0  0  0  0  0  0  0
   20.6281   -6.0894  -15.4911 O   0  0  0  0  0  0  0  0  0  0  0  0
  2  1  1  1
  3  2  1  0
  4  3  1  0
  5  4  1  0
  6  5  1  0
  7  6  1  0
  8  2  1  0
  8 10  1  0
  9  8  2  0
 10 11  1  0
 11 12  1  0
 13 14  1  0
 13 12  1  0
 14 10  1  0
 15 19  1  0
 14 15  1  1
 16 15  2  0
 18 17  1  6
 18 19  1  0
 20 21  1  0
 20 18  1  0
 22 20  2  0
M  END
$$$$
