KPA.pdb
     RDKit          3D

 22 22  0  0  1  0  0  0  0  0999 V2000
   14.9208  -17.8945    2.8556 N   0  0  0  0  0  0  0  0  0  0  0  0
   15.6554  -17.8393    4.0625 C   0  0  1  0  0  0  0  0  0  0  0  0
   16.7697  -18.8555    4.0256 C   0  0  0  0  0  0  0  0  0  0  0  0
   16.3725  -20.2736    4.0687 C   0  0  0  0  0  0  0  0  0  0  0  0
   17.4387  -21.3017    4.0043 C   0  0  0  0  0  0  0  0  0  0  0  0
   16.9152  -22.7183    3.9270 C   0  0  0  0  0  0  0  0  0  0  0  0
   18.0347  -23.6525    3.7846 N   0  0  0  0  0  0  0  0  0  0  0  0
   16.2682  -16.5369    4.4211 C   0  0  0  0  0  0  0  0  0  0  0  0
   17.1495  -16.1058    3.5774 O   0  0  0  0  0  0  0  0  0  0  0  0
   16.0185  -15.7288    5.5354 N   0  0  0  0  0  0  0  0  0  0  0  0
   14.6999  -15.5454    6.1818 C   0  0  0  0  0  0  0  0  0  0  0  0
   15.1085  -15.7772    7.6555 C   0  0  0  0  0  0  0  0  0  0  0  0
   16.6158  -15.5776    7.7019 C   0  0  0  0  0  0  0  0  0  0  0  0
   16.8064  -14.8640    6.3661 C   0  0  1  0  0  0  0  0  0  0  0  0
   18.1502  -14.5317    6.0511 C   0  0  0  0  0  0  0  0  0  0  0  0
   19.0788  -15.3237    5.8662 O   0  0  0  0  0  0  0  0  0  0  0  0
   19.9253  -11.2817    5.1937 C   0  0  0  0  0  0  0  0  0  0  0  0
   19.8518  -12.6935    5.7632 C   0  0  2  0  0  0  0  0  0  0  0  0
   18.4922  -13.1344    5.9290 N   0  0  0  0  0  0  0  0  0  0  0  0
   20.5042  -12.6378    7.0939 C   0  0  0  0  0  0  0  0  0  0  0  0
   21.8850  -12.5459    7.2405 O   0  0  0  0  0  0  0  0  0  0  0  0
   19.7674  -12.6761    8.1122 O   0  0  0  0  0  0  0  0  0  0  0  0
  2  1  1  6
  3  2  1  0
  4  3  1  0
  5  4  1  0
  6  5  1  0
  7  6  1  0
  8  2  1  0
  8 10  1  0
  9  8  2  0
 10 11  1  0
 11 12  1  0
 13 14  1  0
 13 12  1  0
 14 10  1  0
 15 19  1  0
 14 15  1  6
 16 15  2  0
 18 17  1  1
 18 19  1  0
 20 21  1  0
 20 18  1  0
 22 20  2  0
M  END
$$$$
