IGP.pdb
     RDKit          3D

 20 20  0  0  1  0  0  0  0  0999 V2000
   27.9040  -20.3245   -4.0503 C   0  0  0  0  0  0  0  0  0  0  0  0
   26.7930  -20.0093   -5.0341 C   0  0  0  0  0  0  0  0  0  0  0  0
   27.2190  -20.2303   -6.4448 C   0  0  2  0  0  0  0  0  0  0  0  0
   28.5360  -19.5372   -6.7622 C   0  0  0  0  0  0  0  0  0  0  0  0
   26.1956  -19.9178   -7.4866 C   0  0  2  0  0  0  0  0  0  0  0  0
   25.0976  -20.8806   -7.2734 N   0  0  0  0  0  0  0  0  0  0  0  0
   26.6490  -20.0871   -8.8776 C   0  0  0  0  0  0  0  0  0  0  0  0
   27.2533  -19.1458   -9.4494 O   0  0  0  0  0  0  0  0  0  0  0  0
   26.4645  -21.2589   -9.6707 N   0  0  0  0  0  0  0  0  0  0  0  0
   26.8713  -21.3627  -11.0423 C   0  0  0  0  0  0  0  0  0  0  0  0
   26.1653  -20.4278  -11.9368 C   0  0  0  0  0  0  0  0  0  0  0  0
   25.0762  -19.9510  -11.5551 O   0  0  0  0  0  0  0  0  0  0  0  0
   26.6805  -20.0639  -13.1926 N   0  0  0  0  0  0  0  0  0  0  0  0
   27.9268  -20.5511  -13.7366 C   0  0  0  0  0  0  0  0  0  0  0  0
   28.4564  -19.4574  -14.6322 C   0  0  0  0  0  0  0  0  0  0  0  0
   27.2817  -18.5469  -14.8564 C   0  0  0  0  0  0  0  0  0  0  0  0
   26.0965  -19.1658  -14.1593 C   0  0  1  0  0  0  0  0  0  0  0  0
   25.2552  -19.8389  -15.1463 C   0  0  0  0  0  0  0  0  0  0  0  0
   25.2494  -21.0909  -15.2202 O   0  0  0  0  0  0  0  0  0  0  0  0
   24.4513  -19.1214  -16.0164 O   0  0  0  0  0  0  0  0  0  0  0  0
  2  3  1  0
  2  1  1  0
  3  4  1  6
  5  7  1  0
  5  3  1  0
  5  6  1  1
  7  8  2  0
  9 10  1  0
  9  7  1  0
 11 10  1  0
 12 11  2  0
 13 11  1  0
 13 14  1  0
 15 14  1  0
 16 15  1  0
 17 16  1  0
 17 13  1  0
 17 18  1  6
 18 20  1  0
 19 18  2  0
M  END
$$$$
