IGP.pdb
     RDKit          3D

 20 20  0  0  1  0  0  0  0  0999 V2000
   16.5581  -14.5169  -15.1852 C   0  0  0  0  0  0  0  0  0  0  0  0
   17.7149  -14.4742  -16.1658 C   0  0  0  0  0  0  0  0  0  0  0  0
   18.2748  -13.1006  -16.3074 C   0  0  2  0  0  0  0  0  0  0  0  0
   17.2036  -12.0769  -16.6542 C   0  0  0  0  0  0  0  0  0  0  0  0
   19.4447  -12.9699  -17.2264 C   0  0  2  0  0  0  0  0  0  0  0  0
   20.5659  -13.6499  -16.5493 N   0  0  0  0  0  0  0  0  0  0  0  0
   19.8794  -11.5877  -17.4907 C   0  0  0  0  0  0  0  0  0  0  0  0
   19.1604  -10.8383  -18.1975 O   0  0  0  0  0  0  0  0  0  0  0  0
   21.0812  -10.9916  -17.0045 N   0  0  0  0  0  0  0  0  0  0  0  0
   21.4331   -9.6185  -17.2248 C   0  0  0  0  0  0  0  0  0  0  0  0
   21.7203   -8.8791  -15.9825 C   0  0  0  0  0  0  0  0  0  0  0  0
   21.6014   -9.4801  -14.8944 O   0  0  0  0  0  0  0  0  0  0  0  0
   22.1196   -7.5318  -15.9914 N   0  0  0  0  0  0  0  0  0  0  0  0
   22.1843   -6.7068  -17.1754 C   0  0  0  0  0  0  0  0  0  0  0  0
   23.2796   -5.6972  -16.9310 C   0  0  0  0  0  0  0  0  0  0  0  0
   23.5267   -5.7548  -15.4495 C   0  0  0  0  0  0  0  0  0  0  0  0
   22.5308   -6.7259  -14.8673 C   0  0  1  0  0  0  0  0  0  0  0  0
   21.4346   -5.9805  -14.2527 C   0  0  0  0  0  0  0  0  0  0  0  0
   20.3710   -5.7857  -14.8881 O   0  0  0  0  0  0  0  0  0  0  0  0
   21.5392   -5.4749  -12.9676 O   0  0  0  0  0  0  0  0  0  0  0  0
  2  3  1  0
  2  1  1  0
  3  4  1  6
  5  7  1  0
  5  3  1  0
  5  6  1  1
  7  8  2  0
  9 10  1  0
  9  7  1  0
 11 10  1  0
 12 11  2  0
 13 11  1  0
 13 14  1  0
 15 14  1  0
 16 15  1  0
 17 16  1  0
 17 13  1  0
 17 18  1  6
 18 20  1  0
 19 18  2  0
M  END
$$$$
