IGP.pdb
     RDKit          3D

 20 20  0  0  1  0  0  0  0  0999 V2000
   13.9878   -9.1772  -18.6903 C   0  0  0  0  0  0  0  0  0  0  0  0
   15.2563   -9.8317  -19.2041 C   0  0  0  0  0  0  0  0  0  0  0  0
   16.4152   -9.5866  -18.3001 C   0  0  2  0  0  0  0  0  0  0  0  0
   16.6664   -8.1022  -18.0783 C   0  0  0  0  0  0  0  0  0  0  0  0
   17.6826  -10.2855  -18.6682 C   0  0  2  0  0  0  0  0  0  0  0  0
   17.3412  -11.7186  -18.7543 N   0  0  0  0  0  0  0  0  0  0  0  0
   18.7713  -10.1634  -17.6838 C   0  0  0  0  0  0  0  0  0  0  0  0
   18.6710  -10.7470  -16.5759 O   0  0  0  0  0  0  0  0  0  0  0  0
   19.9755   -9.4208  -17.8704 N   0  0  0  0  0  0  0  0  0  0  0  0
   21.0125   -9.3268  -16.8839 C   0  0  0  0  0  0  0  0  0  0  0  0
   20.7792   -8.2680  -15.8854 C   0  0  0  0  0  0  0  0  0  0  0  0
   19.7685   -7.5460  -16.0127 O   0  0  0  0  0  0  0  0  0  0  0  0
   21.6546   -8.0531  -14.8072 N   0  0  0  0  0  0  0  0  0  0  0  0
   22.7892   -8.8915  -14.4967 C   0  0  0  0  0  0  0  0  0  0  0  0
   22.9791   -8.8131  -13.0012 C   0  0  0  0  0  0  0  0  0  0  0  0
   22.1724   -7.6179  -12.5771 C   0  0  0  0  0  0  0  0  0  0  0  0
   21.6046   -6.9951  -13.8274 C   0  0  1  0  0  0  0  0  0  0  0  0
   22.4048   -5.8273  -14.1894 C   0  0  0  0  0  0  0  0  0  0  0  0
   23.3206   -5.9302  -15.0400 O   0  0  0  0  0  0  0  0  0  0  0  0
   22.1763   -4.5902  -13.6100 O   0  0  0  0  0  0  0  0  0  0  0  0
  2  3  1  0
  2  1  1  0
  3  4  1  6
  5  7  1  0
  5  3  1  0
  5  6  1  1
  7  8  2  0
  9 10  1  0
  9  7  1  0
 11 10  1  0
 12 11  2  0
 13 11  1  0
 13 14  1  0
 15 14  1  0
 16 15  1  0
 17 16  1  0
 17 13  1  0
 17 18  1  6
 18 20  1  0
 19 18  2  0
M  END
$$$$
