IGP.pdb
     RDKit          3D

 20 20  0  0  1  0  0  0  0  0999 V2000
   22.0987  -19.0335  -16.6241 C   0  0  0  0  0  0  0  0  0  0  0  0
   23.4027  -18.9678  -17.3966 C   0  0  0  0  0  0  0  0  0  0  0  0
   24.0137  -17.6097  -17.3436 C   0  0  2  0  0  0  0  0  0  0  0  0
   23.2944  -16.6208  -18.2494 C   0  0  0  0  0  0  0  0  0  0  0  0
   25.4887  -17.5542  -17.5703 C   0  0  2  0  0  0  0  0  0  0  0  0
   25.7178  -18.1863  -18.8840 N   0  0  0  0  0  0  0  0  0  0  0  0
   26.2992  -18.2975  -16.5906 C   0  0  0  0  0  0  0  0  0  0  0  0
   26.5777  -19.5033  -16.8069 O   0  0  0  0  0  0  0  0  0  0  0  0
   26.8209  -17.7640  -15.3742 N   0  0  0  0  0  0  0  0  0  0  0  0
   27.5043  -18.5518  -14.3893 C   0  0  0  0  0  0  0  0  0  0  0  0
   26.6046  -19.4032  -13.5904 C   0  0  0  0  0  0  0  0  0  0  0  0
   25.3991  -19.4559  -13.9113 O   0  0  0  0  0  0  0  0  0  0  0  0
   27.0635  -20.1478  -12.4905 N   0  0  0  0  0  0  0  0  0  0  0  0
   28.4363  -20.1811  -12.0421 C   0  0  0  0  0  0  0  0  0  0  0  0
   28.6466  -21.5387  -11.4167 C   0  0  0  0  0  0  0  0  0  0  0  0
   27.2599  -22.0739  -11.1933 C   0  0  0  0  0  0  0  0  0  0  0  0
   26.2918  -20.9983  -11.6170 C   0  0  1  0  0  0  0  0  0  0  0  0
   25.7872  -20.3106  -10.4306 C   0  0  0  0  0  0  0  0  0  0  0  0
   26.2961  -19.2230  -10.0687 O   0  0  0  0  0  0  0  0  0  0  0  0
   24.7460  -20.8347   -9.6828 O   0  0  0  0  0  0  0  0  0  0  0  0
  2  3  1  0
  2  1  1  0
  3  4  1  6
  5  7  1  0
  5  3  1  0
  5  6  1  6
  7  8  2  0
  9 10  1  0
  9  7  1  0
 11 10  1  0
 12 11  2  0
 13 11  1  0
 13 14  1  0
 15 14  1  0
 16 15  1  0
 17 16  1  0
 17 13  1  0
 17 18  1  1
 18 20  1  0
 19 18  2  0
M  END
$$$$
