IGP.pdb
     RDKit          3D

 20 20  0  0  1  0  0  0  0  0999 V2000
   11.0789  -16.1518    2.4771 C   0  0  0  0  0  0  0  0  0  0  0  0
   12.3730  -16.6943    1.9004 C   0  0  0  0  0  0  0  0  0  0  0  0
   13.0344  -17.6575    2.8252 C   0  0  2  0  0  0  0  0  0  0  0  0
   13.2974  -17.0496    4.1953 C   0  0  0  0  0  0  0  0  0  0  0  0
   14.2648  -18.3199    2.2985 C   0  0  2  0  0  0  0  0  0  0  0  0
   13.8261  -19.1183    1.1374 N   0  0  0  0  0  0  0  0  0  0  0  0
   14.9221  -19.2493    3.2330 C   0  0  0  0  0  0  0  0  0  0  0  0
   15.7797  -18.8110    4.0396 O   0  0  0  0  0  0  0  0  0  0  0  0
   14.6715  -20.6516    3.3179 N   0  0  0  0  0  0  0  0  0  0  0  0
   15.2574  -21.5051    4.3109 C   0  0  0  0  0  0  0  0  0  0  0  0
   16.4486  -22.2302    3.8335 C   0  0  0  0  0  0  0  0  0  0  0  0
   16.9490  -21.8925    2.7405 O   0  0  0  0  0  0  0  0  0  0  0  0
   17.0280  -23.2787    4.5680 N   0  0  0  0  0  0  0  0  0  0  0  0
   16.6452  -23.6433    5.9123 C   0  0  0  0  0  0  0  0  0  0  0  0
   17.8798  -24.2156    6.5657 C   0  0  0  0  0  0  0  0  0  0  0  0
   18.8144  -24.5057    5.4249 C   0  0  0  0  0  0  0  0  0  0  0  0
   18.0814  -24.1718    4.1501 C   0  0  1  0  0  0  0  0  0  0  0  0
   17.5915  -25.4055    3.5395 C   0  0  0  0  0  0  0  0  0  0  0  0
   18.3500  -26.0955    2.8174 O   0  0  0  0  0  0  0  0  0  0  0  0
   16.2920  -25.8411    3.7391 O   0  0  0  0  0  0  0  0  0  0  0  0
  2  3  1  0
  2  1  1  0
  3  4  1  1
  5  7  1  0
  5  3  1  0
  5  6  1  6
  7  8  2  0
  9 10  1  0
  9  7  1  0
 11 10  1  0
 12 11  2  0
 13 11  1  0
 13 14  1  0
 15 14  1  0
 16 15  1  0
 17 16  1  0
 17 13  1  0
 17 18  1  1
 18 20  1  0
 19 18  2  0
M  END
$$$$
