IGP.pdb
     RDKit          3D

 20 20  0  0  1  0  0  0  0  0999 V2000
   28.4355  -20.4532   -3.9460 C   0  0  0  0  0  0  0  0  0  0  0  0
   27.2947  -20.0261   -4.8503 C   0  0  0  0  0  0  0  0  0  0  0  0
   27.5719  -20.3365   -6.2811 C   0  0  2  0  0  0  0  0  0  0  0  0
   28.9255  -19.8069   -6.7317 C   0  0  0  0  0  0  0  0  0  0  0  0
   26.5042  -19.9417   -7.2478 C   0  0  2  0  0  0  0  0  0  0  0  0
   25.3260  -20.7605   -6.9022 N   0  0  0  0  0  0  0  0  0  0  0  0
   26.8124  -20.2113   -8.6626 C   0  0  0  0  0  0  0  0  0  0  0  0
   27.4571  -19.3623   -9.3272 O   0  0  0  0  0  0  0  0  0  0  0  0
   26.4386  -21.3862   -9.3810 N   0  0  0  0  0  0  0  0  0  0  0  0
   26.7191  -21.5898  -10.7730 C   0  0  0  0  0  0  0  0  0  0  0  0
   26.2617  -20.4830  -11.6324 C   0  0  0  0  0  0  0  0  0  0  0  0
   25.4323  -19.6746  -11.1658 O   0  0  0  0  0  0  0  0  0  0  0  0
   26.7295  -20.3168  -12.9470 N   0  0  0  0  0  0  0  0  0  0  0  0
   27.7347  -21.1481  -13.5676 C   0  0  0  0  0  0  0  0  0  0  0  0
   28.4516  -20.2736  -14.5676 C   0  0  0  0  0  0  0  0  0  0  0  0
   27.5545  -19.0803  -14.7419 C   0  0  0  0  0  0  0  0  0  0  0  0
   26.3205  -19.3232  -13.9101 C   0  0  1  0  0  0  0  0  0  0  0  0
   25.2336  -19.7673  -14.7798 C   0  0  0  0  0  0  0  0  0  0  0  0
   24.8882  -20.9729  -14.7910 O   0  0  0  0  0  0  0  0  0  0  0  0
   24.5636  -18.8798  -15.6054 O   0  0  0  0  0  0  0  0  0  0  0  0
  2  3  1  0
  2  1  1  0
  3  4  1  6
  5  7  1  0
  5  3  1  0
  5  6  1  1
  7  8  2  0
  9 10  1  0
  9  7  1  0
 11 10  1  0
 12 11  2  0
 13 11  1  0
 13 14  1  0
 15 14  1  0
 16 15  1  0
 17 16  1  0
 17 13  1  0
 17 18  1  6
 18 20  1  0
 19 18  2  0
M  END
$$$$
