IGP.pdb
     RDKit          3D

 20 20  0  0  1  0  0  0  0  0999 V2000
   17.0011  -21.2780  -17.1006 C   0  0  0  0  0  0  0  0  0  0  0  0
   18.0085  -21.9760  -16.2063 C   0  0  0  0  0  0  0  0  0  0  0  0
   18.9063  -21.0072  -15.5166 C   0  0  2  0  0  0  0  0  0  0  0  0
   19.4878  -19.9795  -16.4766 C   0  0  0  0  0  0  0  0  0  0  0  0
   19.9830  -21.6088  -14.6745 C   0  0  2  0  0  0  0  0  0  0  0  0
   19.2892  -22.3387  -13.5957 N   0  0  0  0  0  0  0  0  0  0  0  0
   20.8827  -20.6399  -14.0257 C   0  0  0  0  0  0  0  0  0  0  0  0
   21.6249  -19.9153  -14.7343 O   0  0  0  0  0  0  0  0  0  0  0  0
   20.9990  -20.4333  -12.6185 N   0  0  0  0  0  0  0  0  0  0  0  0
   21.9481  -19.5380  -12.0223 C   0  0  0  0  0  0  0  0  0  0  0  0
   23.3044  -19.6587  -12.5866 C   0  0  0  0  0  0  0  0  0  0  0  0
   23.5711  -19.0246  -13.6286 O   0  0  0  0  0  0  0  0  0  0  0  0
   24.2926  -20.4594  -11.9890 N   0  0  0  0  0  0  0  0  0  0  0  0
   24.0664  -21.3267  -10.8561 C   0  0  0  0  0  0  0  0  0  0  0  0
   25.3739  -21.3946  -10.1048 C   0  0  0  0  0  0  0  0  0  0  0  0
   26.3960  -20.8637  -11.0706 C   0  0  0  0  0  0  0  0  0  0  0  0
   25.6803  -20.5770  -12.3664 C   0  0  1  0  0  0  0  0  0  0  0  0
   25.9378  -21.6635  -13.3089 C   0  0  0  0  0  0  0  0  0  0  0  0
   27.0547  -21.7579  -13.8716 O   0  0  0  0  0  0  0  0  0  0  0  0
   24.9674  -22.6069  -13.6029 O   0  0  0  0  0  0  0  0  0  0  0  0
  2  3  1  0
  2  1  1  0
  3  4  1  6
  5  7  1  0
  5  3  1  0
  5  6  1  1
  7  8  2  0
  9 10  1  0
  9  7  1  0
 11 10  1  0
 12 11  2  0
 13 11  1  0
 13 14  1  0
 15 14  1  0
 16 15  1  0
 17 16  1  0
 17 13  1  0
 17 18  1  6
 18 20  1  0
 19 18  2  0
M  END
$$$$
