IGP.pdb
     RDKit          3D

 20 20  0  0  1  0  0  0  0  0999 V2000
   15.8327  -13.2992  -19.1624 C   0  0  0  0  0  0  0  0  0  0  0  0
   17.1694  -13.0915  -18.4755 C   0  0  0  0  0  0  0  0  0  0  0  0
   17.4546  -11.6486  -18.2365 C   0  0  2  0  0  0  0  0  0  0  0  0
   17.5020  -10.8505  -19.5314 C   0  0  0  0  0  0  0  0  0  0  0  0
   18.6526  -11.3564  -17.3942 C   0  0  2  0  0  0  0  0  0  0  0  0
   18.3758  -11.9623  -16.0773 N   0  0  0  0  0  0  0  0  0  0  0  0
   18.9173   -9.9265  -17.1601 C   0  0  0  0  0  0  0  0  0  0  0  0
   18.1795   -9.2822  -16.3735 O   0  0  0  0  0  0  0  0  0  0  0  0
   19.9692   -9.1713  -17.7596 N   0  0  0  0  0  0  0  0  0  0  0  0
   20.2061   -7.7830  -17.4872 C   0  0  0  0  0  0  0  0  0  0  0  0
   21.1414   -7.5546  -16.3711 C   0  0  0  0  0  0  0  0  0  0  0  0
   21.5270   -8.5412  -15.7100 O   0  0  0  0  0  0  0  0  0  0  0  0
   21.6042   -6.2707  -16.0364 N   0  0  0  0  0  0  0  0  0  0  0  0
   21.3139   -5.0748  -16.7927 C   0  0  0  0  0  0  0  0  0  0  0  0
   22.4927   -4.1520  -16.5984 C   0  0  0  0  0  0  0  0  0  0  0  0
   23.2297   -4.7195  -15.4178 C   0  0  0  0  0  0  0  0  0  0  0  0
   22.4310   -5.8954  -14.9149 C   0  0  1  0  0  0  0  0  0  0  0  0
   21.6667   -5.4898  -13.7374 C   0  0  0  0  0  0  0  0  0  0  0  0
   20.4849   -5.0887  -13.8609 O   0  0  0  0  0  0  0  0  0  0  0  0
   22.2200   -5.5368  -12.4686 O   0  0  0  0  0  0  0  0  0  0  0  0
  2  3  1  0
  2  1  1  0
  3  4  1  6
  5  7  1  0
  5  3  1  0
  5  6  1  1
  7  8  2  0
  9 10  1  0
  9  7  1  0
 11 10  1  0
 12 11  2  0
 13 11  1  0
 13 14  1  0
 15 14  1  0
 16 15  1  0
 17 16  1  0
 17 13  1  0
 17 18  1  1
 18 20  1  0
 19 18  2  0
M  END
$$$$
