IGP.pdb
     RDKit          3D

 20 20  0  0  1  0  0  0  0  0999 V2000
   20.8062  -16.6494  -18.6686 C   0  0  0  0  0  0  0  0  0  0  0  0
   22.0282  -17.5236  -18.8784 C   0  0  0  0  0  0  0  0  0  0  0  0
   23.0225  -17.3639  -17.7801 C   0  0  2  0  0  0  0  0  0  0  0  0
   24.3267  -16.7522  -18.2707 C   0  0  0  0  0  0  0  0  0  0  0  0
   23.2887  -18.5867  -16.9651 C   0  0  2  0  0  0  0  0  0  0  0  0
   21.9647  -19.0896  -16.5502 N   0  0  0  0  0  0  0  0  0  0  0  0
   24.0650  -18.3596  -15.7342 C   0  0  0  0  0  0  0  0  0  0  0  0
   25.3034  -18.1636  -15.8120 O   0  0  0  0  0  0  0  0  0  0  0  0
   23.5302  -18.3379  -14.4114 N   0  0  0  0  0  0  0  0  0  0  0  0
   24.3364  -18.2323  -13.2296 C   0  0  0  0  0  0  0  0  0  0  0  0
   25.2613  -19.3652  -13.0463 C   0  0  0  0  0  0  0  0  0  0  0  0
   25.9425  -19.7380  -14.0241 O   0  0  0  0  0  0  0  0  0  0  0  0
   25.3943  -20.0280  -11.8143 N   0  0  0  0  0  0  0  0  0  0  0  0
   24.6532  -19.6908  -10.6211 C   0  0  0  0  0  0  0  0  0  0  0  0
   25.5394  -20.0520   -9.4537 C   0  0  0  0  0  0  0  0  0  0  0  0
   26.5982  -20.9427  -10.0409 C   0  0  0  0  0  0  0  0  0  0  0  0
   26.2620  -21.1366  -11.4980 C   0  0  1  0  0  0  0  0  0  0  0  0
   25.6290  -22.4414  -11.6762 C   0  0  0  0  0  0  0  0  0  0  0  0
   24.3963  -22.5192  -11.8937 O   0  0  0  0  0  0  0  0  0  0  0  0
   26.3642  -23.6134  -11.6106 O   0  0  0  0  0  0  0  0  0  0  0  0
  2  3  1  0
  2  1  1  0
  3  4  1  6
  5  7  1  0
  5  3  1  0
  5  6  1  1
  7  8  2  0
  9 10  1  0
  9  7  1  0
 11 10  1  0
 12 11  2  0
 13 11  1  0
 13 14  1  0
 15 14  1  0
 16 15  1  0
 17 16  1  0
 17 13  1  0
 17 18  1  1
 18 20  1  0
 19 18  2  0
M  END
$$$$
