IGP.pdb
     RDKit          3D

 20 20  0  0  1  0  0  0  0  0999 V2000
   24.6528  -20.4875  -14.0660 C   0  0  0  0  0  0  0  0  0  0  0  0
   24.2380  -21.4884  -13.0040 C   0  0  0  0  0  0  0  0  0  0  0  0
   24.4306  -20.9517  -11.6273 C   0  0  2  0  0  0  0  0  0  0  0  0
   23.5313  -19.7569  -11.3458 C   0  0  0  0  0  0  0  0  0  0  0  0
   25.8415  -20.6508  -11.2413 C   0  0  2  0  0  0  0  0  0  0  0  0
   26.5565  -21.9408  -11.2929 N   0  0  0  0  0  0  0  0  0  0  0  0
   26.0161  -20.1191   -9.8789 C   0  0  0  0  0  0  0  0  0  0  0  0
   26.1746  -18.8840   -9.7132 O   0  0  0  0  0  0  0  0  0  0  0  0
   26.0220  -20.8965   -8.6823 N   0  0  0  0  0  0  0  0  0  0  0  0
   26.2505  -20.3458   -7.3776 C   0  0  0  0  0  0  0  0  0  0  0  0
   27.6731  -20.0900   -7.0888 C   0  0  0  0  0  0  0  0  0  0  0  0
   28.4969  -20.2073   -8.0198 O   0  0  0  0  0  0  0  0  0  0  0  0
   28.1201  -19.7221   -5.8084 N   0  0  0  0  0  0  0  0  0  0  0  0
   27.2540  -19.4951   -4.6748 C   0  0  0  0  0  0  0  0  0  0  0  0
   27.9467  -18.4710   -3.8087 C   0  0  0  0  0  0  0  0  0  0  0  0
   29.3658  -18.4512   -4.3037 C   0  0  0  0  0  0  0  0  0  0  0  0
   29.4797  -19.5037   -5.3774 C   0  0  1  0  0  0  0  0  0  0  0  0
   30.1122  -20.6959   -4.8174 C   0  0  0  0  0  0  0  0  0  0  0  0
   31.3128  -20.6616   -4.4565 O   0  0  0  0  0  0  0  0  0  0  0  0
   29.4116  -21.8817   -4.6718 O   0  0  0  0  0  0  0  0  0  0  0  0
  2  3  1  0
  2  1  1  0
  3  4  1  6
  5  7  1  0
  5  3  1  0
  5  6  1  1
  7  8  2  0
  9 10  1  0
  9  7  1  0
 11 10  1  0
 12 11  2  0
 13 11  1  0
 13 14  1  0
 15 14  1  0
 16 15  1  0
 17 16  1  0
 17 13  1  0
 17 18  1  1
 18 20  1  0
 19 18  2  0
M  END
$$$$
