IGP.pdb
     RDKit          3D

 20 20  0  0  1  0  0  0  0  0999 V2000
   28.4076  -19.4441   -3.9214 C   0  0  0  0  0  0  0  0  0  0  0  0
   27.1675  -19.5668   -4.7865 C   0  0  0  0  0  0  0  0  0  0  0  0
   27.5014  -19.9478   -6.1879 C   0  0  2  0  0  0  0  0  0  0  0  0
   28.5524  -19.0313   -6.7971 C   0  0  0  0  0  0  0  0  0  0  0  0
   26.3381  -20.1014   -7.1117 C   0  0  2  0  0  0  0  0  0  0  0  0
   25.3449  -20.9087   -6.3769 N   0  0  0  0  0  0  0  0  0  0  0  0
   26.6274  -20.8170   -8.3661 C   0  0  0  0  0  0  0  0  0  0  0  0
   27.6645  -21.5209   -8.4509 O   0  0  0  0  0  0  0  0  0  0  0  0
   25.8156  -20.7906   -9.5393 N   0  0  0  0  0  0  0  0  0  0  0  0
   26.2932  -21.1452  -10.8446 C   0  0  0  0  0  0  0  0  0  0  0  0
   26.2980  -20.0182  -11.7946 C   0  0  0  0  0  0  0  0  0  0  0  0
   25.8831  -18.9087  -11.3996 O   0  0  0  0  0  0  0  0  0  0  0  0
   26.7520  -20.1590  -13.1171 N   0  0  0  0  0  0  0  0  0  0  0  0
   27.4155  -21.3341  -13.6322 C   0  0  0  0  0  0  0  0  0  0  0  0
   28.3433  -20.8551  -14.7223 C   0  0  0  0  0  0  0  0  0  0  0  0
   27.8731  -19.4628  -15.0379 C   0  0  0  0  0  0  0  0  0  0  0  0
   26.6540  -19.1996  -14.1904 C   0  0  1  0  0  0  0  0  0  0  0  0
   25.4547  -19.3617  -15.0092 C   0  0  0  0  0  0  0  0  0  0  0  0
   24.7741  -20.4120  -14.9287 O   0  0  0  0  0  0  0  0  0  0  0  0
   25.0420  -18.3719  -15.8857 O   0  0  0  0  0  0  0  0  0  0  0  0
  2  3  1  0
  2  1  1  0
  3  4  1  6
  5  7  1  0
  5  3  1  0
  5  6  1  1
  7  8  2  0
  9 10  1  0
  9  7  1  0
 11 10  1  0
 12 11  2  0
 13 11  1  0
 13 14  1  0
 15 14  1  0
 16 15  1  0
 17 16  1  0
 17 13  1  0
 17 18  1  6
 18 20  1  0
 19 18  2  0
M  END
$$$$
