IGP.pdb
     RDKit          3D

 20 20  0  0  1  0  0  0  0  0999 V2000
   25.8727  -16.2427  -19.6858 C   0  0  0  0  0  0  0  0  0  0  0  0
   26.1012  -17.6338  -19.1251 C   0  0  0  0  0  0  0  0  0  0  0  0
   26.6623  -17.5929  -17.7452 C   0  0  2  0  0  0  0  0  0  0  0  0
   28.0465  -18.2206  -17.6695 C   0  0  0  0  0  0  0  0  0  0  0  0
   25.7787  -18.1361  -16.6708 C   0  0  2  0  0  0  0  0  0  0  0  0
   24.4820  -17.4500  -16.8313 N   0  0  0  0  0  0  0  0  0  0  0  0
   26.2346  -17.8729  -15.2952 C   0  0  0  0  0  0  0  0  0  0  0  0
   27.1176  -17.0026  -15.0928 O   0  0  0  0  0  0  0  0  0  0  0  0
   25.7543  -18.5323  -14.1245 N   0  0  0  0  0  0  0  0  0  0  0  0
   26.3328  -18.3630  -12.8228 C   0  0  0  0  0  0  0  0  0  0  0  0
   26.5309  -19.6314  -12.0985 C   0  0  0  0  0  0  0  0  0  0  0  0
   26.8424  -20.6464  -12.7556 O   0  0  0  0  0  0  0  0  0  0  0  0
   26.3800  -19.7259  -10.7045 N   0  0  0  0  0  0  0  0  0  0  0  0
   26.1770  -18.5971   -9.8264 C   0  0  0  0  0  0  0  0  0  0  0  0
   26.7858  -18.9766   -8.4982 C   0  0  0  0  0  0  0  0  0  0  0  0
   26.9665  -20.4668   -8.5742 C   0  0  0  0  0  0  0  0  0  0  0  0
   26.3958  -20.9198   -9.8944 C   0  0  1  0  0  0  0  0  0  0  0  0
   25.0697  -21.4923   -9.6742 C   0  0  0  0  0  0  0  0  0  0  0  0
   24.0429  -20.8333   -9.9645 O   0  0  0  0  0  0  0  0  0  0  0  0
   24.9125  -22.7627   -9.1454 O   0  0  0  0  0  0  0  0  0  0  0  0
  2  3  1  0
  2  1  1  0
  3  4  1  6
  5  7  1  0
  5  3  1  0
  5  6  1  1
  7  8  2  0
  9 10  1  0
  9  7  1  0
 11 10  1  0
 12 11  2  0
 13 11  1  0
 13 14  1  0
 15 14  1  0
 16 15  1  0
 17 16  1  0
 17 13  1  0
 17 18  1  1
 18 20  1  0
 19 18  2  0
M  END
$$$$
