IGP.pdb
     RDKit          3D

 20 20  0  0  1  0  0  0  0  0999 V2000
   22.5578  -20.4207   -9.3145 C   0  0  0  0  0  0  0  0  0  0  0  0
   23.9640  -20.9871   -9.3748 C   0  0  0  0  0  0  0  0  0  0  0  0
   24.6371  -20.6707  -10.6660 C   0  0  2  0  0  0  0  0  0  0  0  0
   23.7564  -20.9889  -11.8656 C   0  0  0  0  0  0  0  0  0  0  0  0
   26.0005  -21.2531  -10.8450 C   0  0  2  0  0  0  0  0  0  0  0  0
   26.8292  -20.6749   -9.7695 N   0  0  0  0  0  0  0  0  0  0  0  0
   26.6594  -20.9193  -12.1193 C   0  0  0  0  0  0  0  0  0  0  0  0
   26.6638  -21.7611  -13.0518 O   0  0  0  0  0  0  0  0  0  0  0  0
   27.3176  -19.6875  -12.4120 N   0  0  0  0  0  0  0  0  0  0  0  0
   27.9056  -19.3832  -13.6846 C   0  0  0  0  0  0  0  0  0  0  0  0
   26.9158  -19.2110  -14.7630 C   0  0  0  0  0  0  0  0  0  0  0  0
   25.7067  -19.1618  -14.4550 O   0  0  0  0  0  0  0  0  0  0  0  0
   27.2936  -19.1022  -16.1122 N   0  0  0  0  0  0  0  0  0  0  0  0
   28.6584  -19.1394  -16.5838 C   0  0  0  0  0  0  0  0  0  0  0  0
   28.6991  -18.2961  -17.8352 C   0  0  0  0  0  0  0  0  0  0  0  0
   27.2583  -18.1329  -18.2312 C   0  0  0  0  0  0  0  0  0  0  0  0
   26.4333  -18.9375  -17.2588 C   0  0  1  0  0  0  0  0  0  0  0  0
   26.0480  -20.2004  -17.8845 C   0  0  0  0  0  0  0  0  0  0  0  0
   26.5673  -21.2765  -17.5034 O   0  0  0  0  0  0  0  0  0  0  0  0
   25.1104  -20.2429  -18.9030 O   0  0  0  0  0  0  0  0  0  0  0  0
  2  3  1  0
  2  1  1  0
  3  4  1  6
  5  7  1  0
  5  3  1  0
  5  6  1  1
  7  8  2  0
  9 10  1  0
  9  7  1  0
 11 10  1  0
 12 11  2  0
 13 11  1  0
 13 14  1  0
 15 14  1  0
 16 15  1  0
 17 16  1  0
 17 13  1  0
 17 18  1  6
 18 20  1  0
 19 18  2  0
M  END
$$$$
