IGP.pdb
     RDKit          3D

 20 20  0  0  1  0  0  0  0  0999 V2000
   24.0182  -21.5972  -13.8437 C   0  0  0  0  0  0  0  0  0  0  0  0
   24.2933  -20.2434  -13.2166 C   0  0  0  0  0  0  0  0  0  0  0  0
   25.5058  -20.2667  -12.3507 C   0  0  2  0  0  0  0  0  0  0  0  0
   26.7637  -20.6145  -13.1333 C   0  0  0  0  0  0  0  0  0  0  0  0
   25.4049  -21.1036  -11.1180 C   0  0  2  0  0  0  0  0  0  0  0  0
   24.3115  -20.5149  -10.3205 N   0  0  0  0  0  0  0  0  0  0  0  0
   26.6049  -21.1042  -10.2640 C   0  0  0  0  0  0  0  0  0  0  0  0
   27.3552  -22.1118  -10.2532 O   0  0  0  0  0  0  0  0  0  0  0  0
   27.0169  -20.0331   -9.4160 N   0  0  0  0  0  0  0  0  0  0  0  0
   28.2136  -20.0601   -8.6255 C   0  0  0  0  0  0  0  0  0  0  0  0
   28.0193  -20.6415   -7.2851 C   0  0  0  0  0  0  0  0  0  0  0  0
   27.5885  -21.8106   -7.2032 O   0  0  0  0  0  0  0  0  0  0  0  0
   28.3030  -19.9223   -6.1116 N   0  0  0  0  0  0  0  0  0  0  0  0
   28.7629  -18.5532   -6.0836 C   0  0  0  0  0  0  0  0  0  0  0  0
   29.6126  -18.4153   -4.8435 C   0  0  0  0  0  0  0  0  0  0  0  0
   29.2759  -19.6235   -4.0151 C   0  0  0  0  0  0  0  0  0  0  0  0
   28.1984  -20.3821   -4.7479 C   0  0  1  0  0  0  0  0  0  0  0  0
   26.9044  -20.0941   -4.1334 C   0  0  0  0  0  0  0  0  0  0  0  0
   26.0614  -19.3910   -4.7400 O   0  0  0  0  0  0  0  0  0  0  0  0
   26.5776  -20.5838   -2.8797 O   0  0  0  0  0  0  0  0  0  0  0  0
  2  3  1  0
  2  1  1  0
  3  4  1  6
  5  7  1  0
  5  3  1  0
  5  6  1  1
  7  8  2  0
  9 10  1  0
  9  7  1  0
 11 10  1  0
 12 11  2  0
 13 11  1  0
 13 14  1  0
 15 14  1  0
 16 15  1  0
 17 16  1  0
 17 13  1  0
 17 18  1  1
 18 20  1  0
 19 18  2  0
M  END
$$$$
