MGL.pdb
     RDKit          3D

 21 20  0  0  1  0  0  0  0  0999 V2000
   16.2109  -14.6320  -20.9244 C   0  0  0  0  0  0  0  0  0  0  0  0
   15.9188  -15.7118  -19.5331 S   0  0  0  0  0  0  0  0  0  0  0  0
   16.8429  -15.2504  -18.0890 C   0  0  0  0  0  0  0  0  0  0  0  0
   17.2119  -13.8120  -18.0214 C   0  0  0  0  0  0  0  0  0  0  0  0
   17.9583  -13.3643  -16.8142 C   0  0  2  0  0  0  0  0  0  0  0  0
   17.2935  -13.6895  -15.5778 N   0  0  0  0  0  0  0  0  0  0  0  0
   18.1927  -11.8735  -16.8458 C   0  0  0  0  0  0  0  0  0  0  0  0
   18.9608  -11.4371  -17.7561 O   0  0  0  0  0  0  0  0  0  0  0  0
   17.5637  -11.0503  -15.8861 N   0  0  0  0  0  0  0  0  0  0  0  0
   17.6697   -9.6209  -16.0044 C   0  0  0  0  0  0  0  0  0  0  0  0
   18.7001   -9.1304  -15.0601 C   0  0  0  0  0  0  0  0  0  0  0  0
   18.4505   -9.1722  -13.8289 O   0  0  0  0  0  0  0  0  0  0  0  0
   22.4231  -10.5148  -13.5484 C   0  0  0  0  0  0  0  0  0  0  0  0
   22.4222  -10.0884  -15.0218 C   0  0  2  0  0  0  0  0  0  0  0  0
   23.7898  -10.4697  -15.5918 C   0  0  0  0  0  0  0  0  0  0  0  0
   22.2931   -8.6100  -15.0478 C   0  0  0  0  0  0  0  0  0  0  0  0
   20.9599   -8.0819  -14.6075 C   0  0  2  0  0  0  0  0  0  0  0  0
   19.9572   -8.6163  -15.5039 N   0  0  0  0  0  0  0  0  0  0  0  0
   20.8820   -6.6366  -14.4477 C   0  0  0  0  0  0  0  0  0  0  0  0
   21.5366   -6.0590  -13.5615 O   0  0  0  0  0  0  0  0  0  0  0  0
   20.0805   -5.8872  -15.2773 O   0  0  0  0  0  0  0  0  0  0  0  0
  2  1  1  0
  3  2  1  0
  4  5  1  0
  4  3  1  0
  5  6  1  1
  7  5  1  0
  7  8  2  0
  9  7  1  0
 10  9  1  0
 10 11  1  0
 11 18  1  0
 12 11  2  0
 14 13  1  1
 14 15  1  0
 16 14  1  0
 17 16  1  6
 17 19  1  0
 18 17  1  0
 19 21  1  0
 20 19  2  0
M  END
$$$$
