MGL.pdb
     RDKit          3D

 21 20  0  0  1  0  0  0  0  0999 V2000
   29.3290  -18.8493   -5.2679 C   0  0  0  0  0  0  0  0  0  0  0  0
   28.2564  -20.2120   -4.8441 S   0  0  0  0  0  0  0  0  0  0  0  0
   26.6377  -20.0713   -5.5598 C   0  0  0  0  0  0  0  0  0  0  0  0
   26.5135  -20.6348   -6.9298 C   0  0  0  0  0  0  0  0  0  0  0  0
   27.3270  -19.9932   -7.9981 C   0  0  2  0  0  0  0  0  0  0  0  0
   26.9535  -18.6259   -8.2577 N   0  0  0  0  0  0  0  0  0  0  0  0
   27.2246  -20.7639   -9.2918 C   0  0  0  0  0  0  0  0  0  0  0  0
   27.4203  -22.0155   -9.2259 O   0  0  0  0  0  0  0  0  0  0  0  0
   26.9235  -20.0770  -10.4885 N   0  0  0  0  0  0  0  0  0  0  0  0
   26.9740  -20.7840  -11.7398 C   0  0  0  0  0  0  0  0  0  0  0  0
   25.6096  -21.2365  -12.0974 C   0  0  0  0  0  0  0  0  0  0  0  0
   25.4830  -22.3281  -12.7074 O   0  0  0  0  0  0  0  0  0  0  0  0
   19.8935  -19.2491  -10.8887 C   0  0  0  0  0  0  0  0  0  0  0  0
   20.7080  -20.3131  -11.6352 C   0  0  2  0  0  0  0  0  0  0  0  0
   20.3631  -21.6602  -10.9972 C   0  0  0  0  0  0  0  0  0  0  0  0
   22.1412  -20.0218  -11.3826 C   0  0  0  0  0  0  0  0  0  0  0  0
   23.1067  -20.8605  -12.1666 C   0  0  2  0  0  0  0  0  0  0  0  0
   24.4449  -20.4754  -11.7723 N   0  0  0  0  0  0  0  0  0  0  0  0
   22.9060  -20.8612  -13.6089 C   0  0  0  0  0  0  0  0  0  0  0  0
   23.2470  -19.8836  -14.2985 O   0  0  0  0  0  0  0  0  0  0  0  0
   22.3342  -21.9467  -14.2311 O   0  0  0  0  0  0  0  0  0  0  0  0
  2  1  1  0
  3  2  1  0
  4  5  1  0
  4  3  1  0
  5  6  1  6
  7  5  1  0
  7  8  2  0
  9  7  1  0
 10  9  1  0
 10 11  1  0
 11 18  1  0
 12 11  2  0
 14 13  1  1
 14 15  1  0
 16 14  1  0
 17 16  1  1
 17 19  1  0
 18 17  1  0
 19 21  1  0
 20 19  2  0
M  END
$$$$
