MGL.pdb
     RDKit          3D

 21 20  0  0  1  0  0  0  0  0999 V2000
   22.1192  -20.6054  -10.3501 C   0  0  0  0  0  0  0  0  0  0  0  0
   21.2077  -21.1014  -11.8027 S   0  0  0  0  0  0  0  0  0  0  0  0
   21.9876  -20.6013  -13.3172 C   0  0  0  0  0  0  0  0  0  0  0  0
   23.2431  -19.8247  -13.1421 C   0  0  0  0  0  0  0  0  0  0  0  0
   24.4785  -20.3977  -13.7422 C   0  0  2  0  0  0  0  0  0  0  0  0
   24.3620  -21.7976  -14.0632 N   0  0  0  0  0  0  0  0  0  0  0  0
   25.6595  -20.2222  -12.8188 C   0  0  0  0  0  0  0  0  0  0  0  0
   25.8182  -19.0711  -12.3099 O   0  0  0  0  0  0  0  0  0  0  0  0
   26.5145  -21.3177  -12.5674 N   0  0  0  0  0  0  0  0  0  0  0  0
   27.6807  -21.1290  -11.7474 C   0  0  0  0  0  0  0  0  0  0  0  0
   27.3101  -21.3158  -10.3255 C   0  0  0  0  0  0  0  0  0  0  0  0
   26.5915  -22.3007  -10.0199 O   0  0  0  0  0  0  0  0  0  0  0  0
   28.5476  -18.3469   -5.0767 C   0  0  0  0  0  0  0  0  0  0  0  0
   27.9244  -19.6270   -5.6473 C   0  0  2  0  0  0  0  0  0  0  0  0
   28.6483  -20.8019   -4.9868 C   0  0  0  0  0  0  0  0  0  0  0  0
   28.2199  -19.6451   -7.1017 C   0  0  0  0  0  0  0  0  0  0  0  0
   27.3215  -20.5240   -7.9206 C   0  0  2  0  0  0  0  0  0  0  0  0
   27.7416  -20.4177   -9.3014 N   0  0  0  0  0  0  0  0  0  0  0  0
   25.8939  -20.3075   -7.7316 C   0  0  0  0  0  0  0  0  0  0  0  0
   25.3036  -19.3961   -8.3385 O   0  0  0  0  0  0  0  0  0  0  0  0
   25.1758  -21.1105   -6.8762 O   0  0  0  0  0  0  0  0  0  0  0  0
  2  1  1  0
  3  2  1  0
  4  5  1  0
  4  3  1  0
  5  6  1  1
  7  5  1  0
  7  8  2  0
  9  7  1  0
 10  9  1  0
 10 11  1  0
 11 18  1  0
 12 11  2  0
 14 13  1  1
 14 15  1  0
 16 14  1  0
 17 16  1  1
 17 19  1  0
 18 17  1  0
 19 21  1  0
 20 19  2  0
M  END
$$$$
