MGL.pdb
     RDKit          3D

 21 20  0  0  1  0  0  0  0  0999 V2000
   21.0524  -19.8151  -16.1845 C   0  0  0  0  0  0  0  0  0  0  0  0
   22.2285  -20.5841  -15.0835 S   0  0  0  0  0  0  0  0  0  0  0  0
   21.7426  -20.4994  -13.3779 C   0  0  0  0  0  0  0  0  0  0  0  0
   22.7311  -21.0641  -12.4219 C   0  0  0  0  0  0  0  0  0  0  0  0
   23.6803  -20.1071  -11.7910 C   0  0  2  0  0  0  0  0  0  0  0  0
   24.5743  -19.4836  -12.7335 N   0  0  0  0  0  0  0  0  0  0  0  0
   24.5120  -20.7895  -10.7324 C   0  0  0  0  0  0  0  0  0  0  0  0
   23.9014  -21.5805   -9.9509 O   0  0  0  0  0  0  0  0  0  0  0  0
   25.8973  -20.5253  -10.6590 N   0  0  0  0  0  0  0  0  0  0  0  0
   26.6906  -21.1904   -9.6607 C   0  0  0  0  0  0  0  0  0  0  0  0
   26.7971  -20.3210   -8.4663 C   0  0  0  0  0  0  0  0  0  0  0  0
   26.0168  -19.3404   -8.3696 O   0  0  0  0  0  0  0  0  0  0  0  0
   27.9367  -20.1314   -3.2951 C   0  0  0  0  0  0  0  0  0  0  0  0
   28.5919  -21.0788   -4.3080 C   0  0  2  0  0  0  0  0  0  0  0  0
   29.8244  -21.6724   -3.6230 C   0  0  0  0  0  0  0  0  0  0  0  0
   29.0399  -20.2493   -5.4543 C   0  0  0  0  0  0  0  0  0  0  0  0
   27.9359  -19.6824   -6.2969 C   0  0  2  0  0  0  0  0  0  0  0  0
   27.7519  -20.5624   -7.4310 N   0  0  0  0  0  0  0  0  0  0  0  0
   28.0894  -18.2829   -6.6691 C   0  0  0  0  0  0  0  0  0  0  0  0
   27.6871  -17.3775   -5.9170 O   0  0  0  0  0  0  0  0  0  0  0  0
   28.6833  -17.9416   -7.8620 O   0  0  0  0  0  0  0  0  0  0  0  0
  2  1  1  0
  3  2  1  0
  4  5  1  0
  4  3  1  0
  5  6  1  6
  7  5  1  0
  7  8  2  0
  9  7  1  0
 10  9  1  0
 10 11  1  0
 11 18  1  0
 12 11  2  0
 14 13  1  1
 14 15  1  0
 16 14  1  0
 17 16  1  6
 17 19  1  0
 18 17  1  0
 19 21  1  0
 20 19  2  0
M  END
$$$$
