MGL.pdb
     RDKit          3D

 21 20  0  0  1  0  0  0  0  0999 V2000
   25.3353  -19.6435   -8.3921 C   0  0  0  0  0  0  0  0  0  0  0  0
   26.5838  -20.8612   -8.7736 S   0  0  0  0  0  0  0  0  0  0  0  0
   27.0264  -20.8880  -10.4928 C   0  0  0  0  0  0  0  0  0  0  0  0
   25.9993  -20.3232  -11.4072 C   0  0  0  0  0  0  0  0  0  0  0  0
   25.2255  -21.2915  -12.2309 C   0  0  2  0  0  0  0  0  0  0  0  0
   26.0495  -22.0768  -13.1146 N   0  0  0  0  0  0  0  0  0  0  0  0
   24.1843  -20.5827  -13.0625 C   0  0  0  0  0  0  0  0  0  0  0  0
   23.2071  -20.0709  -12.4361 O   0  0  0  0  0  0  0  0  0  0  0  0
   24.3383  -20.5211  -14.4650 N   0  0  0  0  0  0  0  0  0  0  0  0
   23.3673  -19.8087  -15.2509 C   0  0  0  0  0  0  0  0  0  0  0  0
   22.2384  -20.7145  -15.5662 C   0  0  0  0  0  0  0  0  0  0  0  0
   21.8560  -20.7990  -16.7605 O   0  0  0  0  0  0  0  0  0  0  0  0
   21.6750  -24.5836  -16.6646 C   0  0  0  0  0  0  0  0  0  0  0  0
   22.1556  -24.2724  -15.2416 C   0  0  2  0  0  0  0  0  0  0  0  0
   22.6206  -25.5972  -14.6338 C   0  0  0  0  0  0  0  0  0  0  0  0
   20.9774  -23.7887  -14.4795 C   0  0  0  0  0  0  0  0  0  0  0  0
   20.5042  -22.4138  -14.8484 C   0  0  2  0  0  0  0  0  0  0  0  0
   21.5783  -21.4872  -14.5619 N   0  0  0  0  0  0  0  0  0  0  0  0
   19.2276  -22.0164  -14.2713 C   0  0  0  0  0  0  0  0  0  0  0  0
   19.1765  -21.1603  -13.3703 O   0  0  0  0  0  0  0  0  0  0  0  0
   18.0563  -22.5845  -14.7159 O   0  0  0  0  0  0  0  0  0  0  0  0
  2  1  1  0
  3  2  1  0
  4  5  1  0
  4  3  1  0
  5  6  1  6
  7  5  1  0
  7  8  2  0
  9  7  1  0
 10  9  1  0
 10 11  1  0
 11 18  1  0
 12 11  2  0
 14 13  1  6
 14 15  1  0
 16 14  1  0
 17 16  1  1
 17 19  1  0
 18 17  1  0
 19 21  1  0
 20 19  2  0
M  END
$$$$
