MGL.pdb
     RDKit          3D

 21 20  0  0  1  0  0  0  0  0999 V2000
   28.4937  -33.5621  -15.7179 C   0  0  0  0  0  0  0  0  0  0  0  0
   27.4066  -34.8102  -15.0491 S   0  0  0  0  0  0  0  0  0  0  0  0
   25.7197  -34.2700  -14.9272 C   0  0  0  0  0  0  0  0  0  0  0  0
   25.4343  -33.3820  -13.7697 C   0  0  0  0  0  0  0  0  0  0  0  0
   25.2409  -34.0390  -12.4485 C   0  0  2  0  0  0  0  0  0  0  0  0
   23.8551  -34.2124  -12.0936 N   0  0  0  0  0  0  0  0  0  0  0  0
   25.9142  -33.2526  -11.3501 C   0  0  0  0  0  0  0  0  0  0  0  0
   27.1717  -33.1117  -11.4395 O   0  0  0  0  0  0  0  0  0  0  0  0
   25.1363  -32.7215  -10.2979 N   0  0  0  0  0  0  0  0  0  0  0  0
   25.7933  -32.1598   -9.1486 C   0  0  0  0  0  0  0  0  0  0  0  0
   25.7624  -33.1441   -8.0421 C   0  0  0  0  0  0  0  0  0  0  0  0
   26.2749  -34.2755   -8.2346 O   0  0  0  0  0  0  0  0  0  0  0  0
   23.6931  -33.0726   -2.2367 C   0  0  0  0  0  0  0  0  0  0  0  0
   24.3439  -33.9646   -3.3012 C   0  0  2  0  0  0  0  0  0  0  0  0
   25.6580  -34.4740   -2.7061 C   0  0  0  0  0  0  0  0  0  0  0  0
   24.6549  -33.0982   -4.4654 C   0  0  0  0  0  0  0  0  0  0  0  0
   24.9984  -33.8315   -5.7281 C   0  0  2  0  0  0  0  0  0  0  0  0
   25.1729  -32.8474   -6.7748 N   0  0  0  0  0  0  0  0  0  0  0  0
   24.0888  -34.9088   -6.0924 C   0  0  0  0  0  0  0  0  0  0  0  0
   24.2746  -36.0658   -5.6751 O   0  0  0  0  0  0  0  0  0  0  0  0
   23.0076  -34.6610   -6.9060 O   0  0  0  0  0  0  0  0  0  0  0  0
  2  1  1  0
  3  2  1  0
  4  5  1  0
  4  3  1  0
  5  6  1  1
  7  5  1  0
  7  8  2  0
  9  7  1  0
 10  9  1  0
 10 11  1  0
 11 18  1  0
 12 11  2  0
 14 13  1  1
 14 15  1  0
 16 14  1  0
 17 16  1  1
 17 19  1  0
 18 17  1  0
 19 21  1  0
 20 19  2  0
M  END
$$$$
