MGL.pdb
     RDKit          3D

 21 20  0  0  1  0  0  0  0  0999 V2000
   17.0532  -21.7396  -15.8963 C   0  0  0  0  0  0  0  0  0  0  0  0
   18.5077  -21.6844  -14.8627 S   0  0  0  0  0  0  0  0  0  0  0  0
   19.7112  -20.5033  -15.4185 C   0  0  0  0  0  0  0  0  0  0  0  0
   21.0288  -20.5913  -14.7357 C   0  0  0  0  0  0  0  0  0  0  0  0
   21.0130  -20.8872  -13.2773 C   0  0  2  0  0  0  0  0  0  0  0  0
   20.7319  -19.7323  -12.4627 N   0  0  0  0  0  0  0  0  0  0  0  0
   22.3314  -21.4704  -12.8299 C   0  0  0  0  0  0  0  0  0  0  0  0
   22.6420  -22.6054  -13.3037 O   0  0  0  0  0  0  0  0  0  0  0  0
   23.1411  -20.7468  -11.9271 N   0  0  0  0  0  0  0  0  0  0  0  0
   24.4107  -21.2906  -11.5261 C   0  0  0  0  0  0  0  0  0  0  0  0
   25.4777  -20.7078  -12.3722 C   0  0  0  0  0  0  0  0  0  0  0  0
   25.2163  -19.6719  -13.0342 O   0  0  0  0  0  0  0  0  0  0  0  0
   29.5082  -19.8268  -10.6886 C   0  0  0  0  0  0  0  0  0  0  0  0
   29.2795  -21.2749  -11.1395 C   0  0  2  0  0  0  0  0  0  0  0  0
   30.5388  -22.0579  -10.7627 C   0  0  0  0  0  0  0  0  0  0  0  0
   29.1571  -21.2570  -12.6185 C   0  0  0  0  0  0  0  0  0  0  0  0
   27.8889  -20.6510  -13.1426 C   0  0  2  0  0  0  0  0  0  0  0  0
   26.7828  -21.2835  -12.4565 N   0  0  0  0  0  0  0  0  0  0  0  0
   27.7480  -20.6525  -14.5921 C   0  0  0  0  0  0  0  0  0  0  0  0
   27.1185  -21.5575  -15.1684 O   0  0  0  0  0  0  0  0  0  0  0  0
   28.3112  -19.6497  -15.3467 O   0  0  0  0  0  0  0  0  0  0  0  0
  2  1  1  0
  3  2  1  0
  4  5  1  0
  4  3  1  0
  5  6  1  1
  7  5  1  0
  7  8  2  0
  9  7  1  0
 10  9  1  0
 10 11  1  0
 11 18  1  0
 12 11  2  0
 14 13  1  6
 14 15  1  0
 16 14  1  0
 17 16  1  6
 17 19  1  0
 18 17  1  0
 19 21  1  0
 20 19  2  0
M  END
$$$$
