MGL.pdb
     RDKit          3D

 21 20  0  0  1  0  0  0  0  0999 V2000
   23.0384  -21.1430  -18.5405 C   0  0  0  0  0  0  0  0  0  0  0  0
   22.3717  -19.4878  -18.4874 S   0  0  0  0  0  0  0  0  0  0  0  0
   21.3191  -19.2069  -17.0855 C   0  0  0  0  0  0  0  0  0  0  0  0
   21.9347  -19.5321  -15.7719 C   0  0  0  0  0  0  0  0  0  0  0  0
   21.2718  -20.5893  -14.9610 C   0  0  2  0  0  0  0  0  0  0  0  0
   20.0114  -20.1733  -14.3999 N   0  0  0  0  0  0  0  0  0  0  0  0
   22.1642  -21.0431  -13.8314 C   0  0  0  0  0  0  0  0  0  0  0  0
   23.0847  -21.8640  -14.1276 O   0  0  0  0  0  0  0  0  0  0  0  0
   21.9420  -20.5476  -12.5277 N   0  0  0  0  0  0  0  0  0  0  0  0
   22.7109  -21.0739  -11.4323 C   0  0  0  0  0  0  0  0  0  0  0  0
   24.0547  -20.4510  -11.4384 C   0  0  0  0  0  0  0  0  0  0  0  0
   24.1525  -19.2449  -11.7787 O   0  0  0  0  0  0  0  0  0  0  0  0
   29.4191  -21.1108   -9.8422 C   0  0  0  0  0  0  0  0  0  0  0  0
   28.3517  -20.1736   -9.2636 C   0  0  2  0  0  0  0  0  0  0  0  0
   28.5497  -20.1632   -7.7466 C   0  0  0  0  0  0  0  0  0  0  0  0
   27.0304  -20.7786   -9.5652 C   0  0  0  0  0  0  0  0  0  0  0  0
   26.5397  -20.5645  -10.9665 C   0  0  2  0  0  0  0  0  0  0  0  0
   25.2314  -21.1741  -11.0724 N   0  0  0  0  0  0  0  0  0  0  0  0
   27.4571  -20.9765  -12.0197 C   0  0  0  0  0  0  0  0  0  0  0  0
   27.4912  -22.1583  -12.4064 O   0  0  0  0  0  0  0  0  0  0  0  0
   28.3019  -20.0612  -12.6036 O   0  0  0  0  0  0  0  0  0  0  0  0
  2  1  1  0
  3  2  1  0
  4  5  1  0
  4  3  1  0
  5  6  1  1
  7  5  1  0
  7  8  2  0
  9  7  1  0
 10  9  1  0
 10 11  1  0
 11 18  1  0
 12 11  2  0
 14 13  1  6
 14 15  1  0
 16 14  1  0
 17 16  1  1
 17 19  1  0
 18 17  1  0
 19 21  1  0
 20 19  2  0
M  END
$$$$
