MGL.pdb
     RDKit          3D

 21 20  0  0  1  0  0  0  0  0999 V2000
   28.4361  -18.4376  -13.5540 C   0  0  0  0  0  0  0  0  0  0  0  0
   29.7848  -19.2197  -14.4238 S   0  0  0  0  0  0  0  0  0  0  0  0
   29.3253  -19.8071  -16.0350 C   0  0  0  0  0  0  0  0  0  0  0  0
   27.8790  -19.6780  -16.3538 C   0  0  0  0  0  0  0  0  0  0  0  0
   26.9796  -20.7499  -15.8470 C   0  0  2  0  0  0  0  0  0  0  0  0
   27.2789  -22.0511  -16.3891 N   0  0  0  0  0  0  0  0  0  0  0  0
   25.5357  -20.4328  -16.1518 C   0  0  0  0  0  0  0  0  0  0  0  0
   24.9333  -21.2233  -16.9400 O   0  0  0  0  0  0  0  0  0  0  0  0
   24.9333  -19.2997  -15.5622 N   0  0  0  0  0  0  0  0  0  0  0  0
   23.5007  -19.1747  -15.5762 C   0  0  0  0  0  0  0  0  0  0  0  0
   22.9194  -20.1404  -14.6151 C   0  0  0  0  0  0  0  0  0  0  0  0
   22.3937  -21.1892  -15.0662 O   0  0  0  0  0  0  0  0  0  0  0  0
   24.9791  -22.2594  -11.6191 C   0  0  0  0  0  0  0  0  0  0  0  0
   24.6641  -20.8243  -11.1787 C   0  0  2  0  0  0  0  0  0  0  0  0
   25.3473  -20.6185   -9.8254 C   0  0  0  0  0  0  0  0  0  0  0  0
   23.1949  -20.7400  -10.9859 C   0  0  0  0  0  0  0  0  0  0  0  0
   22.3831  -20.8447  -12.2430 C   0  0  2  0  0  0  0  0  0  0  0  0
   22.9387  -19.9163  -13.2041 N   0  0  0  0  0  0  0  0  0  0  0  0
   20.9437  -20.7071  -12.0708 C   0  0  0  0  0  0  0  0  0  0  0  0
   20.3670  -19.6451  -12.3656 O   0  0  0  0  0  0  0  0  0  0  0  0
   20.1990  -21.7534  -11.5777 O   0  0  0  0  0  0  0  0  0  0  0  0
  2  1  1  0
  3  2  1  0
  4  5  1  0
  4  3  1  0
  5  6  1  6
  7  5  1  0
  7  8  2  0
  9  7  1  0
 10  9  1  0
 10 11  1  0
 11 18  1  0
 12 11  2  0
 14 13  1  1
 14 15  1  0
 16 14  1  0
 17 16  1  1
 17 19  1  0
 18 17  1  0
 19 21  1  0
 20 19  2  0
M  END
$$$$
