MGL.pdb
     RDKit          3D

 21 20  0  0  1  0  0  0  0  0999 V2000
   21.9614  -18.5855  -13.1649 C   0  0  0  0  0  0  0  0  0  0  0  0
   21.3128  -18.3660  -14.8136 S   0  0  0  0  0  0  0  0  0  0  0  0
   22.5808  -18.2709  -16.0527 C   0  0  0  0  0  0  0  0  0  0  0  0
   23.9668  -18.4174  -15.5352 C   0  0  0  0  0  0  0  0  0  0  0  0
   24.7535  -19.5770  -16.0363 C   0  0  2  0  0  0  0  0  0  0  0  0
   24.1053  -20.8452  -15.8171 N   0  0  0  0  0  0  0  0  0  0  0  0
   26.1162  -19.6257  -15.3890 C   0  0  0  0  0  0  0  0  0  0  0  0
   26.8791  -18.6329  -15.5928 O   0  0  0  0  0  0  0  0  0  0  0  0
   26.4741  -20.7446  -14.6051 N   0  0  0  0  0  0  0  0  0  0  0  0
   27.7677  -20.7820  -13.9778 C   0  0  0  0  0  0  0  0  0  0  0  0
   27.6090  -21.1840  -12.5610 C   0  0  0  0  0  0  0  0  0  0  0  0
   28.1268  -22.2660  -12.1856 O   0  0  0  0  0  0  0  0  0  0  0  0
   25.5071  -19.8467   -7.6364 C   0  0  0  0  0  0  0  0  0  0  0  0
   26.9081  -20.4231   -7.8765 C   0  0  2  0  0  0  0  0  0  0  0  0
   27.8615  -19.6638   -6.9518 C   0  0  0  0  0  0  0  0  0  0  0  0
   27.2695  -20.1190   -9.2835 C   0  0  0  0  0  0  0  0  0  0  0  0
   26.4802  -20.8669  -10.3170 C   0  0  2  0  0  0  0  0  0  0  0  0
   26.8916  -20.3853  -11.6182 N   0  0  0  0  0  0  0  0  0  0  0  0
   25.0364  -20.8594  -10.1270 C   0  0  0  0  0  0  0  0  0  0  0  0
   24.3184  -20.0527  -10.7443 O   0  0  0  0  0  0  0  0  0  0  0  0
   24.4445  -21.7473   -9.2589 O   0  0  0  0  0  0  0  0  0  0  0  0
  2  1  1  0
  3  2  1  0
  4  5  1  0
  4  3  1  0
  5  6  1  1
  7  5  1  0
  7  8  2  0
  9  7  1  0
 10  9  1  0
 10 11  1  0
 11 18  1  0
 12 11  2  0
 14 13  1  1
 14 15  1  0
 16 14  1  0
 17 16  1  1
 17 19  1  0
 18 17  1  0
 19 21  1  0
 20 19  2  0
M  END
$$$$
