NLE.pdb
     RDKit          3D

 26 25  0  0  1  0  0  0  0  0999 V2000
   21.6665  -17.3136  -16.3413 N   0  0  0  0  0  0  0  0  0  0  0  0
   20.4791  -17.9038  -15.8345 C   0  0  0  0  0  0  0  0  0  0  0  0
   19.3330  -17.4400  -16.0336 O   0  0  0  0  0  0  0  0  0  0  0  0
   20.6123  -19.1339  -15.0283 C   0  0  0  0  0  0  0  0  0  0  0  0
   22.0575  -19.5203  -14.8087 C   0  0  2  0  0  0  0  0  0  0  0  0
   22.5434  -20.1641  -15.9953 N   0  0  0  0  0  0  0  0  0  0  0  0
   22.0999  -20.4393  -13.6255 C   0  0  0  0  0  0  0  0  0  0  0  0
   21.6647  -21.6240  -13.7767 O   0  0  0  0  0  0  0  0  0  0  0  0
   25.8307  -20.0625   -9.2825 C   0  0  0  0  0  0  0  0  0  0  0  0
   25.0227  -20.4625  -10.4957 C   0  0  1  0  0  0  0  0  0  0  0  0
   25.6187  -21.7985  -10.9623 C   0  0  0  0  0  0  0  0  0  0  0  0
   23.5892  -20.5858  -10.1818 C   0  0  0  0  0  0  0  0  0  0  0  0
   22.6343  -20.8424  -11.2743 C   0  0  2  0  0  0  0  0  0  0  0  0
   22.6139  -19.9762  -12.3871 N   0  0  0  0  0  0  0  0  0  0  0  0
   21.2099  -20.9121  -10.7628 C   0  0  0  0  0  0  0  0  0  0  0  0
   20.5011  -19.8869  -10.6136 O   0  0  0  0  0  0  0  0  0  0  0  0
   20.6294  -22.1627  -10.4331 N   0  0  0  0  0  0  0  0  0  0  0  0
   19.2470  -22.2708   -9.8997 C   0  0  1  0  0  0  0  0  0  0  0  0
   18.3778  -22.6867  -11.0372 C   0  0  0  0  0  0  0  0  0  0  0  0
   16.9625  -22.8675  -10.6219 C   0  0  0  0  0  0  0  0  0  0  0  0
   16.1173  -23.2801  -11.7434 C   0  0  0  0  0  0  0  0  0  0  0  0
   16.4775  -23.4312  -12.9188 O   0  0  0  0  0  0  0  0  0  0  0  0
   19.2708  -23.2106   -8.7603 C   0  0  0  0  0  0  0  0  0  0  0  0
   20.1492  -24.0795   -8.6380 O   0  0  0  0  0  0  0  0  0  0  0  0
   14.7549  -23.5324  -11.4632 O   0  0  0  0  0  0  0  0  0  0  0  0
   18.2700  -23.1089   -7.7982 O   0  0  0  0  0  0  0  0  0  0  0  0
  2  1  1  0
  2  3  2  0
  4  5  1  0
  4  2  1  0
  5  7  1  0
  5  6  1  6
  7 14  1  0
  7  8  2  0
 10  9  1  1
 10 11  1  0
 12 10  1  0
 13 15  1  0
 13 12  1  1
 14 13  1  0
 15 16  2  0
 17 18  1  0
 17 15  1  0
 19 20  1  0
 18 19  1  6
 20 21  1  0
 21 25  1  0
 21 22  2  0
 23 18  1  0
 23 26  1  0
 24 23  2  0
M  END
$$$$
