NLE.pdb
     RDKit          3D

 26 25  0  0  1  0  0  0  0  0999 V2000
   27.5986  -18.9882  -18.2155 N   0  0  0  0  0  0  0  0  0  0  0  0
   27.5610  -20.3737  -17.9091 C   0  0  0  0  0  0  0  0  0  0  0  0
   28.3557  -21.2136  -18.3903 O   0  0  0  0  0  0  0  0  0  0  0  0
   26.5230  -20.8423  -16.9689 C   0  0  0  0  0  0  0  0  0  0  0  0
   26.7960  -20.4008  -15.5488 C   0  0  2  0  0  0  0  0  0  0  0  0
   28.0572  -20.9460  -15.1355 N   0  0  0  0  0  0  0  0  0  0  0  0
   25.6705  -20.9076  -14.6987 C   0  0  0  0  0  0  0  0  0  0  0  0
   24.9442  -21.8396  -15.1675 O   0  0  0  0  0  0  0  0  0  0  0  0
   25.6720  -20.4317   -8.9751 C   0  0  0  0  0  0  0  0  0  0  0  0
   25.7713  -20.8320  -10.4292 C   0  0  1  0  0  0  0  0  0  0  0  0
   26.2049  -22.3051  -10.4195 C   0  0  0  0  0  0  0  0  0  0  0  0
   24.4934  -20.6451  -11.1366 C   0  0  0  0  0  0  0  0  0  0  0  0
   24.4350  -20.8841  -12.5894 C   0  0  2  0  0  0  0  0  0  0  0  0
   25.4442  -20.3471  -13.4155 N   0  0  0  0  0  0  0  0  0  0  0  0
   23.1156  -20.4251  -13.1758 C   0  0  0  0  0  0  0  0  0  0  0  0
   22.8314  -19.2104  -13.3155 O   0  0  0  0  0  0  0  0  0  0  0  0
   22.1487  -21.3753  -13.5905 N   0  0  0  0  0  0  0  0  0  0  0  0
   20.8297  -20.9661  -14.1380 C   0  0  1  0  0  0  0  0  0  0  0  0
   20.6024  -21.7789  -15.3668 C   0  0  0  0  0  0  0  0  0  0  0  0
   19.2595  -21.5382  -15.9556 C   0  0  0  0  0  0  0  0  0  0  0  0
   19.3117  -21.4766  -17.4170 C   0  0  0  0  0  0  0  0  0  0  0  0
   20.2744  -21.7870  -18.1320 O   0  0  0  0  0  0  0  0  0  0  0  0
   19.8193  -21.1495  -13.0762 C   0  0  0  0  0  0  0  0  0  0  0  0
   19.9835  -21.9453  -12.1374 O   0  0  0  0  0  0  0  0  0  0  0  0
   18.1522  -21.0185  -18.0833 O   0  0  0  0  0  0  0  0  0  0  0  0
   18.6482  -20.3999  -13.1411 O   0  0  0  0  0  0  0  0  0  0  0  0
  2  1  1  0
  2  3  2  0
  4  5  1  0
  4  2  1  0
  5  7  1  0
  5  6  1  1
  7 14  1  0
  7  8  2  0
 10  9  1  1
 10 11  1  0
 12 10  1  0
 13 15  1  0
 13 12  1  1
 14 13  1  0
 15 16  2  0
 17 18  1  0
 17 15  1  0
 19 20  1  0
 18 19  1  6
 20 21  1  0
 21 25  1  0
 21 22  2  0
 23 18  1  0
 23 26  1  0
 24 23  2  0
M  END
$$$$
