NLE.pdb
     RDKit          3D

 26 25  0  0  1  0  0  0  0  0999 V2000
   18.5629  -13.5353  -18.8537 N   0  0  0  0  0  0  0  0  0  0  0  0
   17.7096  -12.4726  -18.4566 C   0  0  0  0  0  0  0  0  0  0  0  0
   16.6172  -12.2141  -19.0119 O   0  0  0  0  0  0  0  0  0  0  0  0
   18.1423  -11.6296  -17.3240 C   0  0  0  0  0  0  0  0  0  0  0  0
   19.5078  -12.0227  -16.8071 C   0  0  2  0  0  0  0  0  0  0  0  0
   19.3479  -13.0871  -15.8585 N   0  0  0  0  0  0  0  0  0  0  0  0
   20.1138  -10.8064  -16.1749 C   0  0  0  0  0  0  0  0  0  0  0  0
   19.4934  -10.2689  -15.2044 O   0  0  0  0  0  0  0  0  0  0  0  0
   25.5611  -10.1262  -15.1411 C   0  0  0  0  0  0  0  0  0  0  0  0
   24.0561  -10.2665  -15.1326 C   0  0  1  0  0  0  0  0  0  0  0  0
   23.6568  -10.3030  -13.6503 C   0  0  0  0  0  0  0  0  0  0  0  0
   23.3994   -9.1584  -15.8463 C   0  0  0  0  0  0  0  0  0  0  0  0
   21.9368   -9.1848  -16.0233 C   0  0  2  0  0  0  0  0  0  0  0  0
   21.3418  -10.2914  -16.6638 N   0  0  0  0  0  0  0  0  0  0  0  0
   21.4430   -7.9532  -16.7545 C   0  0  0  0  0  0  0  0  0  0  0  0
   21.4972   -7.8500  -18.0044 O   0  0  0  0  0  0  0  0  0  0  0  0
   20.8956   -6.8640  -16.0309 N   0  0  0  0  0  0  0  0  0  0  0  0
   20.3420   -5.6663  -16.7138 C   0  0  1  0  0  0  0  0  0  0  0  0
   19.1842   -5.2019  -15.8976 C   0  0  0  0  0  0  0  0  0  0  0  0
   17.9940   -6.0749  -16.0687 C   0  0  0  0  0  0  0  0  0  0  0  0
   16.8410   -5.5719  -15.3203 C   0  0  0  0  0  0  0  0  0  0  0  0
   15.6628   -5.5649  -15.7023 O   0  0  0  0  0  0  0  0  0  0  0  0
   21.4330   -4.6813  -16.8612 C   0  0  0  0  0  0  0  0  0  0  0  0
   22.5541   -4.8559  -16.3570 O   0  0  0  0  0  0  0  0  0  0  0  0
   17.0909   -5.0408  -14.0344 O   0  0  0  0  0  0  0  0  0  0  0  0
   21.1839   -3.5231  -17.5918 O   0  0  0  0  0  0  0  0  0  0  0  0
  2  1  1  0
  2  3  2  0
  4  5  1  0
  4  2  1  0
  5  7  1  0
  5  6  1  1
  7 14  1  0
  7  8  2  0
 10  9  1  1
 10 11  1  0
 12 10  1  0
 13 15  1  0
 13 12  1  6
 14 13  1  0
 15 16  2  0
 17 18  1  0
 17 15  1  0
 19 20  1  0
 18 19  1  1
 20 21  1  0
 21 25  1  0
 21 22  2  0
 23 18  1  0
 23 26  1  0
 24 23  2  0
M  END
$$$$
