NLE.pdb
     RDKit          3D

 26 25  0  0  1  0  0  0  0  0999 V2000
   28.6638  -20.0462  -17.7972 N   0  0  0  0  0  0  0  0  0  0  0  0
   28.1703  -19.3117  -16.6872 C   0  0  0  0  0  0  0  0  0  0  0  0
   28.2528  -18.0661  -16.5863 O   0  0  0  0  0  0  0  0  0  0  0  0
   27.5248  -20.0670  -15.5946 C   0  0  0  0  0  0  0  0  0  0  0  0
   26.0160  -20.0222  -15.6818 C   0  0  2  0  0  0  0  0  0  0  0  0
   25.5861  -18.6705  -15.4664 N   0  0  0  0  0  0  0  0  0  0  0  0
   25.4797  -20.9462  -14.6307 C   0  0  0  0  0  0  0  0  0  0  0  0
   25.7290  -22.1873  -14.7464 O   0  0  0  0  0  0  0  0  0  0  0  0
   26.0172  -20.1357   -9.4509 C   0  0  0  0  0  0  0  0  0  0  0  0
   25.9237  -20.5822  -10.8919 C   0  0  1  0  0  0  0  0  0  0  0  0
   27.0802  -21.5727  -11.0894 C   0  0  0  0  0  0  0  0  0  0  0  0
   24.6206  -21.2001  -11.1896 C   0  0  0  0  0  0  0  0  0  0  0  0
   24.1804  -21.3077  -12.5917 C   0  0  2  0  0  0  0  0  0  0  0  0
   24.7203  -20.4263  -13.5513 N   0  0  0  0  0  0  0  0  0  0  0  0
   22.6741  -21.1970  -12.7117 C   0  0  0  0  0  0  0  0  0  0  0  0
   21.8948  -21.7727  -11.9135 O   0  0  0  0  0  0  0  0  0  0  0  0
   22.0947  -20.4245  -13.7495 N   0  0  0  0  0  0  0  0  0  0  0  0
   20.6238  -20.3451  -13.9421 C   0  0  1  0  0  0  0  0  0  0  0  0
   20.3554  -19.0875  -14.6964 C   0  0  0  0  0  0  0  0  0  0  0  0
   19.7603  -19.3531  -16.0318 C   0  0  0  0  0  0  0  0  0  0  0  0
   18.7301  -18.3703  -16.3711 C   0  0  0  0  0  0  0  0  0  0  0  0
   17.5719  -18.3381  -15.9329 O   0  0  0  0  0  0  0  0  0  0  0  0
   20.1860  -21.5820  -14.6208 C   0  0  0  0  0  0  0  0  0  0  0  0
   20.9164  -22.1929  -15.4176 O   0  0  0  0  0  0  0  0  0  0  0  0
   19.0864  -17.3557  -17.2885 O   0  0  0  0  0  0  0  0  0  0  0  0
   18.9105  -22.0689  -14.3500 O   0  0  0  0  0  0  0  0  0  0  0  0
  2  1  1  0
  2  3  2  0
  4  5  1  0
  4  2  1  0
  5  7  1  0
  5  6  1  1
  7 14  1  0
  7  8  2  0
 10  9  1  1
 10 11  1  0
 12 10  1  0
 13 15  1  0
 13 12  1  1
 14 13  1  0
 15 16  2  0
 17 18  1  0
 17 15  1  0
 19 20  1  0
 18 19  1  6
 20 21  1  0
 21 25  1  0
 21 22  2  0
 23 18  1  0
 23 26  1  0
 24 23  2  0
M  END
$$$$
