NLE.pdb
     RDKit          3D

 26 25  0  0  1  0  0  0  0  0999 V2000
   28.2141  -20.7759  -17.3188 N   0  0  0  0  0  0  0  0  0  0  0  0
   28.4791  -21.7682  -16.3389 C   0  0  0  0  0  0  0  0  0  0  0  0
   29.4977  -22.4967  -16.3455 O   0  0  0  0  0  0  0  0  0  0  0  0
   27.4925  -21.9445  -15.2542 C   0  0  0  0  0  0  0  0  0  0  0  0
   26.3290  -20.9868  -15.3779 C   0  0  2  0  0  0  0  0  0  0  0  0
   26.8084  -19.6539  -15.1500 N   0  0  0  0  0  0  0  0  0  0  0  0
   25.3086  -21.3885  -14.3563 C   0  0  0  0  0  0  0  0  0  0  0  0
   24.7358  -22.5144  -14.4987 O   0  0  0  0  0  0  0  0  0  0  0  0
   25.5975  -20.1000   -8.9053 C   0  0  0  0  0  0  0  0  0  0  0  0
   25.5648  -20.6414  -10.3162 C   0  0  1  0  0  0  0  0  0  0  0  0
   26.0135  -22.1055  -10.2034 C   0  0  0  0  0  0  0  0  0  0  0  0
   24.2242  -20.5273  -10.9148 C   0  0  0  0  0  0  0  0  0  0  0  0
   24.0348  -20.8988  -12.3281 C   0  0  2  0  0  0  0  0  0  0  0  0
   25.0096  -20.5209  -13.2747 N   0  0  0  0  0  0  0  0  0  0  0  0
   22.7074  -20.3993  -12.8612 C   0  0  0  0  0  0  0  0  0  0  0  0
   22.3341  -19.2092  -12.7196 O   0  0  0  0  0  0  0  0  0  0  0  0
   21.8356  -21.2815  -13.5477 N   0  0  0  0  0  0  0  0  0  0  0  0
   20.5135  -20.8382  -14.0602 C   0  0  1  0  0  0  0  0  0  0  0  0
   20.6194  -20.7975  -15.5467 C   0  0  0  0  0  0  0  0  0  0  0  0
   19.3321  -20.4247  -16.1886 C   0  0  0  0  0  0  0  0  0  0  0  0
   19.4346  -20.4249  -17.6486 C   0  0  0  0  0  0  0  0  0  0  0  0
   19.4131  -21.4191  -18.3871 O   0  0  0  0  0  0  0  0  0  0  0  0
   19.4883  -21.7632  -13.5356 C   0  0  0  0  0  0  0  0  0  0  0  0
   18.3327  -21.3909  -13.2754 O   0  0  0  0  0  0  0  0  0  0  0  0
   19.5720  -19.1696  -18.2839 O   0  0  0  0  0  0  0  0  0  0  0  0
   19.8412  -23.0939  -13.3302 O   0  0  0  0  0  0  0  0  0  0  0  0
  2  1  1  0
  2  3  2  0
  4  5  1  0
  4  2  1  0
  5  7  1  0
  5  6  1  1
  7 14  1  0
  7  8  2  0
 10  9  1  1
 10 11  1  0
 12 10  1  0
 13 15  1  0
 13 12  1  1
 14 13  1  0
 15 16  2  0
 17 18  1  0
 17 15  1  0
 19 20  1  0
 18 19  1  6
 20 21  1  0
 21 25  1  0
 21 22  2  0
 23 18  1  0
 23 26  1  0
 24 23  2  0
M  END
$$$$
