NLE.pdb
     RDKit          3D

 26 25  0  0  1  0  0  0  0  0999 V2000
   23.6134  -33.4028    1.6599 N   0  0  0  0  0  0  0  0  0  0  0  0
   24.3932  -32.2205    1.7562 C   0  0  0  0  0  0  0  0  0  0  0  0
   25.4996  -32.0698    1.1892 O   0  0  0  0  0  0  0  0  0  0  0  0
   23.8620  -31.1109    2.5731 C   0  0  0  0  0  0  0  0  0  0  0  0
   22.4779  -31.4046    3.1064 C   0  0  2  0  0  0  0  0  0  0  0  0
   21.5465  -31.3446    2.0167 N   0  0  0  0  0  0  0  0  0  0  0  0
   22.1729  -30.3736    4.1506 C   0  0  0  0  0  0  0  0  0  0  0  0
   23.0007  -30.2304    5.1047 O   0  0  0  0  0  0  0  0  0  0  0  0
   18.7029  -25.8112    3.4133 C   0  0  0  0  0  0  0  0  0  0  0  0
   19.9023  -26.7001    3.6499 C   0  0  1  0  0  0  0  0  0  0  0  0
   21.0797  -25.7439    3.8889 C   0  0  0  0  0  0  0  0  0  0  0  0
   19.6952  -27.6053    4.7928 C   0  0  0  0  0  0  0  0  0  0  0  0
   20.6894  -28.6586    5.0639 C   0  0  2  0  0  0  0  0  0  0  0  0
   20.9905  -29.5959    4.0540 N   0  0  0  0  0  0  0  0  0  0  0  0
   20.3261  -29.4621    6.2959 C   0  0  0  0  0  0  0  0  0  0  0  0
   19.4575  -30.3681    6.2723 O   0  0  0  0  0  0  0  0  0  0  0  0
   20.9714  -29.2061    7.5319 N   0  0  0  0  0  0  0  0  0  0  0  0
   20.6448  -29.9725    8.7620 C   0  0  1  0  0  0  0  0  0  0  0  0
   21.8982  -30.6583    9.1877 C   0  0  0  0  0  0  0  0  0  0  0  0
   21.8264  -32.1288    8.9868 C   0  0  0  0  0  0  0  0  0  0  0  0
   22.2144  -32.8602   10.1938 C   0  0  0  0  0  0  0  0  0  0  0  0
   21.4497  -33.4129   10.9963 O   0  0  0  0  0  0  0  0  0  0  0  0
   20.0863  -29.0286    9.7516 C   0  0  0  0  0  0  0  0  0  0  0  0
   20.3229  -27.8105    9.7104 O   0  0  0  0  0  0  0  0  0  0  0  0
   23.5967  -32.9476   10.4764 O   0  0  0  0  0  0  0  0  0  0  0  0
   19.2691  -29.5335   10.7590 O   0  0  0  0  0  0  0  0  0  0  0  0
  2  1  1  0
  2  3  2  0
  4  5  1  0
  4  2  1  0
  5  7  1  0
  5  6  1  6
  7 14  1  0
  7  8  2  0
 10  9  1  1
 10 11  1  0
 12 10  1  0
 13 15  1  0
 13 12  1  6
 14 13  1  0
 15 16  2  0
 17 18  1  0
 17 15  1  0
 19 20  1  0
 18 19  1  1
 20 21  1  0
 21 25  1  0
 21 22  2  0
 23 18  1  0
 23 26  1  0
 24 23  2  0
M  END
$$$$
