NLE.pdb
     RDKit          3D

 26 25  0  0  1  0  0  0  0  0999 V2000
   28.6354  -23.3902  -18.4323 N   0  0  0  0  0  0  0  0  0  0  0  0
   27.4669  -22.5854  -18.4770 C   0  0  0  0  0  0  0  0  0  0  0  0
   27.1860  -21.8204  -19.4280 O   0  0  0  0  0  0  0  0  0  0  0  0
   26.5356  -22.6608  -17.3333 C   0  0  0  0  0  0  0  0  0  0  0  0
   26.5322  -21.3902  -16.5136 C   0  0  2  0  0  0  0  0  0  0  0  0
   27.8792  -21.1018  -16.1127 N   0  0  0  0  0  0  0  0  0  0  0  0
   25.6423  -21.6237  -15.3305 C   0  0  0  0  0  0  0  0  0  0  0  0
   24.5287  -22.2037  -15.5291 O   0  0  0  0  0  0  0  0  0  0  0  0
   23.9042  -21.5786   -9.9543 C   0  0  0  0  0  0  0  0  0  0  0  0
   25.0101  -20.7043  -10.4993 C   0  0  1  0  0  0  0  0  0  0  0  0
   25.9112  -20.3870   -9.2971 C   0  0  0  0  0  0  0  0  0  0  0  0
   25.7565  -21.3747  -11.5772 C   0  0  0  0  0  0  0  0  0  0  0  0
   25.1933  -21.3898  -12.9388 C   0  0  2  0  0  0  0  0  0  0  0  0
   26.0533  -21.2005  -14.0405 N   0  0  0  0  0  0  0  0  0  0  0  0
   24.0777  -20.3760  -13.0904 C   0  0  0  0  0  0  0  0  0  0  0  0
   24.2837  -19.1393  -13.0275 O   0  0  0  0  0  0  0  0  0  0  0  0
   22.7455  -20.8072  -13.3118 N   0  0  0  0  0  0  0  0  0  0  0  0
   21.6145  -19.8482  -13.4032 C   0  0  1  0  0  0  0  0  0  0  0  0
   21.3771  -19.5993  -14.8538 C   0  0  0  0  0  0  0  0  0  0  0  0
   20.4381  -20.5883  -15.4441 C   0  0  0  0  0  0  0  0  0  0  0  0
   20.2397  -20.3593  -16.8760 C   0  0  0  0  0  0  0  0  0  0  0  0
   21.1255  -20.2880  -17.7389 O   0  0  0  0  0  0  0  0  0  0  0  0
   20.4665  -20.4275  -12.6763 C   0  0  0  0  0  0  0  0  0  0  0  0
   20.4477  -21.6127  -12.3067 O   0  0  0  0  0  0  0  0  0  0  0  0
   18.9081  -20.2035  -17.3239 O   0  0  0  0  0  0  0  0  0  0  0  0
   19.3753  -19.6078  -12.4025 O   0  0  0  0  0  0  0  0  0  0  0  0
  2  1  1  0
  2  3  2  0
  4  5  1  0
  4  2  1  0
  5  7  1  0
  5  6  1  1
  7 14  1  0
  7  8  2  0
 10  9  1  1
 10 11  1  0
 12 10  1  0
 13 15  1  0
 13 12  1  1
 14 13  1  0
 15 16  2  0
 17 18  1  0
 17 15  1  0
 19 20  1  0
 18 19  1  6
 20 21  1  0
 21 25  1  0
 21 22  2  0
 23 18  1  0
 23 26  1  0
 24 23  2  0
M  END
$$$$
