NLE.pdb
     RDKit          3D

 26 25  0  0  1  0  0  0  0  0999 V2000
   19.1632  -24.9023   -7.8284 N   0  0  0  0  0  0  0  0  0  0  0  0
   18.6815  -24.3569   -9.0472 C   0  0  0  0  0  0  0  0  0  0  0  0
   17.7055  -24.8224   -9.6789 O   0  0  0  0  0  0  0  0  0  0  0  0
   19.3764  -23.1740   -9.5936 C   0  0  0  0  0  0  0  0  0  0  0  0
   20.5129  -22.7178   -8.7068 C   0  0  2  0  0  0  0  0  0  0  0  0
   19.9591  -22.1179   -7.5271 N   0  0  0  0  0  0  0  0  0  0  0  0
   21.3283  -21.7370   -9.4939 C   0  0  0  0  0  0  0  0  0  0  0  0
   20.8340  -20.5846   -9.7026 O   0  0  0  0  0  0  0  0  0  0  0  0
   26.8137  -21.0332   -8.9160 C   0  0  0  0  0  0  0  0  0  0  0  0
   25.3295  -20.7850   -9.0581 C   0  0  1  0  0  0  0  0  0  0  0  0
   25.1298  -19.2983   -8.7300 C   0  0  0  0  0  0  0  0  0  0  0  0
   24.8468  -21.1140  -10.4098 C   0  0  0  0  0  0  0  0  0  0  0  0
   23.3960  -21.1592  -10.6632 C   0  0  2  0  0  0  0  0  0  0  0  0
   22.6081  -22.1086   -9.9799 N   0  0  0  0  0  0  0  0  0  0  0  0
   23.0942  -21.3370  -12.1372 C   0  0  0  0  0  0  0  0  0  0  0  0
   23.5545  -22.2958  -12.8039 O   0  0  0  0  0  0  0  0  0  0  0  0
   22.2671  -20.4062  -12.8147 N   0  0  0  0  0  0  0  0  0  0  0  0
   21.9334  -20.5546  -14.2547 C   0  0  1  0  0  0  0  0  0  0  0  0
   20.7487  -21.4564  -14.3316 C   0  0  0  0  0  0  0  0  0  0  0  0
   19.5415  -20.8466  -13.7161 C   0  0  0  0  0  0  0  0  0  0  0  0
   18.3911  -21.7500  -13.7694 C   0  0  0  0  0  0  0  0  0  0  0  0
   18.2102  -22.6626  -14.5872 O   0  0  0  0  0  0  0  0  0  0  0  0
   21.7233  -19.2040  -14.8150 C   0  0  0  0  0  0  0  0  0  0  0  0
   21.6721  -18.1915  -14.0983 O   0  0  0  0  0  0  0  0  0  0  0  0
   17.3845  -21.5678  -12.7939 O   0  0  0  0  0  0  0  0  0  0  0  0
   21.5795  -19.0750  -16.1935 O   0  0  0  0  0  0  0  0  0  0  0  0
  2  1  1  0
  2  3  2  0
  4  5  1  0
  4  2  1  0
  5  7  1  0
  5  6  1  1
  7 14  1  0
  7  8  2  0
 10  9  1  6
 10 11  1  0
 12 10  1  0
 13 15  1  0
 13 12  1  6
 14 13  1  0
 15 16  2  0
 17 18  1  0
 17 15  1  0
 19 20  1  0
 18 19  1  1
 20 21  1  0
 21 25  1  0
 21 22  2  0
 23 18  1  0
 23 26  1  0
 24 23  2  0
M  END
$$$$
