NLE.pdb
     RDKit          3D

 26 25  0  0  1  0  0  0  0  0999 V2000
   19.2222  -12.4056  -19.9948 N   0  0  0  0  0  0  0  0  0  0  0  0
   18.9833  -11.0138  -19.8509 C   0  0  0  0  0  0  0  0  0  0  0  0
   18.2689  -10.3468  -20.6340 O   0  0  0  0  0  0  0  0  0  0  0  0
   19.6168  -10.3213  -18.7107 C   0  0  0  0  0  0  0  0  0  0  0  0
   20.5269  -11.2346  -17.9208 C   0  0  2  0  0  0  0  0  0  0  0  0
   19.7266  -12.2499  -17.2986 N   0  0  0  0  0  0  0  0  0  0  0  0
   21.2351  -10.3904  -16.9049 C   0  0  0  0  0  0  0  0  0  0  0  0
   20.6577  -10.1917  -15.7900 O   0  0  0  0  0  0  0  0  0  0  0  0
   26.8265  -10.1975  -16.1530 C   0  0  0  0  0  0  0  0  0  0  0  0
   25.3387  -10.3166  -15.9145 C   0  0  1  0  0  0  0  0  0  0  0  0
   25.1921  -10.7396  -14.4457 C   0  0  0  0  0  0  0  0  0  0  0  0
   24.6376   -9.0512  -16.1894 C   0  0  0  0  0  0  0  0  0  0  0  0
   23.1651   -9.0432  -16.2444 C   0  0  2  0  0  0  0  0  0  0  0  0
   22.5087   -9.8420  -17.2036 N   0  0  0  0  0  0  0  0  0  0  0  0
   22.6228   -7.6390  -16.4165 C   0  0  0  0  0  0  0  0  0  0  0  0
   22.5737   -7.0728  -17.5357 O   0  0  0  0  0  0  0  0  0  0  0  0
   22.1469   -6.9143  -15.2949 N   0  0  0  0  0  0  0  0  0  0  0  0
   21.6370   -5.5242  -15.4167 C   0  0  1  0  0  0  0  0  0  0  0  0
   20.1630   -5.6222  -15.6172 C   0  0  0  0  0  0  0  0  0  0  0  0
   19.5226   -4.2851  -15.7173 C   0  0  0  0  0  0  0  0  0  0  0  0
   18.0806   -4.3906  -15.9453 C   0  0  0  0  0  0  0  0  0  0  0  0
   17.4295   -5.4378  -16.0623 O   0  0  0  0  0  0  0  0  0  0  0  0
   22.0516   -4.7798  -14.2101 C   0  0  0  0  0  0  0  0  0  0  0  0
   22.2715   -5.3456  -13.1270 O   0  0  0  0  0  0  0  0  0  0  0  0
   17.3547   -3.1816  -16.0424 O   0  0  0  0  0  0  0  0  0  0  0  0
   22.1972   -3.3986  -14.3027 O   0  0  0  0  0  0  0  0  0  0  0  0
  2  1  1  0
  2  3  2  0
  4  5  1  0
  4  2  1  0
  5  7  1  0
  5  6  1  1
  7 14  1  0
  7  8  2  0
 10  9  1  1
 10 11  1  0
 12 10  1  0
 13 15  1  0
 13 12  1  6
 14 13  1  0
 15 16  2  0
 17 18  1  0
 17 15  1  0
 19 20  1  0
 18 19  1  1
 20 21  1  0
 21 25  1  0
 21 22  2  0
 23 18  1  0
 23 26  1  0
 24 23  2  0
M  END
$$$$
