NLE.pdb
     RDKit          3D

 26 25  0  0  1  0  0  0  0  0999 V2000
   28.4079  -18.2553  -17.9727 N   0  0  0  0  0  0  0  0  0  0  0  0
   27.9729  -18.0055  -16.6448 C   0  0  0  0  0  0  0  0  0  0  0  0
   28.4181  -17.0780  -15.9306 O   0  0  0  0  0  0  0  0  0  0  0  0
   26.9365  -18.8943  -16.0818 C   0  0  0  0  0  0  0  0  0  0  0  0
   27.5096  -19.8913  -15.1001 C   0  0  2  0  0  0  0  0  0  0  0  0
   28.2507  -20.8782  -15.8318 N   0  0  0  0  0  0  0  0  0  0  0  0
   26.3586  -20.5022  -14.3597 C   0  0  0  0  0  0  0  0  0  0  0  0
   25.7487  -21.4745  -14.9062 O   0  0  0  0  0  0  0  0  0  0  0  0
   27.1988  -21.1627  -10.5592 C   0  0  0  0  0  0  0  0  0  0  0  0
   25.7803  -21.1811  -10.0374 C   0  0  1  0  0  0  0  0  0  0  0  0
   25.8540  -20.5722   -8.6297 C   0  0  0  0  0  0  0  0  0  0  0  0
   24.8665  -20.4254  -10.9105 C   0  0  0  0  0  0  0  0  0  0  0  0
   24.9439  -20.6177  -12.3693 C   0  0  2  0  0  0  0  0  0  0  0  0
   25.9817  -19.9920  -13.0910 N   0  0  0  0  0  0  0  0  0  0  0  0
   23.6510  -20.2203  -13.0519 C   0  0  0  0  0  0  0  0  0  0  0  0
   23.3522  -19.0215  -13.2740 O   0  0  0  0  0  0  0  0  0  0  0  0
   22.7271  -21.2127  -13.4658 N   0  0  0  0  0  0  0  0  0  0  0  0
   21.4061  -20.8620  -14.0481 C   0  0  1  0  0  0  0  0  0  0  0  0
   21.1729  -21.8002  -15.1829 C   0  0  0  0  0  0  0  0  0  0  0  0
   19.8538  -21.5777  -15.8298 C   0  0  0  0  0  0  0  0  0  0  0  0
   19.6302  -22.5071  -16.9382 C   0  0  0  0  0  0  0  0  0  0  0  0
   20.3948  -23.4092  -17.3069 O   0  0  0  0  0  0  0  0  0  0  0  0
   20.4001  -20.9305  -12.9687 C   0  0  0  0  0  0  0  0  0  0  0  0
   20.5781  -21.6034  -11.9406 O   0  0  0  0  0  0  0  0  0  0  0  0
   18.4246  -22.3660  -17.6627 O   0  0  0  0  0  0  0  0  0  0  0  0
   19.2174  -20.2124  -13.1205 O   0  0  0  0  0  0  0  0  0  0  0  0
  2  1  1  0
  2  3  2  0
  4  5  1  0
  4  2  1  0
  5  7  1  0
  5  6  1  6
  7 14  1  0
  7  8  2  0
 10  9  1  6
 10 11  1  0
 12 10  1  0
 13 15  1  0
 13 12  1  1
 14 13  1  0
 15 16  2  0
 17 18  1  0
 17 15  1  0
 19 20  1  0
 18 19  1  6
 20 21  1  0
 21 25  1  0
 21 22  2  0
 23 18  1  0
 23 26  1  0
 24 23  2  0
M  END
$$$$
