NLE.pdb
     RDKit          3D

 26 25  0  0  1  0  0  0  0  0999 V2000
   17.6359  -12.7702  -14.1712 N   0  0  0  0  0  0  0  0  0  0  0  0
   17.7779  -11.4715  -14.7263 C   0  0  0  0  0  0  0  0  0  0  0  0
   18.5804  -11.1932  -15.6467 O   0  0  0  0  0  0  0  0  0  0  0  0
   16.9274  -10.3939  -14.1819 C   0  0  0  0  0  0  0  0  0  0  0  0
   16.0855  -10.8630  -13.0168 C   0  0  2  0  0  0  0  0  0  0  0  0
   15.0575  -11.7304  -13.5163 N   0  0  0  0  0  0  0  0  0  0  0  0
   15.5093   -9.6442  -12.3621 C   0  0  0  0  0  0  0  0  0  0  0  0
   14.5327   -9.0666  -12.9354 O   0  0  0  0  0  0  0  0  0  0  0  0
   13.5158   -6.5364   -8.4826 C   0  0  0  0  0  0  0  0  0  0  0  0
   15.0229   -6.6493   -8.4599 C   0  0  1  0  0  0  0  0  0  0  0  0
   15.4172   -6.5682   -6.9781 C   0  0  0  0  0  0  0  0  0  0  0  0
   15.4870   -7.9021   -9.0792 C   0  0  0  0  0  0  0  0  0  0  0  0
   15.5274   -8.0050  -10.5486 C   0  0  2  0  0  0  0  0  0  0  0  0
   16.0555   -9.1705  -11.1417 N   0  0  0  0  0  0  0  0  0  0  0  0
   16.2699   -6.8383  -11.1674 C   0  0  0  0  0  0  0  0  0  0  0  0
   17.5204   -6.7393  -11.1194 O   0  0  0  0  0  0  0  0  0  0  0  0
   15.5567   -5.8079  -11.8301 N   0  0  0  0  0  0  0  0  0  0  0  0
   16.2481   -4.6525  -12.4578 C   0  0  1  0  0  0  0  0  0  0  0  0
   15.7359   -4.5508  -13.8542 C   0  0  0  0  0  0  0  0  0  0  0  0
   16.2977   -3.3769  -14.5713 C   0  0  0  0  0  0  0  0  0  0  0  0
   15.8371   -3.3186  -15.9594 C   0  0  0  0  0  0  0  0  0  0  0  0
   15.0578   -4.1089  -16.5093 O   0  0  0  0  0  0  0  0  0  0  0  0
   16.0013   -3.4628  -11.6176 C   0  0  0  0  0  0  0  0  0  0  0  0
   16.8572   -2.5779  -11.4566 O   0  0  0  0  0  0  0  0  0  0  0  0
   16.3265   -2.2580  -16.7555 O   0  0  0  0  0  0  0  0  0  0  0  0
   14.7645   -3.3410  -10.9907 O   0  0  0  0  0  0  0  0  0  0  0  0
  2  1  1  0
  2  3  2  0
  4  5  1  0
  4  2  1  0
  5  7  1  0
  5  6  1  6
  7 14  1  0
  7  8  2  0
 10  9  1  1
 10 11  1  0
 12 10  1  0
 13 15  1  0
 13 12  1  1
 14 13  1  0
 15 16  2  0
 17 18  1  0
 17 15  1  0
 19 20  1  0
 18 19  1  6
 20 21  1  0
 21 25  1  0
 21 22  2  0
 23 18  1  0
 23 26  1  0
 24 23  2  0
M  END
$$$$
