NLE.pdb
     RDKit          3D

 26 25  0  0  1  0  0  0  0  0999 V2000
   27.6042  -18.9709  -15.8620 N   0  0  0  0  0  0  0  0  0  0  0  0
   26.2019  -19.1640  -15.7553 C   0  0  0  0  0  0  0  0  0  0  0  0
   25.3751  -18.7279  -16.5887 O   0  0  0  0  0  0  0  0  0  0  0  0
   25.6986  -19.9233  -14.5930 C   0  0  0  0  0  0  0  0  0  0  0  0
   26.7983  -20.2650  -13.6131 C   0  0  2  0  0  0  0  0  0  0  0  0
   27.7164  -21.1635  -14.2522 N   0  0  0  0  0  0  0  0  0  0  0  0
   26.1516  -20.8953  -12.4170 C   0  0  0  0  0  0  0  0  0  0  0  0
   26.0364  -22.1612  -12.4011 O   0  0  0  0  0  0  0  0  0  0  0  0
   27.1047  -19.0032   -7.2336 C   0  0  0  0  0  0  0  0  0  0  0  0
   26.9719  -19.8601   -8.4716 C   0  0  1  0  0  0  0  0  0  0  0  0
   27.6335  -21.1993   -8.1155 C   0  0  0  0  0  0  0  0  0  0  0  0
   25.5642  -20.0362   -8.8666 C   0  0  0  0  0  0  0  0  0  0  0  0
   25.2550  -20.6860  -10.1524 C   0  0  2  0  0  0  0  0  0  0  0  0
   25.6908  -20.0820  -11.3501 N   0  0  0  0  0  0  0  0  0  0  0  0
   23.7671  -20.9230  -10.3119 C   0  0  0  0  0  0  0  0  0  0  0  0
   22.9617  -20.7886   -9.3585 O   0  0  0  0  0  0  0  0  0  0  0  0
   23.2358  -21.3103  -11.5679 N   0  0  0  0  0  0  0  0  0  0  0  0
   21.9163  -20.8233  -12.0464 C   0  0  1  0  0  0  0  0  0  0  0  0
   22.1685  -19.5554  -12.7888 C   0  0  0  0  0  0  0  0  0  0  0  0
   20.9070  -18.9051  -13.2288 C   0  0  0  0  0  0  0  0  0  0  0  0
   20.7558  -18.9450  -14.6841 C   0  0  0  0  0  0  0  0  0  0  0  0
   21.6688  -19.0394  -15.5158 O   0  0  0  0  0  0  0  0  0  0  0  0
   21.2970  -21.8992  -12.8471 C   0  0  0  0  0  0  0  0  0  0  0  0
   21.9657  -22.6496  -13.5760 O   0  0  0  0  0  0  0  0  0  0  0  0
   19.4406  -18.8687  -15.1964 O   0  0  0  0  0  0  0  0  0  0  0  0
   19.9172  -22.0676  -12.7736 O   0  0  0  0  0  0  0  0  0  0  0  0
  2  1  1  0
  2  3  2  0
  4  5  1  0
  4  2  1  0
  5  7  1  0
  5  6  1  6
  7 14  1  0
  7  8  2  0
 10  9  1  1
 10 11  1  0
 12 10  1  0
 13 15  1  0
 13 12  1  1
 14 13  1  0
 15 16  2  0
 17 18  1  0
 17 15  1  0
 19 20  1  0
 18 19  1  6
 20 21  1  0
 21 25  1  0
 21 22  2  0
 23 18  1  0
 23 26  1  0
 24 23  2  0
M  END
$$$$
