PHN.pdb
     RDKit          3D

 26 27  0  0  1  0  0  0  0  0999 V2000
    8.0641  -14.2331   17.9845 N   0  0  0  0  0  0  0  0  0  0  0  0
    7.3790  -14.5453   19.2264 C   0  0  0  0  0  0  0  0  0  0  0  0
    7.3035  -13.1542   19.8596 C   0  0  0  0  0  0  0  0  0  0  0  0
    8.7279  -12.6816   19.6520 C   0  0  0  0  0  0  0  0  0  0  0  0
    9.2216  -13.4972   18.4516 C   0  0  1  0  0  0  0  0  0  0  0  0
   10.2497  -14.4779   18.8716 C   0  0  0  0  0  0  0  0  0  0  0  0
    9.9725  -15.6994   18.9569 O   0  0  0  0  0  0  0  0  0  0  0  0
   11.5842  -14.0805   19.1937 N   0  0  0  0  0  0  0  0  0  0  0  0
   12.6389  -15.0343   19.4414 C   0  0  1  0  0  0  0  0  0  0  0  0
   13.9548  -14.3292   19.2350 C   0  0  0  0  0  0  0  0  0  0  0  0
   14.5726  -14.6815   17.9321 C   0  0  0  0  0  0  0  0  0  0  0  0
   14.1313  -15.7420   17.1662 C   0  0  0  0  0  0  0  0  0  0  0  0
   14.8919  -15.7944   16.0551 N   0  0  0  0  0  0  0  0  0  0  0  0
   15.7891  -14.7994   16.1110 C   0  0  0  0  0  0  0  0  0  0  0  0
   15.5774  -14.1356   17.2596 N   0  0  0  0  0  0  0  0  0  0  0  0
   12.5740  -15.4428   20.8638 C   0  0  0  0  0  0  0  0  0  0  0  0
   12.2515  -14.6100   21.7447 O   0  0  0  0  0  0  0  0  0  0  0  0
   10.1770  -17.7960   21.7595 N   0  0  0  0  0  0  0  0  0  0  0  0
   10.9162  -18.8711   22.3132 C   0  0  0  0  0  0  0  0  0  0  0  0
   10.3738  -20.0024   22.3428 O   0  0  0  0  0  0  0  0  0  0  0  0
   12.2696  -18.5964   22.8177 C   0  0  0  0  0  0  0  0  0  0  0  0
   12.6605  -17.1454   22.6806 C   0  0  2  0  0  0  0  0  0  0  0  0
   12.8665  -16.7687   21.2981 N   0  0  0  0  0  0  0  0  0  0  0  0
   13.8438  -16.7906   23.4639 C   0  0  0  0  0  0  0  0  0  0  0  0
   13.8594  -16.7258   24.8528 O   0  0  0  0  0  0  0  0  0  0  0  0
   14.9204  -16.5243   22.8789 O   0  0  0  0  0  0  0  0  0  0  0  0
  1  2  1  0
  2  3  1  0
  4  3  1  0
  5  1  1  0
  5  4  1  0
  6  8  1  0
  5  6  1  1
  7  6  2  0
  9  8  1  0
  9 10  1  1
 10 11  1  0
 11 15  1  0
 12 11  2  0
 12 13  1  0
 13 14  1  0
 15 14  2  0
 16  9  1  0
 17 16  2  0
 18 19  1  0
 19 20  2  0
 19 21  1  0
 22 21  1  6
 22 24  1  0
 22 23  1  0
 23 16  1  0
 24 25  1  0
 26 24  2  0
M  END
$$$$
