PHN.pdb
     RDKit          3D

 26 27  0  0  1  0  0  0  0  0999 V2000
    8.9694  -14.7215   18.2597 N   0  0  0  0  0  0  0  0  0  0  0  0
    7.8792  -14.1198   19.0072 C   0  0  0  0  0  0  0  0  0  0  0  0
    7.8944  -12.7030   18.4290 C   0  0  0  0  0  0  0  0  0  0  0  0
    9.3765  -12.3962   18.4959 C   0  0  0  0  0  0  0  0  0  0  0  0
   10.0454  -13.7753   18.4754 C   0  0  1  0  0  0  0  0  0  0  0  0
   10.6650  -14.0768   19.7871 C   0  0  0  0  0  0  0  0  0  0  0  0
   11.4810  -13.2777   20.3085 O   0  0  0  0  0  0  0  0  0  0  0  0
   10.3643  -15.2749   20.5058 N   0  0  0  0  0  0  0  0  0  0  0  0
   11.0532  -15.6449   21.7190 C   0  0  1  0  0  0  0  0  0  0  0  0
   10.2877  -16.7762   22.3561 C   0  0  0  0  0  0  0  0  0  0  0  0
    8.9732  -16.3282   22.8804 C   0  0  0  0  0  0  0  0  0  0  0  0
    8.6716  -14.9961   23.0819 C   0  0  0  0  0  0  0  0  0  0  0  0
    7.4138  -14.9247   23.5600 N   0  0  0  0  0  0  0  0  0  0  0  0
    6.9293  -16.1710   23.6601 C   0  0  0  0  0  0  0  0  0  0  0  0
    7.8932  -17.0083   23.2421 N   0  0  0  0  0  0  0  0  0  0  0  0
   12.3914  -16.1656   21.3555 C   0  0  0  0  0  0  0  0  0  0  0  0
   12.6386  -16.4970   20.1712 O   0  0  0  0  0  0  0  0  0  0  0  0
   17.5169  -14.6555   21.7364 N   0  0  0  0  0  0  0  0  0  0  0  0
   16.5503  -14.9003   20.7290 C   0  0  0  0  0  0  0  0  0  0  0  0
   16.9534  -15.0254   19.5471 O   0  0  0  0  0  0  0  0  0  0  0  0
   15.1384  -14.9925   21.1288 C   0  0  0  0  0  0  0  0  0  0  0  0
   14.8256  -16.2648   21.8775 C   0  0  2  0  0  0  0  0  0  0  0  0
   13.4436  -16.3148   22.3058 N   0  0  0  0  0  0  0  0  0  0  0  0
   15.7007  -16.4865   23.0284 C   0  0  0  0  0  0  0  0  0  0  0  0
   15.5662  -15.8185   24.2405 O   0  0  0  0  0  0  0  0  0  0  0  0
   16.6344  -17.3196   22.9489 O   0  0  0  0  0  0  0  0  0  0  0  0
  1  2  1  0
  2  3  1  0
  4  3  1  0
  5  1  1  0
  5  4  1  0
  6  8  1  0
  5  6  1  1
  7  6  2  0
  9  8  1  0
  9 10  1  6
 10 11  1  0
 11 15  1  0
 12 11  2  0
 12 13  1  0
 13 14  1  0
 15 14  2  0
 16  9  1  0
 17 16  2  0
 18 19  1  0
 19 20  2  0
 19 21  1  0
 22 21  1  1
 22 24  1  0
 22 23  1  0
 23 16  1  0
 24 25  1  0
 26 24  2  0
M  END
$$$$
