PHN.pdb
     RDKit          3D

 26 27  0  0  1  0  0  0  0  0999 V2000
    7.6349  -15.9340   21.9553 N   0  0  0  0  0  0  0  0  0  0  0  0
    6.6445  -15.0840   21.3181 C   0  0  0  0  0  0  0  0  0  0  0  0
    5.5304  -16.1008   21.0599 C   0  0  0  0  0  0  0  0  0  0  0  0
    6.3321  -17.2392   20.4628 C   0  0  0  0  0  0  0  0  0  0  0  0
    7.7471  -17.0297   21.0138 C   0  0  1  0  0  0  0  0  0  0  0  0
    8.6734  -16.6139   19.9347 C   0  0  0  0  0  0  0  0  0  0  0  0
    8.9377  -17.3895   18.9835 O   0  0  0  0  0  0  0  0  0  0  0  0
    9.2980  -15.3284   19.9304 N   0  0  0  0  0  0  0  0  0  0  0  0
   10.2061  -14.9110   18.8890 C   0  0  1  0  0  0  0  0  0  0  0  0
    9.7580  -13.5564   18.4036 C   0  0  0  0  0  0  0  0  0  0  0  0
    8.8288  -13.6616   17.2508 C   0  0  0  0  0  0  0  0  0  0  0  0
    8.4895  -14.8727   16.6816 C   0  0  0  0  0  0  0  0  0  0  0  0
    7.6369  -14.6283   15.6671 N   0  0  0  0  0  0  0  0  0  0  0  0
    7.4392  -13.3042   15.5920 C   0  0  0  0  0  0  0  0  0  0  0  0
    8.1728  -12.7358   16.5634 N   0  0  0  0  0  0  0  0  0  0  0  0
   11.5528  -14.7450   19.4832 C   0  0  0  0  0  0  0  0  0  0  0  0
   11.6912  -14.1358   20.5709 O   0  0  0  0  0  0  0  0  0  0  0  0
   13.2746  -16.3584   21.8390 N   0  0  0  0  0  0  0  0  0  0  0  0
   14.1874  -17.0812   21.0307 C   0  0  0  0  0  0  0  0  0  0  0  0
   14.5417  -18.2203   21.4203 O   0  0  0  0  0  0  0  0  0  0  0  0
   14.6624  -16.4542   19.7885 C   0  0  0  0  0  0  0  0  0  0  0  0
   14.0160  -15.1163   19.5256 C   0  0  2  0  0  0  0  0  0  0  0  0
   12.7337  -15.2546   18.8683 N   0  0  0  0  0  0  0  0  0  0  0  0
   14.8639  -14.2082   18.7535 C   0  0  0  0  0  0  0  0  0  0  0  0
   15.8619  -13.4193   19.3147 O   0  0  0  0  0  0  0  0  0  0  0  0
   14.7063  -14.1132   17.5131 O   0  0  0  0  0  0  0  0  0  0  0  0
  1  2  1  0
  2  3  1  0
  4  3  1  0
  5  1  1  0
  5  4  1  0
  6  8  1  0
  5  6  1  6
  7  6  2  0
  9  8  1  0
  9 10  1  1
 10 11  1  0
 11 15  1  0
 12 11  2  0
 12 13  1  0
 13 14  1  0
 15 14  2  0
 16  9  1  0
 17 16  2  0
 18 19  1  0
 19 20  2  0
 19 21  1  0
 22 21  1  6
 22 24  1  0
 22 23  1  0
 23 16  1  0
 24 25  1  0
 26 24  2  0
M  END
$$$$
