PHN.pdb
     RDKit          3D

 26 27  0  0  1  0  0  0  0  0999 V2000
    7.5890  -14.9951   20.2324 N   0  0  0  0  0  0  0  0  0  0  0  0
    6.8814  -13.7865   20.6167 C   0  0  0  0  0  0  0  0  0  0  0  0
    7.5232  -12.7741   19.6653 C   0  0  0  0  0  0  0  0  0  0  0  0
    8.9874  -13.1177   19.8477 C   0  0  0  0  0  0  0  0  0  0  0  0
    8.9738  -14.5772   20.3161 C   0  0  1  0  0  0  0  0  0  0  0  0
    9.3981  -14.6770   21.7322 C   0  0  0  0  0  0  0  0  0  0  0  0
   10.3837  -14.0230   22.1530 O   0  0  0  0  0  0  0  0  0  0  0  0
    8.7122  -15.5114   22.6681 N   0  0  0  0  0  0  0  0  0  0  0  0
    9.2604  -15.8380   23.9628 C   0  0  1  0  0  0  0  0  0  0  0  0
    8.1289  -15.8241   24.9583 C   0  0  0  0  0  0  0  0  0  0  0  0
    7.4982  -14.4842   25.0599 C   0  0  0  0  0  0  0  0  0  0  0  0
    8.1101  -13.4243   25.6988 C   0  0  0  0  0  0  0  0  0  0  0  0
    7.2866  -12.3609   25.6170 N   0  0  0  0  0  0  0  0  0  0  0  0
    6.1853  -12.7309   24.9476 C   0  0  0  0  0  0  0  0  0  0  0  0
    6.3346  -14.0248   24.6183 N   0  0  0  0  0  0  0  0  0  0  0  0
    9.7872  -17.2215   23.9110 C   0  0  0  0  0  0  0  0  0  0  0  0
    9.0262  -18.1754   23.6208 O   0  0  0  0  0  0  0  0  0  0  0  0
   12.9547  -19.6315   27.1246 N   0  0  0  0  0  0  0  0  0  0  0  0
   11.7100  -19.0574   27.4852 C   0  0  0  0  0  0  0  0  0  0  0  0
   11.3929  -19.0588   28.6994 O   0  0  0  0  0  0  0  0  0  0  0  0
   10.8685  -18.4967   26.4178 C   0  0  0  0  0  0  0  0  0  0  0  0
   11.4855  -18.6457   25.0488 C   0  0  2  0  0  0  0  0  0  0  0  0
   11.1512  -17.5364   24.1808 N   0  0  0  0  0  0  0  0  0  0  0  0
   11.1317  -19.9032   24.3907 C   0  0  0  0  0  0  0  0  0  0  0  0
   12.0217  -20.6539   23.6306 O   0  0  0  0  0  0  0  0  0  0  0  0
    9.9676  -20.3563   24.4993 O   0  0  0  0  0  0  0  0  0  0  0  0
  1  2  1  0
  2  3  1  0
  4  3  1  0
  5  1  1  0
  5  4  1  0
  6  8  1  0
  5  6  1  1
  7  6  2  0
  9  8  1  0
  9 10  1  1
 10 11  1  0
 11 15  1  0
 12 11  2  0
 12 13  1  0
 13 14  1  0
 15 14  2  0
 16  9  1  0
 17 16  2  0
 18 19  1  0
 19 20  2  0
 19 21  1  0
 22 21  1  1
 22 24  1  0
 22 23  1  0
 23 16  1  0
 24 25  1  0
 26 24  2  0
M  END
$$$$
