PHN.pdb
     RDKit          3D

 26 27  0  0  1  0  0  0  0  0999 V2000
    8.7506  -15.1948   16.2751 N   0  0  0  0  0  0  0  0  0  0  0  0
    7.4790  -14.8664   16.8951 C   0  0  0  0  0  0  0  0  0  0  0  0
    7.1486  -13.5571   16.1751 C   0  0  0  0  0  0  0  0  0  0  0  0
    8.4771  -12.8382   16.2914 C   0  0  0  0  0  0  0  0  0  0  0  0
    9.5011  -13.9678   16.4506 C   0  0  1  0  0  0  0  0  0  0  0  0
   10.0704  -13.9700   17.8185 C   0  0  0  0  0  0  0  0  0  0  0  0
   10.7546  -13.0007   18.2289 O   0  0  0  0  0  0  0  0  0  0  0  0
    9.8676  -15.0619   18.7180 N   0  0  0  0  0  0  0  0  0  0  0  0
   10.4303  -15.0864   20.0470 C   0  0  1  0  0  0  0  0  0  0  0  0
    9.6579  -16.0974   20.8551 C   0  0  0  0  0  0  0  0  0  0  0  0
    8.3038  -15.6035   21.2100 C   0  0  0  0  0  0  0  0  0  0  0  0
    7.9107  -14.2984   20.9906 C   0  0  0  0  0  0  0  0  0  0  0  0
    6.6389  -14.1723   21.4177 N   0  0  0  0  0  0  0  0  0  0  0  0
    6.2344  -15.3587   21.8939 C   0  0  0  0  0  0  0  0  0  0  0  0
    7.2614  -16.2141   21.7582 N   0  0  0  0  0  0  0  0  0  0  0  0
   11.8276  -15.5691   19.9533 C   0  0  0  0  0  0  0  0  0  0  0  0
   12.1510  -16.3956   19.0669 O   0  0  0  0  0  0  0  0  0  0  0  0
   17.1768  -14.5586   20.6379 N   0  0  0  0  0  0  0  0  0  0  0  0
   16.2766  -14.1774   19.6115 C   0  0  0  0  0  0  0  0  0  0  0  0
   16.7437  -13.9860   18.4625 O   0  0  0  0  0  0  0  0  0  0  0  0
   14.8545  -14.0297   19.9544 C   0  0  0  0  0  0  0  0  0  0  0  0
   14.2469  -15.3044   20.4865 C   0  0  2  0  0  0  0  0  0  0  0  0
   12.8539  -15.1329   20.8414 N   0  0  0  0  0  0  0  0  0  0  0  0
   14.9758  -15.8582   21.6273 C   0  0  0  0  0  0  0  0  0  0  0  0
   16.1657  -16.5683   21.5122 O   0  0  0  0  0  0  0  0  0  0  0  0
   14.5279  -15.7005   22.7879 O   0  0  0  0  0  0  0  0  0  0  0  0
  1  2  1  0
  2  3  1  0
  4  3  1  0
  5  1  1  0
  5  4  1  0
  6  8  1  0
  5  6  1  1
  7  6  2  0
  9  8  1  0
  9 10  1  1
 10 11  1  0
 11 15  1  0
 12 11  2  0
 12 13  1  0
 13 14  1  0
 15 14  2  0
 16  9  1  0
 17 16  2  0
 18 19  1  0
 19 20  2  0
 19 21  1  0
 22 21  1  1
 22 24  1  0
 22 23  1  0
 23 16  1  0
 24 25  1  0
 26 24  2  0
M  END
$$$$
