PHN.pdb
     RDKit          3D

 26 27  0  0  1  0  0  0  0  0999 V2000
    7.7968  -14.2234   19.8996 N   0  0  0  0  0  0  0  0  0  0  0  0
    8.1404  -12.8545   19.5573 C   0  0  0  0  0  0  0  0  0  0  0  0
    7.3115  -12.6699   18.2842 C   0  0  0  0  0  0  0  0  0  0  0  0
    7.6533  -13.9489   17.5475 C   0  0  0  0  0  0  0  0  0  0  0  0
    8.0605  -14.9233   18.6586 C   0  0  1  0  0  0  0  0  0  0  0  0
    9.5121  -15.2133   18.5952 C   0  0  0  0  0  0  0  0  0  0  0  0
   10.0002  -15.8275   17.6151 O   0  0  0  0  0  0  0  0  0  0  0  0
   10.4076  -14.8114   19.6340 N   0  0  0  0  0  0  0  0  0  0  0  0
   11.7974  -15.2008   19.6533 C   0  0  1  0  0  0  0  0  0  0  0  0
   12.6250  -13.9644   19.4126 C   0  0  0  0  0  0  0  0  0  0  0  0
   13.9884  -14.2971   18.9291 C   0  0  0  0  0  0  0  0  0  0  0  0
   14.4421  -15.5973   18.8303 C   0  0  0  0  0  0  0  0  0  0  0  0
   15.7058  -15.5599   18.3641 N   0  0  0  0  0  0  0  0  0  0  0  0
   16.0467  -14.2774   18.1721 C   0  0  0  0  0  0  0  0  0  0  0  0
   14.9887  -13.5269   18.5216 N   0  0  0  0  0  0  0  0  0  0  0  0
   12.1247  -15.6949   21.0109 C   0  0  0  0  0  0  0  0  0  0  0  0
   11.8049  -15.0227   22.0205 O   0  0  0  0  0  0  0  0  0  0  0  0
   11.0415  -19.4742   23.7375 N   0  0  0  0  0  0  0  0  0  0  0  0
   11.8934  -19.5087   22.6052 C   0  0  0  0  0  0  0  0  0  0  0  0
   11.4805  -20.0998   21.5780 O   0  0  0  0  0  0  0  0  0  0  0  0
   13.2052  -18.8519   22.7025 C   0  0  0  0  0  0  0  0  0  0  0  0
   13.1160  -17.3499   22.5874 C   0  0  2  0  0  0  0  0  0  0  0  0
   12.8026  -16.9282   21.2385 N   0  0  0  0  0  0  0  0  0  0  0  0
   14.3245  -16.6639   23.0441 C   0  0  0  0  0  0  0  0  0  0  0  0
   14.5463  -16.2872   24.3641 O   0  0  0  0  0  0  0  0  0  0  0  0
   15.2303  -16.3859   22.2228 O   0  0  0  0  0  0  0  0  0  0  0  0
  1  2  1  0
  2  3  1  0
  4  3  1  0
  5  1  1  0
  5  4  1  0
  6  8  1  0
  5  6  1  6
  7  6  2  0
  9  8  1  0
  9 10  1  1
 10 11  1  0
 11 15  1  0
 12 11  2  0
 12 13  1  0
 13 14  1  0
 15 14  2  0
 16  9  1  0
 17 16  2  0
 18 19  1  0
 19 20  2  0
 19 21  1  0
 22 21  1  6
 22 24  1  0
 22 23  1  0
 23 16  1  0
 24 25  1  0
 26 24  2  0
M  END
$$$$
