PHN.pdb
     RDKit          3D

 26 27  0  0  1  0  0  0  0  0999 V2000
    7.2507  -19.0608   20.7152 N   0  0  0  0  0  0  0  0  0  0  0  0
    7.1055  -18.4671   19.3977 C   0  0  0  0  0  0  0  0  0  0  0  0
    8.1390  -19.2775   18.6122 C   0  0  0  0  0  0  0  0  0  0  0  0
    9.3181  -19.2099   19.5611 C   0  0  0  0  0  0  0  0  0  0  0  0
    8.6801  -18.9706   20.9343 C   0  0  1  0  0  0  0  0  0  0  0  0
    8.9840  -17.6050   21.4224 C   0  0  0  0  0  0  0  0  0  0  0  0
   10.1691  -17.1952   21.4818 O   0  0  0  0  0  0  0  0  0  0  0  0
    7.9539  -16.7072   21.8414 N   0  0  0  0  0  0  0  0  0  0  0  0
    8.2235  -15.5381   22.6438 C   0  0  1  0  0  0  0  0  0  0  0  0
    7.2755  -14.4512   22.2063 C   0  0  0  0  0  0  0  0  0  0  0  0
    7.5689  -13.9832   20.8285 C   0  0  0  0  0  0  0  0  0  0  0  0
    8.6286  -14.4716   20.0906 C   0  0  0  0  0  0  0  0  0  0  0  0
    8.6208  -13.8505   18.8948 N   0  0  0  0  0  0  0  0  0  0  0  0
    7.5895  -12.9940   18.8712 C   0  0  0  0  0  0  0  0  0  0  0  0
    6.9636  -13.0905   20.0560 N   0  0  0  0  0  0  0  0  0  0  0  0
    7.9084  -15.8583   24.0554 C   0  0  0  0  0  0  0  0  0  0  0  0
    6.8343  -15.4612   24.5673 O   0  0  0  0  0  0  0  0  0  0  0  0
    6.2402  -17.4837   24.7734 N   0  0  0  0  0  0  0  0  0  0  0  0
    6.7118  -18.5271   25.6087 C   0  0  0  0  0  0  0  0  0  0  0  0
    6.1055  -19.6254   25.5748 O   0  0  0  0  0  0  0  0  0  0  0  0
    7.8793  -18.2602   26.4617 C   0  0  0  0  0  0  0  0  0  0  0  0
    8.4378  -16.8716   26.2690 C   0  0  2  0  0  0  0  0  0  0  0  0
    8.7848  -16.6148   24.8872 N   0  0  0  0  0  0  0  0  0  0  0  0
    9.5928  -16.5913   27.1217 C   0  0  0  0  0  0  0  0  0  0  0  0
   10.8505  -16.2567   26.6323 O   0  0  0  0  0  0  0  0  0  0  0  0
    9.4741  -16.6479   28.3687 O   0  0  0  0  0  0  0  0  0  0  0  0
  1  2  1  0
  2  3  1  0
  4  3  1  0
  5  1  1  0
  5  4  1  0
  6  8  1  0
  5  6  1  6
  7  6  2  0
  9  8  1  0
  9 10  1  6
 10 11  1  0
 11 15  1  0
 12 11  2  0
 12 13  1  0
 13 14  1  0
 15 14  2  0
 16  9  1  0
 17 16  2  0
 18 19  1  0
 19 20  2  0
 19 21  1  0
 22 21  1  6
 22 24  1  0
 22 23  1  0
 23 16  1  0
 24 25  1  0
 26 24  2  0
M  END
$$$$
