PHN.pdb
     RDKit          3D

 26 27  0  0  1  0  0  0  0  0999 V2000
    8.6306  -12.6589   19.4090 N   0  0  0  0  0  0  0  0  0  0  0  0
    8.8765  -13.2468   18.1039 C   0  0  0  0  0  0  0  0  0  0  0  0
    7.4431  -13.5459   17.6592 C   0  0  0  0  0  0  0  0  0  0  0  0
    6.8998  -14.2034   18.9113 C   0  0  0  0  0  0  0  0  0  0  0  0
    7.7837  -13.6533   20.0364 C   0  0  1  0  0  0  0  0  0  0  0  0
    8.6559  -14.7177   20.5856 C   0  0  0  0  0  0  0  0  0  0  0  0
    8.2388  -15.8973   20.6891 O   0  0  0  0  0  0  0  0  0  0  0  0
    9.9924  -14.4506   21.0158 N   0  0  0  0  0  0  0  0  0  0  0  0
   10.8378  -15.4665   21.5960 C   0  0  1  0  0  0  0  0  0  0  0  0
   12.2217  -14.8870   21.7387 C   0  0  0  0  0  0  0  0  0  0  0  0
   12.9755  -14.9344   20.4608 C   0  0  0  0  0  0  0  0  0  0  0  0
   12.4885  -15.5719   19.3372 C   0  0  0  0  0  0  0  0  0  0  0  0
   13.4016  -15.4351   18.3557 N   0  0  0  0  0  0  0  0  0  0  0  0
   14.4371  -14.7330   18.8381 C   0  0  0  0  0  0  0  0  0  0  0  0
   14.1576  -14.4389   20.1188 N   0  0  0  0  0  0  0  0  0  0  0  0
   10.3403  -15.7648   22.9591 C   0  0  0  0  0  0  0  0  0  0  0  0
    9.9394  -14.8364   23.7011 O   0  0  0  0  0  0  0  0  0  0  0  0
    8.7766  -18.0697   27.2463 N   0  0  0  0  0  0  0  0  0  0  0  0
    8.1682  -18.7046   26.1346 C   0  0  0  0  0  0  0  0  0  0  0  0
    7.2504  -19.5303   26.3603 O   0  0  0  0  0  0  0  0  0  0  0  0
    8.6480  -18.3583   24.7886 C   0  0  0  0  0  0  0  0  0  0  0  0
    9.7477  -17.3253   24.8087 C   0  0  2  0  0  0  0  0  0  0  0  0
   10.2913  -17.0877   23.4882 N   0  0  0  0  0  0  0  0  0  0  0  0
   10.8340  -17.6575   25.7302 C   0  0  0  0  0  0  0  0  0  0  0  0
   12.1614  -17.7971   25.3406 O   0  0  0  0  0  0  0  0  0  0  0  0
   10.5863  -17.8324   26.9469 O   0  0  0  0  0  0  0  0  0  0  0  0
  1  2  1  0
  2  3  1  0
  4  3  1  0
  5  1  1  0
  5  4  1  0
  6  8  1  0
  5  6  1  6
  7  6  2  0
  9  8  1  0
  9 10  1  1
 10 11  1  0
 11 15  1  0
 12 11  2  0
 12 13  1  0
 13 14  1  0
 15 14  2  0
 16  9  1  0
 17 16  2  0
 18 19  1  0
 19 20  2  0
 19 21  1  0
 22 21  1  6
 22 24  1  0
 22 23  1  0
 23 16  1  0
 24 25  1  0
 26 24  2  0
M  END
$$$$
