PHN.pdb
     RDKit          3D

 26 27  0  0  1  0  0  0  0  0999 V2000
    8.9022  -14.3444   19.3677 N   0  0  0  0  0  0  0  0  0  0  0  0
    7.6131  -14.3384   18.6988 C   0  0  0  0  0  0  0  0  0  0  0  0
    7.3049  -12.8394   18.7027 C   0  0  0  0  0  0  0  0  0  0  0  0
    7.6311  -12.4970   20.1421 C   0  0  0  0  0  0  0  0  0  0  0  0
    8.6259  -13.5824   20.5687 C   0  0  1  0  0  0  0  0  0  0  0  0
    8.0113  -14.4959   21.5602 C   0  0  0  0  0  0  0  0  0  0  0  0
    7.4097  -14.0407   22.5636 O   0  0  0  0  0  0  0  0  0  0  0  0
    8.0763  -15.9166   21.4186 N   0  0  0  0  0  0  0  0  0  0  0  0
    7.3799  -16.8170   22.3061 C   0  0  1  0  0  0  0  0  0  0  0  0
    7.2405  -18.1418   21.6011 C   0  0  0  0  0  0  0  0  0  0  0  0
    6.5548  -19.1495   22.4483 C   0  0  0  0  0  0  0  0  0  0  0  0
    7.2455  -20.0963   23.1782 C   0  0  0  0  0  0  0  0  0  0  0  0
    6.3429  -20.8526   23.8332 N   0  0  0  0  0  0  0  0  0  0  0  0
    5.1166  -20.4026   23.5307 C   0  0  0  0  0  0  0  0  0  0  0  0
    5.2683  -19.3675   22.6878 N   0  0  0  0  0  0  0  0  0  0  0  0
    8.2246  -17.0391   23.5025 C   0  0  0  0  0  0  0  0  0  0  0  0
    9.4703  -16.9131   23.4269 O   0  0  0  0  0  0  0  0  0  0  0  0
    8.3529  -18.8081   29.2206 N   0  0  0  0  0  0  0  0  0  0  0  0
    8.6281  -17.6868   28.3985 C   0  0  0  0  0  0  0  0  0  0  0  0
    9.5849  -16.9422   28.7227 O   0  0  0  0  0  0  0  0  0  0  0  0
    7.7784  -17.4647   27.2193 C   0  0  0  0  0  0  0  0  0  0  0  0
    8.5495  -17.5283   25.9237 C   0  0  2  0  0  0  0  0  0  0  0  0
    7.6830  -17.3986   24.7713 N   0  0  0  0  0  0  0  0  0  0  0  0
    9.3569  -18.7410   25.7923 C   0  0  0  0  0  0  0  0  0  0  0  0
    8.9851  -19.8361   25.0204 O   0  0  0  0  0  0  0  0  0  0  0  0
   10.4515  -18.8284   26.3977 O   0  0  0  0  0  0  0  0  0  0  0  0
  1  2  1  0
  2  3  1  0
  4  3  1  0
  5  1  1  0
  5  4  1  0
  6  8  1  0
  5  6  1  1
  7  6  2  0
  9  8  1  0
  9 10  1  6
 10 11  1  0
 11 15  1  0
 12 11  2  0
 12 13  1  0
 13 14  1  0
 15 14  2  0
 16  9  1  0
 17 16  2  0
 18 19  1  0
 19 20  2  0
 19 21  1  0
 22 21  1  1
 22 24  1  0
 22 23  1  0
 23 16  1  0
 24 25  1  0
 26 24  2  0
M  END
$$$$
