PHN.pdb
     RDKit          3D

 26 27  0  0  1  0  0  0  0  0999 V2000
    6.3035  -19.0250   19.3512 N   0  0  0  0  0  0  0  0  0  0  0  0
    5.6594  -17.9731   18.5845 C   0  0  0  0  0  0  0  0  0  0  0  0
    5.5495  -18.6527   17.2178 C   0  0  0  0  0  0  0  0  0  0  0  0
    6.9509  -19.2107   17.0764 C   0  0  0  0  0  0  0  0  0  0  0  0
    7.4448  -19.3523   18.5206 C   0  0  1  0  0  0  0  0  0  0  0  0
    8.5167  -18.3702   18.8065 C   0  0  0  0  0  0  0  0  0  0  0  0
    9.5330  -18.2998   18.0728 O   0  0  0  0  0  0  0  0  0  0  0  0
    8.4407  -17.4723   19.9158 N   0  0  0  0  0  0  0  0  0  0  0  0
    9.4676  -16.4975   20.1961 C   0  0  1  0  0  0  0  0  0  0  0  0
    8.7926  -15.1673   20.4122 C   0  0  0  0  0  0  0  0  0  0  0  0
    8.3792  -14.5423   19.1308 C   0  0  0  0  0  0  0  0  0  0  0  0
    7.2293  -13.7877   19.0122 C   0  0  0  0  0  0  0  0  0  0  0  0
    7.1404  -13.3673   17.7351 N   0  0  0  0  0  0  0  0  0  0  0  0
    8.1995  -13.8388   17.0613 C   0  0  0  0  0  0  0  0  0  0  0  0
    8.9394  -14.5501   17.9282 N   0  0  0  0  0  0  0  0  0  0  0  0
   10.1296  -16.8696   21.4679 C   0  0  0  0  0  0  0  0  0  0  0  0
    9.4676  -17.4011   22.3913 O   0  0  0  0  0  0  0  0  0  0  0  0
   13.5514  -19.5663   24.1920 N   0  0  0  0  0  0  0  0  0  0  0  0
   14.2392  -18.5857   23.4342 C   0  0  0  0  0  0  0  0  0  0  0  0
   15.4316  -18.3390   23.7381 O   0  0  0  0  0  0  0  0  0  0  0  0
   13.5159  -17.9189   22.3414 C   0  0  0  0  0  0  0  0  0  0  0  0
   12.1919  -17.3448   22.7825 C   0  0  2  0  0  0  0  0  0  0  0  0
   11.5179  -16.6500   21.7061 N   0  0  0  0  0  0  0  0  0  0  0  0
   12.3052  -16.4574   23.9397 C   0  0  0  0  0  0  0  0  0  0  0  0
   12.4960  -16.9070   25.2416 O   0  0  0  0  0  0  0  0  0  0  0  0
   12.2299  -15.2157   23.7816 O   0  0  0  0  0  0  0  0  0  0  0  0
  1  2  1  0
  2  3  1  0
  4  3  1  0
  5  1  1  0
  5  4  1  0
  6  8  1  0
  5  6  1  1
  7  6  2  0
  9  8  1  0
  9 10  1  1
 10 11  1  0
 11 15  1  0
 12 11  2  0
 12 13  1  0
 13 14  1  0
 15 14  2  0
 16  9  1  0
 17 16  2  0
 18 19  1  0
 19 20  2  0
 19 21  1  0
 22 21  1  6
 22 24  1  0
 22 23  1  0
 23 16  1  0
 24 25  1  0
 26 24  2  0
M  END
$$$$
