PHN.pdb
     RDKit          3D

 26 27  0  0  1  0  0  0  0  0999 V2000
    7.2132  -15.0309   19.5917 N   0  0  0  0  0  0  0  0  0  0  0  0
    6.5661  -13.7311   19.6248 C   0  0  0  0  0  0  0  0  0  0  0  0
    7.3298  -13.0120   18.5106 C   0  0  0  0  0  0  0  0  0  0  0  0
    8.7543  -13.3747   18.8773 C   0  0  0  0  0  0  0  0  0  0  0  0
    8.6153  -14.6755   19.6763 C   0  0  1  0  0  0  0  0  0  0  0  0
    8.9465  -14.4520   21.1031 C   0  0  0  0  0  0  0  0  0  0  0  0
   10.0788  -14.0261   21.4385 O   0  0  0  0  0  0  0  0  0  0  0  0
    8.0029  -14.7084   22.1455 N   0  0  0  0  0  0  0  0  0  0  0  0
    8.2827  -14.4220   23.5322 C   0  0  1  0  0  0  0  0  0  0  0  0
    7.0016  -13.9530   24.1728 C   0  0  0  0  0  0  0  0  0  0  0  0
    7.2306  -13.4126   25.5362 C   0  0  0  0  0  0  0  0  0  0  0  0
    6.2738  -13.4790   26.5292 C   0  0  0  0  0  0  0  0  0  0  0  0
    6.7863  -12.9065   27.6362 N   0  0  0  0  0  0  0  0  0  0  0  0
    8.0297  -12.4887   27.3577 C   0  0  0  0  0  0  0  0  0  0  0  0
    8.2795  -12.8061   26.0765 N   0  0  0  0  0  0  0  0  0  0  0  0
    8.6746  -15.6851   24.1997 C   0  0  0  0  0  0  0  0  0  0  0  0
    7.9505  -16.7041   24.0957 O   0  0  0  0  0  0  0  0  0  0  0  0
   10.8604  -18.0216   23.1874 N   0  0  0  0  0  0  0  0  0  0  0  0
   11.9237  -17.9317   24.1203 C   0  0  0  0  0  0  0  0  0  0  0  0
   13.0691  -18.2750   23.7395 O   0  0  0  0  0  0  0  0  0  0  0  0
   11.6208  -17.4432   25.4736 C   0  0  0  0  0  0  0  0  0  0  0  0
   10.1725  -17.0554   25.6438 C   0  0  2  0  0  0  0  0  0  0  0  0
    9.8639  -15.8087   24.9759 N   0  0  0  0  0  0  0  0  0  0  0  0
    9.7584  -16.9734   27.0443 C   0  0  0  0  0  0  0  0  0  0  0  0
    9.5715  -18.0835   27.8605 O   0  0  0  0  0  0  0  0  0  0  0  0
    9.5523  -15.8527   27.5677 O   0  0  0  0  0  0  0  0  0  0  0  0
  1  2  1  0
  2  3  1  0
  4  3  1  0
  5  1  1  0
  5  4  1  0
  6  8  1  0
  5  6  1  1
  7  6  2  0
  9  8  1  0
  9 10  1  1
 10 11  1  0
 11 15  1  0
 12 11  2  0
 12 13  1  0
 13 14  1  0
 15 14  2  0
 16  9  1  0
 17 16  2  0
 18 19  1  0
 19 20  2  0
 19 21  1  0
 22 21  1  1
 22 24  1  0
 22 23  1  0
 23 16  1  0
 24 25  1  0
 26 24  2  0
M  END
$$$$
