PHN.pdb
     RDKit          3D

 26 27  0  0  1  0  0  0  0  0999 V2000
    9.0448  -14.2977   17.9652 N   0  0  0  0  0  0  0  0  0  0  0  0
    7.6392  -14.3491   17.6033 C   0  0  0  0  0  0  0  0  0  0  0  0
    7.1971  -12.9400   18.0045 C   0  0  0  0  0  0  0  0  0  0  0  0
    7.8218  -12.8390   19.3811 C   0  0  0  0  0  0  0  0  0  0  0  0
    8.9898  -13.8307   19.3357 C   0  0  1  0  0  0  0  0  0  0  0  0
    8.7202  -14.9981   20.2074 C   0  0  0  0  0  0  0  0  0  0  0  0
    7.7317  -15.0047   20.9812 O   0  0  0  0  0  0  0  0  0  0  0  0
    9.5634  -16.1520   20.2048 N   0  0  0  0  0  0  0  0  0  0  0  0
    9.3872  -17.2432   21.1331 C   0  0  1  0  0  0  0  0  0  0  0  0
   10.1297  -18.4359   20.5875 C   0  0  0  0  0  0  0  0  0  0  0  0
    9.3968  -19.0790   19.4683 C   0  0  0  0  0  0  0  0  0  0  0  0
    8.1044  -18.7291   19.1317 C   0  0  0  0  0  0  0  0  0  0  0  0
    7.7299  -19.4891   18.0839 N   0  0  0  0  0  0  0  0  0  0  0  0
    8.7505  -20.2974   17.7630 C   0  0  0  0  0  0  0  0  0  0  0  0
    9.7532  -20.0317   18.6167 N   0  0  0  0  0  0  0  0  0  0  0  0
   10.0277  -16.8723   22.4163 C   0  0  0  0  0  0  0  0  0  0  0  0
   11.1628  -16.3385   22.4232 O   0  0  0  0  0  0  0  0  0  0  0  0
    8.8829  -13.8244   25.0089 N   0  0  0  0  0  0  0  0  0  0  0  0
    8.2717  -15.0588   25.3435 C   0  0  0  0  0  0  0  0  0  0  0  0
    7.0395  -15.1783   25.1377 O   0  0  0  0  0  0  0  0  0  0  0  0
    9.1161  -16.1210   25.9096 C   0  0  0  0  0  0  0  0  0  0  0  0
   10.0762  -16.7031   24.9015 C   0  0  2  0  0  0  0  0  0  0  0  0
    9.4061  -17.0954   23.6797 N   0  0  0  0  0  0  0  0  0  0  0  0
   10.8425  -17.8352   25.4220 C   0  0  0  0  0  0  0  0  0  0  0  0
   11.7809  -17.7284   26.4424 O   0  0  0  0  0  0  0  0  0  0  0  0
   10.6658  -18.9798   24.9415 O   0  0  0  0  0  0  0  0  0  0  0  0
  1  2  1  0
  2  3  1  0
  4  3  1  0
  5  1  1  0
  5  4  1  0
  6  8  1  0
  5  6  1  1
  7  6  2  0
  9  8  1  0
  9 10  1  6
 10 11  1  0
 11 15  1  0
 12 11  2  0
 12 13  1  0
 13 14  1  0
 15 14  2  0
 16  9  1  0
 17 16  2  0
 18 19  1  0
 19 20  2  0
 19 21  1  0
 22 21  1  1
 22 24  1  0
 22 23  1  0
 23 16  1  0
 24 25  1  0
 26 24  2  0
M  END
$$$$
