YVW.pdb
     RDKit          3D

 34 36  0  0  1  0  0  0  0  0999 V2000
    7.2484  -24.1194   17.2676 O   0  0  0  0  0  0  0  0  0  0  0  0
    7.6515  -22.9507   17.8923 C   0  0  0  0  0  0  0  0  0  0  0  0
    6.6540  -22.0924   18.3513 C   0  0  0  0  0  0  0  0  0  0  0  0
    7.0423  -20.9197   18.9811 C   0  0  0  0  0  0  0  0  0  0  0  0
    8.3883  -20.6415   19.1327 C   0  0  0  0  0  0  0  0  0  0  0  0
    8.8273  -19.3965   19.8240 C   0  0  0  0  0  0  0  0  0  0  0  0
    8.6513  -18.1924   18.9369 C   0  0  2  0  0  0  0  0  0  0  0  0
    9.3106  -18.2821   17.6613 N   0  0  0  0  0  0  0  0  0  0  0  0
    8.9937  -16.9239   19.5779 C   0  0  0  0  0  0  0  0  0  0  0  0
   10.1908  -16.4660   19.5038 O   0  0  0  0  0  0  0  0  0  0  0  0
    9.3761  -21.4859   18.6806 C   0  0  0  0  0  0  0  0  0  0  0  0
    8.9985  -22.6544   18.0519 C   0  0  0  0  0  0  0  0  0  0  0  0
    8.0957  -12.5196   21.2717 C   0  0  0  0  0  0  0  0  0  0  0  0
    7.6329  -13.7747   20.5616 C   0  0  1  0  0  0  0  0  0  0  0  0
    7.7634  -13.5366   19.0689 C   0  0  0  0  0  0  0  0  0  0  0  0
    8.4593  -14.9186   21.0111 C   0  0  2  0  0  0  0  0  0  0  0  0
    8.0721  -16.1203   20.3094 N   0  0  0  0  0  0  0  0  0  0  0  0
    8.5096  -15.1306   22.4822 C   0  0  0  0  0  0  0  0  0  0  0  0
    7.4745  -15.3207   23.1906 O   0  0  0  0  0  0  0  0  0  0  0  0
    9.7614  -15.1288   23.1423 N   0  0  0  0  0  0  0  0  0  0  0  0
    9.8633  -15.4111   24.5879 C   0  0  1  0  0  0  0  0  0  0  0  0
    8.5835  -16.1708   24.8903 C   0  0  0  0  0  0  0  0  0  0  0  0
    7.4641  -15.3869   25.3748 C   0  0  0  0  0  0  0  0  0  0  0  0
    6.1216  -15.7066   25.4627 C   0  0  0  0  0  0  0  0  0  0  0  0
    5.5046  -14.6428   25.9487 N   0  0  0  0  0  0  0  0  0  0  0  0
    6.3692  -13.6129   26.1959 C   0  0  0  0  0  0  0  0  0  0  0  0
    6.1976  -12.3483   26.7063 C   0  0  0  0  0  0  0  0  0  0  0  0
    7.2706  -11.5097   26.8683 C   0  0  0  0  0  0  0  0  0  0  0  0
    8.5189  -11.9579   26.5110 C   0  0  0  0  0  0  0  0  0  0  0  0
    8.6846  -13.2250   25.9999 C   0  0  0  0  0  0  0  0  0  0  0  0
    7.6131  -14.0744   25.8339 C   0  0  0  0  0  0  0  0  0  0  0  0
   11.1005  -16.0465   24.9651 C   0  0  0  0  0  0  0  0  0  0  0  0
   11.3691  -16.1766   26.2215 O   0  0  0  0  0  0  0  0  0  0  0  0
   12.0439  -16.5409   24.1059 O   0  0  0  0  0  0  0  0  0  0  0  0
  2  1  1  0
  3  2  2  0
  4  3  1  0
  5 11  1  0
  5  4  2  0
  6  5  1  0
  7  6  1  0
  7  8  1  6
  9  7  1  0
  9 10  2  0
 11 12  2  0
 12  2  1  0
 14 13  1  1
 14 15  1  0
 16 14  1  0
 16 17  1  6
 17  9  1  0
 18 16  1  0
 19 18  2  0
 20 18  1  0
 21 20  1  0
 21 22  1  6
 22 23  1  0
 23 31  1  0
 24 23  2  0
 24 25  1  0
 25 26  1  0
 26 27  1  0
 27 28  2  0
 29 28  1  0
 30 29  2  0
 31 26  2  0
 31 30  1  0
 32 34  1  0
 32 21  1  0
 33 32  2  0
M  END
$$$$
