YVW.pdb
     RDKit          3D

 34 36  0  0  1  0  0  0  0  0999 V2000
    7.6376  -23.6107   16.0272 O   0  0  0  0  0  0  0  0  0  0  0  0
    7.9745  -22.5331   16.8296 C   0  0  0  0  0  0  0  0  0  0  0  0
    6.9462  -21.6750   17.2152 C   0  0  0  0  0  0  0  0  0  0  0  0
    7.2678  -20.5930   18.0207 C   0  0  0  0  0  0  0  0  0  0  0  0
    8.5803  -20.4012   18.4116 C   0  0  0  0  0  0  0  0  0  0  0  0
    8.9444  -19.2564   19.2932 C   0  0  0  0  0  0  0  0  0  0  0  0
    8.9955  -17.9677   18.5156 C   0  0  2  0  0  0  0  0  0  0  0  0
    9.8947  -17.9767   17.3926 N   0  0  0  0  0  0  0  0  0  0  0  0
    9.2482  -16.7850   19.3369 C   0  0  0  0  0  0  0  0  0  0  0  0
   10.4524  -16.4005   19.5612 O   0  0  0  0  0  0  0  0  0  0  0  0
    9.5984  -21.2458   18.0326 C   0  0  0  0  0  0  0  0  0  0  0  0
    9.2873  -22.3241   17.2304 C   0  0  0  0  0  0  0  0  0  0  0  0
    7.9947  -12.5692   21.3889 C   0  0  0  0  0  0  0  0  0  0  0  0
    7.5893  -13.7594   20.5446 C   0  0  1  0  0  0  0  0  0  0  0  0
    7.6438  -13.3342   19.0892 C   0  0  0  0  0  0  0  0  0  0  0  0
    8.5078  -14.8870   20.8237 C   0  0  2  0  0  0  0  0  0  0  0  0
    8.2276  -15.9908   19.9351 N   0  0  0  0  0  0  0  0  0  0  0  0
    8.5691  -15.3239   22.2439 C   0  0  0  0  0  0  0  0  0  0  0  0
    7.7728  -16.1772   22.7413 O   0  0  0  0  0  0  0  0  0  0  0  0
    9.5577  -14.7783   23.0970 N   0  0  0  0  0  0  0  0  0  0  0  0
    9.7032  -15.2405   24.4916 C   0  0  1  0  0  0  0  0  0  0  0  0
    8.4333  -16.0376   24.7337 C   0  0  0  0  0  0  0  0  0  0  0  0
    7.3626  -15.3537   25.4325 C   0  0  0  0  0  0  0  0  0  0  0  0
    6.1002  -15.7956   25.7835 C   0  0  0  0  0  0  0  0  0  0  0  0
    5.4937  -14.7861   26.3850 N   0  0  0  0  0  0  0  0  0  0  0  0
    6.2888  -13.6764   26.4590 C   0  0  0  0  0  0  0  0  0  0  0  0
    6.1028  -12.4253   26.9968 C   0  0  0  0  0  0  0  0  0  0  0  0
    7.1027  -11.4880   26.9455 C   0  0  0  0  0  0  0  0  0  0  0  0
    8.2925  -11.8236   26.3469 C   0  0  0  0  0  0  0  0  0  0  0  0
    8.4729  -13.0778   25.8095 C   0  0  0  0  0  0  0  0  0  0  0  0
    7.4748  -14.0258   25.8566 C   0  0  0  0  0  0  0  0  0  0  0  0
   10.9514  -15.9134   24.7484 C   0  0  0  0  0  0  0  0  0  0  0  0
   11.6211  -15.5894   25.8039 O   0  0  0  0  0  0  0  0  0  0  0  0
   11.5137  -16.8876   23.9689 O   0  0  0  0  0  0  0  0  0  0  0  0
  2  1  1  0
  3  2  2  0
  4  3  1  0
  5 11  1  0
  5  4  2  0
  6  5  1  0
  7  6  1  0
  7  8  1  6
  9  7  1  0
  9 10  2  0
 11 12  2  0
 12  2  1  0
 14 13  1  1
 14 15  1  0
 16 14  1  0
 16 17  1  6
 17  9  1  0
 18 16  1  0
 19 18  2  0
 20 18  1  0
 21 20  1  0
 21 22  1  6
 22 23  1  0
 23 31  1  0
 24 23  2  0
 24 25  1  0
 25 26  1  0
 26 27  1  0
 27 28  2  0
 29 28  1  0
 30 29  2  0
 31 26  2  0
 31 30  1  0
 32 34  1  0
 32 21  1  0
 33 32  2  0
M  END
$$$$
