YVW.pdb
     RDKit          3D

 34 36  0  0  1  0  0  0  0  0999 V2000
    7.1771  -24.5711   20.0923 O   0  0  0  0  0  0  0  0  0  0  0  0
    7.6269  -23.2811   20.3208 C   0  0  0  0  0  0  0  0  0  0  0  0
    8.9509  -22.9963   19.9915 C   0  0  0  0  0  0  0  0  0  0  0  0
    9.4147  -21.7083   20.2122 C   0  0  0  0  0  0  0  0  0  0  0  0
    8.5617  -20.7590   20.7446 C   0  0  0  0  0  0  0  0  0  0  0  0
    9.0340  -19.3640   20.9713 C   0  0  0  0  0  0  0  0  0  0  0  0
    8.5717  -18.4487   19.8683 C   0  0  2  0  0  0  0  0  0  0  0  0
    8.9565  -18.8587   18.5440 N   0  0  0  0  0  0  0  0  0  0  0  0
    8.9268  -17.0450   20.0698 C   0  0  0  0  0  0  0  0  0  0  0  0
   10.0044  -16.5719   19.5567 O   0  0  0  0  0  0  0  0  0  0  0  0
    7.2542  -21.0363   21.0715 C   0  0  0  0  0  0  0  0  0  0  0  0
    6.7849  -22.3156   20.8560 C   0  0  0  0  0  0  0  0  0  0  0  0
    7.8134  -12.4127   20.7498 C   0  0  0  0  0  0  0  0  0  0  0  0
    7.5072  -13.8487   20.3788 C   0  0  1  0  0  0  0  0  0  0  0  0
    7.5206  -13.9484   18.8649 C   0  0  0  0  0  0  0  0  0  0  0  0
    8.5187  -14.7357   20.9980 C   0  0  2  0  0  0  0  0  0  0  0  0
    8.1452  -16.1196   20.8200 N   0  0  0  0  0  0  0  0  0  0  0  0
    8.8520  -14.4320   22.4152 C   0  0  0  0  0  0  0  0  0  0  0  0
    8.1818  -13.6230   23.1265 O   0  0  0  0  0  0  0  0  0  0  0  0
    9.9621  -15.0682   23.0199 N   0  0  0  0  0  0  0  0  0  0  0  0
    9.9268  -15.4829   24.4364 C   0  0  1  0  0  0  0  0  0  0  0  0
    8.5906  -16.1936   24.5631 C   0  0  0  0  0  0  0  0  0  0  0  0
    7.5227  -15.4549   25.2083 C   0  0  0  0  0  0  0  0  0  0  0  0
    6.2055  -15.8073   25.4383 C   0  0  0  0  0  0  0  0  0  0  0  0
    5.6319  -14.7781   26.0385 N   0  0  0  0  0  0  0  0  0  0  0  0
    6.5019  -13.7405   26.2275 C   0  0  0  0  0  0  0  0  0  0  0  0
    6.3701  -12.5020   26.8087 C   0  0  0  0  0  0  0  0  0  0  0  0
    7.4403  -11.6473   26.8806 C   0  0  0  0  0  0  0  0  0  0  0  0
    8.6454  -12.0530   26.3610 C   0  0  0  0  0  0  0  0  0  0  0  0
    8.7714  -13.2942   25.7797 C   0  0  0  0  0  0  0  0  0  0  0  0
    7.7024  -14.1594   25.7032 C   0  0  0  0  0  0  0  0  0  0  0  0
   11.0951  -16.2176   24.8511 C   0  0  0  0  0  0  0  0  0  0  0  0
   11.6414  -17.0326   24.0116 O   0  0  0  0  0  0  0  0  0  0  0  0
   11.7021  -16.1365   26.0749 O   0  0  0  0  0  0  0  0  0  0  0  0
  2  1  1  0
  3  2  2  0
  4  3  1  0
  5 11  1  0
  5  4  2  0
  6  5  1  0
  7  6  1  0
  7  8  1  6
  9  7  1  0
  9 10  2  0
 11 12  2  0
 12  2  1  0
 14 13  1  6
 14 15  1  0
 16 14  1  0
 16 17  1  1
 17  9  1  0
 18 16  1  0
 19 18  2  0
 20 18  1  0
 21 20  1  0
 21 22  1  6
 22 23  1  0
 23 31  1  0
 24 23  2  0
 24 25  1  0
 25 26  1  0
 26 27  1  0
 27 28  2  0
 29 28  1  0
 30 29  2  0
 31 26  2  0
 31 30  1  0
 32 34  1  0
 32 21  1  0
 33 32  2  0
M  END
$$$$
