YVW.pdb
     RDKit          3D

 34 36  0  0  1  0  0  0  0  0999 V2000
    3.4382  -23.2081   24.8491 O   0  0  0  0  0  0  0  0  0  0  0  0
    4.3654  -22.2545   24.4624 C   0  0  0  0  0  0  0  0  0  0  0  0
    3.8749  -21.0435   23.9774 C   0  0  0  0  0  0  0  0  0  0  0  0
    4.7912  -20.0780   23.5887 C   0  0  0  0  0  0  0  0  0  0  0  0
    6.1446  -20.3422   23.6931 C   0  0  0  0  0  0  0  0  0  0  0  0
    7.1461  -19.3113   23.2997 C   0  0  0  0  0  0  0  0  0  0  0  0
    7.0081  -18.9482   21.8447 C   0  0  2  0  0  0  0  0  0  0  0  0
    7.0869  -20.0607   20.9358 N   0  0  0  0  0  0  0  0  0  0  0  0
    7.9162  -17.8903   21.4050 C   0  0  0  0  0  0  0  0  0  0  0  0
    9.0282  -18.1893   20.8372 O   0  0  0  0  0  0  0  0  0  0  0  0
    6.6328  -21.5366   24.1710 C   0  0  0  0  0  0  0  0  0  0  0  0
    5.7279  -22.5030   24.5588 C   0  0  0  0  0  0  0  0  0  0  0  0
    6.8152  -14.6283   19.8206 C   0  0  0  0  0  0  0  0  0  0  0  0
    7.9313  -14.2478   20.7709 C   0  0  1  0  0  0  0  0  0  0  0  0
    7.3128  -13.4914   21.9317 C   0  0  0  0  0  0  0  0  0  0  0  0
    8.6244  -15.4767   21.2212 C   0  0  2  0  0  0  0  0  0  0  0  0
    7.6606  -16.4974   21.5614 N   0  0  0  0  0  0  0  0  0  0  0  0
    9.6283  -15.2839   22.3014 C   0  0  0  0  0  0  0  0  0  0  0  0
   10.6678  -14.5701   22.1617 O   0  0  0  0  0  0  0  0  0  0  0  0
    9.4317  -15.9132   23.5535 N   0  0  0  0  0  0  0  0  0  0  0  0
   10.3721  -15.7005   24.6717 C   0  0  1  0  0  0  0  0  0  0  0  0
    9.6922  -14.6286   25.5057 C   0  0  0  0  0  0  0  0  0  0  0  0
    8.2787  -14.8135   25.7705 C   0  0  0  0  0  0  0  0  0  0  0  0
    7.4974  -15.9518   25.6939 C   0  0  0  0  0  0  0  0  0  0  0  0
    6.2644  -15.5930   26.0096 N   0  0  0  0  0  0  0  0  0  0  0  0
    6.1728  -14.2598   26.2982 C   0  0  0  0  0  0  0  0  0  0  0  0
    5.1279  -13.4551   26.6852 C   0  0  0  0  0  0  0  0  0  0  0  0
    5.3290  -12.1212   26.9329 C   0  0  0  0  0  0  0  0  0  0  0  0
    6.5938  -11.6057   26.7868 C   0  0  0  0  0  0  0  0  0  0  0  0
    7.6362  -12.4162   26.3985 C   0  0  0  0  0  0  0  0  0  0  0  0
    7.4440  -13.7569   26.1479 C   0  0  0  0  0  0  0  0  0  0  0  0
   10.7426  -16.9155   25.3522 C   0  0  0  0  0  0  0  0  0  0  0  0
   11.6796  -16.8645   26.2392 O   0  0  0  0  0  0  0  0  0  0  0  0
   10.1873  -18.1499   25.1508 O   0  0  0  0  0  0  0  0  0  0  0  0
  2  1  1  0
  3  2  2  0
  4  3  1  0
  5 11  1  0
  5  4  2  0
  6  5  1  0
  7  6  1  0
  7  8  1  6
  9  7  1  0
  9 10  2  0
 11 12  2  0
 12  2  1  0
 14 13  1  6
 14 15  1  0
 16 14  1  0
 16 17  1  1
 17  9  1  0
 18 16  1  0
 19 18  2  0
 20 18  1  0
 21 20  1  0
 21 22  1  1
 22 23  1  0
 23 31  1  0
 24 23  2  0
 24 25  1  0
 25 26  1  0
 26 27  1  0
 27 28  2  0
 29 28  1  0
 30 29  2  0
 31 26  2  0
 31 30  1  0
 32 34  1  0
 32 21  1  0
 33 32  2  0
M  END
$$$$
