YVW.pdb
     RDKit          3D

 34 36  0  0  1  0  0  0  0  0999 V2000
   11.3145  -22.8683   15.1062 O   0  0  0  0  0  0  0  0  0  0  0  0
   11.3405  -21.8567   16.0520 C   0  0  0  0  0  0  0  0  0  0  0  0
   10.1744  -21.6312   16.7814 C   0  0  0  0  0  0  0  0  0  0  0  0
   10.1861  -20.6233   17.7337 C   0  0  0  0  0  0  0  0  0  0  0  0
   11.3379  -19.8834   17.9283 C   0  0  0  0  0  0  0  0  0  0  0  0
   11.3781  -18.8091   18.9602 C   0  0  0  0  0  0  0  0  0  0  0  0
   10.5889  -17.6043   18.5201 C   0  0  2  0  0  0  0  0  0  0  0  0
   11.0965  -16.9477   17.3450 N   0  0  0  0  0  0  0  0  0  0  0  0
   10.3673  -16.6180   19.5761 C   0  0  0  0  0  0  0  0  0  0  0  0
   11.3578  -15.9654   20.0676 O   0  0  0  0  0  0  0  0  0  0  0  0
   12.4909  -20.1026   17.2100 C   0  0  0  0  0  0  0  0  0  0  0  0
   12.4876  -21.1027   16.2598 C   0  0  0  0  0  0  0  0  0  0  0  0
    7.4711  -13.8863   22.4534 C   0  0  0  0  0  0  0  0  0  0  0  0
    7.5988  -14.8035   21.2550 C   0  0  1  0  0  0  0  0  0  0  0  0
    7.4299  -13.9591   20.0059 C   0  0  0  0  0  0  0  0  0  0  0  0
    8.9204  -15.4708   21.2940 C   0  0  2  0  0  0  0  0  0  0  0  0
    9.0915  -16.3080   20.1295 N   0  0  0  0  0  0  0  0  0  0  0  0
    9.2284  -16.2039   22.5508 C   0  0  0  0  0  0  0  0  0  0  0  0
    9.0953  -17.4599   22.6705 O   0  0  0  0  0  0  0  0  0  0  0  0
    9.6982  -15.4867   23.6766 N   0  0  0  0  0  0  0  0  0  0  0  0
    9.9793  -16.1699   24.9549 C   0  0  1  0  0  0  0  0  0  0  0  0
    9.7095  -15.0970   25.9954 C   0  0  0  0  0  0  0  0  0  0  0  0
    8.3216  -14.7353   26.2080 C   0  0  0  0  0  0  0  0  0  0  0  0
    7.1800  -15.5147   26.1710 C   0  0  0  0  0  0  0  0  0  0  0  0
    6.1578  -14.7096   26.4068 N   0  0  0  0  0  0  0  0  0  0  0  0
    6.5543  -13.4160   26.6031 C   0  0  0  0  0  0  0  0  0  0  0  0
    5.8687  -12.2597   26.8893 C   0  0  0  0  0  0  0  0  0  0  0  0
    6.5385  -11.0748   27.0579 C   0  0  0  0  0  0  0  0  0  0  0  0
    7.9067  -11.0664   26.9354 C   0  0  0  0  0  0  0  0  0  0  0  0
    8.5879  -12.2274   26.6482 C   0  0  0  0  0  0  0  0  0  0  0  0
    7.9238  -13.4220   26.4776 C   0  0  0  0  0  0  0  0  0  0  0  0
    9.2734  -17.4167   25.1094 C   0  0  0  0  0  0  0  0  0  0  0  0
    8.1178  -17.5451   24.5477 O   0  0  0  0  0  0  0  0  0  0  0  0
    9.7146  -18.5081   25.8073 O   0  0  0  0  0  0  0  0  0  0  0  0
  2  1  1  0
  3  2  2  0
  4  3  1  0
  5 11  1  0
  5  4  2  0
  6  5  1  0
  7  6  1  0
  7  8  1  6
  9  7  1  0
  9 10  2  0
 11 12  2  0
 12  2  1  0
 14 13  1  1
 14 15  1  0
 16 14  1  0
 16 17  1  6
 17  9  1  0
 18 16  1  0
 19 18  2  0
 20 18  1  0
 21 20  1  0
 21 22  1  1
 22 23  1  0
 23 31  1  0
 24 23  2  0
 24 25  1  0
 25 26  1  0
 26 27  1  0
 27 28  2  0
 29 28  1  0
 30 29  2  0
 31 26  2  0
 31 30  1  0
 32 34  1  0
 32 21  1  0
 33 32  2  0
M  END
$$$$
