YVW.pdb
     RDKit          3D

 34 36  0  0  1  0  0  0  0  0999 V2000
   17.0232  -13.9572   17.7726 O   0  0  0  0  0  0  0  0  0  0  0  0
   15.8371  -14.1291   18.4669 C   0  0  0  0  0  0  0  0  0  0  0  0
   15.7449  -15.2310   19.3152 C   0  0  0  0  0  0  0  0  0  0  0  0
   14.5643  -15.4148   20.0189 C   0  0  0  0  0  0  0  0  0  0  0  0
   13.5291  -14.5118   19.8601 C   0  0  0  0  0  0  0  0  0  0  0  0
   12.2593  -14.6795   20.6217 C   0  0  0  0  0  0  0  0  0  0  0  0
   11.4118  -15.7743   20.0291 C   0  0  2  0  0  0  0  0  0  0  0  0
   10.7098  -15.4093   18.8274 N   0  0  0  0  0  0  0  0  0  0  0  0
   10.4799  -16.3856   20.9751 C   0  0  0  0  0  0  0  0  0  0  0  0
    9.2620  -15.9834   21.0324 O   0  0  0  0  0  0  0  0  0  0  0  0
   13.6160  -13.4230   19.0232 C   0  0  0  0  0  0  0  0  0  0  0  0
   14.7867  -13.2333   18.3186 C   0  0  0  0  0  0  0  0  0  0  0  0
    8.8127  -19.8185   23.9149 C   0  0  0  0  0  0  0  0  0  0  0  0
    9.8012  -19.3689   22.8593 C   0  0  1  0  0  0  0  0  0  0  0  0
    9.2798  -19.8295   21.5110 C   0  0  0  0  0  0  0  0  0  0  0  0
    9.9406  -17.8958   22.9217 C   0  0  2  0  0  0  0  0  0  0  0  0
   10.8245  -17.4332   21.8772 N   0  0  0  0  0  0  0  0  0  0  0  0
   10.3213  -17.3464   24.2502 C   0  0  0  0  0  0  0  0  0  0  0  0
   11.5140  -17.0430   24.5585 O   0  0  0  0  0  0  0  0  0  0  0  0
    9.3209  -17.1398   25.2296 N   0  0  0  0  0  0  0  0  0  0  0  0
    9.6647  -16.6644   26.5845 C   0  0  1  0  0  0  0  0  0  0  0  0
    8.3235  -16.2496   27.1640 C   0  0  0  0  0  0  0  0  0  0  0  0
    7.5162  -15.3577   26.3547 C   0  0  0  0  0  0  0  0  0  0  0  0
    6.4122  -15.6219   25.5650 C   0  0  0  0  0  0  0  0  0  0  0  0
    6.0530  -14.4759   25.0115 N   0  0  0  0  0  0  0  0  0  0  0  0
    6.8645  -13.4430   25.3906 C   0  0  0  0  0  0  0  0  0  0  0  0
    6.8716  -12.1007   25.0953 C   0  0  0  0  0  0  0  0  0  0  0  0
    7.8143  -11.2701   25.6451 C   0  0  0  0  0  0  0  0  0  0  0  0
    8.7504  -11.8054   26.4960 C   0  0  0  0  0  0  0  0  0  0  0  0
    8.7388  -13.1505   26.7877 C   0  0  0  0  0  0  0  0  0  0  0  0
    7.7958  -13.9922   26.2407 C   0  0  0  0  0  0  0  0  0  0  0  0
   10.4378  -17.6106   27.3484 C   0  0  0  0  0  0  0  0  0  0  0  0
   10.4234  -18.8511   26.9900 O   0  0  0  0  0  0  0  0  0  0  0  0
   11.2073  -17.3215   28.4425 O   0  0  0  0  0  0  0  0  0  0  0  0
  2  1  1  0
  3  2  2  0
  4  3  1  0
  5 11  1  0
  5  4  2  0
  6  5  1  0
  7  6  1  0
  7  8  1  6
  9  7  1  0
  9 10  2  0
 11 12  2  0
 12  2  1  0
 14 13  1  1
 14 15  1  0
 16 14  1  0
 16 17  1  6
 17  9  1  0
 18 16  1  0
 19 18  2  0
 20 18  1  0
 21 20  1  0
 21 22  1  1
 22 23  1  0
 23 31  1  0
 24 23  2  0
 24 25  1  0
 25 26  1  0
 26 27  1  0
 27 28  2  0
 29 28  1  0
 30 29  2  0
 31 26  2  0
 31 30  1  0
 32 34  1  0
 32 21  1  0
 33 32  2  0
M  END
$$$$
