YVW.pdb
     RDKit          3D

 34 36  0  0  1  0  0  0  0  0999 V2000
   14.6593  -19.3397   13.8184 O   0  0  0  0  0  0  0  0  0  0  0  0
   14.1914  -18.7787   14.9952 C   0  0  0  0  0  0  0  0  0  0  0  0
   12.8227  -18.5325   15.0880 C   0  0  0  0  0  0  0  0  0  0  0  0
   12.3392  -17.9734   16.2612 C   0  0  0  0  0  0  0  0  0  0  0  0
   13.2171  -17.6815   17.2890 C   0  0  0  0  0  0  0  0  0  0  0  0
   12.7159  -17.0988   18.5656 C   0  0  0  0  0  0  0  0  0  0  0  0
   12.2763  -15.6711   18.3746 C   0  0  2  0  0  0  0  0  0  0  0  0
   13.3275  -14.7613   18.0045 N   0  0  0  0  0  0  0  0  0  0  0  0
   11.5267  -15.1217   19.5030 C   0  0  0  0  0  0  0  0  0  0  0  0
   12.1482  -14.5937   20.4947 O   0  0  0  0  0  0  0  0  0  0  0  0
   14.5690  -17.9226   17.2011 C   0  0  0  0  0  0  0  0  0  0  0  0
   15.0585  -18.4777   16.0369 C   0  0  0  0  0  0  0  0  0  0  0  0
    7.3210  -13.6751   21.6084 C   0  0  0  0  0  0  0  0  0  0  0  0
    8.0766  -14.0963   20.3654 C   0  0  1  0  0  0  0  0  0  0  0  0
    8.2194  -12.8761   19.4750 C   0  0  0  0  0  0  0  0  0  0  0  0
    9.3935  -14.6460   20.7616 C   0  0  2  0  0  0  0  0  0  0  0  0
   10.1052  -15.1241   19.5991 N   0  0  0  0  0  0  0  0  0  0  0  0
    9.3604  -15.6638   21.8455 C   0  0  0  0  0  0  0  0  0  0  0  0
    9.3747  -16.9128   21.6237 O   0  0  0  0  0  0  0  0  0  0  0  0
    9.3156  -15.2406   23.1951 N   0  0  0  0  0  0  0  0  0  0  0  0
    9.3046  -16.2175   24.3022 C   0  0  1  0  0  0  0  0  0  0  0  0
    9.1887  -15.3462   25.5407 C   0  0  0  0  0  0  0  0  0  0  0  0
    7.8786  -14.7929   25.8231 C   0  0  0  0  0  0  0  0  0  0  0  0
    6.6272  -15.3760   25.7446 C   0  0  0  0  0  0  0  0  0  0  0  0
    5.7488  -14.4466   26.0813 N   0  0  0  0  0  0  0  0  0  0  0  0
    6.3483  -13.2563   26.3861 C   0  0  0  0  0  0  0  0  0  0  0  0
    5.8587  -12.0394   26.7966 C   0  0  0  0  0  0  0  0  0  0  0  0
    6.7103  -10.9962   27.0564 C   0  0  0  0  0  0  0  0  0  0  0  0
    8.0609  -11.1912   26.8986 C   0  0  0  0  0  0  0  0  0  0  0  0
    8.5454  -12.4119   26.4867 C   0  0  0  0  0  0  0  0  0  0  0  0
    7.6978  -13.4654   26.2239 C   0  0  0  0  0  0  0  0  0  0  0  0
    8.3186  -17.2565   24.1442 C   0  0  0  0  0  0  0  0  0  0  0  0
    7.2608  -17.0024   23.4485 O   0  0  0  0  0  0  0  0  0  0  0  0
    8.3910  -18.5186   24.6682 O   0  0  0  0  0  0  0  0  0  0  0  0
  2  1  1  0
  3  2  2  0
  4  3  1  0
  5 11  1  0
  5  4  2  0
  6  5  1  0
  7  6  1  0
  7  8  1  1
  9  7  1  0
  9 10  2  0
 11 12  2  0
 12  2  1  0
 14 13  1  1
 14 15  1  0
 16 14  1  0
 16 17  1  6
 17  9  1  0
 18 16  1  0
 19 18  2  0
 20 18  1  0
 21 20  1  0
 21 22  1  1
 22 23  1  0
 23 31  1  0
 24 23  2  0
 24 25  1  0
 25 26  1  0
 26 27  1  0
 27 28  2  0
 29 28  1  0
 30 29  2  0
 31 26  2  0
 31 30  1  0
 32 34  1  0
 32 21  1  0
 33 32  2  0
M  END
$$$$
