YVW.pdb
     RDKit          3D

 34 36  0  0  1  0  0  0  0  0999 V2000
   13.3881  -22.4840   16.5323 O   0  0  0  0  0  0  0  0  0  0  0  0
   12.9992  -21.4832   17.4072 C   0  0  0  0  0  0  0  0  0  0  0  0
   13.7221  -20.2919   17.3804 C   0  0  0  0  0  0  0  0  0  0  0  0
   13.3427  -19.2797   18.2489 C   0  0  0  0  0  0  0  0  0  0  0  0
   12.2737  -19.4800   19.1029 C   0  0  0  0  0  0  0  0  0  0  0  0
   11.8370  -18.3984   20.0302 C   0  0  0  0  0  0  0  0  0  0  0  0
   11.0281  -17.3556   19.3048 C   0  0  2  0  0  0  0  0  0  0  0  0
   11.6134  -16.8847   18.0778 N   0  0  0  0  0  0  0  0  0  0  0  0
   10.6438  -16.2149   20.1345 C   0  0  0  0  0  0  0  0  0  0  0  0
   11.4283  -15.2047   20.2458 O   0  0  0  0  0  0  0  0  0  0  0  0
   11.5578  -20.6547   19.1328 C   0  0  0  0  0  0  0  0  0  0  0  0
   11.9293  -21.6673   18.2727 C   0  0  0  0  0  0  0  0  0  0  0  0
    7.2392  -13.5029   22.3555 C   0  0  0  0  0  0  0  0  0  0  0  0
    7.5857  -14.7820   21.6223 C   0  0  1  0  0  0  0  0  0  0  0  0
    7.0574  -14.6607   20.2052 C   0  0  0  0  0  0  0  0  0  0  0  0
    9.0541  -14.9730   21.6482 C   0  0  2  0  0  0  0  0  0  0  0  0
    9.4214  -16.1271   20.8611 N   0  0  0  0  0  0  0  0  0  0  0  0
    9.6693  -15.0097   23.0017 C   0  0  0  0  0  0  0  0  0  0  0  0
   10.5139  -14.1520   23.4023 O   0  0  0  0  0  0  0  0  0  0  0  0
    9.3057  -16.0385   23.9027 N   0  0  0  0  0  0  0  0  0  0  0  0
    9.9338  -16.1450   25.2347 C   0  0  1  0  0  0  0  0  0  0  0  0
    8.7659  -16.4654   26.1512 C   0  0  0  0  0  0  0  0  0  0  0  0
    7.6330  -15.5621   26.0967 C   0  0  0  0  0  0  0  0  0  0  0  0
    6.3102  -15.8072   25.7769 C   0  0  0  0  0  0  0  0  0  0  0  0
    5.6770  -14.6484   25.8481 N   0  0  0  0  0  0  0  0  0  0  0  0
    6.5116  -13.6253   26.2030 C   0  0  0  0  0  0  0  0  0  0  0  0
    6.3093  -12.2825   26.4148 C   0  0  0  0  0  0  0  0  0  0  0  0
    7.3487  -11.4711   26.7919 C   0  0  0  0  0  0  0  0  0  0  0  0
    8.5947  -12.0262   26.9537 C   0  0  0  0  0  0  0  0  0  0  0  0
    8.7915  -13.3715   26.7397 C   0  0  0  0  0  0  0  0  0  0  0  0
    7.7537  -14.1942   26.3612 C   0  0  0  0  0  0  0  0  0  0  0  0
   11.0559  -17.0484   25.2722 C   0  0  0  0  0  0  0  0  0  0  0  0
   11.2713  -17.8071   24.2498 O   0  0  0  0  0  0  0  0  0  0  0  0
   11.9409  -17.1871   26.3067 O   0  0  0  0  0  0  0  0  0  0  0  0
  2  1  1  0
  3  2  2  0
  4  3  1  0
  5 11  1  0
  5  4  2  0
  6  5  1  0
  7  6  1  0
  7  8  1  6
  9  7  1  0
  9 10  2  0
 11 12  2  0
 12  2  1  0
 14 13  1  1
 14 15  1  0
 16 14  1  0
 16 17  1  1
 17  9  1  0
 18 16  1  0
 19 18  2  0
 20 18  1  0
 21 20  1  0
 21 22  1  1
 22 23  1  0
 23 31  1  0
 24 23  2  0
 24 25  1  0
 25 26  1  0
 26 27  1  0
 27 28  2  0
 29 28  1  0
 30 29  2  0
 31 26  2  0
 31 30  1  0
 32 34  1  0
 32 21  1  0
 33 32  2  0
M  END
$$$$
