YVW.pdb
     RDKit          3D

 34 36  0  0  1  0  0  0  0  0999 V2000
   12.7202  -20.4774   12.8948 O   0  0  0  0  0  0  0  0  0  0  0  0
   12.5576  -19.6995   14.0293 C   0  0  0  0  0  0  0  0  0  0  0  0
   13.3194  -18.5362   14.1232 C   0  0  0  0  0  0  0  0  0  0  0  0
   13.1655  -17.7458   15.2522 C   0  0  0  0  0  0  0  0  0  0  0  0
   12.2734  -18.1302   16.2363 C   0  0  0  0  0  0  0  0  0  0  0  0
   12.0782  -17.2854   17.4482 C   0  0  0  0  0  0  0  0  0  0  0  0
   10.9382  -16.3198   17.2585 C   0  0  2  0  0  0  0  0  0  0  0  0
   11.0573  -15.4655   16.1070 N   0  0  0  0  0  0  0  0  0  0  0  0
   10.6375  -15.5122   18.4394 C   0  0  0  0  0  0  0  0  0  0  0  0
   11.5285  -14.7277   18.9285 O   0  0  0  0  0  0  0  0  0  0  0  0
   11.5199  -19.2782   16.1476 C   0  0  0  0  0  0  0  0  0  0  0  0
   11.6677  -20.0708   15.0282 C   0  0  0  0  0  0  0  0  0  0  0  0
    7.5083  -13.4083   21.5487 C   0  0  0  0  0  0  0  0  0  0  0  0
    7.7539  -14.2047   20.2842 C   0  0  1  0  0  0  0  0  0  0  0  0
    7.5361  -13.2770   19.1035 C   0  0  0  0  0  0  0  0  0  0  0  0
    9.1321  -14.7461   20.3122 C   0  0  2  0  0  0  0  0  0  0  0  0
    9.3871  -15.5242   19.1223 N   0  0  0  0  0  0  0  0  0  0  0  0
    9.5011  -15.4888   21.5467 C   0  0  0  0  0  0  0  0  0  0  0  0
    9.2758  -16.7274   21.7035 O   0  0  0  0  0  0  0  0  0  0  0  0
   10.1388  -14.8017   22.6068 N   0  0  0  0  0  0  0  0  0  0  0  0
   10.3242  -15.4367   23.9268 C   0  0  1  0  0  0  0  0  0  0  0  0
    9.1648  -14.8954   24.7449 C   0  0  0  0  0  0  0  0  0  0  0  0
    9.0286  -15.4088   26.0941 C   0  0  0  0  0  0  0  0  0  0  0  0
    8.3375  -16.5101   26.5648 C   0  0  0  0  0  0  0  0  0  0  0  0
    8.5036  -16.5356   27.8765 N   0  0  0  0  0  0  0  0  0  0  0  0
    9.2783  -15.4995   28.3188 C   0  0  0  0  0  0  0  0  0  0  0  0
    9.7270  -15.1313   29.5646 C   0  0  0  0  0  0  0  0  0  0  0  0
   10.5271  -14.0282   29.7203 C   0  0  0  0  0  0  0  0  0  0  0  0
   10.8709  -13.2995   28.6078 C   0  0  0  0  0  0  0  0  0  0  0  0
   10.4180  -13.6727   27.3628 C   0  0  0  0  0  0  0  0  0  0  0  0
    9.6146  -14.7790   27.1967 C   0  0  0  0  0  0  0  0  0  0  0  0
   10.4609  -16.8698   23.8628 C   0  0  0  0  0  0  0  0  0  0  0  0
    9.4989  -17.5587   23.3457 O   0  0  0  0  0  0  0  0  0  0  0  0
   11.5347  -17.5945   24.3038 O   0  0  0  0  0  0  0  0  0  0  0  0
  2  1  1  0
  3  2  2  0
  4  3  1  0
  5 11  1  0
  5  4  2  0
  6  5  1  0
  7  6  1  0
  7  8  1  6
  9  7  1  0
  9 10  2  0
 11 12  2  0
 12  2  1  0
 14 13  1  1
 14 15  1  0
 16 14  1  0
 16 17  1  6
 17  9  1  0
 18 16  1  0
 19 18  2  0
 20 18  1  0
 21 20  1  0
 21 22  1  1
 22 23  1  0
 23 31  1  0
 24 23  2  0
 24 25  1  0
 25 26  1  0
 26 27  1  0
 27 28  2  0
 29 28  1  0
 30 29  2  0
 31 26  2  0
 31 30  1  0
 32 34  1  0
 32 21  1  0
 33 32  2  0
M  END
$$$$
