YVW.pdb
     RDKit          3D

 34 36  0  0  1  0  0  0  0  0999 V2000
   10.4715  -24.0166   17.0617 O   0  0  0  0  0  0  0  0  0  0  0  0
   10.4267  -22.8685   17.8352 C   0  0  0  0  0  0  0  0  0  0  0  0
    9.2976  -22.0600   17.7174 C   0  0  0  0  0  0  0  0  0  0  0  0
    9.2374  -20.9084   18.4875 C   0  0  0  0  0  0  0  0  0  0  0  0
   10.2844  -20.6017   19.3371 C   0  0  0  0  0  0  0  0  0  0  0  0
   10.2312  -19.3796   20.1881 C   0  0  0  0  0  0  0  0  0  0  0  0
    9.8942  -18.1619   19.3684 C   0  0  2  0  0  0  0  0  0  0  0  0
   10.7129  -17.9766   18.2000 N   0  0  0  0  0  0  0  0  0  0  0  0
    9.8481  -16.9193   20.1372 C   0  0  0  0  0  0  0  0  0  0  0  0
   10.8794  -16.1568   20.1935 O   0  0  0  0  0  0  0  0  0  0  0  0
   11.4011  -21.3969   19.4559 C   0  0  0  0  0  0  0  0  0  0  0  0
   11.4695  -22.5439   18.6925 C   0  0  0  0  0  0  0  0  0  0  0  0
    7.7283  -13.1826   22.3201 C   0  0  0  0  0  0  0  0  0  0  0  0
    7.5786  -14.4462   21.4989 C   0  0  1  0  0  0  0  0  0  0  0  0
    7.4840  -14.0413   20.0398 C   0  0  0  0  0  0  0  0  0  0  0  0
    8.7408  -15.3288   21.7512 C   0  0  2  0  0  0  0  0  0  0  0  0
    8.7074  -16.4652   20.8601 N   0  0  0  0  0  0  0  0  0  0  0  0
    8.9323  -15.7430   23.1666 C   0  0  0  0  0  0  0  0  0  0  0  0
    8.3943  -16.7785   23.6644 O   0  0  0  0  0  0  0  0  0  0  0  0
    9.7535  -14.9622   24.0143 N   0  0  0  0  0  0  0  0  0  0  0  0
   10.2496  -15.4940   25.2992 C   0  0  1  0  0  0  0  0  0  0  0  0
    9.0088  -16.0971   25.9343 C   0  0  0  0  0  0  0  0  0  0  0  0
    7.8348  -15.2483   25.9955 C   0  0  0  0  0  0  0  0  0  0  0  0
    6.5335  -15.4943   25.5977 C   0  0  0  0  0  0  0  0  0  0  0  0
    5.8430  -14.3930   25.8413 N   0  0  0  0  0  0  0  0  0  0  0  0
    6.6180  -13.4084   26.3881 C   0  0  0  0  0  0  0  0  0  0  0  0
    6.3455  -12.1305   26.8144 C   0  0  0  0  0  0  0  0  0  0  0  0
    7.3349  -11.3490   27.3542 C   0  0  0  0  0  0  0  0  0  0  0  0
    8.6023  -11.8680   27.4604 C   0  0  0  0  0  0  0  0  0  0  0  0
    8.8695  -13.1481   27.0312 C   0  0  0  0  0  0  0  0  0  0  0  0
    7.8823  -13.9405   26.4883 C   0  0  0  0  0  0  0  0  0  0  0  0
   11.3944  -16.3583   25.1617 C   0  0  0  0  0  0  0  0  0  0  0  0
   11.7103  -16.7808   23.9831 O   0  0  0  0  0  0  0  0  0  0  0  0
   12.2035  -16.7872   26.1787 O   0  0  0  0  0  0  0  0  0  0  0  0
  2  1  1  0
  3  2  2  0
  4  3  1  0
  5 11  1  0
  5  4  2  0
  6  5  1  0
  7  6  1  0
  7  8  1  6
  9  7  1  0
  9 10  2  0
 11 12  2  0
 12  2  1  0
 14 13  1  1
 14 15  1  0
 16 14  1  0
 16 17  1  6
 17  9  1  0
 18 16  1  0
 19 18  2  0
 20 18  1  0
 21 20  1  0
 21 22  1  6
 22 23  1  0
 23 31  1  0
 24 23  2  0
 24 25  1  0
 25 26  1  0
 26 27  1  0
 27 28  2  0
 29 28  1  0
 30 29  2  0
 31 26  2  0
 31 30  1  0
 32 34  1  0
 32 21  1  0
 33 32  2  0
M  END
$$$$
