YVW.pdb
     RDKit          3D

 34 36  0  0  1  0  0  0  0  0999 V2000
   10.7366  -24.9273   19.3193 O   0  0  0  0  0  0  0  0  0  0  0  0
   10.7102  -23.6058   19.7332 C   0  0  0  0  0  0  0  0  0  0  0  0
    9.5818  -23.1743   20.4282 C   0  0  0  0  0  0  0  0  0  0  0  0
    9.5421  -21.8544   20.8512 C   0  0  0  0  0  0  0  0  0  0  0  0
   10.6083  -21.0182   20.5750 C   0  0  0  0  0  0  0  0  0  0  0  0
   10.5948  -19.6018   21.0377 C   0  0  0  0  0  0  0  0  0  0  0  0
    9.6353  -18.7743   20.2237 C   0  0  2  0  0  0  0  0  0  0  0  0
    9.7859  -18.9045   18.7989 N   0  0  0  0  0  0  0  0  0  0  0  0
    9.6116  -17.3585   20.5872 C   0  0  0  0  0  0  0  0  0  0  0  0
   10.5877  -16.5917   20.2590 O   0  0  0  0  0  0  0  0  0  0  0  0
   11.7239  -21.4402   19.8888 C   0  0  0  0  0  0  0  0  0  0  0  0
   11.7710  -22.7517   19.4634 C   0  0  0  0  0  0  0  0  0  0  0  0
    7.1656  -13.3321   21.9324 C   0  0  0  0  0  0  0  0  0  0  0  0
    7.1756  -14.7739   21.4690 C   0  0  1  0  0  0  0  0  0  0  0  0
    6.7189  -14.7982   20.0224 C   0  0  0  0  0  0  0  0  0  0  0  0
    8.5420  -15.3235   21.6244 C   0  0  2  0  0  0  0  0  0  0  0  0
    8.5526  -16.7324   21.3060 N   0  0  0  0  0  0  0  0  0  0  0  0
    9.1959  -15.0484   22.9315 C   0  0  0  0  0  0  0  0  0  0  0  0
    9.6501  -13.9081   23.2525 O   0  0  0  0  0  0  0  0  0  0  0  0
    9.3234  -16.0923   23.8784 N   0  0  0  0  0  0  0  0  0  0  0  0
   10.0654  -15.8938   25.1393 C   0  0  1  0  0  0  0  0  0  0  0  0
    9.0337  -16.2063   26.2091 C   0  0  0  0  0  0  0  0  0  0  0  0
    7.7840  -15.4745   26.1371 C   0  0  0  0  0  0  0  0  0  0  0  0
    6.5045  -15.9180   25.8572 C   0  0  0  0  0  0  0  0  0  0  0  0
    5.7152  -14.8574   25.8884 N   0  0  0  0  0  0  0  0  0  0  0  0
    6.4022  -13.7113   26.1778 C   0  0  0  0  0  0  0  0  0  0  0  0
    6.0155  -12.4014   26.3317 C   0  0  0  0  0  0  0  0  0  0  0  0
    6.9355  -11.4348   26.6486 C   0  0  0  0  0  0  0  0  0  0  0  0
    8.2495  -11.8012   26.8093 C   0  0  0  0  0  0  0  0  0  0  0  0
    8.6310  -13.1144   26.6535 C   0  0  0  0  0  0  0  0  0  0  0  0
    7.7143  -14.0920   26.3356 C   0  0  0  0  0  0  0  0  0  0  0  0
   11.3056  -16.6253   25.1994 C   0  0  0  0  0  0  0  0  0  0  0  0
   12.0533  -16.4870   26.2430 O   0  0  0  0  0  0  0  0  0  0  0  0
   11.7838  -17.4752   24.2393 O   0  0  0  0  0  0  0  0  0  0  0  0
  2  1  1  0
  3  2  2  0
  4  3  1  0
  5 11  1  0
  5  4  2  0
  6  5  1  0
  7  6  1  0
  7  8  1  6
  9  7  1  0
  9 10  2  0
 11 12  2  0
 12  2  1  0
 14 13  1  6
 14 15  1  0
 16 14  1  0
 16 17  1  1
 17  9  1  0
 18 16  1  0
 19 18  2  0
 20 18  1  0
 21 20  1  0
 21 22  1  1
 22 23  1  0
 23 31  1  0
 24 23  2  0
 24 25  1  0
 25 26  1  0
 26 27  1  0
 27 28  2  0
 29 28  1  0
 30 29  2  0
 31 26  2  0
 31 30  1  0
 32 34  1  0
 32 21  1  0
 33 32  2  0
M  END
$$$$
