YVW.pdb
     RDKit          3D

 34 36  0  0  1  0  0  0  0  0999 V2000
    3.7426  -24.1967   24.3334 O   0  0  0  0  0  0  0  0  0  0  0  0
    4.5578  -23.0975   24.1195 C   0  0  0  0  0  0  0  0  0  0  0  0
    5.9355  -23.3066   24.1449 C   0  0  0  0  0  0  0  0  0  0  0  0
    6.7643  -22.2160   23.9298 C   0  0  0  0  0  0  0  0  0  0  0  0
    6.2067  -20.9717   23.6996 C   0  0  0  0  0  0  0  0  0  0  0  0
    7.0789  -19.7902   23.4464 C   0  0  0  0  0  0  0  0  0  0  0  0
    6.9576  -19.3219   22.0203 C   0  0  2  0  0  0  0  0  0  0  0  0
    7.3001  -20.3086   21.0308 N   0  0  0  0  0  0  0  0  0  0  0  0
    7.6699  -18.0768   21.7385 C   0  0  0  0  0  0  0  0  0  0  0  0
    8.7798  -18.1002   21.0935 O   0  0  0  0  0  0  0  0  0  0  0  0
    4.8472  -20.7609   23.6742 C   0  0  0  0  0  0  0  0  0  0  0  0
    4.0154  -21.8405   23.8883 C   0  0  0  0  0  0  0  0  0  0  0  0
    7.8457  -13.2033   21.3229 C   0  0  0  0  0  0  0  0  0  0  0  0
    7.0408  -14.4655   21.5519 C   0  0  1  0  0  0  0  0  0  0  0  0
    6.2496  -14.7454   20.2879 C   0  0  0  0  0  0  0  0  0  0  0  0
    7.9637  -15.5760   21.8810 C   0  0  2  0  0  0  0  0  0  0  0  0
    7.2176  -16.7860   22.1374 N   0  0  0  0  0  0  0  0  0  0  0  0
    8.9435  -15.2921   22.9633 C   0  0  0  0  0  0  0  0  0  0  0  0
    9.7434  -14.3079   22.9330 O   0  0  0  0  0  0  0  0  0  0  0  0
    8.9994  -16.1447   24.0914 N   0  0  0  0  0  0  0  0  0  0  0  0
    9.8992  -15.8536   25.2252 C   0  0  1  0  0  0  0  0  0  0  0  0
    8.9619  -15.8183   26.4198 C   0  0  0  0  0  0  0  0  0  0  0  0
    7.7399  -15.0541   26.2618 C   0  0  0  0  0  0  0  0  0  0  0  0
    6.4477  -15.4780   26.0114 C   0  0  0  0  0  0  0  0  0  0  0  0
    5.6968  -14.3926   25.9295 N   0  0  0  0  0  0  0  0  0  0  0  0
    6.4219  -13.2484   26.1138 C   0  0  0  0  0  0  0  0  0  0  0  0
    6.0811  -11.9170   26.1344 C   0  0  0  0  0  0  0  0  0  0  0  0
    7.0324  -10.9567   26.3665 C   0  0  0  0  0  0  0  0  0  0  0  0
    8.3311  -11.3511   26.5778 C   0  0  0  0  0  0  0  0  0  0  0  0
    8.6666  -12.6857   26.5554 C   0  0  0  0  0  0  0  0  0  0  0  0
    7.7181  -13.6572   26.3236 C   0  0  0  0  0  0  0  0  0  0  0  0
   11.0266  -16.7472   25.3103 C   0  0  0  0  0  0  0  0  0  0  0  0
   11.0786  -17.7534   24.5027 O   0  0  0  0  0  0  0  0  0  0  0  0
   12.0764  -16.6347   26.1810 O   0  0  0  0  0  0  0  0  0  0  0  0
  2  1  1  0
  3  2  2  0
  4  3  1  0
  5 11  1  0
  5  4  2  0
  6  5  1  0
  7  6  1  0
  7  8  1  6
  9  7  1  0
  9 10  2  0
 11 12  2  0
 12  2  1  0
 14 13  1  6
 14 15  1  0
 16 14  1  0
 16 17  1  1
 17  9  1  0
 18 16  1  0
 19 18  2  0
 20 18  1  0
 21 20  1  0
 21 22  1  1
 22 23  1  0
 23 31  1  0
 24 23  2  0
 24 25  1  0
 25 26  1  0
 26 27  1  0
 27 28  2  0
 29 28  1  0
 30 29  2  0
 31 26  2  0
 31 30  1  0
 32 34  1  0
 32 21  1  0
 33 32  2  0
M  END
$$$$
