CTM.pdb
     RDKit          3D

 22 21  0  0  1  0  0  0  0  0999 V2000
   28.2621  -18.8964  -17.2543 N   0  0  0  0  0  0  0  0  0  0  0  0
   27.9933  -19.8861  -16.2510 C   0  0  1  0  0  0  0  0  0  0  0  0
   29.2946  -20.5863  -15.9173 C   0  0  0  0  0  0  0  0  0  0  0  0
   29.4583  -22.1462  -16.8452 S   0  0  0  0  0  0  0  0  0  0  0  0
   27.4619  -19.3098  -15.0008 C   0  0  0  0  0  0  0  0  0  0  0  0
   27.9069  -18.1789  -14.6548 O   0  0  0  0  0  0  0  0  0  0  0  0
   24.3047  -18.0623  -14.4290 C   0  0  0  0  0  0  0  0  0  0  0  0
   24.4367  -19.0541  -13.3053 C   0  0  1  0  0  0  0  0  0  0  0  0
   23.7740  -20.2247  -13.6689 O   0  0  0  0  0  0  0  0  0  0  0  0
   25.8992  -19.3150  -13.0409 C   0  0  2  0  0  0  0  0  0  0  0  0
   26.4966  -19.9591  -14.1941 N   0  0  0  0  0  0  0  0  0  0  0  0
   26.0152  -20.2243  -11.8644 C   0  0  0  0  0  0  0  0  0  0  0  0
   26.0573  -21.4709  -12.0224 O   0  0  0  0  0  0  0  0  0  0  0  0
   28.9554  -18.7617   -6.4712 C   0  0  0  0  0  0  0  0  0  0  0  0
   27.8904  -20.0070   -5.6822 S   0  0  0  0  0  0  0  0  0  0  0  0
   26.8922  -20.7640   -7.0083 C   0  0  0  0  0  0  0  0  0  0  0  0
   26.8947  -19.9134   -8.2451 C   0  0  0  0  0  0  0  0  0  0  0  0
   26.1589  -20.5550   -9.3478 C   0  0  2  0  0  0  0  0  0  0  0  0
   26.0816  -19.7301  -10.5435 N   0  0  0  0  0  0  0  0  0  0  0  0
   24.8247  -21.0407   -9.0315 C   0  0  0  0  0  0  0  0  0  0  0  0
   23.7888  -20.4889   -9.4613 O   0  0  0  0  0  0  0  0  0  0  0  0
   24.6166  -22.1774   -8.2106 O   0  0  0  0  0  0  0  0  0  0  0  0
  2  1  1  6
  2  5  1  0
  3  2  1  0
  4  3  1  0
  5 11  1  0
  5  6  2  0
  8  7  1  6
  8 10  1  0
  8  9  1  0
 10 12  1  0
 10 11  1  6
 12 13  2  0
 14 15  1  0
 15 16  1  0
 18 17  1  1
 17 16  1  0
 18 20  1  0
 19 12  1  0
 19 18  1  0
 20 22  1  0
 21 20  2  0
M  END
$$$$
