CTM.pdb
     RDKit          3D

 22 21  0  0  1  0  0  0  0  0999 V2000
   17.1627  -11.5967  -12.5708 N   0  0  0  0  0  0  0  0  0  0  0  0
   16.3231  -10.4394  -12.6894 C   0  0  1  0  0  0  0  0  0  0  0  0
   14.8993  -10.8550  -12.3810 C   0  0  0  0  0  0  0  0  0  0  0  0
   14.1620  -11.7626  -13.7788 S   0  0  0  0  0  0  0  0  0  0  0  0
   16.6890   -9.3630  -11.7486 C   0  0  0  0  0  0  0  0  0  0  0  0
   17.0783   -9.7130  -10.5986 O   0  0  0  0  0  0  0  0  0  0  0  0
   19.2537   -6.7283  -12.3701 C   0  0  0  0  0  0  0  0  0  0  0  0
   18.0043   -6.0066  -11.9434 C   0  0  1  0  0  0  0  0  0  0  0  0
   17.3643   -5.5204  -13.0816 O   0  0  0  0  0  0  0  0  0  0  0  0
   17.1148   -6.9587  -11.1823 C   0  0  2  0  0  0  0  0  0  0  0  0
   16.6222   -7.9876  -12.0769 N   0  0  0  0  0  0  0  0  0  0  0  0
   15.9552   -6.1945  -10.6383 C   0  0  0  0  0  0  0  0  0  0  0  0
   14.8365   -6.2382  -11.2102 O   0  0  0  0  0  0  0  0  0  0  0  0
   12.0540   -3.3898   -4.5446 C   0  0  0  0  0  0  0  0  0  0  0  0
   13.3020   -4.5604   -5.1608 S   0  0  0  0  0  0  0  0  0  0  0  0
   13.6264   -4.1184   -6.9007 C   0  0  0  0  0  0  0  0  0  0  0  0
   14.6727   -5.0101   -7.5033 C   0  0  0  0  0  0  0  0  0  0  0  0
   14.9815   -4.6254   -8.8909 C   0  0  2  0  0  0  0  0  0  0  0  0
   16.0642   -5.4017   -9.4750 N   0  0  0  0  0  0  0  0  0  0  0  0
   15.2455   -3.2135   -9.1214 C   0  0  0  0  0  0  0  0  0  0  0  0
   14.3472   -2.3456   -9.0777 O   0  0  0  0  0  0  0  0  0  0  0  0
   16.5470   -2.7327   -9.4117 O   0  0  0  0  0  0  0  0  0  0  0  0
  2  1  1  1
  2  5  1  0
  3  2  1  0
  4  3  1  0
  5 11  1  0
  5  6  2  0
  8  7  1  6
  8 10  1  0
  8  9  1  0
 10 12  1  0
 10 11  1  6
 12 13  2  0
 14 15  1  0
 15 16  1  0
 18 17  1  1
 17 16  1  0
 18 20  1  0
 19 12  1  0
 19 18  1  0
 20 22  1  0
 21 20  2  0
M  END
$$$$
