CTM.pdb
     RDKit          3D

 22 21  0  0  1  0  0  0  0  0999 V2000
   19.1971  -24.9724  -11.1811 N   0  0  0  0  0  0  0  0  0  0  0  0
   19.1817  -24.4192   -9.8575 C   0  0  1  0  0  0  0  0  0  0  0  0
   18.9711  -22.9234   -9.9728 C   0  0  0  0  0  0  0  0  0  0  0  0
   20.4115  -22.1144  -10.7422 S   0  0  0  0  0  0  0  0  0  0  0  0
   18.0947  -24.9608   -9.0192 C   0  0  0  0  0  0  0  0  0  0  0  0
   16.9251  -24.9151   -9.4950 O   0  0  0  0  0  0  0  0  0  0  0  0
   17.5433  -28.3270   -7.9397 C   0  0  0  0  0  0  0  0  0  0  0  0
   17.5389  -27.5410   -6.6567 C   0  0  1  0  0  0  0  0  0  0  0  0
   18.7886  -27.6715   -6.0544 O   0  0  0  0  0  0  0  0  0  0  0  0
   17.2275  -26.0959   -6.9595 C   0  0  2  0  0  0  0  0  0  0  0  0
   18.3068  -25.5158   -7.7342 N   0  0  0  0  0  0  0  0  0  0  0  0
   17.1047  -25.3556   -5.6705 C   0  0  0  0  0  0  0  0  0  0  0  0
   18.0978  -24.7634   -5.1770 O   0  0  0  0  0  0  0  0  0  0  0  0
   12.8317  -21.3727   -0.5175 C   0  0  0  0  0  0  0  0  0  0  0  0
   12.7654  -22.2981   -2.0816 S   0  0  0  0  0  0  0  0  0  0  0  0
   14.3359  -23.2161   -2.2184 C   0  0  0  0  0  0  0  0  0  0  0  0
   14.4601  -23.8870   -3.5554 C   0  0  0  0  0  0  0  0  0  0  0  0
   15.7097  -24.6590   -3.6625 C   0  0  2  0  0  0  0  0  0  0  0  0
   15.8856  -25.2902   -4.9613 N   0  0  0  0  0  0  0  0  0  0  0  0
   15.9390  -25.6549   -2.6273 C   0  0  0  0  0  0  0  0  0  0  0  0
   16.1113  -25.3503   -1.4274 O   0  0  0  0  0  0  0  0  0  0  0  0
   15.9812  -27.0416   -2.9184 O   0  0  0  0  0  0  0  0  0  0  0  0
  2  1  1  6
  2  5  1  0
  3  2  1  0
  4  3  1  0
  5 11  1  0
  5  6  2  0
  8  7  1  6
  8 10  1  0
  8  9  1  0
 10 12  1  0
 10 11  1  6
 12 13  2  0
 14 15  1  0
 15 16  1  0
 18 17  1  6
 17 16  1  0
 18 20  1  0
 19 12  1  0
 19 18  1  0
 20 22  1  0
 21 20  2  0
M  END
$$$$
