CTM.pdb
     RDKit          3D

 22 21  0  0  1  0  0  0  0  0999 V2000
   15.8743  -13.6548  -18.0655 N   0  0  0  0  0  0  0  0  0  0  0  0
   16.7801  -13.3051  -17.0093 C   0  0  1  0  0  0  0  0  0  0  0  0
   17.7311  -14.4654  -16.7988 C   0  0  0  0  0  0  0  0  0  0  0  0
   16.9196  -15.8249  -15.8965 S   0  0  0  0  0  0  0  0  0  0  0  0
   17.5914  -12.1116  -17.3174 C   0  0  0  0  0  0  0  0  0  0  0  0
   18.1891  -12.0950  -18.4306 O   0  0  0  0  0  0  0  0  0  0  0  0
   16.5628   -8.5235  -17.5691 C   0  0  0  0  0  0  0  0  0  0  0  0
   17.6598   -8.5960  -16.5419 C   0  0  1  0  0  0  0  0  0  0  0  0
   17.0786   -8.6213  -15.2758 O   0  0  0  0  0  0  0  0  0  0  0  0
   18.4894   -9.8326  -16.7860 C   0  0  2  0  0  0  0  0  0  0  0  0
   17.7227  -11.0120  -16.4355 N   0  0  0  0  0  0  0  0  0  0  0  0
   19.7030   -9.7696  -15.9213 C   0  0  0  0  0  0  0  0  0  0  0  0
   19.6815  -10.2392  -14.7553 O   0  0  0  0  0  0  0  0  0  0  0  0
   27.3290  -10.3401  -15.0015 C   0  0  0  0  0  0  0  0  0  0  0  0
   26.0016  -10.2005  -16.2367 S   0  0  0  0  0  0  0  0  0  0  0  0
   24.5096   -9.6432  -15.3471 C   0  0  0  0  0  0  0  0  0  0  0  0
   23.3001   -9.6804  -16.2353 C   0  0  0  0  0  0  0  0  0  0  0  0
   22.1259   -9.0792  -15.5804 C   0  0  2  0  0  0  0  0  0  0  0  0
   20.9090   -9.1884  -16.3699 N   0  0  0  0  0  0  0  0  0  0  0  0
   22.2725   -7.7000  -15.1415 C   0  0  0  0  0  0  0  0  0  0  0  0
   21.9436   -6.7285  -15.8557 O   0  0  0  0  0  0  0  0  0  0  0  0
   22.8012   -7.3717  -13.8679 O   0  0  0  0  0  0  0  0  0  0  0  0
  2  1  1  6
  2  5  1  0
  3  2  1  0
  4  3  1  0
  5 11  1  0
  5  6  2  0
  8  7  1  6
  8 10  1  0
  8  9  1  0
 10 12  1  0
 10 11  1  1
 12 13  2  0
 14 15  1  0
 15 16  1  0
 18 17  1  6
 17 16  1  0
 18 20  1  0
 19 12  1  0
 19 18  1  0
 20 22  1  0
 21 20  2  0
M  END
$$$$
