CTM.pdb
     RDKit          3D

 22 21  0  0  1  0  0  0  0  0999 V2000
   19.7605  -13.5113  -17.4552 N   0  0  0  0  0  0  0  0  0  0  0  0
   20.1983  -12.2029  -17.8487 C   0  0  1  0  0  0  0  0  0  0  0  0
   19.0259  -11.4832  -18.4831 C   0  0  0  0  0  0  0  0  0  0  0  0
   18.5191  -12.2933  -20.0349 S   0  0  0  0  0  0  0  0  0  0  0  0
   20.6637  -11.3849  -16.7121 C   0  0  0  0  0  0  0  0  0  0  0  0
   19.9438  -11.3819  -15.6736 O   0  0  0  0  0  0  0  0  0  0  0  0
   23.7683  -11.4971  -14.6807 C   0  0  0  0  0  0  0  0  0  0  0  0
   23.6959  -10.1085  -15.2555 C   0  0  1  0  0  0  0  0  0  0  0  0
   24.5267  -10.0489  -16.3726 O   0  0  0  0  0  0  0  0  0  0  0  0
   22.2660   -9.7953  -15.6218 C   0  0  2  0  0  0  0  0  0  0  0  0
   21.8560  -10.6222  -16.7398 N   0  0  0  0  0  0  0  0  0  0  0  0
   22.1810   -8.3615  -16.0236 C   0  0  0  0  0  0  0  0  0  0  0  0
   22.4244   -8.0142  -17.2071 O   0  0  0  0  0  0  0  0  0  0  0  0
   18.9975   -1.7174  -17.2784 C   0  0  0  0  0  0  0  0  0  0  0  0
   18.8280   -3.4645  -16.8030 S   0  0  0  0  0  0  0  0  0  0  0  0
   20.4632   -4.0097  -16.2055 C   0  0  0  0  0  0  0  0  0  0  0  0
   20.4739   -5.4824  -15.9154 C   0  0  0  0  0  0  0  0  0  0  0  0
   21.7830   -5.9271  -15.4079 C   0  0  2  0  0  0  0  0  0  0  0  0
   21.8287   -7.3491  -15.1046 N   0  0  0  0  0  0  0  0  0  0  0  0
   22.3130   -5.1922  -14.2698 C   0  0  0  0  0  0  0  0  0  0  0  0
   22.6728   -3.9979  -14.3491 O   0  0  0  0  0  0  0  0  0  0  0  0
   22.4546   -5.7902  -12.9924 O   0  0  0  0  0  0  0  0  0  0  0  0
  2  1  1  1
  2  5  1  0
  3  2  1  0
  4  3  1  0
  5 11  1  0
  5  6  2  0
  8  7  1  6
  8 10  1  0
  8  9  1  0
 10 12  1  0
 10 11  1  6
 12 13  2  0
 14 15  1  0
 15 16  1  0
 18 17  1  1
 17 16  1  0
 18 20  1  0
 19 12  1  0
 19 18  1  0
 20 22  1  0
 21 20  2  0
M  END
$$$$
