CTM.pdb
     RDKit          3D

 22 21  0  0  1  0  0  0  0  0999 V2000
   27.3304  -21.2582  -16.9686 N   0  0  0  0  0  0  0  0  0  0  0  0
   27.3568  -21.8625  -15.6676 C   0  0  1  0  0  0  0  0  0  0  0  0
   28.7146  -22.5055  -15.4727 C   0  0  0  0  0  0  0  0  0  0  0  0
   28.8141  -24.1061  -16.3382 S   0  0  0  0  0  0  0  0  0  0  0  0
   27.1617  -20.8889  -14.5760 C   0  0  0  0  0  0  0  0  0  0  0  0
   27.3630  -19.6717  -14.8490 O   0  0  0  0  0  0  0  0  0  0  0  0
   24.9484  -19.1596  -14.1121 C   0  0  0  0  0  0  0  0  0  0  0  0
   24.8314  -19.8845  -12.7988 C   0  0  1  0  0  0  0  0  0  0  0  0
   24.0048  -20.9919  -12.9774 O   0  0  0  0  0  0  0  0  0  0  0  0
   26.2062  -20.2992  -12.3350 C   0  0  2  0  0  0  0  0  0  0  0  0
   26.7676  -21.2572  -13.2671 N   0  0  0  0  0  0  0  0  0  0  0  0
   26.0822  -20.9429  -10.9953 C   0  0  0  0  0  0  0  0  0  0  0  0
   25.9018  -22.1832  -10.8968 O   0  0  0  0  0  0  0  0  0  0  0  0
   28.9784  -18.7570   -5.8329 C   0  0  0  0  0  0  0  0  0  0  0  0
   27.7625  -19.7179   -4.8813 S   0  0  0  0  0  0  0  0  0  0  0  0
   26.7269  -20.6056   -6.0926 C   0  0  0  0  0  0  0  0  0  0  0  0
   26.8851  -20.0301   -7.4700 C   0  0  0  0  0  0  0  0  0  0  0  0
   26.0724  -20.7573   -8.4597 C   0  0  2  0  0  0  0  0  0  0  0  0
   26.1611  -20.1968   -9.7992 N   0  0  0  0  0  0  0  0  0  0  0  0
   24.6687  -20.9421   -8.1256 C   0  0  0  0  0  0  0  0  0  0  0  0
   23.7449  -20.4389   -8.8006 O   0  0  0  0  0  0  0  0  0  0  0  0
   24.2601  -21.7098   -7.0062 O   0  0  0  0  0  0  0  0  0  0  0  0
  2  1  1  6
  2  5  1  0
  3  2  1  0
  4  3  1  0
  5 11  1  0
  5  6  2  0
  8  7  1  6
  8 10  1  0
  8  9  1  0
 10 12  1  0
 10 11  1  6
 12 13  2  0
 14 15  1  0
 15 16  1  0
 18 17  1  1
 17 16  1  0
 18 20  1  0
 19 12  1  0
 19 18  1  0
 20 22  1  0
 21 20  2  0
M  END
$$$$
