CTM.pdb
     RDKit          3D

 22 21  0  0  1  0  0  0  0  0999 V2000
   19.9305  -12.8306  -17.5879 N   0  0  0  0  0  0  0  0  0  0  0  0
   20.7867  -12.0252  -16.7655 C   0  0  1  0  0  0  0  0  0  0  0  0
   22.1576  -11.9838  -17.4088 C   0  0  0  0  0  0  0  0  0  0  0  0
   22.9716  -13.6123  -17.3266 S   0  0  0  0  0  0  0  0  0  0  0  0
   20.3137  -10.6340  -16.6302 C   0  0  0  0  0  0  0  0  0  0  0  0
   19.9704  -10.0382  -17.6903 O   0  0  0  0  0  0  0  0  0  0  0  0
   17.4252   -9.3635  -14.5814 C   0  0  0  0  0  0  0  0  0  0  0  0
   18.6518   -8.6029  -14.1562 C   0  0  1  0  0  0  0  0  0  0  0  0
   19.1601   -9.1942  -13.0014 O   0  0  0  0  0  0  0  0  0  0  0  0
   19.6655   -8.6283  -15.2736 C   0  0  2  0  0  0  0  0  0  0  0  0
   20.2317   -9.9579  -15.3891 N   0  0  0  0  0  0  0  0  0  0  0  0
   20.7561   -7.6643  -14.9486 C   0  0  0  0  0  0  0  0  0  0  0  0
   21.8735   -8.0762  -14.5455 O   0  0  0  0  0  0  0  0  0  0  0  0
   23.6893   -0.4430  -16.0210 C   0  0  0  0  0  0  0  0  0  0  0  0
   22.3259   -1.5708  -16.4412 S   0  0  0  0  0  0  0  0  0  0  0  0
   22.5443   -3.0662  -15.4194 C   0  0  0  0  0  0  0  0  0  0  0  0
   21.4716   -4.0784  -15.6990 C   0  0  0  0  0  0  0  0  0  0  0  0
   21.6191   -5.2748  -14.8530 C   0  0  2  0  0  0  0  0  0  0  0  0
   20.5815   -6.2692  -15.0781 N   0  0  0  0  0  0  0  0  0  0  0  0
   21.7332   -5.0384  -13.4221 C   0  0  0  0  0  0  0  0  0  0  0  0
   20.7727   -5.1902  -12.6369 O   0  0  0  0  0  0  0  0  0  0  0  0
   22.9492   -4.6184  -12.8271 O   0  0  0  0  0  0  0  0  0  0  0  0
  2  1  1  6
  2  5  1  0
  3  2  1  0
  4  3  1  0
  5 11  1  0
  5  6  2  0
  8  7  1  6
  8 10  1  0
  8  9  1  0
 10 12  1  0
 10 11  1  1
 12 13  2  0
 14 15  1  0
 15 16  1  0
 18 17  1  6
 17 16  1  0
 18 20  1  0
 19 12  1  0
 19 18  1  0
 20 22  1  0
 21 20  2  0
M  END
$$$$
