CTM.pdb
     RDKit          3D

 22 21  0  0  1  0  0  0  0  0999 V2000
   20.0910  -12.8238  -17.5787 N   0  0  0  0  0  0  0  0  0  0  0  0
   20.8986  -12.0713  -16.6623 C   0  0  1  0  0  0  0  0  0  0  0  0
   22.3352  -12.1313  -17.1393 C   0  0  0  0  0  0  0  0  0  0  0  0
   23.0419  -13.7924  -16.8895 S   0  0  0  0  0  0  0  0  0  0  0  0
   20.5112  -10.6494  -16.5864 C   0  0  0  0  0  0  0  0  0  0  0  0
   20.3301  -10.0441  -17.6806 O   0  0  0  0  0  0  0  0  0  0  0  0
   17.5231   -9.1308  -15.1306 C   0  0  0  0  0  0  0  0  0  0  0  0
   18.6803   -8.4483  -14.4531 C   0  0  1  0  0  0  0  0  0  0  0  0
   18.8801   -9.0463  -13.2105 O   0  0  0  0  0  0  0  0  0  0  0  0
   19.9083   -8.5712  -15.3214 C   0  0  2  0  0  0  0  0  0  0  0  0
   20.3390   -9.9548  -15.3649 N   0  0  0  0  0  0  0  0  0  0  0  0
   20.9969   -7.7439  -14.7255 C   0  0  0  0  0  0  0  0  0  0  0  0
   22.0694   -8.2780  -14.3446 O   0  0  0  0  0  0  0  0  0  0  0  0
   26.4921   -3.8463  -17.1310 C   0  0  0  0  0  0  0  0  0  0  0  0
   25.1223   -5.0377  -17.2377 S   0  0  0  0  0  0  0  0  0  0  0  0
   24.0014   -4.6791  -15.8438 C   0  0  0  0  0  0  0  0  0  0  0  0
   22.8228   -5.6086  -15.8395 C   0  0  0  0  0  0  0  0  0  0  0  0
   21.9654   -5.3941  -14.6614 C   0  0  2  0  0  0  0  0  0  0  0  0
   20.8700   -6.3467  -14.5669 N   0  0  0  0  0  0  0  0  0  0  0  0
   21.4297   -4.0521  -14.4938 C   0  0  0  0  0  0  0  0  0  0  0  0
   20.2933   -3.7263  -14.8996 O   0  0  0  0  0  0  0  0  0  0  0  0
   22.1691   -3.0249  -13.8556 O   0  0  0  0  0  0  0  0  0  0  0  0
  2  1  1  6
  2  5  1  0
  3  2  1  0
  4  3  1  0
  5 11  1  0
  5  6  2  0
  8  7  1  6
  8 10  1  0
  8  9  1  0
 10 12  1  0
 10 11  1  1
 12 13  2  0
 14 15  1  0
 15 16  1  0
 18 17  1  6
 17 16  1  0
 18 20  1  0
 19 12  1  0
 19 18  1  0
 20 22  1  0
 21 20  2  0
M  END
$$$$
