CTM.pdb
     RDKit          3D

 22 21  0  0  1  0  0  0  0  0999 V2000
   16.8863  -12.5927  -17.9314 N   0  0  0  0  0  0  0  0  0  0  0  0
   17.6958  -12.2161  -16.8084 C   0  0  1  0  0  0  0  0  0  0  0  0
   18.6631  -13.3465  -16.5227 C   0  0  0  0  0  0  0  0  0  0  0  0
   17.8095  -14.7654  -15.7617 S   0  0  0  0  0  0  0  0  0  0  0  0
   18.4913  -10.9977  -17.0542 C   0  0  0  0  0  0  0  0  0  0  0  0
   19.1178  -10.9320  -18.1495 O   0  0  0  0  0  0  0  0  0  0  0  0
   17.2188   -7.5217  -17.1816 C   0  0  0  0  0  0  0  0  0  0  0  0
   18.3419   -7.5192  -16.1804 C   0  0  1  0  0  0  0  0  0  0  0  0
   17.7940   -7.5991  -14.9017 O   0  0  0  0  0  0  0  0  0  0  0  0
   19.2568   -8.6871  -16.4558 C   0  0  2  0  0  0  0  0  0  0  0  0
   18.5774   -9.9264  -16.1328 N   0  0  0  0  0  0  0  0  0  0  0  0
   20.4657   -8.5585  -15.5917 C   0  0  0  0  0  0  0  0  0  0  0  0
   20.8184   -9.5040  -14.8419 O   0  0  0  0  0  0  0  0  0  0  0  0
   27.5439   -9.5087  -15.0028 C   0  0  0  0  0  0  0  0  0  0  0  0
   25.9387   -9.6102  -15.8516 S   0  0  0  0  0  0  0  0  0  0  0  0
   24.8915   -8.2863  -15.1597 C   0  0  0  0  0  0  0  0  0  0  0  0
   23.4894   -8.3678  -15.6896 C   0  0  0  0  0  0  0  0  0  0  0  0
   22.6319   -7.3129  -15.1231 C   0  0  2  0  0  0  0  0  0  0  0  0
   21.2528   -7.3864  -15.5802 N   0  0  0  0  0  0  0  0  0  0  0  0
   23.1032   -5.9465  -15.2867 C   0  0  0  0  0  0  0  0  0  0  0  0
   22.8414   -5.2616  -16.2989 O   0  0  0  0  0  0  0  0  0  0  0  0
   23.8938   -5.3039  -14.3011 O   0  0  0  0  0  0  0  0  0  0  0  0
  2  1  1  6
  2  5  1  0
  3  2  1  0
  4  3  1  0
  5 11  1  0
  5  6  2  0
  8  7  1  6
  8 10  1  0
  8  9  1  0
 10 12  1  0
 10 11  1  1
 12 13  2  0
 14 15  1  0
 15 16  1  0
 18 17  1  6
 17 16  1  0
 18 20  1  0
 19 12  1  0
 19 18  1  0
 20 22  1  0
 21 20  2  0
M  END
$$$$
