CTM.pdb
     RDKit          3D

 22 21  0  0  1  0  0  0  0  0999 V2000
   16.1735  -14.0139  -17.4141 N   0  0  0  0  0  0  0  0  0  0  0  0
   16.6906  -13.0287  -16.5085 C   0  0  1  0  0  0  0  0  0  0  0  0
   17.2248  -13.7452  -15.2853 C   0  0  0  0  0  0  0  0  0  0  0  0
   15.8668  -14.4065  -14.2657 S   0  0  0  0  0  0  0  0  0  0  0  0
   17.7974  -12.2409  -17.0846 C   0  0  0  0  0  0  0  0  0  0  0  0
   18.5453  -12.8254  -17.9187 O   0  0  0  0  0  0  0  0  0  0  0  0
   17.6623   -9.2158  -19.1640 C   0  0  0  0  0  0  0  0  0  0  0  0
   18.5146   -8.8586  -17.9766 C   0  0  1  0  0  0  0  0  0  0  0  0
   17.7209   -8.1866  -17.0492 O   0  0  0  0  0  0  0  0  0  0  0  0
   19.0969  -10.1186  -17.3848 C   0  0  2  0  0  0  0  0  0  0  0  0
   18.0473  -10.8889  -16.7471 N   0  0  0  0  0  0  0  0  0  0  0  0
   20.1098   -9.7380  -16.3583 C   0  0  0  0  0  0  0  0  0  0  0  0
   19.7939   -9.6716  -15.1432 O   0  0  0  0  0  0  0  0  0  0  0  0
   26.4710  -11.5285  -14.9567 C   0  0  0  0  0  0  0  0  0  0  0  0
   26.4859   -9.7916  -15.4957 S   0  0  0  0  0  0  0  0  0  0  0  0
   24.8438   -9.1024  -15.1003 C   0  0  0  0  0  0  0  0  0  0  0  0
   23.8078   -9.5647  -16.0833 C   0  0  0  0  0  0  0  0  0  0  0  0
   22.4761   -9.0222  -15.7653 C   0  0  2  0  0  0  0  0  0  0  0  0
   21.4462   -9.4408  -16.7035 N   0  0  0  0  0  0  0  0  0  0  0  0
   22.3943   -7.5793  -15.5992 C   0  0  0  0  0  0  0  0  0  0  0  0
   22.0747   -6.8120  -16.5327 O   0  0  0  0  0  0  0  0  0  0  0  0
   22.6741   -6.9511  -14.3597 O   0  0  0  0  0  0  0  0  0  0  0  0
  2  1  1  6
  2  5  1  0
  3  2  1  0
  4  3  1  0
  5 11  1  0
  5  6  2  0
  8  7  1  6
  8 10  1  0
  8  9  1  0
 10 12  1  0
 10 11  1  1
 12 13  2  0
 14 15  1  0
 15 16  1  0
 18 17  1  6
 17 16  1  0
 18 20  1  0
 19 12  1  0
 19 18  1  0
 20 22  1  0
 21 20  2  0
M  END
$$$$
