CTM.pdb
     RDKit          3D

 22 21  0  0  1  0  0  0  0  0999 V2000
   25.2208  -20.7777   -8.0659 N   0  0  0  0  0  0  0  0  0  0  0  0
   24.7585  -20.9475   -9.4134 C   0  0  1  0  0  0  0  0  0  0  0  0
   23.3217  -20.4723   -9.4835 C   0  0  0  0  0  0  0  0  0  0  0  0
   22.2336  -21.5158   -8.4596 S   0  0  0  0  0  0  0  0  0  0  0  0
   25.5370  -20.1650  -10.3927 C   0  0  0  0  0  0  0  0  0  0  0  0
   25.9736  -19.0415  -10.0135 O   0  0  0  0  0  0  0  0  0  0  0  0
   28.5831  -21.3805  -12.1579 C   0  0  0  0  0  0  0  0  0  0  0  0
   27.6756  -20.8369  -13.2279 C   0  0  1  0  0  0  0  0  0  0  0  0
   27.0285  -21.9063  -13.8437 O   0  0  0  0  0  0  0  0  0  0  0  0
   26.6843  -19.8858  -12.6038 C   0  0  2  0  0  0  0  0  0  0  0  0
   25.8067  -20.6134  -11.7081 N   0  0  0  0  0  0  0  0  0  0  0  0
   25.8665  -19.2713  -13.6892 C   0  0  0  0  0  0  0  0  0  0  0  0
   24.7366  -19.7393  -13.9806 O   0  0  0  0  0  0  0  0  0  0  0  0
   26.0051  -13.0601  -15.2481 C   0  0  0  0  0  0  0  0  0  0  0  0
   25.6042  -13.6566  -16.9187 S   0  0  0  0  0  0  0  0  0  0  0  0
   25.1758  -15.4227  -16.7596 C   0  0  0  0  0  0  0  0  0  0  0  0
   25.9753  -16.0815  -15.6733 C   0  0  0  0  0  0  0  0  0  0  0  0
   25.5657  -17.4813  -15.4694 C   0  0  2  0  0  0  0  0  0  0  0  0
   26.3207  -18.1544  -14.4239 N   0  0  0  0  0  0  0  0  0  0  0  0
   25.5576  -18.3262  -16.6536 C   0  0  0  0  0  0  0  0  0  0  0  0
   26.5685  -18.9508  -17.0409 O   0  0  0  0  0  0  0  0  0  0  0  0
   24.3942  -18.4937  -17.4460 O   0  0  0  0  0  0  0  0  0  0  0  0
  2  1  1  1
  2  5  1  0
  3  2  1  0
  4  3  1  0
  5 11  1  0
  5  6  2  0
  8  7  1  1
  8 10  1  0
  8  9  1  0
 10 12  1  0
 10 11  1  1
 12 13  2  0
 14 15  1  0
 15 16  1  0
 18 17  1  6
 17 16  1  0
 18 20  1  0
 19 12  1  0
 19 18  1  0
 20 22  1  0
 21 20  2  0
M  END
$$$$
