CTM.pdb
     RDKit          3D

 22 21  0  0  1  0  0  0  0  0999 V2000
   15.7487   -9.8515  -18.8529 N   0  0  0  0  0  0  0  0  0  0  0  0
   16.5397   -9.6869  -17.6674 C   0  0  1  0  0  0  0  0  0  0  0  0
   16.8913  -11.0626  -17.1392 C   0  0  0  0  0  0  0  0  0  0  0  0
   15.4022  -11.9530  -16.5816 S   0  0  0  0  0  0  0  0  0  0  0  0
   17.8032   -8.9654  -17.9131 C   0  0  0  0  0  0  0  0  0  0  0  0
   18.4855   -9.3262  -18.9137 O   0  0  0  0  0  0  0  0  0  0  0  0
   18.1627   -5.4339  -18.7432 C   0  0  0  0  0  0  0  0  0  0  0  0
   19.0189   -5.6522  -17.5253 C   0  0  1  0  0  0  0  0  0  0  0  0
   18.2908   -5.2730  -16.3995 O   0  0  0  0  0  0  0  0  0  0  0  0
   19.4189   -7.1054  -17.4522 C   0  0  2  0  0  0  0  0  0  0  0  0
   18.2688   -7.9108  -17.0914 N   0  0  0  0  0  0  0  0  0  0  0  0
   20.4658   -7.2582  -16.4009 C   0  0  0  0  0  0  0  0  0  0  0  0
   20.1429   -7.4178  -15.1964 O   0  0  0  0  0  0  0  0  0  0  0  0
   27.5360   -9.7054  -14.3824 C   0  0  0  0  0  0  0  0  0  0  0  0
   26.5558   -9.2334  -15.8397 S   0  0  0  0  0  0  0  0  0  0  0  0
   25.1743   -8.2062  -15.2362 C   0  0  0  0  0  0  0  0  0  0  0  0
   24.0512   -8.1645  -16.2313 C   0  0  0  0  0  0  0  0  0  0  0  0
   22.9184   -7.3621  -15.7395 C   0  0  2  0  0  0  0  0  0  0  0  0
   21.8431   -7.2305  -16.7104 N   0  0  0  0  0  0  0  0  0  0  0  0
   23.2439   -6.0409  -15.2250 C   0  0  0  0  0  0  0  0  0  0  0  0
   23.2602   -5.0225  -15.9493 O   0  0  0  0  0  0  0  0  0  0  0  0
   23.5645   -5.8266  -13.8609 O   0  0  0  0  0  0  0  0  0  0  0  0
  2  1  1  6
  2  5  1  0
  3  2  1  0
  4  3  1  0
  5 11  1  0
  5  6  2  0
  8  7  1  6
  8 10  1  0
  8  9  1  0
 10 12  1  0
 10 11  1  1
 12 13  2  0
 14 15  1  0
 15 16  1  0
 18 17  1  6
 17 16  1  0
 18 20  1  0
 19 12  1  0
 19 18  1  0
 20 22  1  0
 21 20  2  0
M  END
$$$$
