CTM.pdb
     RDKit          3D

 22 21  0  0  1  0  0  0  0  0999 V2000
   28.8601  -19.4111  -18.6894 N   0  0  0  0  0  0  0  0  0  0  0  0
   28.0035  -20.3153  -17.9773 C   0  0  1  0  0  0  0  0  0  0  0  0
   28.8675  -21.3914  -17.3525 C   0  0  0  0  0  0  0  0  0  0  0  0
   29.2760  -22.6913  -18.5627 S   0  0  0  0  0  0  0  0  0  0  0  0
   27.2495  -19.6600  -16.8912 C   0  0  0  0  0  0  0  0  0  0  0  0
   27.8386  -18.7393  -16.2572 O   0  0  0  0  0  0  0  0  0  0  0  0
   24.2102  -17.6306  -16.9813 C   0  0  0  0  0  0  0  0  0  0  0  0
   23.9037  -18.7764  -16.0554 C   0  0  1  0  0  0  0  0  0  0  0  0
   23.2120  -19.7508  -16.7721 O   0  0  0  0  0  0  0  0  0  0  0  0
   25.1941  -19.3236  -15.4965 C   0  0  2  0  0  0  0  0  0  0  0  0
   25.9245  -20.0146  -16.5409 N   0  0  0  0  0  0  0  0  0  0  0  0
   24.8691  -20.2930  -14.4106 C   0  0  0  0  0  0  0  0  0  0  0  0
   24.3950  -21.4245  -14.6854 O   0  0  0  0  0  0  0  0  0  0  0  0
   26.3892  -19.1483   -8.2589 C   0  0  0  0  0  0  0  0  0  0  0  0
   25.5474  -20.7266   -7.9307 S   0  0  0  0  0  0  0  0  0  0  0  0
   24.8503  -21.2929   -9.5186 C   0  0  0  0  0  0  0  0  0  0  0  0
   25.3068  -20.4243  -10.6546 C   0  0  0  0  0  0  0  0  0  0  0  0
   24.7094  -20.8436  -11.9338 C   0  0  2  0  0  0  0  0  0  0  0  0
   25.0772  -19.9845  -13.0486 N   0  0  0  0  0  0  0  0  0  0  0  0
   23.2654  -21.0198  -11.9400 C   0  0  0  0  0  0  0  0  0  0  0  0
   22.7220  -22.1252  -11.7281 O   0  0  0  0  0  0  0  0  0  0  0  0
   22.3804  -19.9408  -12.1886 O   0  0  0  0  0  0  0  0  0  0  0  0
  2  1  1  1
  2  5  1  0
  3  2  1  0
  4  3  1  0
  5 11  1  0
  5  6  2  0
  8  7  1  6
  8 10  1  0
  8  9  1  0
 10 12  1  0
 10 11  1  6
 12 13  2  0
 14 15  1  0
 15 16  1  0
 18 17  1  1
 17 16  1  0
 18 20  1  0
 19 12  1  0
 19 18  1  0
 20 22  1  0
 21 20  2  0
M  END
$$$$
