CTM.pdb
     RDKit          3D

 22 21  0  0  1  0  0  0  0  0999 V2000
   17.4856  -12.9838  -15.0817 N   0  0  0  0  0  0  0  0  0  0  0  0
   16.8881  -11.6831  -14.9849 C   0  0  1  0  0  0  0  0  0  0  0  0
   15.3836  -11.8561  -14.9443 C   0  0  0  0  0  0  0  0  0  0  0  0
   14.7378  -12.3765  -16.5670 S   0  0  0  0  0  0  0  0  0  0  0  0
   17.2879  -10.9545  -13.7655 C   0  0  0  0  0  0  0  0  0  0  0  0
   17.4586  -11.6391  -12.7173 O   0  0  0  0  0  0  0  0  0  0  0  0
   20.2200   -8.5916  -13.2934 C   0  0  0  0  0  0  0  0  0  0  0  0
   18.9787   -7.8636  -12.8541 C   0  0  1  0  0  0  0  0  0  0  0  0
   18.5739   -7.0182  -13.8852 O   0  0  0  0  0  0  0  0  0  0  0  0
   17.9042   -8.8688  -12.5194 C   0  0  2  0  0  0  0  0  0  0  0  0
   17.4826   -9.5529  -13.7261 N   0  0  0  0  0  0  0  0  0  0  0  0
   16.7366   -8.1426  -11.9416 C   0  0  0  0  0  0  0  0  0  0  0  0
   15.8155   -7.7200  -12.6855 O   0  0  0  0  0  0  0  0  0  0  0  0
   12.1881   -6.5146   -5.7707 C   0  0  0  0  0  0  0  0  0  0  0  0
   13.6493   -7.4489   -6.3180 S   0  0  0  0  0  0  0  0  0  0  0  0
   14.0682   -6.8429   -7.9869 C   0  0  0  0  0  0  0  0  0  0  0  0
   15.1999   -7.6281   -8.5835 C   0  0  0  0  0  0  0  0  0  0  0  0
   15.5499   -7.1412   -9.9286 C   0  0  2  0  0  0  0  0  0  0  0  0
   16.6191   -7.9031  -10.5552 N   0  0  0  0  0  0  0  0  0  0  0  0
   15.8640   -5.7249  -10.0364 C   0  0  0  0  0  0  0  0  0  0  0  0
   17.0331   -5.2884   -9.9681 O   0  0  0  0  0  0  0  0  0  0  0  0
   14.8560   -4.7467  -10.2268 O   0  0  0  0  0  0  0  0  0  0  0  0
  2  1  1  1
  2  5  1  0
  3  2  1  0
  4  3  1  0
  5 11  1  0
  5  6  2  0
  8  7  1  6
  8 10  1  0
  8  9  1  0
 10 12  1  0
 10 11  1  6
 12 13  2  0
 14 15  1  0
 15 16  1  0
 18 17  1  1
 17 16  1  0
 18 20  1  0
 19 12  1  0
 19 18  1  0
 20 22  1  0
 21 20  2  0
M  END
$$$$
