CTM.pdb
     RDKit          3D

 22 21  0  0  1  0  0  0  0  0999 V2000
   18.1708  -11.8536  -15.2746 N   0  0  0  0  0  0  0  0  0  0  0  0
   17.5076  -10.5950  -15.0890 C   0  0  1  0  0  0  0  0  0  0  0  0
   16.0148  -10.8262  -15.2024 C   0  0  0  0  0  0  0  0  0  0  0  0
   15.5453  -11.2647  -16.9078 S   0  0  0  0  0  0  0  0  0  0  0  0
   17.7685   -9.9958  -13.7659 C   0  0  0  0  0  0  0  0  0  0  0  0
   17.7875  -10.7788  -12.7743 O   0  0  0  0  0  0  0  0  0  0  0  0
   20.6834   -7.5938  -12.9763 C   0  0  0  0  0  0  0  0  0  0  0  0
   19.4044   -6.9831  -12.4713 C   0  0  1  0  0  0  0  0  0  0  0  0
   18.9713   -6.0361  -13.3971 O   0  0  0  0  0  0  0  0  0  0  0  0
   18.3751   -8.0700  -12.2807 C   0  0  2  0  0  0  0  0  0  0  0  0
   17.9928   -8.6119  -13.5698 N   0  0  0  0  0  0  0  0  0  0  0  0
   17.1719   -7.4767  -11.6289 C   0  0  0  0  0  0  0  0  0  0  0  0
   16.1827   -7.1202  -12.3179 O   0  0  0  0  0  0  0  0  0  0  0  0
   11.7008   -7.1707   -6.4000 C   0  0  0  0  0  0  0  0  0  0  0  0
   13.0137   -8.1030   -7.2451 S   0  0  0  0  0  0  0  0  0  0  0  0
   14.2761   -6.8899   -7.7575 C   0  0  0  0  0  0  0  0  0  0  0  0
   15.4121   -7.5568   -8.4773 C   0  0  0  0  0  0  0  0  0  0  0  0
   15.9716   -6.6917   -9.5297 C   0  0  2  0  0  0  0  0  0  0  0  0
   17.0951   -7.2935  -10.2310 N   0  0  0  0  0  0  0  0  0  0  0  0
   16.3453   -5.3461   -9.1225 C   0  0  0  0  0  0  0  0  0  0  0  0
   17.5349   -4.9986   -8.9603 O   0  0  0  0  0  0  0  0  0  0  0  0
   15.3760   -4.3399   -8.8830 O   0  0  0  0  0  0  0  0  0  0  0  0
  2  1  1  1
  2  5  1  0
  3  2  1  0
  4  3  1  0
  5 11  1  0
  5  6  2  0
  8  7  1  6
  8 10  1  0
  8  9  1  0
 10 12  1  0
 10 11  1  6
 12 13  2  0
 14 15  1  0
 15 16  1  0
 18 17  1  1
 17 16  1  0
 18 20  1  0
 19 12  1  0
 19 18  1  0
 20 22  1  0
 21 20  2  0
M  END
$$$$
