QRN.pdb
     RDKit          3D

 29 28  0  0  1  0  0  0  0  0999 V2000
   28.3547  -31.4354  -14.6883 N   0  0  0  0  0  0  0  0  0  0  0  0
   27.7971  -31.6807  -15.9736 C   0  0  0  0  0  0  0  0  0  0  0  0
   27.5401  -32.8652  -16.2777 O   0  0  0  0  0  0  0  0  0  0  0  0
   27.5479  -30.5593  -16.8780 C   0  0  0  0  0  0  0  0  0  0  0  0
   27.8498  -29.2060  -16.3279 C   0  0  0  0  0  0  0  0  0  0  0  0
   27.5888  -28.0767  -17.3062 C   0  0  2  0  0  0  0  0  0  0  0  0
   28.5596  -28.2360  -18.3833 N   0  0  0  0  0  0  0  0  0  0  0  0
   27.8213  -26.7565  -16.6823 C   0  0  0  0  0  0  0  0  0  0  0  0
   27.0610  -26.3342  -15.7711 O   0  0  0  0  0  0  0  0  0  0  0  0
   33.5973  -26.4586  -14.6258 N   0  0  0  0  0  0  0  0  0  0  0  0
   33.9908  -26.9601  -15.8986 C   0  0  0  0  0  0  0  0  0  0  0  0
   34.4699  -28.1660  -15.9751 N   0  0  0  0  0  0  0  0  0  0  0  0
   33.8582  -26.1570  -17.0493 N   0  0  0  0  0  0  0  0  0  0  0  0
   33.0137  -24.9827  -17.0049 C   0  0  0  0  0  0  0  0  0  0  0  0
   31.5753  -25.4122  -16.7628 C   0  0  0  0  0  0  0  0  0  0  0  0
   30.6374  -24.2489  -16.8666 C   0  0  0  0  0  0  0  0  0  0  0  0
   29.1952  -24.6451  -16.6270 C   0  0  2  0  0  0  0  0  0  0  0  0
   28.9111  -25.9682  -17.1191 N   0  0  0  0  0  0  0  0  0  0  0  0
   28.3250  -23.6842  -17.3595 C   0  0  0  0  0  0  0  0  0  0  0  0
   28.1338  -23.8727  -18.5890 O   0  0  0  0  0  0  0  0  0  0  0  0
   34.7634  -28.5658  -16.8927 N   0  0  0  0  0  0  0  0  0  0  0  0
   23.5404  -22.0605  -15.8656 C   0  0  0  0  0  0  0  0  0  0  0  0
   24.9269  -22.1733  -16.1254 O   0  0  0  0  0  0  0  0  0  0  0  0
   25.7003  -22.2742  -15.1600 C   0  0  0  0  0  0  0  0  0  0  0  0
   25.4399  -22.1713  -17.5061 C   0  0  1  0  0  0  0  0  0  0  0  0
   26.8774  -21.6956  -17.4926 N   0  0  0  0  0  0  0  0  0  0  0  0
   27.7150  -22.5781  -16.7173 C   0  0  0  0  0  0  0  0  0  0  0  0
   27.0276  -20.3031  -17.0249 O   0  0  0  0  0  0  0  0  0  0  0  0
   27.6229  -20.0096  -15.9712 O   0  0  0  0  0  0  0  0  0  0  0  0
  1  2  1  0
  2  3  2  0
  4  2  1  0
  4  5  1  0
  6  8  1  0
  6  5  1  0
  6  7  1  6
  8  9  2  0
 10 11  1  0
 11 12  2  0
 11 13  1  0
 13 14  1  0
 14 15  1  0
 15 16  1  0
 17 16  1  6
 17 19  1  0
 18 17  1  0
 18  8  1  0
 19 20  2  0
 21 22  1  0
 22 24  1  0
 23 22  2  0
 25 24  1  6
 25 27  1  0
 26 19  1  0
 26 25  1  0
 27 28  2  0
 27 29  1  0
M  END
$$$$
