QRN.pdb
     RDKit          3D

 29 28  0  0  1  0  0  0  0  0999 V2000
   18.3729  -16.2276  -15.4312 N   0  0  0  0  0  0  0  0  0  0  0  0
   17.1272  -15.9173  -16.0436 C   0  0  0  0  0  0  0  0  0  0  0  0
   16.3335  -16.8594  -16.2532 O   0  0  0  0  0  0  0  0  0  0  0  0
   16.8236  -14.5323  -16.4000 C   0  0  0  0  0  0  0  0  0  0  0  0
   17.9272  -13.5524  -16.1834 C   0  0  0  0  0  0  0  0  0  0  0  0
   17.5446  -12.3893  -15.2880 C   0  0  2  0  0  0  0  0  0  0  0  0
   16.0896  -12.4123  -15.1871 N   0  0  0  0  0  0  0  0  0  0  0  0
   17.9339  -11.0949  -15.8873 C   0  0  0  0  0  0  0  0  0  0  0  0
   19.0984  -10.9187  -16.3343 O   0  0  0  0  0  0  0  0  0  0  0  0
   18.4373   -6.8029  -21.4054 N   0  0  0  0  0  0  0  0  0  0  0  0
   18.1998   -5.6406  -20.6187 C   0  0  0  0  0  0  0  0  0  0  0  0
   18.7783   -4.5269  -20.9573 N   0  0  0  0  0  0  0  0  0  0  0  0
   17.3504   -5.7055  -19.4957 N   0  0  0  0  0  0  0  0  0  0  0  0
   17.1417   -6.9749  -18.8329 C   0  0  0  0  0  0  0  0  0  0  0  0
   16.1855   -6.7772  -17.6674 C   0  0  0  0  0  0  0  0  0  0  0  0
   15.9422   -8.0645  -16.9413 C   0  0  0  0  0  0  0  0  0  0  0  0
   17.2290   -8.7771  -16.5797 C   0  0  2  0  0  0  0  0  0  0  0  0
   16.9822  -10.0511  -15.9557 N   0  0  0  0  0  0  0  0  0  0  0  0
   17.9714   -7.9251  -15.6101 C   0  0  0  0  0  0  0  0  0  0  0  0
   17.4752   -7.7549  -14.4661 O   0  0  0  0  0  0  0  0  0  0  0  0
   18.6485   -3.6637  -20.3863 N   0  0  0  0  0  0  0  0  0  0  0  0
   22.6937   -5.1504  -13.9314 C   0  0  0  0  0  0  0  0  0  0  0  0
   21.8087   -6.1814  -13.5358 O   0  0  0  0  0  0  0  0  0  0  0  0
   21.5673   -6.3179  -12.3261 C   0  0  0  0  0  0  0  0  0  0  0  0
   21.1891   -7.0700  -14.5338 C   0  0  2  0  0  0  0  0  0  0  0  0
   19.8565   -6.4835  -14.9498 N   0  0  0  0  0  0  0  0  0  0  0  0
   19.2050   -7.3093  -15.9372 C   0  0  0  0  0  0  0  0  0  0  0  0
   19.9556   -5.0907  -15.4300 O   0  0  0  0  0  0  0  0  0  0  0  0
   20.3437   -4.8026  -16.5777 O   0  0  0  0  0  0  0  0  0  0  0  0
  1  2  1  0
  2  3  2  0
  4  2  1  0
  4  5  1  0
  6  8  1  0
  6  5  1  0
  6  7  1  6
  8  9  2  0
 10 11  1  0
 11 12  2  0
 11 13  1  0
 13 14  1  0
 14 15  1  0
 15 16  1  0
 17 16  1  1
 17 19  1  0
 18 17  1  0
 18  8  1  0
 19 20  2  0
 21 22  1  0
 22 24  1  0
 23 22  2  0
 25 24  1  1
 25 27  1  0
 26 19  1  0
 26 25  1  0
 27 28  2  0
 27 29  1  0
M  END
$$$$
