QRN.pdb
     RDKit          3D

 29 28  0  0  1  0  0  0  0  0999 V2000
   29.1325  -22.5429  -15.7906 N   0  0  0  0  0  0  0  0  0  0  0  0
   28.5653  -22.7904  -17.0712 C   0  0  0  0  0  0  0  0  0  0  0  0
   29.2977  -22.6290  -18.0708 O   0  0  0  0  0  0  0  0  0  0  0  0
   27.1708  -23.2176  -17.1723 C   0  0  0  0  0  0  0  0  0  0  0  0
   26.3546  -22.5199  -18.2077 C   0  0  0  0  0  0  0  0  0  0  0  0
   25.6450  -21.2815  -17.6943 C   0  0  2  0  0  0  0  0  0  0  0  0
   26.6781  -20.4272  -17.1191 N   0  0  0  0  0  0  0  0  0  0  0  0
   24.6862  -21.6145  -16.6192 C   0  0  0  0  0  0  0  0  0  0  0  0
   23.7097  -22.3779  -16.8437 O   0  0  0  0  0  0  0  0  0  0  0  0
   27.5691  -21.8260   -9.6955 N   0  0  0  0  0  0  0  0  0  0  0  0
   26.3946  -21.0518   -9.4777 C   0  0  0  0  0  0  0  0  0  0  0  0
   26.0363  -20.7886   -8.2562 N   0  0  0  0  0  0  0  0  0  0  0  0
   25.6412  -20.5824  -10.5726 N   0  0  0  0  0  0  0  0  0  0  0  0
   24.1996  -20.5122  -10.4675 C   0  0  0  0  0  0  0  0  0  0  0  0
   23.5815  -20.9699  -11.7792 C   0  0  0  0  0  0  0  0  0  0  0  0
   24.5448  -20.8145  -12.9157 C   0  0  0  0  0  0  0  0  0  0  0  0
   23.9411  -21.2175  -14.2452 C   0  0  2  0  0  0  0  0  0  0  0  0
   24.8765  -21.0664  -15.3295 N   0  0  0  0  0  0  0  0  0  0  0  0
   22.7780  -20.3270  -14.5126 C   0  0  0  0  0  0  0  0  0  0  0  0
   23.0033  -19.1181  -14.7805 O   0  0  0  0  0  0  0  0  0  0  0  0
   25.1518  -20.2718   -8.0598 N   0  0  0  0  0  0  0  0  0  0  0  0
   18.2432  -19.4337  -17.8030 C   0  0  0  0  0  0  0  0  0  0  0  0
   19.2529  -19.0267  -16.8989 O   0  0  0  0  0  0  0  0  0  0  0  0
   19.2313  -17.8590  -16.4792 C   0  0  0  0  0  0  0  0  0  0  0  0
   20.3029  -19.9646  -16.4662 C   0  0  2  0  0  0  0  0  0  0  0  0
   20.3853  -19.9423  -14.9544 N   0  0  0  0  0  0  0  0  0  0  0  0
   21.4422  -20.7986  -14.4737 C   0  0  0  0  0  0  0  0  0  0  0  0
   19.1090  -20.2825  -14.2947 O   0  0  0  0  0  0  0  0  0  0  0  0
   18.7218  -21.4570  -14.1475 O   0  0  0  0  0  0  0  0  0  0  0  0
  1  2  1  0
  2  3  2  0
  4  2  1  0
  4  5  1  0
  6  8  1  0
  6  5  1  0
  6  7  1  1
  8  9  2  0
 10 11  1  0
 11 12  2  0
 11 13  1  0
 13 14  1  0
 14 15  1  0
 15 16  1  0
 17 16  1  1
 17 19  1  0
 18 17  1  0
 18  8  1  0
 19 20  2  0
 21 22  1  0
 22 24  1  0
 23 22  2  0
 25 24  1  6
 25 27  1  0
 26 19  1  0
 26 25  1  0
 27 28  2  0
 27 29  1  0
M  END
$$$$
