QRN.pdb
     RDKit          3D

 29 28  0  0  1  0  0  0  0  0999 V2000
   28.4747  -17.6641  -15.4241 N   0  0  0  0  0  0  0  0  0  0  0  0
   28.8517  -17.9082  -16.7736 C   0  0  0  0  0  0  0  0  0  0  0  0
   29.7546  -17.1951  -17.2615 O   0  0  0  0  0  0  0  0  0  0  0  0
   28.1827  -18.9657  -17.5297 C   0  0  0  0  0  0  0  0  0  0  0  0
   27.2246  -19.8067  -16.7552 C   0  0  0  0  0  0  0  0  0  0  0  0
   27.8924  -20.7250  -15.7495 C   0  0  2  0  0  0  0  0  0  0  0  0
   28.3449  -21.8920  -16.4987 N   0  0  0  0  0  0  0  0  0  0  0  0
   26.9345  -21.1918  -14.7244 C   0  0  0  0  0  0  0  0  0  0  0  0
   26.0773  -22.0725  -15.0005 O   0  0  0  0  0  0  0  0  0  0  0  0
   31.0623  -22.1902  -10.0577 N   0  0  0  0  0  0  0  0  0  0  0  0
   30.3603  -21.6087   -8.9643 C   0  0  0  0  0  0  0  0  0  0  0  0
   31.0315  -21.2446   -7.9125 N   0  0  0  0  0  0  0  0  0  0  0  0
   28.9633  -21.4337   -9.0308 N   0  0  0  0  0  0  0  0  0  0  0  0
   28.2253  -22.0078  -10.1354 C   0  0  0  0  0  0  0  0  0  0  0  0
   26.7783  -21.5468  -10.0610 C   0  0  0  0  0  0  0  0  0  0  0  0
   26.5128  -20.4359  -11.0302 C   0  0  0  0  0  0  0  0  0  0  0  0
   26.0474  -20.9437  -12.3792 C   0  0  2  0  0  0  0  0  0  0  0  0
   26.9899  -20.6385  -13.4241 N   0  0  0  0  0  0  0  0  0  0  0  0
   24.7612  -20.2690  -12.7074 C   0  0  0  0  0  0  0  0  0  0  0  0
   24.7820  -19.3156  -13.5286 O   0  0  0  0  0  0  0  0  0  0  0  0
   30.5447  -20.8421   -7.0824 N   0  0  0  0  0  0  0  0  0  0  0  0
   21.0360  -20.3153  -16.0147 C   0  0  0  0  0  0  0  0  0  0  0  0
   21.1960  -21.2459  -14.9607 O   0  0  0  0  0  0  0  0  0  0  0  0
   20.2391  -21.9834  -14.6764 C   0  0  0  0  0  0  0  0  0  0  0  0
   22.4655  -21.3377  -14.2196 C   0  0  1  0  0  0  0  0  0  0  0  0
   22.3264  -20.5796  -12.9162 N   0  0  0  0  0  0  0  0  0  0  0  0
   23.5311  -20.6668  -12.1272 C   0  0  0  0  0  0  0  0  0  0  0  0
   21.1581  -21.0003  -12.1174 O   0  0  0  0  0  0  0  0  0  0  0  0
   21.1324  -22.0679  -11.4768 O   0  0  0  0  0  0  0  0  0  0  0  0
  1  2  1  0
  2  3  2  0
  4  2  1  0
  4  5  1  0
  6  8  1  0
  6  5  1  0
  6  7  1  6
  8  9  2  0
 10 11  1  0
 11 12  2  0
 11 13  1  0
 13 14  1  0
 14 15  1  0
 15 16  1  0
 17 16  1  1
 17 19  1  0
 18 17  1  0
 18  8  1  0
 19 20  2  0
 21 22  1  0
 22 24  1  0
 23 22  2  0
 25 24  1  6
 25 27  1  0
 26 19  1  0
 26 25  1  0
 27 28  2  0
 27 29  1  0
M  END
$$$$
