QRN.pdb
     RDKit          3D

 29 28  0  0  1  0  0  0  0  0999 V2000
   15.2203  -21.6079  -10.1559 N   0  0  0  0  0  0  0  0  0  0  0  0
   14.9839  -22.9853   -9.8920 C   0  0  0  0  0  0  0  0  0  0  0  0
   13.8351  -23.3174   -9.5294 O   0  0  0  0  0  0  0  0  0  0  0  0
   16.0728  -23.9478  -10.0515 C   0  0  0  0  0  0  0  0  0  0  0  0
   17.3456  -23.3983  -10.6022 C   0  0  0  0  0  0  0  0  0  0  0  0
   17.4803  -23.5572  -12.1046 C   0  0  2  0  0  0  0  0  0  0  0  0
   17.7619  -24.9685  -12.3429 N   0  0  0  0  0  0  0  0  0  0  0  0
   18.6198  -22.7757  -12.6309 C   0  0  0  0  0  0  0  0  0  0  0  0
   18.7103  -21.5400  -12.4037 O   0  0  0  0  0  0  0  0  0  0  0  0
   26.3033  -25.6387  -16.3299 N   0  0  0  0  0  0  0  0  0  0  0  0
   26.3912  -24.2205  -16.2447 C   0  0  0  0  0  0  0  0  0  0  0  0
   27.5014  -23.6406  -16.5921 N   0  0  0  0  0  0  0  0  0  0  0  0
   25.2891  -23.4674  -15.7921 N   0  0  0  0  0  0  0  0  0  0  0  0
   24.0935  -24.1510  -15.3478 C   0  0  0  0  0  0  0  0  0  0  0  0
   23.0913  -23.1249  -14.8429 C   0  0  0  0  0  0  0  0  0  0  0  0
   21.8386  -23.7853  -14.3547 C   0  0  0  0  0  0  0  0  0  0  0  0
   20.7960  -22.7847  -13.9007 C   0  0  2  0  0  0  0  0  0  0  0  0
   19.6131  -23.4313  -13.3948 N   0  0  0  0  0  0  0  0  0  0  0  0
   20.4035  -21.9613  -15.0777 C   0  0  0  0  0  0  0  0  0  0  0  0
   19.7490  -22.5146  -15.9993 O   0  0  0  0  0  0  0  0  0  0  0  0
   27.5803  -22.6004  -16.5980 N   0  0  0  0  0  0  0  0  0  0  0  0
   18.2632  -18.9842  -18.6516 C   0  0  0  0  0  0  0  0  0  0  0  0
   18.7685  -18.4145  -17.4589 O   0  0  0  0  0  0  0  0  0  0  0  0
   18.9989  -17.1952  -17.4406 C   0  0  0  0  0  0  0  0  0  0  0  0
   19.0148  -19.2469  -16.2689 C   0  0  1  0  0  0  0  0  0  0  0  0
   20.3874  -19.8752  -16.3877 N   0  0  0  0  0  0  0  0  0  0  0  0
   20.7432  -20.5898  -15.1859 C   0  0  0  0  0  0  0  0  0  0  0  0
   21.4446  -18.9070  -16.7411 O   0  0  0  0  0  0  0  0  0  0  0  0
   21.5414  -18.4037  -17.8762 O   0  0  0  0  0  0  0  0  0  0  0  0
  1  2  1  0
  2  3  2  0
  4  2  1  0
  4  5  1  0
  6  8  1  0
  6  5  1  0
  6  7  1  1
  8  9  2  0
 10 11  1  0
 11 12  2  0
 11 13  1  0
 13 14  1  0
 14 15  1  0
 15 16  1  0
 17 16  1  6
 17 19  1  0
 18 17  1  0
 18  8  1  0
 19 20  2  0
 21 22  1  0
 22 24  1  0
 23 22  2  0
 25 24  1  6
 25 27  1  0
 26 19  1  0
 26 25  1  0
 27 28  2  0
 27 29  1  0
M  END
$$$$
