QRN.pdb
     RDKit          3D

 29 28  0  0  1  0  0  0  0  0999 V2000
   27.2552  -13.3262  -16.3386 N   0  0  0  0  0  0  0  0  0  0  0  0
   26.0212  -14.0203  -16.4737 C   0  0  0  0  0  0  0  0  0  0  0  0
   25.1434  -13.8164  -15.6080 O   0  0  0  0  0  0  0  0  0  0  0  0
   25.8255  -14.9315  -17.6002 C   0  0  0  0  0  0  0  0  0  0  0  0
   25.5339  -16.3497  -17.2412 C   0  0  0  0  0  0  0  0  0  0  0  0
   26.6107  -16.9990  -16.3929 C   0  0  2  0  0  0  0  0  0  0  0  0
   27.7459  -17.2299  -17.2794 N   0  0  0  0  0  0  0  0  0  0  0  0
   26.1711  -18.3116  -15.8732 C   0  0  0  0  0  0  0  0  0  0  0  0
   26.1596  -19.3264  -16.6194 O   0  0  0  0  0  0  0  0  0  0  0  0
   29.2278  -20.6494  -10.9453 N   0  0  0  0  0  0  0  0  0  0  0  0
   28.7777  -21.9614  -10.6255 C   0  0  0  0  0  0  0  0  0  0  0  0
   29.6514  -22.9205  -10.5457 N   0  0  0  0  0  0  0  0  0  0  0  0
   27.4080  -22.2062  -10.3999 N   0  0  0  0  0  0  0  0  0  0  0  0
   26.4717  -21.1035  -10.4380 C   0  0  0  0  0  0  0  0  0  0  0  0
   25.8198  -21.0506  -11.8107 C   0  0  0  0  0  0  0  0  0  0  0  0
   26.1326  -19.7635  -12.5102 C   0  0  0  0  0  0  0  0  0  0  0  0
   25.4693  -19.6669  -13.8684 C   0  0  2  0  0  0  0  0  0  0  0  0
   25.7624  -18.4186  -14.5236 N   0  0  0  0  0  0  0  0  0  0  0  0
   23.9959  -19.7478  -13.6691 C   0  0  0  0  0  0  0  0  0  0  0  0
   23.4243  -18.8029  -13.0655 O   0  0  0  0  0  0  0  0  0  0  0  0
   29.3653  -23.8791  -10.2502 N   0  0  0  0  0  0  0  0  0  0  0  0
   21.9441  -20.8016  -17.4665 C   0  0  0  0  0  0  0  0  0  0  0  0
   21.3645  -20.3458  -16.2586 O   0  0  0  0  0  0  0  0  0  0  0  0
   21.1185  -19.1348  -16.1441 C   0  0  0  0  0  0  0  0  0  0  0  0
   21.0604  -21.2842  -15.1648 C   0  0  2  0  0  0  0  0  0  0  0  0
   21.8039  -20.8431  -13.9217 N   0  0  0  0  0  0  0  0  0  0  0  0
   23.2308  -20.8460  -14.1348 C   0  0  0  0  0  0  0  0  0  0  0  0
   21.4623  -21.6364  -12.7242 O   0  0  0  0  0  0  0  0  0  0  0  0
   22.3152  -22.2654  -12.0701 O   0  0  0  0  0  0  0  0  0  0  0  0
  1  2  1  0
  2  3  2  0
  4  2  1  0
  4  5  1  0
  6  8  1  0
  6  5  1  0
  6  7  1  6
  8  9  2  0
 10 11  1  0
 11 12  2  0
 11 13  1  0
 13 14  1  0
 14 15  1  0
 15 16  1  0
 17 16  1  1
 17 19  1  0
 18 17  1  0
 18  8  1  0
 19 20  2  0
 21 22  1  0
 22 24  1  0
 23 22  2  0
 25 24  1  6
 25 27  1  0
 26 19  1  0
 26 25  1  0
 27 28  2  0
 27 29  1  0
M  END
$$$$
