QRN.pdb
     RDKit          3D

 29 28  0  0  1  0  0  0  0  0999 V2000
   24.2734  -25.4245  -16.0251 N   0  0  0  0  0  0  0  0  0  0  0  0
   25.6783  -25.6356  -15.9564 C   0  0  0  0  0  0  0  0  0  0  0  0
   26.1226  -26.7235  -16.3815 O   0  0  0  0  0  0  0  0  0  0  0  0
   26.5385  -24.5918  -15.4014 C   0  0  0  0  0  0  0  0  0  0  0  0
   25.8538  -23.3193  -15.0310 C   0  0  0  0  0  0  0  0  0  0  0  0
   25.4949  -22.4497  -16.2209 C   0  0  2  0  0  0  0  0  0  0  0  0
   26.7475  -21.8769  -16.7013 N   0  0  0  0  0  0  0  0  0  0  0  0
   24.6108  -21.3321  -15.8265 C   0  0  0  0  0  0  0  0  0  0  0  0
   24.9972  -20.4717  -14.9916 O   0  0  0  0  0  0  0  0  0  0  0  0
   21.1888  -16.0469  -18.6846 N   0  0  0  0  0  0  0  0  0  0  0  0
   21.6690  -16.5174  -19.9393 C   0  0  0  0  0  0  0  0  0  0  0  0
   22.2884  -15.6864  -20.7237 N   0  0  0  0  0  0  0  0  0  0  0  0
   21.4728  -17.8618  -20.3149 N   0  0  0  0  0  0  0  0  0  0  0  0
   20.9176  -18.7949  -19.3583 C   0  0  0  0  0  0  0  0  0  0  0  0
   21.8708  -18.9277  -18.1810 C   0  0  0  0  0  0  0  0  0  0  0  0
   21.3924  -19.9634  -17.2103 C   0  0  0  0  0  0  0  0  0  0  0  0
   22.3757  -20.1975  -16.0823 C   0  0  2  0  0  0  0  0  0  0  0  0
   23.3210  -21.2366  -16.3985 N   0  0  0  0  0  0  0  0  0  0  0  0
   21.6065  -20.6243  -14.8809 C   0  0  0  0  0  0  0  0  0  0  0  0
   21.0672  -21.7613  -14.8927 O   0  0  0  0  0  0  0  0  0  0  0  0
   22.6676  -16.0026  -21.6426 N   0  0  0  0  0  0  0  0  0  0  0  0
   20.5237  -21.1730   -9.5565 C   0  0  0  0  0  0  0  0  0  0  0  0
   20.1653  -20.0014  -10.2648 O   0  0  0  0  0  0  0  0  0  0  0  0
   19.1227  -19.4124   -9.9387 C   0  0  0  0  0  0  0  0  0  0  0  0
   21.0077  -19.4933  -11.3609 C   0  0  1  0  0  0  0  0  0  0  0  0
   20.6924  -20.2718  -12.6207 N   0  0  0  0  0  0  0  0  0  0  0  0
   21.4676  -19.7951  -13.7402 C   0  0  0  0  0  0  0  0  0  0  0  0
   19.2550  -20.2799  -12.9581 O   0  0  0  0  0  0  0  0  0  0  0  0
   18.7114  -19.3625  -13.6014 O   0  0  0  0  0  0  0  0  0  0  0  0
  1  2  1  0
  2  3  2  0
  4  2  1  0
  4  5  1  0
  6  8  1  0
  6  5  1  0
  6  7  1  1
  8  9  2  0
 10 11  1  0
 11 12  2  0
 11 13  1  0
 13 14  1  0
 14 15  1  0
 15 16  1  0
 17 16  1  6
 17 19  1  0
 18 17  1  0
 18  8  1  0
 19 20  2  0
 21 22  1  0
 22 24  1  0
 23 22  2  0
 25 24  1  1
 25 27  1  0
 26 19  1  0
 26 25  1  0
 27 28  2  0
 27 29  1  0
M  END
$$$$
