QRN.pdb
     RDKit          3D

 29 28  0  0  1  0  0  0  0  0999 V2000
   28.2688  -20.2269  -17.4644 N   0  0  0  0  0  0  0  0  0  0  0  0
   28.4300  -21.1193  -18.5600 C   0  0  0  0  0  0  0  0  0  0  0  0
   29.4243  -20.9565  -19.2991 O   0  0  0  0  0  0  0  0  0  0  0  0
   27.4452  -22.1774  -18.7796 C   0  0  0  0  0  0  0  0  0  0  0  0
   26.4190  -22.3375  -17.7089 C   0  0  0  0  0  0  0  0  0  0  0  0
   26.9670  -22.9179  -16.4191 C   0  0  2  0  0  0  0  0  0  0  0  0
   26.9430  -24.3675  -16.5803 N   0  0  0  0  0  0  0  0  0  0  0  0
   26.1066  -22.5790  -15.2653 C   0  0  0  0  0  0  0  0  0  0  0  0
   25.0045  -23.1640  -15.0925 O   0  0  0  0  0  0  0  0  0  0  0  0
   22.3660  -20.5845  -10.5104 N   0  0  0  0  0  0  0  0  0  0  0  0
   23.0273  -20.8113   -9.2705 C   0  0  0  0  0  0  0  0  0  0  0  0
   22.3349  -20.7511   -8.1720 N   0  0  0  0  0  0  0  0  0  0  0  0
   24.4074  -21.0964   -9.2443 N   0  0  0  0  0  0  0  0  0  0  0  0
   25.0951  -21.4021  -10.4804 C   0  0  0  0  0  0  0  0  0  0  0  0
   25.9436  -20.2076  -10.8871 C   0  0  0  0  0  0  0  0  0  0  0  0
   26.6570  -20.4641  -12.1790 C   0  0  0  0  0  0  0  0  0  0  0  0
   25.7906  -21.1958  -13.1831 C   0  0  2  0  0  0  0  0  0  0  0  0
   26.5346  -21.5876  -14.3521 N   0  0  0  0  0  0  0  0  0  0  0  0
   24.7054  -20.2724  -13.6156 C   0  0  0  0  0  0  0  0  0  0  0  0
   25.0221  -19.2528  -14.2819 O   0  0  0  0  0  0  0  0  0  0  0  0
   22.7844  -20.9313   -7.2481 N   0  0  0  0  0  0  0  0  0  0  0  0
   21.9978  -19.4519  -17.8844 C   0  0  0  0  0  0  0  0  0  0  0  0
   21.8765  -19.3765  -16.4765 O   0  0  0  0  0  0  0  0  0  0  0  0
   21.1845  -18.4665  -15.9934 C   0  0  0  0  0  0  0  0  0  0  0  0
   22.5535  -20.3529  -15.6060 C   0  0  2  0  0  0  0  0  0  0  0  0
   22.3235  -19.9615  -14.1615 N   0  0  0  0  0  0  0  0  0  0  0  0
   23.3440  -20.5084  -13.3007 C   0  0  0  0  0  0  0  0  0  0  0  0
   20.9823  -20.3268  -13.6637 O   0  0  0  0  0  0  0  0  0  0  0  0
   20.6293  -21.5087  -13.4916 O   0  0  0  0  0  0  0  0  0  0  0  0
  1  2  1  0
  2  3  2  0
  4  2  1  0
  4  5  1  0
  6  8  1  0
  6  5  1  0
  6  7  1  6
  8  9  2  0
 10 11  1  0
 11 12  2  0
 11 13  1  0
 13 14  1  0
 14 15  1  0
 15 16  1  0
 17 16  1  1
 17 19  1  0
 18 17  1  0
 18  8  1  0
 19 20  2  0
 21 22  1  0
 22 24  1  0
 23 22  2  0
 25 24  1  6
 25 27  1  0
 26 19  1  0
 26 25  1  0
 27 28  2  0
 27 29  1  0
M  END
$$$$
