QRN.pdb
     RDKit          3D

 29 28  0  0  1  0  0  0  0  0999 V2000
   26.9954  -24.6377  -15.8940 N   0  0  0  0  0  0  0  0  0  0  0  0
   28.0166  -23.8083  -16.4346 C   0  0  0  0  0  0  0  0  0  0  0  0
   28.8916  -24.3523  -17.1417 O   0  0  0  0  0  0  0  0  0  0  0  0
   28.0075  -22.3743  -16.1500 C   0  0  0  0  0  0  0  0  0  0  0  0
   26.8913  -21.8942  -15.2847 C   0  0  0  0  0  0  0  0  0  0  0  0
   25.5485  -21.8490  -15.9887 C   0  0  2  0  0  0  0  0  0  0  0  0
   25.7366  -21.0222  -17.1756 N   0  0  0  0  0  0  0  0  0  0  0  0
   24.5189  -21.2018  -15.1477 C   0  0  0  0  0  0  0  0  0  0  0  0
   24.3676  -21.5400  -13.9438 O   0  0  0  0  0  0  0  0  0  0  0  0
   18.6091  -14.7408  -17.1905 N   0  0  0  0  0  0  0  0  0  0  0  0
   18.4329  -15.0228  -15.8064 C   0  0  0  0  0  0  0  0  0  0  0  0
   17.5367  -14.3565  -15.1413 N   0  0  0  0  0  0  0  0  0  0  0  0
   19.2196  -16.0090  -15.1777 N   0  0  0  0  0  0  0  0  0  0  0  0
   20.3653  -16.5558  -15.8722 C   0  0  0  0  0  0  0  0  0  0  0  0
   20.9786  -17.6618  -15.0280 C   0  0  0  0  0  0  0  0  0  0  0  0
   22.0872  -18.3522  -15.7614 C   0  0  0  0  0  0  0  0  0  0  0  0
   22.6130  -19.5592  -15.0124 C   0  0  2  0  0  0  0  0  0  0  0  0
   23.7015  -20.1937  -15.7096 N   0  0  0  0  0  0  0  0  0  0  0  0
   21.5048  -20.5465  -14.8924 C   0  0  0  0  0  0  0  0  0  0  0  0
   21.1678  -21.1905  -15.9198 O   0  0  0  0  0  0  0  0  0  0  0  0
   17.3812  -14.5390  -14.1261 N   0  0  0  0  0  0  0  0  0  0  0  0
   17.8175  -23.6117  -13.5155 C   0  0  0  0  0  0  0  0  0  0  0  0
   18.9109  -23.7885  -12.6347 O   0  0  0  0  0  0  0  0  0  0  0  0
   18.8999  -24.7673  -11.8718 C   0  0  0  0  0  0  0  0  0  0  0  0
   20.0340  -22.8356  -12.6232 C   0  0  1  0  0  0  0  0  0  0  0  0
   19.7574  -21.7422  -13.6335 N   0  0  0  0  0  0  0  0  0  0  0  0
   20.8288  -20.7766  -13.6684 C   0  0  0  0  0  0  0  0  0  0  0  0
   18.4626  -21.0648  -13.4216 O   0  0  0  0  0  0  0  0  0  0  0  0
   17.3777  -21.6761  -13.4204 O   0  0  0  0  0  0  0  0  0  0  0  0
  1  2  1  0
  2  3  2  0
  4  2  1  0
  4  5  1  0
  6  8  1  0
  6  5  1  0
  6  7  1  6
  8  9  2  0
 10 11  1  0
 11 12  2  0
 11 13  1  0
 13 14  1  0
 14 15  1  0
 15 16  1  0
 17 16  1  6
 17 19  1  0
 18 17  1  0
 18  8  1  0
 19 20  2  0
 21 22  1  0
 22 24  1  0
 23 22  2  0
 25 24  1  6
 25 27  1  0
 26 19  1  0
 26 25  1  0
 27 28  2  0
 27 29  1  0
M  END
$$$$
