QRN.pdb
     RDKit          3D

 29 28  0  0  1  0  0  0  0  0999 V2000
   17.3716  -20.7256  -11.2169 N   0  0  0  0  0  0  0  0  0  0  0  0
   17.4705  -20.5656  -12.6267 C   0  0  0  0  0  0  0  0  0  0  0  0
   17.8726  -19.4640  -13.0585 O   0  0  0  0  0  0  0  0  0  0  0  0
   17.1056  -21.6751  -13.5062 C   0  0  0  0  0  0  0  0  0  0  0  0
   16.8044  -22.9675  -12.8251 C   0  0  0  0  0  0  0  0  0  0  0  0
   17.9596  -23.9504  -12.8410 C   0  0  2  0  0  0  0  0  0  0  0  0
   17.9395  -24.5838  -14.1549 N   0  0  0  0  0  0  0  0  0  0  0  0
   17.7805  -25.0115  -11.8270 C   0  0  0  0  0  0  0  0  0  0  0  0
   16.6276  -25.3525  -11.4513 O   0  0  0  0  0  0  0  0  0  0  0  0
   20.2944  -31.6485  -11.0757 N   0  0  0  0  0  0  0  0  0  0  0  0
   21.1287  -31.3019  -12.1758 C   0  0  0  0  0  0  0  0  0  0  0  0
   21.1991  -32.1144  -13.1879 N   0  0  0  0  0  0  0  0  0  0  0  0
   21.8601  -30.0971  -12.1594 N   0  0  0  0  0  0  0  0  0  0  0  0
   21.6918  -29.1766  -11.0555 C   0  0  0  0  0  0  0  0  0  0  0  0
   20.3438  -28.4851  -11.1845 C   0  0  0  0  0  0  0  0  0  0  0  0
   20.1830  -27.4135  -10.1504 C   0  0  0  0  0  0  0  0  0  0  0  0
   18.8653  -26.6777  -10.2793 C   0  0  2  0  0  0  0  0  0  0  0  0
   18.9211  -25.6441  -11.2802 N   0  0  0  0  0  0  0  0  0  0  0  0
   18.5656  -26.0354   -8.9698 C   0  0  0  0  0  0  0  0  0  0  0  0
   18.7843  -24.8020   -8.8482 O   0  0  0  0  0  0  0  0  0  0  0  0
   21.8726  -31.9405  -13.9652 N   0  0  0  0  0  0  0  0  0  0  0  0
   14.9680  -24.2824   -5.2774 C   0  0  0  0  0  0  0  0  0  0  0  0
   16.3271  -24.3174   -5.6699 O   0  0  0  0  0  0  0  0  0  0  0  0
   17.1722  -23.8186   -4.9101 C   0  0  0  0  0  0  0  0  0  0  0  0
   16.7295  -24.9303   -6.9474 C   0  0  2  0  0  0  0  0  0  0  0  0
   17.6987  -26.0587   -6.6641 N   0  0  0  0  0  0  0  0  0  0  0  0
   18.0476  -26.7665   -7.8719 C   0  0  0  0  0  0  0  0  0  0  0  0
   17.2125  -27.0027   -5.6382 O   0  0  0  0  0  0  0  0  0  0  0  0
   16.6317  -28.0661   -5.9261 O   0  0  0  0  0  0  0  0  0  0  0  0
  1  2  1  0
  2  3  2  0
  4  2  1  0
  4  5  1  0
  6  8  1  0
  6  5  1  0
  6  7  1  6
  8  9  2  0
 10 11  1  0
 11 12  2  0
 11 13  1  0
 13 14  1  0
 14 15  1  0
 15 16  1  0
 17 16  1  1
 17 19  1  0
 18 17  1  0
 18  8  1  0
 19 20  2  0
 21 22  1  0
 22 24  1  0
 23 22  2  0
 25 24  1  6
 25 27  1  0
 26 19  1  0
 26 25  1  0
 27 28  2  0
 27 29  1  0
M  END
$$$$
