DRY.pdb
     RDKit          3D

 32 32  0  0  1  0  0  0  0  0999 V2000
    8.6607  -19.2859   21.5160 N   0  0  0  0  0  0  0  0  0  0  0  0
   10.0345  -18.9461   21.1638 C   0  0  1  0  0  0  0  0  0  0  0  0
   10.2120  -19.1998   19.6812 C   0  0  0  0  0  0  0  0  0  0  0  0
    9.8662  -20.6229   19.4007 C   0  0  0  0  0  0  0  0  0  0  0  0
   10.7347  -21.5260   19.4542 O   0  0  0  0  0  0  0  0  0  0  0  0
   10.2338  -17.5043   21.4273 C   0  0  0  0  0  0  0  0  0  0  0  0
   11.3230  -16.9390   21.1398 O   0  0  0  0  0  0  0  0  0  0  0  0
    8.5575  -20.9826   19.0697 O   0  0  0  0  0  0  0  0  0  0  0  0
    7.9113  -12.2266   18.4331 N   0  0  0  0  0  0  0  0  0  0  0  0
    7.9730  -13.3152   17.5339 C   0  0  0  0  0  0  0  0  0  0  0  0
    8.2121  -13.1772   16.2803 N   0  0  0  0  0  0  0  0  0  0  0  0
    7.7621  -14.6599   18.0035 N   0  0  0  0  0  0  0  0  0  0  0  0
    7.3972  -14.9595   19.3689 C   0  0  0  0  0  0  0  0  0  0  0  0
    8.3860  -14.2602   20.2669 C   0  0  0  0  0  0  0  0  0  0  0  0
    8.2454  -14.5403   21.6985 C   0  0  0  0  0  0  0  0  0  0  0  0
    9.3332  -15.3171   22.3537 C   0  0  2  0  0  0  0  0  0  0  0  0
    9.1983  -16.7422   22.0073 N   0  0  0  0  0  0  0  0  0  0  0  0
    9.3989  -15.2278   23.8217 C   0  0  0  0  0  0  0  0  0  0  0  0
    8.8718  -14.2112   24.4142 O   0  0  0  0  0  0  0  0  0  0  0  0
    8.3303  -14.0102   15.6839 O   0  0  0  0  0  0  0  0  0  0  0  0
    5.5176  -11.2853   26.4644 C   0  0  0  0  0  0  0  0  0  0  0  0
    6.2366  -12.4963   26.4693 C   0  0  0  0  0  0  0  0  0  0  0  0
    5.7961  -13.5919   25.7634 C   0  0  0  0  0  0  0  0  0  0  0  0
    6.5239  -14.7712   25.7867 C   0  0  0  0  0  0  0  0  0  0  0  0
    7.6990  -14.9054   26.5006 C   0  0  0  0  0  0  0  0  0  0  0  0
    8.4848  -16.1339   26.5591 C   0  0  2  0  0  0  0  0  0  0  0  0
    9.9274  -15.9912   26.1594 N   0  0  0  0  0  0  0  0  0  0  0  0
    9.9875  -16.1523   24.7106 C   0  0  0  0  0  0  0  0  0  0  0  0
   10.6975  -17.1248   26.7259 O   0  0  0  0  0  0  0  0  0  0  0  0
   11.2707  -18.1301   25.9583 C   0  0  0  0  0  0  0  0  0  0  0  0
    8.1195  -13.7879   27.2021 C   0  0  0  0  0  0  0  0  0  0  0  0
    7.4027  -12.6042   27.1878 O   0  0  0  0  0  0  0  0  0  0  0  0
  2  1  1  6
  2  3  1  0
  4  3  1  0
  4  5  2  0
  6  7  2  0
  6  2  1  0
  8  4  1  0
 10  9  1  0
 10 12  1  0
 11 10  2  0
 12 13  1  0
 13 14  1  0
 14 15  1  0
 16 15  1  1
 16 17  1  0
 17  6  1  0
 18 16  1  0
 19 18  2  0
 21 31  2  0
 21 20  1  0
 22 21  1  0
 23 24  1  0
 23 22  2  0
 24 30  2  0
 26 25  1  6
 25 24  1  0
 26 28  1  0
 26 27  1  0
 27 18  1  0
 28 29  1  0
 30 31  1  0
 32 28  2  0
M  END
$$$$
