DRY.pdb
     RDKit          3D

 32 32  0  0  1  0  0  0  0  0999 V2000
   11.9556  -14.0198   18.2070 N   0  0  0  0  0  0  0  0  0  0  0  0
   11.9050  -15.0110   19.2756 C   0  0  1  0  0  0  0  0  0  0  0  0
   13.3093  -15.1877   19.8144 C   0  0  0  0  0  0  0  0  0  0  0  0
   14.1535  -15.7922   18.7440 C   0  0  0  0  0  0  0  0  0  0  0  0
   13.7063  -16.6917   17.9933 O   0  0  0  0  0  0  0  0  0  0  0  0
   11.0442  -14.4802   20.3551 C   0  0  0  0  0  0  0  0  0  0  0  0
   11.4870  -13.6352   21.1787 O   0  0  0  0  0  0  0  0  0  0  0  0
   15.4701  -15.3659   18.5538 O   0  0  0  0  0  0  0  0  0  0  0  0
    6.0189  -18.5427   21.9289 N   0  0  0  0  0  0  0  0  0  0  0  0
    5.7650  -18.7620   20.5561 C   0  0  0  0  0  0  0  0  0  0  0  0
    5.6937  -19.9324   20.0338 N   0  0  0  0  0  0  0  0  0  0  0  0
    5.5725  -17.6479   19.6644 N   0  0  0  0  0  0  0  0  0  0  0  0
    5.6768  -16.2746   20.1008 C   0  0  0  0  0  0  0  0  0  0  0  0
    7.0933  -16.0525   20.5667 C   0  0  0  0  0  0  0  0  0  0  0  0
    7.3803  -14.7174   21.0985 C   0  0  0  0  0  0  0  0  0  0  0  0
    8.7821  -14.4316   21.5100 C   0  0  2  0  0  0  0  0  0  0  0  0
    9.7086  -14.9179   20.4736 N   0  0  0  0  0  0  0  0  0  0  0  0
    9.2128  -15.0153   22.7910 C   0  0  0  0  0  0  0  0  0  0  0  0
    9.9378  -16.0815   22.7842 O   0  0  0  0  0  0  0  0  0  0  0  0
    5.6590  -20.0375   19.0085 O   0  0  0  0  0  0  0  0  0  0  0  0
   10.5017  -16.3994   31.5567 C   0  0  0  0  0  0  0  0  0  0  0  0
   10.1071  -15.9118   30.2957 C   0  0  0  0  0  0  0  0  0  0  0  0
    9.0308  -16.4477   29.6270 C   0  0  0  0  0  0  0  0  0  0  0  0
    8.6653  -15.9481   28.3869 C   0  0  0  0  0  0  0  0  0  0  0  0
    9.3440  -14.9132   27.7730 C   0  0  0  0  0  0  0  0  0  0  0  0
    8.9965  -14.3701   26.4636 C   0  0  1  0  0  0  0  0  0  0  0  0
    9.3699  -15.2351   25.2917 N   0  0  0  0  0  0  0  0  0  0  0  0
    8.9270  -14.5392   24.0883 C   0  0  0  0  0  0  0  0  0  0  0  0
    8.5801  -16.4890   25.3490 O   0  0  0  0  0  0  0  0  0  0  0  0
    9.0513  -17.6748   25.8969 C   0  0  0  0  0  0  0  0  0  0  0  0
   10.4230  -14.3925   28.4675 C   0  0  0  0  0  0  0  0  0  0  0  0
   10.7991  -14.8815   29.7063 O   0  0  0  0  0  0  0  0  0  0  0  0
  2  1  1  6
  2  3  1  0
  4  3  1  0
  4  5  2  0
  6  7  2  0
  6  2  1  0
  8  4  1  0
 10  9  1  0
 10 12  1  0
 11 10  2  0
 12 13  1  0
 13 14  1  0
 14 15  1  0
 16 15  1  6
 16 17  1  0
 17  6  1  0
 18 16  1  0
 19 18  2  0
 21 31  2  0
 21 20  1  0
 22 21  1  0
 23 24  1  0
 23 22  2  0
 24 30  2  0
 26 25  1  6
 25 24  1  0
 26 28  1  0
 26 27  1  0
 27 18  1  0
 28 29  1  0
 30 31  1  0
 32 28  2  0
M  END
$$$$
