DRY.pdb
     RDKit          3D

 32 32  0  0  1  0  0  0  0  0999 V2000
   13.0403  -16.2071   19.7383 N   0  0  0  0  0  0  0  0  0  0  0  0
   12.2841  -17.1188   20.5890 C   0  0  1  0  0  0  0  0  0  0  0  0
   13.2607  -17.8039   21.5222 C   0  0  0  0  0  0  0  0  0  0  0  0
   14.1592  -18.6737   20.7101 C   0  0  0  0  0  0  0  0  0  0  0  0
   14.0890  -18.6924   19.4581 O   0  0  0  0  0  0  0  0  0  0  0  0
   11.3376  -16.3174   21.3952 C   0  0  0  0  0  0  0  0  0  0  0  0
   11.6563  -15.1741   21.8192 O   0  0  0  0  0  0  0  0  0  0  0  0
   15.1053  -19.4922   21.3316 O   0  0  0  0  0  0  0  0  0  0  0  0
    7.8947  -12.6947   17.2543 N   0  0  0  0  0  0  0  0  0  0  0  0
    8.2927  -13.7346   18.1245 C   0  0  0  0  0  0  0  0  0  0  0  0
    8.6110  -14.9089   17.7153 N   0  0  0  0  0  0  0  0  0  0  0  0
    8.3566  -13.5103   19.5454 N   0  0  0  0  0  0  0  0  0  0  0  0
    7.3943  -14.0705   20.4659 C   0  0  0  0  0  0  0  0  0  0  0  0
    7.5049  -15.5717   20.3806 C   0  0  0  0  0  0  0  0  0  0  0  0
    7.7075  -16.2627   21.6569 C   0  0  0  0  0  0  0  0  0  0  0  0
    9.0026  -16.0412   22.3568 C   0  0  2  0  0  0  0  0  0  0  0  0
   10.0589  -16.8292   21.6993 N   0  0  0  0  0  0  0  0  0  0  0  0
    9.0309  -16.3802   23.7891 C   0  0  0  0  0  0  0  0  0  0  0  0
   10.0017  -17.0943   24.2473 O   0  0  0  0  0  0  0  0  0  0  0  0
    8.9620  -15.6101   18.3851 O   0  0  0  0  0  0  0  0  0  0  0  0
    6.6054  -10.0511   26.1795 C   0  0  0  0  0  0  0  0  0  0  0  0
    6.7661  -11.4362   26.3776 C   0  0  0  0  0  0  0  0  0  0  0  0
    7.9706  -11.9658   26.7793 C   0  0  0  0  0  0  0  0  0  0  0  0
    8.0999  -13.3330   26.9661 C   0  0  0  0  0  0  0  0  0  0  0  0
    7.0543  -14.2130   26.7643 C   0  0  0  0  0  0  0  0  0  0  0  0
    7.1564  -15.6585   26.9384 C   0  0  2  0  0  0  0  0  0  0  0  0
    8.2826  -16.3159   26.1897 N   0  0  0  0  0  0  0  0  0  0  0  0
    8.0939  -16.0074   24.7762 C   0  0  0  0  0  0  0  0  0  0  0  0
    8.1426  -17.7876   26.3059 O   0  0  0  0  0  0  0  0  0  0  0  0
    8.5324  -18.5153   27.4225 C   0  0  0  0  0  0  0  0  0  0  0  0
    5.8536  -13.6538   26.3603 C   0  0  0  0  0  0  0  0  0  0  0  0
    5.7103  -12.2905   26.1699 O   0  0  0  0  0  0  0  0  0  0  0  0
  2  1  1  6
  2  3  1  0
  4  3  1  0
  4  5  2  0
  6  7  2  0
  6  2  1  0
  8  4  1  0
 10  9  1  0
 10 12  1  0
 11 10  2  0
 12 13  1  0
 13 14  1  0
 14 15  1  0
 16 15  1  6
 16 17  1  0
 17  6  1  0
 18 16  1  0
 19 18  2  0
 21 31  2  0
 21 20  1  0
 22 21  1  0
 23 24  1  0
 23 22  2  0
 24 30  2  0
 26 25  1  1
 25 24  1  0
 26 28  1  0
 26 27  1  0
 27 18  1  0
 28 29  1  0
 30 31  1  0
 32 28  2  0
M  END
$$$$
