DRY.pdb
     RDKit          3D

 32 32  0  0  1  0  0  0  0  0999 V2000
    5.4996  -19.2929   25.4200 N   0  0  0  0  0  0  0  0  0  0  0  0
    6.8577  -19.8244   25.4141 C   0  0  1  0  0  0  0  0  0  0  0  0
    6.7804  -21.2969   25.0683 C   0  0  0  0  0  0  0  0  0  0  0  0
    5.8363  -21.4651   23.9263 C   0  0  0  0  0  0  0  0  0  0  0  0
    5.2513  -20.4804   23.4156 O   0  0  0  0  0  0  0  0  0  0  0  0
    7.6204  -19.1263   24.3563 C   0  0  0  0  0  0  0  0  0  0  0  0
    8.7823  -19.5007   24.0429 O   0  0  0  0  0  0  0  0  0  0  0  0
    5.5819  -22.7328   23.3975 O   0  0  0  0  0  0  0  0  0  0  0  0
    7.7597  -12.3412   19.9845 N   0  0  0  0  0  0  0  0  0  0  0  0
    8.0515  -13.1656   18.8744 C   0  0  0  0  0  0  0  0  0  0  0  0
    8.8325  -12.8077   17.9206 N   0  0  0  0  0  0  0  0  0  0  0  0
    7.4653  -14.4764   18.7671 N   0  0  0  0  0  0  0  0  0  0  0  0
    6.6496  -15.0521   19.8113 C   0  0  0  0  0  0  0  0  0  0  0  0
    7.5785  -15.5677   20.8811 C   0  0  0  0  0  0  0  0  0  0  0  0
    6.9414  -16.3416   21.9501 C   0  0  0  0  0  0  0  0  0  0  0  0
    7.8345  -17.0515   22.9063 C   0  0  2  0  0  0  0  0  0  0  0  0
    7.0497  -18.0264   23.6826 N   0  0  0  0  0  0  0  0  0  0  0  0
    8.5561  -16.2040   23.8697 C   0  0  0  0  0  0  0  0  0  0  0  0
    7.9772  -15.1515   24.3384 O   0  0  0  0  0  0  0  0  0  0  0  0
    9.0235  -13.4553   17.1410 O   0  0  0  0  0  0  0  0  0  0  0  0
    5.5774  -11.4370   26.3700 C   0  0  0  0  0  0  0  0  0  0  0  0
    6.5679  -12.4367   26.4256 C   0  0  0  0  0  0  0  0  0  0  0  0
    6.4398  -13.5242   27.2585 C   0  0  0  0  0  0  0  0  0  0  0  0
    7.4307  -14.4927   27.2929 C   0  0  0  0  0  0  0  0  0  0  0  0
    8.5690  -14.4195   26.5136 C   0  0  0  0  0  0  0  0  0  0  0  0
    9.6385  -15.4125   26.5324 C   0  0  2  0  0  0  0  0  0  0  0  0
   10.4907  -15.4596   25.2944 N   0  0  0  0  0  0  0  0  0  0  0  0
    9.8587  -16.4004   24.3758 C   0  0  0  0  0  0  0  0  0  0  0  0
   11.8064  -16.0508   25.6388 O   0  0  0  0  0  0  0  0  0  0  0  0
   12.8217  -15.3553   26.2820 C   0  0  0  0  0  0  0  0  0  0  0  0
    8.6728  -13.3149   25.6848 C   0  0  0  0  0  0  0  0  0  0  0  0
    7.6912  -12.3404   25.6403 O   0  0  0  0  0  0  0  0  0  0  0  0
  2  1  1  6
  2  3  1  0
  4  3  1  0
  4  5  2  0
  6  7  2  0
  6  2  1  0
  8  4  1  0
 10  9  1  0
 10 12  1  0
 11 10  2  0
 12 13  1  0
 13 14  1  0
 14 15  1  0
 16 15  1  1
 16 17  1  0
 17  6  1  0
 18 16  1  0
 19 18  2  0
 21 31  2  0
 21 20  1  0
 22 21  1  0
 23 24  1  0
 23 22  2  0
 24 30  2  0
 26 25  1  6
 25 24  1  0
 26 28  1  0
 26 27  1  0
 27 18  1  0
 28 29  1  0
 30 31  1  0
 32 28  2  0
M  END
$$$$
