DRY.pdb
     RDKit          3D

 32 32  0  0  1  0  0  0  0  0999 V2000
    9.1921  -14.7058   17.9103 N   0  0  0  0  0  0  0  0  0  0  0  0
    8.2946  -13.7690   18.5764 C   0  0  1  0  0  0  0  0  0  0  0  0
    7.1152  -13.5211   17.6591 C   0  0  0  0  0  0  0  0  0  0  0  0
    7.5808  -13.6420   16.2476 C   0  0  0  0  0  0  0  0  0  0  0  0
    7.4781  -12.6843   15.4446 O   0  0  0  0  0  0  0  0  0  0  0  0
    7.8057  -14.4048   19.8193 C   0  0  0  0  0  0  0  0  0  0  0  0
    7.0141  -13.7966   20.5886 O   0  0  0  0  0  0  0  0  0  0  0  0
    8.1453  -14.8338   15.7868 O   0  0  0  0  0  0  0  0  0  0  0  0
    9.4315  -22.7614   19.5774 N   0  0  0  0  0  0  0  0  0  0  0  0
   10.4948  -21.8764   19.8657 C   0  0  0  0  0  0  0  0  0  0  0  0
   11.7307  -22.2124   19.7789 N   0  0  0  0  0  0  0  0  0  0  0  0
   10.2244  -20.5246   20.2816 N   0  0  0  0  0  0  0  0  0  0  0  0
    8.8867  -20.0409   20.5343 C   0  0  0  0  0  0  0  0  0  0  0  0
    8.9900  -18.5749   20.8707 C   0  0  0  0  0  0  0  0  0  0  0  0
    7.7145  -17.8851   21.0827 C   0  0  0  0  0  0  0  0  0  0  0  0
    7.7651  -16.4235   21.3609 C   0  0  2  0  0  0  0  0  0  0  0  0
    8.2240  -15.7086   20.1578 N   0  0  0  0  0  0  0  0  0  0  0  0
    8.6317  -16.0060   22.4753 C   0  0  0  0  0  0  0  0  0  0  0  0
    9.8774  -15.7640   22.2468 O   0  0  0  0  0  0  0  0  0  0  0  0
   12.4676  -21.5276   20.0060 O   0  0  0  0  0  0  0  0  0  0  0  0
   11.3688  -14.3542   30.8654 C   0  0  0  0  0  0  0  0  0  0  0  0
   10.6557  -14.4624   29.6557 C   0  0  0  0  0  0  0  0  0  0  0  0
   10.4702  -13.3736   28.8355 C   0  0  0  0  0  0  0  0  0  0  0  0
    9.7638  -13.5093   27.6508 C   0  0  0  0  0  0  0  0  0  0  0  0
    9.2231  -14.7129   27.2415 C   0  0  0  0  0  0  0  0  0  0  0  0
    8.4631  -14.8910   26.0082 C   0  0  1  0  0  0  0  0  0  0  0  0
    9.2326  -15.4865   24.8619 N   0  0  0  0  0  0  0  0  0  0  0  0
    8.2630  -15.8235   23.8251 C   0  0  0  0  0  0  0  0  0  0  0  0
    9.8244  -16.7745   25.2978 O   0  0  0  0  0  0  0  0  0  0  0  0
   11.1369  -16.9155   25.7289 C   0  0  0  0  0  0  0  0  0  0  0  0
    9.4243  -15.7922   28.0854 C   0  0  0  0  0  0  0  0  0  0  0  0
   10.1275  -15.6711   29.2712 O   0  0  0  0  0  0  0  0  0  0  0  0
  2  1  1  6
  2  3  1  0
  4  3  1  0
  4  5  2  0
  6  7  2  0
  6  2  1  0
  8  4  1  0
 10  9  1  0
 10 12  1  0
 11 10  2  0
 12 13  1  0
 13 14  1  0
 14 15  1  0
 16 15  1  6
 16 17  1  0
 17  6  1  0
 18 16  1  0
 19 18  2  0
 21 31  2  0
 21 20  1  0
 22 21  1  0
 23 24  1  0
 23 22  2  0
 24 30  2  0
 26 25  1  6
 25 24  1  0
 26 28  1  0
 26 27  1  0
 27 18  1  0
 28 29  1  0
 30 31  1  0
 32 28  2  0
M  END
$$$$
