DRY.pdb
     RDKit          3D

 32 32  0  0  1  0  0  0  0  0999 V2000
   13.6633  -16.7984   17.6168 N   0  0  0  0  0  0  0  0  0  0  0  0
   13.4870  -17.5569   18.8499 C   0  0  1  0  0  0  0  0  0  0  0  0
   14.7569  -17.4240   19.6645 C   0  0  0  0  0  0  0  0  0  0  0  0
   15.8410  -18.1824   18.9767 C   0  0  0  0  0  0  0  0  0  0  0  0
   15.6128  -18.8429   17.9353 O   0  0  0  0  0  0  0  0  0  0  0  0
   12.3701  -16.9509   19.6071 C   0  0  0  0  0  0  0  0  0  0  0  0
   12.3101  -15.7045   19.7841 O   0  0  0  0  0  0  0  0  0  0  0  0
   17.1433  -18.1730   19.4818 O   0  0  0  0  0  0  0  0  0  0  0  0
    5.8493  -22.4687   20.4954 N   0  0  0  0  0  0  0  0  0  0  0  0
    7.1065  -22.7150   21.0920 C   0  0  0  0  0  0  0  0  0  0  0  0
    7.4471  -23.8590   21.5643 N   0  0  0  0  0  0  0  0  0  0  0  0
    8.0812  -21.6605   21.1975 N   0  0  0  0  0  0  0  0  0  0  0  0
    7.8116  -20.3060   20.7734 C   0  0  0  0  0  0  0  0  0  0  0  0
    9.0475  -19.4885   21.0516 C   0  0  0  0  0  0  0  0  0  0  0  0
    8.9995  -18.0971   20.5940 C   0  0  0  0  0  0  0  0  0  0  0  0
   10.1871  -17.2439   20.8727 C   0  0  2  0  0  0  0  0  0  0  0  0
   11.3532  -17.7688   20.1422 N   0  0  0  0  0  0  0  0  0  0  0  0
   10.5767  -17.1184   22.2868 C   0  0  0  0  0  0  0  0  0  0  0  0
   11.4573  -17.9264   22.7707 O   0  0  0  0  0  0  0  0  0  0  0  0
    8.3926  -23.9947   21.9531 O   0  0  0  0  0  0  0  0  0  0  0  0
   10.7962  -14.4299   30.8657 C   0  0  0  0  0  0  0  0  0  0  0  0
   10.6011  -14.5663   29.4775 C   0  0  0  0  0  0  0  0  0  0  0  0
   11.6432  -14.4194   28.5915 C   0  0  0  0  0  0  0  0  0  0  0  0
   11.4220  -14.5587   27.2304 C   0  0  0  0  0  0  0  0  0  0  0  0
   10.1767  -14.8449   26.7052 C   0  0  0  0  0  0  0  0  0  0  0  0
    9.9033  -14.9860   25.2785 C   0  0  1  0  0  0  0  0  0  0  0  0
   10.5152  -16.1944   24.6254 N   0  0  0  0  0  0  0  0  0  0  0  0
   10.0942  -16.1847   23.2286 C   0  0  0  0  0  0  0  0  0  0  0  0
    9.9198  -17.4154   25.2201 O   0  0  0  0  0  0  0  0  0  0  0  0
    8.6652  -17.9062   24.8835 C   0  0  0  0  0  0  0  0  0  0  0  0
    9.1457  -14.9875   27.6188 C   0  0  0  0  0  0  0  0  0  0  0  0
    9.3524  -14.8510   28.9804 O   0  0  0  0  0  0  0  0  0  0  0  0
  2  1  1  6
  2  3  1  0
  4  3  1  0
  4  5  2  0
  6  7  2  0
  6  2  1  0
  8  4  1  0
 10  9  1  0
 10 12  1  0
 11 10  2  0
 12 13  1  0
 13 14  1  0
 14 15  1  0
 16 15  1  1
 16 17  1  0
 17  6  1  0
 18 16  1  0
 19 18  2  0
 21 31  2  0
 21 20  1  0
 22 21  1  0
 23 24  1  0
 23 22  2  0
 24 30  2  0
 26 25  1  6
 25 24  1  0
 26 28  1  0
 26 27  1  0
 27 18  1  0
 28 29  1  0
 30 31  1  0
 32 28  2  0
M  END
$$$$
