DRY.pdb
     RDKit          3D

 32 32  0  0  1  0  0  0  0  0999 V2000
   11.3658  -19.6473   20.1947 N   0  0  0  0  0  0  0  0  0  0  0  0
   12.3106  -18.5955   19.8370 C   0  0  1  0  0  0  0  0  0  0  0  0
   12.2835  -18.4370   18.3310 C   0  0  0  0  0  0  0  0  0  0  0  0
   13.5231  -19.0466   17.7694 C   0  0  0  0  0  0  0  0  0  0  0  0
   14.3207  -19.6854   18.4964 O   0  0  0  0  0  0  0  0  0  0  0  0
   11.8506  -17.3336   20.4568 C   0  0  0  0  0  0  0  0  0  0  0  0
   12.5324  -16.2784   20.3575 O   0  0  0  0  0  0  0  0  0  0  0  0
   13.8242  -18.9178   16.4114 O   0  0  0  0  0  0  0  0  0  0  0  0
    7.5599  -14.3807   17.5924 N   0  0  0  0  0  0  0  0  0  0  0  0
    7.7117  -13.2504   18.4269 C   0  0  0  0  0  0  0  0  0  0  0  0
    8.3147  -12.1798   18.0555 N   0  0  0  0  0  0  0  0  0  0  0  0
    7.1817  -13.2576   19.7657 N   0  0  0  0  0  0  0  0  0  0  0  0
    7.8781  -13.8666   20.8753 C   0  0  0  0  0  0  0  0  0  0  0  0
    7.8808  -15.3568   20.6470 C   0  0  0  0  0  0  0  0  0  0  0  0
    8.5652  -16.1506   21.6713 C   0  0  0  0  0  0  0  0  0  0  0  0
   10.0505  -16.0654   21.7236 C   0  0  2  0  0  0  0  0  0  0  0  0
   10.6345  -17.2992   21.1705 N   0  0  0  0  0  0  0  0  0  0  0  0
   10.6409  -15.8610   23.0565 C   0  0  0  0  0  0  0  0  0  0  0  0
   10.0450  -15.0847   23.8960 O   0  0  0  0  0  0  0  0  0  0  0  0
    8.4485  -11.4058   18.7239 O   0  0  0  0  0  0  0  0  0  0  0  0
    8.7825  -13.0843   29.4225 C   0  0  0  0  0  0  0  0  0  0  0  0
    9.3883  -13.9782   28.5183 C   0  0  0  0  0  0  0  0  0  0  0  0
    9.2355  -13.8327   27.1588 C   0  0  0  0  0  0  0  0  0  0  0  0
    9.8430  -14.7278   26.2923 C   0  0  0  0  0  0  0  0  0  0  0  0
   10.6136  -15.7851   26.7358 C   0  0  0  0  0  0  0  0  0  0  0  0
   11.2575  -16.7542   25.8547 C   0  0  2  0  0  0  0  0  0  0  0  0
   12.2934  -16.1854   24.9250 N   0  0  0  0  0  0  0  0  0  0  0  0
   11.8278  -16.4311   23.5643 C   0  0  0  0  0  0  0  0  0  0  0  0
   13.5483  -16.9620   25.0707 O   0  0  0  0  0  0  0  0  0  0  0  0
   14.0538  -17.8050   24.0898 C   0  0  0  0  0  0  0  0  0  0  0  0
   10.7508  -15.9085   28.1083 C   0  0  0  0  0  0  0  0  0  0  0  0
   10.1499  -15.0221   28.9850 O   0  0  0  0  0  0  0  0  0  0  0  0
  2  1  1  6
  2  3  1  0
  4  3  1  0
  4  5  2  0
  6  7  2  0
  6  2  1  0
  8  4  1  0
 10  9  1  0
 10 12  1  0
 11 10  2  0
 12 13  1  0
 13 14  1  0
 14 15  1  0
 16 15  1  1
 16 17  1  0
 17  6  1  0
 18 16  1  0
 19 18  2  0
 21 31  2  0
 21 20  1  0
 22 21  1  0
 23 24  1  0
 23 22  2  0
 24 30  2  0
 26 25  1  1
 25 24  1  0
 26 28  1  0
 26 27  1  0
 27 18  1  0
 28 29  1  0
 30 31  1  0
 32 28  2  0
M  END
$$$$
