DRY.pdb
     RDKit          3D

 32 32  0  0  1  0  0  0  0  0999 V2000
   13.0208  -19.7582   19.6969 N   0  0  0  0  0  0  0  0  0  0  0  0
   13.4735  -18.4237   20.0723 C   0  0  1  0  0  0  0  0  0  0  0  0
   13.9514  -17.7234   18.8173 C   0  0  0  0  0  0  0  0  0  0  0  0
   15.3923  -18.0492   18.6141 C   0  0  0  0  0  0  0  0  0  0  0  0
   15.9621  -18.9326   19.2980 O   0  0  0  0  0  0  0  0  0  0  0  0
   12.3163  -17.6824   20.6197 C   0  0  0  0  0  0  0  0  0  0  0  0
   12.4160  -16.4646   20.9286 O   0  0  0  0  0  0  0  0  0  0  0  0
   16.1433  -17.3720   17.6503 O   0  0  0  0  0  0  0  0  0  0  0  0
    8.3748  -21.1416   17.6283 N   0  0  0  0  0  0  0  0  0  0  0  0
    8.2361  -21.8093   18.8661 C   0  0  0  0  0  0  0  0  0  0  0  0
    8.6384  -23.0121   19.0636 N   0  0  0  0  0  0  0  0  0  0  0  0
    7.6185  -21.1466   19.9854 N   0  0  0  0  0  0  0  0  0  0  0  0
    7.0822  -19.8080   19.8982 C   0  0  0  0  0  0  0  0  0  0  0  0
    8.2395  -18.8474   20.0025 C   0  0  0  0  0  0  0  0  0  0  0  0
    8.7419  -18.6100   21.3586 C   0  0  0  0  0  0  0  0  0  0  0  0
    9.9347  -17.7310   21.5022 C   0  0  2  0  0  0  0  0  0  0  0  0
   11.0802  -18.3368   20.8024 N   0  0  0  0  0  0  0  0  0  0  0  0
   10.3655  -17.4442   22.8803 C   0  0  0  0  0  0  0  0  0  0  0  0
   11.2708  -18.1847   23.4233 O   0  0  0  0  0  0  0  0  0  0  0  0
    8.5288  -23.4458   19.9928 O   0  0  0  0  0  0  0  0  0  0  0  0
   10.4019  -14.3659   31.2598 C   0  0  0  0  0  0  0  0  0  0  0  0
   10.2365  -14.5008   29.8677 C   0  0  0  0  0  0  0  0  0  0  0  0
    9.6980  -13.4864   29.1103 C   0  0  0  0  0  0  0  0  0  0  0  0
    9.5466  -13.6470   27.7420 C   0  0  0  0  0  0  0  0  0  0  0  0
    9.9184  -14.8033   27.0837 C   0  0  0  0  0  0  0  0  0  0  0  0
    9.7624  -15.0133   25.6478 C   0  0  1  0  0  0  0  0  0  0  0  0
   10.2798  -16.3278   25.1327 N   0  0  0  0  0  0  0  0  0  0  0  0
    9.9001  -16.4154   23.7267 C   0  0  0  0  0  0  0  0  0  0  0  0
    9.5599  -17.4290   25.8167 O   0  0  0  0  0  0  0  0  0  0  0  0
    8.3834  -17.9948   25.3432 C   0  0  0  0  0  0  0  0  0  0  0  0
   10.4572  -15.8082   27.8695 C   0  0  0  0  0  0  0  0  0  0  0  0
   10.6142  -15.6614   29.2367 O   0  0  0  0  0  0  0  0  0  0  0  0
  2  1  1  6
  2  3  1  0
  4  3  1  0
  4  5  2  0
  6  7  2  0
  6  2  1  0
  8  4  1  0
 10  9  1  0
 10 12  1  0
 11 10  2  0
 12 13  1  0
 13 14  1  0
 14 15  1  0
 16 15  1  1
 16 17  1  0
 17  6  1  0
 18 16  1  0
 19 18  2  0
 21 31  2  0
 21 20  1  0
 22 21  1  0
 23 24  1  0
 23 22  2  0
 24 30  2  0
 26 25  1  6
 25 24  1  0
 26 28  1  0
 26 27  1  0
 27 18  1  0
 28 29  1  0
 30 31  1  0
 32 28  2  0
M  END
$$$$
