DRY.pdb
     RDKit          3D

 32 32  0  0  1  0  0  0  0  0999 V2000
    9.7535  -19.0951   20.9439 N   0  0  0  0  0  0  0  0  0  0  0  0
   11.0311  -18.3968   20.8603 C   0  0  1  0  0  0  0  0  0  0  0  0
   11.4171  -18.3044   19.3987 C   0  0  0  0  0  0  0  0  0  0  0  0
   12.1408  -19.5524   19.0214 C   0  0  0  0  0  0  0  0  0  0  0  0
   12.1691  -20.5448   19.7876 O   0  0  0  0  0  0  0  0  0  0  0  0
   10.8432  -17.0287   21.3905 C   0  0  0  0  0  0  0  0  0  0  0  0
   11.8095  -16.2222   21.4556 O   0  0  0  0  0  0  0  0  0  0  0  0
   12.8074  -19.6429   17.7971 O   0  0  0  0  0  0  0  0  0  0  0  0
    9.2015  -14.7713   17.8617 N   0  0  0  0  0  0  0  0  0  0  0  0
    8.2403  -13.7362   17.8203 C   0  0  0  0  0  0  0  0  0  0  0  0
    8.3031  -12.7527   16.9979 N   0  0  0  0  0  0  0  0  0  0  0  0
    7.1218  -13.7449   18.7271 N   0  0  0  0  0  0  0  0  0  0  0  0
    7.0156  -14.6799   19.8233 C   0  0  0  0  0  0  0  0  0  0  0  0
    7.6019  -14.0171   21.0439 C   0  0  0  0  0  0  0  0  0  0  0  0
    7.8845  -14.9093   22.1716 C   0  0  0  0  0  0  0  0  0  0  0  0
    9.3059  -15.2819   22.4097 C   0  0  2  0  0  0  0  0  0  0  0  0
    9.5705  -16.6104   21.8316 N   0  0  0  0  0  0  0  0  0  0  0  0
    9.7377  -15.3228   23.8165 C   0  0  0  0  0  0  0  0  0  0  0  0
   10.4380  -14.3482   24.2880 O   0  0  0  0  0  0  0  0  0  0  0  0
    7.6366  -11.9699   17.0794 O   0  0  0  0  0  0  0  0  0  0  0  0
    6.0399  -11.0269   26.5877 C   0  0  0  0  0  0  0  0  0  0  0  0
    6.7023  -12.2649   26.6983 C   0  0  0  0  0  0  0  0  0  0  0  0
    7.9726  -12.3519   27.2192 C   0  0  0  0  0  0  0  0  0  0  0  0
    8.6005  -13.5837   27.3157 C   0  0  0  0  0  0  0  0  0  0  0  0
    8.0000  -14.7582   26.9052 C   0  0  0  0  0  0  0  0  0  0  0  0
    8.6343  -16.0706   26.9794 C   0  0  2  0  0  0  0  0  0  0  0  0
    9.8856  -16.2246   26.1599 N   0  0  0  0  0  0  0  0  0  0  0  0
    9.4724  -16.3335   24.7649 C   0  0  0  0  0  0  0  0  0  0  0  0
   10.5240  -17.5201   26.4962 O   0  0  0  0  0  0  0  0  0  0  0  0
   10.7544  -18.5310   25.5724 C   0  0  0  0  0  0  0  0  0  0  0  0
    6.7219  -14.6423   26.3848 C   0  0  0  0  0  0  0  0  0  0  0  0
    6.0832  -13.4188   26.2825 O   0  0  0  0  0  0  0  0  0  0  0  0
  2  1  1  6
  2  3  1  0
  4  3  1  0
  4  5  2  0
  6  7  2  0
  6  2  1  0
  8  4  1  0
 10  9  1  0
 10 12  1  0
 11 10  2  0
 12 13  1  0
 13 14  1  0
 14 15  1  0
 16 15  1  1
 16 17  1  0
 17  6  1  0
 18 16  1  0
 19 18  2  0
 21 31  2  0
 21 20  1  0
 22 21  1  0
 23 24  1  0
 23 22  2  0
 24 30  2  0
 26 25  1  6
 25 24  1  0
 26 28  1  0
 26 27  1  0
 27 18  1  0
 28 29  1  0
 30 31  1  0
 32 28  2  0
M  END
$$$$
