DRY.pdb
     RDKit          3D

 32 32  0  0  1  0  0  0  0  0999 V2000
    9.4243  -12.5821   19.7171 N   0  0  0  0  0  0  0  0  0  0  0  0
    8.0928  -13.1531   19.8842 C   0  0  1  0  0  0  0  0  0  0  0  0
    7.5586  -13.5001   18.5102 C   0  0  0  0  0  0  0  0  0  0  0  0
    8.7150  -13.6937   17.5887 C   0  0  0  0  0  0  0  0  0  0  0  0
    9.8957  -13.6525   18.0092 O   0  0  0  0  0  0  0  0  0  0  0  0
    8.2217  -14.3978   20.6731 C   0  0  0  0  0  0  0  0  0  0  0  0
    7.2237  -15.1397   20.8780 O   0  0  0  0  0  0  0  0  0  0  0  0
    8.5055  -13.9268   16.2274 O   0  0  0  0  0  0  0  0  0  0  0  0
   13.9115  -14.4124   16.9973 N   0  0  0  0  0  0  0  0  0  0  0  0
   13.5977  -14.9295   18.2745 C   0  0  0  0  0  0  0  0  0  0  0  0
   13.7176  -14.2486   19.3561 N   0  0  0  0  0  0  0  0  0  0  0  0
   13.1191  -16.2801   18.4154 N   0  0  0  0  0  0  0  0  0  0  0  0
   12.7669  -16.8517   19.6947 C   0  0  0  0  0  0  0  0  0  0  0  0
   11.4817  -16.2036   20.1433 C   0  0  0  0  0  0  0  0  0  0  0  0
   10.9597  -16.6643   21.4328 C   0  0  0  0  0  0  0  0  0  0  0  0
    9.7070  -16.0316   21.9293 C   0  0  2  0  0  0  0  0  0  0  0  0
    9.4731  -14.7693   21.2075 N   0  0  0  0  0  0  0  0  0  0  0  0
    9.6616  -15.7275   23.3689 C   0  0  0  0  0  0  0  0  0  0  0  0
   10.4304  -14.8068   23.8419 O   0  0  0  0  0  0  0  0  0  0  0  0
   13.5302  -14.6930   20.2677 O   0  0  0  0  0  0  0  0  0  0  0  0
    5.5605  -10.5811   26.0422 C   0  0  0  0  0  0  0  0  0  0  0  0
    6.0962  -11.8809   26.1276 C   0  0  0  0  0  0  0  0  0  0  0  0
    7.4002  -12.0927   26.5113 C   0  0  0  0  0  0  0  0  0  0  0  0
    7.9009  -13.3829   26.5863 C   0  0  0  0  0  0  0  0  0  0  0  0
    7.1375  -14.4949   26.2879 C   0  0  0  0  0  0  0  0  0  0  0  0
    7.6335  -15.8665   26.3430 C   0  0  2  0  0  0  0  0  0  0  0  0
    9.0098  -16.0733   25.7736 N   0  0  0  0  0  0  0  0  0  0  0  0
    8.8475  -16.3363   24.3477 C   0  0  0  0  0  0  0  0  0  0  0  0
    9.5878  -17.3108   26.3511 O   0  0  0  0  0  0  0  0  0  0  0  0
    9.8438  -18.4606   25.6156 C   0  0  0  0  0  0  0  0  0  0  0  0
    5.8289  -14.2535   25.9044 C   0  0  0  0  0  0  0  0  0  0  0  0
    5.3160  -12.9706   25.8252 O   0  0  0  0  0  0  0  0  0  0  0  0
  2  1  1  6
  2  3  1  0
  4  3  1  0
  4  5  2  0
  6  7  2  0
  6  2  1  0
  8  4  1  0
 10  9  1  0
 10 12  1  0
 11 10  2  0
 12 13  1  0
 13 14  1  0
 14 15  1  0
 16 15  1  6
 16 17  1  0
 17  6  1  0
 18 16  1  0
 19 18  2  0
 21 31  2  0
 21 20  1  0
 22 21  1  0
 23 24  1  0
 23 22  2  0
 24 30  2  0
 26 25  1  6
 25 24  1  0
 26 28  1  0
 26 27  1  0
 27 18  1  0
 28 29  1  0
 30 31  1  0
 32 28  2  0
M  END
$$$$
