DRY.pdb
     RDKit          3D

 32 32  0  0  1  0  0  0  0  0999 V2000
   12.8303  -15.1427   19.7443 N   0  0  0  0  0  0  0  0  0  0  0  0
   12.4504  -16.2129   20.6592 C   0  0  1  0  0  0  0  0  0  0  0  0
   13.6595  -16.5541   21.5051 C   0  0  0  0  0  0  0  0  0  0  0  0
   14.8832  -16.0959   20.7866 C   0  0  0  0  0  0  0  0  0  0  0  0
   14.8189  -15.6307   19.6238 O   0  0  0  0  0  0  0  0  0  0  0  0
   11.3793  -15.7038   21.5433 C   0  0  0  0  0  0  0  0  0  0  0  0
   11.4777  -14.5744   22.0941 O   0  0  0  0  0  0  0  0  0  0  0  0
   16.1365  -16.1760   21.3985 O   0  0  0  0  0  0  0  0  0  0  0  0
    7.1412  -11.5414   18.8288 N   0  0  0  0  0  0  0  0  0  0  0  0
    7.7102  -12.5864   18.0663 C   0  0  0  0  0  0  0  0  0  0  0  0
    8.0526  -12.4516   16.8366 N   0  0  0  0  0  0  0  0  0  0  0  0
    7.9326  -13.8806   18.6569 N   0  0  0  0  0  0  0  0  0  0  0  0
    7.7010  -14.1472   20.0578 C   0  0  0  0  0  0  0  0  0  0  0  0
    7.9830  -15.6092   20.2945 C   0  0  0  0  0  0  0  0  0  0  0  0
    7.8482  -16.0608   21.6822 C   0  0  0  0  0  0  0  0  0  0  0  0
    9.0625  -16.0033   22.5414 C   0  0  2  0  0  0  0  0  0  0  0  0
   10.2281  -16.4836   21.7800 N   0  0  0  0  0  0  0  0  0  0  0  0
    9.0078  -16.7772   23.7925 C   0  0  0  0  0  0  0  0  0  0  0  0
    9.6556  -17.8891   23.8730 O   0  0  0  0  0  0  0  0  0  0  0  0
    8.5031  -13.2344   16.3387 O   0  0  0  0  0  0  0  0  0  0  0  0
   12.4798  -13.8643   29.5878 C   0  0  0  0  0  0  0  0  0  0  0  0
   11.3595  -14.4947   29.0122 C   0  0  0  0  0  0  0  0  0  0  0  0
   10.5659  -13.8444   28.0957 C   0  0  0  0  0  0  0  0  0  0  0  0
    9.4693  -14.4893   27.5457 C   0  0  0  0  0  0  0  0  0  0  0  0
    9.1242  -15.7846   27.8796 C   0  0  0  0  0  0  0  0  0  0  0  0
    7.9706  -16.4910   27.3315 C   0  0  2  0  0  0  0  0  0  0  0  0
    8.2546  -17.3422   26.1249 N   0  0  0  0  0  0  0  0  0  0  0  0
    8.3099  -16.4475   24.9739 C   0  0  0  0  0  0  0  0  0  0  0  0
    7.0979  -18.2390   25.8863 O   0  0  0  0  0  0  0  0  0  0  0  0
    6.8325  -19.3751   26.6395 C   0  0  0  0  0  0  0  0  0  0  0  0
    9.9394  -16.4157   28.8042 C   0  0  0  0  0  0  0  0  0  0  0  0
   11.0374  -15.7838   29.3613 O   0  0  0  0  0  0  0  0  0  0  0  0
  2  1  1  6
  2  3  1  0
  4  3  1  0
  4  5  2  0
  6  7  2  0
  6  2  1  0
  8  4  1  0
 10  9  1  0
 10 12  1  0
 11 10  2  0
 12 13  1  0
 13 14  1  0
 14 15  1  0
 16 15  1  6
 16 17  1  0
 17  6  1  0
 18 16  1  0
 19 18  2  0
 21 31  2  0
 21 20  1  0
 22 21  1  0
 23 24  1  0
 23 22  2  0
 24 30  2  0
 26 25  1  1
 25 24  1  0
 26 28  1  0
 26 27  1  0
 27 18  1  0
 28 29  1  0
 30 31  1  0
 32 28  2  0
M  END
$$$$
