DRY.pdb
     RDKit          3D

 32 32  0  0  1  0  0  0  0  0999 V2000
    7.8889  -13.5029   18.3462 N   0  0  0  0  0  0  0  0  0  0  0  0
    8.6342  -14.3349   19.2838 C   0  0  1  0  0  0  0  0  0  0  0  0
    9.8425  -13.5479   19.7468 C   0  0  0  0  0  0  0  0  0  0  0  0
   10.9731  -13.8267   18.8153 C   0  0  0  0  0  0  0  0  0  0  0  0
   11.7788  -14.7630   19.0322 O   0  0  0  0  0  0  0  0  0  0  0  0
    7.7657  -14.6042   20.4506 C   0  0  0  0  0  0  0  0  0  0  0  0
    7.0521  -13.6930   20.9494 O   0  0  0  0  0  0  0  0  0  0  0  0
   11.1600  -13.0447   17.6730 O   0  0  0  0  0  0  0  0  0  0  0  0
    3.5543  -21.4218   20.1828 N   0  0  0  0  0  0  0  0  0  0  0  0
    4.5871  -20.7710   19.4708 C   0  0  0  0  0  0  0  0  0  0  0  0
    5.1723  -21.2895   18.4528 N   0  0  0  0  0  0  0  0  0  0  0  0
    5.0366  -19.4635   19.8732 N   0  0  0  0  0  0  0  0  0  0  0  0
    4.1893  -18.5334   20.5830 C   0  0  0  0  0  0  0  0  0  0  0  0
    5.0047  -17.2957   20.8588 C   0  0  0  0  0  0  0  0  0  0  0  0
    6.0735  -17.4523   21.8493 C   0  0  0  0  0  0  0  0  0  0  0  0
    6.8856  -16.2482   22.1757 C   0  0  2  0  0  0  0  0  0  0  0  0
    7.7276  -15.8939   21.0205 N   0  0  0  0  0  0  0  0  0  0  0  0
    7.7726  -16.3628   23.3450 C   0  0  0  0  0  0  0  0  0  0  0  0
    8.9859  -16.7655   23.1770 O   0  0  0  0  0  0  0  0  0  0  0  0
    5.9747  -20.8079   18.0194 O   0  0  0  0  0  0  0  0  0  0  0  0
    6.3851  -10.0383   26.0174 C   0  0  0  0  0  0  0  0  0  0  0  0
    6.7267  -11.3831   26.2591 C   0  0  0  0  0  0  0  0  0  0  0  0
    5.8860  -12.2199   26.9559 C   0  0  0  0  0  0  0  0  0  0  0  0
    6.2482  -13.5390   27.1794 C   0  0  0  0  0  0  0  0  0  0  0  0
    7.4406  -14.0693   26.7262 C   0  0  0  0  0  0  0  0  0  0  0  0
    7.8612  -15.4483   26.9532 C   0  0  2  0  0  0  0  0  0  0  0  0
    8.4508  -16.1433   25.7572 N   0  0  0  0  0  0  0  0  0  0  0  0
    7.4583  -16.0741   24.6901 C   0  0  0  0  0  0  0  0  0  0  0  0
    8.6111  -17.5842   26.0692 O   0  0  0  0  0  0  0  0  0  0  0  0
    7.8575  -18.5910   25.4803 C   0  0  0  0  0  0  0  0  0  0  0  0
    8.2680  -13.2057   26.0281 C   0  0  0  0  0  0  0  0  0  0  0  0
    7.9190  -11.8864   25.7978 O   0  0  0  0  0  0  0  0  0  0  0  0
  2  1  1  6
  2  3  1  0
  4  3  1  0
  4  5  2  0
  6  7  2  0
  6  2  1  0
  8  4  1  0
 10  9  1  0
 10 12  1  0
 11 10  2  0
 12 13  1  0
 13 14  1  0
 14 15  1  0
 16 15  1  6
 16 17  1  0
 17  6  1  0
 18 16  1  0
 19 18  2  0
 21 31  2  0
 21 20  1  0
 22 21  1  0
 23 24  1  0
 23 22  2  0
 24 30  2  0
 26 25  1  6
 25 24  1  0
 26 28  1  0
 26 27  1  0
 27 18  1  0
 28 29  1  0
 30 31  1  0
 32 28  2  0
M  END
$$$$
