CYK.pdb
     RDKit          3D

 28 28  0  0  1  0  0  0  0  0999 V2000
    7.8713  -13.4352   19.8343 N   0  0  0  0  0  0  0  0  0  0  0  0
    7.0390  -14.0033   20.9138 C   0  0  1  0  0  0  0  0  0  0  0  0
    6.6169  -15.4020   20.4610 C   0  0  0  0  0  0  0  0  0  0  0  0
    7.9927  -16.3274   19.7675 S   0  0  0  0  0  0  0  0  0  0  0  0
    7.9016  -14.1034   22.0984 C   0  0  0  0  0  0  0  0  0  0  0  0
    9.1727  -14.0062   22.0028 O   0  0  0  0  0  0  0  0  0  0  0  0
   11.0231  -15.1381   30.3315 O   0  0  0  0  0  0  0  0  0  0  0  0
   10.1857  -14.9154   29.2245 C   0  0  0  0  0  0  0  0  0  0  0  0
   10.0280  -13.6675   28.6738 C   0  0  0  0  0  0  0  0  0  0  0  0
    9.2093  -13.4128   27.5812 C   0  0  0  0  0  0  0  0  0  0  0  0
    8.5299  -14.4752   27.0360 C   0  0  0  0  0  0  0  0  0  0  0  0
    7.6462  -14.2498   25.8697 C   0  0  0  0  0  0  0  0  0  0  0  0
    8.3462  -14.5237   24.5463 C   0  0  2  0  0  0  0  0  0  0  0  0
    7.4403  -14.3105   23.4340 N   0  0  0  0  0  0  0  0  0  0  0  0
    9.0101  -15.8430   24.5023 C   0  0  0  0  0  0  0  0  0  0  0  0
    8.3277  -16.8967   24.2529 O   0  0  0  0  0  0  0  0  0  0  0  0
    8.6702  -15.7369   27.5688 C   0  0  0  0  0  0  0  0  0  0  0  0
    9.5004  -15.9694   28.6695 C   0  0  0  0  0  0  0  0  0  0  0  0
   10.3995  -16.0218   24.7232 N   0  0  0  0  0  0  0  0  0  0  0  0
   10.9900  -17.3523   24.4817 C   0  0  1  0  0  0  0  0  0  0  0  0
   11.9335  -17.2717   23.2976 C   0  0  0  0  0  0  0  0  0  0  0  0
   12.5987  -18.5720   22.9839 C   0  0  0  0  0  0  0  0  0  0  0  0
   13.5016  -18.4803   21.7692 C   0  0  0  0  0  0  0  0  0  0  0  0
   14.0449  -19.8629   21.4631 C   0  0  0  0  0  0  0  0  0  0  0  0
   14.8605  -19.8657   20.2694 N   0  0  0  0  0  0  0  0  0  0  0  0
   11.7542  -17.7309   25.6720 C   0  0  0  0  0  0  0  0  0  0  0  0
   12.2106  -16.7638   26.5391 O   0  0  0  0  0  0  0  0  0  0  0  0
   12.0025  -18.9270   25.9159 O   0  0  0  0  0  0  0  0  0  0  0  0
  2  3  1  0
  2  1  1  6
  3  4  1  0
  5  2  1  0
  5  6  2  0
  8  9  2  0
  8  7  1  0
 10  9  1  0
 11 10  2  0
 12 11  1  0
 13 12  1  1
 13 14  1  0
 14  5  1  0
 15 13  1  0
 15 19  1  0
 16 15  2  0
 17 11  1  0
 17 18  2  0
 18  8  1  0
 20 19  1  0
 20 26  1  0
 20 21  1  6
 22 21  1  0
 23 22  1  0
 24 23  1  0
 25 24  1  0
 26 28  2  0
 26 27  1  0
M  END
$$$$
