CYK.pdb
     RDKit          3D

 28 28  0  0  1  0  0  0  0  0999 V2000
    9.5981  -19.0800   18.8965 N   0  0  0  0  0  0  0  0  0  0  0  0
    8.4817  -18.7315   19.7981 C   0  0  1  0  0  0  0  0  0  0  0  0
    7.9505  -20.0441   20.3765 C   0  0  0  0  0  0  0  0  0  0  0  0
    8.9479  -21.4521   19.8738 S   0  0  0  0  0  0  0  0  0  0  0  0
    9.0531  -17.9096   20.8729 C   0  0  0  0  0  0  0  0  0  0  0  0
   10.3060  -17.9276   21.1265 O   0  0  0  0  0  0  0  0  0  0  0  0
    7.6617  -11.9326   18.1351 O   0  0  0  0  0  0  0  0  0  0  0  0
    7.7829  -12.6728   19.3241 C   0  0  0  0  0  0  0  0  0  0  0  0
    6.7630  -13.4630   19.7938 C   0  0  0  0  0  0  0  0  0  0  0  0
    6.8496  -14.2065   20.9636 C   0  0  0  0  0  0  0  0  0  0  0  0
    8.0230  -14.1362   21.6748 C   0  0  0  0  0  0  0  0  0  0  0  0
    8.1596  -14.9130   22.9278 C   0  0  0  0  0  0  0  0  0  0  0  0
    8.9383  -16.2056   22.7304 C   0  0  2  0  0  0  0  0  0  0  0  0
    8.3082  -17.0339   21.7202 N   0  0  0  0  0  0  0  0  0  0  0  0
    9.1906  -16.9306   23.9928 C   0  0  0  0  0  0  0  0  0  0  0  0
    8.2206  -17.4784   24.6231 O   0  0  0  0  0  0  0  0  0  0  0  0
    9.0615  -13.3515   21.2261 C   0  0  0  0  0  0  0  0  0  0  0  0
    8.9513  -12.6114   20.0451 C   0  0  0  0  0  0  0  0  0  0  0  0
   10.4800  -17.0647   24.5680 N   0  0  0  0  0  0  0  0  0  0  0  0
   10.6734  -18.0458   25.6530 C   0  0  1  0  0  0  0  0  0  0  0  0
   11.3180  -19.2956   25.0861 C   0  0  0  0  0  0  0  0  0  0  0  0
   11.6627  -20.3070   26.1302 C   0  0  0  0  0  0  0  0  0  0  0  0
   12.4220  -21.4892   25.5604 C   0  0  0  0  0  0  0  0  0  0  0  0
   12.6476  -22.5003   26.6682 C   0  0  0  0  0  0  0  0  0  0  0  0
   13.3247  -23.6826   26.1846 N   0  0  0  0  0  0  0  0  0  0  0  0
   11.5759  -17.4539   26.6426 C   0  0  0  0  0  0  0  0  0  0  0  0
   11.4786  -17.8090   27.9691 O   0  0  0  0  0  0  0  0  0  0  0  0
   12.4396  -16.6237   26.3010 O   0  0  0  0  0  0  0  0  0  0  0  0
  2  3  1  0
  2  1  1  6
  3  4  1  0
  5  2  1  0
  5  6  2  0
  8  9  2  0
  8  7  1  0
 10  9  1  0
 11 10  2  0
 12 11  1  0
 13 12  1  1
 13 14  1  0
 14  5  1  0
 15 13  1  0
 15 19  1  0
 16 15  2  0
 17 11  1  0
 17 18  2  0
 18  8  1  0
 20 19  1  0
 20 26  1  0
 20 21  1  6
 22 21  1  0
 23 22  1  0
 24 23  1  0
 25 24  1  0
 26 28  2  0
 26 27  1  0
M  END
$$$$
