CYK.pdb
     RDKit          3D

 28 28  0  0  1  0  0  0  0  0999 V2000
   10.0810  -16.9539   18.3767 N   0  0  0  0  0  0  0  0  0  0  0  0
    8.8709  -17.3005   19.1489 C   0  0  1  0  0  0  0  0  0  0  0  0
    8.8883  -18.8172   19.3464 C   0  0  0  0  0  0  0  0  0  0  0  0
    7.5270  -19.3760   20.3782 S   0  0  0  0  0  0  0  0  0  0  0  0
    8.9973  -16.6283   20.4486 C   0  0  0  0  0  0  0  0  0  0  0  0
   10.0952  -16.6521   21.1032 O   0  0  0  0  0  0  0  0  0  0  0  0
    7.3207  -12.1875   27.9493 O   0  0  0  0  0  0  0  0  0  0  0  0
    7.2332  -12.7296   26.6551 C   0  0  0  0  0  0  0  0  0  0  0  0
    7.8999  -12.1759   25.5902 C   0  0  0  0  0  0  0  0  0  0  0  0
    7.8353  -12.6858   24.2999 C   0  0  0  0  0  0  0  0  0  0  0  0
    7.0599  -13.8017   24.0967 C   0  0  0  0  0  0  0  0  0  0  0  0
    6.9625  -14.3796   22.7371 C   0  0  0  0  0  0  0  0  0  0  0  0
    8.1239  -15.3085   22.4139 C   0  0  2  0  0  0  0  0  0  0  0  0
    7.9552  -15.9020   21.1013 N   0  0  0  0  0  0  0  0  0  0  0  0
    8.3776  -16.3107   23.4695 C   0  0  0  0  0  0  0  0  0  0  0  0
    7.5802  -17.3006   23.6196 O   0  0  0  0  0  0  0  0  0  0  0  0
    6.3809  -14.3767   25.1472 C   0  0  0  0  0  0  0  0  0  0  0  0
    6.4611  -13.8456   26.4381 C   0  0  0  0  0  0  0  0  0  0  0  0
    9.4844  -16.2452   24.3538 N   0  0  0  0  0  0  0  0  0  0  0  0
    9.7090  -17.3617   25.2921 C   0  0  1  0  0  0  0  0  0  0  0  0
   11.0289  -18.0314   24.9635 C   0  0  0  0  0  0  0  0  0  0  0  0
   11.3824  -19.1335   25.9081 C   0  0  0  0  0  0  0  0  0  0  0  0
   12.7371  -19.7425   25.6037 C   0  0  0  0  0  0  0  0  0  0  0  0
   12.9670  -20.9094   26.5449 C   0  0  0  0  0  0  0  0  0  0  0  0
   14.2949  -21.4620   26.3988 N   0  0  0  0  0  0  0  0  0  0  0  0
    9.7823  -16.8075   26.6454 C   0  0  0  0  0  0  0  0  0  0  0  0
    9.4531  -17.5862   27.7319 O   0  0  0  0  0  0  0  0  0  0  0  0
   10.1405  -15.6291   26.8328 O   0  0  0  0  0  0  0  0  0  0  0  0
  2  3  1  0
  2  1  1  6
  3  4  1  0
  5  2  1  0
  5  6  2  0
  8  9  2  0
  8  7  1  0
 10  9  1  0
 11 10  2  0
 12 11  1  0
 13 12  1  1
 13 14  1  0
 14  5  1  0
 15 13  1  0
 15 19  1  0
 16 15  2  0
 17 11  1  0
 17 18  2  0
 18  8  1  0
 20 19  1  0
 20 26  1  0
 20 21  1  6
 22 21  1  0
 23 22  1  0
 24 23  1  0
 25 24  1  0
 26 28  2  0
 26 27  1  0
M  END
$$$$
