CYK.pdb
     RDKit          3D

 28 28  0  0  1  0  0  0  0  0999 V2000
   10.6409  -16.8029   18.9050 N   0  0  0  0  0  0  0  0  0  0  0  0
    9.4013  -17.1332   19.6364 C   0  0  1  0  0  0  0  0  0  0  0  0
    9.4682  -18.6233   19.9754 C   0  0  0  0  0  0  0  0  0  0  0  0
    8.1095  -19.1327   21.0358 S   0  0  0  0  0  0  0  0  0  0  0  0
    9.4213  -16.3406   20.8727 C   0  0  0  0  0  0  0  0  0  0  0  0
   10.5058  -16.1547   21.5235 O   0  0  0  0  0  0  0  0  0  0  0  0
    7.0939  -11.5990   28.0011 O   0  0  0  0  0  0  0  0  0  0  0  0
    7.1081  -12.2216   26.7408 C   0  0  0  0  0  0  0  0  0  0  0  0
    6.2714  -13.2675   26.4390 C   0  0  0  0  0  0  0  0  0  0  0  0
    6.2596  -13.9046   25.2049 C   0  0  0  0  0  0  0  0  0  0  0  0
    7.1365  -13.4523   24.2489 C   0  0  0  0  0  0  0  0  0  0  0  0
    7.1579  -14.1017   22.9185 C   0  0  0  0  0  0  0  0  0  0  0  0
    8.3418  -15.0427   22.7481 C   0  0  2  0  0  0  0  0  0  0  0  0
    8.2824  -15.7131   21.4634 N   0  0  0  0  0  0  0  0  0  0  0  0
    8.5066  -15.9799   23.8784 C   0  0  0  0  0  0  0  0  0  0  0  0
    7.6836  -16.9475   24.0350 O   0  0  0  0  0  0  0  0  0  0  0  0
    7.9864  -12.4051   24.5254 C   0  0  0  0  0  0  0  0  0  0  0  0
    7.9804  -11.7789   25.7755 C   0  0  0  0  0  0  0  0  0  0  0  0
    9.5529  -15.8739   24.8299 N   0  0  0  0  0  0  0  0  0  0  0  0
    9.6951  -16.9328   25.8477 C   0  0  1  0  0  0  0  0  0  0  0  0
   11.0595  -17.5791   25.7076 C   0  0  0  0  0  0  0  0  0  0  0  0
   10.9947  -19.0610   25.5302 C   0  0  0  0  0  0  0  0  0  0  0  0
   11.8636  -19.5439   24.3854 C   0  0  0  0  0  0  0  0  0  0  0  0
   11.6205  -21.0275   24.1841 C   0  0  0  0  0  0  0  0  0  0  0  0
   12.3102  -21.5298   23.0171 N   0  0  0  0  0  0  0  0  0  0  0  0
    9.6002  -16.3068   27.1681 C   0  0  0  0  0  0  0  0  0  0  0  0
    9.6155  -17.0824   28.3054 O   0  0  0  0  0  0  0  0  0  0  0  0
    9.5034  -15.0700   27.2813 O   0  0  0  0  0  0  0  0  0  0  0  0
  2  3  1  0
  2  1  1  6
  3  4  1  0
  5  2  1  0
  5  6  2  0
  8  9  2  0
  8  7  1  0
 10  9  1  0
 11 10  2  0
 12 11  1  0
 13 12  1  1
 13 14  1  0
 14  5  1  0
 15 13  1  0
 15 19  1  0
 16 15  2  0
 17 11  1  0
 17 18  2  0
 18  8  1  0
 20 19  1  0
 20 26  1  0
 20 21  1  1
 22 21  1  0
 23 22  1  0
 24 23  1  0
 25 24  1  0
 26 28  2  0
 26 27  1  0
M  END
$$$$
