CYK.pdb
     RDKit          3D

 28 28  0  0  1  0  0  0  0  0999 V2000
    7.7848  -13.4076   19.9362 N   0  0  0  0  0  0  0  0  0  0  0  0
    7.2968  -14.6343   20.5980 C   0  0  1  0  0  0  0  0  0  0  0  0
    7.5838  -15.7973   19.6470 C   0  0  0  0  0  0  0  0  0  0  0  0
    6.0847  -16.6773   19.1903 S   0  0  0  0  0  0  0  0  0  0  0  0
    8.0871  -14.7895   21.8262 C   0  0  0  0  0  0  0  0  0  0  0  0
    9.3429  -14.5507   21.8410 O   0  0  0  0  0  0  0  0  0  0  0  0
    6.1808   -9.8465   26.5782 O   0  0  0  0  0  0  0  0  0  0  0  0
    6.5344  -11.1822   26.3192 C   0  0  0  0  0  0  0  0  0  0  0  0
    7.8438  -11.5950   26.2990 C   0  0  0  0  0  0  0  0  0  0  0  0
    8.2276  -12.9057   26.0467 C   0  0  0  0  0  0  0  0  0  0  0  0
    7.2332  -13.8231   25.8072 C   0  0  0  0  0  0  0  0  0  0  0  0
    7.5966  -15.2322   25.5342 C   0  0  0  0  0  0  0  0  0  0  0  0
    8.4085  -15.3878   24.2564 C   0  0  2  0  0  0  0  0  0  0  0  0
    7.5668  -15.2058   23.0894 N   0  0  0  0  0  0  0  0  0  0  0  0
    9.1885  -16.6418   24.2126 C   0  0  0  0  0  0  0  0  0  0  0  0
    8.6311  -17.7315   23.8384 O   0  0  0  0  0  0  0  0  0  0  0  0
    5.9122  -13.4357   25.8216 C   0  0  0  0  0  0  0  0  0  0  0  0
    5.5497  -12.1100   26.0780 C   0  0  0  0  0  0  0  0  0  0  0  0
   10.5595  -16.7174   24.5675 N   0  0  0  0  0  0  0  0  0  0  0  0
   11.2623  -18.0053   24.4103 C   0  0  1  0  0  0  0  0  0  0  0  0
   12.6611  -17.7491   23.8844 C   0  0  0  0  0  0  0  0  0  0  0  0
   13.4988  -18.9838   23.8103 C   0  0  0  0  0  0  0  0  0  0  0  0
   14.8961  -18.7033   23.2930 C   0  0  0  0  0  0  0  0  0  0  0  0
   15.6327  -20.0210   23.1463 C   0  0  0  0  0  0  0  0  0  0  0  0
   16.9903  -19.8278   22.6883 N   0  0  0  0  0  0  0  0  0  0  0  0
   11.3592  -18.6319   25.7301 C   0  0  0  0  0  0  0  0  0  0  0  0
   11.7465  -19.9479   25.8457 O   0  0  0  0  0  0  0  0  0  0  0  0
   11.0928  -17.9875   26.7624 O   0  0  0  0  0  0  0  0  0  0  0  0
  2  3  1  0
  2  1  1  6
  3  4  1  0
  5  2  1  0
  5  6  2  0
  8  9  2  0
  8  7  1  0
 10  9  1  0
 11 10  2  0
 12 11  1  0
 13 12  1  1
 13 14  1  0
 14  5  1  0
 15 13  1  0
 15 19  1  0
 16 15  2  0
 17 11  1  0
 17 18  2  0
 18  8  1  0
 20 19  1  0
 20 26  1  0
 20 21  1  1
 22 21  1  0
 23 22  1  0
 24 23  1  0
 25 24  1  0
 26 28  2  0
 26 27  1  0
M  END
$$$$
