CYK.pdb
     RDKit          3D

 28 28  0  0  1  0  0  0  0  0999 V2000
   10.0658  -16.4091   18.5855 N   0  0  0  0  0  0  0  0  0  0  0  0
    8.8109  -16.6880   19.3124 C   0  0  1  0  0  0  0  0  0  0  0  0
    8.7118  -18.2070   19.4625 C   0  0  0  0  0  0  0  0  0  0  0  0
    7.3150  -18.6913   20.4845 S   0  0  0  0  0  0  0  0  0  0  0  0
    8.9469  -16.0654   20.6357 C   0  0  0  0  0  0  0  0  0  0  0  0
   10.0504  -16.1110   21.2795 O   0  0  0  0  0  0  0  0  0  0  0  0
    7.2843  -12.0466   28.3723 O   0  0  0  0  0  0  0  0  0  0  0  0
    7.1892  -12.5223   27.0528 C   0  0  0  0  0  0  0  0  0  0  0  0
    6.4137  -13.6076   26.7271 C   0  0  0  0  0  0  0  0  0  0  0  0
    6.2975  -14.1030   25.4349 C   0  0  0  0  0  0  0  0  0  0  0  0
    7.0013  -13.4623   24.4440 C   0  0  0  0  0  0  0  0  0  0  0  0
    6.9064  -13.9561   23.0514 C   0  0  0  0  0  0  0  0  0  0  0  0
    8.0777  -14.8492   22.6685 C   0  0  2  0  0  0  0  0  0  0  0  0
    7.9086  -15.3676   21.3246 N   0  0  0  0  0  0  0  0  0  0  0  0
    8.3507  -15.9075   23.6627 C   0  0  0  0  0  0  0  0  0  0  0  0
    7.5358  -16.8850   23.7996 O   0  0  0  0  0  0  0  0  0  0  0  0
    7.7863  -12.3717   24.7433 C   0  0  0  0  0  0  0  0  0  0  0  0
    7.8879  -11.8906   26.0521 C   0  0  0  0  0  0  0  0  0  0  0  0
    9.4954  -15.9111   24.4999 N   0  0  0  0  0  0  0  0  0  0  0  0
    9.7011  -17.0507   25.4144 C   0  0  1  0  0  0  0  0  0  0  0  0
   10.9922  -17.7567   25.0490 C   0  0  0  0  0  0  0  0  0  0  0  0
   10.9997  -18.2867   23.6523 C   0  0  0  0  0  0  0  0  0  0  0  0
   12.3027  -18.9800   23.3049 C   0  0  0  0  0  0  0  0  0  0  0  0
   12.2597  -19.3904   21.8454 C   0  0  0  0  0  0  0  0  0  0  0  0
   13.5237  -19.9370   21.4052 N   0  0  0  0  0  0  0  0  0  0  0  0
    9.8178  -16.5232   26.7754 C   0  0  0  0  0  0  0  0  0  0  0  0
    9.8022  -15.1643   26.9956 O   0  0  0  0  0  0  0  0  0  0  0  0
    9.9335  -17.2919   27.7488 O   0  0  0  0  0  0  0  0  0  0  0  0
  2  3  1  0
  2  1  1  6
  3  4  1  0
  5  2  1  0
  5  6  2  0
  8  9  2  0
  8  7  1  0
 10  9  1  0
 11 10  2  0
 12 11  1  0
 13 12  1  1
 13 14  1  0
 14  5  1  0
 15 13  1  0
 15 19  1  0
 16 15  2  0
 17 11  1  0
 17 18  2  0
 18  8  1  0
 20 19  1  0
 20 26  1  0
 20 21  1  6
 22 21  1  0
 23 22  1  0
 24 23  1  0
 25 24  1  0
 26 28  2  0
 26 27  1  0
M  END
$$$$
