CYK.pdb
     RDKit          3D

 28 28  0  0  1  0  0  0  0  0999 V2000
    6.5506  -21.8564   17.6246 N   0  0  0  0  0  0  0  0  0  0  0  0
    6.6929  -21.2804   18.9769 C   0  0  1  0  0  0  0  0  0  0  0  0
    6.0014  -22.2417   19.9451 C   0  0  0  0  0  0  0  0  0  0  0  0
    5.9818  -21.6041   21.6253 S   0  0  0  0  0  0  0  0  0  0  0  0
    8.1328  -21.2365   19.2632 C   0  0  0  0  0  0  0  0  0  0  0  0
    8.9212  -22.1491   18.8389 O   0  0  0  0  0  0  0  0  0  0  0  0
   11.3570  -19.8590   14.0226 O   0  0  0  0  0  0  0  0  0  0  0  0
   11.2543  -19.6747   15.4125 C   0  0  0  0  0  0  0  0  0  0  0  0
   12.1639  -20.2187   16.2855 C   0  0  0  0  0  0  0  0  0  0  0  0
   12.0920  -20.0564   17.6629 C   0  0  0  0  0  0  0  0  0  0  0  0
   11.0510  -19.3103   18.1604 C   0  0  0  0  0  0  0  0  0  0  0  0
   10.9355  -19.1107   19.6229 C   0  0  0  0  0  0  0  0  0  0  0  0
   10.2079  -20.2562   20.3119 C   0  0  2  0  0  0  0  0  0  0  0  0
    8.7890  -20.2144   20.0144 N   0  0  0  0  0  0  0  0  0  0  0  0
   10.4895  -20.3359   21.7602 C   0  0  0  0  0  0  0  0  0  0  0  0
    9.9172  -19.5273   22.5706 O   0  0  0  0  0  0  0  0  0  0  0  0
   10.1251  -18.7536   17.3071 C   0  0  0  0  0  0  0  0  0  0  0  0
   10.2179  -18.9307   15.9233 C   0  0  0  0  0  0  0  0  0  0  0  0
   11.3797  -21.2826   22.3281 N   0  0  0  0  0  0  0  0  0  0  0  0
   11.6639  -21.2094   23.7742 C   0  0  1  0  0  0  0  0  0  0  0  0
   12.2477  -22.5306   24.2351 C   0  0  0  0  0  0  0  0  0  0  0  0
   12.4724  -22.5934   25.7107 C   0  0  0  0  0  0  0  0  0  0  0  0
   12.9126  -23.9698   26.1696 C   0  0  0  0  0  0  0  0  0  0  0  0
   13.0693  -23.9511   27.6781 C   0  0  0  0  0  0  0  0  0  0  0  0
   13.2102  -25.2846   28.2186 N   0  0  0  0  0  0  0  0  0  0  0  0
   12.6550  -20.1528   23.9875 C   0  0  0  0  0  0  0  0  0  0  0  0
   13.7326  -20.0319   23.1392 O   0  0  0  0  0  0  0  0  0  0  0  0
   12.5393  -19.3527   24.9352 O   0  0  0  0  0  0  0  0  0  0  0  0
  2  3  1  0
  2  1  1  6
  3  4  1  0
  5  2  1  0
  5  6  2  0
  8  9  2  0
  8  7  1  0
 10  9  1  0
 11 10  2  0
 12 11  1  0
 13 12  1  1
 13 14  1  0
 14  5  1  0
 15 13  1  0
 15 19  1  0
 16 15  2  0
 17 11  1  0
 17 18  2  0
 18  8  1  0
 20 19  1  0
 20 26  1  0
 20 21  1  6
 22 21  1  0
 23 22  1  0
 24 23  1  0
 25 24  1  0
 26 28  2  0
 26 27  1  0
M  END
$$$$
