CYK.pdb
     RDKit          3D

 28 28  0  0  1  0  0  0  0  0999 V2000
    8.2013  -19.0661   19.7145 N   0  0  0  0  0  0  0  0  0  0  0  0
    9.3927  -18.3129   19.2738 C   0  0  1  0  0  0  0  0  0  0  0  0
    8.9878  -17.5322   18.0223 C   0  0  0  0  0  0  0  0  0  0  0  0
    7.8293  -18.4525   17.0020 S   0  0  0  0  0  0  0  0  0  0  0  0
    9.7214  -17.3784   20.3582 C   0  0  0  0  0  0  0  0  0  0  0  0
   10.7153  -16.5795   20.2663 O   0  0  0  0  0  0  0  0  0  0  0  0
    6.6866  -12.0395   18.9174 O   0  0  0  0  0  0  0  0  0  0  0  0
    7.1045  -12.8868   19.9585 C   0  0  0  0  0  0  0  0  0  0  0  0
    8.2803  -12.6779   20.6359 C   0  0  0  0  0  0  0  0  0  0  0  0
    8.7225  -13.4948   21.6683 C   0  0  0  0  0  0  0  0  0  0  0  0
    7.9304  -14.5621   22.0166 C   0  0  0  0  0  0  0  0  0  0  0  0
    8.3625  -15.4592   23.1123 C   0  0  0  0  0  0  0  0  0  0  0  0
    9.4574  -16.4234   22.6788 C   0  0  2  0  0  0  0  0  0  0  0  0
    9.0003  -17.2591   21.5851 N   0  0  0  0  0  0  0  0  0  0  0  0
   10.0233  -17.2021   23.7997 C   0  0  0  0  0  0  0  0  0  0  0  0
    9.3249  -18.1138   24.3647 O   0  0  0  0  0  0  0  0  0  0  0  0
    6.7465  -14.7943   21.3535 C   0  0  0  0  0  0  0  0  0  0  0  0
    6.3216  -13.9579   20.3168 C   0  0  0  0  0  0  0  0  0  0  0  0
   11.3331  -16.9992   24.3040 N   0  0  0  0  0  0  0  0  0  0  0  0
   11.9951  -18.1051   25.0224 C   0  0  1  0  0  0  0  0  0  0  0  0
   13.4744  -18.1010   24.6901 C   0  0  0  0  0  0  0  0  0  0  0  0
   14.2139  -19.2591   25.2763 C   0  0  0  0  0  0  0  0  0  0  0  0
   15.6954  -19.2198   24.9562 C   0  0  0  0  0  0  0  0  0  0  0  0
   16.3444  -20.4747   25.5081 C   0  0  0  0  0  0  0  0  0  0  0  0
   17.7127  -20.6109   25.0616 N   0  0  0  0  0  0  0  0  0  0  0  0
   11.8311  -17.8737   26.4590 C   0  0  0  0  0  0  0  0  0  0  0  0
   12.1586  -18.8603   27.3617 O   0  0  0  0  0  0  0  0  0  0  0  0
   11.3939  -16.7872   26.8834 O   0  0  0  0  0  0  0  0  0  0  0  0
  2  3  1  0
  2  1  1  1
  3  4  1  0
  5  2  1  0
  5  6  2  0
  8  9  2  0
  8  7  1  0
 10  9  1  0
 11 10  2  0
 12 11  1  0
 13 12  1  1
 13 14  1  0
 14  5  1  0
 15 13  1  0
 15 19  1  0
 16 15  2  0
 17 11  1  0
 17 18  2  0
 18  8  1  0
 20 19  1  0
 20 26  1  0
 20 21  1  1
 22 21  1  0
 23 22  1  0
 24 23  1  0
 25 24  1  0
 26 28  2  0
 26 27  1  0
M  END
$$$$
