CYK.pdb
     RDKit          3D

 28 28  0  0  1  0  0  0  0  0999 V2000
    8.9671  -16.6049   19.4758 N   0  0  0  0  0  0  0  0  0  0  0  0
    8.0552  -16.8500   20.6113 C   0  0  1  0  0  0  0  0  0  0  0  0
    7.7375  -18.3463   20.6119 C   0  0  0  0  0  0  0  0  0  0  0  0
    6.8619  -18.8478   19.1248 S   0  0  0  0  0  0  0  0  0  0  0  0
    8.7988  -16.4990   21.8282 C   0  0  0  0  0  0  0  0  0  0  0  0
   10.0727  -16.3909   21.8187 O   0  0  0  0  0  0  0  0  0  0  0  0
   10.9208  -14.2341   30.1482 O   0  0  0  0  0  0  0  0  0  0  0  0
   10.2151  -14.5120   28.9645 C   0  0  0  0  0  0  0  0  0  0  0  0
   10.0854  -13.5826   27.9621 C   0  0  0  0  0  0  0  0  0  0  0  0
    9.3956  -13.8242   26.7811 C   0  0  0  0  0  0  0  0  0  0  0  0
    8.8199  -15.0618   26.6244 C   0  0  0  0  0  0  0  0  0  0  0  0
    8.0753  -15.3634   25.3806 C   0  0  0  0  0  0  0  0  0  0  0  0
    8.9888  -15.8094   24.2480 C   0  0  2  0  0  0  0  0  0  0  0  0
    8.2108  -16.2482   23.1053 N   0  0  0  0  0  0  0  0  0  0  0  0
    9.9977  -16.8021   24.6718 C   0  0  0  0  0  0  0  0  0  0  0  0
   11.0296  -16.4274   25.3298 O   0  0  0  0  0  0  0  0  0  0  0  0
    8.9348  -16.0121   27.6139 C   0  0  0  0  0  0  0  0  0  0  0  0
    9.6344  -15.7460   28.7949 C   0  0  0  0  0  0  0  0  0  0  0  0
    9.8915  -18.1878   24.3893 N   0  0  0  0  0  0  0  0  0  0  0  0
   11.0340  -19.0656   24.7078 C   0  0  1  0  0  0  0  0  0  0  0  0
   12.3132  -18.4177   24.2151 C   0  0  0  0  0  0  0  0  0  0  0  0
   13.0786  -19.2747   23.2604 C   0  0  0  0  0  0  0  0  0  0  0  0
   14.2758  -18.5549   22.6708 C   0  0  0  0  0  0  0  0  0  0  0  0
   14.9449  -19.4708   21.6639 C   0  0  0  0  0  0  0  0  0  0  0  0
   16.1560  -18.8877   21.1315 N   0  0  0  0  0  0  0  0  0  0  0  0
   11.1040  -19.2067   26.1636 C   0  0  0  0  0  0  0  0  0  0  0  0
   12.0601  -20.0150   26.7363 O   0  0  0  0  0  0  0  0  0  0  0  0
   10.3032  -18.6018   26.9015 O   0  0  0  0  0  0  0  0  0  0  0  0
  2  3  1  0
  2  1  1  6
  3  4  1  0
  5  2  1  0
  5  6  2  0
  8  9  2  0
  8  7  1  0
 10  9  1  0
 11 10  2  0
 12 11  1  0
 13 12  1  1
 13 14  1  0
 14  5  1  0
 15 13  1  0
 15 19  1  0
 16 15  2  0
 17 11  1  0
 17 18  2  0
 18  8  1  0
 20 19  1  0
 20 26  1  0
 20 21  1  1
 22 21  1  0
 23 22  1  0
 24 23  1  0
 25 24  1  0
 26 28  2  0
 26 27  1  0
M  END
$$$$
