CYK.pdb
     RDKit          3D

 28 28  0  0  1  0  0  0  0  0999 V2000
    9.6551  -16.5021   18.4612 N   0  0  0  0  0  0  0  0  0  0  0  0
    8.3782  -16.5776   19.1993 C   0  0  1  0  0  0  0  0  0  0  0  0
    8.0311  -18.0609   19.3372 C   0  0  0  0  0  0  0  0  0  0  0  0
    7.2131  -18.6987   17.8695 S   0  0  0  0  0  0  0  0  0  0  0  0
    8.6275  -15.9997   20.5263 C   0  0  0  0  0  0  0  0  0  0  0  0
    9.7392  -16.1821   21.1306 O   0  0  0  0  0  0  0  0  0  0  0  0
    7.5521  -12.1502   28.4544 O   0  0  0  0  0  0  0  0  0  0  0  0
    7.3886  -12.5497   27.1165 C   0  0  0  0  0  0  0  0  0  0  0  0
    6.7826  -13.7357   26.7825 C   0  0  0  0  0  0  0  0  0  0  0  0
    6.6051  -14.1602   25.4721 C   0  0  0  0  0  0  0  0  0  0  0  0
    7.0654  -13.3392   24.4712 C   0  0  0  0  0  0  0  0  0  0  0  0
    6.8968  -13.7518   23.0593 C   0  0  0  0  0  0  0  0  0  0  0  0
    7.9699  -14.7313   22.6061 C   0  0  2  0  0  0  0  0  0  0  0  0
    7.6985  -15.2021   21.2614 N   0  0  0  0  0  0  0  0  0  0  0  0
    8.1949  -15.8317   23.5660 C   0  0  0  0  0  0  0  0  0  0  0  0
    7.3571  -16.7961   23.6446 O   0  0  0  0  0  0  0  0  0  0  0  0
    7.6767  -12.1446   24.7785 C   0  0  0  0  0  0  0  0  0  0  0  0
    7.8444  -11.7378   26.1057 C   0  0  0  0  0  0  0  0  0  0  0  0
    9.3167  -15.8909   24.4317 N   0  0  0  0  0  0  0  0  0  0  0  0
    9.5509  -17.1257   25.2048 C   0  0  1  0  0  0  0  0  0  0  0  0
   10.7104  -17.8859   24.5910 C   0  0  0  0  0  0  0  0  0  0  0  0
   11.0709  -19.1229   25.3471 C   0  0  0  0  0  0  0  0  0  0  0  0
   12.2646  -19.8393   24.7465 C   0  0  0  0  0  0  0  0  0  0  0  0
   12.5506  -21.0802   25.5705 C   0  0  0  0  0  0  0  0  0  0  0  0
   13.7610  -21.7426   25.1389 N   0  0  0  0  0  0  0  0  0  0  0  0
    9.9061  -16.7426   26.5727 C   0  0  0  0  0  0  0  0  0  0  0  0
    9.8734  -17.6758   27.5843 O   0  0  0  0  0  0  0  0  0  0  0  0
   10.2400  -15.5727   26.8403 O   0  0  0  0  0  0  0  0  0  0  0  0
  2  3  1  0
  2  1  1  6
  3  4  1  0
  5  2  1  0
  5  6  2  0
  8  9  2  0
  8  7  1  0
 10  9  1  0
 11 10  2  0
 12 11  1  0
 13 12  1  1
 13 14  1  0
 14  5  1  0
 15 13  1  0
 15 19  1  0
 16 15  2  0
 17 11  1  0
 17 18  2  0
 18  8  1  0
 20 19  1  0
 20 26  1  0
 20 21  1  6
 22 21  1  0
 23 22  1  0
 24 23  1  0
 25 24  1  0
 26 28  2  0
 26 27  1  0
M  END
$$$$
