CYK.pdb
     RDKit          3D

 28 28  0  0  1  0  0  0  0  0999 V2000
    5.8606  -21.0477   23.2072 N   0  0  0  0  0  0  0  0  0  0  0  0
    6.1124  -19.8270   23.9992 C   0  0  1  0  0  0  0  0  0  0  0  0
    7.1031  -20.2077   25.1007 C   0  0  0  0  0  0  0  0  0  0  0  0
    7.1152  -19.0068   26.4378 S   0  0  0  0  0  0  0  0  0  0  0  0
    6.7318  -18.8569   23.0868 C   0  0  0  0  0  0  0  0  0  0  0  0
    7.5591  -19.2287   22.1859 O   0  0  0  0  0  0  0  0  0  0  0  0
    8.9749  -11.6838   18.4614 O   0  0  0  0  0  0  0  0  0  0  0  0
    8.3815  -12.5481   19.3980 C   0  0  0  0  0  0  0  0  0  0  0  0
    7.8722  -13.7707   19.0359 C   0  0  0  0  0  0  0  0  0  0  0  0
    7.2800  -14.6481   19.9350 C   0  0  0  0  0  0  0  0  0  0  0  0
    7.2085  -14.2566   21.2501 C   0  0  0  0  0  0  0  0  0  0  0  0
    6.5858  -15.1609   22.2434 C   0  0  0  0  0  0  0  0  0  0  0  0
    7.2700  -16.5189   22.3049 C   0  0  2  0  0  0  0  0  0  0  0  0
    6.4913  -17.4492   23.0997 N   0  0  0  0  0  0  0  0  0  0  0  0
    8.6820  -16.4394   22.7325 C   0  0  0  0  0  0  0  0  0  0  0  0
    9.5446  -15.8514   21.9921 O   0  0  0  0  0  0  0  0  0  0  0  0
    7.7116  -13.0359   21.6400 C   0  0  0  0  0  0  0  0  0  0  0  0
    8.3036  -12.1688   20.7166 C   0  0  0  0  0  0  0  0  0  0  0  0
    9.1574  -16.9883   23.9507 N   0  0  0  0  0  0  0  0  0  0  0  0
   10.5653  -16.7601   24.3292 C   0  0  1  0  0  0  0  0  0  0  0  0
   10.8474  -17.4584   25.6451 C   0  0  0  0  0  0  0  0  0  0  0  0
   12.2952  -17.4602   26.0134 C   0  0  0  0  0  0  0  0  0  0  0  0
   12.5714  -18.2694   27.2655 C   0  0  0  0  0  0  0  0  0  0  0  0
   14.0648  -18.2589   27.5303 C   0  0  0  0  0  0  0  0  0  0  0  0
   14.4000  -18.9811   28.7370 N   0  0  0  0  0  0  0  0  0  0  0  0
   11.4139  -17.3463   23.2898 C   0  0  0  0  0  0  0  0  0  0  0  0
   12.5731  -16.7126   22.9025 O   0  0  0  0  0  0  0  0  0  0  0  0
   11.1006  -18.4206   22.7425 O   0  0  0  0  0  0  0  0  0  0  0  0
  2  3  1  0
  2  1  1  6
  3  4  1  0
  5  2  1  0
  5  6  2  0
  8  9  2  0
  8  7  1  0
 10  9  1  0
 11 10  2  0
 12 11  1  0
 13 12  1  1
 13 14  1  0
 14  5  1  0
 15 13  1  0
 15 19  1  0
 16 15  2  0
 17 11  1  0
 17 18  2  0
 18  8  1  0
 20 19  1  0
 20 26  1  0
 20 21  1  1
 22 21  1  0
 23 22  1  0
 24 23  1  0
 25 24  1  0
 26 28  2  0
 26 27  1  0
M  END
$$$$
