CYK.pdb
     RDKit          3D

 28 28  0  0  1  0  0  0  0  0999 V2000
    8.0709  -14.6430   19.5924 N   0  0  0  0  0  0  0  0  0  0  0  0
    7.3520  -15.2609   20.7247 C   0  0  1  0  0  0  0  0  0  0  0  0
    7.1907  -16.7452   20.3927 C   0  0  0  0  0  0  0  0  0  0  0  0
    5.7524  -17.0500   19.3589 S   0  0  0  0  0  0  0  0  0  0  0  0
    8.2152  -15.1058   21.9028 C   0  0  0  0  0  0  0  0  0  0  0  0
    9.4887  -15.1562   21.8027 O   0  0  0  0  0  0  0  0  0  0  0  0
   11.1116  -14.9375   30.2934 O   0  0  0  0  0  0  0  0  0  0  0  0
   10.3208  -14.8165   29.1373 C   0  0  0  0  0  0  0  0  0  0  0  0
    9.5370  -15.8484   28.6834 C   0  0  0  0  0  0  0  0  0  0  0  0
    8.7445  -15.7624   27.5461 C   0  0  0  0  0  0  0  0  0  0  0  0
    8.7576  -14.5769   26.8518 C   0  0  0  0  0  0  0  0  0  0  0  0
    7.9274  -14.4404   25.6335 C   0  0  0  0  0  0  0  0  0  0  0  0
    8.6334  -14.9530   24.3865 C   0  0  2  0  0  0  0  0  0  0  0  0
    7.7521  -14.8894   23.2363 N   0  0  0  0  0  0  0  0  0  0  0  0
    9.2431  -16.2862   24.5705 C   0  0  0  0  0  0  0  0  0  0  0  0
    8.4997  -17.3227   24.6761 O   0  0  0  0  0  0  0  0  0  0  0  0
    9.5347  -13.5263   27.2852 C   0  0  0  0  0  0  0  0  0  0  0  0
   10.3247  -13.6362   28.4335 C   0  0  0  0  0  0  0  0  0  0  0  0
   10.6438  -16.4979   24.6374 N   0  0  0  0  0  0  0  0  0  0  0  0
   11.1459  -17.8780   24.7808 C   0  0  1  0  0  0  0  0  0  0  0  0
   12.2611  -18.1095   23.7800 C   0  0  0  0  0  0  0  0  0  0  0  0
   11.7890  -18.1191   22.3626 C   0  0  0  0  0  0  0  0  0  0  0  0
   12.9152  -18.3772   21.3808 C   0  0  0  0  0  0  0  0  0  0  0  0
   12.3827  -18.1933   19.9726 C   0  0  0  0  0  0  0  0  0  0  0  0
   13.4078  -18.4198   18.9785 N   0  0  0  0  0  0  0  0  0  0  0  0
   11.6852  -18.0249   26.1342 C   0  0  0  0  0  0  0  0  0  0  0  0
   12.1061  -16.9180   26.8363 O   0  0  0  0  0  0  0  0  0  0  0  0
   11.7720  -19.1476   26.6671 O   0  0  0  0  0  0  0  0  0  0  0  0
  2  3  1  0
  2  1  1  6
  3  4  1  0
  5  2  1  0
  5  6  2  0
  8  9  2  0
  8  7  1  0
 10  9  1  0
 11 10  2  0
 12 11  1  0
 13 12  1  1
 13 14  1  0
 14  5  1  0
 15 13  1  0
 15 19  1  0
 16 15  2  0
 17 11  1  0
 17 18  2  0
 18  8  1  0
 20 19  1  0
 20 26  1  0
 20 21  1  6
 22 21  1  0
 23 22  1  0
 24 23  1  0
 25 24  1  0
 26 28  2  0
 26 27  1  0
M  END
$$$$
