CYK.pdb
     RDKit          3D

 28 28  0  0  1  0  0  0  0  0999 V2000
    7.2466  -15.5713   19.9767 N   0  0  0  0  0  0  0  0  0  0  0  0
    6.5512  -16.2534   21.0867 C   0  0  1  0  0  0  0  0  0  0  0  0
    6.5620  -17.7490   20.7664 C   0  0  0  0  0  0  0  0  0  0  0  0
    8.2325  -18.4080   20.6920 S   0  0  0  0  0  0  0  0  0  0  0  0
    7.3438  -15.9982   22.2965 C   0  0  0  0  0  0  0  0  0  0  0  0
    8.5720  -15.6508   22.2234 O   0  0  0  0  0  0  0  0  0  0  0  0
    6.5588   -9.7940   26.1457 O   0  0  0  0  0  0  0  0  0  0  0  0
    6.6454  -11.1966   26.1082 C   0  0  0  0  0  0  0  0  0  0  0  0
    5.7133  -11.9975   26.7207 C   0  0  0  0  0  0  0  0  0  0  0  0
    5.7689  -13.3851   26.7031 C   0  0  0  0  0  0  0  0  0  0  0  0
    6.8168  -13.9697   26.0340 C   0  0  0  0  0  0  0  0  0  0  0  0
    6.9156  -15.4463   25.9890 C   0  0  0  0  0  0  0  0  0  0  0  0
    7.7145  -15.9409   24.7918 C   0  0  2  0  0  0  0  0  0  0  0  0
    6.8554  -16.1030   23.6345 N   0  0  0  0  0  0  0  0  0  0  0  0
    8.5159  -17.1468   25.0861 C   0  0  0  0  0  0  0  0  0  0  0  0
    7.9550  -18.2966   25.1241 O   0  0  0  0  0  0  0  0  0  0  0  0
    7.7652  -13.1899   25.4113 C   0  0  0  0  0  0  0  0  0  0  0  0
    7.6885  -11.7942   25.4424 C   0  0  0  0  0  0  0  0  0  0  0  0
    9.9117  -17.1109   25.3348 N   0  0  0  0  0  0  0  0  0  0  0  0
   10.6192  -18.3808   25.5881 C   0  0  1  0  0  0  0  0  0  0  0  0
   12.0144  -18.3002   25.0000 C   0  0  0  0  0  0  0  0  0  0  0  0
   12.8078  -19.5516   25.1902 C   0  0  0  0  0  0  0  0  0  0  0  0
   14.2197  -19.4274   24.6515 C   0  0  0  0  0  0  0  0  0  0  0  0
   14.9431  -20.7409   24.8794 C   0  0  0  0  0  0  0  0  0  0  0  0
   16.2325  -20.7628   24.2258 N   0  0  0  0  0  0  0  0  0  0  0  0
   10.7251  -18.5583   27.0377 C   0  0  0  0  0  0  0  0  0  0  0  0
   10.6215  -17.4729   27.8782 O   0  0  0  0  0  0  0  0  0  0  0  0
   10.9107  -19.6878   27.5293 O   0  0  0  0  0  0  0  0  0  0  0  0
  2  3  1  0
  2  1  1  6
  3  4  1  0
  5  2  1  0
  5  6  2  0
  8  9  2  0
  8  7  1  0
 10  9  1  0
 11 10  2  0
 12 11  1  0
 13 12  1  1
 13 14  1  0
 14  5  1  0
 15 13  1  0
 15 19  1  0
 16 15  2  0
 17 11  1  0
 17 18  2  0
 18  8  1  0
 20 19  1  0
 20 26  1  0
 20 21  1  6
 22 21  1  0
 23 22  1  0
 24 23  1  0
 25 24  1  0
 26 28  2  0
 26 27  1  0
M  END
$$$$
