CYK.pdb
     RDKit          3D

 28 28  0  0  1  0  0  0  0  0999 V2000
    6.5280  -19.0267   17.5365 N   0  0  0  0  0  0  0  0  0  0  0  0
    6.5706  -19.1286   19.0092 C   0  0  1  0  0  0  0  0  0  0  0  0
    6.9783  -20.5642   19.3443 C   0  0  0  0  0  0  0  0  0  0  0  0
    5.6369  -21.4819   20.1115 S   0  0  0  0  0  0  0  0  0  0  0  0
    7.6116  -18.1972   19.4629 C   0  0  0  0  0  0  0  0  0  0  0  0
    8.6674  -17.9948   18.7710 O   0  0  0  0  0  0  0  0  0  0  0  0
    7.1476  -17.7142   27.2167 O   0  0  0  0  0  0  0  0  0  0  0  0
    7.3953  -17.1742   25.9426 C   0  0  0  0  0  0  0  0  0  0  0  0
    6.4729  -17.2549   24.9287 C   0  0  0  0  0  0  0  0  0  0  0  0
    6.6854  -16.7326   23.6595 C   0  0  0  0  0  0  0  0  0  0  0  0
    7.8853  -16.1063   23.4238 C   0  0  0  0  0  0  0  0  0  0  0  0
    8.1544  -15.5341   22.0850 C   0  0  0  0  0  0  0  0  0  0  0  0
    8.6513  -16.5772   21.0944 C   0  0  2  0  0  0  0  0  0  0  0  0
    7.5659  -17.4430   20.6748 N   0  0  0  0  0  0  0  0  0  0  0  0
    9.8287  -17.3258   21.5804 C   0  0  0  0  0  0  0  0  0  0  0  0
    9.6769  -18.4643   22.1453 O   0  0  0  0  0  0  0  0  0  0  0  0
    8.8277  -16.0115   24.4229 C   0  0  0  0  0  0  0  0  0  0  0  0
    8.5915  -16.5451   25.6935 C   0  0  0  0  0  0  0  0  0  0  0  0
   11.1587  -16.8496   21.4552 N   0  0  0  0  0  0  0  0  0  0  0  0
   12.2667  -17.7166   21.9002 C   0  0  1  0  0  0  0  0  0  0  0  0
   13.4036  -17.6252   20.9012 C   0  0  0  0  0  0  0  0  0  0  0  0
   13.0680  -18.2147   19.5702 C   0  0  0  0  0  0  0  0  0  0  0  0
   14.2134  -18.1011   18.5832 C   0  0  0  0  0  0  0  0  0  0  0  0
   13.8056  -18.7753   17.2872 C   0  0  0  0  0  0  0  0  0  0  0  0
   14.7351  -18.4872   16.2180 N   0  0  0  0  0  0  0  0  0  0  0  0
   12.7342  -17.2232   23.1972 C   0  0  0  0  0  0  0  0  0  0  0  0
   12.2245  -16.0557   23.7192 O   0  0  0  0  0  0  0  0  0  0  0  0
   13.5963  -17.8484   23.8435 O   0  0  0  0  0  0  0  0  0  0  0  0
  2  3  1  0
  2  1  1  6
  3  4  1  0
  5  2  1  0
  5  6  2  0
  8  9  2  0
  8  7  1  0
 10  9  1  0
 11 10  2  0
 12 11  1  0
 13 12  1  1
 13 14  1  0
 14  5  1  0
 15 13  1  0
 15 19  1  0
 16 15  2  0
 17 11  1  0
 17 18  2  0
 18  8  1  0
 20 19  1  0
 20 26  1  0
 20 21  1  6
 22 21  1  0
 23 22  1  0
 24 23  1  0
 25 24  1  0
 26 28  2  0
 26 27  1  0
M  END
$$$$
