YSV.pdb
     RDKit          3D

 26 26  0  0  1  0  0  0  0  0999 V2000
   34.2758  -32.0732  -20.9469 O   0  0  0  0  0  0  0  0  0  0  0  0
   33.2340  -31.7538  -20.0909 C   0  0  0  0  0  0  0  0  0  0  0  0
   33.2492  -30.5581  -19.4171 C   0  0  0  0  0  0  0  0  0  0  0  0
   32.1992  -30.2428  -18.5581 C   0  0  0  0  0  0  0  0  0  0  0  0
   31.1638  -31.1146  -18.3871 C   0  0  0  0  0  0  0  0  0  0  0  0
   30.0443  -30.7689  -17.4659 C   0  0  0  0  0  0  0  0  0  0  0  0
   28.8334  -30.2792  -18.2524 C   0  0  2  0  0  0  0  0  0  0  0  0
   29.1092  -28.9037  -18.6184 N   0  0  0  0  0  0  0  0  0  0  0  0
   27.6594  -30.3706  -17.3748 C   0  0  0  0  0  0  0  0  0  0  0  0
   27.3767  -29.3598  -16.6624 O   0  0  0  0  0  0  0  0  0  0  0  0
   31.1574  -32.3217  -19.0731 C   0  0  0  0  0  0  0  0  0  0  0  0
   32.1866  -32.6478  -19.9249 C   0  0  0  0  0  0  0  0  0  0  0  0
   24.4333  -32.0763  -18.4897 O   0  0  0  0  0  0  0  0  0  0  0  0
   24.4340  -31.3221  -17.3384 C   0  0  0  0  0  0  0  0  0  0  0  0
   25.6978  -31.5636  -16.4987 C   0  0  2  0  0  0  0  0  0  0  0  0
   26.8735  -31.5509  -17.3304 N   0  0  0  0  0  0  0  0  0  0  0  0
   25.5010  -32.9128  -15.8829 C   0  0  0  0  0  0  0  0  0  0  0  0
   25.9840  -33.9432  -16.4158 O   0  0  0  0  0  0  0  0  0  0  0  0
   23.4949  -32.8624  -12.2999 C   0  0  0  0  0  0  0  0  0  0  0  0
   24.5425  -33.9607  -12.5178 C   0  0  2  0  0  0  0  0  0  0  0  0
   25.8946  -33.5214  -12.0575 C   0  0  0  0  0  0  0  0  0  0  0  0
   24.5087  -34.2700  -14.0053 C   0  0  2  0  0  0  0  0  0  0  0  0
   24.7662  -33.0223  -14.6941 N   0  0  0  0  0  0  0  0  0  0  0  0
   23.1728  -34.7501  -14.4086 C   0  0  0  0  0  0  0  0  0  0  0  0
   22.8229  -36.0826  -14.2683 O   0  0  0  0  0  0  0  0  0  0  0  0
   22.3368  -33.9598  -14.8833 O   0  0  0  0  0  0  0  0  0  0  0  0
  2  3  2  0
  2  1  1  0
  4  3  1  0
  5  4  2  0
  6  5  1  0
  7  6  1  0
  7  9  1  0
  7  8  1  1
  9 16  1  0
  9 10  2  0
 11  5  1  0
 11 12  2  0
 12  2  1  0
 13 14  1  0
 15 14  1  6
 16 15  1  0
 17 15  1  0
 17 18  2  0
 20 19  1  6
 20 21  1  0
 20 22  1  0
 22 23  1  6
 23 17  1  0
 24 22  1  0
 25 24  1  0
 26 24  2  0
M  END
$$$$
