YSV.pdb
     RDKit          3D

 26 26  0  0  1  0  0  0  0  0999 V2000
   28.5038  -19.6996   -5.5295 O   0  0  0  0  0  0  0  0  0  0  0  0
   28.0081  -19.7952   -6.8200 C   0  0  0  0  0  0  0  0  0  0  0  0
   26.6796  -19.5462   -7.0588 C   0  0  0  0  0  0  0  0  0  0  0  0
   26.1875  -19.6439   -8.3581 C   0  0  0  0  0  0  0  0  0  0  0  0
   27.0181  -19.9842   -9.3854 C   0  0  0  0  0  0  0  0  0  0  0  0
   26.4828  -20.0864  -10.7727 C   0  0  0  0  0  0  0  0  0  0  0  0
   25.9078  -21.4757  -11.0253 C   0  0  2  0  0  0  0  0  0  0  0  0
   26.9711  -22.2585  -11.6242 N   0  0  0  0  0  0  0  0  0  0  0  0
   24.7712  -21.3324  -11.9442 C   0  0  0  0  0  0  0  0  0  0  0  0
   25.0212  -21.2822  -13.1868 O   0  0  0  0  0  0  0  0  0  0  0  0
   28.3605  -20.2342   -9.1338 C   0  0  0  0  0  0  0  0  0  0  0  0
   28.8619  -20.1420   -7.8566 C   0  0  0  0  0  0  0  0  0  0  0  0
   20.9233  -20.3634  -10.6929 O   0  0  0  0  0  0  0  0  0  0  0  0
   21.0033  -21.3304  -11.6689 C   0  0  0  0  0  0  0  0  0  0  0  0
   22.3561  -21.2963  -12.3966 C   0  0  2  0  0  0  0  0  0  0  0  0
   23.4428  -21.2535  -11.4525 N   0  0  0  0  0  0  0  0  0  0  0  0
   22.3213  -20.0471  -13.2191 C   0  0  0  0  0  0  0  0  0  0  0  0
   22.6648  -18.9417  -12.7303 O   0  0  0  0  0  0  0  0  0  0  0  0
   22.5074  -18.1775  -17.6467 C   0  0  0  0  0  0  0  0  0  0  0  0
   22.4701  -19.4274  -16.7592 C   0  0  2  0  0  0  0  0  0  0  0  0
   21.7109  -20.5361  -17.4129 C   0  0  0  0  0  0  0  0  0  0  0  0
   21.8361  -18.9828  -15.4516 C   0  0  2  0  0  0  0  0  0  0  0  0
   21.8984  -20.1175  -14.5538 N   0  0  0  0  0  0  0  0  0  0  0  0
   20.4165  -18.6331  -15.6520 C   0  0  0  0  0  0  0  0  0  0  0  0
   20.0529  -17.4005  -16.1679 O   0  0  0  0  0  0  0  0  0  0  0  0
   19.5207  -19.4456  -15.3585 O   0  0  0  0  0  0  0  0  0  0  0  0
  2  3  2  0
  2  1  1  0
  4  3  1  0
  5  4  2  0
  6  5  1  0
  7  6  1  0
  7  9  1  0
  7  8  1  6
  9 16  1  0
  9 10  2  0
 11  5  1  0
 11 12  2  0
 12  2  1  0
 13 14  1  0
 15 14  1  1
 16 15  1  0
 17 15  1  0
 17 18  2  0
 20 19  1  6
 20 21  1  0
 20 22  1  0
 22 23  1  1
 23 17  1  0
 24 22  1  0
 25 24  1  0
 26 24  2  0
M  END
$$$$
