YSV.pdb
     RDKit          3D

 26 26  0  0  1  0  0  0  0  0999 V2000
   17.4000  -13.2031  -21.8256 O   0  0  0  0  0  0  0  0  0  0  0  0
   17.4696  -12.3127  -20.7662 C   0  0  0  0  0  0  0  0  0  0  0  0
   18.6226  -11.5998  -20.5511 C   0  0  0  0  0  0  0  0  0  0  0  0
   18.6864  -10.7063  -19.4846 C   0  0  0  0  0  0  0  0  0  0  0  0
   17.6122  -10.5403  -18.6601 C   0  0  0  0  0  0  0  0  0  0  0  0
   17.6892   -9.5818  -17.5213 C   0  0  0  0  0  0  0  0  0  0  0  0
   18.3365  -10.2405  -16.3081 C   0  0  2  0  0  0  0  0  0  0  0  0
   17.3366  -11.1201  -15.7349 N   0  0  0  0  0  0  0  0  0  0  0  0
   18.7127   -9.1783  -15.3662 C   0  0  0  0  0  0  0  0  0  0  0  0
   17.7800   -8.5889  -14.7403 O   0  0  0  0  0  0  0  0  0  0  0  0
   16.4501  -11.2659  -18.8859 C   0  0  0  0  0  0  0  0  0  0  0  0
   16.3713  -12.1520  -19.9345 C   0  0  0  0  0  0  0  0  0  0  0  0
   22.4368   -9.0140  -13.7304 O   0  0  0  0  0  0  0  0  0  0  0  0
   21.3733   -8.3672  -13.1432 C   0  0  0  0  0  0  0  0  0  0  0  0
   20.3893   -7.8210  -14.1892 C   0  0  2  0  0  0  0  0  0  0  0  0
   20.0733   -8.8289  -15.1682 N   0  0  0  0  0  0  0  0  0  0  0  0
   21.1019   -6.6704  -14.8268 C   0  0  0  0  0  0  0  0  0  0  0  0
   21.8548   -6.8453  -15.8175 O   0  0  0  0  0  0  0  0  0  0  0  0
   19.6561   -3.6204  -16.1031 C   0  0  0  0  0  0  0  0  0  0  0  0
   20.5635   -3.1235  -14.9713 C   0  0  2  0  0  0  0  0  0  0  0  0
   21.1620   -1.7938  -15.2983 C   0  0  0  0  0  0  0  0  0  0  0  0
   21.6166   -4.2035  -14.7861 C   0  0  2  0  0  0  0  0  0  0  0  0
   20.9229   -5.3809  -14.3067 N   0  0  0  0  0  0  0  0  0  0  0  0
   22.6016   -3.8024  -13.7632 C   0  0  0  0  0  0  0  0  0  0  0  0
   23.8010   -3.2110  -14.1230 O   0  0  0  0  0  0  0  0  0  0  0  0
   22.3672   -3.9909  -12.5556 O   0  0  0  0  0  0  0  0  0  0  0  0
  2  3  2  0
  2  1  1  0
  4  3  1  0
  5  4  2  0
  6  5  1  0
  7  6  1  0
  7  9  1  0
  7  8  1  1
  9 16  1  0
  9 10  2  0
 11  5  1  0
 11 12  2  0
 12  2  1  0
 13 14  1  0
 15 14  1  1
 16 15  1  0
 17 15  1  0
 17 18  2  0
 20 19  1  6
 20 21  1  0
 20 22  1  0
 22 23  1  1
 23 17  1  0
 24 22  1  0
 25 24  1  0
 26 24  2  0
M  END
$$$$
