YSV.pdb
     RDKit          3D

 26 26  0  0  1  0  0  0  0  0999 V2000
   22.5589  -21.1155   -7.4855 O   0  0  0  0  0  0  0  0  0  0  0  0
   23.2968  -20.9001   -8.6385 C   0  0  0  0  0  0  0  0  0  0  0  0
   24.6579  -20.7440   -8.5560 C   0  0  0  0  0  0  0  0  0  0  0  0
   25.3940  -20.5278   -9.7184 C   0  0  0  0  0  0  0  0  0  0  0  0
   24.7682  -20.4715  -10.9294 C   0  0  0  0  0  0  0  0  0  0  0  0
   25.5639  -20.2398  -12.1682 C   0  0  0  0  0  0  0  0  0  0  0  0
   25.2774  -21.3242  -13.2010 C   0  0  2  0  0  0  0  0  0  0  0  0
   25.8963  -22.5381  -12.7058 N   0  0  0  0  0  0  0  0  0  0  0  0
   25.8767  -20.9032  -14.4740 C   0  0  0  0  0  0  0  0  0  0  0  0
   27.1261  -21.0673  -14.6193 O   0  0  0  0  0  0  0  0  0  0  0  0
   23.3909  -20.6306  -11.0026 C   0  0  0  0  0  0  0  0  0  0  0  0
   22.6499  -20.8448   -9.8641 C   0  0  0  0  0  0  0  0  0  0  0  0
   23.5121  -19.6706  -17.7334 O   0  0  0  0  0  0  0  0  0  0  0  0
   24.7055  -20.3297  -17.9222 C   0  0  0  0  0  0  0  0  0  0  0  0
   25.6928  -20.0623  -16.7757 C   0  0  2  0  0  0  0  0  0  0  0  0
   25.0804  -20.3339  -15.5008 N   0  0  0  0  0  0  0  0  0  0  0  0
   26.0417  -18.6125  -16.8960 C   0  0  0  0  0  0  0  0  0  0  0  0
   25.4268  -17.7424  -16.2298 O   0  0  0  0  0  0  0  0  0  0  0  0
   29.3778  -15.3569  -18.1654 C   0  0  0  0  0  0  0  0  0  0  0  0
   28.9782  -16.8048  -17.8569 C   0  0  2  0  0  0  0  0  0  0  0  0
   29.6701  -17.7658  -18.7685 C   0  0  0  0  0  0  0  0  0  0  0  0
   27.4664  -16.8529  -18.0033 C   0  0  2  0  0  0  0  0  0  0  0  0
   27.0704  -18.2257  -17.7662 N   0  0  0  0  0  0  0  0  0  0  0  0
   27.0628  -16.4889  -19.3753 C   0  0  0  0  0  0  0  0  0  0  0  0
   26.9843  -17.4469  -20.3721 O   0  0  0  0  0  0  0  0  0  0  0  0
   26.7856  -15.3089  -19.6576 O   0  0  0  0  0  0  0  0  0  0  0  0
  2  3  2  0
  2  1  1  0
  4  3  1  0
  5  4  2  0
  6  5  1  0
  7  6  1  0
  7  9  1  0
  7  8  1  1
  9 16  1  0
  9 10  2  0
 11  5  1  0
 11 12  2  0
 12  2  1  0
 13 14  1  0
 15 14  1  6
 16 15  1  0
 17 15  1  0
 17 18  2  0
 20 19  1  6
 20 21  1  0
 20 22  1  0
 22 23  1  6
 23 17  1  0
 24 22  1  0
 25 24  1  0
 26 24  2  0
M  END
$$$$
