YSV.pdb
     RDKit          3D

 26 26  0  0  1  0  0  0  0  0999 V2000
   21.6998  -28.7504  -11.3322 O   0  0  0  0  0  0  0  0  0  0  0  0
   22.2056  -29.7299  -10.4927 C   0  0  0  0  0  0  0  0  0  0  0  0
   23.2322  -29.4262   -9.6338 C   0  0  0  0  0  0  0  0  0  0  0  0
   23.7363  -30.4151   -8.7924 C   0  0  0  0  0  0  0  0  0  0  0  0
   23.2146  -31.6753   -8.8210 C   0  0  0  0  0  0  0  0  0  0  0  0
   23.7601  -32.7273   -7.9171 C   0  0  0  0  0  0  0  0  0  0  0  0
   25.1623  -33.1366   -8.3544 C   0  0  2  0  0  0  0  0  0  0  0  0
   25.0080  -33.8761   -9.5918 N   0  0  0  0  0  0  0  0  0  0  0  0
   25.7347  -33.9814   -7.2982 C   0  0  0  0  0  0  0  0  0  0  0  0
   25.4026  -35.2056   -7.2786 O   0  0  0  0  0  0  0  0  0  0  0  0
   22.1761  -31.9729   -9.6934 C   0  0  0  0  0  0  0  0  0  0  0  0
   21.6674  -31.0077  -10.5305 C   0  0  0  0  0  0  0  0  0  0  0  0
   27.7084  -32.4356   -3.9432 O   0  0  0  0  0  0  0  0  0  0  0  0
   28.2309  -33.5855   -4.4901 C   0  0  0  0  0  0  0  0  0  0  0  0
   27.1993  -34.3258   -5.3553 C   0  0  2  0  0  0  0  0  0  0  0  0
   26.6271  -33.4409   -6.3369 N   0  0  0  0  0  0  0  0  0  0  0  0
   26.1536  -34.7951   -4.3937 C   0  0  0  0  0  0  0  0  0  0  0  0
   24.9975  -34.3030   -4.4054 O   0  0  0  0  0  0  0  0  0  0  0  0
   24.6375  -38.5513   -1.8073 C   0  0  0  0  0  0  0  0  0  0  0  0
   25.6900  -37.9198   -2.7265 C   0  0  2  0  0  0  0  0  0  0  0  0
   27.0673  -38.3780   -2.3713 C   0  0  0  0  0  0  0  0  0  0  0  0
   25.5209  -36.4175   -2.5718 C   0  0  2  0  0  0  0  0  0  0  0  0
   26.4746  -35.7985   -3.4689 N   0  0  0  0  0  0  0  0  0  0  0  0
   25.8437  -35.9947   -1.1953 C   0  0  0  0  0  0  0  0  0  0  0  0
   27.0992  -35.5045   -0.8771 O   0  0  0  0  0  0  0  0  0  0  0  0
   24.9873  -36.0729   -0.2957 O   0  0  0  0  0  0  0  0  0  0  0  0
  2  3  2  0
  2  1  1  0
  4  3  1  0
  5  4  2  0
  6  5  1  0
  7  6  1  0
  7  9  1  0
  7  8  1  6
  9 16  1  0
  9 10  2  0
 11  5  1  0
 11 12  2  0
 12  2  1  0
 13 14  1  0
 15 14  1  1
 16 15  1  0
 17 15  1  0
 17 18  2  0
 20 19  1  1
 20 21  1  0
 20 22  1  0
 22 23  1  6
 23 17  1  0
 24 22  1  0
 25 24  1  0
 26 24  2  0
M  END
$$$$
