YSV.pdb
     RDKit          3D

 26 26  0  0  1  0  0  0  0  0999 V2000
   14.5424  -15.6443  -17.6441 O   0  0  0  0  0  0  0  0  0  0  0  0
   15.0681  -14.4818  -17.1034 C   0  0  0  0  0  0  0  0  0  0  0  0
   15.4380  -14.4526  -15.7819 C   0  0  0  0  0  0  0  0  0  0  0  0
   15.9658  -13.2812  -15.2443 C   0  0  0  0  0  0  0  0  0  0  0  0
   16.1143  -12.1715  -16.0239 C   0  0  0  0  0  0  0  0  0  0  0  0
   16.6800  -10.9222  -15.4403 C   0  0  0  0  0  0  0  0  0  0  0  0
   18.1236  -10.7254  -15.8897 C   0  0  2  0  0  0  0  0  0  0  0  0
   18.9085  -11.7353  -15.2069 N   0  0  0  0  0  0  0  0  0  0  0  0
   18.5379   -9.3730  -15.4943 C   0  0  0  0  0  0  0  0  0  0  0  0
   18.7519   -9.1593  -14.2624 O   0  0  0  0  0  0  0  0  0  0  0  0
   15.7372  -12.2108  -17.3597 C   0  0  0  0  0  0  0  0  0  0  0  0
   15.2145  -13.3597  -17.9055 C   0  0  0  0  0  0  0  0  0  0  0  0
   20.5924   -6.9375  -17.9006 O   0  0  0  0  0  0  0  0  0  0  0  0
   20.4806   -6.6749  -16.5542 C   0  0  0  0  0  0  0  0  0  0  0  0
   19.0873   -7.0354  -16.0162 C   0  0  2  0  0  0  0  0  0  0  0  0
   18.6916   -8.3466  -16.4615 N   0  0  0  0  0  0  0  0  0  0  0  0
   18.1746   -5.9899  -16.5749 C   0  0  0  0  0  0  0  0  0  0  0  0
   17.5768   -6.1698  -17.6654 O   0  0  0  0  0  0  0  0  0  0  0  0
   15.6586   -4.2465  -14.3870 C   0  0  0  0  0  0  0  0  0  0  0  0
   15.6893   -4.1774  -15.9186 C   0  0  2  0  0  0  0  0  0  0  0  0
   15.3341   -5.4941  -16.5295 C   0  0  0  0  0  0  0  0  0  0  0  0
   17.0962   -3.7310  -16.2806 C   0  0  2  0  0  0  0  0  0  0  0  0
   17.9878   -4.7946  -15.8667 N   0  0  0  0  0  0  0  0  0  0  0  0
   17.4634   -2.5092  -15.5391 C   0  0  0  0  0  0  0  0  0  0  0  0
   17.0186   -1.2647  -15.9528 O   0  0  0  0  0  0  0  0  0  0  0  0
   18.1821   -2.5801  -14.5256 O   0  0  0  0  0  0  0  0  0  0  0  0
  2  3  2  0
  2  1  1  0
  4  3  1  0
  5  4  2  0
  6  5  1  0
  7  6  1  0
  7  9  1  0
  7  8  1  1
  9 16  1  0
  9 10  2  0
 11  5  1  0
 11 12  2  0
 12  2  1  0
 13 14  1  0
 15 14  1  6
 16 15  1  0
 17 15  1  0
 17 18  2  0
 20 19  1  1
 20 21  1  0
 20 22  1  0
 22 23  1  1
 23 17  1  0
 24 22  1  0
 25 24  1  0
 26 24  2  0
M  END
$$$$
