YSV.pdb
     RDKit          3D

 26 26  0  0  1  0  0  0  0  0999 V2000
   22.2786  -12.9601  -26.8919 O   0  0  0  0  0  0  0  0  0  0  0  0
   21.9095  -14.0390  -26.1045 C   0  0  0  0  0  0  0  0  0  0  0  0
   21.6160  -13.8443  -24.7779 C   0  0  0  0  0  0  0  0  0  0  0  0
   21.2457  -14.9326  -23.9916 C   0  0  0  0  0  0  0  0  0  0  0  0
   21.1750  -16.1822  -24.5346 C   0  0  0  0  0  0  0  0  0  0  0  0
   20.7777  -17.3411  -23.6858 C   0  0  0  0  0  0  0  0  0  0  0  0
   21.7637  -17.5289  -22.5380 C   0  0  2  0  0  0  0  0  0  0  0  0
   22.9446  -18.1481  -23.1071 N   0  0  0  0  0  0  0  0  0  0  0  0
   21.1329  -18.4036  -21.5411 C   0  0  0  0  0  0  0  0  0  0  0  0
   21.3200  -19.6533  -21.6519 O   0  0  0  0  0  0  0  0  0  0  0  0
   21.4737  -16.3691  -25.8776 C   0  0  0  0  0  0  0  0  0  0  0  0
   21.8410  -15.3048  -26.6673 C   0  0  0  0  0  0  0  0  0  0  0  0
   19.5082  -16.8693  -18.0245 O   0  0  0  0  0  0  0  0  0  0  0  0
   19.9825  -18.1597  -18.0883 C   0  0  0  0  0  0  0  0  0  0  0  0
   19.8206  -18.7584  -19.4940 C   0  0  2  0  0  0  0  0  0  0  0  0
   20.3434  -17.8631  -20.4936 N   0  0  0  0  0  0  0  0  0  0  0  0
   18.3461  -18.9421  -19.6686 C   0  0  0  0  0  0  0  0  0  0  0  0
   17.6393  -18.0409  -20.1855 O   0  0  0  0  0  0  0  0  0  0  0  0
   14.7774  -22.1147  -20.2319 C   0  0  0  0  0  0  0  0  0  0  0  0
   16.2699  -21.8376  -20.0156 C   0  0  2  0  0  0  0  0  0  0  0  0
   16.8961  -22.8801  -19.1471 C   0  0  0  0  0  0  0  0  0  0  0  0
   16.3443  -20.4498  -19.4008 C   0  0  2  0  0  0  0  0  0  0  0  0
   17.7506  -20.1392  -19.2474 N   0  0  0  0  0  0  0  0  0  0  0  0
   15.7225  -20.4375  -18.0626 C   0  0  0  0  0  0  0  0  0  0  0  0
   14.3597  -20.2428  -17.9125 O   0  0  0  0  0  0  0  0  0  0  0  0
   16.4181  -20.6027  -17.0439 O   0  0  0  0  0  0  0  0  0  0  0  0
  2  3  2  0
  2  1  1  0
  4  3  1  0
  5  4  2  0
  6  5  1  0
  7  6  1  0
  7  9  1  0
  7  8  1  6
  9 16  1  0
  9 10  2  0
 11  5  1  0
 11 12  2  0
 12  2  1  0
 13 14  1  0
 15 14  1  1
 16 15  1  0
 17 15  1  0
 17 18  2  0
 20 19  1  1
 20 21  1  0
 20 22  1  0
 22 23  1  1
 23 17  1  0
 24 22  1  0
 25 24  1  0
 26 24  2  0
M  END
$$$$
