YSV.pdb
     RDKit          3D

 26 26  0  0  1  0  0  0  0  0999 V2000
   29.5628  -12.9118  -16.6426 O   0  0  0  0  0  0  0  0  0  0  0  0
   28.4806  -12.0471  -16.6102 C   0  0  0  0  0  0  0  0  0  0  0  0
   27.5751  -12.1285  -15.5819 C   0  0  0  0  0  0  0  0  0  0  0  0
   26.4894  -11.2565  -15.5549 C   0  0  0  0  0  0  0  0  0  0  0  0
   26.3264  -10.3289  -16.5419 C   0  0  0  0  0  0  0  0  0  0  0  0
   25.1616   -9.3997  -16.5049 C   0  0  0  0  0  0  0  0  0  0  0  0
   23.8622  -10.1749  -16.3173 C   0  0  2  0  0  0  0  0  0  0  0  0
   23.8211  -11.1703  -17.3706 N   0  0  0  0  0  0  0  0  0  0  0  0
   22.7492   -9.2247  -16.4402 C   0  0  0  0  0  0  0  0  0  0  0  0
   22.2806   -9.0135  -17.5999 O   0  0  0  0  0  0  0  0  0  0  0  0
   27.2478  -10.2542  -17.5779 C   0  0  0  0  0  0  0  0  0  0  0  0
   28.3251  -11.1079  -17.6190 C   0  0  0  0  0  0  0  0  0  0  0  0
   19.9524   -8.8709  -13.7530 O   0  0  0  0  0  0  0  0  0  0  0  0
   19.8089   -8.2766  -14.9861 C   0  0  0  0  0  0  0  0  0  0  0  0
   21.1249   -7.6530  -15.4757 C   0  0  2  0  0  0  0  0  0  0  0  0
   22.2215   -8.5696  -15.2979 N   0  0  0  0  0  0  0  0  0  0  0  0
   21.3133   -6.4335  -14.6298 C   0  0  0  0  0  0  0  0  0  0  0  0
   21.9125   -6.4980  -13.5272 O   0  0  0  0  0  0  0  0  0  0  0  0
   20.9277   -2.9552  -16.6269 C   0  0  0  0  0  0  0  0  0  0  0  0
   21.7975   -3.0566  -15.3681 C   0  0  2  0  0  0  0  0  0  0  0  0
   23.1500   -3.6076  -15.6848 C   0  0  0  0  0  0  0  0  0  0  0  0
   21.0226   -3.9401  -14.4045 C   0  0  2  0  0  0  0  0  0  0  0  0
   20.8117   -5.2041  -15.0794 N   0  0  0  0  0  0  0  0  0  0  0  0
   19.7022   -3.3534  -14.1049 C   0  0  0  0  0  0  0  0  0  0  0  0
   19.5668   -2.3499  -13.1602 O   0  0  0  0  0  0  0  0  0  0  0  0
   18.6855   -3.7545  -14.7002 O   0  0  0  0  0  0  0  0  0  0  0  0
  2  3  2  0
  2  1  1  0
  4  3  1  0
  5  4  2  0
  6  5  1  0
  7  6  1  0
  7  9  1  0
  7  8  1  6
  9 16  1  0
  9 10  2  0
 11  5  1  0
 11 12  2  0
 12  2  1  0
 13 14  1  0
 15 14  1  1
 16 15  1  0
 17 15  1  0
 17 18  2  0
 20 19  1  6
 20 21  1  0
 20 22  1  0
 22 23  1  6
 23 17  1  0
 24 22  1  0
 25 24  1  0
 26 24  2  0
M  END
$$$$
