YSV.pdb
     RDKit          3D

 26 26  0  0  1  0  0  0  0  0999 V2000
   14.9884  -14.9671  -15.2329 O   0  0  0  0  0  0  0  0  0  0  0  0
   16.0232  -14.0510  -15.3333 C   0  0  0  0  0  0  0  0  0  0  0  0
   17.2183  -14.3032  -14.7072 C   0  0  0  0  0  0  0  0  0  0  0  0
   18.2546  -13.3786  -14.8118 C   0  0  0  0  0  0  0  0  0  0  0  0
   18.0841  -12.2314  -15.5303 C   0  0  0  0  0  0  0  0  0  0  0  0
   19.1986  -11.2475  -15.6369 C   0  0  0  0  0  0  0  0  0  0  0  0
   19.7526  -11.2155  -17.0570 C   0  0  2  0  0  0  0  0  0  0  0  0
   20.4344  -12.4786  -17.2613 N   0  0  0  0  0  0  0  0  0  0  0  0
   20.6867  -10.0861  -17.1507 C   0  0  0  0  0  0  0  0  0  0  0  0
   21.8525  -10.3212  -17.5919 O   0  0  0  0  0  0  0  0  0  0  0  0
   16.8714  -11.9852  -16.1600 C   0  0  0  0  0  0  0  0  0  0  0  0
   15.8385  -12.8881  -16.0664 C   0  0  0  0  0  0  0  0  0  0  0  0
   20.3800   -7.2081  -19.1317 O   0  0  0  0  0  0  0  0  0  0  0  0
   21.5272   -7.4621  -18.4151 C   0  0  0  0  0  0  0  0  0  0  0  0
   21.2295   -7.6999  -16.9266 C   0  0  2  0  0  0  0  0  0  0  0  0
   20.2923   -8.7806  -16.7598 N   0  0  0  0  0  0  0  0  0  0  0  0
   20.6438   -6.4126  -16.4389 C   0  0  0  0  0  0  0  0  0  0  0  0
   19.4890   -6.0565  -16.7832 O   0  0  0  0  0  0  0  0  0  0  0  0
   22.3093   -4.9819  -13.0047 C   0  0  0  0  0  0  0  0  0  0  0  0
   20.8453   -4.7862  -13.4168 C   0  0  2  0  0  0  0  0  0  0  0  0
   20.0344   -6.0107  -13.1406 C   0  0  0  0  0  0  0  0  0  0  0  0
   20.8791   -4.4345  -14.8949 C   0  0  2  0  0  0  0  0  0  0  0  0
   21.3993   -5.5963  -15.5857 N   0  0  0  0  0  0  0  0  0  0  0  0
   21.7955   -3.3046  -15.1420 C   0  0  0  0  0  0  0  0  0  0  0  0
   21.4065   -2.0018  -14.8793 O   0  0  0  0  0  0  0  0  0  0  0  0
   22.9377   -3.5076  -15.5926 O   0  0  0  0  0  0  0  0  0  0  0  0
  2  3  2  0
  2  1  1  0
  4  3  1  0
  5  4  2  0
  6  5  1  0
  7  6  1  0
  7  9  1  0
  7  8  1  1
  9 16  1  0
  9 10  2  0
 11  5  1  0
 11 12  2  0
 12  2  1  0
 13 14  1  0
 15 14  1  6
 16 15  1  0
 17 15  1  0
 17 18  2  0
 20 19  1  6
 20 21  1  0
 20 22  1  0
 22 23  1  6
 23 17  1  0
 24 22  1  0
 25 24  1  0
 26 24  2  0
M  END
$$$$
