YSV.pdb
     RDKit          3D

 26 26  0  0  1  0  0  0  0  0999 V2000
   23.3092  -21.9030   -6.5186 O   0  0  0  0  0  0  0  0  0  0  0  0
   23.6648  -21.4438   -7.7766 C   0  0  0  0  0  0  0  0  0  0  0  0
   22.6876  -21.1350   -8.6896 C   0  0  0  0  0  0  0  0  0  0  0  0
   23.0514  -20.6739   -9.9525 C   0  0  0  0  0  0  0  0  0  0  0  0
   24.3679  -20.5300  -10.2802 C   0  0  0  0  0  0  0  0  0  0  0  0
   24.7481  -20.0359  -11.6340 C   0  0  0  0  0  0  0  0  0  0  0  0
   24.2150  -20.9691  -12.7155 C   0  0  2  0  0  0  0  0  0  0  0  0
   25.0972  -22.1194  -12.7378 N   0  0  0  0  0  0  0  0  0  0  0  0
   24.2524  -20.2457  -13.9931 C   0  0  0  0  0  0  0  0  0  0  0  0
   25.3677  -20.1663  -14.5923 O   0  0  0  0  0  0  0  0  0  0  0  0
   25.3492  -20.8449   -9.3498 C   0  0  0  0  0  0  0  0  0  0  0  0
   25.0064  -21.3014   -8.0987 C   0  0  0  0  0  0  0  0  0  0  0  0
   20.8623  -18.2708  -15.6008 O   0  0  0  0  0  0  0  0  0  0  0  0
   21.8167  -18.7913  -16.4449 C   0  0  0  0  0  0  0  0  0  0  0  0
   23.1853  -18.9075  -15.7563 C   0  0  2  0  0  0  0  0  0  0  0  0
   23.0788  -19.6588  -14.5322 N   0  0  0  0  0  0  0  0  0  0  0  0
   23.5983  -17.4971  -15.4762 C   0  0  0  0  0  0  0  0  0  0  0  0
   23.0823  -16.8480  -14.5320 O   0  0  0  0  0  0  0  0  0  0  0  0
   26.9460  -14.1106  -15.7070 C   0  0  0  0  0  0  0  0  0  0  0  0
   26.5145  -15.5689  -15.9034 C   0  0  2  0  0  0  0  0  0  0  0  0
   27.2561  -16.2080  -17.0324 C   0  0  0  0  0  0  0  0  0  0  0  0
   25.0151  -15.5235  -16.1467 C   0  0  2  0  0  0  0  0  0  0  0  0
   24.5754  -16.8967  -16.2824 N   0  0  0  0  0  0  0  0  0  0  0  0
   24.7116  -14.8174  -17.4065 C   0  0  0  0  0  0  0  0  0  0  0  0
   24.5965  -13.4377  -17.4394 O   0  0  0  0  0  0  0  0  0  0  0  0
   24.5539  -15.4554  -18.4633 O   0  0  0  0  0  0  0  0  0  0  0  0
  2  3  2  0
  2  1  1  0
  4  3  1  0
  5  4  2  0
  6  5  1  0
  7  6  1  0
  7  9  1  0
  7  8  1  6
  9 16  1  0
  9 10  2  0
 11  5  1  0
 11 12  2  0
 12  2  1  0
 13 14  1  0
 15 14  1  1
 16 15  1  0
 17 15  1  0
 17 18  2  0
 20 19  1  6
 20 21  1  0
 20 22  1  0
 22 23  1  6
 23 17  1  0
 24 22  1  0
 25 24  1  0
 26 24  2  0
M  END
$$$$
