YSV.pdb
     RDKit          3D

 26 26  0  0  1  0  0  0  0  0999 V2000
   19.8743  -13.6095  -19.2819 O   0  0  0  0  0  0  0  0  0  0  0  0
   20.4247  -14.6445  -18.5431 C   0  0  0  0  0  0  0  0  0  0  0  0
   19.6154  -15.6453  -18.0662 C   0  0  0  0  0  0  0  0  0  0  0  0
   20.1745  -16.6829  -17.3242 C   0  0  0  0  0  0  0  0  0  0  0  0
   21.5153  -16.7052  -17.0730 C   0  0  0  0  0  0  0  0  0  0  0  0
   22.1051  -17.8195  -16.2780 C   0  0  0  0  0  0  0  0  0  0  0  0
   23.0111  -18.6808  -17.1509 C   0  0  2  0  0  0  0  0  0  0  0  0
   22.1375  -19.4981  -17.9701 N   0  0  0  0  0  0  0  0  0  0  0  0
   23.8362  -19.5100  -16.2629 C   0  0  0  0  0  0  0  0  0  0  0  0
   23.2793  -20.4975  -15.6938 O   0  0  0  0  0  0  0  0  0  0  0  0
   22.3257  -15.6882  -17.5596 C   0  0  0  0  0  0  0  0  0  0  0  0
   21.7891  -14.6567  -18.2938 C   0  0  0  0  0  0  0  0  0  0  0  0
   27.7400  -18.4082  -15.2385 O   0  0  0  0  0  0  0  0  0  0  0  0
   27.4645  -19.7562  -15.2719 C   0  0  0  0  0  0  0  0  0  0  0  0
   25.9591  -20.0345  -15.1419 C   0  0  2  0  0  0  0  0  0  0  0  0
   25.2071  -19.2113  -16.0535 N   0  0  0  0  0  0  0  0  0  0  0  0
   25.6240  -19.6947  -13.7240 C   0  0  0  0  0  0  0  0  0  0  0  0
   24.8197  -18.7677  -13.4544 O   0  0  0  0  0  0  0  0  0  0  0  0
   24.5257  -22.2033  -11.2205 C   0  0  0  0  0  0  0  0  0  0  0  0
   24.5054  -20.6792  -11.0536 C   0  0  2  0  0  0  0  0  0  0  0  0
   23.5466  -20.0407  -12.0055 C   0  0  0  0  0  0  0  0  0  0  0  0
   25.9372  -20.2230  -11.2796 C   0  0  2  0  0  0  0  0  0  0  0  0
   26.2194  -20.4246  -12.6858 N   0  0  0  0  0  0  0  0  0  0  0  0
   26.8781  -21.0496  -10.4992 C   0  0  0  0  0  0  0  0  0  0  0  0
   27.0353  -20.8556   -9.1371 O   0  0  0  0  0  0  0  0  0  0  0  0
   27.5476  -21.9380  -11.0573 O   0  0  0  0  0  0  0  0  0  0  0  0
  2  3  2  0
  2  1  1  0
  4  3  1  0
  5  4  2  0
  6  5  1  0
  7  6  1  0
  7  9  1  0
  7  8  1  6
  9 16  1  0
  9 10  2  0
 11  5  1  0
 11 12  2  0
 12  2  1  0
 13 14  1  0
 15 14  1  1
 16 15  1  0
 17 15  1  0
 17 18  2  0
 20 19  1  6
 20 21  1  0
 20 22  1  0
 22 23  1  6
 23 17  1  0
 24 22  1  0
 25 24  1  0
 26 24  2  0
M  END
$$$$
