YSV.pdb
     RDKit          3D

 26 26  0  0  1  0  0  0  0  0999 V2000
   17.1031  -25.6048  -11.6732 O   0  0  0  0  0  0  0  0  0  0  0  0
   18.1311  -24.7680  -12.0768 C   0  0  0  0  0  0  0  0  0  0  0  0
   18.0096  -24.0545  -13.2430 C   0  0  0  0  0  0  0  0  0  0  0  0
   19.0463  -23.2150  -13.6434 C   0  0  0  0  0  0  0  0  0  0  0  0
   20.1736  -23.1021  -12.8833 C   0  0  0  0  0  0  0  0  0  0  0  0
   21.2781  -22.2013  -13.3194 C   0  0  0  0  0  0  0  0  0  0  0  0
   21.6277  -21.2079  -12.2169 C   0  0  2  0  0  0  0  0  0  0  0  0
   20.4812  -20.3321  -12.0734 N   0  0  0  0  0  0  0  0  0  0  0  0
   22.8172  -20.4604  -12.6448 C   0  0  0  0  0  0  0  0  0  0  0  0
   22.6353  -19.3602  -13.2494 O   0  0  0  0  0  0  0  0  0  0  0  0
   20.2873  -23.8280  -11.7051 C   0  0  0  0  0  0  0  0  0  0  0  0
   19.2726  -24.6612  -11.2961 C   0  0  0  0  0  0  0  0  0  0  0  0
   26.6894  -22.0873  -12.6119 O   0  0  0  0  0  0  0  0  0  0  0  0
   26.5598  -20.7656  -12.2504 C   0  0  0  0  0  0  0  0  0  0  0  0
   25.2519  -20.1554  -12.7775 C   0  0  2  0  0  0  0  0  0  0  0  0
   24.1209  -20.9572  -12.3877 N   0  0  0  0  0  0  0  0  0  0  0  0
   25.4031  -20.1432  -14.2659 C   0  0  0  0  0  0  0  0  0  0  0  0
   24.8369  -21.0083  -14.9800 O   0  0  0  0  0  0  0  0  0  0  0  0
   26.9716  -16.7350  -15.6894 C   0  0  0  0  0  0  0  0  0  0  0  0
   26.1013  -17.5652  -16.6405 C   0  0  2  0  0  0  0  0  0  0  0  0
   24.6549  -17.2185  -16.4962 C   0  0  0  0  0  0  0  0  0  0  0  0
   26.3867  -19.0173  -16.2949 C   0  0  2  0  0  0  0  0  0  0  0  0
   26.1892  -19.1499  -14.8663 N   0  0  0  0  0  0  0  0  0  0  0  0
   27.7894  -19.3604  -16.5984 C   0  0  0  0  0  0  0  0  0  0  0  0
   28.1384  -19.9173  -17.8174 O   0  0  0  0  0  0  0  0  0  0  0  0
   28.6840  -19.1529  -15.7585 O   0  0  0  0  0  0  0  0  0  0  0  0
  2  3  2  0
  2  1  1  0
  4  3  1  0
  5  4  2  0
  6  5  1  0
  7  6  1  0
  7  9  1  0
  7  8  1  6
  9 16  1  0
  9 10  2  0
 11  5  1  0
 11 12  2  0
 12  2  1  0
 13 14  1  0
 15 14  1  1
 16 15  1  0
 17 15  1  0
 17 18  2  0
 20 19  1  1
 20 21  1  0
 20 22  1  0
 22 23  1  1
 23 17  1  0
 24 22  1  0
 25 24  1  0
 26 24  2  0
M  END
$$$$
