ITK.pdb
     RDKit          3D

 25 24  0  0  1  0  0  0  0  0999 V2000
   20.6735  -22.8220  -17.7756 C   0  0  0  0  0  0  0  0  0  0  0  0
   20.3450  -21.7349  -16.7926 C   0  0  0  0  0  0  0  0  0  0  0  0
   20.7343  -22.0927  -15.3760 C   0  0  2  0  0  0  0  0  0  0  0  0
   20.1314  -23.3738  -14.9021 C   0  0  0  0  0  0  0  0  0  0  0  0
   20.4251  -20.9287  -14.4507 C   0  0  2  0  0  0  0  0  0  0  0  0
   21.1082  -19.7762  -14.9458 N   0  0  0  0  0  0  0  0  0  0  0  0
   20.7535  -21.2601  -13.0543 C   0  0  0  0  0  0  0  0  0  0  0  0
   21.8920  -20.8967  -12.6319 O   0  0  0  0  0  0  0  0  0  0  0  0
   21.4382  -19.9541  -10.4920 C   0  0  0  0  0  0  0  0  0  0  0  0
   20.2712  -20.7800  -10.0346 C   0  0  1  0  0  0  0  0  0  0  0  0
   19.1048  -20.0809  -10.3001 O   0  0  0  0  0  0  0  0  0  0  0  0
   20.2004  -22.1112  -10.7378 C   0  0  2  0  0  0  0  0  0  0  0  0
   19.9186  -21.9396  -12.1569 N   0  0  0  0  0  0  0  0  0  0  0  0
   19.0915  -22.9134  -10.1534 C   0  0  0  0  0  0  0  0  0  0  0  0
   18.0513  -23.1726  -10.8590 O   0  0  0  0  0  0  0  0  0  0  0  0
   19.1405  -23.4091   -8.8346 N   0  0  0  0  0  0  0  0  0  0  0  0
   18.0610  -24.2996   -8.3356 C   0  0  1  0  0  0  0  0  0  0  0  0
   18.5730  -25.0423   -7.1480 C   0  0  0  0  0  0  0  0  0  0  0  0
   17.6658  -26.0138   -6.5108 C   0  0  0  0  0  0  0  0  0  0  0  0
   18.0494  -26.6810   -5.2574 C   0  0  0  0  0  0  0  0  0  0  0  0
   17.0230  -27.5556   -4.6119 C   0  0  0  0  0  0  0  0  0  0  0  0
   17.5265  -28.1892   -3.4436 N   0  0  0  0  0  0  0  0  0  0  0  0
   16.8236  -23.5650   -8.2218 C   0  0  0  0  0  0  0  0  0  0  0  0
   15.5348  -24.0430   -8.3789 O   0  0  0  0  0  0  0  0  0  0  0  0
   16.8755  -22.3099   -7.9479 O   0  0  0  0  0  0  0  0  0  0  0  0
  2  1  1  0
  2  3  1  0
  3  4  1  1
  5  3  1  0
  5  6  1  6
  7  5  1  0
  8  7  2  0
 10  9  1  6
 10 12  1  0
 11 10  1  0
 12 13  1  6
 13  7  1  0
 14 12  1  0
 14 15  2  0
 16 14  1  0
 17 16  1  0
 17 18  1  1
 17 23  1  0
 19 18  1  0
 19 20  1  0
 21 20  1  0
 21 22  1  0
 23 25  2  0
 23 24  1  0
M  END
$$$$
