ITK.pdb
     RDKit          3D

 25 24  0  0  1  0  0  0  0  0999 V2000
   15.0320  -10.9238  -16.4039 C   0  0  0  0  0  0  0  0  0  0  0  0
   16.4161  -10.4214  -16.1073 C   0  0  0  0  0  0  0  0  0  0  0  0
   16.5525   -9.8849  -14.7002 C   0  0  2  0  0  0  0  0  0  0  0  0
   15.5161   -8.8682  -14.3514 C   0  0  0  0  0  0  0  0  0  0  0  0
   17.9652   -9.3713  -14.4830 C   0  0  2  0  0  0  0  0  0  0  0  0
   18.8738  -10.4240  -14.8092 N   0  0  0  0  0  0  0  0  0  0  0  0
   18.1330   -8.8427  -13.1191 C   0  0  0  0  0  0  0  0  0  0  0  0
   18.1138   -9.6850  -12.1720 O   0  0  0  0  0  0  0  0  0  0  0  0
   20.9472   -7.1001  -11.3503 C   0  0  0  0  0  0  0  0  0  0  0  0
   19.7328   -6.2232  -11.2523 C   0  0  1  0  0  0  0  0  0  0  0  0
   19.7984   -5.2653  -12.2512 O   0  0  0  0  0  0  0  0  0  0  0  0
   18.4511   -6.9985  -11.4179 C   0  0  2  0  0  0  0  0  0  0  0  0
   18.3114   -7.4946  -12.7807 N   0  0  0  0  0  0  0  0  0  0  0  0
   17.2976   -6.0981  -11.1470 C   0  0  0  0  0  0  0  0  0  0  0  0
   16.6038   -5.6390  -12.1242 O   0  0  0  0  0  0  0  0  0  0  0  0
   16.9304   -5.7252   -9.8381 N   0  0  0  0  0  0  0  0  0  0  0  0
   15.7666   -4.8274   -9.6209 C   0  0  1  0  0  0  0  0  0  0  0  0
   15.0534   -5.2693   -8.3880 C   0  0  0  0  0  0  0  0  0  0  0  0
   13.9313   -4.4375   -7.9166 C   0  0  0  0  0  0  0  0  0  0  0  0
   13.2057   -4.7917   -6.6873 C   0  0  0  0  0  0  0  0  0  0  0  0
   12.0088   -3.9647   -6.3430 C   0  0  0  0  0  0  0  0  0  0  0  0
   11.3155   -4.4807   -5.2148 N   0  0  0  0  0  0  0  0  0  0  0  0
   16.1748   -3.4477   -9.7371 C   0  0  0  0  0  0  0  0  0  0  0  0
   15.4228   -2.3742  -10.1799 O   0  0  0  0  0  0  0  0  0  0  0  0
   17.3759   -3.1308   -9.4054 O   0  0  0  0  0  0  0  0  0  0  0  0
  2  1  1  0
  2  3  1  0
  3  4  1  6
  5  3  1  0
  5  6  1  1
  7  5  1  0
  8  7  2  0
 10  9  1  6
 10 12  1  0
 11 10  1  0
 12 13  1  6
 13  7  1  0
 14 12  1  0
 14 15  2  0
 16 14  1  0
 17 16  1  0
 17 18  1  1
 17 23  1  0
 19 18  1  0
 19 20  1  0
 21 20  1  0
 21 22  1  0
 23 25  2  0
 23 24  1  0
M  END
$$$$
