ITK.pdb
     RDKit          3D

 25 24  0  0  1  0  0  0  0  0999 V2000
   22.6849  -16.5099  -19.7457 C   0  0  0  0  0  0  0  0  0  0  0  0
   24.1287  -16.7900  -19.4410 C   0  0  0  0  0  0  0  0  0  0  0  0
   24.3076  -17.9237  -18.4565 C   0  0  2  0  0  0  0  0  0  0  0  0
   23.4821  -17.7710  -17.2218 C   0  0  0  0  0  0  0  0  0  0  0  0
   25.7835  -18.1062  -18.1488 C   0  0  2  0  0  0  0  0  0  0  0  0
   26.4591  -18.3920  -19.3744 N   0  0  0  0  0  0  0  0  0  0  0  0
   25.9853  -19.1267  -17.1070 C   0  0  0  0  0  0  0  0  0  0  0  0
   25.6937  -20.3220  -17.4119 O   0  0  0  0  0  0  0  0  0  0  0  0
   29.1539  -20.2058  -15.5793 C   0  0  0  0  0  0  0  0  0  0  0  0
   28.2308  -19.8837  -14.4402 C   0  0  1  0  0  0  0  0  0  0  0  0
   28.5157  -18.6049  -13.9894 O   0  0  0  0  0  0  0  0  0  0  0  0
   26.7803  -19.9346  -14.8460 C   0  0  2  0  0  0  0  0  0  0  0  0
   26.4700  -18.8903  -15.8135 N   0  0  0  0  0  0  0  0  0  0  0  0
   25.9297  -19.7033  -13.6470 C   0  0  0  0  0  0  0  0  0  0  0  0
   25.4778  -18.5271  -13.4029 O   0  0  0  0  0  0  0  0  0  0  0  0
   25.5942  -20.7425  -12.7554 N   0  0  0  0  0  0  0  0  0  0  0  0
   24.7968  -20.4468  -11.5371 C   0  0  1  0  0  0  0  0  0  0  0  0
   23.3515  -20.6050  -11.8692 C   0  0  0  0  0  0  0  0  0  0  0  0
   22.3796  -20.4315  -10.7745 C   0  0  0  0  0  0  0  0  0  0  0  0
   20.9448  -20.6535  -11.0095 C   0  0  0  0  0  0  0  0  0  0  0  0
   20.0175  -20.3614   -9.8737 C   0  0  0  0  0  0  0  0  0  0  0  0
   18.6646  -20.6370  -10.2105 N   0  0  0  0  0  0  0  0  0  0  0  0
   25.3370  -21.1602  -10.4044 C   0  0  0  0  0  0  0  0  0  0  0  0
   25.1735  -20.8700   -9.0616 O   0  0  0  0  0  0  0  0  0  0  0  0
   26.0698  -22.1944  -10.6203 O   0  0  0  0  0  0  0  0  0  0  0  0
  2  1  1  0
  2  3  1  0
  3  4  1  1
  5  3  1  0
  5  6  1  6
  7  5  1  0
  8  7  2  0
 10  9  1  6
 10 12  1  0
 11 10  1  0
 12 13  1  6
 13  7  1  0
 14 12  1  0
 14 15  2  0
 16 14  1  0
 17 16  1  0
 17 18  1  6
 17 23  1  0
 19 18  1  0
 19 20  1  0
 21 20  1  0
 21 22  1  0
 23 25  2  0
 23 24  1  0
M  END
$$$$
