ITK.pdb
     RDKit          3D

 25 24  0  0  1  0  0  0  0  0999 V2000
   14.6499  -13.0845  -16.3757 C   0  0  0  0  0  0  0  0  0  0  0  0
   15.8345  -12.1630  -16.4343 C   0  0  0  0  0  0  0  0  0  0  0  0
   16.2310  -11.6358  -15.0737 C   0  0  2  0  0  0  0  0  0  0  0  0
   15.1012  -10.9996  -14.3333 C   0  0  0  0  0  0  0  0  0  0  0  0
   17.4278  -10.7111  -15.2120 C   0  0  2  0  0  0  0  0  0  0  0  0
   18.4627  -11.4251  -15.8897 N   0  0  0  0  0  0  0  0  0  0  0  0
   17.8356  -10.1729  -13.9037 C   0  0  0  0  0  0  0  0  0  0  0  0
   18.2239  -11.0109  -13.0354 O   0  0  0  0  0  0  0  0  0  0  0  0
   20.6993   -8.4186  -12.7858 C   0  0  0  0  0  0  0  0  0  0  0  0
   19.5534   -7.5467  -12.3615 C   0  0  1  0  0  0  0  0  0  0  0  0
   19.3841   -6.5490  -13.3079 O   0  0  0  0  0  0  0  0  0  0  0  0
   18.2624   -8.3150  -12.2416 C   0  0  2  0  0  0  0  0  0  0  0  0
   17.8310   -8.8200  -13.5385 N   0  0  0  0  0  0  0  0  0  0  0  0
   17.1982   -7.4053  -11.7371 C   0  0  0  0  0  0  0  0  0  0  0  0
   16.3057   -6.9586  -12.5440 O   0  0  0  0  0  0  0  0  0  0  0  0
   17.1301   -7.0099  -10.3856 N   0  0  0  0  0  0  0  0  0  0  0  0
   16.1070   -6.0239   -9.9513 C   0  0  1  0  0  0  0  0  0  0  0  0
   14.7647   -6.6680  -10.0370 C   0  0  0  0  0  0  0  0  0  0  0  0
   14.3845   -7.5938   -8.9546 C   0  0  0  0  0  0  0  0  0  0  0  0
   13.0532   -8.2188   -8.9415 C   0  0  0  0  0  0  0  0  0  0  0  0
   12.7504   -9.1481   -7.8102 C   0  0  0  0  0  0  0  0  0  0  0  0
   11.3909   -9.5621   -7.8146 N   0  0  0  0  0  0  0  0  0  0  0  0
   16.5086   -5.4049   -8.7106 C   0  0  0  0  0  0  0  0  0  0  0  0
   15.9293   -4.3205   -8.0763 O   0  0  0  0  0  0  0  0  0  0  0  0
   17.5263   -5.8813   -8.0858 O   0  0  0  0  0  0  0  0  0  0  0  0
  2  1  1  0
  2  3  1  0
  3  4  1  6
  5  3  1  0
  5  6  1  1
  7  5  1  0
  8  7  2  0
 10  9  1  6
 10 12  1  0
 11 10  1  0
 12 13  1  6
 13  7  1  0
 14 12  1  0
 14 15  2  0
 16 14  1  0
 17 16  1  0
 17 18  1  1
 17 23  1  0
 19 18  1  0
 19 20  1  0
 21 20  1  0
 21 22  1  0
 23 25  2  0
 23 24  1  0
M  END
$$$$
