ITK.pdb
     RDKit          3D

 25 24  0  0  1  0  0  0  0  0999 V2000
   29.4449  -13.9252  -17.7075 C   0  0  0  0  0  0  0  0  0  0  0  0
   28.2220  -13.6185  -16.8911 C   0  0  0  0  0  0  0  0  0  0  0  0
   28.0155  -12.1349  -16.6850 C   0  0  2  0  0  0  0  0  0  0  0  0
   29.1636  -11.4668  -16.0030 C   0  0  0  0  0  0  0  0  0  0  0  0
   26.6972  -11.8960  -15.9699 C   0  0  2  0  0  0  0  0  0  0  0  0
   25.7278  -12.7902  -16.5184 N   0  0  0  0  0  0  0  0  0  0  0  0
   26.3053  -10.4786  -16.0404 C   0  0  0  0  0  0  0  0  0  0  0  0
   27.0426   -9.6493  -15.4276 O   0  0  0  0  0  0  0  0  0  0  0  0
   26.8398   -7.9426  -18.2436 C   0  0  0  0  0  0  0  0  0  0  0  0
   25.3424   -7.9916  -18.1498 C   0  0  1  0  0  0  0  0  0  0  0  0
   24.8624   -8.7968  -19.1700 O   0  0  0  0  0  0  0  0  0  0  0  0
   24.8687   -8.5545  -16.8344 C   0  0  2  0  0  0  0  0  0  0  0  0
   25.1922   -9.9708  -16.7238 N   0  0  0  0  0  0  0  0  0  0  0  0
   23.3885   -8.4241  -16.7525 C   0  0  0  0  0  0  0  0  0  0  0  0
   22.6480   -9.4629  -16.8927 O   0  0  0  0  0  0  0  0  0  0  0  0
   22.7579   -7.1845  -16.5217 N   0  0  0  0  0  0  0  0  0  0  0  0
   21.2766   -7.1102  -16.4344 C   0  0  1  0  0  0  0  0  0  0  0  0
   20.8122   -8.1107  -15.4307 C   0  0  0  0  0  0  0  0  0  0  0  0
   19.3634   -8.1907  -15.1707 C   0  0  0  0  0  0  0  0  0  0  0  0
   18.8232   -9.2219  -14.2717 C   0  0  0  0  0  0  0  0  0  0  0  0
   17.3366   -9.2843  -14.1256 C   0  0  0  0  0  0  0  0  0  0  0  0
   16.7774  -10.3653  -14.8593 N   0  0  0  0  0  0  0  0  0  0  0  0
   20.8551   -5.7361  -16.2998 C   0  0  0  0  0  0  0  0  0  0  0  0
   19.6076   -5.2007  -16.5667 O   0  0  0  0  0  0  0  0  0  0  0  0
   21.7097   -4.8670  -15.8907 O   0  0  0  0  0  0  0  0  0  0  0  0
  2  1  1  0
  2  3  1  0
  3  4  1  1
  5  3  1  0
  5  6  1  6
  7  5  1  0
  8  7  2  0
 10  9  1  1
 10 12  1  0
 11 10  1  0
 12 13  1  6
 13  7  1  0
 14 12  1  0
 14 15  2  0
 16 14  1  0
 17 16  1  0
 17 18  1  1
 17 23  1  0
 19 18  1  0
 19 20  1  0
 21 20  1  0
 21 22  1  0
 23 25  2  0
 23 24  1  0
M  END
$$$$
