ITK.pdb
     RDKit          3D

 25 24  0  0  1  0  0  0  0  0999 V2000
   21.1546  -18.8744  -13.7003 C   0  0  0  0  0  0  0  0  0  0  0  0
   21.2492  -18.5906  -15.1722 C   0  0  0  0  0  0  0  0  0  0  0  0
   21.4050  -17.1169  -15.4730 C   0  0  2  0  0  0  0  0  0  0  0  0
   20.4106  -16.2595  -14.7620 C   0  0  0  0  0  0  0  0  0  0  0  0
   21.3915  -16.8970  -16.9756 C   0  0  2  0  0  0  0  0  0  0  0  0
   22.4172  -17.7077  -17.5508 N   0  0  0  0  0  0  0  0  0  0  0  0
   21.5110  -15.4666  -17.3029 C   0  0  0  0  0  0  0  0  0  0  0  0
   22.6531  -14.9379  -17.1519 O   0  0  0  0  0  0  0  0  0  0  0  0
   21.7608  -13.6683  -20.3319 C   0  0  0  0  0  0  0  0  0  0  0  0
   20.5709  -13.0743  -19.6357 C   0  0  1  0  0  0  0  0  0  0  0  0
   19.4279  -13.7055  -20.0991 O   0  0  0  0  0  0  0  0  0  0  0  0
   20.6376  -13.2455  -18.1398 C   0  0  2  0  0  0  0  0  0  0  0  0
   20.4747  -14.6440  -17.7649 N   0  0  0  0  0  0  0  0  0  0  0  0
   19.5273  -12.4796  -17.5110 C   0  0  0  0  0  0  0  0  0  0  0  0
   18.5239  -13.1049  -17.0116 O   0  0  0  0  0  0  0  0  0  0  0  0
   19.5355  -11.0716  -17.4399 N   0  0  0  0  0  0  0  0  0  0  0  0
   18.3655  -10.3501  -16.8760 C   0  0  1  0  0  0  0  0  0  0  0  0
   18.7584   -8.9323  -16.6317 C   0  0  0  0  0  0  0  0  0  0  0  0
   17.7393   -8.0332  -16.0604 C   0  0  0  0  0  0  0  0  0  0  0  0
   18.1010   -6.6738  -15.6312 C   0  0  0  0  0  0  0  0  0  0  0  0
   17.0520   -5.8868  -14.9132 C   0  0  0  0  0  0  0  0  0  0  0  0
   17.5423   -4.6265  -14.4759 N   0  0  0  0  0  0  0  0  0  0  0  0
   17.1864  -10.6242  -17.6624 C   0  0  0  0  0  0  0  0  0  0  0  0
   15.8973  -10.8448  -17.2112 O   0  0  0  0  0  0  0  0  0  0  0  0
   17.2999  -10.6858  -18.9415 O   0  0  0  0  0  0  0  0  0  0  0  0
  2  1  1  0
  2  3  1  0
  3  4  1  1
  5  3  1  0
  5  6  1  6
  7  5  1  0
  8  7  2  0
 10  9  1  6
 10 12  1  0
 11 10  1  0
 12 13  1  6
 13  7  1  0
 14 12  1  0
 14 15  2  0
 16 14  1  0
 17 16  1  0
 17 18  1  6
 17 23  1  0
 19 18  1  0
 19 20  1  0
 21 20  1  0
 21 22  1  0
 23 25  2  0
 23 24  1  0
M  END
$$$$
