ITK.pdb
     RDKit          3D

 25 24  0  0  1  0  0  0  0  0999 V2000
   24.7929  -20.5717  -16.4206 C   0  0  0  0  0  0  0  0  0  0  0  0
   23.9960  -19.4393  -17.0027 C   0  0  0  0  0  0  0  0  0  0  0  0
   24.0408  -18.1941  -16.1461 C   0  0  2  0  0  0  0  0  0  0  0  0
   23.5952  -18.4267  -14.7401 C   0  0  0  0  0  0  0  0  0  0  0  0
   23.2644  -17.0786  -16.8237 C   0  0  2  0  0  0  0  0  0  0  0  0
   23.6960  -17.0015  -18.1831 N   0  0  0  0  0  0  0  0  0  0  0  0
   23.4010  -15.8129  -16.0841 C   0  0  0  0  0  0  0  0  0  0  0  0
   22.9479  -15.7893  -14.9005 O   0  0  0  0  0  0  0  0  0  0  0  0
   26.5235  -13.3532  -15.6517 C   0  0  0  0  0  0  0  0  0  0  0  0
   25.3064  -12.6264  -16.1456 C   0  0  1  0  0  0  0  0  0  0  0  0
   25.4136  -12.4680  -17.5179 O   0  0  0  0  0  0  0  0  0  0  0  0
   24.0324  -13.3751  -15.8496 C   0  0  2  0  0  0  0  0  0  0  0  0
   23.9864  -14.6379  -16.5748 N   0  0  0  0  0  0  0  0  0  0  0  0
   22.8713  -12.5581  -16.2961 C   0  0  0  0  0  0  0  0  0  0  0  0
   22.2979  -12.8220  -17.4135 O   0  0  0  0  0  0  0  0  0  0  0  0
   22.3677  -11.4897  -15.5266 N   0  0  0  0  0  0  0  0  0  0  0  0
   21.2447  -10.6664  -16.0447 C   0  0  1  0  0  0  0  0  0  0  0  0
   19.9660  -11.2340  -15.5282 C   0  0  0  0  0  0  0  0  0  0  0  0
   18.7496  -11.0101  -16.3304 C   0  0  0  0  0  0  0  0  0  0  0  0
   17.4476  -11.5124  -15.8662 C   0  0  0  0  0  0  0  0  0  0  0  0
   16.2616  -11.2245  -16.7298 C   0  0  0  0  0  0  0  0  0  0  0  0
   16.1126   -9.8331  -16.9779 N   0  0  0  0  0  0  0  0  0  0  0  0
   21.5211   -9.2643  -15.8409 C   0  0  0  0  0  0  0  0  0  0  0  0
   20.9879   -8.1858  -16.5239 O   0  0  0  0  0  0  0  0  0  0  0  0
   22.3625   -8.9287  -14.9285 O   0  0  0  0  0  0  0  0  0  0  0  0
  2  1  1  0
  2  3  1  0
  3  4  1  1
  5  3  1  0
  5  6  1  6
  7  5  1  0
  8  7  2  0
 10  9  1  6
 10 12  1  0
 11 10  1  0
 12 13  1  6
 13  7  1  0
 14 12  1  0
 14 15  2  0
 16 14  1  0
 17 16  1  0
 17 18  1  1
 17 23  1  0
 19 18  1  0
 19 20  1  0
 21 20  1  0
 21 22  1  0
 23 25  2  0
 23 24  1  0
M  END
$$$$
