ITK.pdb
     RDKit          3D

 25 24  0  0  1  0  0  0  0  0999 V2000
   22.6726  -19.0022  -16.0672 C   0  0  0  0  0  0  0  0  0  0  0  0
   23.7152  -18.1617  -16.7474 C   0  0  0  0  0  0  0  0  0  0  0  0
   23.9600  -16.8492  -16.0375 C   0  0  2  0  0  0  0  0  0  0  0  0
   22.7067  -16.0930  -15.7429 C   0  0  0  0  0  0  0  0  0  0  0  0
   24.9653  -16.0234  -16.8210 C   0  0  2  0  0  0  0  0  0  0  0  0
   26.1524  -16.8023  -16.9766 N   0  0  0  0  0  0  0  0  0  0  0  0
   25.1914  -14.7169  -16.1810 C   0  0  0  0  0  0  0  0  0  0  0  0
   26.0211  -14.6841  -15.2234 O   0  0  0  0  0  0  0  0  0  0  0  0
   27.2490  -12.2219  -16.4188 C   0  0  0  0  0  0  0  0  0  0  0  0
   25.9433  -11.4906  -16.5358 C   0  0  1  0  0  0  0  0  0  0  0  0
   25.6453  -11.3317  -17.8795 O   0  0  0  0  0  0  0  0  0  0  0  0
   24.8088  -12.2350  -15.8800 C   0  0  2  0  0  0  0  0  0  0  0  0
   24.5704  -13.5126  -16.5388 N   0  0  0  0  0  0  0  0  0  0  0  0
   23.5633  -11.4292  -15.9986 C   0  0  0  0  0  0  0  0  0  0  0  0
   22.7199  -11.6919  -16.9297 O   0  0  0  0  0  0  0  0  0  0  0  0
   23.2680  -10.3728  -15.1130 N   0  0  0  0  0  0  0  0  0  0  0  0
   22.0294   -9.5734  -15.2978 C   0  0  1  0  0  0  0  0  0  0  0  0
   20.8553  -10.4557  -15.0387 C   0  0  0  0  0  0  0  0  0  0  0  0
   19.5155   -9.8462  -15.1215 C   0  0  0  0  0  0  0  0  0  0  0  0
   18.3119  -10.6561  -14.8796 C   0  0  0  0  0  0  0  0  0  0  0  0
   16.9915   -9.9696  -15.0226 C   0  0  0  0  0  0  0  0  0  0  0  0
   15.9060  -10.8533  -14.7763 N   0  0  0  0  0  0  0  0  0  0  0  0
   22.1351   -8.3217  -14.5866 C   0  0  0  0  0  0  0  0  0  0  0  0
   21.4340   -7.1517  -14.8184 O   0  0  0  0  0  0  0  0  0  0  0  0
   22.9730   -8.2340  -13.6155 O   0  0  0  0  0  0  0  0  0  0  0  0
  2  1  1  0
  2  3  1  0
  3  4  1  6
  5  3  1  0
  5  6  1  1
  7  5  1  0
  8  7  2  0
 10  9  1  6
 10 12  1  0
 11 10  1  0
 12 13  1  6
 13  7  1  0
 14 12  1  0
 14 15  2  0
 16 14  1  0
 17 16  1  0
 17 18  1  1
 17 23  1  0
 19 18  1  0
 19 20  1  0
 21 20  1  0
 21 22  1  0
 23 25  2  0
 23 24  1  0
M  END
$$$$
