ITK.pdb
     RDKit          3D

 25 24  0  0  1  0  0  0  0  0999 V2000
   22.3844  -19.0948  -16.3397 C   0  0  0  0  0  0  0  0  0  0  0  0
   21.9602  -17.7600  -16.8822 C   0  0  0  0  0  0  0  0  0  0  0  0
   22.2343  -16.6259  -15.9204 C   0  0  2  0  0  0  0  0  0  0  0  0
   21.6724  -16.8578  -14.5566 C   0  0  0  0  0  0  0  0  0  0  0  0
   21.7634  -15.3155  -16.5267 C   0  0  2  0  0  0  0  0  0  0  0  0
   22.2239  -15.2623  -17.8778 N   0  0  0  0  0  0  0  0  0  0  0  0
   22.1904  -14.1690  -15.7077 C   0  0  0  0  0  0  0  0  0  0  0  0
   21.7929  -14.1451  -14.5043 O   0  0  0  0  0  0  0  0  0  0  0  0
   25.7288  -12.5474  -14.9548 C   0  0  0  0  0  0  0  0  0  0  0  0
   24.7730  -11.5452  -15.5337 C   0  0  1  0  0  0  0  0  0  0  0  0
   25.0142  -11.4399  -16.8941 O   0  0  0  0  0  0  0  0  0  0  0  0
   23.3334  -11.9441  -15.3337 C   0  0  2  0  0  0  0  0  0  0  0  0
   22.9949  -13.1073  -16.1431 N   0  0  0  0  0  0  0  0  0  0  0  0
   22.4525  -10.8249  -15.7649 C   0  0  0  0  0  0  0  0  0  0  0  0
   21.7524  -10.9400  -16.8345 O   0  0  0  0  0  0  0  0  0  0  0  0
   22.3540   -9.6247  -15.0321 N   0  0  0  0  0  0  0  0  0  0  0  0
   21.3885   -8.5760  -15.4513 C   0  0  1  0  0  0  0  0  0  0  0  0
   20.0251   -9.1789  -15.4918 C   0  0  0  0  0  0  0  0  0  0  0  0
   18.8900   -8.2758  -15.7548 C   0  0  0  0  0  0  0  0  0  0  0  0
   17.5107   -8.7859  -15.7319 C   0  0  0  0  0  0  0  0  0  0  0  0
   16.4345   -7.8546  -16.1896 C   0  0  0  0  0  0  0  0  0  0  0  0
   15.1899   -8.5217  -16.3498 N   0  0  0  0  0  0  0  0  0  0  0  0
   21.5989   -7.3715  -14.6839 C   0  0  0  0  0  0  0  0  0  0  0  0
   21.3707   -6.0645  -15.0758 O   0  0  0  0  0  0  0  0  0  0  0  0
   22.0579   -7.4758  -13.4875 O   0  0  0  0  0  0  0  0  0  0  0  0
  2  1  1  0
  2  3  1  0
  3  4  1  1
  5  3  1  0
  5  6  1  6
  7  5  1  0
  8  7  2  0
 10  9  1  6
 10 12  1  0
 11 10  1  0
 12 13  1  6
 13  7  1  0
 14 12  1  0
 14 15  2  0
 16 14  1  0
 17 16  1  0
 17 18  1  1
 17 23  1  0
 19 18  1  0
 19 20  1  0
 21 20  1  0
 21 22  1  0
 23 25  2  0
 23 24  1  0
M  END
$$$$
