ITK.pdb
     RDKit          3D

 25 24  0  0  1  0  0  0  0  0999 V2000
   13.9557  -13.2767  -13.4655 C   0  0  0  0  0  0  0  0  0  0  0  0
   14.3091  -11.9234  -14.0129 C   0  0  0  0  0  0  0  0  0  0  0  0
   14.9901  -11.0408  -12.9912 C   0  0  2  0  0  0  0  0  0  0  0  0
   14.1987  -10.8684  -11.7368 C   0  0  0  0  0  0  0  0  0  0  0  0
   15.3634   -9.7139  -13.6287 C   0  0  2  0  0  0  0  0  0  0  0  0
   16.1497   -9.9863  -14.7896 N   0  0  0  0  0  0  0  0  0  0  0  0
   16.0249   -8.8269  -12.6575 C   0  0  0  0  0  0  0  0  0  0  0  0
   15.9680   -9.1687  -11.4383 O   0  0  0  0  0  0  0  0  0  0  0  0
   18.7095   -4.7325  -11.6097 C   0  0  0  0  0  0  0  0  0  0  0  0
   18.2398   -5.7772  -12.5798 C   0  0  1  0  0  0  0  0  0  0  0  0
   19.3317   -6.5300  -12.9807 O   0  0  0  0  0  0  0  0  0  0  0  0
   17.2177   -6.7041  -11.9736 C   0  0  2  0  0  0  0  0  0  0  0  0
   16.7088   -7.6429  -12.9649 N   0  0  0  0  0  0  0  0  0  0  0  0
   16.0647   -5.9033  -11.4799 C   0  0  0  0  0  0  0  0  0  0  0  0
   15.1462   -5.5362  -12.2978 O   0  0  0  0  0  0  0  0  0  0  0  0
   15.9389   -5.5274  -10.1270 N   0  0  0  0  0  0  0  0  0  0  0  0
   14.7955   -4.6831   -9.6943 C   0  0  1  0  0  0  0  0  0  0  0  0
   14.3470   -5.1487   -8.3504 C   0  0  0  0  0  0  0  0  0  0  0  0
   13.2459   -4.4092   -7.7072 C   0  0  0  0  0  0  0  0  0  0  0  0
   12.8256   -4.7404   -6.3373 C   0  0  0  0  0  0  0  0  0  0  0  0
   11.6587   -3.9872   -5.7840 C   0  0  0  0  0  0  0  0  0  0  0  0
   11.3034   -4.4410   -4.4849 N   0  0  0  0  0  0  0  0  0  0  0  0
   15.1097   -3.2867   -9.8825 C   0  0  0  0  0  0  0  0  0  0  0  0
   16.3486   -2.6765   -9.7996 O   0  0  0  0  0  0  0  0  0  0  0  0
   14.1537   -2.4720  -10.1568 O   0  0  0  0  0  0  0  0  0  0  0  0
  2  1  1  0
  2  3  1  0
  3  4  1  1
  5  3  1  0
  5  6  1  6
  7  5  1  0
  8  7  2  0
 10  9  1  1
 10 12  1  0
 11 10  1  0
 12 13  1  6
 13  7  1  0
 14 12  1  0
 14 15  2  0
 16 14  1  0
 17 16  1  0
 17 18  1  1
 17 23  1  0
 19 18  1  0
 19 20  1  0
 21 20  1  0
 21 22  1  0
 23 25  2  0
 23 24  1  0
M  END
$$$$
