ITK.pdb
     RDKit          3D

 25 24  0  0  1  0  0  0  0  0999 V2000
   25.5671  -18.7837  -17.2601 C   0  0  0  0  0  0  0  0  0  0  0  0
   24.2623  -19.5209  -17.1603 C   0  0  0  0  0  0  0  0  0  0  0  0
   23.5775  -19.3164  -15.8277 C   0  0  2  0  0  0  0  0  0  0  0  0
   24.4439  -19.6535  -14.6593 C   0  0  0  0  0  0  0  0  0  0  0  0
   22.2590  -20.0699  -15.8089 C   0  0  2  0  0  0  0  0  0  0  0  0
   21.4997  -19.6617  -16.9477 N   0  0  0  0  0  0  0  0  0  0  0  0
   21.5583  -19.8797  -14.5281 C   0  0  0  0  0  0  0  0  0  0  0  0
   21.4879  -18.6945  -14.0842 O   0  0  0  0  0  0  0  0  0  0  0  0
   19.4077  -18.3923  -13.2387 C   0  0  0  0  0  0  0  0  0  0  0  0
   19.0043  -19.7770  -12.8224 C   0  0  1  0  0  0  0  0  0  0  0  0
   18.2599  -20.3455  -13.8434 O   0  0  0  0  0  0  0  0  0  0  0  0
   20.1928  -20.6622  -12.5483 C   0  0  2  0  0  0  0  0  0  0  0  0
   20.9656  -20.8923  -13.7619 N   0  0  0  0  0  0  0  0  0  0  0  0
   19.7144  -21.9851  -12.0627 C   0  0  0  0  0  0  0  0  0  0  0  0
   19.7829  -23.0098  -12.8325 O   0  0  0  0  0  0  0  0  0  0  0  0
   19.1819  -22.1598  -10.7692 N   0  0  0  0  0  0  0  0  0  0  0  0
   18.7107  -23.5004  -10.3353 C   0  0  1  0  0  0  0  0  0  0  0  0
   18.7584  -23.5581   -8.8458 C   0  0  0  0  0  0  0  0  0  0  0  0
   18.3054  -24.8028   -8.1988 C   0  0  0  0  0  0  0  0  0  0  0  0
   18.3113  -24.9260   -6.7332 C   0  0  0  0  0  0  0  0  0  0  0  0
   17.8097  -26.2115   -6.1578 C   0  0  0  0  0  0  0  0  0  0  0  0
   17.8618  -26.2118   -4.7376 N   0  0  0  0  0  0  0  0  0  0  0  0
   17.4795  -23.8368  -11.0098 C   0  0  0  0  0  0  0  0  0  0  0  0
   17.0193  -25.0935  -11.3602 O   0  0  0  0  0  0  0  0  0  0  0  0
   16.6845  -22.8857  -11.3510 O   0  0  0  0  0  0  0  0  0  0  0  0
  2  1  1  0
  2  3  1  0
  3  4  1  1
  5  3  1  0
  5  6  1  6
  7  5  1  0
  8  7  2  0
 10  9  1  6
 10 12  1  0
 11 10  1  0
 12 13  1  6
 13  7  1  0
 14 12  1  0
 14 15  2  0
 16 14  1  0
 17 16  1  0
 17 18  1  1
 17 23  1  0
 19 18  1  0
 19 20  1  0
 21 20  1  0
 21 22  1  0
 23 25  2  0
 23 24  1  0
M  END
$$$$
