ITK.pdb
     RDKit          3D

 25 24  0  0  1  0  0  0  0  0999 V2000
   27.8718  -19.3013  -17.0977 C   0  0  0  0  0  0  0  0  0  0  0  0
   27.3701  -20.3112  -16.1055 C   0  0  0  0  0  0  0  0  0  0  0  0
   26.3193  -19.7446  -15.1775 C   0  0  2  0  0  0  0  0  0  0  0  0
   26.8097  -18.5958  -14.3595 C   0  0  0  0  0  0  0  0  0  0  0  0
   25.7363  -20.8575  -14.3242 C   0  0  2  0  0  0  0  0  0  0  0  0
   25.7024  -22.0481  -15.1124 N   0  0  0  0  0  0  0  0  0  0  0  0
   24.4266  -20.4720  -13.7731 C   0  0  0  0  0  0  0  0  0  0  0  0
   24.3996  -19.4529  -13.0198 O   0  0  0  0  0  0  0  0  0  0  0  0
   21.6493  -18.7113  -15.0607 C   0  0  0  0  0  0  0  0  0  0  0  0
   21.1162  -20.0531  -14.6500 C   0  0  1  0  0  0  0  0  0  0  0  0
   21.1650  -20.9012  -15.7446 O   0  0  0  0  0  0  0  0  0  0  0  0
   21.9168  -20.6702  -13.5320 C   0  0  2  0  0  0  0  0  0  0  0  0
   23.2134  -21.1324  -14.0095 N   0  0  0  0  0  0  0  0  0  0  0  0
   21.1850  -21.8531  -13.0031 C   0  0  0  0  0  0  0  0  0  0  0  0
   21.4909  -23.0292  -13.4159 O   0  0  0  0  0  0  0  0  0  0  0  0
   20.1536  -21.7306  -12.0499 N   0  0  0  0  0  0  0  0  0  0  0  0
   19.3805  -22.9294  -11.6345 C   0  0  1  0  0  0  0  0  0  0  0  0
   19.3123  -22.9541  -10.1449 C   0  0  0  0  0  0  0  0  0  0  0  0
   18.5900  -24.0747   -9.5159 C   0  0  0  0  0  0  0  0  0  0  0  0
   18.4397  -24.1380   -8.0542 C   0  0  0  0  0  0  0  0  0  0  0  0
   17.5577  -25.2146   -7.5082 C   0  0  0  0  0  0  0  0  0  0  0  0
   17.5599  -25.2309   -6.0871 N   0  0  0  0  0  0  0  0  0  0  0  0
   18.1555  -23.0182  -12.3929 C   0  0  0  0  0  0  0  0  0  0  0  0
   17.4505  -24.1578  -12.7369 O   0  0  0  0  0  0  0  0  0  0  0  0
   17.6201  -21.9330  -12.8272 O   0  0  0  0  0  0  0  0  0  0  0  0
  2  1  1  0
  2  3  1  0
  3  4  1  1
  5  3  1  0
  5  6  1  6
  7  5  1  0
  8  7  2  0
 10  9  1  6
 10 12  1  0
 11 10  1  0
 12 13  1  6
 13  7  1  0
 14 12  1  0
 14 15  2  0
 16 14  1  0
 17 16  1  0
 17 18  1  1
 17 23  1  0
 19 18  1  0
 19 20  1  0
 21 20  1  0
 21 22  1  0
 23 25  2  0
 23 24  1  0
M  END
$$$$
