ITK.pdb
     RDKit          3D

 25 24  0  0  1  0  0  0  0  0999 V2000
   26.4248  -20.0803   -7.3034 C   0  0  0  0  0  0  0  0  0  0  0  0
   26.6008  -21.0101   -8.4697 C   0  0  0  0  0  0  0  0  0  0  0  0
   26.0024  -20.4639   -9.7464 C   0  0  2  0  0  0  0  0  0  0  0  0
   24.5418  -20.1731   -9.6382 C   0  0  0  0  0  0  0  0  0  0  0  0
   26.3246  -21.3951  -10.9020 C   0  0  2  0  0  0  0  0  0  0  0  0
   27.7062  -21.7468  -10.8150 N   0  0  0  0  0  0  0  0  0  0  0  0
   25.9449  -20.7919  -12.1903 C   0  0  0  0  0  0  0  0  0  0  0  0
   26.6696  -19.8419  -12.6137 O   0  0  0  0  0  0  0  0  0  0  0  0
   26.1019  -22.1767  -15.5137 C   0  0  0  0  0  0  0  0  0  0  0  0
   24.6922  -21.6813  -15.3700 C   0  0  1  0  0  0  0  0  0  0  0  0
   23.8805  -22.7520  -15.0319 O   0  0  0  0  0  0  0  0  0  0  0  0
   24.5614  -20.6270  -14.3010 C   0  0  2  0  0  0  0  0  0  0  0  0
   24.8562  -21.1767  -12.9843 N   0  0  0  0  0  0  0  0  0  0  0  0
   23.1595  -20.1285  -14.2762 C   0  0  0  0  0  0  0  0  0  0  0  0
   22.3827  -20.4573  -13.3089 O   0  0  0  0  0  0  0  0  0  0  0  0
   22.6434  -19.2946  -15.2890 N   0  0  0  0  0  0  0  0  0  0  0  0
   21.2524  -18.7819  -15.1913 C   0  0  1  0  0  0  0  0  0  0  0  0
   21.1443  -17.5492  -16.0238 C   0  0  0  0  0  0  0  0  0  0  0  0
   19.8365  -16.8703  -16.0666 C   0  0  0  0  0  0  0  0  0  0  0  0
   19.6735  -15.6126  -16.8113 C   0  0  0  0  0  0  0  0  0  0  0  0
   18.3208  -14.9766  -16.7823 C   0  0  0  0  0  0  0  0  0  0  0  0
   18.3455  -13.6556  -17.3057 N   0  0  0  0  0  0  0  0  0  0  0  0
   20.3110  -19.8553  -15.4044 C   0  0  0  0  0  0  0  0  0  0  0  0
   19.0523  -20.0034  -14.8495 O   0  0  0  0  0  0  0  0  0  0  0  0
   20.6402  -20.8156  -16.1933 O   0  0  0  0  0  0  0  0  0  0  0  0
  2  1  1  0
  2  3  1  0
  3  4  1  1
  5  3  1  0
  5  6  1  6
  7  5  1  0
  8  7  2  0
 10  9  1  1
 10 12  1  0
 11 10  1  0
 12 13  1  1
 13  7  1  0
 14 12  1  0
 14 15  2  0
 16 14  1  0
 17 16  1  0
 17 18  1  6
 17 23  1  0
 19 18  1  0
 19 20  1  0
 21 20  1  0
 21 22  1  0
 23 25  2  0
 23 24  1  0
M  END
$$$$
