ITK.pdb
     RDKit          3D

 25 24  0  0  1  0  0  0  0  0999 V2000
   19.0511  -16.1193  -19.3856 C   0  0  0  0  0  0  0  0  0  0  0  0
   20.4394  -15.9613  -18.8345 C   0  0  0  0  0  0  0  0  0  0  0  0
   20.5559  -14.8017  -17.8711 C   0  0  2  0  0  0  0  0  0  0  0  0
   20.0861  -13.5059  -18.4452 C   0  0  0  0  0  0  0  0  0  0  0  0
   21.9758  -14.7195  -17.3386 C   0  0  2  0  0  0  0  0  0  0  0  0
   22.3382  -16.0094  -16.8436 N   0  0  0  0  0  0  0  0  0  0  0  0
   22.1069  -13.6426  -16.3432 C   0  0  0  0  0  0  0  0  0  0  0  0
   21.5694  -13.8394  -15.2122 O   0  0  0  0  0  0  0  0  0  0  0  0
   25.2192  -12.0455  -14.8506 C   0  0  0  0  0  0  0  0  0  0  0  0
   24.3404  -10.9504  -15.3814 C   0  0  1  0  0  0  0  0  0  0  0  0
   24.8112  -10.5721  -16.6284 O   0  0  0  0  0  0  0  0  0  0  0  0
   22.9049  -11.3864  -15.5253 C   0  0  2  0  0  0  0  0  0  0  0  0
   22.7719  -12.4247  -16.5387 N   0  0  0  0  0  0  0  0  0  0  0  0
   22.0835  -10.2247  -15.9617 C   0  0  0  0  0  0  0  0  0  0  0  0
   21.5647  -10.2156  -17.1356 O   0  0  0  0  0  0  0  0  0  0  0  0
   21.8478   -9.1170  -15.1222 N   0  0  0  0  0  0  0  0  0  0  0  0
   21.0601   -7.9608  -15.6225 C   0  0  1  0  0  0  0  0  0  0  0  0
   19.7152   -8.4515  -16.0405 C   0  0  0  0  0  0  0  0  0  0  0  0
   18.7124   -7.4417  -16.4248 C   0  0  0  0  0  0  0  0  0  0  0  0
   17.3259   -7.8397  -16.7120 C   0  0  0  0  0  0  0  0  0  0  0  0
   16.3716   -6.7525  -17.0896 C   0  0  0  0  0  0  0  0  0  0  0  0
   15.1033   -7.2694  -17.4686 N   0  0  0  0  0  0  0  0  0  0  0  0
   21.1457   -6.8610  -14.6914 C   0  0  0  0  0  0  0  0  0  0  0  0
   21.6531   -6.8757  -13.4044 O   0  0  0  0  0  0  0  0  0  0  0  0
   20.7045   -5.7098  -15.0558 O   0  0  0  0  0  0  0  0  0  0  0  0
  2  1  1  0
  2  3  1  0
  3  4  1  6
  5  3  1  0
  5  6  1  1
  7  5  1  0
  8  7  2  0
 10  9  1  6
 10 12  1  0
 11 10  1  0
 12 13  1  6
 13  7  1  0
 14 12  1  0
 14 15  2  0
 16 14  1  0
 17 16  1  0
 17 18  1  1
 17 23  1  0
 19 18  1  0
 19 20  1  0
 21 20  1  0
 21 22  1  0
 23 25  2  0
 23 24  1  0
M  END
$$$$
