WTA.pdb
     RDKit          3D

 27 28  0  0  1  0  0  0  0  0999 V2000
    6.6027  -17.5413   25.1438 N   0  0  0  0  0  0  0  0  0  0  0  0
    6.9090  -17.0452   23.8377 C   0  0  1  0  0  0  0  0  0  0  0  0
    6.7885  -15.5420   23.8229 C   0  0  0  0  0  0  0  0  0  0  0  0
    6.9558  -14.9919   25.1884 C   0  0  0  0  0  0  0  0  0  0  0  0
    7.1891  -15.7855   26.2975 C   0  0  0  0  0  0  0  0  0  0  0  0
    7.3329  -15.0369   27.3819 N   0  0  0  0  0  0  0  0  0  0  0  0
    7.1959  -13.7464   27.0021 C   0  0  0  0  0  0  0  0  0  0  0  0
    7.2452  -12.5588   27.7084 C   0  0  0  0  0  0  0  0  0  0  0  0
    7.0641  -11.3629   27.0755 C   0  0  0  0  0  0  0  0  0  0  0  0
    6.8290  -11.3163   25.7256 C   0  0  0  0  0  0  0  0  0  0  0  0
    6.7734  -12.5001   24.9835 C   0  0  0  0  0  0  0  0  0  0  0  0
    6.9600  -13.6969   25.6401 C   0  0  0  0  0  0  0  0  0  0  0  0
    8.2295  -17.5051   23.3457 C   0  0  0  0  0  0  0  0  0  0  0  0
    8.8030  -18.4137   24.0405 O   0  0  0  0  0  0  0  0  0  0  0  0
    8.9038  -17.6291   19.4748 C   0  0  0  0  0  0  0  0  0  0  0  0
   10.1831  -17.2767   20.1791 C   0  0  1  0  0  0  0  0  0  0  0  0
   10.2771  -15.8643   20.0961 O   0  0  0  0  0  0  0  0  0  0  0  0
   10.0922  -17.6745   21.6565 C   0  0  2  0  0  0  0  0  0  0  0  0
    8.8703  -17.0195   22.1977 N   0  0  0  0  0  0  0  0  0  0  0  0
   11.2583  -17.2353   22.4387 C   0  0  0  0  0  0  0  0  0  0  0  0
   11.2096  -16.1072   23.0374 O   0  0  0  0  0  0  0  0  0  0  0  0
   14.3922  -18.4422   24.0477 C   0  0  0  0  0  0  0  0  0  0  0  0
   13.5738  -17.3922   23.3785 C   0  0  2  0  0  0  0  0  0  0  0  0
   12.4697  -17.9429   22.6126 N   0  0  0  0  0  0  0  0  0  0  0  0
   14.4638  -16.5677   22.5042 C   0  0  0  0  0  0  0  0  0  0  0  0
   14.2544  -16.6222   21.2695 O   0  0  0  0  0  0  0  0  0  0  0  0
   15.4806  -15.7664   22.9584 O   0  0  0  0  0  0  0  0  0  0  0  0
  2  3  1  0
  2  1  1  1
  2 13  1  0
  4  3  1  0
  4  5  2  0
  6  5  1  0
  7  6  1  0
  8  7  2  0
  9  8  1  0
 10  9  2  0
 10 11  1  0
 11 12  2  0
 12  7  1  0
 12  4  1  0
 13 19  1  0
 14 13  2  0
 16 17  1  0
 16 15  1  6
 18 16  1  0
 18 19  1  1
 20 21  2  0
 20 18  1  0
 23 24  1  0
 23 22  1  6
 24 20  1  0
 25 23  1  0
 26 25  2  0
 27 25  1  0
M  END
$$$$
