WTA.pdb
     RDKit          3D

 27 28  0  0  1  0  0  0  0  0999 V2000
    6.3854  -17.4014   24.0282 N   0  0  0  0  0  0  0  0  0  0  0  0
    7.5780  -16.6118   24.0270 C   0  0  1  0  0  0  0  0  0  0  0  0
    7.9305  -16.2198   25.4399 C   0  0  0  0  0  0  0  0  0  0  0  0
    7.0974  -15.0795   25.8881 C   0  0  0  0  0  0  0  0  0  0  0  0
    5.9460  -15.2364   26.6391 C   0  0  0  0  0  0  0  0  0  0  0  0
    5.4175  -14.0563   26.9304 N   0  0  0  0  0  0  0  0  0  0  0  0
    6.2105  -13.1115   26.3765 C   0  0  0  0  0  0  0  0  0  0  0  0
    6.1383  -11.7309   26.3577 C   0  0  0  0  0  0  0  0  0  0  0  0
    7.0837  -10.9917   25.7070 C   0  0  0  0  0  0  0  0  0  0  0  0
    8.1242  -11.6051   25.0582 C   0  0  0  0  0  0  0  0  0  0  0  0
    8.2250  -12.9997   25.0591 C   0  0  0  0  0  0  0  0  0  0  0  0
    7.2618  -13.7280   25.7226 C   0  0  0  0  0  0  0  0  0  0  0  0
    8.7057  -17.2792   23.3340 C   0  0  0  0  0  0  0  0  0  0  0  0
    8.7861  -18.5473   23.4836 O   0  0  0  0  0  0  0  0  0  0  0  0
    9.6394  -16.7638   19.7522 C   0  0  0  0  0  0  0  0  0  0  0  0
   10.9447  -16.7460   20.4958 C   0  0  1  0  0  0  0  0  0  0  0  0
   11.2622  -15.3736   20.6581 O   0  0  0  0  0  0  0  0  0  0  0  0
   10.7639  -17.3732   21.8825 C   0  0  2  0  0  0  0  0  0  0  0  0
    9.6624  -16.6243   22.5465 N   0  0  0  0  0  0  0  0  0  0  0  0
   11.9750  -17.2814   22.7128 C   0  0  0  0  0  0  0  0  0  0  0  0
   12.1786  -16.2170   23.3905 O   0  0  0  0  0  0  0  0  0  0  0  0
   14.9858  -19.2700   23.8354 C   0  0  0  0  0  0  0  0  0  0  0  0
   14.1807  -18.0334   23.6285 C   0  0  2  0  0  0  0  0  0  0  0  0
   12.9749  -18.2705   22.8546 N   0  0  0  0  0  0  0  0  0  0  0  0
   15.0380  -17.0015   22.9678 C   0  0  0  0  0  0  0  0  0  0  0  0
   16.0125  -16.5676   23.6261 O   0  0  0  0  0  0  0  0  0  0  0  0
   14.8310  -16.5056   21.7055 O   0  0  0  0  0  0  0  0  0  0  0  0
  2  3  1  0
  2  1  1  1
  2 13  1  0
  4  3  1  0
  4  5  2  0
  6  5  1  0
  7  6  1  0
  8  7  2  0
  9  8  1  0
 10  9  2  0
 10 11  1  0
 11 12  2  0
 12  7  1  0
 12  4  1  0
 13 19  1  0
 14 13  2  0
 16 17  1  0
 16 15  1  6
 18 16  1  0
 18 19  1  1
 20 21  2  0
 20 18  1  0
 23 24  1  0
 23 22  1  6
 24 20  1  0
 25 23  1  0
 26 25  2  0
 27 25  1  0
M  END
$$$$
