WTA.pdb
     RDKit          3D

 27 28  0  0  1  0  0  0  0  0999 V2000
    6.9930  -17.1530   23.4775 N   0  0  0  0  0  0  0  0  0  0  0  0
    8.2020  -16.3922   23.5497 C   0  0  1  0  0  0  0  0  0  0  0  0
    8.4965  -16.0394   24.9860 C   0  0  0  0  0  0  0  0  0  0  0  0
    7.4452  -15.1486   25.5304 C   0  0  0  0  0  0  0  0  0  0  0  0
    6.2467  -15.6189   26.0371 C   0  0  0  0  0  0  0  0  0  0  0  0
    5.5074  -14.6151   26.4874 N   0  0  0  0  0  0  0  0  0  0  0  0
    6.2066  -13.4760   26.2829 C   0  0  0  0  0  0  0  0  0  0  0  0
    5.9221  -12.1495   26.5501 C   0  0  0  0  0  0  0  0  0  0  0  0
    6.8150  -11.1670   26.2323 C   0  0  0  0  0  0  0  0  0  0  0  0
    8.0125  -11.4770   25.6409 C   0  0  0  0  0  0  0  0  0  0  0  0
    8.3294  -12.8092   25.3580 C   0  0  0  0  0  0  0  0  0  0  0  0
    7.4158  -13.7864   25.6876 C   0  0  0  0  0  0  0  0  0  0  0  0
    9.3456  -17.0712   22.8949 C   0  0  0  0  0  0  0  0  0  0  0  0
    9.4098  -18.3396   23.0495 O   0  0  0  0  0  0  0  0  0  0  0  0
   10.7085  -16.4919   19.4261 C   0  0  0  0  0  0  0  0  0  0  0  0
   11.9203  -16.5456   20.3124 C   0  0  1  0  0  0  0  0  0  0  0  0
   12.2991  -15.1932   20.5079 O   0  0  0  0  0  0  0  0  0  0  0  0
   11.5470  -17.1498   21.6706 C   0  0  2  0  0  0  0  0  0  0  0  0
   10.3330  -16.4266   22.1374 N   0  0  0  0  0  0  0  0  0  0  0  0
   12.6116  -16.9981   22.6748 C   0  0  0  0  0  0  0  0  0  0  0  0
   12.4386  -16.1748   23.6370 O   0  0  0  0  0  0  0  0  0  0  0  0
   14.7475  -18.3467   24.8815 C   0  0  0  0  0  0  0  0  0  0  0  0
   14.8476  -17.4187   23.7201 C   0  0  2  0  0  0  0  0  0  0  0  0
   13.8476  -17.6836   22.7008 N   0  0  0  0  0  0  0  0  0  0  0  0
   16.2250  -17.5090   23.1447 C   0  0  0  0  0  0  0  0  0  0  0  0
   16.3162  -17.8528   21.9427 O   0  0  0  0  0  0  0  0  0  0  0  0
   17.3797  -17.2438   23.8365 O   0  0  0  0  0  0  0  0  0  0  0  0
  2  3  1  0
  2  1  1  1
  2 13  1  0
  4  3  1  0
  4  5  2  0
  6  5  1  0
  7  6  1  0
  8  7  2  0
  9  8  1  0
 10  9  2  0
 10 11  1  0
 11 12  2  0
 12  7  1  0
 12  4  1  0
 13 19  1  0
 14 13  2  0
 16 17  1  0
 16 15  1  6
 18 16  1  0
 18 19  1  1
 20 21  2  0
 20 18  1  0
 23 24  1  0
 23 22  1  1
 24 20  1  0
 25 23  1  0
 26 25  2  0
 27 25  1  0
M  END
$$$$
