WTA.pdb
     RDKit          3D

 27 28  0  0  1  0  0  0  0  0999 V2000
    7.2812  -17.5247   24.6720 N   0  0  0  0  0  0  0  0  0  0  0  0
    7.3247  -17.1570   23.2904 C   0  0  1  0  0  0  0  0  0  0  0  0
    6.8388  -15.7390   23.1255 C   0  0  0  0  0  0  0  0  0  0  0  0
    6.6378  -15.0995   24.4468 C   0  0  0  0  0  0  0  0  0  0  0  0
    5.9427  -15.7042   25.4791 C   0  0  0  0  0  0  0  0  0  0  0  0
    5.9437  -14.9302   26.5551 N   0  0  0  0  0  0  0  0  0  0  0  0
    6.6359  -13.8106   26.2460 C   0  0  0  0  0  0  0  0  0  0  0  0
    6.9448  -12.6771   26.9750 C   0  0  0  0  0  0  0  0  0  0  0  0
    7.6680  -11.6634   26.4154 C   0  0  0  0  0  0  0  0  0  0  0  0
    8.1022  -11.7498   25.1178 C   0  0  0  0  0  0  0  0  0  0  0  0
    7.8059  -12.8833   24.3545 C   0  0  0  0  0  0  0  0  0  0  0  0
    7.0762  -13.8961   24.9376 C   0  0  0  0  0  0  0  0  0  0  0  0
    8.6618  -17.3638   22.6848 C   0  0  0  0  0  0  0  0  0  0  0  0
    8.7613  -17.0977   21.4373 O   0  0  0  0  0  0  0  0  0  0  0  0
   10.4350  -16.1917   21.1170 C   0  0  0  0  0  0  0  0  0  0  0  0
   11.4766  -16.6287   22.1075 C   0  0  1  0  0  0  0  0  0  0  0  0
   11.4293  -15.6656   23.1470 O   0  0  0  0  0  0  0  0  0  0  0  0
   11.1015  -17.9958   22.6902 C   0  0  2  0  0  0  0  0  0  0  0  0
    9.7925  -17.8198   23.3761 N   0  0  0  0  0  0  0  0  0  0  0  0
   12.0889  -18.4927   23.6613 C   0  0  0  0  0  0  0  0  0  0  0  0
   11.9293  -18.2165   24.8989 O   0  0  0  0  0  0  0  0  0  0  0  0
   15.1621  -20.6790   23.9237 C   0  0  0  0  0  0  0  0  0  0  0  0
   14.1343  -19.7213   24.4203 C   0  0  2  0  0  0  0  0  0  0  0  0
   13.2341  -19.2699   23.3738 N   0  0  0  0  0  0  0  0  0  0  0  0
   14.8238  -18.5593   25.0613 C   0  0  0  0  0  0  0  0  0  0  0  0
   15.4530  -18.7873   26.1212 O   0  0  0  0  0  0  0  0  0  0  0  0
   14.8134  -17.2776   24.5719 O   0  0  0  0  0  0  0  0  0  0  0  0
  2  3  1  0
  2  1  1  1
  2 13  1  0
  4  3  1  0
  4  5  2  0
  6  5  1  0
  7  6  1  0
  8  7  2  0
  9  8  1  0
 10  9  2  0
 10 11  1  0
 11 12  2  0
 12  7  1  0
 12  4  1  0
 13 19  1  0
 14 13  2  0
 16 17  1  0
 16 15  1  6
 18 16  1  0
 18 19  1  1
 20 21  2  0
 20 18  1  0
 23 24  1  0
 23 22  1  6
 24 20  1  0
 25 23  1  0
 26 25  2  0
 27 25  1  0
M  END
$$$$
