WTA.pdb
     RDKit          3D

 27 28  0  0  1  0  0  0  0  0999 V2000
    6.2819  -17.4220   24.3673 N   0  0  0  0  0  0  0  0  0  0  0  0
    7.2422  -16.5401   23.7792 C   0  0  1  0  0  0  0  0  0  0  0  0
    8.1034  -15.9330   24.8581 C   0  0  0  0  0  0  0  0  0  0  0  0
    7.3378  -14.9290   25.6334 C   0  0  0  0  0  0  0  0  0  0  0  0
    6.2422  -15.2542   26.4133 C   0  0  0  0  0  0  0  0  0  0  0  0
    5.7695  -14.1760   27.0223 N   0  0  0  0  0  0  0  0  0  0  0  0
    6.5443  -13.1315   26.6519 C   0  0  0  0  0  0  0  0  0  0  0  0
    6.5086  -11.7871   26.9731 C   0  0  0  0  0  0  0  0  0  0  0  0
    7.4223  -10.9198   26.4472 C   0  0  0  0  0  0  0  0  0  0  0  0
    8.3940  -11.3656   25.5888 C   0  0  0  0  0  0  0  0  0  0  0  0
    8.4564  -12.7195   25.2446 C   0  0  0  0  0  0  0  0  0  0  0  0
    7.5263  -13.5791   25.7868 C   0  0  0  0  0  0  0  0  0  0  0  0
    8.0491  -17.1951   22.7222 C   0  0  0  0  0  0  0  0  0  0  0  0
    8.3342  -18.4274   22.9149 O   0  0  0  0  0  0  0  0  0  0  0  0
    8.0912  -16.3120   18.8913 C   0  0  0  0  0  0  0  0  0  0  0  0
    9.5130  -16.4462   19.3577 C   0  0  1  0  0  0  0  0  0  0  0  0
    9.9666  -15.1176   19.5569 O   0  0  0  0  0  0  0  0  0  0  0  0
    9.5542  -17.1833   20.7008 C   0  0  2  0  0  0  0  0  0  0  0  0
    8.5055  -16.5647   21.5566 N   0  0  0  0  0  0  0  0  0  0  0  0
   10.8558  -17.0658   21.3767 C   0  0  0  0  0  0  0  0  0  0  0  0
   10.9552  -16.2983   22.3938 O   0  0  0  0  0  0  0  0  0  0  0  0
   13.3342  -18.5988   22.9182 C   0  0  0  0  0  0  0  0  0  0  0  0
   13.2623  -17.6026   21.8125 C   0  0  2  0  0  0  0  0  0  0  0  0
   12.0521  -17.7289   21.0196 N   0  0  0  0  0  0  0  0  0  0  0  0
   14.4759  -17.7466   20.9505 C   0  0  0  0  0  0  0  0  0  0  0  0
   14.2977  -18.1804   19.7880 O   0  0  0  0  0  0  0  0  0  0  0  0
   15.7540  -17.4391   21.3431 O   0  0  0  0  0  0  0  0  0  0  0  0
  2  3  1  0
  2  1  1  1
  2 13  1  0
  4  3  1  0
  4  5  2  0
  6  5  1  0
  7  6  1  0
  8  7  2  0
  9  8  1  0
 10  9  2  0
 10 11  1  0
 11 12  2  0
 12  7  1  0
 12  4  1  0
 13 19  1  0
 14 13  2  0
 16 17  1  0
 16 15  1  1
 18 16  1  0
 18 19  1  1
 20 21  2  0
 20 18  1  0
 23 24  1  0
 23 22  1  1
 24 20  1  0
 25 23  1  0
 26 25  2  0
 27 25  1  0
M  END
$$$$
