WTA.pdb
     RDKit          3D

 27 28  0  0  1  0  0  0  0  0999 V2000
    6.3125  -17.2940   23.6174 N   0  0  0  0  0  0  0  0  0  0  0  0
    7.0152  -16.1137   23.2186 C   0  0  1  0  0  0  0  0  0  0  0  0
    8.0789  -15.7863   24.2362 C   0  0  0  0  0  0  0  0  0  0  0  0
    7.4887  -15.0859   25.4008 C   0  0  0  0  0  0  0  0  0  0  0  0
    6.9015  -15.7512   26.4624 C   0  0  0  0  0  0  0  0  0  0  0  0
    6.4880  -14.8881   27.3795 N   0  0  0  0  0  0  0  0  0  0  0  0
    6.7959  -13.6488   26.9348 C   0  0  0  0  0  0  0  0  0  0  0  0
    6.5960  -12.3912   27.4733 C   0  0  0  0  0  0  0  0  0  0  0  0
    7.0039  -11.2731   26.8046 C   0  0  0  0  0  0  0  0  0  0  0  0
    7.6202  -11.3759   25.5842 C   0  0  0  0  0  0  0  0  0  0  0  0
    7.8367  -12.6338   25.0131 C   0  0  0  0  0  0  0  0  0  0  0  0
    7.4191  -13.7501   25.7042 C   0  0  0  0  0  0  0  0  0  0  0  0
    7.5659  -16.2116   21.8458 C   0  0  0  0  0  0  0  0  0  0  0  0
    7.8236  -17.3926   21.4264 O   0  0  0  0  0  0  0  0  0  0  0  0
    6.5891  -13.5954   19.2697 C   0  0  0  0  0  0  0  0  0  0  0  0
    7.9430  -14.0700   18.8242 C   0  0  1  0  0  0  0  0  0  0  0  0
    8.8317  -13.0117   19.1415 O   0  0  0  0  0  0  0  0  0  0  0  0
    8.3520  -15.3094   19.6278 C   0  0  2  0  0  0  0  0  0  0  0  0
    7.8140  -15.1201   21.0025 N   0  0  0  0  0  0  0  0  0  0  0  0
    9.8108  -15.4847   19.7035 C   0  0  0  0  0  0  0  0  0  0  0  0
   10.4507  -15.7926   18.6408 O   0  0  0  0  0  0  0  0  0  0  0  0
   12.8132  -14.2992   21.1462 C   0  0  0  0  0  0  0  0  0  0  0  0
   12.0551  -15.5377   20.8125 C   0  0  2  0  0  0  0  0  0  0  0  0
   10.6163  -15.3454   20.8568 N   0  0  0  0  0  0  0  0  0  0  0  0
   12.4713  -16.6278   21.7479 C   0  0  0  0  0  0  0  0  0  0  0  0
   11.5720  -17.1466   22.4503 O   0  0  0  0  0  0  0  0  0  0  0  0
   13.7553  -17.0911   21.8857 O   0  0  0  0  0  0  0  0  0  0  0  0
  2  3  1  0
  2  1  1  1
  2 13  1  0
  4  3  1  0
  4  5  2  0
  6  5  1  0
  7  6  1  0
  8  7  2  0
  9  8  1  0
 10  9  2  0
 10 11  1  0
 11 12  2  0
 12  7  1  0
 12  4  1  0
 13 19  1  0
 14 13  2  0
 16 17  1  0
 16 15  1  1
 18 16  1  0
 18 19  1  1
 20 21  2  0
 20 18  1  0
 23 24  1  0
 23 22  1  1
 24 20  1  0
 25 23  1  0
 26 25  2  0
 27 25  1  0
M  END
$$$$
