WTA.pdb
     RDKit          3D

 27 28  0  0  1  0  0  0  0  0999 V2000
    6.8850  -17.7425   24.0492 N   0  0  0  0  0  0  0  0  0  0  0  0
    8.0364  -16.9004   23.9429 C   0  0  1  0  0  0  0  0  0  0  0  0
    8.3729  -16.3251   25.2956 C   0  0  0  0  0  0  0  0  0  0  0  0
    7.3663  -15.3151   25.6980 C   0  0  0  0  0  0  0  0  0  0  0  0
    6.0654  -15.6414   26.0380 C   0  0  0  0  0  0  0  0  0  0  0  0
    5.3913  -14.5556   26.3893 N   0  0  0  0  0  0  0  0  0  0  0  0
    6.2361  -13.5050   26.2848 C   0  0  0  0  0  0  0  0  0  0  0  0
    6.0710  -12.1520   26.5169 C   0  0  0  0  0  0  0  0  0  0  0  0
    7.1039  -11.2803   26.3254 C   0  0  0  0  0  0  0  0  0  0  0  0
    8.3266  -11.7301   25.8983 C   0  0  0  0  0  0  0  0  0  0  0  0
    8.5252  -13.0927   25.6550 C   0  0  0  0  0  0  0  0  0  0  0  0
    7.4709  -13.9567   25.8554 C   0  0  0  0  0  0  0  0  0  0  0  0
    9.1942  -17.5892   23.3244 C   0  0  0  0  0  0  0  0  0  0  0  0
    9.3974  -18.7952   23.7003 O   0  0  0  0  0  0  0  0  0  0  0  0
   10.3006  -17.1752   19.6188 C   0  0  0  0  0  0  0  0  0  0  0  0
   11.5384  -17.1651   20.4701 C   0  0  1  0  0  0  0  0  0  0  0  0
   11.8667  -15.7954   20.6337 O   0  0  0  0  0  0  0  0  0  0  0  0
   11.2291  -17.7615   21.8477 C   0  0  2  0  0  0  0  0  0  0  0  0
   10.0556  -17.0162   22.3789 N   0  0  0  0  0  0  0  0  0  0  0  0
   12.3495  -17.6282   22.7920 C   0  0  0  0  0  0  0  0  0  0  0  0
   12.4468  -16.5595   23.4862 O   0  0  0  0  0  0  0  0  0  0  0  0
   15.1579  -19.4971   24.4291 C   0  0  0  0  0  0  0  0  0  0  0  0
   14.5187  -18.2769   23.8611 C   0  0  2  0  0  0  0  0  0  0  0  0
   13.3668  -18.5803   23.0304 N   0  0  0  0  0  0  0  0  0  0  0  0
   15.5419  -17.5099   23.0856 C   0  0  0  0  0  0  0  0  0  0  0  0
   15.3557  -17.4046   21.8505 O   0  0  0  0  0  0  0  0  0  0  0  0
   16.6556  -16.9220   23.6299 O   0  0  0  0  0  0  0  0  0  0  0  0
  2  3  1  0
  2  1  1  1
  2 13  1  0
  4  3  1  0
  4  5  2  0
  6  5  1  0
  7  6  1  0
  8  7  2  0
  9  8  1  0
 10  9  2  0
 10 11  1  0
 11 12  2  0
 12  7  1  0
 12  4  1  0
 13 19  1  0
 14 13  2  0
 16 17  1  0
 16 15  1  6
 18 16  1  0
 18 19  1  1
 20 21  2  0
 20 18  1  0
 23 24  1  0
 23 22  1  6
 24 20  1  0
 25 23  1  0
 26 25  2  0
 27 25  1  0
M  END
$$$$
