WTA.pdb
     RDKit          3D

 27 28  0  0  1  0  0  0  0  0999 V2000
    5.9653  -17.1967   23.9571 N   0  0  0  0  0  0  0  0  0  0  0  0
    6.8239  -16.1431   23.5113 C   0  0  1  0  0  0  0  0  0  0  0  0
    7.7243  -15.7082   24.6402 C   0  0  0  0  0  0  0  0  0  0  0  0
    7.0007  -14.8063   25.5667 C   0  0  0  0  0  0  0  0  0  0  0  0
    5.9502  -15.2281   26.3623 C   0  0  0  0  0  0  0  0  0  0  0  0
    5.5099  -14.2310   27.1165 N   0  0  0  0  0  0  0  0  0  0  0  0
    6.2613  -13.1446   26.8276 C   0  0  0  0  0  0  0  0  0  0  0  0
    6.2411  -11.8465   27.3034 C   0  0  0  0  0  0  0  0  0  0  0  0
    7.1230  -10.9171   26.8322 C   0  0  0  0  0  0  0  0  0  0  0  0
    8.0468  -11.2532   25.8766 C   0  0  0  0  0  0  0  0  0  0  0  0
    8.0925  -12.5578   25.3754 C   0  0  0  0  0  0  0  0  0  0  0  0
    7.1950  -13.4817   25.8645 C   0  0  0  0  0  0  0  0  0  0  0  0
    7.5883  -16.5039   22.2937 C   0  0  0  0  0  0  0  0  0  0  0  0
    7.8127  -17.7515   22.1199 O   0  0  0  0  0  0  0  0  0  0  0  0
    7.3242  -14.1654   19.2624 C   0  0  0  0  0  0  0  0  0  0  0  0
    8.6406  -14.8722   19.1059 C   0  0  1  0  0  0  0  0  0  0  0  0
    9.6230  -13.9121   19.4578 O   0  0  0  0  0  0  0  0  0  0  0  0
    8.7252  -16.0422   20.0924 C   0  0  2  0  0  0  0  0  0  0  0  0
    8.0665  -15.5876   21.3471 N   0  0  0  0  0  0  0  0  0  0  0  0
   10.1105  -16.4360   20.3933 C   0  0  0  0  0  0  0  0  0  0  0  0
   10.7394  -15.8192   21.3194 O   0  0  0  0  0  0  0  0  0  0  0  0
   12.7093  -19.0414   19.5449 C   0  0  0  0  0  0  0  0  0  0  0  0
   12.2125  -17.7752   20.1532 C   0  0  2  0  0  0  0  0  0  0  0  0
   10.8529  -17.4557   19.7550 N   0  0  0  0  0  0  0  0  0  0  0  0
   13.1445  -16.6639   19.7889 C   0  0  0  0  0  0  0  0  0  0  0  0
   12.8816  -16.0225   18.7445 O   0  0  0  0  0  0  0  0  0  0  0  0
   14.2532  -16.3051   20.5130 O   0  0  0  0  0  0  0  0  0  0  0  0
  2  3  1  0
  2  1  1  1
  2 13  1  0
  4  3  1  0
  4  5  2  0
  6  5  1  0
  7  6  1  0
  8  7  2  0
  9  8  1  0
 10  9  2  0
 10 11  1  0
 11 12  2  0
 12  7  1  0
 12  4  1  0
 13 19  1  0
 14 13  2  0
 16 17  1  0
 16 15  1  1
 18 16  1  0
 18 19  1  1
 20 21  2  0
 20 18  1  0
 23 24  1  0
 23 22  1  6
 24 20  1  0
 25 23  1  0
 26 25  2  0
 27 25  1  0
M  END
$$$$
