WTA.pdb
     RDKit          3D

 27 28  0  0  1  0  0  0  0  0999 V2000
    6.5268  -17.4453   23.9541 N   0  0  0  0  0  0  0  0  0  0  0  0
    7.8182  -16.8330   23.8972 C   0  0  1  0  0  0  0  0  0  0  0  0
    8.2170  -16.3574   25.2715 C   0  0  0  0  0  0  0  0  0  0  0  0
    7.2847  -15.3109   25.7523 C   0  0  0  0  0  0  0  0  0  0  0  0
    6.0264  -15.5946   26.2529 C   0  0  0  0  0  0  0  0  0  0  0  0
    5.4199  -14.4819   26.6415 N   0  0  0  0  0  0  0  0  0  0  0  0
    6.2674  -13.4559   26.4020 C   0  0  0  0  0  0  0  0  0  0  0  0
    6.1575  -12.0924   26.6033 C   0  0  0  0  0  0  0  0  0  0  0  0
    7.1780  -11.2524   26.2619 C   0  0  0  0  0  0  0  0  0  0  0  0
    8.3330  -11.7452   25.7116 C   0  0  0  0  0  0  0  0  0  0  0  0
    8.4746  -13.1194   25.4955 C   0  0  0  0  0  0  0  0  0  0  0  0
    7.4341  -13.9509   25.8479 C   0  0  0  0  0  0  0  0  0  0  0  0
    8.8439  -17.7151   23.2913 C   0  0  0  0  0  0  0  0  0  0  0  0
    8.6558  -18.9731   23.4290 O   0  0  0  0  0  0  0  0  0  0  0  0
   11.0322  -17.2098   20.0486 C   0  0  0  0  0  0  0  0  0  0  0  0
   11.9394  -17.5282   21.2030 C   0  0  1  0  0  0  0  0  0  0  0  0
   12.4314  -16.2746   21.6469 O   0  0  0  0  0  0  0  0  0  0  0  0
   11.1333  -18.1670   22.3394 C   0  0  2  0  0  0  0  0  0  0  0  0
    9.9754  -17.2678   22.5957 N   0  0  0  0  0  0  0  0  0  0  0  0
   11.9115  -18.3124   23.5795 C   0  0  0  0  0  0  0  0  0  0  0  0
   12.0218  -17.3060   24.3596 O   0  0  0  0  0  0  0  0  0  0  0  0
   12.9706  -20.5952   26.1704 C   0  0  0  0  0  0  0  0  0  0  0  0
   13.3595  -19.4927   25.2466 C   0  0  2  0  0  0  0  0  0  0  0  0
   12.5738  -19.4789   24.0253 N   0  0  0  0  0  0  0  0  0  0  0  0
   14.8173  -19.6126   24.9354 C   0  0  0  0  0  0  0  0  0  0  0  0
   15.1300  -19.7580   23.7303 O   0  0  0  0  0  0  0  0  0  0  0  0
   15.8214  -19.5740   25.8696 O   0  0  0  0  0  0  0  0  0  0  0  0
  2  3  1  0
  2  1  1  1
  2 13  1  0
  4  3  1  0
  4  5  2  0
  6  5  1  0
  7  6  1  0
  8  7  2  0
  9  8  1  0
 10  9  2  0
 10 11  1  0
 11 12  2  0
 12  7  1  0
 12  4  1  0
 13 19  1  0
 14 13  2  0
 16 17  1  0
 16 15  1  6
 18 16  1  0
 18 19  1  1
 20 21  2  0
 20 18  1  0
 23 24  1  0
 23 22  1  1
 24 20  1  0
 25 23  1  0
 26 25  2  0
 27 25  1  0
M  END
$$$$
