WTA.pdb
     RDKit          3D

 27 28  0  0  1  0  0  0  0  0999 V2000
    5.7818  -17.3787   24.4397 N   0  0  0  0  0  0  0  0  0  0  0  0
    6.7084  -16.4040   23.9528 C   0  0  1  0  0  0  0  0  0  0  0  0
    7.6143  -15.9585   25.0731 C   0  0  0  0  0  0  0  0  0  0  0  0
    6.9932  -14.8516   25.8375 C   0  0  0  0  0  0  0  0  0  0  0  0
    5.8405  -15.0069   26.5868 C   0  0  0  0  0  0  0  0  0  0  0  0
    5.5244  -13.8713   27.1929 N   0  0  0  0  0  0  0  0  0  0  0  0
    6.4608  -12.9576   26.8511 C   0  0  0  0  0  0  0  0  0  0  0  0
    6.6251  -11.6255   27.1828 C   0  0  0  0  0  0  0  0  0  0  0  0
    7.6754  -10.9077   26.6876 C   0  0  0  0  0  0  0  0  0  0  0  0
    8.5886  -11.4946   25.8501 C   0  0  0  0  0  0  0  0  0  0  0  0
    8.4499  -12.8402   25.4960 C   0  0  0  0  0  0  0  0  0  0  0  0
    7.3841  -13.5480   26.0072 C   0  0  0  0  0  0  0  0  0  0  0  0
    7.4700  -16.8775   22.7725 C   0  0  0  0  0  0  0  0  0  0  0  0
    7.7133  -18.1328   22.7270 O   0  0  0  0  0  0  0  0  0  0  0  0
    7.2737  -14.8953   19.4728 C   0  0  0  0  0  0  0  0  0  0  0  0
    8.6166  -15.5686   19.4627 C   0  0  1  0  0  0  0  0  0  0  0  0
    9.5506  -14.5413   19.7505 O   0  0  0  0  0  0  0  0  0  0  0  0
    8.6833  -16.6167   20.5790 C   0  0  2  0  0  0  0  0  0  0  0  0
    7.9268  -16.0571   21.7320 N   0  0  0  0  0  0  0  0  0  0  0  0
   10.0606  -16.9094   21.0056 C   0  0  0  0  0  0  0  0  0  0  0  0
   10.5604  -16.2434   21.9752 O   0  0  0  0  0  0  0  0  0  0  0  0
   12.9754  -19.2152   20.3142 C   0  0  0  0  0  0  0  0  0  0  0  0
   12.3052  -18.0123   20.8835 C   0  0  2  0  0  0  0  0  0  0  0  0
   10.9261  -17.8783   20.4483 N   0  0  0  0  0  0  0  0  0  0  0  0
   13.0956  -16.7973   20.5155 C   0  0  0  0  0  0  0  0  0  0  0  0
   12.7385  -16.1788   19.4854 O   0  0  0  0  0  0  0  0  0  0  0  0
   14.1711  -16.3215   21.2220 O   0  0  0  0  0  0  0  0  0  0  0  0
  2  3  1  0
  2  1  1  1
  2 13  1  0
  4  3  1  0
  4  5  2  0
  6  5  1  0
  7  6  1  0
  8  7  2  0
  9  8  1  0
 10  9  2  0
 10 11  1  0
 11 12  2  0
 12  7  1  0
 12  4  1  0
 13 19  1  0
 14 13  2  0
 16 17  1  0
 16 15  1  1
 18 16  1  0
 18 19  1  1
 20 21  2  0
 20 18  1  0
 23 24  1  0
 23 22  1  6
 24 20  1  0
 25 23  1  0
 26 25  2  0
 27 25  1  0
M  END
$$$$
