WTA.pdb
     RDKit          3D

 27 28  0  0  1  0  0  0  0  0999 V2000
    6.3369  -18.4612   24.4495 N   0  0  0  0  0  0  0  0  0  0  0  0
    6.9865  -17.2638   24.0135 C   0  0  1  0  0  0  0  0  0  0  0  0
    7.7675  -16.6637   25.1554 C   0  0  0  0  0  0  0  0  0  0  0  0
    7.0280  -15.5272   25.7528 C   0  0  0  0  0  0  0  0  0  0  0  0
    5.8587  -15.6850   26.4753 C   0  0  0  0  0  0  0  0  0  0  0  0
    5.4279  -14.5140   26.9227 N   0  0  0  0  0  0  0  0  0  0  0  0
    6.3042  -13.5743   26.5015 C   0  0  0  0  0  0  0  0  0  0  0  0
    6.3487  -12.2025   26.6688 C   0  0  0  0  0  0  0  0  0  0  0  0
    7.3606  -11.4658   26.1239 C   0  0  0  0  0  0  0  0  0  0  0  0
    8.3535  -12.0728   25.3989 C   0  0  0  0  0  0  0  0  0  0  0  0
    8.3365  -13.4584   25.2120 C   0  0  0  0  0  0  0  0  0  0  0  0
    7.3077  -14.1845   25.7709 C   0  0  0  0  0  0  0  0  0  0  0  0
    7.8270  -17.4739   22.8107 C   0  0  0  0  0  0  0  0  0  0  0  0
    8.3471  -18.6361   22.6843 O   0  0  0  0  0  0  0  0  0  0  0  0
    7.1980  -15.4741   19.5061 C   0  0  0  0  0  0  0  0  0  0  0  0
    8.6785  -15.6989   19.6267 C   0  0  1  0  0  0  0  0  0  0  0  0
    9.2033  -14.4732   20.1094 O   0  0  0  0  0  0  0  0  0  0  0  0
    8.9576  -16.7923   20.6639 C   0  0  2  0  0  0  0  0  0  0  0  0
    8.0792  -16.5046   21.8304 N   0  0  0  0  0  0  0  0  0  0  0  0
   10.3590  -16.8101   21.1116 C   0  0  0  0  0  0  0  0  0  0  0  0
   11.2789  -17.0198   20.2494 O   0  0  0  0  0  0  0  0  0  0  0  0
   12.7487  -15.5834   23.5438 C   0  0  0  0  0  0  0  0  0  0  0  0
   12.2268  -16.7502   22.7780 C   0  0  2  0  0  0  0  0  0  0  0  0
   10.8229  -16.6133   22.4323 N   0  0  0  0  0  0  0  0  0  0  0  0
   12.4556  -17.9947   23.5749 C   0  0  0  0  0  0  0  0  0  0  0  0
   11.4418  -18.6616   23.8890 O   0  0  0  0  0  0  0  0  0  0  0  0
   13.6857  -18.4485   23.9792 O   0  0  0  0  0  0  0  0  0  0  0  0
  2  3  1  0
  2  1  1  1
  2 13  1  0
  4  3  1  0
  4  5  2  0
  6  5  1  0
  7  6  1  0
  8  7  2  0
  9  8  1  0
 10  9  2  0
 10 11  1  0
 11 12  2  0
 12  7  1  0
 12  4  1  0
 13 19  1  0
 14 13  2  0
 16 17  1  0
 16 15  1  1
 18 16  1  0
 18 19  1  1
 20 21  2  0
 20 18  1  0
 23 24  1  0
 23 22  1  1
 24 20  1  0
 25 23  1  0
 26 25  2  0
 27 25  1  0
M  END
$$$$
