WTA.pdb
     RDKit          3D

 27 28  0  0  1  0  0  0  0  0999 V2000
    5.9480  -18.1352   24.6136 N   0  0  0  0  0  0  0  0  0  0  0  0
    6.8244  -17.0519   24.2907 C   0  0  1  0  0  0  0  0  0  0  0  0
    7.5031  -16.5557   25.5426 C   0  0  0  0  0  0  0  0  0  0  0  0
    6.8671  -15.3056   26.0202 C   0  0  0  0  0  0  0  0  0  0  0  0
    5.6638  -15.2852   26.7030 C   0  0  0  0  0  0  0  0  0  0  0  0
    5.3433  -14.0444   27.0416 N   0  0  0  0  0  0  0  0  0  0  0  0
    6.3271  -13.2356   26.5872 C   0  0  0  0  0  0  0  0  0  0  0  0
    6.5095  -11.8665   26.6514 C   0  0  0  0  0  0  0  0  0  0  0  0
    7.6109  -11.2827   26.0950 C   0  0  0  0  0  0  0  0  0  0  0  0
    8.5586  -12.0436   25.4606 C   0  0  0  0  0  0  0  0  0  0  0  0
    8.4028  -13.4308   25.3790 C   0  0  0  0  0  0  0  0  0  0  0  0
    7.2851  -14.0013   25.9479 C   0  0  0  0  0  0  0  0  0  0  0  0
    7.7972  -17.3998   23.2277 C   0  0  0  0  0  0  0  0  0  0  0  0
    8.2226  -18.6065   23.2281 O   0  0  0  0  0  0  0  0  0  0  0  0
    7.6304  -15.6653   19.7451 C   0  0  0  0  0  0  0  0  0  0  0  0
    9.0776  -15.9390   20.0410 C   0  0  1  0  0  0  0  0  0  0  0  0
    9.6061  -14.7026   20.4911 O   0  0  0  0  0  0  0  0  0  0  0  0
    9.1937  -16.9624   21.1759 C   0  0  2  0  0  0  0  0  0  0  0  0
    8.2659  -16.5127   22.2492 N   0  0  0  0  0  0  0  0  0  0  0  0
   10.5554  -17.0530   21.7258 C   0  0  0  0  0  0  0  0  0  0  0  0
   10.9367  -16.1774   22.5753 O   0  0  0  0  0  0  0  0  0  0  0  0
   13.6189  -19.2449   21.8046 C   0  0  0  0  0  0  0  0  0  0  0  0
   12.8826  -17.9551   21.9247 C   0  0  2  0  0  0  0  0  0  0  0  0
   11.5254  -18.0327   21.4136 N   0  0  0  0  0  0  0  0  0  0  0  0
   13.6540  -16.8886   21.2148 C   0  0  0  0  0  0  0  0  0  0  0  0
   13.1748  -16.4637   20.1373 O   0  0  0  0  0  0  0  0  0  0  0  0
   14.8356  -16.3517   21.6596 O   0  0  0  0  0  0  0  0  0  0  0  0
  2  3  1  0
  2  1  1  1
  2 13  1  0
  4  3  1  0
  4  5  2  0
  6  5  1  0
  7  6  1  0
  8  7  2  0
  9  8  1  0
 10  9  2  0
 10 11  1  0
 11 12  2  0
 12  7  1  0
 12  4  1  0
 13 19  1  0
 14 13  2  0
 16 17  1  0
 16 15  1  1
 18 16  1  0
 18 19  1  1
 20 21  2  0
 20 18  1  0
 23 24  1  0
 23 22  1  6
 24 20  1  0
 25 23  1  0
 26 25  2  0
 27 25  1  0
M  END
$$$$
