WTA.pdb
     RDKit          3D

 27 28  0  0  1  0  0  0  0  0999 V2000
    6.8958  -16.9926   24.0385 N   0  0  0  0  0  0  0  0  0  0  0  0
    7.9041  -16.4197   23.2012 C   0  0  1  0  0  0  0  0  0  0  0  0
    8.3779  -15.1165   23.7939 C   0  0  0  0  0  0  0  0  0  0  0  0
    7.4052  -14.6130   24.7918 C   0  0  0  0  0  0  0  0  0  0  0  0
    6.4365  -15.4136   25.3707 C   0  0  0  0  0  0  0  0  0  0  0  0
    5.7266  -14.7209   26.2499 N   0  0  0  0  0  0  0  0  0  0  0  0
    6.2165  -13.4606   26.2605 C   0  0  0  0  0  0  0  0  0  0  0  0
    5.8603  -12.3302   26.9725 C   0  0  0  0  0  0  0  0  0  0  0  0
    6.5253  -11.1521   26.7894 C   0  0  0  0  0  0  0  0  0  0  0  0
    7.5604  -11.0669   25.8943 C   0  0  0  0  0  0  0  0  0  0  0  0
    7.9444  -12.1926   25.1591 C   0  0  0  0  0  0  0  0  0  0  0  0
    7.2619  -13.3726   25.3591 C   0  0  0  0  0  0  0  0  0  0  0  0
    9.0246  -17.3527   22.9342 C   0  0  0  0  0  0  0  0  0  0  0  0
    9.0962  -18.3780   23.6962 O   0  0  0  0  0  0  0  0  0  0  0  0
   10.2245  -18.3049   19.3670 C   0  0  0  0  0  0  0  0  0  0  0  0
   11.4420  -18.1009   20.2232 C   0  0  1  0  0  0  0  0  0  0  0  0
   11.8747  -16.7792   19.9467 O   0  0  0  0  0  0  0  0  0  0  0  0
   11.0589  -18.1899   21.7046 C   0  0  2  0  0  0  0  0  0  0  0  0
    9.9834  -17.1853   21.9258 N   0  0  0  0  0  0  0  0  0  0  0  0
   12.1848  -17.8932   22.6041 C   0  0  0  0  0  0  0  0  0  0  0  0
   12.3558  -16.6906   23.0018 O   0  0  0  0  0  0  0  0  0  0  0  0
   14.8649  -19.4951   24.6944 C   0  0  0  0  0  0  0  0  0  0  0  0
   14.2801  -18.3923   23.8808 C   0  0  2  0  0  0  0  0  0  0  0  0
   13.1327  -18.8179   23.0989 N   0  0  0  0  0  0  0  0  0  0  0  0
   15.3436  -17.8276   22.9939 C   0  0  0  0  0  0  0  0  0  0  0  0
   15.2363  -18.0529   21.7655 O   0  0  0  0  0  0  0  0  0  0  0  0
   16.4142  -17.0891   23.4305 O   0  0  0  0  0  0  0  0  0  0  0  0
  2  3  1  0
  2  1  1  1
  2 13  1  0
  4  3  1  0
  4  5  2  0
  6  5  1  0
  7  6  1  0
  8  7  2  0
  9  8  1  0
 10  9  2  0
 10 11  1  0
 11 12  2  0
 12  7  1  0
 12  4  1  0
 13 19  1  0
 14 13  2  0
 16 17  1  0
 16 15  1  6
 18 16  1  0
 18 19  1  6
 20 21  2  0
 20 18  1  0
 23 24  1  0
 23 22  1  6
 24 20  1  0
 25 23  1  0
 26 25  2  0
 27 25  1  0
M  END
$$$$
