WTA.pdb
     RDKit          3D

 27 28  0  0  1  0  0  0  0  0999 V2000
    6.5861  -17.6229   24.2456 N   0  0  0  0  0  0  0  0  0  0  0  0
    7.6705  -16.7730   23.8611 C   0  0  1  0  0  0  0  0  0  0  0  0
    8.2347  -16.0854   25.0789 C   0  0  0  0  0  0  0  0  0  0  0  0
    7.2769  -15.0837   25.6030 C   0  0  0  0  0  0  0  0  0  0  0  0
    6.0636  -15.4269   26.1725 C   0  0  0  0  0  0  0  0  0  0  0  0
    5.4223  -14.3433   26.5866 N   0  0  0  0  0  0  0  0  0  0  0  0
    6.2018  -13.2775   26.2956 C   0  0  0  0  0  0  0  0  0  0  0  0
    6.0328  -11.9197   26.4945 C   0  0  0  0  0  0  0  0  0  0  0  0
    6.9889  -11.0317   26.0935 C   0  0  0  0  0  0  0  0  0  0  0  0
    8.1366  -11.4696   25.4845 C   0  0  0  0  0  0  0  0  0  0  0  0
    8.3369  -12.8367   25.2693 C   0  0  0  0  0  0  0  0  0  0  0  0
    7.3610  -13.7171   25.6823 C   0  0  0  0  0  0  0  0  0  0  0  0
    8.7140  -17.4897   23.0899 C   0  0  0  0  0  0  0  0  0  0  0  0
    8.9586  -18.6909   23.4566 O   0  0  0  0  0  0  0  0  0  0  0  0
    9.3132  -17.0293   19.2995 C   0  0  0  0  0  0  0  0  0  0  0  0
   10.6679  -17.1322   19.9409 C   0  0  1  0  0  0  0  0  0  0  0  0
   11.1392  -15.7980   20.0318 O   0  0  0  0  0  0  0  0  0  0  0  0
   10.5325  -17.7005   21.3579 C   0  0  2  0  0  0  0  0  0  0  0  0
    9.4288  -16.9474   22.0132 N   0  0  0  0  0  0  0  0  0  0  0  0
   11.7592  -17.5443   22.1551 C   0  0  0  0  0  0  0  0  0  0  0  0
   11.9435  -16.4538   22.7957 O   0  0  0  0  0  0  0  0  0  0  0  0
   14.6049  -19.5193   23.5973 C   0  0  0  0  0  0  0  0  0  0  0  0
   13.9328  -18.2595   23.1716 C   0  0  2  0  0  0  0  0  0  0  0  0
   12.7944  -18.4958   22.3014 N   0  0  0  0  0  0  0  0  0  0  0  0
   14.9367  -17.3775   22.5002 C   0  0  0  0  0  0  0  0  0  0  0  0
   14.8284  -17.2372   21.2593 O   0  0  0  0  0  0  0  0  0  0  0  0
   15.9543  -16.7205   23.1445 O   0  0  0  0  0  0  0  0  0  0  0  0
  2  3  1  0
  2  1  1  1
  2 13  1  0
  4  3  1  0
  4  5  2  0
  6  5  1  0
  7  6  1  0
  8  7  2  0
  9  8  1  0
 10  9  2  0
 10 11  1  0
 11 12  2  0
 12  7  1  0
 12  4  1  0
 13 19  1  0
 14 13  2  0
 16 17  1  0
 16 15  1  1
 18 16  1  0
 18 19  1  1
 20 21  2  0
 20 18  1  0
 23 24  1  0
 23 22  1  6
 24 20  1  0
 25 23  1  0
 26 25  2  0
 27 25  1  0
M  END
$$$$
