WTA.pdb
     RDKit          3D

 27 28  0  0  1  0  0  0  0  0999 V2000
    6.8860  -17.4230   25.2571 N   0  0  0  0  0  0  0  0  0  0  0  0
    6.9310  -17.2183   23.8422 C   0  0  1  0  0  0  0  0  0  0  0  0
    6.6351  -15.7736   23.5272 C   0  0  0  0  0  0  0  0  0  0  0  0
    6.5188  -14.9811   24.7737 C   0  0  0  0  0  0  0  0  0  0  0  0
    5.7277  -15.3669   25.8412 C   0  0  0  0  0  0  0  0  0  0  0  0
    5.8343  -14.4974   26.8359 N   0  0  0  0  0  0  0  0  0  0  0  0
    6.6929  -13.5319   26.4373 C   0  0  0  0  0  0  0  0  0  0  0  0
    7.1627  -12.3902   27.0598 C   0  0  0  0  0  0  0  0  0  0  0  0
    8.0386  -11.5588   26.4233 C   0  0  0  0  0  0  0  0  0  0  0  0
    8.4695  -11.8401   25.1525 C   0  0  0  0  0  0  0  0  0  0  0  0
    8.0126  -12.9871   24.4962 C   0  0  0  0  0  0  0  0  0  0  0  0
    7.1301  -13.8143   25.1558 C   0  0  0  0  0  0  0  0  0  0  0  0
    8.2064  -17.6724   23.2384 C   0  0  0  0  0  0  0  0  0  0  0  0
    8.6335  -18.8163   23.6205 O   0  0  0  0  0  0  0  0  0  0  0  0
    8.6528  -17.3133   19.6157 C   0  0  0  0  0  0  0  0  0  0  0  0
   10.0426  -17.0963   20.1432 C   0  0  1  0  0  0  0  0  0  0  0  0
   10.2459  -15.6940   20.0916 O   0  0  0  0  0  0  0  0  0  0  0  0
   10.1222  -17.5483   21.6056 C   0  0  2  0  0  0  0  0  0  0  0  0
    8.9520  -16.9457   22.3001 N   0  0  0  0  0  0  0  0  0  0  0  0
   11.3563  -17.1061   22.2734 C   0  0  0  0  0  0  0  0  0  0  0  0
   11.2819  -16.1922   23.1638 O   0  0  0  0  0  0  0  0  0  0  0  0
   13.9496  -15.5559   22.4777 C   0  0  0  0  0  0  0  0  0  0  0  0
   13.8224  -17.0239   22.6987 C   0  0  2  0  0  0  0  0  0  0  0  0
   12.6619  -17.5937   22.0371 N   0  0  0  0  0  0  0  0  0  0  0  0
   13.7756  -17.2905   24.1695 C   0  0  0  0  0  0  0  0  0  0  0  0
   13.0997  -16.4992   24.8682 O   0  0  0  0  0  0  0  0  0  0  0  0
   14.4151  -18.3303   24.7958 O   0  0  0  0  0  0  0  0  0  0  0  0
  2  3  1  0
  2  1  1  1
  2 13  1  0
  4  3  1  0
  4  5  2  0
  6  5  1  0
  7  6  1  0
  8  7  2  0
  9  8  1  0
 10  9  2  0
 10 11  1  0
 11 12  2  0
 12  7  1  0
 12  4  1  0
 13 19  1  0
 14 13  2  0
 16 17  1  0
 16 15  1  1
 18 16  1  0
 18 19  1  1
 20 21  2  0
 20 18  1  0
 23 24  1  0
 23 22  1  1
 24 20  1  0
 25 23  1  0
 26 25  2  0
 27 25  1  0
M  END
$$$$
