RSV.pdb
     RDKit          3D

 25 24  0  0  1  0  0  0  0  0999 V2000
   11.5644  -10.1061  -10.1587 N   0  0  0  0  0  0  0  0  0  0  0  0
   10.9182  -11.2186  -10.7941 C   0  0  0  0  0  0  0  0  0  0  0  0
    9.7391  -11.5905  -10.4397 N   0  0  0  0  0  0  0  0  0  0  0  0
   11.5699  -11.9340  -11.8315 N   0  0  0  0  0  0  0  0  0  0  0  0
   12.9240  -11.6059  -12.2013 C   0  0  0  0  0  0  0  0  0  0  0  0
   13.2778  -12.5487  -13.3599 C   0  0  0  0  0  0  0  0  0  0  0  0
   14.7137  -12.3221  -13.7675 C   0  0  0  0  0  0  0  0  0  0  0  0
   15.1212  -13.1484  -14.9416 C   0  0  2  0  0  0  0  0  0  0  0  0
   15.0303  -14.5697  -14.6808 N   0  0  0  0  0  0  0  0  0  0  0  0
   16.5379  -12.7647  -15.2776 C   0  0  0  0  0  0  0  0  0  0  0  0
   17.4880  -13.4054  -14.7520 O   0  0  0  0  0  0  0  0  0  0  0  0
    9.3217  -12.4355  -10.8368 O   0  0  0  0  0  0  0  0  0  0  0  0
   17.6005   -9.5297  -17.8485 C   0  0  0  0  0  0  0  0  0  0  0  0
   18.2770  -10.7463  -17.9059 C   0  0  1  0  0  0  0  0  0  0  0  0
   18.2094  -11.4536  -16.5685 N   0  0  0  0  0  0  0  0  0  0  0  0
   16.8562  -11.7139  -16.1593 C   0  0  0  0  0  0  0  0  0  0  0  0
   18.9014  -10.6995  -15.5133 O   0  0  0  0  0  0  0  0  0  0  0  0
   18.2186  -10.0120  -14.7138 C   0  0  0  0  0  0  0  0  0  0  0  0
   22.8747   -9.6303  -12.9031 C   0  0  1  0  0  0  0  0  0  0  0  0
   22.3207  -10.3182  -14.1456 C   0  0  0  0  0  0  0  0  0  0  0  0
   23.1774  -10.0373  -15.3393 C   0  0  2  0  0  0  0  0  0  0  0  0
   20.8975   -9.8386  -14.3575 N   0  0  0  0  0  0  0  0  0  0  0  0
   20.3107  -10.7031  -15.3439 C   0  0  0  0  0  0  0  0  0  0  0  0
   20.8418   -8.4174  -14.7249 O   0  0  0  0  0  0  0  0  0  0  0  0
   20.8147   -8.0745  -15.9271 O   0  0  0  0  0  0  0  0  0  0  0  0
  1  2  1  0
  2  3  2  0
  4  2  1  0
  4  5  1  0
  6  5  1  0
  6  7  1  0
  7  8  1  0
  8 10  1  0
  8  9  1  1
 10 11  2  0
 13 12  1  0
 14 13  1  6
 14 16  1  0
 15 10  1  0
 15 14  1  0
 16 22  1  0
 16 17  2  0
 19 18  1  1
 19 21  1  0
 20 19  1  0
 21 23  1  0
 21 22  1  6
 23 24  2  0
 23 25  1  0
M  END
$$$$
