RSV.pdb
     RDKit          3D

 25 24  0  0  1  0  0  0  0  0999 V2000
   19.7584  -23.6506   -6.6066 N   0  0  0  0  0  0  0  0  0  0  0  0
   19.8532  -23.0921   -7.9249 C   0  0  0  0  0  0  0  0  0  0  0  0
   18.8017  -22.8991   -8.6399 N   0  0  0  0  0  0  0  0  0  0  0  0
   21.1152  -22.7392   -8.4688 N   0  0  0  0  0  0  0  0  0  0  0  0
   22.2260  -22.4464   -7.5981 C   0  0  0  0  0  0  0  0  0  0  0  0
   22.5178  -20.9511   -7.7862 C   0  0  0  0  0  0  0  0  0  0  0  0
   23.0787  -20.7220   -9.1690 C   0  0  0  0  0  0  0  0  0  0  0  0
   24.5587  -20.9044   -9.2328 C   0  0  2  0  0  0  0  0  0  0  0  0
   25.2626  -20.0885   -8.2657 N   0  0  0  0  0  0  0  0  0  0  0  0
   24.9848  -20.5473  -10.6320 C   0  0  0  0  0  0  0  0  0  0  0  0
   24.7854  -19.3760  -11.0539 O   0  0  0  0  0  0  0  0  0  0  0  0
   18.8834  -22.5424   -9.5948 O   0  0  0  0  0  0  0  0  0  0  0  0
   27.4361  -21.6623  -14.6670 C   0  0  0  0  0  0  0  0  0  0  0  0
   27.0377  -22.0661  -13.3945 C   0  0  2  0  0  0  0  0  0  0  0  0
   26.0311  -21.0913  -12.8204 N   0  0  0  0  0  0  0  0  0  0  0  0
   25.6014  -21.4677  -11.5013 C   0  0  0  0  0  0  0  0  0  0  0  0
   24.8565  -20.9389  -13.6909 O   0  0  0  0  0  0  0  0  0  0  0  0
   23.9100  -21.7573  -13.5788 C   0  0  0  0  0  0  0  0  0  0  0  0
   22.0448  -18.3746  -16.7128 C   0  0  1  0  0  0  0  0  0  0  0  0
   23.2805  -18.4343  -15.8219 C   0  0  0  0  0  0  0  0  0  0  0  0
   24.4491  -17.7751  -16.4836 C   0  0  2  0  0  0  0  0  0  0  0  0
   23.5679  -19.8899  -15.5077 N   0  0  0  0  0  0  0  0  0  0  0  0
   24.7285  -19.9104  -14.6608 C   0  0  0  0  0  0  0  0  0  0  0  0
   23.7232  -20.6982  -16.7245 O   0  0  0  0  0  0  0  0  0  0  0  0
   24.8568  -20.8933  -17.2149 O   0  0  0  0  0  0  0  0  0  0  0  0
  1  2  1  0
  2  3  2  0
  4  2  1  0
  4  5  1  0
  6  5  1  0
  6  7  1  0
  7  8  1  0
  8 10  1  0
  8  9  1  1
 10 11  2  0
 13 12  1  0
 14 13  1  1
 14 16  1  0
 15 10  1  0
 15 14  1  0
 16 22  1  0
 16 17  2  0
 19 18  1  1
 19 21  1  0
 20 19  1  0
 21 23  1  0
 21 22  1  6
 23 24  2  0
 23 25  1  0
M  END
$$$$
