RSV.pdb
     RDKit          3D

 25 24  0  0  1  0  0  0  0  0999 V2000
   20.0918  -25.0146   -9.8552 N   0  0  0  0  0  0  0  0  0  0  0  0
   18.6936  -24.6972   -9.9129 C   0  0  0  0  0  0  0  0  0  0  0  0
   18.0525  -24.7290  -11.0273 N   0  0  0  0  0  0  0  0  0  0  0  0
   17.9866  -24.3406   -8.7356 N   0  0  0  0  0  0  0  0  0  0  0  0
   17.5720  -25.3564   -7.8007 C   0  0  0  0  0  0  0  0  0  0  0  0
   18.2969  -25.0321   -6.4871 C   0  0  0  0  0  0  0  0  0  0  0  0
   17.4398  -25.4676   -5.3231 C   0  0  0  0  0  0  0  0  0  0  0  0
   16.6719  -26.7165   -5.6029 C   0  0  2  0  0  0  0  0  0  0  0  0
   15.5315  -26.4878   -6.4652 N   0  0  0  0  0  0  0  0  0  0  0  0
   16.2249  -27.2637   -4.2733 C   0  0  0  0  0  0  0  0  0  0  0  0
   15.2211  -26.7535   -3.7061 O   0  0  0  0  0  0  0  0  0  0  0  0
   17.0613  -24.4798  -11.0615 O   0  0  0  0  0  0  0  0  0  0  0  0
   18.3836  -30.1350   -2.1142 C   0  0  0  0  0  0  0  0  0  0  0  0
   16.9977  -30.2746   -2.1410 C   0  0  1  0  0  0  0  0  0  0  0  0
   16.3374  -28.9466   -2.4471 N   0  0  0  0  0  0  0  0  0  0  0  0
   16.8806  -28.3286   -3.6258 C   0  0  0  0  0  0  0  0  0  0  0  0
   16.4354  -28.0116   -1.3171 O   0  0  0  0  0  0  0  0  0  0  0  0
   17.3409  -27.1410   -1.3288 C   0  0  0  0  0  0  0  0  0  0  0  0
   13.7746  -28.0673    1.9526 C   0  0  1  0  0  0  0  0  0  0  0  0
   14.4266  -26.7797    1.4615 C   0  0  0  0  0  0  0  0  0  0  0  0
   13.5627  -26.0949    0.4503 C   0  0  1  0  0  0  0  0  0  0  0  0
   15.7866  -27.1269    0.8870 N   0  0  0  0  0  0  0  0  0  0  0  0
   15.5574  -28.0359   -0.2020 C   0  0  0  0  0  0  0  0  0  0  0  0
   16.6979  -27.6620    1.9074 O   0  0  0  0  0  0  0  0  0  0  0  0
   16.9083  -28.8921    1.9863 O   0  0  0  0  0  0  0  0  0  0  0  0
  1  2  1  0
  2  3  2  0
  4  2  1  0
  4  5  1  0
  6  5  1  0
  6  7  1  0
  7  8  1  0
  8 10  1  0
  8  9  1  6
 10 11  2  0
 13 12  1  0
 14 13  1  6
 14 16  1  0
 15 10  1  0
 15 14  1  0
 16 22  1  0
 16 17  2  0
 19 18  1  1
 19 21  1  0
 20 19  1  0
 21 23  1  0
 21 22  1  6
 23 24  2  0
 23 25  1  0
M  END
$$$$
