RSV.pdb
     RDKit          3D

 25 24  0  0  1  0  0  0  0  0999 V2000
   11.9209  -10.1673  -11.5013 N   0  0  0  0  0  0  0  0  0  0  0  0
   11.7417  -11.5532  -11.1755 C   0  0  0  0  0  0  0  0  0  0  0  0
   10.6197  -11.9872  -10.7206 N   0  0  0  0  0  0  0  0  0  0  0  0
   12.8039  -12.4775  -11.3498 N   0  0  0  0  0  0  0  0  0  0  0  0
   14.0925  -12.0255  -11.8115 C   0  0  0  0  0  0  0  0  0  0  0  0
   14.0857  -12.2359  -13.3320 C   0  0  0  0  0  0  0  0  0  0  0  0
   15.4367  -11.8632  -13.8936 C   0  0  0  0  0  0  0  0  0  0  0  0
   15.4880  -11.9424  -15.3832 C   0  0  2  0  0  0  0  0  0  0  0  0
   15.4278  -13.3043  -15.8709 N   0  0  0  0  0  0  0  0  0  0  0  0
   16.7728  -11.2857  -15.8133 C   0  0  0  0  0  0  0  0  0  0  0  0
   17.7929  -12.0013  -16.0058 O   0  0  0  0  0  0  0  0  0  0  0  0
   10.5025  -12.9766  -10.4903 O   0  0  0  0  0  0  0  0  0  0  0  0
   16.9570   -8.2025  -18.4368 C   0  0  0  0  0  0  0  0  0  0  0  0
   17.7451   -7.9984  -17.3062 C   0  0  2  0  0  0  0  0  0  0  0  0
   18.0535   -9.3180  -16.6303 N   0  0  0  0  0  0  0  0  0  0  0  0
   16.8915   -9.8968  -16.0129 C   0  0  0  0  0  0  0  0  0  0  0  0
   19.1223   -9.1856  -15.6299 O   0  0  0  0  0  0  0  0  0  0  0  0
   18.8077   -8.9689  -14.4332 C   0  0  0  0  0  0  0  0  0  0  0  0
   22.0498  -11.5121  -15.3774 C   0  0  1  0  0  0  0  0  0  0  0  0
   22.6131  -10.1035  -15.2266 C   0  0  0  0  0  0  0  0  0  0  0  0
   23.6844  -10.0649  -14.1832 C   0  0  2  0  0  0  0  0  0  0  0  0
   21.4682   -9.1701  -14.8828 N   0  0  0  0  0  0  0  0  0  0  0  0
   20.5034   -9.2893  -15.9409 C   0  0  0  0  0  0  0  0  0  0  0  0
   21.9250   -7.7907  -14.6669 O   0  0  0  0  0  0  0  0  0  0  0  0
   22.5747   -7.4917  -13.6412 O   0  0  0  0  0  0  0  0  0  0  0  0
  1  2  1  0
  2  3  2  0
  4  2  1  0
  4  5  1  0
  6  5  1  0
  6  7  1  0
  7  8  1  0
  8 10  1  0
  8  9  1  1
 10 11  2  0
 13 12  1  0
 14 13  1  6
 14 16  1  0
 15 10  1  0
 15 14  1  0
 16 22  1  0
 16 17  2  0
 19 18  1  6
 19 21  1  0
 20 19  1  0
 21 23  1  0
 21 22  1  1
 23 24  2  0
 23 25  1  0
M  END
$$$$
