RSV.pdb
     RDKit          3D

 25 24  0  0  1  0  0  0  0  0999 V2000
   11.6716   -9.0025   -7.2049 N   0  0  0  0  0  0  0  0  0  0  0  0
   11.2932  -10.3145   -7.6458 C   0  0  0  0  0  0  0  0  0  0  0  0
   10.1533  -10.8175   -7.3268 N   0  0  0  0  0  0  0  0  0  0  0  0
   12.1732  -11.0871   -8.4469 N   0  0  0  0  0  0  0  0  0  0  0  0
   13.4095  -10.5196   -8.9236 C   0  0  0  0  0  0  0  0  0  0  0  0
   13.0091   -9.2984   -9.7631 C   0  0  0  0  0  0  0  0  0  0  0  0
   14.2456   -8.6874  -10.3770 C   0  0  0  0  0  0  0  0  0  0  0  0
   13.9335   -7.6034  -11.3544 C   0  0  2  0  0  0  0  0  0  0  0  0
   13.3050   -8.1037  -12.5590 N   0  0  0  0  0  0  0  0  0  0  0  0
   15.2350   -6.9219  -11.6841 C   0  0  0  0  0  0  0  0  0  0  0  0
   15.8335   -7.2260  -12.7513 O   0  0  0  0  0  0  0  0  0  0  0  0
    9.9040  -11.7640   -7.6232 O   0  0  0  0  0  0  0  0  0  0  0  0
   16.7747   -3.9000   -9.2508 C   0  0  0  0  0  0  0  0  0  0  0  0
   16.9014   -3.7622  -10.6313 C   0  0  1  0  0  0  0  0  0  0  0  0
   16.9045   -5.1204  -11.3012 N   0  0  0  0  0  0  0  0  0  0  0  0
   15.8222   -5.9515  -10.8495 C   0  0  0  0  0  0  0  0  0  0  0  0
   18.1779   -5.8274  -11.1025 O   0  0  0  0  0  0  0  0  0  0  0  0
   18.4035   -6.3667   -9.9907 C   0  0  0  0  0  0  0  0  0  0  0  0
   20.8021   -6.8947  -14.1907 C   0  0  1  0  0  0  0  0  0  0  0  0
   20.6839   -7.6100  -12.8496 C   0  0  0  0  0  0  0  0  0  0  0  0
   19.5983   -8.6386  -12.8861 C   0  0  1  0  0  0  0  0  0  0  0  0
   20.4267   -6.5679  -11.7782 N   0  0  0  0  0  0  0  0  0  0  0  0
   19.1775   -5.9368  -12.1043 C   0  0  0  0  0  0  0  0  0  0  0  0
   21.5404   -5.6185  -11.6512 O   0  0  0  0  0  0  0  0  0  0  0  0
   21.4321   -4.4525  -12.0898 O   0  0  0  0  0  0  0  0  0  0  0  0
  1  2  1  0
  2  3  2  0
  4  2  1  0
  4  5  1  0
  6  5  1  0
  6  7  1  0
  7  8  1  0
  8 10  1  0
  8  9  1  6
 10 11  2  0
 13 12  1  0
 14 13  1  6
 14 16  1  0
 15 10  1  0
 15 14  1  0
 16 22  1  0
 16 17  2  0
 19 18  1  6
 19 21  1  0
 20 19  1  0
 21 23  1  0
 21 22  1  6
 23 24  2  0
 23 25  1  0
M  END
$$$$
