RSV.pdb
     RDKit          3D

 25 24  0  0  1  0  0  0  0  0999 V2000
   29.6404  -24.4862  -16.5602 N   0  0  0  0  0  0  0  0  0  0  0  0
   28.2542  -24.5998  -16.2072 C   0  0  0  0  0  0  0  0  0  0  0  0
   27.7911  -25.6773  -15.6794 N   0  0  0  0  0  0  0  0  0  0  0  0
   27.3622  -23.5201  -16.4341 N   0  0  0  0  0  0  0  0  0  0  0  0
   27.8730  -22.1988  -16.7010 C   0  0  0  0  0  0  0  0  0  0  0  0
   28.3723  -21.6663  -15.3507 C   0  0  0  0  0  0  0  0  0  0  0  0
   28.3786  -20.1569  -15.3807 C   0  0  0  0  0  0  0  0  0  0  0  0
   27.0520  -19.5779  -15.7445 C   0  0  2  0  0  0  0  0  0  0  0  0
   27.1691  -18.3727  -16.5383 N   0  0  0  0  0  0  0  0  0  0  0  0
   26.3302  -19.2905  -14.4548 C   0  0  0  0  0  0  0  0  0  0  0  0
   26.5837  -18.2223  -13.8349 O   0  0  0  0  0  0  0  0  0  0  0  0
   26.7963  -25.7583  -15.4565 O   0  0  0  0  0  0  0  0  0  0  0  0
   22.4798  -19.7171  -11.7050 C   0  0  0  0  0  0  0  0  0  0  0  0
   23.1475  -19.9459  -12.9062 C   0  0  1  0  0  0  0  0  0  0  0  0
   24.6449  -19.8327  -12.7098 N   0  0  0  0  0  0  0  0  0  0  0  0
   25.3760  -20.1661  -13.9017 C   0  0  0  0  0  0  0  0  0  0  0  0
   25.1173  -20.6700  -11.5978 O   0  0  0  0  0  0  0  0  0  0  0  0
   25.2162  -21.9099  -11.7734 C   0  0  0  0  0  0  0  0  0  0  0  0
   26.7360  -19.2177   -8.0003 C   0  0  1  0  0  0  0  0  0  0  0  0
   26.9389  -20.6349   -8.5242 C   0  0  0  0  0  0  0  0  0  0  0  0
   28.1231  -20.7036   -9.4358 C   0  0  1  0  0  0  0  0  0  0  0  0
   25.6677  -21.0652   -9.2308 N   0  0  0  0  0  0  0  0  0  0  0  0
   25.4716  -20.1534  -10.3240 C   0  0  0  0  0  0  0  0  0  0  0  0
   24.5205  -21.1286   -8.3154 O   0  0  0  0  0  0  0  0  0  0  0  0
   23.5834  -20.3069   -8.4163 O   0  0  0  0  0  0  0  0  0  0  0  0
  1  2  1  0
  2  3  2  0
  4  2  1  0
  4  5  1  0
  6  5  1  0
  6  7  1  0
  7  8  1  0
  8 10  1  0
  8  9  1  1
 10 11  2  0
 13 12  1  0
 14 13  1  6
 14 16  1  0
 15 10  1  0
 15 14  1  0
 16 22  1  0
 16 17  2  0
 19 18  1  1
 19 21  1  0
 20 19  1  0
 21 23  1  0
 21 22  1  6
 23 24  2  0
 23 25  1  0
M  END
$$$$
