RSV.pdb
     RDKit          3D

 25 24  0  0  1  0  0  0  0  0999 V2000
   30.3650  -21.3657  -19.7385 N   0  0  0  0  0  0  0  0  0  0  0  0
   30.3352  -19.9504  -19.5040 C   0  0  0  0  0  0  0  0  0  0  0  0
   30.9602  -19.1370  -20.2797 N   0  0  0  0  0  0  0  0  0  0  0  0
   29.6116  -19.4172  -18.4063 N   0  0  0  0  0  0  0  0  0  0  0  0
   28.6181  -20.2159  -17.7335 C   0  0  0  0  0  0  0  0  0  0  0  0
   28.1052  -19.3504  -16.5741 C   0  0  0  0  0  0  0  0  0  0  0  0
   26.9812  -20.0726  -15.8711 C   0  0  0  0  0  0  0  0  0  0  0  0
   27.4552  -21.2275  -15.0531 C   0  0  2  0  0  0  0  0  0  0  0  0
   27.9459  -22.3211  -15.8652 N   0  0  0  0  0  0  0  0  0  0  0  0
   26.2896  -21.6778  -14.2130 C   0  0  0  0  0  0  0  0  0  0  0  0
   25.5469  -22.6029  -14.6399 O   0  0  0  0  0  0  0  0  0  0  0  0
   30.9439  -18.1311  -20.0962 O   0  0  0  0  0  0  0  0  0  0  0  0
   25.0981  -19.7681  -10.6033 C   0  0  0  0  0  0  0  0  0  0  0  0
   24.9595  -21.1480  -10.7357 C   0  0  1  0  0  0  0  0  0  0  0  0
   24.8436  -21.5310  -12.1963 N   0  0  0  0  0  0  0  0  0  0  0  0
   25.9856  -21.1096  -12.9608 C   0  0  0  0  0  0  0  0  0  0  0  0
   23.6208  -20.9926  -12.8094 O   0  0  0  0  0  0  0  0  0  0  0  0
   23.6424  -19.8286  -13.2812 C   0  0  0  0  0  0  0  0  0  0  0  0
   22.0495  -21.8563  -15.6964 C   0  0  1  0  0  0  0  0  0  0  0  0
   20.8869  -21.9130  -14.7118 C   0  0  0  0  0  0  0  0  0  0  0  0
   19.6252  -21.4180  -15.3451 C   0  0  2  0  0  0  0  0  0  0  0  0
   21.2577  -21.0893  -13.4935 N   0  0  0  0  0  0  0  0  0  0  0  0
   22.4048  -21.7192  -12.9000 C   0  0  0  0  0  0  0  0  0  0  0  0
   20.1310  -20.9407  -12.5626 O   0  0  0  0  0  0  0  0  0  0  0  0
   19.8945  -21.8227  -11.7083 O   0  0  0  0  0  0  0  0  0  0  0  0
  1  2  1  0
  2  3  2  0
  4  2  1  0
  4  5  1  0
  6  5  1  0
  6  7  1  0
  7  8  1  0
  8 10  1  0
  8  9  1  6
 10 11  2  0
 13 12  1  0
 14 13  1  1
 14 16  1  0
 15 10  1  0
 15 14  1  0
 16 22  1  0
 16 17  2  0
 19 18  1  6
 19 21  1  0
 20 19  1  0
 21 23  1  0
 21 22  1  6
 23 24  2  0
 23 25  1  0
M  END
$$$$
