RSV.pdb
     RDKit          3D

 25 24  0  0  1  0  0  0  0  0999 V2000
   20.7123  -22.2731  -10.2903 N   0  0  0  0  0  0  0  0  0  0  0  0
   20.9310  -21.7665   -8.9658 C   0  0  0  0  0  0  0  0  0  0  0  0
   20.3465  -22.2950   -7.9494 N   0  0  0  0  0  0  0  0  0  0  0  0
   21.8012  -20.6670   -8.7495 N   0  0  0  0  0  0  0  0  0  0  0  0
   22.5973  -20.1459   -9.8323 C   0  0  0  0  0  0  0  0  0  0  0  0
   24.0035  -20.7273   -9.6307 C   0  0  0  0  0  0  0  0  0  0  0  0
   24.8943  -20.2851  -10.7666 C   0  0  0  0  0  0  0  0  0  0  0  0
   24.9935  -21.3007  -11.8557 C   0  0  2  0  0  0  0  0  0  0  0  0
   26.1415  -22.1698  -11.7039 N   0  0  0  0  0  0  0  0  0  0  0  0
   25.0745  -20.5441  -13.1550 C   0  0  0  0  0  0  0  0  0  0  0  0
   26.1853  -20.0746  -13.5232 O   0  0  0  0  0  0  0  0  0  0  0  0
   20.5072  -21.9252   -7.0096 O   0  0  0  0  0  0  0  0  0  0  0  0
   21.7263  -19.6961  -15.6515 C   0  0  0  0  0  0  0  0  0  0  0  0
   22.9363  -20.1112  -16.2034 C   0  0  1  0  0  0  0  0  0  0  0  0
   24.0882  -19.7434  -15.2917 N   0  0  0  0  0  0  0  0  0  0  0  0
   23.9583  -20.3331  -13.9872 C   0  0  0  0  0  0  0  0  0  0  0  0
   24.2374  -18.2874  -15.1559 O   0  0  0  0  0  0  0  0  0  0  0  0
   23.6525  -17.7048  -14.2091 C   0  0  0  0  0  0  0  0  0  0  0  0
   26.4700  -14.1000  -15.7047 C   0  0  1  0  0  0  0  0  0  0  0  0
   26.4357  -15.5978  -15.9866 C   0  0  0  0  0  0  0  0  0  0  0  0
   27.0258  -15.9033  -17.3270 C   0  0  2  0  0  0  0  0  0  0  0  0
   24.9955  -16.0642  -15.8939 N   0  0  0  0  0  0  0  0  0  0  0  0
   25.0117  -17.4934  -16.0419 C   0  0  0  0  0  0  0  0  0  0  0  0
   24.1316  -15.3895  -16.8718 O   0  0  0  0  0  0  0  0  0  0  0  0
   23.9136  -15.9080  -17.9886 O   0  0  0  0  0  0  0  0  0  0  0  0
  1  2  1  0
  2  3  2  0
  4  2  1  0
  4  5  1  0
  6  5  1  0
  6  7  1  0
  7  8  1  0
  8 10  1  0
  8  9  1  1
 10 11  2  0
 13 12  1  0
 14 13  1  6
 14 16  1  0
 15 10  1  0
 15 14  1  0
 16 22  1  0
 16 17  2  0
 19 18  1  1
 19 21  1  0
 20 19  1  0
 21 23  1  0
 21 22  1  6
 23 24  2  0
 23 25  1  0
M  END
$$$$
