RSV.pdb
     RDKit          3D

 25 24  0  0  1  0  0  0  0  0999 V2000
   20.6722  -21.0369  -10.5954 N   0  0  0  0  0  0  0  0  0  0  0  0
   20.8114  -21.7690  -11.8216 C   0  0  0  0  0  0  0  0  0  0  0  0
   19.7788  -22.1814  -12.4679 N   0  0  0  0  0  0  0  0  0  0  0  0
   22.0975  -22.0537  -12.3487 N   0  0  0  0  0  0  0  0  0  0  0  0
   23.1325  -21.0507  -12.3219 C   0  0  0  0  0  0  0  0  0  0  0  0
   23.1808  -20.5427  -10.8742 C   0  0  0  0  0  0  0  0  0  0  0  0
   24.5931  -20.6546  -10.3526 C   0  0  0  0  0  0  0  0  0  0  0  0
   25.5137  -21.3342  -11.3109 C   0  0  2  0  0  0  0  0  0  0  0  0
   26.5065  -22.1513  -10.6451 N   0  0  0  0  0  0  0  0  0  0  0  0
   26.1791  -20.2536  -12.1212 C   0  0  0  0  0  0  0  0  0  0  0  0
   26.7492  -19.3013  -11.5230 O   0  0  0  0  0  0  0  0  0  0  0  0
   19.8890  -22.7196  -13.3305 O   0  0  0  0  0  0  0  0  0  0  0  0
   27.0917  -20.5078  -16.3070 C   0  0  0  0  0  0  0  0  0  0  0  0
   27.8312  -19.8702  -15.3132 C   0  0  1  0  0  0  0  0  0  0  0  0
   26.9104  -19.2580  -14.2784 N   0  0  0  0  0  0  0  0  0  0  0  0
   26.1956  -20.2551  -13.5293 C   0  0  0  0  0  0  0  0  0  0  0  0
   25.9517  -18.3215  -14.8823 O   0  0  0  0  0  0  0  0  0  0  0  0
   24.7930  -18.7282  -15.1465 C   0  0  0  0  0  0  0  0  0  0  0  0
   24.5669  -13.8679  -16.3098 C   0  0  1  0  0  0  0  0  0  0  0  0
   25.6216  -14.7296  -15.6248 C   0  0  0  0  0  0  0  0  0  0  0  0
   26.9962  -14.3573  -16.0829 C   0  0  2  0  0  0  0  0  0  0  0  0
   25.3112  -16.1840  -15.9228 N   0  0  0  0  0  0  0  0  0  0  0  0
   26.2628  -16.9705  -15.1875 C   0  0  0  0  0  0  0  0  0  0  0  0
   25.3158  -16.4664  -17.3644 O   0  0  0  0  0  0  0  0  0  0  0  0
   26.3759  -16.7902  -17.9431 O   0  0  0  0  0  0  0  0  0  0  0  0
  1  2  1  0
  2  3  2  0
  4  2  1  0
  4  5  1  0
  6  5  1  0
  6  7  1  0
  7  8  1  0
  8 10  1  0
  8  9  1  1
 10 11  2  0
 13 12  1  0
 14 13  1  1
 14 16  1  0
 15 10  1  0
 15 14  1  0
 16 22  1  0
 16 17  2  0
 19 18  1  1
 19 21  1  0
 20 19  1  0
 21 23  1  0
 21 22  1  6
 23 24  2  0
 23 25  1  0
M  END
$$$$
