RSV.pdb
     RDKit          3D

 25 24  0  0  1  0  0  0  0  0999 V2000
   18.6547  -21.5357  -12.9700 N   0  0  0  0  0  0  0  0  0  0  0  0
   18.9222  -22.2340  -11.7455 C   0  0  0  0  0  0  0  0  0  0  0  0
   17.9721  -22.5313  -10.9312 N   0  0  0  0  0  0  0  0  0  0  0  0
   20.2468  -22.6130  -11.4068 N   0  0  0  0  0  0  0  0  0  0  0  0
   21.3498  -22.2383  -12.2558 C   0  0  0  0  0  0  0  0  0  0  0  0
   21.9823  -21.0058  -11.5946 C   0  0  0  0  0  0  0  0  0  0  0  0
   23.0956  -20.4849  -12.4713 C   0  0  0  0  0  0  0  0  0  0  0  0
   24.4432  -20.9636  -12.0440 C   0  0  2  0  0  0  0  0  0  0  0  0
   24.6008  -20.9719  -10.6048 N   0  0  0  0  0  0  0  0  0  0  0  0
   25.4556  -20.0476  -12.6790 C   0  0  0  0  0  0  0  0  0  0  0  0
   26.1060  -19.2518  -11.9486 O   0  0  0  0  0  0  0  0  0  0  0  0
   18.1730  -23.0305  -10.0615 O   0  0  0  0  0  0  0  0  0  0  0  0
   27.2681  -21.0426  -16.1630 C   0  0  0  0  0  0  0  0  0  0  0  0
   27.8513  -20.1610  -15.2554 C   0  0  1  0  0  0  0  0  0  0  0  0
   26.7967  -19.2759  -14.6246 N   0  0  0  0  0  0  0  0  0  0  0  0
   25.7138  -20.0365  -14.0632 C   0  0  0  0  0  0  0  0  0  0  0  0
   26.2603  -18.2954  -15.5794 O   0  0  0  0  0  0  0  0  0  0  0  0
   25.2074  -18.5739  -16.2054 C   0  0  0  0  0  0  0  0  0  0  0  0
   27.6933  -14.3648  -15.8696 C   0  0  1  0  0  0  0  0  0  0  0  0
   26.2481  -14.7705  -16.1360 C   0  0  0  0  0  0  0  0  0  0  0  0
   25.4477  -14.7581  -14.8723 C   0  0  1  0  0  0  0  0  0  0  0  0
   26.2527  -16.1447  -16.7777 N   0  0  0  0  0  0  0  0  0  0  0  0
   26.8695  -17.0396  -15.8378 C   0  0  0  0  0  0  0  0  0  0  0  0
   26.9104  -16.1395  -18.0913 O   0  0  0  0  0  0  0  0  0  0  0  0
   28.0741  -16.5789  -18.2188 O   0  0  0  0  0  0  0  0  0  0  0  0
  1  2  1  0
  2  3  2  0
  4  2  1  0
  4  5  1  0
  6  5  1  0
  6  7  1  0
  7  8  1  0
  8 10  1  0
  8  9  1  1
 10 11  2  0
 13 12  1  0
 14 13  1  1
 14 16  1  0
 15 10  1  0
 15 14  1  0
 16 22  1  0
 16 17  2  0
 19 18  1  6
 19 21  1  0
 20 19  1  0
 21 23  1  0
 21 22  1  1
 23 24  2  0
 23 25  1  0
M  END
$$$$
