RSV.pdb
     RDKit          3D

 25 24  0  0  1  0  0  0  0  0999 V2000
   10.7761  -14.4869  -11.8694 N   0  0  0  0  0  0  0  0  0  0  0  0
   11.2494  -14.6420  -10.5237 C   0  0  0  0  0  0  0  0  0  0  0  0
   10.8279  -15.6027   -9.7798 N   0  0  0  0  0  0  0  0  0  0  0  0
   12.1970  -13.7343   -9.9842 N   0  0  0  0  0  0  0  0  0  0  0  0
   12.5575  -12.5426  -10.7105 C   0  0  0  0  0  0  0  0  0  0  0  0
   14.0917  -12.5353  -10.7606 C   0  0  0  0  0  0  0  0  0  0  0  0
   14.5623  -11.2873  -11.4680 C   0  0  0  0  0  0  0  0  0  0  0  0
   16.0461  -11.2300  -11.6188 C   0  0  2  0  0  0  0  0  0  0  0  0
   16.6950  -12.4589  -11.2125 N   0  0  0  0  0  0  0  0  0  0  0  0
   16.5282  -10.0775  -10.7783 C   0  0  0  0  0  0  0  0  0  0  0  0
   16.9051  -10.2966   -9.5952 O   0  0  0  0  0  0  0  0  0  0  0  0
   11.1797  -15.7111   -8.8256 O   0  0  0  0  0  0  0  0  0  0  0  0
   18.1627   -6.6931  -12.3189 C   0  0  0  0  0  0  0  0  0  0  0  0
   18.3362   -7.0662  -10.9878 C   0  0  1  0  0  0  0  0  0  0  0  0
   17.0628   -7.6738  -10.4378 N   0  0  0  0  0  0  0  0  0  0  0  0
   16.5789   -8.7532  -11.2545 C   0  0  0  0  0  0  0  0  0  0  0  0
   16.0009   -6.6703  -10.2767 O   0  0  0  0  0  0  0  0  0  0  0  0
   15.2223   -6.4534  -11.2384 C   0  0  0  0  0  0  0  0  0  0  0  0
   15.2708   -4.6578   -6.6643 C   0  0  1  0  0  0  0  0  0  0  0  0
   14.1830   -4.8689   -7.7114 C   0  0  0  0  0  0  0  0  0  0  0  0
   13.4432   -6.1454   -7.4639 C   0  0  1  0  0  0  0  0  0  0  0  0
   14.8357   -4.8611   -9.0804 N   0  0  0  0  0  0  0  0  0  0  0  0
   15.8023   -5.9244   -9.0854 C   0  0  0  0  0  0  0  0  0  0  0  0
   15.4127   -3.5511   -9.4106 O   0  0  0  0  0  0  0  0  0  0  0  0
   16.6463   -3.3636   -9.3294 O   0  0  0  0  0  0  0  0  0  0  0  0
  1  2  1  0
  2  3  2  0
  4  2  1  0
  4  5  1  0
  6  5  1  0
  6  7  1  0
  7  8  1  0
  8 10  1  0
  8  9  1  1
 10 11  2  0
 13 12  1  0
 14 13  1  1
 14 16  1  0
 15 10  1  0
 15 14  1  0
 16 22  1  0
 16 17  2  0
 19 18  1  1
 19 21  1  0
 20 19  1  0
 21 23  1  0
 21 22  1  1
 23 24  2  0
 23 25  1  0
M  END
$$$$
