RSV.pdb
     RDKit          3D

 25 24  0  0  1  0  0  0  0  0999 V2000
   22.3904  -14.0587  -16.0708 N   0  0  0  0  0  0  0  0  0  0  0  0
   23.3317  -13.6650  -17.0797 C   0  0  0  0  0  0  0  0  0  0  0  0
   22.9405  -13.3484  -18.2633 N   0  0  0  0  0  0  0  0  0  0  0  0
   24.7198  -13.6164  -16.7904 N   0  0  0  0  0  0  0  0  0  0  0  0
   25.2083  -14.0319  -15.4995 C   0  0  0  0  0  0  0  0  0  0  0  0
   25.1494  -15.5658  -15.5075 C   0  0  0  0  0  0  0  0  0  0  0  0
   26.5182  -16.1198  -15.1935 C   0  0  0  0  0  0  0  0  0  0  0  0
   26.8488  -17.3371  -15.9913 C   0  0  2  0  0  0  0  0  0  0  0  0
   25.9884  -17.4977  -17.1447 N   0  0  0  0  0  0  0  0  0  0  0  0
   26.7149  -18.5176  -15.0663 C   0  0  0  0  0  0  0  0  0  0  0  0
   25.6041  -19.1082  -14.9825 O   0  0  0  0  0  0  0  0  0  0  0  0
   23.6189  -13.0648  -18.9741 O   0  0  0  0  0  0  0  0  0  0  0  0
   29.6414  -21.3478  -14.1447 C   0  0  0  0  0  0  0  0  0  0  0  0
   29.0044  -20.7389  -13.0655 C   0  0  2  0  0  0  0  0  0  0  0  0
   27.6575  -20.1896  -13.4867 N   0  0  0  0  0  0  0  0  0  0  0  0
   27.7810  -18.9987  -14.2822 C   0  0  0  0  0  0  0  0  0  0  0  0
   26.7905  -19.9166  -12.3315 O   0  0  0  0  0  0  0  0  0  0  0  0
   26.9591  -18.8520  -11.6865 C   0  0  0  0  0  0  0  0  0  0  0  0
   23.3902  -22.2409  -11.3010 C   0  0  1  0  0  0  0  0  0  0  0  0
   23.5294  -20.7355  -11.1049 C   0  0  0  0  0  0  0  0  0  0  0  0
   23.0985  -19.9944  -12.3310 C   0  0  1  0  0  0  0  0  0  0  0  0
   24.9738  -20.4353  -10.7528 N   0  0  0  0  0  0  0  0  0  0  0  0
   25.7636  -20.7955  -11.8980 C   0  0  0  0  0  0  0  0  0  0  0  0
   25.3953  -21.1148   -9.5205 O   0  0  0  0  0  0  0  0  0  0  0  0
   24.9420  -20.7551   -8.4120 O   0  0  0  0  0  0  0  0  0  0  0  0
  1  2  1  0
  2  3  2  0
  4  2  1  0
  4  5  1  0
  6  5  1  0
  6  7  1  0
  7  8  1  0
  8 10  1  0
  8  9  1  6
 10 11  2  0
 13 12  1  0
 14 13  1  6
 14 16  1  0
 15 10  1  0
 15 14  1  0
 16 22  1  0
 16 17  2  0
 19 18  1  1
 19 21  1  0
 20 19  1  0
 21 23  1  0
 21 22  1  6
 23 24  2  0
 23 25  1  0
M  END
$$$$
