ILN.pdb
     RDKit          3D

 25 24  0  0  1  0  0  0  0  0999 V2000
   17.0716  -15.5118  -18.6608 C   0  0  0  0  0  0  0  0  0  0  0  0
   18.3815  -16.0923  -18.1824 C   0  0  0  0  0  0  0  0  0  0  0  0
   19.1712  -15.1084  -17.3669 C   0  0  2  0  0  0  0  0  0  0  0  0
   19.2756  -13.8193  -18.1370 C   0  0  0  0  0  0  0  0  0  0  0  0
   20.4790  -15.6138  -16.8692 C   0  0  2  0  0  0  0  0  0  0  0  0
   20.3097  -16.8799  -16.2222 N   0  0  0  0  0  0  0  0  0  0  0  0
   21.2366  -14.6535  -16.0241 C   0  0  0  0  0  0  0  0  0  0  0  0
   20.7953  -14.4176  -14.8759 O   0  0  0  0  0  0  0  0  0  0  0  0
   25.2544  -14.4826  -14.1262 C   0  0  0  0  0  0  0  0  0  0  0  0
   25.2922  -14.2446  -15.6557 C   0  0  2  0  0  0  0  0  0  0  0  0
   26.7148  -14.2958  -16.0466 C   0  0  0  0  0  0  0  0  0  0  0  0
   24.5514  -13.0188  -15.9825 C   0  0  0  0  0  0  0  0  0  0  0  0
   23.1019  -12.9388  -15.7181 C   0  0  2  0  0  0  0  0  0  0  0  0
   22.4156  -14.0107  -16.4658 N   0  0  0  0  0  0  0  0  0  0  0  0
   22.4358  -11.6747  -16.0972 C   0  0  0  0  0  0  0  0  0  0  0  0
   22.4449  -11.2776  -17.3207 O   0  0  0  0  0  0  0  0  0  0  0  0
   17.3709  -10.5437  -15.7285 N   0  0  0  0  0  0  0  0  0  0  0  0
   18.6692  -10.1393  -16.1771 C   0  0  0  0  0  0  0  0  0  0  0  0
   18.8971  -10.2993  -17.3931 O   0  0  0  0  0  0  0  0  0  0  0  0
   19.6464   -9.5760  -15.2397 C   0  0  0  0  0  0  0  0  0  0  0  0
   21.0691   -9.5864  -15.6782 C   0  0  2  0  0  0  0  0  0  0  0  0
   21.7498  -10.8056  -15.2258 N   0  0  0  0  0  0  0  0  0  0  0  0
   21.7887   -8.4222  -15.0698 C   0  0  0  0  0  0  0  0  0  0  0  0
   22.7549   -8.6238  -14.2509 O   0  0  0  0  0  0  0  0  0  0  0  0
   21.5085   -7.0991  -15.3096 O   0  0  0  0  0  0  0  0  0  0  0  0
  2  1  1  0
  2  3  1  0
  3  5  1  0
  3  4  1  6
  5  7  1  0
  5  6  1  1
  7  8  2  0
 10  9  1  1
 10 12  1  0
 11 10  1  0
 13 12  1  6
 14  7  1  0
 14 13  1  0
 15 16  2  0
 15 13  1  0
 17 18  1  0
 18 19  2  0
 18 20  1  0
 21 20  1  1
 21 22  1  0
 22 15  1  0
 23 25  1  0
 23 21  1  0
 24 23  2  0
M  END
$$$$
