ILN.pdb
     RDKit          3D

 25 24  0  0  1  0  0  0  0  0999 V2000
   27.1081  -18.8465  -17.4980 C   0  0  0  0  0  0  0  0  0  0  0  0
   27.8196  -19.3207  -16.2528 C   0  0  0  0  0  0  0  0  0  0  0  0
   26.8690  -19.9052  -15.2470 C   0  0  2  0  0  0  0  0  0  0  0  0
   25.8075  -18.8837  -14.9380 C   0  0  0  0  0  0  0  0  0  0  0  0
   27.5140  -20.4806  -14.0360 C   0  0  2  0  0  0  0  0  0  0  0  0
   28.5851  -21.3542  -14.4100 N   0  0  0  0  0  0  0  0  0  0  0  0
   26.5770  -21.1264  -13.0793 C   0  0  0  0  0  0  0  0  0  0  0  0
   26.2539  -22.3168  -13.2974 O   0  0  0  0  0  0  0  0  0  0  0  0
   27.0570  -21.5394   -8.5949 C   0  0  0  0  0  0  0  0  0  0  0  0
   26.5089  -20.1544   -9.0180 C   0  0  2  0  0  0  0  0  0  0  0  0
   26.5231  -19.3159   -7.8032 C   0  0  0  0  0  0  0  0  0  0  0  0
   25.2193  -20.3223   -9.7012 C   0  0  0  0  0  0  0  0  0  0  0  0
   25.1461  -21.0777  -10.9666 C   0  0  2  0  0  0  0  0  0  0  0  0
   26.0493  -20.4537  -11.9534 N   0  0  0  0  0  0  0  0  0  0  0  0
   23.8165  -21.1531  -11.6085 C   0  0  0  0  0  0  0  0  0  0  0  0
   22.8229  -21.6792  -10.9836 O   0  0  0  0  0  0  0  0  0  0  0  0
   22.3537  -17.2625  -14.6921 N   0  0  0  0  0  0  0  0  0  0  0  0
   21.7519  -18.3680  -14.0093 C   0  0  0  0  0  0  0  0  0  0  0  0
   21.0907  -18.0816  -12.9910 O   0  0  0  0  0  0  0  0  0  0  0  0
   21.9219  -19.7386  -14.5026 C   0  0  0  0  0  0  0  0  0  0  0  0
   22.1451  -20.7914  -13.4738 C   0  0  2  0  0  0  0  0  0  0  0  0
   23.4909  -20.6862  -12.8973 N   0  0  0  0  0  0  0  0  0  0  0  0
   22.0368  -22.1431  -14.1096 C   0  0  0  0  0  0  0  0  0  0  0  0
   23.0438  -22.9373  -14.1008 O   0  0  0  0  0  0  0  0  0  0  0  0
   20.9184  -22.6444  -14.7296 O   0  0  0  0  0  0  0  0  0  0  0  0
  2  1  1  0
  2  3  1  0
  3  5  1  0
  3  4  1  1
  5  7  1  0
  5  6  1  6
  7  8  2  0
 10  9  1  1
 10 12  1  0
 11 10  1  0
 13 12  1  1
 14  7  1  0
 14 13  1  0
 15 16  2  0
 15 13  1  0
 17 18  1  0
 18 19  2  0
 18 20  1  0
 21 20  1  6
 21 22  1  0
 22 15  1  0
 23 25  1  0
 23 21  1  0
 24 23  2  0
M  END
$$$$
