ILN.pdb
     RDKit          3D

 25 24  0  0  1  0  0  0  0  0999 V2000
   27.8897  -20.1742   -3.8278 C   0  0  0  0  0  0  0  0  0  0  0  0
   26.8357  -20.2719   -4.9055 C   0  0  0  0  0  0  0  0  0  0  0  0
   27.3553  -19.8334   -6.2451 C   0  0  2  0  0  0  0  0  0  0  0  0
   27.9924  -18.4782   -6.0940 C   0  0  0  0  0  0  0  0  0  0  0  0
   26.3675  -19.9080   -7.3553 C   0  0  2  0  0  0  0  0  0  0  0  0
   25.6530  -21.1478   -7.3033 N   0  0  0  0  0  0  0  0  0  0  0  0
   26.9290  -19.6451   -8.7065 C   0  0  0  0  0  0  0  0  0  0  0  0
   27.1263  -18.4514   -9.0308 O   0  0  0  0  0  0  0  0  0  0  0  0
   31.0373  -22.6948  -11.0526 C   0  0  0  0  0  0  0  0  0  0  0  0
   30.2387  -21.4220  -10.6788 C   0  0  2  0  0  0  0  0  0  0  0  0
   30.4195  -21.2328   -9.2259 C   0  0  0  0  0  0  0  0  0  0  0  0
   28.8603  -21.5421  -11.1723 C   0  0  0  0  0  0  0  0  0  0  0  0
   27.8903  -20.4577  -10.9267 C   0  0  2  0  0  0  0  0  0  0  0  0
   27.2412  -20.6784   -9.6194 N   0  0  0  0  0  0  0  0  0  0  0  0
   26.7995  -20.3183  -11.9148 C   0  0  0  0  0  0  0  0  0  0  0  0
   27.0687  -20.0780  -13.1494 O   0  0  0  0  0  0  0  0  0  0  0  0
   23.5819  -24.3302  -13.8968 N   0  0  0  0  0  0  0  0  0  0  0  0
   23.9547  -22.9563  -14.0511 C   0  0  0  0  0  0  0  0  0  0  0  0
   23.4706  -22.3707  -15.0405 O   0  0  0  0  0  0  0  0  0  0  0  0
   24.8513  -22.3083  -13.0883 C   0  0  0  0  0  0  0  0  0  0  0  0
   24.4529  -20.9528  -12.6185 C   0  0  2  0  0  0  0  0  0  0  0  0
   25.4204  -20.4276  -11.6476 N   0  0  0  0  0  0  0  0  0  0  0  0
   23.1265  -21.0325  -11.9277 C   0  0  0  0  0  0  0  0  0  0  0  0
   23.0730  -21.2864  -10.6717 O   0  0  0  0  0  0  0  0  0  0  0  0
   21.9040  -20.8527  -12.5275 O   0  0  0  0  0  0  0  0  0  0  0  0
  2  1  1  0
  2  3  1  0
  3  5  1  0
  3  4  1  1
  5  7  1  0
  5  6  1  6
  7  8  2  0
 10  9  1  1
 10 12  1  0
 11 10  1  0
 13 12  1  6
 14  7  1  0
 14 13  1  0
 15 16  2  0
 15 13  1  0
 17 18  1  0
 18 19  2  0
 18 20  1  0
 21 20  1  1
 21 22  1  0
 22 15  1  0
 23 25  1  0
 23 21  1  0
 24 23  2  0
M  END
$$$$
