ILN.pdb
     RDKit          3D

 25 24  0  0  1  0  0  0  0  0999 V2000
   28.1692  -17.5785  -18.1533 C   0  0  0  0  0  0  0  0  0  0  0  0
   26.7539  -17.9341  -17.7629 C   0  0  0  0  0  0  0  0  0  0  0  0
   26.4480  -19.3844  -18.0074 C   0  0  2  0  0  0  0  0  0  0  0  0
   26.8590  -19.7325  -19.4129 C   0  0  0  0  0  0  0  0  0  0  0  0
   25.0582  -19.7967  -17.6727 C   0  0  2  0  0  0  0  0  0  0  0  0
   24.2492  -18.6465  -17.4027 N   0  0  0  0  0  0  0  0  0  0  0  0
   24.9538  -20.8162  -16.5957 C   0  0  0  0  0  0  0  0  0  0  0  0
   25.1507  -22.0130  -16.9084 O   0  0  0  0  0  0  0  0  0  0  0  0
   27.6246  -21.4073  -13.5639 C   0  0  0  0  0  0  0  0  0  0  0  0
   26.5949  -20.3311  -13.1407 C   0  0  2  0  0  0  0  0  0  0  0  0
   27.1669  -19.6539  -11.9602 C   0  0  0  0  0  0  0  0  0  0  0  0
   25.2719  -20.9498  -12.9825 C   0  0  0  0  0  0  0  0  0  0  0  0
   24.5542  -21.4711  -14.1616 C   0  0  2  0  0  0  0  0  0  0  0  0
   24.6454  -20.4851  -15.2563 N   0  0  0  0  0  0  0  0  0  0  0  0
   23.1156  -21.7581  -13.9786 C   0  0  0  0  0  0  0  0  0  0  0  0
   22.7164  -22.4653  -12.9810 O   0  0  0  0  0  0  0  0  0  0  0  0
   18.5326  -22.5341  -12.8573 N   0  0  0  0  0  0  0  0  0  0  0  0
   19.1913  -21.3312  -12.4452 C   0  0  0  0  0  0  0  0  0  0  0  0
   18.7537  -20.8029  -11.4033 O   0  0  0  0  0  0  0  0  0  0  0  0
   20.3071  -20.7815  -13.2221 C   0  0  0  0  0  0  0  0  0  0  0  0
   20.6504  -21.4917  -14.4847 C   0  0  2  0  0  0  0  0  0  0  0  0
   22.0701  -21.3197  -14.8153 N   0  0  0  0  0  0  0  0  0  0  0  0
   19.8562  -20.9141  -15.6155 C   0  0  0  0  0  0  0  0  0  0  0  0
   20.3118  -19.9102  -16.2706 O   0  0  0  0  0  0  0  0  0  0  0  0
   18.6334  -21.3698  -16.0443 O   0  0  0  0  0  0  0  0  0  0  0  0
  2  1  1  0
  2  3  1  0
  3  5  1  0
  3  4  1  6
  5  7  1  0
  5  6  1  1
  7  8  2  0
 10  9  1  1
 10 12  1  0
 11 10  1  0
 13 12  1  1
 14  7  1  0
 14 13  1  0
 15 16  2  0
 15 13  1  0
 17 18  1  0
 18 19  2  0
 18 20  1  0
 21 20  1  1
 21 22  1  0
 22 15  1  0
 23 25  1  0
 23 21  1  0
 24 23  2  0
M  END
$$$$
