ILN.pdb
     RDKit          3D

 25 24  0  0  1  0  0  0  0  0999 V2000
   20.4085  -15.8469  -15.4382 C   0  0  0  0  0  0  0  0  0  0  0  0
   20.3965  -17.3239  -15.1219 C   0  0  0  0  0  0  0  0  0  0  0  0
   21.7678  -17.9312  -15.2083 C   0  0  2  0  0  0  0  0  0  0  0  0
   22.4067  -17.4950  -16.4995 C   0  0  0  0  0  0  0  0  0  0  0  0
   21.8172  -19.4013  -14.9849 C   0  0  2  0  0  0  0  0  0  0  0  0
   21.0293  -19.7581  -13.8438 N   0  0  0  0  0  0  0  0  0  0  0  0
   23.1871  -19.9748  -14.9170 C   0  0  0  0  0  0  0  0  0  0  0  0
   23.9469  -19.7799  -15.8937 O   0  0  0  0  0  0  0  0  0  0  0  0
   25.0750  -19.2821  -11.1630 C   0  0  0  0  0  0  0  0  0  0  0  0
   24.5960  -20.7513  -11.2603 C   0  0  2  0  0  0  0  0  0  0  0  0
   24.6545  -21.2964   -9.8897 C   0  0  0  0  0  0  0  0  0  0  0  0
   25.3676  -21.4540  -12.2942 C   0  0  0  0  0  0  0  0  0  0  0  0
   25.0000  -21.3106  -13.7160 C   0  0  2  0  0  0  0  0  0  0  0  0
   23.6510  -20.7184  -13.8078 N   0  0  0  0  0  0  0  0  0  0  0  0
   24.9629  -22.5560  -14.5117 C   0  0  0  0  0  0  0  0  0  0  0  0
   25.9987  -23.3159  -14.5768 O   0  0  0  0  0  0  0  0  0  0  0  0
   25.7054  -26.4784  -15.9029 N   0  0  0  0  0  0  0  0  0  0  0  0
   24.4474  -26.5477  -15.2224 C   0  0  0  0  0  0  0  0  0  0  0  0
   24.2400  -27.5911  -14.5708 O   0  0  0  0  0  0  0  0  0  0  0  0
   23.4855  -25.4439  -15.3067 C   0  0  0  0  0  0  0  0  0  0  0  0
   23.9163  -24.2456  -16.0783 C   0  0  2  0  0  0  0  0  0  0  0  0
   23.8613  -23.0373  -15.2467 N   0  0  0  0  0  0  0  0  0  0  0  0
   22.9873  -24.0341  -17.2339 C   0  0  0  0  0  0  0  0  0  0  0  0
   21.8389  -23.4965  -17.0420 O   0  0  0  0  0  0  0  0  0  0  0  0
   23.2503  -24.3713  -18.5392 O   0  0  0  0  0  0  0  0  0  0  0  0
  2  1  1  0
  2  3  1  0
  3  5  1  0
  3  4  1  6
  5  7  1  0
  5  6  1  1
  7  8  2  0
 10  9  1  1
 10 12  1  0
 11 10  1  0
 13 12  1  1
 14  7  1  0
 14 13  1  0
 15 16  2  0
 15 13  1  0
 17 18  1  0
 18 19  2  0
 18 20  1  0
 21 20  1  1
 21 22  1  0
 22 15  1  0
 23 25  1  0
 23 21  1  0
 24 23  2  0
M  END
$$$$
