ILN.pdb
     RDKit          3D

 25 24  0  0  1  0  0  0  0  0999 V2000
   25.0709  -15.2737  -16.2301 C   0  0  0  0  0  0  0  0  0  0  0  0
   23.7615  -14.6686  -15.7817 C   0  0  0  0  0  0  0  0  0  0  0  0
   23.6060  -13.2491  -16.2482 C   0  0  2  0  0  0  0  0  0  0  0  0
   24.7989  -12.4569  -15.7845 C   0  0  0  0  0  0  0  0  0  0  0  0
   22.3021  -12.6176  -15.9097 C   0  0  2  0  0  0  0  0  0  0  0  0
   21.2367  -13.5616  -16.0648 N   0  0  0  0  0  0  0  0  0  0  0  0
   22.0246  -11.3426  -16.6222 C   0  0  0  0  0  0  0  0  0  0  0  0
   22.9854  -10.5610  -16.8088 O   0  0  0  0  0  0  0  0  0  0  0  0
   20.0682   -9.5216  -20.7688 C   0  0  0  0  0  0  0  0  0  0  0  0
   19.2165  -10.4201  -19.8387 C   0  0  2  0  0  0  0  0  0  0  0  0
   17.9283  -10.6258  -20.5295 C   0  0  0  0  0  0  0  0  0  0  0  0
   19.1689   -9.8320  -18.4934 C   0  0  0  0  0  0  0  0  0  0  0  0
   20.4077   -9.6909  -17.7043 C   0  0  2  0  0  0  0  0  0  0  0  0
   20.7366  -10.9907  -17.0868 N   0  0  0  0  0  0  0  0  0  0  0  0
   20.3746   -8.7039  -16.6041 C   0  0  0  0  0  0  0  0  0  0  0  0
   20.0310   -9.0650  -15.4183 O   0  0  0  0  0  0  0  0  0  0  0  0
   22.6814   -4.8209  -13.4621 N   0  0  0  0  0  0  0  0  0  0  0  0
   21.9217   -6.0315  -13.3741 C   0  0  0  0  0  0  0  0  0  0  0  0
   21.4448   -6.2921  -12.2512 O   0  0  0  0  0  0  0  0  0  0  0  0
   21.7351   -6.8888  -14.5492 C   0  0  0  0  0  0  0  0  0  0  0  0
   20.7362   -6.4303  -15.5535 C   0  0  2  0  0  0  0  0  0  0  0  0
   20.6972   -7.3363  -16.7077 N   0  0  0  0  0  0  0  0  0  0  0  0
   21.1240   -5.0762  -16.0626 C   0  0  0  0  0  0  0  0  0  0  0  0
   21.2562   -4.0980  -15.2438 O   0  0  0  0  0  0  0  0  0  0  0  0
   21.3648   -4.7584  -17.3771 O   0  0  0  0  0  0  0  0  0  0  0  0
  2  1  1  0
  2  3  1  0
  3  5  1  0
  3  4  1  1
  5  7  1  0
  5  6  1  6
  7  8  2  0
 10  9  1  6
 10 12  1  0
 11 10  1  0
 13 12  1  1
 14  7  1  0
 14 13  1  0
 15 16  2  0
 15 13  1  0
 17 18  1  0
 18 19  2  0
 18 20  1  0
 21 20  1  1
 21 22  1  0
 22 15  1  0
 23 25  1  0
 23 21  1  0
 24 23  2  0
M  END
$$$$
