ILN.pdb
     RDKit          3D

 25 24  0  0  1  0  0  0  0  0999 V2000
   27.5657  -20.2328   -5.7509 C   0  0  0  0  0  0  0  0  0  0  0  0
   26.3147  -20.3439   -6.5902 C   0  0  0  0  0  0  0  0  0  0  0  0
   26.5236  -19.8299   -7.9862 C   0  0  2  0  0  0  0  0  0  0  0  0
   26.9667  -18.3935   -7.9088 C   0  0  0  0  0  0  0  0  0  0  0  0
   25.3817  -20.0530   -8.9135 C   0  0  2  0  0  0  0  0  0  0  0  0
   24.8155  -21.3512   -8.7026 N   0  0  0  0  0  0  0  0  0  0  0  0
   25.6866  -19.8047  -10.3472 C   0  0  0  0  0  0  0  0  0  0  0  0
   25.6643  -18.6182  -10.7482 O   0  0  0  0  0  0  0  0  0  0  0  0
   29.1271  -19.5303  -13.0326 C   0  0  0  0  0  0  0  0  0  0  0  0
   28.7727  -20.9503  -12.5272 C   0  0  2  0  0  0  0  0  0  0  0  0
   29.9363  -21.8028  -12.8412 C   0  0  0  0  0  0  0  0  0  0  0  0
   27.4739  -21.3599  -13.0781 C   0  0  0  0  0  0  0  0  0  0  0  0
   26.2469  -20.6357  -12.6943 C   0  0  2  0  0  0  0  0  0  0  0  0
   25.9946  -20.8438  -11.2548 N   0  0  0  0  0  0  0  0  0  0  0  0
   25.0069  -21.0306  -13.3956 C   0  0  0  0  0  0  0  0  0  0  0  0
   24.9088  -20.8892  -14.6703 O   0  0  0  0  0  0  0  0  0  0  0  0
   19.8204  -23.2208  -14.0171 N   0  0  0  0  0  0  0  0  0  0  0  0
   20.1275  -22.0912  -13.1925 C   0  0  0  0  0  0  0  0  0  0  0  0
   19.2037  -21.2679  -13.0344 O   0  0  0  0  0  0  0  0  0  0  0  0
   21.4548  -21.9415  -12.5869 C   0  0  0  0  0  0  0  0  0  0  0  0
   22.6017  -21.8067  -13.5265 C   0  0  2  0  0  0  0  0  0  0  0  0
   23.8549  -21.5783  -12.7971 N   0  0  0  0  0  0  0  0  0  0  0  0
   22.3823  -20.6229  -14.4173 C   0  0  0  0  0  0  0  0  0  0  0  0
   22.4066  -19.4386  -13.9258 O   0  0  0  0  0  0  0  0  0  0  0  0
   22.1475  -20.6764  -15.7696 O   0  0  0  0  0  0  0  0  0  0  0  0
  2  1  1  0
  2  3  1  0
  3  5  1  0
  3  4  1  1
  5  7  1  0
  5  6  1  6
  7  8  2  0
 10  9  1  6
 10 12  1  0
 11 10  1  0
 13 12  1  6
 14  7  1  0
 14 13  1  0
 15 16  2  0
 15 13  1  0
 17 18  1  0
 18 19  2  0
 18 20  1  0
 21 20  1  1
 21 22  1  0
 22 15  1  0
 23 25  1  0
 23 21  1  0
 24 23  2  0
M  END
$$$$
