ILN.pdb
     RDKit          3D

 25 24  0  0  1  0  0  0  0  0999 V2000
   19.5501  -38.8747  -14.2345 C   0  0  0  0  0  0  0  0  0  0  0  0
   19.9771  -38.0864  -13.0187 C   0  0  0  0  0  0  0  0  0  0  0  0
   21.4664  -38.1118  -12.8235 C   0  0  2  0  0  0  0  0  0  0  0  0
   21.9180  -39.5459  -12.7524 C   0  0  0  0  0  0  0  0  0  0  0  0
   21.9656  -37.2727  -11.7009 C   0  0  2  0  0  0  0  0  0  0  0  0
   21.3631  -35.9744  -11.7437 N   0  0  0  0  0  0  0  0  0  0  0  0
   23.4463  -37.1961  -11.5917 C   0  0  0  0  0  0  0  0  0  0  0  0
   24.0793  -38.2744  -11.5178 O   0  0  0  0  0  0  0  0  0  0  0  0
   26.6996  -36.5440  -14.2480 C   0  0  0  0  0  0  0  0  0  0  0  0
   25.9339  -35.2466  -13.8903 C   0  0  2  0  0  0  0  0  0  0  0  0
   26.3697  -34.2276  -14.8654 C   0  0  0  0  0  0  0  0  0  0  0  0
   26.1258  -34.9374  -12.4671 C   0  0  0  0  0  0  0  0  0  0  0  0
   25.6151  -35.8600  -11.4350 C   0  0  2  0  0  0  0  0  0  0  0  0
   24.1492  -35.9697  -11.5691 N   0  0  0  0  0  0  0  0  0  0  0  0
   25.8774  -35.4813  -10.0302 C   0  0  0  0  0  0  0  0  0  0  0  0
   27.0854  -35.3684   -9.6030 O   0  0  0  0  0  0  0  0  0  0  0  0
   25.9500  -31.0182   -7.4579 N   0  0  0  0  0  0  0  0  0  0  0  0
   25.7221  -32.3341   -6.9411 C   0  0  0  0  0  0  0  0  0  0  0  0
   26.3604  -32.6303   -5.9110 O   0  0  0  0  0  0  0  0  0  0  0  0
   24.7903  -33.2513   -7.6054 C   0  0  0  0  0  0  0  0  0  0  0  0
   25.2261  -34.6700   -7.7233 C   0  0  2  0  0  0  0  0  0  0  0  0
   24.9030  -35.2107   -9.0491 N   0  0  0  0  0  0  0  0  0  0  0  0
   24.4987  -35.5025   -6.7130 C   0  0  0  0  0  0  0  0  0  0  0  0
   24.6623  -35.2777   -5.4610 O   0  0  0  0  0  0  0  0  0  0  0  0
   23.6335  -36.5295   -7.0015 O   0  0  0  0  0  0  0  0  0  0  0  0
  2  1  1  0
  2  3  1  0
  3  5  1  0
  3  4  1  1
  5  7  1  0
  5  6  1  6
  7  8  2  0
 10  9  1  6
 10 12  1  0
 11 10  1  0
 13 12  1  6
 14  7  1  0
 14 13  1  0
 15 16  2  0
 15 13  1  0
 17 18  1  0
 18 19  2  0
 18 20  1  0
 21 20  1  6
 21 22  1  0
 22 15  1  0
 23 25  1  0
 23 21  1  0
 24 23  2  0
M  END
$$$$
