ILN.pdb
     RDKit          3D

 25 24  0  0  1  0  0  0  0  0999 V2000
   25.4232  -15.6991  -15.6488 C   0  0  0  0  0  0  0  0  0  0  0  0
   23.9769  -15.2631  -15.6515 C   0  0  0  0  0  0  0  0  0  0  0  0
   23.8303  -13.7944  -15.9313 C   0  0  2  0  0  0  0  0  0  0  0  0
   24.6348  -13.0284  -14.9157 C   0  0  0  0  0  0  0  0  0  0  0  0
   22.4267  -13.3187  -16.0627 C   0  0  2  0  0  0  0  0  0  0  0  0
   21.6392  -14.2813  -16.7722 N   0  0  0  0  0  0  0  0  0  0  0  0
   22.2832  -11.9530  -16.6324 C   0  0  0  0  0  0  0  0  0  0  0  0
   23.3303  -11.3451  -16.9533 O   0  0  0  0  0  0  0  0  0  0  0  0
   17.8672   -9.1187  -19.7347 C   0  0  0  0  0  0  0  0  0  0  0  0
   19.1997   -8.8307  -19.0005 C   0  0  2  0  0  0  0  0  0  0  0  0
   20.0925   -8.2046  -19.9957 C   0  0  0  0  0  0  0  0  0  0  0  0
   19.6785  -10.0568  -18.3485 C   0  0  0  0  0  0  0  0  0  0  0  0
   20.8477  -10.0076  -17.4496 C   0  0  2  0  0  0  0  0  0  0  0  0
   21.0279  -11.3306  -16.8201 N   0  0  0  0  0  0  0  0  0  0  0  0
   20.7840   -9.0265  -16.3455 C   0  0  0  0  0  0  0  0  0  0  0  0
   20.1592   -9.3126  -15.2581 O   0  0  0  0  0  0  0  0  0  0  0  0
   22.3630   -5.6002  -12.4139 N   0  0  0  0  0  0  0  0  0  0  0  0
   22.6806   -5.2981  -13.7771 C   0  0  0  0  0  0  0  0  0  0  0  0
   22.9914   -4.1129  -14.0117 O   0  0  0  0  0  0  0  0  0  0  0  0
   22.6337   -6.3398  -14.8083 C   0  0  0  0  0  0  0  0  0  0  0  0
   21.2820   -6.8256  -15.2001 C   0  0  2  0  0  0  0  0  0  0  0  0
   21.3639   -7.7424  -16.3435 N   0  0  0  0  0  0  0  0  0  0  0  0
   20.4351   -5.6638  -15.6200 C   0  0  0  0  0  0  0  0  0  0  0  0
   20.5055   -5.2216  -16.8217 O   0  0  0  0  0  0  0  0  0  0  0  0
   19.5489   -4.9918  -14.8140 O   0  0  0  0  0  0  0  0  0  0  0  0
  2  1  1  0
  2  3  1  0
  3  5  1  0
  3  4  1  1
  5  7  1  0
  5  6  1  6
  7  8  2  0
 10  9  1  6
 10 12  1  0
 11 10  1  0
 13 12  1  1
 14  7  1  0
 14 13  1  0
 15 16  2  0
 15 13  1  0
 17 18  1  0
 18 19  2  0
 18 20  1  0
 21 20  1  6
 21 22  1  0
 22 15  1  0
 23 25  1  0
 23 21  1  0
 24 23  2  0
M  END
$$$$
