ILN.pdb
     RDKit          3D

 25 24  0  0  1  0  0  0  0  0999 V2000
   26.7695  -17.9399  -19.2063 C   0  0  0  0  0  0  0  0  0  0  0  0
   27.3425  -18.3863  -17.8819 C   0  0  0  0  0  0  0  0  0  0  0  0
   26.3421  -19.1510  -17.0625 C   0  0  2  0  0  0  0  0  0  0  0  0
   25.0716  -18.3479  -16.9822 C   0  0  0  0  0  0  0  0  0  0  0  0
   26.8395  -19.6149  -15.7393 C   0  0  2  0  0  0  0  0  0  0  0  0
   28.1011  -20.2762  -15.8858 N   0  0  0  0  0  0  0  0  0  0  0  0
   25.8703  -20.4306  -14.9612 C   0  0  0  0  0  0  0  0  0  0  0  0
   25.5347  -21.5408  -15.4344 O   0  0  0  0  0  0  0  0  0  0  0  0
   26.0622  -22.2988  -10.8011 C   0  0  0  0  0  0  0  0  0  0  0  0
   25.8390  -20.7669  -10.8344 C   0  0  2  0  0  0  0  0  0  0  0  0
   26.0018  -20.2955   -9.4449 C   0  0  0  0  0  0  0  0  0  0  0  0
   24.5625  -20.4690  -11.4976 C   0  0  0  0  0  0  0  0  0  0  0  0
   24.3769  -20.7968  -12.9243 C   0  0  2  0  0  0  0  0  0  0  0  0
   25.3258  -20.0023  -13.7289 N   0  0  0  0  0  0  0  0  0  0  0  0
   23.0347  -20.5367  -13.4869 C   0  0  0  0  0  0  0  0  0  0  0  0
   22.6181  -19.3294  -13.6405 O   0  0  0  0  0  0  0  0  0  0  0  0
   18.7008  -20.6121  -16.6697 N   0  0  0  0  0  0  0  0  0  0  0  0
   19.1340  -21.8972  -16.2099 C   0  0  0  0  0  0  0  0  0  0  0  0
   18.3184  -22.8295  -16.3579 O   0  0  0  0  0  0  0  0  0  0  0  0
   20.4596  -22.0721  -15.6074 C   0  0  0  0  0  0  0  0  0  0  0  0
   20.7898  -21.1828  -14.4599 C   0  0  2  0  0  0  0  0  0  0  0  0
   22.1065  -21.5123  -13.9013 N   0  0  0  0  0  0  0  0  0  0  0  0
   19.7816  -21.3776  -13.3697 C   0  0  0  0  0  0  0  0  0  0  0  0
   20.0560  -22.1351  -12.3718 O   0  0  0  0  0  0  0  0  0  0  0  0
   18.5354  -20.8017  -13.3251 O   0  0  0  0  0  0  0  0  0  0  0  0
  2  1  1  0
  2  3  1  0
  3  5  1  0
  3  4  1  1
  5  7  1  0
  5  6  1  6
  7  8  2  0
 10  9  1  1
 10 12  1  0
 11 10  1  0
 13 12  1  1
 14  7  1  0
 14 13  1  0
 15 16  2  0
 15 13  1  0
 17 18  1  0
 18 19  2  0
 18 20  1  0
 21 20  1  6
 21 22  1  0
 22 15  1  0
 23 25  1  0
 23 21  1  0
 24 23  2  0
M  END
$$$$
