ILN.pdb
     RDKit          3D

 25 24  0  0  1  0  0  0  0  0999 V2000
   19.7676  -21.9086  -17.1707 C   0  0  0  0  0  0  0  0  0  0  0  0
   20.0172  -21.8094  -15.6842 C   0  0  0  0  0  0  0  0  0  0  0  0
   21.3978  -21.3039  -15.3757 C   0  0  2  0  0  0  0  0  0  0  0  0
   22.4004  -22.1972  -16.0557 C   0  0  0  0  0  0  0  0  0  0  0  0
   21.6767  -21.0853  -13.9307 C   0  0  2  0  0  0  0  0  0  0  0  0
   20.6716  -20.2462  -13.3511 N   0  0  0  0  0  0  0  0  0  0  0  0
   23.0492  -20.6004  -13.6281 C   0  0  0  0  0  0  0  0  0  0  0  0
   23.3294  -19.4201  -13.9397 O   0  0  0  0  0  0  0  0  0  0  0  0
   24.9280  -19.4314  -10.1229 C   0  0  0  0  0  0  0  0  0  0  0  0
   24.9470  -20.9728  -10.2694 C   0  0  2  0  0  0  0  0  0  0  0  0
   25.3032  -21.5095   -8.9411 C   0  0  0  0  0  0  0  0  0  0  0  0
   25.8087  -21.3503  -11.3976 C   0  0  0  0  0  0  0  0  0  0  0  0
   25.4230  -20.9890  -12.7753 C   0  0  2  0  0  0  0  0  0  0  0  0
   24.0289  -21.4125  -13.0124 N   0  0  0  0  0  0  0  0  0  0  0  0
   26.2299  -21.5876  -13.8597 C   0  0  0  0  0  0  0  0  0  0  0  0
   26.2759  -22.8648  -14.0055 O   0  0  0  0  0  0  0  0  0  0  0  0
   27.4927  -22.2815  -18.8651 N   0  0  0  0  0  0  0  0  0  0  0  0
   26.2962  -22.5553  -18.1275 C   0  0  0  0  0  0  0  0  0  0  0  0
   25.4208  -23.2038  -18.7352 O   0  0  0  0  0  0  0  0  0  0  0  0
   26.1416  -22.0881  -16.7460 C   0  0  0  0  0  0  0  0  0  0  0  0
   27.3226  -21.4176  -16.1359 C   0  0  2  0  0  0  0  0  0  0  0  0
   26.9959  -20.8822  -14.8089 N   0  0  0  0  0  0  0  0  0  0  0  0
   27.7397  -20.2620  -16.9925 C   0  0  0  0  0  0  0  0  0  0  0  0
   27.2648  -19.0925  -16.7654 O   0  0  0  0  0  0  0  0  0  0  0  0
   28.6199  -20.3275  -18.0449 O   0  0  0  0  0  0  0  0  0  0  0  0
  2  1  1  0
  2  3  1  0
  3  5  1  0
  3  4  1  1
  5  7  1  0
  5  6  1  6
  7  8  2  0
 10  9  1  1
 10 12  1  0
 11 10  1  0
 13 12  1  1
 14  7  1  0
 14 13  1  0
 15 16  2  0
 15 13  1  0
 17 18  1  0
 18 19  2  0
 18 20  1  0
 21 20  1  6
 21 22  1  0
 22 15  1  0
 23 25  1  0
 23 21  1  0
 24 23  2  0
M  END
$$$$
