ILN.pdb
     RDKit          3D

 25 24  0  0  1  0  0  0  0  0999 V2000
   20.8965  -12.5372  -22.7830 C   0  0  0  0  0  0  0  0  0  0  0  0
   21.7939  -11.5040  -22.1434 C   0  0  0  0  0  0  0  0  0  0  0  0
   21.6936  -11.5190  -20.6445 C   0  0  2  0  0  0  0  0  0  0  0  0
   20.2425  -11.4164  -20.2583 C   0  0  0  0  0  0  0  0  0  0  0  0
   22.5673  -10.5364  -19.9483 C   0  0  2  0  0  0  0  0  0  0  0  0
   23.8927  -10.5784  -20.4885 N   0  0  0  0  0  0  0  0  0  0  0  0
   22.5667  -10.6442  -18.4655 C   0  0  0  0  0  0  0  0  0  0  0  0
   21.4901  -10.9565  -17.9068 O   0  0  0  0  0  0  0  0  0  0  0  0
   27.2459  -11.9427  -15.3377 C   0  0  0  0  0  0  0  0  0  0  0  0
   25.7607  -12.0470  -15.7631 C   0  0  2  0  0  0  0  0  0  0  0  0
   25.7462  -12.8056  -17.0295 C   0  0  0  0  0  0  0  0  0  0  0  0
   25.1566  -10.7081  -15.7773 C   0  0  0  0  0  0  0  0  0  0  0  0
   23.7569  -10.5334  -16.2106 C   0  0  2  0  0  0  0  0  0  0  0  0
   23.7193  -10.4101  -17.6811 N   0  0  0  0  0  0  0  0  0  0  0  0
   23.0482   -9.3515  -15.6755 C   0  0  0  0  0  0  0  0  0  0  0  0
   22.9057   -9.1996  -14.4062 O   0  0  0  0  0  0  0  0  0  0  0  0
   20.9217   -4.7172  -14.6047 N   0  0  0  0  0  0  0  0  0  0  0  0
   22.2639   -5.1538  -14.3628 C   0  0  0  0  0  0  0  0  0  0  0  0
   22.9487   -4.4181  -13.6239 O   0  0  0  0  0  0  0  0  0  0  0  0
   22.7704   -6.3930  -14.9616 C   0  0  0  0  0  0  0  0  0  0  0  0
   21.8270   -7.1410  -15.8375 C   0  0  2  0  0  0  0  0  0  0  0  0
   22.4809   -8.3104  -16.4368 N   0  0  0  0  0  0  0  0  0  0  0  0
   21.3786   -6.2568  -16.9601 C   0  0  0  0  0  0  0  0  0  0  0  0
   21.6598   -6.5685  -18.1719 O   0  0  0  0  0  0  0  0  0  0  0  0
   20.6634   -5.0926  -16.8200 O   0  0  0  0  0  0  0  0  0  0  0  0
  2  1  1  0
  2  3  1  0
  3  5  1  0
  3  4  1  6
  5  7  1  0
  5  6  1  6
  7  8  2  0
 10  9  1  6
 10 12  1  0
 11 10  1  0
 13 12  1  1
 14  7  1  0
 14 13  1  0
 15 16  2  0
 15 13  1  0
 17 18  1  0
 18 19  2  0
 18 20  1  0
 21 20  1  1
 21 22  1  0
 22 15  1  0
 23 25  1  0
 23 21  1  0
 24 23  2  0
M  END
$$$$
