ILN.pdb
     RDKit          3D

 25 24  0  0  1  0  0  0  0  0999 V2000
   20.7687  -18.9460   -1.5431 C   0  0  0  0  0  0  0  0  0  0  0  0
   19.9113  -19.1546   -0.3170 C   0  0  0  0  0  0  0  0  0  0  0  0
   20.1943  -18.1358    0.7501 C   0  0  2  0  0  0  0  0  0  0  0  0
   21.6529  -18.2123    1.1137 C   0  0  0  0  0  0  0  0  0  0  0  0
   19.2829  -18.1892    1.9249 C   0  0  2  0  0  0  0  0  0  0  0  0
   17.9238  -18.3246    1.4947 N   0  0  0  0  0  0  0  0  0  0  0  0
   19.4516  -17.0751    2.8946 C   0  0  0  0  0  0  0  0  0  0  0  0
   20.6122  -16.8227    3.2924 O   0  0  0  0  0  0  0  0  0  0  0  0
   16.3039  -12.0056    4.2159 C   0  0  0  0  0  0  0  0  0  0  0  0
   17.4483  -12.8986    4.7549 C   0  0  2  0  0  0  0  0  0  0  0  0
   18.6499  -12.0426    4.8080 C   0  0  0  0  0  0  0  0  0  0  0  0
   17.5353  -14.1263    3.9529 C   0  0  0  0  0  0  0  0  0  0  0  0
   18.5038  -15.1788    4.3156 C   0  0  2  0  0  0  0  0  0  0  0  0
   18.3659  -16.3064    3.3730 N   0  0  0  0  0  0  0  0  0  0  0  0
   18.3714  -15.7515    5.6720 C   0  0  0  0  0  0  0  0  0  0  0  0
   18.4517  -14.9930    6.7077 O   0  0  0  0  0  0  0  0  0  0  0  0
   14.1854  -17.6114    8.4359 N   0  0  0  0  0  0  0  0  0  0  0  0
   15.2463  -17.5843    7.4745 C   0  0  0  0  0  0  0  0  0  0  0  0
   15.0191  -18.1745    6.3992 O   0  0  0  0  0  0  0  0  0  0  0  0
   16.5083  -16.8970    7.7673 C   0  0  0  0  0  0  0  0  0  0  0  0
   17.7540  -17.5751    7.3145 C   0  0  2  0  0  0  0  0  0  0  0  0
   18.1515  -17.1086    5.9807 N   0  0  0  0  0  0  0  0  0  0  0  0
   17.5138  -19.0502    7.2175 C   0  0  0  0  0  0  0  0  0  0  0  0
   17.2731  -19.7307    8.2776 O   0  0  0  0  0  0  0  0  0  0  0  0
   17.5242  -19.7843    6.0566 O   0  0  0  0  0  0  0  0  0  0  0  0
  2  1  1  0
  2  3  1  0
  3  5  1  0
  3  4  1  1
  5  7  1  0
  5  6  1  6
  7  8  2  0
 10  9  1  6
 10 12  1  0
 11 10  1  0
 13 12  1  6
 14  7  1  0
 14 13  1  0
 15 16  2  0
 15 13  1  0
 17 18  1  0
 18 19  2  0
 18 20  1  0
 21 20  1  6
 21 22  1  0
 22 15  1  0
 23 25  1  0
 23 21  1  0
 24 23  2  0
M  END
$$$$
