ILN.pdb
     RDKit          3D

 25 24  0  0  1  0  0  0  0  0999 V2000
   29.5191  -20.1248   -4.1307 C   0  0  0  0  0  0  0  0  0  0  0  0
   28.1262  -20.2755   -4.6954 C   0  0  0  0  0  0  0  0  0  0  0  0
   28.0385  -19.7986   -6.1173 C   0  0  2  0  0  0  0  0  0  0  0  0
   28.5697  -18.3920   -6.1866 C   0  0  0  0  0  0  0  0  0  0  0  0
   26.7033  -19.9643   -6.7525 C   0  0  2  0  0  0  0  0  0  0  0  0
   26.0970  -21.1888   -6.3245 N   0  0  0  0  0  0  0  0  0  0  0  0
   26.6971  -19.8274   -8.2329 C   0  0  0  0  0  0  0  0  0  0  0  0
   26.6273  -18.6707   -8.7084 O   0  0  0  0  0  0  0  0  0  0  0  0
   29.5367  -20.1467  -11.8101 C   0  0  0  0  0  0  0  0  0  0  0  0
   29.2207  -21.4213  -10.9897 C   0  0  2  0  0  0  0  0  0  0  0  0
   30.1904  -22.4449  -11.4270 C   0  0  0  0  0  0  0  0  0  0  0  0
   27.7949  -21.7503  -11.1194 C   0  0  0  0  0  0  0  0  0  0  0  0
   26.7729  -20.8348  -10.5765 C   0  0  2  0  0  0  0  0  0  0  0  0
   26.7661  -20.9386   -9.1040 N   0  0  0  0  0  0  0  0  0  0  0  0
   25.3816  -21.0712  -11.0169 C   0  0  0  0  0  0  0  0  0  0  0  0
   24.7529  -22.1289  -10.6420 O   0  0  0  0  0  0  0  0  0  0  0  0
   20.0152  -19.0105  -12.1038 N   0  0  0  0  0  0  0  0  0  0  0  0
   21.1067  -19.3667  -12.9594 C   0  0  0  0  0  0  0  0  0  0  0  0
   20.7937  -19.7905  -14.0902 O   0  0  0  0  0  0  0  0  0  0  0  0
   22.4941  -19.2299  -12.5041 C   0  0  0  0  0  0  0  0  0  0  0  0
   23.2207  -20.4933  -12.2003 C   0  0  2  0  0  0  0  0  0  0  0  0
   24.6187  -20.2232  -11.8439 N   0  0  0  0  0  0  0  0  0  0  0  0
   23.2316  -21.3687  -13.4155 C   0  0  0  0  0  0  0  0  0  0  0  0
   22.3191  -22.2559  -13.5737 O   0  0  0  0  0  0  0  0  0  0  0  0
   24.1606  -21.3171  -14.4259 O   0  0  0  0  0  0  0  0  0  0  0  0
  2  1  1  0
  2  3  1  0
  3  5  1  0
  3  4  1  1
  5  7  1  0
  5  6  1  6
  7  8  2  0
 10  9  1  6
 10 12  1  0
 11 10  1  0
 13 12  1  6
 14  7  1  0
 14 13  1  0
 15 16  2  0
 15 13  1  0
 17 18  1  0
 18 19  2  0
 18 20  1  0
 21 20  1  6
 21 22  1  0
 22 15  1  0
 23 25  1  0
 23 21  1  0
 24 23  2  0
M  END
$$$$
