ILN.pdb
     RDKit          3D

 25 24  0  0  1  0  0  0  0  0999 V2000
   25.7368  -19.5272  -17.6040 C   0  0  0  0  0  0  0  0  0  0  0  0
   26.6195  -19.8699  -16.4270 C   0  0  0  0  0  0  0  0  0  0  0  0
   25.8292  -20.3948  -15.2622 C   0  0  2  0  0  0  0  0  0  0  0  0
   24.7175  -19.4263  -14.9596 C   0  0  0  0  0  0  0  0  0  0  0  0
   26.6399  -20.7640  -14.0705 C   0  0  2  0  0  0  0  0  0  0  0  0
   27.7157  -21.6298  -14.4491 N   0  0  0  0  0  0  0  0  0  0  0  0
   25.8578  -21.3130  -12.9316 C   0  0  0  0  0  0  0  0  0  0  0  0
   25.6318  -22.5450  -12.9231 O   0  0  0  0  0  0  0  0  0  0  0  0
   26.6949  -21.5784   -8.5010 C   0  0  0  0  0  0  0  0  0  0  0  0
   26.3007  -20.1614   -8.9852 C   0  0  2  0  0  0  0  0  0  0  0  0
   26.5496  -19.2526   -7.8488 C   0  0  0  0  0  0  0  0  0  0  0  0
   24.9387  -20.1894   -9.5349 C   0  0  0  0  0  0  0  0  0  0  0  0
   24.6334  -21.0270  -10.7107 C   0  0  2  0  0  0  0  0  0  0  0  0
   25.3704  -20.5055  -11.8785 N   0  0  0  0  0  0  0  0  0  0  0  0
   23.2126  -21.0982  -11.1130 C   0  0  0  0  0  0  0  0  0  0  0  0
   22.3296  -21.5581  -10.2985 O   0  0  0  0  0  0  0  0  0  0  0  0
   20.8476  -17.2305  -13.8809 N   0  0  0  0  0  0  0  0  0  0  0  0
   20.5951  -18.4095  -13.1085 C   0  0  0  0  0  0  0  0  0  0  0  0
   20.1447  -18.2198  -11.9607 O   0  0  0  0  0  0  0  0  0  0  0  0
   20.8602  -19.7415  -13.6619 C   0  0  0  0  0  0  0  0  0  0  0  0
   21.2563  -20.7974  -12.6899 C   0  0  2  0  0  0  0  0  0  0  0  0
   22.6816  -20.6950  -12.3542 N   0  0  0  0  0  0  0  0  0  0  0  0
   21.0381  -22.1472  -13.3008 C   0  0  0  0  0  0  0  0  0  0  0  0
   19.8664  -22.4904  -13.6934 O   0  0  0  0  0  0  0  0  0  0  0  0
   22.0082  -23.1002  -13.4942 O   0  0  0  0  0  0  0  0  0  0  0  0
  2  1  1  0
  2  3  1  0
  3  5  1  0
  3  4  1  1
  5  7  1  0
  5  6  1  6
  7  8  2  0
 10  9  1  1
 10 12  1  0
 11 10  1  0
 13 12  1  1
 14  7  1  0
 14 13  1  0
 15 16  2  0
 15 13  1  0
 17 18  1  0
 18 19  2  0
 18 20  1  0
 21 20  1  6
 21 22  1  0
 22 15  1  0
 23 25  1  0
 23 21  1  0
 24 23  2  0
M  END
$$$$
