ILN.pdb
     RDKit          3D

 25 24  0  0  1  0  0  0  0  0999 V2000
   27.1157  -19.3474  -15.3660 C   0  0  0  0  0  0  0  0  0  0  0  0
   27.3851  -19.7312  -13.9301 C   0  0  0  0  0  0  0  0  0  0  0  0
   26.6779  -20.9984  -13.5418 C   0  0  2  0  0  0  0  0  0  0  0  0
   26.4666  -21.8298  -14.7786 C   0  0  0  0  0  0  0  0  0  0  0  0
   25.4430  -20.8048  -12.7348 C   0  0  2  0  0  0  0  0  0  0  0  0
   24.9386  -19.4759  -12.9079 N   0  0  0  0  0  0  0  0  0  0  0  0
   25.5745  -21.1680  -11.2992 C   0  0  0  0  0  0  0  0  0  0  0  0
   25.6117  -22.3861  -11.0098 O   0  0  0  0  0  0  0  0  0  0  0  0
   27.5973  -18.5349   -6.1513 C   0  0  0  0  0  0  0  0  0  0  0  0
   27.0304  -19.8386   -6.7650 C   0  0  2  0  0  0  0  0  0  0  0  0
   28.0520  -20.8799   -6.5387 C   0  0  0  0  0  0  0  0  0  0  0  0
   26.6211  -19.5923   -8.1542 C   0  0  0  0  0  0  0  0  0  0  0  0
   25.7044  -20.5294   -8.8317 C   0  0  2  0  0  0  0  0  0  0  0  0
   25.6571  -20.2020  -10.2703 N   0  0  0  0  0  0  0  0  0  0  0  0
   24.3037  -20.5321   -8.3591 C   0  0  0  0  0  0  0  0  0  0  0  0
   23.3721  -20.0248   -9.0867 O   0  0  0  0  0  0  0  0  0  0  0  0
   19.9480  -22.8389   -6.5610 N   0  0  0  0  0  0  0  0  0  0  0  0
   20.8107  -23.2676   -7.6204 C   0  0  0  0  0  0  0  0  0  0  0  0
   20.3668  -24.1804   -8.3456 O   0  0  0  0  0  0  0  0  0  0  0  0
   22.1275  -22.6513   -7.8132 C   0  0  0  0  0  0  0  0  0  0  0  0
   22.4605  -21.5049   -6.9237 C   0  0  2  0  0  0  0  0  0  0  0  0
   23.8426  -21.0587   -7.1363 N   0  0  0  0  0  0  0  0  0  0  0  0
   22.3450  -21.9319   -5.4928 C   0  0  0  0  0  0  0  0  0  0  0  0
   23.3649  -22.4170   -4.8852 O   0  0  0  0  0  0  0  0  0  0  0  0
   21.2070  -21.8535   -4.7276 O   0  0  0  0  0  0  0  0  0  0  0  0
  2  1  1  0
  2  3  1  0
  3  5  1  0
  3  4  1  6
  5  7  1  0
  5  6  1  1
  7  8  2  0
 10  9  1  6
 10 12  1  0
 11 10  1  0
 13 12  1  1
 14  7  1  0
 14 13  1  0
 15 16  2  0
 15 13  1  0
 17 18  1  0
 18 19  2  0
 18 20  1  0
 21 20  1  6
 21 22  1  0
 22 15  1  0
 23 25  1  0
 23 21  1  0
 24 23  2  0
M  END
$$$$
