IDR.pdb
     RDKit          3D

 28 27  0  0  1  0  0  0  0  0999 V2000
    8.5896  -11.9612   18.5885 C   0  0  0  0  0  0  0  0  0  0  0  0
    7.5449  -12.9676   18.9468 C   0  0  0  0  0  0  0  0  0  0  0  0
    8.1104  -13.9945   19.8968 C   0  0  2  0  0  0  0  0  0  0  0  0
    9.3690  -14.6398   19.4201 C   0  0  0  0  0  0  0  0  0  0  0  0
    7.0856  -15.0570   20.2221 C   0  0  2  0  0  0  0  0  0  0  0  0
    5.8311  -14.4836   20.6082 N   0  0  0  0  0  0  0  0  0  0  0  0
    7.6317  -16.0142   21.1943 C   0  0  0  0  0  0  0  0  0  0  0  0
    7.7090  -15.6694   22.4110 O   0  0  0  0  0  0  0  0  0  0  0  0
    8.0748  -17.2987   20.8386 N   0  0  0  0  0  0  0  0  0  0  0  0
    8.5635  -18.2524   21.8436 C   0  0  1  0  0  0  0  0  0  0  0  0
    8.2168  -19.6333   21.3300 C   0  0  0  0  0  0  0  0  0  0  0  0
    8.6432  -20.6479   22.3227 C   0  0  0  0  0  0  0  0  0  0  0  0
    9.1872  -20.3735   23.4188 O   0  0  0  0  0  0  0  0  0  0  0  0
   10.0403  -18.1211   21.9198 C   0  0  0  0  0  0  0  0  0  0  0  0
   10.7487  -18.1823   20.8568 O   0  0  0  0  0  0  0  0  0  0  0  0
    8.4422  -22.0159   22.0542 O   0  0  0  0  0  0  0  0  0  0  0  0
   13.6726  -14.9917   17.7186 N   0  0  0  0  0  0  0  0  0  0  0  0
   14.5781  -14.2716   18.5647 C   0  0  0  0  0  0  0  0  0  0  0  0
   15.3579  -13.4308   18.0392 N   0  0  0  0  0  0  0  0  0  0  0  0
   14.6377  -14.4477   19.9521 N   0  0  0  0  0  0  0  0  0  0  0  0
   13.5940  -14.7343   20.8187 C   0  0  0  0  0  0  0  0  0  0  0  0
   13.3281  -15.9859   21.4864 C   0  0  0  0  0  0  0  0  0  0  0  0
   12.2106  -16.2892   22.3651 C   0  0  0  0  0  0  0  0  0  0  0  0
   12.1472  -17.5318   23.1904 C   0  0  2  0  0  0  0  0  0  0  0  0
   10.6867  -17.9273   23.1586 N   0  0  0  0  0  0  0  0  0  0  0  0
   12.4708  -17.4648   24.6081 C   0  0  0  0  0  0  0  0  0  0  0  0
   11.5552  -17.3431   25.5091 O   0  0  0  0  0  0  0  0  0  0  0  0
   13.7442  -17.5280   25.1074 O   0  0  0  0  0  0  0  0  0  0  0  0
  2  1  1  0
  3  2  1  0
  3  4  1  6
  5  3  1  0
  5  6  1  1
  7  5  1  0
  8  7  2  0
  9  7  1  0
 10  9  1  0
 11 12  1  0
 10 11  1  6
 12 13  2  0
 14 10  1  0
 14 15  2  0
 16 12  1  0
 18 17  1  0
 19 18  2  0
 20 18  1  0
 21 20  1  0
 22 21  1  0
 23 22  1  0
 24 23  1  1
 24 25  1  0
 25 14  1  0
 26 24  1  0
 27 26  2  0
 28 26  1  0
M  END
$$$$
