IDR.pdb
     RDKit          3D

 28 27  0  0  1  0  0  0  0  0999 V2000
    7.2671  -10.4879   25.9290 C   0  0  0  0  0  0  0  0  0  0  0  0
    6.7230  -11.7423   26.5316 C   0  0  0  0  0  0  0  0  0  0  0  0
    7.5494  -12.9303   26.1046 C   0  0  2  0  0  0  0  0  0  0  0  0
    7.6444  -13.1084   24.6258 C   0  0  0  0  0  0  0  0  0  0  0  0
    7.0390  -14.2040   26.7387 C   0  0  2  0  0  0  0  0  0  0  0  0
    6.6289  -13.9942   28.0949 N   0  0  0  0  0  0  0  0  0  0  0  0
    8.0170  -15.2877   26.5689 C   0  0  0  0  0  0  0  0  0  0  0  0
    9.0978  -15.2416   27.2285 O   0  0  0  0  0  0  0  0  0  0  0  0
    7.8110  -16.3773   25.7069 N   0  0  0  0  0  0  0  0  0  0  0  0
    8.8567  -17.3814   25.4687 C   0  0  1  0  0  0  0  0  0  0  0  0
    8.2742  -18.7153   25.8840 C   0  0  0  0  0  0  0  0  0  0  0  0
    9.3565  -19.7259   25.9462 C   0  0  0  0  0  0  0  0  0  0  0  0
   10.5506  -19.4967   25.6391 O   0  0  0  0  0  0  0  0  0  0  0  0
    9.1410  -17.4102   24.0119 C   0  0  0  0  0  0  0  0  0  0  0  0
    8.3116  -17.9527   23.2036 O   0  0  0  0  0  0  0  0  0  0  0  0
    9.0651  -21.0367   26.3714 O   0  0  0  0  0  0  0  0  0  0  0  0
    7.7460  -13.3414   17.0469 N   0  0  0  0  0  0  0  0  0  0  0  0
    7.9193  -13.1548   18.4575 C   0  0  0  0  0  0  0  0  0  0  0  0
    7.5961  -12.0462   18.9651 N   0  0  0  0  0  0  0  0  0  0  0  0
    8.4240  -14.1461   19.3071 N   0  0  0  0  0  0  0  0  0  0  0  0
    8.4282  -14.1565   20.6936 C   0  0  0  0  0  0  0  0  0  0  0  0
    9.0455  -15.1313   21.5606 C   0  0  0  0  0  0  0  0  0  0  0  0
   10.3304  -15.7835   21.3696 C   0  0  0  0  0  0  0  0  0  0  0  0
   10.6924  -17.0660   22.0431 C   0  0  2  0  0  0  0  0  0  0  0  0
   10.3242  -16.8428   23.4941 N   0  0  0  0  0  0  0  0  0  0  0  0
   12.0868  -17.4816   22.0857 C   0  0  0  0  0  0  0  0  0  0  0  0
   12.8100  -17.3267   23.1431 O   0  0  0  0  0  0  0  0  0  0  0  0
   12.7448  -18.0658   21.0367 O   0  0  0  0  0  0  0  0  0  0  0  0
  2  1  1  0
  3  2  1  0
  3  4  1  6
  5  3  1  0
  5  6  1  1
  7  5  1  0
  8  7  2  0
  9  7  1  0
 10  9  1  0
 11 12  1  0
 10 11  1  6
 12 13  2  0
 14 10  1  0
 14 15  2  0
 16 12  1  0
 18 17  1  0
 19 18  2  0
 20 18  1  0
 21 20  1  0
 22 21  1  0
 23 22  1  0
 24 23  1  6
 24 25  1  0
 25 14  1  0
 26 24  1  0
 27 26  2  0
 28 26  1  0
M  END
$$$$
