IDR.pdb
     RDKit          3D

 28 27  0  0  1  0  0  0  0  0999 V2000
    7.7186  -12.7464   17.3861 C   0  0  0  0  0  0  0  0  0  0  0  0
    7.8353  -12.5337   18.8605 C   0  0  0  0  0  0  0  0  0  0  0  0
    8.1310  -13.8394   19.5567 C   0  0  2  0  0  0  0  0  0  0  0  0
    7.2616  -14.1116   20.7389 C   0  0  0  0  0  0  0  0  0  0  0  0
    9.5843  -13.9216   19.9642 C   0  0  2  0  0  0  0  0  0  0  0  0
   10.4603  -13.6942   18.8540 N   0  0  0  0  0  0  0  0  0  0  0  0
    9.8435  -15.1755   20.6853 C   0  0  0  0  0  0  0  0  0  0  0  0
    8.9546  -15.6214   21.4705 O   0  0  0  0  0  0  0  0  0  0  0  0
   11.0343  -15.9072   20.5461 N   0  0  0  0  0  0  0  0  0  0  0  0
   11.3120  -17.0930   21.3678 C   0  0  1  0  0  0  0  0  0  0  0  0
   12.7120  -17.5446   21.0112 C   0  0  0  0  0  0  0  0  0  0  0  0
   13.0188  -18.8054   21.7274 C   0  0  0  0  0  0  0  0  0  0  0  0
   12.2179  -19.3904   22.4950 O   0  0  0  0  0  0  0  0  0  0  0  0
   11.2855  -16.6791   22.7933 C   0  0  0  0  0  0  0  0  0  0  0  0
   12.0375  -15.7292   23.2029 O   0  0  0  0  0  0  0  0  0  0  0  0
   14.2777  -19.4149   21.5614 O   0  0  0  0  0  0  0  0  0  0  0  0
    6.1295  -11.5693   25.5135 N   0  0  0  0  0  0  0  0  0  0  0  0
    6.3182  -12.4120   26.6576 C   0  0  0  0  0  0  0  0  0  0  0  0
    6.6255  -11.8777   27.7581 N   0  0  0  0  0  0  0  0  0  0  0  0
    6.1710  -13.8034   26.6194 N   0  0  0  0  0  0  0  0  0  0  0  0
    6.7643  -14.6976   25.7413 C   0  0  0  0  0  0  0  0  0  0  0  0
    8.0906  -15.2601   25.8267 C   0  0  0  0  0  0  0  0  0  0  0  0
    8.7162  -16.1741   24.8853 C   0  0  0  0  0  0  0  0  0  0  0  0
   10.1215  -16.6544   25.0395 C   0  0  2  0  0  0  0  0  0  0  0  0
   10.4354  -17.3214   23.7177 N   0  0  0  0  0  0  0  0  0  0  0  0
   10.4234  -17.6714   26.0363 C   0  0  0  0  0  0  0  0  0  0  0  0
   10.2317  -18.9264   25.8061 O   0  0  0  0  0  0  0  0  0  0  0  0
   10.9311  -17.4001   27.2786 O   0  0  0  0  0  0  0  0  0  0  0  0
  2  1  1  0
  3  2  1  0
  3  4  1  1
  5  3  1  0
  5  6  1  6
  7  5  1  0
  8  7  2  0
  9  7  1  0
 10  9  1  0
 11 12  1  0
 10 11  1  6
 12 13  2  0
 14 10  1  0
 14 15  2  0
 16 12  1  0
 18 17  1  0
 19 18  2  0
 20 18  1  0
 21 20  1  0
 22 21  1  0
 23 22  1  0
 24 23  1  6
 24 25  1  0
 25 14  1  0
 26 24  1  0
 27 26  2  0
 28 26  1  0
M  END
$$$$
