IDR.pdb
     RDKit          3D

 28 27  0  0  1  0  0  0  0  0999 V2000
    8.5874  -14.5517   18.2198 C   0  0  0  0  0  0  0  0  0  0  0  0
    8.4209  -16.0151   18.4716 C   0  0  0  0  0  0  0  0  0  0  0  0
    8.9167  -16.8102   17.2889 C   0  0  2  0  0  0  0  0  0  0  0  0
    8.2921  -16.4252   15.9891 C   0  0  0  0  0  0  0  0  0  0  0  0
    8.7403  -18.2939   17.5184 C   0  0  2  0  0  0  0  0  0  0  0  0
    7.3575  -18.6560   17.6088 N   0  0  0  0  0  0  0  0  0  0  0  0
    9.5515  -18.7347   18.6617 C   0  0  0  0  0  0  0  0  0  0  0  0
    8.9825  -18.9132   19.7795 O   0  0  0  0  0  0  0  0  0  0  0  0
   10.9338  -18.9688   18.5753 N   0  0  0  0  0  0  0  0  0  0  0  0
   11.7276  -19.3468   19.7523 C   0  0  1  0  0  0  0  0  0  0  0  0
   12.9588  -20.0560   19.2305 C   0  0  0  0  0  0  0  0  0  0  0  0
   13.7623  -20.5504   20.3736 C   0  0  0  0  0  0  0  0  0  0  0  0
   14.9114  -20.1353   20.6566 O   0  0  0  0  0  0  0  0  0  0  0  0
   12.1436  -18.1008   20.4438 C   0  0  0  0  0  0  0  0  0  0  0  0
   12.6921  -17.1508   19.7864 O   0  0  0  0  0  0  0  0  0  0  0  0
   13.2371  -21.5485   21.2173 O   0  0  0  0  0  0  0  0  0  0  0  0
    5.8303  -13.7741   20.7014 N   0  0  0  0  0  0  0  0  0  0  0  0
    6.9913  -13.2287   21.3409 C   0  0  0  0  0  0  0  0  0  0  0  0
    6.8585  -12.2025   22.0622 N   0  0  0  0  0  0  0  0  0  0  0  0
    8.2704  -13.7824   21.2126 N   0  0  0  0  0  0  0  0  0  0  0  0
    8.8232  -14.8246   21.9413 C   0  0  0  0  0  0  0  0  0  0  0  0
   10.1229  -15.4259   21.7626 C   0  0  0  0  0  0  0  0  0  0  0  0
   10.9705  -16.0016   22.7937 C   0  0  0  0  0  0  0  0  0  0  0  0
   12.2929  -16.6271   22.4950 C   0  0  2  0  0  0  0  0  0  0  0  0
   11.9429  -17.9414   21.8310 N   0  0  0  0  0  0  0  0  0  0  0  0
   13.1702  -17.0021   23.5945 C   0  0  0  0  0  0  0  0  0  0  0  0
   13.1386  -18.1814   24.1171 O   0  0  0  0  0  0  0  0  0  0  0  0
   14.0918  -16.1622   24.1602 O   0  0  0  0  0  0  0  0  0  0  0  0
  2  1  1  0
  3  2  1  0
  3  4  1  6
  5  3  1  0
  5  6  1  1
  7  5  1  0
  8  7  2  0
  9  7  1  0
 10  9  1  0
 11 12  1  0
 10 11  1  6
 12 13  2  0
 14 10  1  0
 14 15  2  0
 16 12  1  0
 18 17  1  0
 19 18  2  0
 20 18  1  0
 21 20  1  0
 22 21  1  0
 23 22  1  0
 24 23  1  1
 24 25  1  0
 25 14  1  0
 26 24  1  0
 27 26  2  0
 28 26  1  0
M  END
$$$$
