IDR.pdb
     RDKit          3D

 28 27  0  0  1  0  0  0  0  0999 V2000
    7.5486  -10.7940   25.9453 C   0  0  0  0  0  0  0  0  0  0  0  0
    6.6061  -11.9255   26.1977 C   0  0  0  0  0  0  0  0  0  0  0  0
    7.2471  -13.2369   25.8154 C   0  0  2  0  0  0  0  0  0  0  0  0
    7.7834  -13.2715   24.4230 C   0  0  0  0  0  0  0  0  0  0  0  0
    6.2914  -14.3899   26.0213 C   0  0  2  0  0  0  0  0  0  0  0  0
    5.6948  -14.3585   27.3230 N   0  0  0  0  0  0  0  0  0  0  0  0
    6.9475  -15.6632   25.6929 C   0  0  0  0  0  0  0  0  0  0  0  0
    7.7260  -16.1848   26.5457 O   0  0  0  0  0  0  0  0  0  0  0  0
    6.7529  -16.3333   24.4740 N   0  0  0  0  0  0  0  0  0  0  0  0
    7.4469  -17.5907   24.1651 C   0  0  1  0  0  0  0  0  0  0  0  0
    6.6615  -18.2533   23.0538 C   0  0  0  0  0  0  0  0  0  0  0  0
    7.2313  -19.5942   22.7814 C   0  0  0  0  0  0  0  0  0  0  0  0
    7.7627  -19.9244   21.6946 O   0  0  0  0  0  0  0  0  0  0  0  0
    8.8035  -17.2545   23.6648 C   0  0  0  0  0  0  0  0  0  0  0  0
    8.9592  -16.3290   22.7959 O   0  0  0  0  0  0  0  0  0  0  0  0
    7.1920  -20.5863   23.7805 O   0  0  0  0  0  0  0  0  0  0  0  0
   12.7432  -15.8103   17.7846 N   0  0  0  0  0  0  0  0  0  0  0  0
   12.2764  -14.8218   18.7118 C   0  0  0  0  0  0  0  0  0  0  0  0
   13.0144  -13.8297   18.9605 N   0  0  0  0  0  0  0  0  0  0  0  0
   11.0345  -14.8961   19.3533 N   0  0  0  0  0  0  0  0  0  0  0  0
   10.7852  -15.0476   20.7089 C   0  0  0  0  0  0  0  0  0  0  0  0
   11.3633  -16.0224   21.6025 C   0  0  0  0  0  0  0  0  0  0  0  0
   11.0808  -16.1876   23.0188 C   0  0  0  0  0  0  0  0  0  0  0  0
   11.3232  -17.4691   23.7457 C   0  0  2  0  0  0  0  0  0  0  0  0
    9.9402  -17.9448   24.1353 N   0  0  0  0  0  0  0  0  0  0  0  0
   12.0634  -17.4503   24.9991 C   0  0  0  0  0  0  0  0  0  0  0  0
   13.3021  -17.0931   25.0512 O   0  0  0  0  0  0  0  0  0  0  0  0
   11.5276  -17.7959   26.2108 O   0  0  0  0  0  0  0  0  0  0  0  0
  2  1  1  0
  3  2  1  0
  3  4  1  6
  5  3  1  0
  5  6  1  1
  7  5  1  0
  8  7  2  0
  9  7  1  0
 10  9  1  0
 11 12  1  0
 10 11  1  6
 12 13  2  0
 14 10  1  0
 14 15  2  0
 16 12  1  0
 18 17  1  0
 19 18  2  0
 20 18  1  0
 21 20  1  0
 22 21  1  0
 23 22  1  0
 24 23  1  1
 24 25  1  0
 25 14  1  0
 26 24  1  0
 27 26  2  0
 28 26  1  0
M  END
$$$$
