IDR.pdb
     RDKit          3D

 28 27  0  0  1  0  0  0  0  0999 V2000
    7.4611  -12.4095   21.6210 C   0  0  0  0  0  0  0  0  0  0  0  0
    7.7231  -13.6423   20.8185 C   0  0  0  0  0  0  0  0  0  0  0  0
    8.9255  -13.4430   19.9288 C   0  0  2  0  0  0  0  0  0  0  0  0
    8.8212  -12.2670   19.0156 C   0  0  0  0  0  0  0  0  0  0  0  0
    9.2187  -14.6882   19.1236 C   0  0  2  0  0  0  0  0  0  0  0  0
    8.1544  -14.9956   18.2157 N   0  0  0  0  0  0  0  0  0  0  0  0
    9.5871  -15.7981   20.0134 C   0  0  0  0  0  0  0  0  0  0  0  0
    8.8696  -16.0255   21.0326 O   0  0  0  0  0  0  0  0  0  0  0  0
   10.7013  -16.6231   19.7882 N   0  0  0  0  0  0  0  0  0  0  0  0
   11.0960  -17.6653   20.7454 C   0  0  1  0  0  0  0  0  0  0  0  0
   12.4314  -18.1990   20.2732 C   0  0  0  0  0  0  0  0  0  0  0  0
   12.8249  -19.3531   21.1158 C   0  0  0  0  0  0  0  0  0  0  0  0
   12.0164  -20.1905   21.5825 O   0  0  0  0  0  0  0  0  0  0  0  0
   11.2731  -17.0249   22.0730 C   0  0  0  0  0  0  0  0  0  0  0  0
   12.0306  -16.0023   22.1997 O   0  0  0  0  0  0  0  0  0  0  0  0
   14.1819  -19.5553   21.4344 O   0  0  0  0  0  0  0  0  0  0  0  0
    5.0352  -13.4283   26.2837 N   0  0  0  0  0  0  0  0  0  0  0  0
    6.1817  -12.6155   26.0021 C   0  0  0  0  0  0  0  0  0  0  0  0
    6.0887  -11.3664   26.1508 N   0  0  0  0  0  0  0  0  0  0  0  0
    7.4081  -13.1384   25.5757 N   0  0  0  0  0  0  0  0  0  0  0  0
    7.7877  -14.4703   25.5091 C   0  0  0  0  0  0  0  0  0  0  0  0
    9.0465  -15.0003   25.0427 C   0  0  0  0  0  0  0  0  0  0  0  0
    9.4174  -16.4009   24.9262 C   0  0  0  0  0  0  0  0  0  0  0  0
   10.7932  -16.8428   24.5504 C   0  0  2  0  0  0  0  0  0  0  0  0
   10.6131  -17.5287   23.2134 N   0  0  0  0  0  0  0  0  0  0  0  0
   11.4754  -17.8314   25.3728 C   0  0  0  0  0  0  0  0  0  0  0  0
   12.1541  -17.4947   26.4173 O   0  0  0  0  0  0  0  0  0  0  0  0
   11.4578  -19.1779   25.1253 O   0  0  0  0  0  0  0  0  0  0  0  0
  2  1  1  0
  3  2  1  0
  3  4  1  6
  5  3  1  0
  5  6  1  1
  7  5  1  0
  8  7  2  0
  9  7  1  0
 10  9  1  0
 11 12  1  0
 10 11  1  6
 12 13  2  0
 14 10  1  0
 14 15  2  0
 16 12  1  0
 18 17  1  0
 19 18  2  0
 20 18  1  0
 21 20  1  0
 22 21  1  0
 23 22  1  0
 24 23  1  1
 24 25  1  0
 25 14  1  0
 26 24  1  0
 27 26  2  0
 28 26  1  0
M  END
$$$$
