IDR.pdb
     RDKit          3D

 28 27  0  0  1  0  0  0  0  0999 V2000
    7.8916  -11.5608   19.8591 C   0  0  0  0  0  0  0  0  0  0  0  0
    8.0128  -12.9400   19.2971 C   0  0  0  0  0  0  0  0  0  0  0  0
    8.4828  -13.9004   20.3617 C   0  0  2  0  0  0  0  0  0  0  0  0
    9.7455  -13.4876   21.0421 C   0  0  0  0  0  0  0  0  0  0  0  0
    8.6384  -15.2968   19.8042 C   0  0  2  0  0  0  0  0  0  0  0  0
    7.4336  -15.7562   19.1804 N   0  0  0  0  0  0  0  0  0  0  0  0
    9.1635  -16.2036   20.8344 C   0  0  0  0  0  0  0  0  0  0  0  0
    8.3488  -16.7568   21.6316 O   0  0  0  0  0  0  0  0  0  0  0  0
   10.5313  -16.4882   20.9794 N   0  0  0  0  0  0  0  0  0  0  0  0
   11.0255  -17.3858   22.0322 C   0  0  1  0  0  0  0  0  0  0  0  0
   12.4553  -17.7262   21.6705 C   0  0  0  0  0  0  0  0  0  0  0  0
   12.4641  -18.6048   20.4769 C   0  0  0  0  0  0  0  0  0  0  0  0
   13.2339  -18.4535   19.4985 O   0  0  0  0  0  0  0  0  0  0  0  0
   11.0159  -16.6373   23.3142 C   0  0  0  0  0  0  0  0  0  0  0  0
   11.7236  -15.5807   23.4493 O   0  0  0  0  0  0  0  0  0  0  0  0
   11.5665  -19.6875   20.3995 O   0  0  0  0  0  0  0  0  0  0  0  0
    5.4413  -13.3982   26.9628 N   0  0  0  0  0  0  0  0  0  0  0  0
    6.2029  -12.6662   25.9940 C   0  0  0  0  0  0  0  0  0  0  0  0
    6.3640  -11.4266   26.1625 N   0  0  0  0  0  0  0  0  0  0  0  0
    6.7869  -13.2592   24.8686 N   0  0  0  0  0  0  0  0  0  0  0  0
    6.9791  -14.6101   24.6223 C   0  0  0  0  0  0  0  0  0  0  0  0
    8.2262  -15.3362   24.6450 C   0  0  0  0  0  0  0  0  0  0  0  0
    9.1476  -15.4587   25.7626 C   0  0  0  0  0  0  0  0  0  0  0  0
   10.3330  -16.3662   25.7353 C   0  0  2  0  0  0  0  0  0  0  0  0
   10.2306  -17.0743   24.4016 N   0  0  0  0  0  0  0  0  0  0  0  0
   10.4296  -17.4444   26.7085 C   0  0  0  0  0  0  0  0  0  0  0  0
   10.2085  -18.6737   26.3848 O   0  0  0  0  0  0  0  0  0  0  0  0
   10.7606  -17.2616   28.0244 O   0  0  0  0  0  0  0  0  0  0  0  0
  2  1  1  0
  3  2  1  0
  3  4  1  6
  5  3  1  0
  5  6  1  1
  7  5  1  0
  8  7  2  0
  9  7  1  0
 10  9  1  0
 11 12  1  0
 10 11  1  6
 12 13  2  0
 14 10  1  0
 14 15  2  0
 16 12  1  0
 18 17  1  0
 19 18  2  0
 20 18  1  0
 21 20  1  0
 22 21  1  0
 23 22  1  0
 24 23  1  1
 24 25  1  0
 25 14  1  0
 26 24  1  0
 27 26  2  0
 28 26  1  0
M  END
$$$$
