IDR.pdb
     RDKit          3D

 28 27  0  0  1  0  0  0  0  0999 V2000
    6.8605  -10.5736   25.6504 C   0  0  0  0  0  0  0  0  0  0  0  0
    7.4339  -11.6333   26.5340 C   0  0  0  0  0  0  0  0  0  0  0  0
    7.3241  -12.9844   25.8713 C   0  0  2  0  0  0  0  0  0  0  0  0
    5.9338  -13.3619   25.4809 C   0  0  0  0  0  0  0  0  0  0  0  0
    7.9199  -14.0672   26.7416 C   0  0  2  0  0  0  0  0  0  0  0  0
    8.9646  -13.5594   27.5796 N   0  0  0  0  0  0  0  0  0  0  0  0
    8.3156  -15.2218   25.9231 C   0  0  0  0  0  0  0  0  0  0  0  0
    7.4357  -15.7977   25.2166 O   0  0  0  0  0  0  0  0  0  0  0  0
    9.6282  -15.7205   25.8858 N   0  0  0  0  0  0  0  0  0  0  0  0
    9.9717  -16.9336   25.1317 C   0  0  1  0  0  0  0  0  0  0  0  0
   11.4022  -16.7607   24.6682 C   0  0  0  0  0  0  0  0  0  0  0  0
   11.4417  -16.7585   23.1866 C   0  0  0  0  0  0  0  0  0  0  0  0
   12.1163  -15.9523   22.5028 O   0  0  0  0  0  0  0  0  0  0  0  0
    9.9010  -18.0875   26.0629 C   0  0  0  0  0  0  0  0  0  0  0  0
    9.9049  -17.8967   27.3275 O   0  0  0  0  0  0  0  0  0  0  0  0
   10.6878  -17.7053   22.4661 O   0  0  0  0  0  0  0  0  0  0  0  0
   13.7275  -19.7681   31.6599 N   0  0  0  0  0  0  0  0  0  0  0  0
   13.1208  -21.0662   31.6238 C   0  0  0  0  0  0  0  0  0  0  0  0
   13.7550  -22.0438   32.1067 N   0  0  0  0  0  0  0  0  0  0  0  0
   11.8515  -21.3062   31.0848 N   0  0  0  0  0  0  0  0  0  0  0  0
   11.1311  -20.5022   30.2146 C   0  0  0  0  0  0  0  0  0  0  0  0
   10.5065  -20.8938   28.9738 C   0  0  0  0  0  0  0  0  0  0  0  0
   10.5115  -20.1575   27.7206 C   0  0  0  0  0  0  0  0  0  0  0  0
    9.6868  -20.5623   26.5436 C   0  0  2  0  0  0  0  0  0  0  0  0
    9.8282  -19.4087   25.5740 N   0  0  0  0  0  0  0  0  0  0  0  0
    8.2489  -20.7254   26.7012 C   0  0  0  0  0  0  0  0  0  0  0  0
    7.4231  -19.7716   26.4304 O   0  0  0  0  0  0  0  0  0  0  0  0
    7.6514  -21.8782   27.1356 O   0  0  0  0  0  0  0  0  0  0  0  0
  2  1  1  0
  3  2  1  0
  3  4  1  1
  5  3  1  0
  5  6  1  6
  7  5  1  0
  8  7  2  0
  9  7  1  0
 10  9  1  0
 11 12  1  0
 10 11  1  1
 12 13  2  0
 14 10  1  0
 14 15  2  0
 16 12  1  0
 18 17  1  0
 19 18  2  0
 20 18  1  0
 21 20  1  0
 22 21  1  0
 23 22  1  0
 24 23  1  1
 24 25  1  0
 25 14  1  0
 26 24  1  0
 27 26  2  0
 28 26  1  0
M  END
$$$$
