IDR.pdb
     RDKit          3D

 28 27  0  0  1  0  0  0  0  0999 V2000
    6.8241  -11.8479   18.9949 C   0  0  0  0  0  0  0  0  0  0  0  0
    8.0195  -12.6463   18.5871 C   0  0  0  0  0  0  0  0  0  0  0  0
    8.1930  -13.8343   19.5011 C   0  0  2  0  0  0  0  0  0  0  0  0
    8.2628  -13.4847   20.9505 C   0  0  0  0  0  0  0  0  0  0  0  0
    9.4086  -14.6452   19.1143 C   0  0  2  0  0  0  0  0  0  0  0  0
    9.4271  -14.9376   17.7123 N   0  0  0  0  0  0  0  0  0  0  0  0
    9.5287  -15.8299   19.9755 C   0  0  0  0  0  0  0  0  0  0  0  0
    8.7935  -15.9122   21.0041 O   0  0  0  0  0  0  0  0  0  0  0  0
   10.4233  -16.8804   19.7128 N   0  0  0  0  0  0  0  0  0  0  0  0
   10.6022  -17.9950   20.6529 C   0  0  1  0  0  0  0  0  0  0  0  0
   11.4005  -19.0516   19.9198 C   0  0  0  0  0  0  0  0  0  0  0  0
   10.5657  -19.6414   18.8465 C   0  0  0  0  0  0  0  0  0  0  0  0
    9.3562  -19.9435   18.9829 O   0  0  0  0  0  0  0  0  0  0  0  0
   11.3976  -17.5000   21.8045 C   0  0  0  0  0  0  0  0  0  0  0  0
   12.4170  -16.7525   21.6103 O   0  0  0  0  0  0  0  0  0  0  0  0
   11.1301  -19.8934   17.5809 O   0  0  0  0  0  0  0  0  0  0  0  0
   10.9300  -17.7470   31.3023 N   0  0  0  0  0  0  0  0  0  0  0  0
   11.4264  -17.0863   30.1312 C   0  0  0  0  0  0  0  0  0  0  0  0
   11.2121  -15.8505   29.9974 N   0  0  0  0  0  0  0  0  0  0  0  0
   12.1471  -17.7423   29.1265 N   0  0  0  0  0  0  0  0  0  0  0  0
   11.7420  -18.0143   27.8286 C   0  0  0  0  0  0  0  0  0  0  0  0
   11.3828  -17.0623   26.8051 C   0  0  0  0  0  0  0  0  0  0  0  0
   10.9504  -17.3564   25.4489 C   0  0  0  0  0  0  0  0  0  0  0  0
   11.8820  -17.3339   24.2822 C   0  0  2  0  0  0  0  0  0  0  0  0
   11.0464  -17.8422   23.1272 N   0  0  0  0  0  0  0  0  0  0  0  0
   13.0532  -18.1985   24.2867 C   0  0  0  0  0  0  0  0  0  0  0  0
   12.9763  -19.4483   23.9754 O   0  0  0  0  0  0  0  0  0  0  0  0
   14.3156  -17.7771   24.6085 O   0  0  0  0  0  0  0  0  0  0  0  0
  2  1  1  0
  3  2  1  0
  3  4  1  1
  5  3  1  0
  5  6  1  6
  7  5  1  0
  8  7  2  0
  9  7  1  0
 10  9  1  0
 11 12  1  0
 10 11  1  6
 12 13  2  0
 14 10  1  0
 14 15  2  0
 16 12  1  0
 18 17  1  0
 19 18  2  0
 20 18  1  0
 21 20  1  0
 22 21  1  0
 23 22  1  0
 24 23  1  1
 24 25  1  0
 25 14  1  0
 26 24  1  0
 27 26  2  0
 28 26  1  0
M  END
$$$$
