IDR.pdb
     RDKit          3D

 28 27  0  0  1  0  0  0  0  0999 V2000
    7.1573  -11.7299   19.5765 C   0  0  0  0  0  0  0  0  0  0  0  0
    7.7143  -12.7308   18.6172 C   0  0  0  0  0  0  0  0  0  0  0  0
    8.8275  -13.5159   19.2662 C   0  0  2  0  0  0  0  0  0  0  0  0
    9.9088  -12.6710   19.8533 C   0  0  0  0  0  0  0  0  0  0  0  0
    9.4275  -14.5103   18.2987 C   0  0  2  0  0  0  0  0  0  0  0  0
    8.4200  -15.3022   17.6589 N   0  0  0  0  0  0  0  0  0  0  0  0
   10.4785  -15.2968   18.9594 C   0  0  0  0  0  0  0  0  0  0  0  0
   10.1597  -16.3838   19.5271 O   0  0  0  0  0  0  0  0  0  0  0  0
   11.8255  -14.9003   18.9927 N   0  0  0  0  0  0  0  0  0  0  0  0
   12.8568  -15.7240   19.6379 C   0  0  1  0  0  0  0  0  0  0  0  0
   14.1911  -15.2016   19.1505 C   0  0  0  0  0  0  0  0  0  0  0  0
   14.3941  -15.6120   17.7408 C   0  0  0  0  0  0  0  0  0  0  0  0
   13.8556  -16.6160   17.2167 O   0  0  0  0  0  0  0  0  0  0  0  0
   12.7608  -15.5128   21.1042 C   0  0  0  0  0  0  0  0  0  0  0  0
   13.6667  -14.8538   21.7213 O   0  0  0  0  0  0  0  0  0  0  0  0
   15.2375  -14.8527   16.9065 O   0  0  0  0  0  0  0  0  0  0  0  0
    6.5528  -20.4045   24.6905 N   0  0  0  0  0  0  0  0  0  0  0  0
    6.7068  -18.9919   24.8779 C   0  0  0  0  0  0  0  0  0  0  0  0
    6.5210  -18.5108   26.0291 N   0  0  0  0  0  0  0  0  0  0  0  0
    7.0619  -18.1143   23.8469 N   0  0  0  0  0  0  0  0  0  0  0  0
    7.8812  -16.9984   23.9241 C   0  0  0  0  0  0  0  0  0  0  0  0
    9.2616  -16.8950   23.5159 C   0  0  0  0  0  0  0  0  0  0  0  0
   10.1145  -15.7211   23.6024 C   0  0  0  0  0  0  0  0  0  0  0  0
   11.5815  -15.7676   23.3281 C   0  0  2  0  0  0  0  0  0  0  0  0
   11.6752  -16.0313   21.8407 N   0  0  0  0  0  0  0  0  0  0  0  0
   12.3879  -16.8188   23.9312 C   0  0  0  0  0  0  0  0  0  0  0  0
   12.6558  -16.8301   25.1933 O   0  0  0  0  0  0  0  0  0  0  0  0
   12.9204  -17.8709   23.2353 O   0  0  0  0  0  0  0  0  0  0  0  0
  2  1  1  0
  3  2  1  0
  3  4  1  6
  5  3  1  0
  5  6  1  1
  7  5  1  0
  8  7  2  0
  9  7  1  0
 10  9  1  0
 11 12  1  0
 10 11  1  6
 12 13  2  0
 14 10  1  0
 14 15  2  0
 16 12  1  0
 18 17  1  0
 19 18  2  0
 20 18  1  0
 21 20  1  0
 22 21  1  0
 23 22  1  0
 24 23  1  1
 24 25  1  0
 25 14  1  0
 26 24  1  0
 27 26  2  0
 28 26  1  0
M  END
$$$$
