IDR.pdb
     RDKit          3D

 28 27  0  0  1  0  0  0  0  0999 V2000
    7.8200  -12.0978   20.4110 C   0  0  0  0  0  0  0  0  0  0  0  0
    7.2524  -13.3759   19.8849 C   0  0  0  0  0  0  0  0  0  0  0  0
    8.2924  -14.4683   19.9278 C   0  0  2  0  0  0  0  0  0  0  0  0
    9.5688  -14.1239   19.2351 C   0  0  0  0  0  0  0  0  0  0  0  0
    7.7448  -15.7628   19.3716 C   0  0  2  0  0  0  0  0  0  0  0  0
    6.4477  -16.0610   19.9007 N   0  0  0  0  0  0  0  0  0  0  0  0
    8.7238  -16.8460   19.5380 C   0  0  0  0  0  0  0  0  0  0  0  0
    8.5987  -17.6341   20.5222 O   0  0  0  0  0  0  0  0  0  0  0  0
    9.7968  -17.0512   18.6552 N   0  0  0  0  0  0  0  0  0  0  0  0
   10.7384  -18.1652   18.8306 C   0  0  1  0  0  0  0  0  0  0  0  0
   11.3748  -18.4068   17.4787 C   0  0  0  0  0  0  0  0  0  0  0  0
   12.3395  -19.5271   17.5831 C   0  0  0  0  0  0  0  0  0  0  0  0
   13.5815  -19.3982   17.4669 O   0  0  0  0  0  0  0  0  0  0  0  0
   11.7867  -17.7326   19.7885 C   0  0  0  0  0  0  0  0  0  0  0  0
   12.7612  -18.5106   20.0727 O   0  0  0  0  0  0  0  0  0  0  0  0
   11.8706  -20.8327   17.8270 O   0  0  0  0  0  0  0  0  0  0  0  0
   16.6604  -15.1612   16.7755 N   0  0  0  0  0  0  0  0  0  0  0  0
   16.8842  -13.9327   17.4793 C   0  0  0  0  0  0  0  0  0  0  0  0
   17.9489  -13.2939   17.2573 N   0  0  0  0  0  0  0  0  0  0  0  0
   15.9749  -13.3979   18.3993 N   0  0  0  0  0  0  0  0  0  0  0  0
   14.7556  -13.9262   18.7954 C   0  0  0  0  0  0  0  0  0  0  0  0
   14.5092  -14.8398   19.8851 C   0  0  0  0  0  0  0  0  0  0  0  0
   13.3889  -14.8162   20.8110 C   0  0  0  0  0  0  0  0  0  0  0  0
   12.7967  -16.0572   21.3929 C   0  0  2  0  0  0  0  0  0  0  0  0
   11.7289  -16.4627   20.4000 N   0  0  0  0  0  0  0  0  0  0  0  0
   12.0949  -15.9845   22.6662 C   0  0  0  0  0  0  0  0  0  0  0  0
   10.8064  -15.9635   22.7316 O   0  0  0  0  0  0  0  0  0  0  0  0
   12.7193  -15.9379   23.8839 O   0  0  0  0  0  0  0  0  0  0  0  0
  2  1  1  0
  3  2  1  0
  3  4  1  6
  5  3  1  0
  5  6  1  1
  7  5  1  0
  8  7  2  0
  9  7  1  0
 10  9  1  0
 11 12  1  0
 10 11  1  6
 12 13  2  0
 14 10  1  0
 14 15  2  0
 16 12  1  0
 18 17  1  0
 19 18  2  0
 20 18  1  0
 21 20  1  0
 22 21  1  0
 23 22  1  0
 24 23  1  6
 24 25  1  0
 25 14  1  0
 26 24  1  0
 27 26  2  0
 28 26  1  0
M  END
$$$$
