FNV.pdb
     RDKit          3D

 27 27  0  0  1  0  0  0  0  0999 V2000
   18.8678  -11.4407  -16.9608 N   0  0  0  0  0  0  0  0  0  0  0  0
   19.5537  -10.3262  -17.5882 C   0  0  1  0  0  0  0  0  0  0  0  0
   18.7273   -9.9854  -18.8354 C   0  0  0  0  0  0  0  0  0  0  0  0
   18.9664  -10.9951  -19.8781 C   0  0  0  0  0  0  0  0  0  0  0  0
   18.0842  -12.0116  -20.1621 C   0  0  0  0  0  0  0  0  0  0  0  0
   18.3396  -12.9426  -21.1483 C   0  0  0  0  0  0  0  0  0  0  0  0
   19.5038  -12.8538  -21.8658 C   0  0  0  0  0  0  0  0  0  0  0  0
   20.3945  -11.8519  -21.6005 C   0  0  0  0  0  0  0  0  0  0  0  0
   20.1296  -10.9265  -20.6127 C   0  0  0  0  0  0  0  0  0  0  0  0
   19.5197   -9.1455  -16.6910 C   0  0  0  0  0  0  0  0  0  0  0  0
   18.4394   -8.8294  -16.1327 O   0  0  0  0  0  0  0  0  0  0  0  0
   22.7185   -4.7824  -14.0366 N   0  0  0  0  0  0  0  0  0  0  0  0
   21.9474   -5.9422  -13.8499 C   0  0  0  0  0  0  0  0  0  0  0  0
   21.2566   -5.9785  -12.7756 O   0  0  0  0  0  0  0  0  0  0  0  0
   21.8389   -7.1082  -14.7315 C   0  0  0  0  0  0  0  0  0  0  0  0
   20.5900   -7.1667  -15.5640 C   0  0  2  0  0  0  0  0  0  0  0  0
   20.6437   -8.3316  -16.4137 N   0  0  0  0  0  0  0  0  0  0  0  0
   20.4607   -5.8965  -16.3174 C   0  0  0  0  0  0  0  0  0  0  0  0
   21.2703   -5.6120  -17.2377 O   0  0  0  0  0  0  0  0  0  0  0  0
   17.5048   -2.3723  -17.8327 C   0  0  0  0  0  0  0  0  0  0  0  0
   17.8683   -3.6817  -17.2017 C   0  0  2  0  0  0  0  0  0  0  0  0
   16.9373   -4.0289  -16.0609 C   0  0  0  0  0  0  0  0  0  0  0  0
   19.2836   -3.6836  -16.6414 C   0  0  2  0  0  0  0  0  0  0  0  0
   19.4284   -4.9991  -16.0065 N   0  0  0  0  0  0  0  0  0  0  0  0
   19.3241   -2.5961  -15.6305 C   0  0  0  0  0  0  0  0  0  0  0  0
   19.5623   -1.4220  -16.0483 O   0  0  0  0  0  0  0  0  0  0  0  0
   19.1226   -2.7835  -14.2946 O   0  0  0  0  0  0  0  0  0  0  0  0
  2  1  1  1
  3  4  1  0
  3  2  1  0
  4  9  2  0
  5  6  2  0
  5  4  1  0
  6  7  1  0
  7  8  2  0
  9  8  1  0
 10 11  2  0
 10  2  1  0
 12 13  1  0
 13 15  1  0
 13 14  2  0
 16 15  1  6
 16 18  1  0
 16 17  1  0
 17 10  1  0
 18 19  2  0
 21 20  1  1
 22 21  1  0
 23 21  1  0
 23 24  1  1
 24 18  1  0
 25 27  1  0
 25 23  1  0
 26 25  2  0
M  END
$$$$
