FNV.pdb
     RDKit          3D

 27 27  0  0  1  0  0  0  0  0999 V2000
   25.6615  -11.0331  -18.6089 N   0  0  0  0  0  0  0  0  0  0  0  0
   25.1573  -10.6117  -17.3148 C   0  0  1  0  0  0  0  0  0  0  0  0
   26.3444   -9.9413  -16.6104 C   0  0  0  0  0  0  0  0  0  0  0  0
   27.4039  -10.9340  -16.3738 C   0  0  0  0  0  0  0  0  0  0  0  0
   27.2514  -12.0179  -15.5407 C   0  0  0  0  0  0  0  0  0  0  0  0
   28.2668  -12.9312  -15.3416 C   0  0  0  0  0  0  0  0  0  0  0  0
   29.4607  -12.7554  -15.9909 C   0  0  0  0  0  0  0  0  0  0  0  0
   29.6340  -11.6855  -16.8233 C   0  0  0  0  0  0  0  0  0  0  0  0
   28.6128  -10.7785  -17.0154 C   0  0  0  0  0  0  0  0  0  0  0  0
   24.1040   -9.5832  -17.4961 C   0  0  0  0  0  0  0  0  0  0  0  0
   23.9919   -9.0085  -18.6078 O   0  0  0  0  0  0  0  0  0  0  0  0
   19.6098   -6.7202  -17.1541 N   0  0  0  0  0  0  0  0  0  0  0  0
   19.6567   -8.1187  -17.0245 C   0  0  0  0  0  0  0  0  0  0  0  0
   18.5371   -8.7220  -17.1477 O   0  0  0  0  0  0  0  0  0  0  0  0
   20.8255   -8.9648  -16.7671 C   0  0  0  0  0  0  0  0  0  0  0  0
   22.1373   -8.2371  -16.6892 C   0  0  2  0  0  0  0  0  0  0  0  0
   23.1964   -9.1950  -16.4822 N   0  0  0  0  0  0  0  0  0  0  0  0
   22.0519   -7.2162  -15.6176 C   0  0  0  0  0  0  0  0  0  0  0  0
   22.0177   -7.5588  -14.4073 O   0  0  0  0  0  0  0  0  0  0  0  0
   21.7460   -3.1948  -16.8733 C   0  0  0  0  0  0  0  0  0  0  0  0
   22.6216   -3.5803  -15.7201 C   0  0  2  0  0  0  0  0  0  0  0  0
   24.0187   -3.9396  -16.1759 C   0  0  0  0  0  0  0  0  0  0  0  0
   22.0785   -4.7779  -14.9534 C   0  0  2  0  0  0  0  0  0  0  0  0
   22.0085   -5.8540  -15.9492 N   0  0  0  0  0  0  0  0  0  0  0  0
   20.7210   -4.3873  -14.4940 C   0  0  0  0  0  0  0  0  0  0  0  0
   19.7318   -4.8752  -15.1213 O   0  0  0  0  0  0  0  0  0  0  0  0
   20.4782   -3.5446  -13.4494 O   0  0  0  0  0  0  0  0  0  0  0  0
  2  1  1  6
  3  4  1  0
  3  2  1  0
  4  9  2  0
  5  6  2  0
  5  4  1  0
  6  7  1  0
  7  8  2  0
  9  8  1  0
 10 11  2  0
 10  2  1  0
 12 13  1  0
 13 15  1  0
 13 14  2  0
 16 15  1  1
 16 18  1  0
 16 17  1  0
 17 10  1  0
 18 19  2  0
 21 20  1  6
 22 21  1  0
 23 21  1  0
 23 24  1  6
 24 18  1  0
 25 27  1  0
 25 23  1  0
 26 25  2  0
M  END
$$$$
