FNV.pdb
     RDKit          3D

 27 27  0  0  1  0  0  0  0  0999 V2000
   24.9138  -18.3603  -17.3655 N   0  0  0  0  0  0  0  0  0  0  0  0
   25.1528  -19.0919  -16.1351 C   0  0  1  0  0  0  0  0  0  0  0  0
   25.8296  -18.0920  -15.1881 C   0  0  0  0  0  0  0  0  0  0  0  0
   27.1037  -17.6437  -15.7707 C   0  0  0  0  0  0  0  0  0  0  0  0
   27.3311  -16.3527  -16.1876 C   0  0  0  0  0  0  0  0  0  0  0  0
   28.5397  -15.9653  -16.7299 C   0  0  0  0  0  0  0  0  0  0  0  0
   29.5423  -16.8908  -16.8574 C   0  0  0  0  0  0  0  0  0  0  0  0
   29.3381  -18.1791  -16.4497 C   0  0  0  0  0  0  0  0  0  0  0  0
   28.1265  -18.5558  -15.9091 C   0  0  0  0  0  0  0  0  0  0  0  0
   23.8594  -19.4840  -15.5238 C   0  0  0  0  0  0  0  0  0  0  0  0
   23.2120  -18.6362  -14.8599 O   0  0  0  0  0  0  0  0  0  0  0  0
   25.8842  -24.4503  -16.1289 N   0  0  0  0  0  0  0  0  0  0  0  0
   26.1934  -23.1280  -15.7676 C   0  0  0  0  0  0  0  0  0  0  0  0
   27.3338  -22.9588  -15.2167 O   0  0  0  0  0  0  0  0  0  0  0  0
   25.3730  -21.9263  -15.9445 C   0  0  0  0  0  0  0  0  0  0  0  0
   24.0061  -21.9880  -15.3247 C   0  0  2  0  0  0  0  0  0  0  0  0
   23.2908  -20.7748  -15.6383 N   0  0  0  0  0  0  0  0  0  0  0  0
   24.1544  -22.2218  -13.8683 C   0  0  0  0  0  0  0  0  0  0  0  0
   24.2881  -23.3887  -13.4169 O   0  0  0  0  0  0  0  0  0  0  0  0
   26.6053  -20.5038  -11.6866 C   0  0  0  0  0  0  0  0  0  0  0  0
   25.2558  -20.2539  -11.0855 C   0  0  2  0  0  0  0  0  0  0  0  0
   25.3040  -20.2840   -9.5738 C   0  0  0  0  0  0  0  0  0  0  0  0
   24.2254  -21.2860  -11.5217 C   0  0  2  0  0  0  0  0  0  0  0  0
   24.1464  -21.1365  -12.9797 N   0  0  0  0  0  0  0  0  0  0  0  0
   22.9491  -20.8875  -10.8748 C   0  0  0  0  0  0  0  0  0  0  0  0
   22.8699  -21.0177   -9.6151 O   0  0  0  0  0  0  0  0  0  0  0  0
   21.8696  -20.3955  -11.5477 O   0  0  0  0  0  0  0  0  0  0  0  0
  2  1  1  6
  3  4  1  0
  3  2  1  0
  4  9  2  0
  5  6  2  0
  5  4  1  0
  6  7  1  0
  7  8  2  0
  9  8  1  0
 10 11  2  0
 10  2  1  0
 12 13  1  0
 13 15  1  0
 13 14  2  0
 16 15  1  6
 16 18  1  0
 16 17  1  0
 17 10  1  0
 18 19  2  0
 21 20  1  6
 22 21  1  0
 23 21  1  0
 23 24  1  6
 24 18  1  0
 25 27  1  0
 25 23  1  0
 26 25  2  0
M  END
$$$$
