FNV.pdb
     RDKit          3D

 27 27  0  0  1  0  0  0  0  0999 V2000
   28.5870  -23.0679  -14.0828 N   0  0  0  0  0  0  0  0  0  0  0  0
   28.3653  -22.1379  -12.9909 C   0  0  1  0  0  0  0  0  0  0  0  0
   29.3277  -20.9700  -13.2449 C   0  0  0  0  0  0  0  0  0  0  0  0
   30.6243  -21.2506  -12.6094 C   0  0  0  0  0  0  0  0  0  0  0  0
   30.9336  -20.8713  -11.3238 C   0  0  0  0  0  0  0  0  0  0  0  0
   32.1607  -21.1514  -10.7577 C   0  0  0  0  0  0  0  0  0  0  0  0
   33.0985  -21.8259  -11.4949 C   0  0  0  0  0  0  0  0  0  0  0  0
   32.8125  -22.2123  -12.7742 C   0  0  0  0  0  0  0  0  0  0  0  0
   31.5831  -21.9274  -13.3305 C   0  0  0  0  0  0  0  0  0  0  0  0
   26.9833  -21.6034  -13.0584 C   0  0  0  0  0  0  0  0  0  0  0  0
   26.3208  -21.7459  -14.1165 O   0  0  0  0  0  0  0  0  0  0  0  0
   25.9836  -20.4803   -8.3523 N   0  0  0  0  0  0  0  0  0  0  0  0
   25.1485  -20.9802   -9.3659 C   0  0  0  0  0  0  0  0  0  0  0  0
   24.8500  -22.2192   -9.2738 O   0  0  0  0  0  0  0  0  0  0  0  0
   24.5812  -20.2587  -10.5087 C   0  0  0  0  0  0  0  0  0  0  0  0
   24.9109  -20.8344  -11.8563 C   0  0  2  0  0  0  0  0  0  0  0  0
   26.3444  -20.9289  -11.9910 N   0  0  0  0  0  0  0  0  0  0  0  0
   24.2777  -19.9939  -12.9005 C   0  0  0  0  0  0  0  0  0  0  0  0
   24.6795  -18.8198  -13.1089 O   0  0  0  0  0  0  0  0  0  0  0  0
   22.0873  -21.8918  -15.8069 C   0  0  0  0  0  0  0  0  0  0  0  0
   22.5659  -20.4782  -15.9402 C   0  0  2  0  0  0  0  0  0  0  0  0
   24.0123  -20.4178  -16.3793 C   0  0  0  0  0  0  0  0  0  0  0  0
   22.4614  -19.7039  -14.6339 C   0  0  2  0  0  0  0  0  0  0  0  0
   23.2203  -20.5060  -13.6667 N   0  0  0  0  0  0  0  0  0  0  0  0
   21.0170  -19.6782  -14.2886 C   0  0  0  0  0  0  0  0  0  0  0  0
   20.6120  -20.5081  -13.4184 O   0  0  0  0  0  0  0  0  0  0  0  0
   20.1107  -18.8247  -14.8458 O   0  0  0  0  0  0  0  0  0  0  0  0
  2  1  1  6
  3  4  1  0
  3  2  1  0
  4  9  2  0
  5  6  2  0
  5  4  1  0
  6  7  1  0
  7  8  2  0
  9  8  1  0
 10 11  2  0
 10  2  1  0
 12 13  1  0
 13 15  1  0
 13 14  2  0
 16 15  1  1
 16 18  1  0
 16 17  1  0
 17 10  1  0
 18 19  2  0
 21 20  1  1
 22 21  1  0
 23 21  1  0
 23 24  1  1
 24 18  1  0
 25 27  1  0
 25 23  1  0
 26 25  2  0
M  END
$$$$
