FNV.pdb
     RDKit          3D

 27 27  0  0  1  0  0  0  0  0999 V2000
   28.8433  -21.7253   -9.1158 N   0  0  0  0  0  0  0  0  0  0  0  0
   27.4883  -21.2321   -8.9508 C   0  0  1  0  0  0  0  0  0  0  0  0
   27.6342  -19.8117   -8.3889 C   0  0  0  0  0  0  0  0  0  0  0  0
   27.9015  -19.8766   -6.9438 C   0  0  0  0  0  0  0  0  0  0  0  0
   29.1254  -20.2175   -6.4164 C   0  0  0  0  0  0  0  0  0  0  0  0
   29.3422  -20.2681   -5.0543 C   0  0  0  0  0  0  0  0  0  0  0  0
   28.3111  -19.9709   -4.2020 C   0  0  0  0  0  0  0  0  0  0  0  0
   27.0868  -19.6297   -4.7043 C   0  0  0  0  0  0  0  0  0  0  0  0
   26.8807  -19.5821   -6.0672 C   0  0  0  0  0  0  0  0  0  0  0  0
   26.8274  -21.1254  -10.2744 C   0  0  0  0  0  0  0  0  0  0  0  0
   27.5292  -20.9219  -11.2966 O   0  0  0  0  0  0  0  0  0  0  0  0
   21.7148  -20.6790  -13.1026 N   0  0  0  0  0  0  0  0  0  0  0  0
   22.3366  -20.9818  -11.8793 C   0  0  0  0  0  0  0  0  0  0  0  0
   21.8757  -20.3661  -10.8589 O   0  0  0  0  0  0  0  0  0  0  0  0
   23.4420  -21.9119  -11.6321 C   0  0  0  0  0  0  0  0  0  0  0  0
   24.8168  -21.3238  -11.7743 C   0  0  2  0  0  0  0  0  0  0  0  0
   25.4306  -21.2389  -10.4712 N   0  0  0  0  0  0  0  0  0  0  0  0
   24.7049  -20.0125  -12.4566 C   0  0  0  0  0  0  0  0  0  0  0  0
   24.2058  -19.0217  -11.8629 O   0  0  0  0  0  0  0  0  0  0  0  0
   26.7469  -19.6242  -16.1219 C   0  0  0  0  0  0  0  0  0  0  0  0
   26.4890  -18.4960  -15.1702 C   0  0  2  0  0  0  0  0  0  0  0  0
   27.5189  -18.4536  -14.0629 C   0  0  0  0  0  0  0  0  0  0  0  0
   25.1223  -18.5958  -14.5076 C   0  0  2  0  0  0  0  0  0  0  0  0
   25.1579  -19.8681  -13.7763 N   0  0  0  0  0  0  0  0  0  0  0  0
   24.1340  -18.6448  -15.6152 C   0  0  0  0  0  0  0  0  0  0  0  0
   23.8330  -19.7880  -16.0762 O   0  0  0  0  0  0  0  0  0  0  0  0
   23.5376  -17.5456  -16.1597 O   0  0  0  0  0  0  0  0  0  0  0  0
  2  1  1  6
  3  4  1  0
  3  2  1  0
  4  9  2  0
  5  6  2  0
  5  4  1  0
  6  7  1  0
  7  8  2  0
  9  8  1  0
 10 11  2  0
 10  2  1  0
 12 13  1  0
 13 15  1  0
 13 14  2  0
 16 15  1  1
 16 18  1  0
 16 17  1  0
 17 10  1  0
 18 19  2  0
 21 20  1  6
 22 21  1  0
 23 21  1  0
 23 24  1  6
 24 18  1  0
 25 27  1  0
 25 23  1  0
 26 25  2  0
M  END
$$$$
