FNV.pdb
     RDKit          3D

 27 27  0  0  1  0  0  0  0  0999 V2000
   28.2635  -20.5360   -9.1162 N   0  0  0  0  0  0  0  0  0  0  0  0
   26.8393  -20.3885   -8.8786 C   0  0  1  0  0  0  0  0  0  0  0  0
   26.6933  -19.1112   -8.0408 C   0  0  0  0  0  0  0  0  0  0  0  0
   27.3320  -19.3040   -6.7298 C   0  0  0  0  0  0  0  0  0  0  0  0
   28.5108  -18.6950   -6.3666 C   0  0  0  0  0  0  0  0  0  0  0  0
   29.0828  -18.8976   -5.1270 C   0  0  0  0  0  0  0  0  0  0  0  0
   28.4609  -19.7280   -4.2317 C   0  0  0  0  0  0  0  0  0  0  0  0
   27.2889  -20.3434   -4.5715 C   0  0  0  0  0  0  0  0  0  0  0  0
   26.7256  -20.1341   -5.8129 C   0  0  0  0  0  0  0  0  0  0  0  0
   26.1355  -20.1643  -10.1648 C   0  0  0  0  0  0  0  0  0  0  0  0
   26.2885  -19.0718  -10.7663 O   0  0  0  0  0  0  0  0  0  0  0  0
   27.7120  -22.1007  -13.4388 N   0  0  0  0  0  0  0  0  0  0  0  0
   26.4977  -21.4069  -13.5764 C   0  0  0  0  0  0  0  0  0  0  0  0
   26.5618  -20.3049  -14.2200 O   0  0  0  0  0  0  0  0  0  0  0  0
   25.1748  -21.7903  -13.0753 C   0  0  0  0  0  0  0  0  0  0  0  0
   24.6008  -20.8828  -12.0249 C   0  0  2  0  0  0  0  0  0  0  0  0
   25.2845  -21.1157  -10.7757 N   0  0  0  0  0  0  0  0  0  0  0  0
   23.1385  -21.1128  -11.9452 C   0  0  0  0  0  0  0  0  0  0  0  0
   22.6799  -22.1206  -11.3475 O   0  0  0  0  0  0  0  0  0  0  0  0
   20.7639  -18.4577  -14.1462 C   0  0  0  0  0  0  0  0  0  0  0  0
   20.2549  -18.9685  -12.8328 C   0  0  2  0  0  0  0  0  0  0  0  0
   20.6412  -18.0544  -11.6909 C   0  0  0  0  0  0  0  0  0  0  0  0
   20.7928  -20.3530  -12.5001 C   0  0  2  0  0  0  0  0  0  0  0  0
   22.2523  -20.2021  -12.5393 N   0  0  0  0  0  0  0  0  0  0  0  0
   20.3197  -21.2472  -13.5877 C   0  0  0  0  0  0  0  0  0  0  0  0
   21.1312  -21.4958  -14.5308 O   0  0  0  0  0  0  0  0  0  0  0  0
   19.0782  -21.8104  -13.6315 O   0  0  0  0  0  0  0  0  0  0  0  0
  2  1  1  6
  3  4  1  0
  3  2  1  0
  4  9  2  0
  5  6  2  0
  5  4  1  0
  6  7  1  0
  7  8  2  0
  9  8  1  0
 10 11  2  0
 10  2  1  0
 12 13  1  0
 13 15  1  0
 13 14  2  0
 16 15  1  6
 16 18  1  0
 16 17  1  0
 17 10  1  0
 18 19  2  0
 21 20  1  6
 22 21  1  0
 23 21  1  0
 23 24  1  6
 24 18  1  0
 25 27  1  0
 25 23  1  0
 26 25  2  0
M  END
$$$$
