FNV.pdb
     RDKit          3D

 27 27  0  0  1  0  0  0  0  0999 V2000
   28.3361  -21.3197  -10.1473 N   0  0  0  0  0  0  0  0  0  0  0  0
   26.9698  -21.0114   -9.7670 C   0  0  1  0  0  0  0  0  0  0  0  0
   27.0353  -19.6436   -9.0745 C   0  0  0  0  0  0  0  0  0  0  0  0
   27.5595  -19.8051   -7.7095 C   0  0  0  0  0  0  0  0  0  0  0  0
   26.7815  -19.6816   -6.5818 C   0  0  0  0  0  0  0  0  0  0  0  0
   27.3058  -19.8402   -5.3151 C   0  0  0  0  0  0  0  0  0  0  0  0
   28.6381  -20.1285   -5.1745 C   0  0  0  0  0  0  0  0  0  0  0  0
   29.4296  -20.2557   -6.2813 C   0  0  0  0  0  0  0  0  0  0  0  0
   28.8956  -20.0953   -7.5428 C   0  0  0  0  0  0  0  0  0  0  0  0
   26.1319  -20.8597  -10.9815 C   0  0  0  0  0  0  0  0  0  0  0  0
   26.5623  -20.1745  -11.9428 O   0  0  0  0  0  0  0  0  0  0  0  0
   25.6907  -24.3923  -13.4232 N   0  0  0  0  0  0  0  0  0  0  0  0
   25.0955  -23.1347  -13.6207 C   0  0  0  0  0  0  0  0  0  0  0  0
   25.6941  -22.3645  -14.4460 O   0  0  0  0  0  0  0  0  0  0  0  0
   23.8795  -22.6018  -12.9998 C   0  0  0  0  0  0  0  0  0  0  0  0
   24.0394  -21.2738  -12.3162 C   0  0  2  0  0  0  0  0  0  0  0  0
   24.8531  -21.4453  -11.1370 N   0  0  0  0  0  0  0  0  0  0  0  0
   22.6940  -20.7233  -12.0257 C   0  0  0  0  0  0  0  0  0  0  0  0
   22.1110  -20.9934  -10.9439 O   0  0  0  0  0  0  0  0  0  0  0  0
   19.8891  -18.7752  -15.0740 C   0  0  0  0  0  0  0  0  0  0  0  0
   20.5783  -18.2719  -13.8424 C   0  0  2  0  0  0  0  0  0  0  0  0
   21.9733  -17.7729  -14.1480 C   0  0  0  0  0  0  0  0  0  0  0  0
   20.7109  -19.3453  -12.7713 C   0  0  2  0  0  0  0  0  0  0  0  0
   22.0595  -19.8929  -12.9613 N   0  0  0  0  0  0  0  0  0  0  0  0
   19.6738  -20.3623  -13.0816 C   0  0  0  0  0  0  0  0  0  0  0  0
   20.0397  -21.3849  -13.7378 O   0  0  0  0  0  0  0  0  0  0  0  0
   18.3661  -20.2627  -12.7070 O   0  0  0  0  0  0  0  0  0  0  0  0
  2  1  1  6
  3  4  1  0
  3  2  1  0
  4  9  2  0
  5  6  2  0
  5  4  1  0
  6  7  1  0
  7  8  2  0
  9  8  1  0
 10 11  2  0
 10  2  1  0
 12 13  1  0
 13 15  1  0
 13 14  2  0
 16 15  1  1
 16 18  1  0
 16 17  1  0
 17 10  1  0
 18 19  2  0
 21 20  1  6
 22 21  1  0
 23 21  1  0
 23 24  1  6
 24 18  1  0
 25 27  1  0
 25 23  1  0
 26 25  2  0
M  END
$$$$
