FNV.pdb
     RDKit          3D

 27 27  0  0  1  0  0  0  0  0999 V2000
   24.4710  -33.4601   -4.4606 N   0  0  0  0  0  0  0  0  0  0  0  0
   25.1613  -32.6541   -3.4705 C   0  0  1  0  0  0  0  0  0  0  0  0
   24.0697  -31.8198   -2.7872 C   0  0  0  0  0  0  0  0  0  0  0  0
   24.4065  -30.3910   -2.8832 C   0  0  0  0  0  0  0  0  0  0  0  0
   25.4123  -29.9040   -3.6853 C   0  0  0  0  0  0  0  0  0  0  0  0
   25.7017  -28.5562   -3.7522 C   0  0  0  0  0  0  0  0  0  0  0  0
   24.9679  -27.6770   -2.9995 C   0  0  0  0  0  0  0  0  0  0  0  0
   23.9639  -28.1390   -2.1957 C   0  0  0  0  0  0  0  0  0  0  0  0
   23.6828  -29.4879   -2.1361 C   0  0  0  0  0  0  0  0  0  0  0  0
   25.7658  -33.5327   -2.4396 C   0  0  0  0  0  0  0  0  0  0  0  0
   25.1056  -34.5069   -1.9993 O   0  0  0  0  0  0  0  0  0  0  0  0
   28.6543  -35.8646   -3.1164 N   0  0  0  0  0  0  0  0  0  0  0  0
   29.4911  -35.1602   -2.2342 C   0  0  0  0  0  0  0  0  0  0  0  0
   30.7447  -35.2737   -2.4537 O   0  0  0  0  0  0  0  0  0  0  0  0
   29.1042  -34.3160   -1.1002 C   0  0  0  0  0  0  0  0  0  0  0  0
   27.6248  -34.1860   -0.8748 C   0  0  2  0  0  0  0  0  0  0  0  0
   27.0627  -33.3465   -1.9050 N   0  0  0  0  0  0  0  0  0  0  0  0
   27.3962  -33.6668    0.4948 C   0  0  0  0  0  0  0  0  0  0  0  0
   27.6179  -32.4586    0.7675 O   0  0  0  0  0  0  0  0  0  0  0  0
   25.6607  -36.3624    3.0621 C   0  0  0  0  0  0  0  0  0  0  0  0
   25.5706  -34.9055    3.4007 C   0  0  2  0  0  0  0  0  0  0  0  0
   24.3394  -34.2672    2.7964 C   0  0  0  0  0  0  0  0  0  0  0  0
   26.7741  -34.1179    2.9025 C   0  0  2  0  0  0  0  0  0  0  0  0
   26.9283  -34.5252    1.5008 N   0  0  0  0  0  0  0  0  0  0  0  0
   27.9274  -34.5736    3.7202 C   0  0  0  0  0  0  0  0  0  0  0  0
   27.9921  -34.1579    4.9173 O   0  0  0  0  0  0  0  0  0  0  0  0
   28.9097  -35.4032    3.2650 O   0  0  0  0  0  0  0  0  0  0  0  0
  2  1  1  6
  3  4  1  0
  3  2  1  0
  4  9  2  0
  5  6  2  0
  5  4  1  0
  6  7  1  0
  7  8  2  0
  9  8  1  0
 10 11  2  0
 10  2  1  0
 12 13  1  0
 13 15  1  0
 13 14  2  0
 16 15  1  6
 16 18  1  0
 16 17  1  0
 17 10  1  0
 18 19  2  0
 21 20  1  6
 22 21  1  0
 23 21  1  0
 23 24  1  6
 24 18  1  0
 25 27  1  0
 25 23  1  0
 26 25  2  0
M  END
$$$$
