FNV.pdb
     RDKit          3D

 27 27  0  0  1  0  0  0  0  0999 V2000
   20.3022  -15.8409  -17.7028 N   0  0  0  0  0  0  0  0  0  0  0  0
   20.3331  -14.4668  -18.1690 C   0  0  1  0  0  0  0  0  0  0  0  0
   18.8689  -14.0080  -18.1911 C   0  0  0  0  0  0  0  0  0  0  0  0
   18.1628  -14.6613  -19.3040 C   0  0  0  0  0  0  0  0  0  0  0  0
   18.3453  -14.3139  -20.6225 C   0  0  0  0  0  0  0  0  0  0  0  0
   17.6664  -14.9484  -21.6429 C   0  0  0  0  0  0  0  0  0  0  0  0
   16.7857  -15.9526  -21.3364 C   0  0  0  0  0  0  0  0  0  0  0  0
   16.5889  -16.3140  -20.0332 C   0  0  0  0  0  0  0  0  0  0  0  0
   17.2725  -15.6734  -19.0210 C   0  0  0  0  0  0  0  0  0  0  0  0
   21.0541  -13.6192  -17.1883 C   0  0  0  0  0  0  0  0  0  0  0  0
   20.7960  -13.7409  -15.9646 O   0  0  0  0  0  0  0  0  0  0  0  0
   25.7727  -11.3506  -14.8217 N   0  0  0  0  0  0  0  0  0  0  0  0
   24.9284  -10.9746  -15.8803 C   0  0  0  0  0  0  0  0  0  0  0  0
   24.8287   -9.7176  -16.0868 O   0  0  0  0  0  0  0  0  0  0  0  0
   24.1532  -11.8426  -16.7714 C   0  0  0  0  0  0  0  0  0  0  0  0
   22.6636  -11.7805  -16.5881 C   0  0  2  0  0  0  0  0  0  0  0  0
   22.0340  -12.6614  -17.5418 N   0  0  0  0  0  0  0  0  0  0  0  0
   22.2271  -10.3695  -16.7155 C   0  0  0  0  0  0  0  0  0  0  0  0
   22.5459   -9.6887  -17.7246 O   0  0  0  0  0  0  0  0  0  0  0  0
   19.0381   -9.1741  -14.4080 C   0  0  0  0  0  0  0  0  0  0  0  0
   19.4995   -8.4465  -15.6338 C   0  0  2  0  0  0  0  0  0  0  0  0
   18.9990   -9.1097  -16.8980 C   0  0  0  0  0  0  0  0  0  0  0  0
   21.0170   -8.3801  -15.7332 C   0  0  2  0  0  0  0  0  0  0  0  0
   21.4512   -9.7819  -15.7054 N   0  0  0  0  0  0  0  0  0  0  0  0
   21.4744   -7.6559  -14.5197 C   0  0  0  0  0  0  0  0  0  0  0  0
   21.2841   -6.4019  -14.4841 O   0  0  0  0  0  0  0  0  0  0  0  0
   22.0801   -8.2530  -13.4534 O   0  0  0  0  0  0  0  0  0  0  0  0
  2  1  1  1
  3  4  1  0
  3  2  1  0
  4  9  2  0
  5  6  2  0
  5  4  1  0
  6  7  1  0
  7  8  2  0
  9  8  1  0
 10 11  2  0
 10  2  1  0
 12 13  1  0
 13 15  1  0
 13 14  2  0
 16 15  1  6
 16 18  1  0
 16 17  1  0
 17 10  1  0
 18 19  2  0
 21 20  1  1
 22 21  1  0
 23 21  1  0
 23 24  1  1
 24 18  1  0
 25 27  1  0
 25 23  1  0
 26 25  2  0
M  END
$$$$
