FNV.pdb
     RDKit          3D

 27 27  0  0  1  0  0  0  0  0999 V2000
   24.7243  -20.4736   -8.5128 N   0  0  0  0  0  0  0  0  0  0  0  0
   25.9492  -19.9515   -9.0902 C   0  0  1  0  0  0  0  0  0  0  0  0
   27.0665  -20.8749   -8.5863 C   0  0  0  0  0  0  0  0  0  0  0  0
   27.5855  -20.3699   -7.3059 C   0  0  0  0  0  0  0  0  0  0  0  0
   28.6720  -19.5319   -7.2087 C   0  0  0  0  0  0  0  0  0  0  0  0
   29.1327  -19.0760   -5.9903 C   0  0  0  0  0  0  0  0  0  0  0  0
   28.4915  -19.4677   -4.8443 C   0  0  0  0  0  0  0  0  0  0  0  0
   27.4100  -20.2998   -4.9175 C   0  0  0  0  0  0  0  0  0  0  0  0
   26.9576  -20.7497   -6.1402 C   0  0  0  0  0  0  0  0  0  0  0  0
   25.8999  -20.0720  -10.5677 C   0  0  0  0  0  0  0  0  0  0  0  0
   25.0276  -20.8067  -11.0952 O   0  0  0  0  0  0  0  0  0  0  0  0
   26.6628  -18.8471  -15.8197 N   0  0  0  0  0  0  0  0  0  0  0  0
   27.5143  -18.1983  -14.9094 C   0  0  0  0  0  0  0  0  0  0  0  0
   28.2941  -17.3202  -15.4129 O   0  0  0  0  0  0  0  0  0  0  0  0
   27.6165  -18.4041  -13.4618 C   0  0  0  0  0  0  0  0  0  0  0  0
   26.5707  -19.3041  -12.8681 C   0  0  2  0  0  0  0  0  0  0  0  0
   26.7861  -19.4026  -11.4448 N   0  0  0  0  0  0  0  0  0  0  0  0
   26.6212  -20.6136  -13.5611 C   0  0  0  0  0  0  0  0  0  0  0  0
   27.6817  -21.2908  -13.5752 O   0  0  0  0  0  0  0  0  0  0  0  0
   24.4778  -24.6791  -14.5809 C   0  0  0  0  0  0  0  0  0  0  0  0
   24.4809  -23.2514  -14.1261 C   0  0  2  0  0  0  0  0  0  0  0  0
   23.1118  -22.6212  -14.2565 C   0  0  0  0  0  0  0  0  0  0  0  0
   25.4488  -22.3896  -14.9245 C   0  0  2  0  0  0  0  0  0  0  0  0
   25.4797  -21.1083  -14.2091 N   0  0  0  0  0  0  0  0  0  0  0  0
   24.8417  -22.2340  -16.2711 C   0  0  0  0  0  0  0  0  0  0  0  0
   24.0075  -21.2908  -16.4278 O   0  0  0  0  0  0  0  0  0  0  0  0
   25.1252  -23.0362  -17.3372 O   0  0  0  0  0  0  0  0  0  0  0  0
  2  1  1  1
  3  4  1  0
  3  2  1  0
  4  9  2  0
  5  6  2  0
  5  4  1  0
  6  7  1  0
  7  8  2  0
  9  8  1  0
 10 11  2  0
 10  2  1  0
 12 13  1  0
 13 15  1  0
 13 14  2  0
 16 15  1  6
 16 18  1  0
 16 17  1  0
 17 10  1  0
 18 19  2  0
 21 20  1  6
 22 21  1  0
 23 21  1  0
 23 24  1  1
 24 18  1  0
 25 27  1  0
 25 23  1  0
 26 25  2  0
M  END
$$$$
