EDT.pdb
     RDKit          3D

 25 24  0  0  1  0  0  0  0  0999 V2000
    5.9945  -16.2507   19.9296 N   0  0  0  0  0  0  0  0  0  0  0  0
    7.3601  -16.2565   20.2946 C   0  0  1  0  0  0  0  0  0  0  0  0
    8.2508  -15.2199   19.7195 C   0  0  0  0  0  0  0  0  0  0  0  0
    7.6412  -13.9457   19.2847 C   0  0  0  0  0  0  0  0  0  0  0  0
    8.5725  -12.9468   18.7981 C   0  0  0  0  0  0  0  0  0  0  0  0
    9.5159  -12.4784   19.4533 O   0  0  0  0  0  0  0  0  0  0  0  0
    7.4807  -16.2881   21.8052 C   0  0  0  0  0  0  0  0  0  0  0  0
    6.4651  -16.0657   22.5216 O   0  0  0  0  0  0  0  0  0  0  0  0
    8.4220  -12.4510   17.4873 O   0  0  0  0  0  0  0  0  0  0  0  0
    8.6981  -16.5599   22.4688 N   0  0  0  0  0  0  0  0  0  0  0  0
    8.7504  -16.8258   23.8975 C   0  0  1  0  0  0  0  0  0  0  0  0
    9.9642  -17.6806   24.1728 C   0  0  0  0  0  0  0  0  0  0  0  0
   10.1532  -17.9894   25.6020 C   0  0  0  0  0  0  0  0  0  0  0  0
   11.2887  -18.1612   26.0983 O   0  0  0  0  0  0  0  0  0  0  0  0
    8.9682  -15.5332   24.6043 C   0  0  0  0  0  0  0  0  0  0  0  0
    9.9928  -14.8436   24.3716 O   0  0  0  0  0  0  0  0  0  0  0  0
    8.9920  -18.0828   26.3873 O   0  0  0  0  0  0  0  0  0  0  0  0
    6.9022  -12.2441   24.9236 C   0  0  0  0  0  0  0  0  0  0  0  0
    7.1469  -12.8530   26.2748 C   0  0  1  0  0  0  0  0  0  0  0  0
    6.0182  -13.6448   26.5811 O   0  0  0  0  0  0  0  0  0  0  0  0
    8.3301  -13.7918   26.2832 C   0  0  2  0  0  0  0  0  0  0  0  0
    8.0514  -15.0171   25.5604 N   0  0  0  0  0  0  0  0  0  0  0  0
    8.8045  -14.0990   27.6337 C   0  0  0  0  0  0  0  0  0  0  0  0
    9.1747  -13.1650   28.3873 O   0  0  0  0  0  0  0  0  0  0  0  0
    8.8667  -15.3864   28.1299 O   0  0  0  0  0  0  0  0  0  0  0  0
  2  1  1  1
  3  4  1  0
  3  2  1  0
  5  4  1  0
  5  6  2  0
  7  2  1  0
  7  8  2  0
  9  5  1  0
 10  7  1  0
 11 10  1  0
 11 15  1  0
 11 12  1  6
 13 17  1  0
 13 12  1  0
 14 13  2  0
 15 22  1  0
 16 15  2  0
 19 18  1  6
 19 20  1  0
 19 21  1  0
 21 23  1  0
 21 22  1  1
 23 24  2  0
 23 25  1  0
M  END
$$$$
