EDT.pdb
     RDKit          3D

 25 24  0  0  1  0  0  0  0  0999 V2000
   10.6328  -15.8413   20.1156 N   0  0  0  0  0  0  0  0  0  0  0  0
    9.2512  -15.5574   20.2087 C   0  0  1  0  0  0  0  0  0  0  0  0
    8.3349  -16.1672   19.2152 C   0  0  0  0  0  0  0  0  0  0  0  0
    8.9323  -16.8984   18.0783 C   0  0  0  0  0  0  0  0  0  0  0  0
    7.9852  -17.5322   17.1820 C   0  0  0  0  0  0  0  0  0  0  0  0
    7.2254  -16.9271   16.4104 O   0  0  0  0  0  0  0  0  0  0  0  0
    8.7713  -15.8330   21.6198 C   0  0  0  0  0  0  0  0  0  0  0  0
    7.5471  -15.7097   21.9027 O   0  0  0  0  0  0  0  0  0  0  0  0
    7.8972  -18.9387   17.1618 O   0  0  0  0  0  0  0  0  0  0  0  0
    9.6425  -16.2299   22.6590 N   0  0  0  0  0  0  0  0  0  0  0  0
    9.1672  -16.4549   24.0147 C   0  0  1  0  0  0  0  0  0  0  0  0
   10.1669  -17.3370   24.7234 C   0  0  0  0  0  0  0  0  0  0  0  0
   10.9214  -18.2183   23.8135 C   0  0  0  0  0  0  0  0  0  0  0  0
   10.3819  -18.7752   22.8318 O   0  0  0  0  0  0  0  0  0  0  0  0
    9.1657  -15.1490   24.7306 C   0  0  0  0  0  0  0  0  0  0  0  0
   10.0403  -14.2823   24.4785 O   0  0  0  0  0  0  0  0  0  0  0  0
   12.2838  -18.4058   24.1010 O   0  0  0  0  0  0  0  0  0  0  0  0
    6.8241  -12.2961   24.6389 C   0  0  0  0  0  0  0  0  0  0  0  0
    6.9159  -12.7549   26.0663 C   0  0  1  0  0  0  0  0  0  0  0  0
    5.8622  -13.6723   26.2734 O   0  0  0  0  0  0  0  0  0  0  0  0
    8.1910  -13.5123   26.3522 C   0  0  2  0  0  0  0  0  0  0  0  0
    8.1981  -14.8154   25.7172 N   0  0  0  0  0  0  0  0  0  0  0  0
    8.4654  -13.6467   27.7839 C   0  0  0  0  0  0  0  0  0  0  0  0
    8.5189  -12.6187   28.5033 O   0  0  0  0  0  0  0  0  0  0  0  0
    8.6721  -14.8682   28.3945 O   0  0  0  0  0  0  0  0  0  0  0  0
  2  1  1  1
  3  4  1  0
  3  2  1  0
  5  4  1  0
  5  6  2  0
  7  2  1  0
  7  8  2  0
  9  5  1  0
 10  7  1  0
 11 10  1  0
 11 15  1  0
 11 12  1  1
 13 17  1  0
 13 12  1  0
 14 13  2  0
 15 22  1  0
 16 15  2  0
 19 18  1  6
 19 20  1  0
 19 21  1  0
 21 23  1  0
 21 22  1  1
 23 24  2  0
 23 25  1  0
M  END
$$$$
