EDT.pdb
     RDKit          3D

 25 24  0  0  1  0  0  0  0  0999 V2000
   13.3195  -17.0028   15.2777 N   0  0  0  0  0  0  0  0  0  0  0  0
   14.2025  -16.7791   16.3586 C   0  0  1  0  0  0  0  0  0  0  0  0
   14.6363  -15.3898   16.6422 C   0  0  0  0  0  0  0  0  0  0  0  0
   15.4972  -15.1592   17.8211 C   0  0  0  0  0  0  0  0  0  0  0  0
   15.8835  -13.7802   18.0468 C   0  0  0  0  0  0  0  0  0  0  0  0
   15.3697  -12.7995   17.4872 O   0  0  0  0  0  0  0  0  0  0  0  0
   13.6487  -17.4329   17.6089 C   0  0  0  0  0  0  0  0  0  0  0  0
   12.4002  -17.4896   17.7882 O   0  0  0  0  0  0  0  0  0  0  0  0
   16.9161  -13.4995   18.9641 O   0  0  0  0  0  0  0  0  0  0  0  0
   14.4756  -17.9955   18.6070 N   0  0  0  0  0  0  0  0  0  0  0  0
   13.9244  -18.7144   19.7445 C   0  0  1  0  0  0  0  0  0  0  0  0
   15.0001  -19.6200   20.2948 C   0  0  0  0  0  0  0  0  0  0  0  0
   14.5280  -20.5021   21.3778 C   0  0  0  0  0  0  0  0  0  0  0  0
   15.2835  -20.8822   22.2996 O   0  0  0  0  0  0  0  0  0  0  0  0
   13.6100  -17.7255   20.8127 C   0  0  0  0  0  0  0  0  0  0  0  0
   14.4007  -16.7803   21.0599 O   0  0  0  0  0  0  0  0  0  0  0  0
   13.1813  -20.8994   21.3274 O   0  0  0  0  0  0  0  0  0  0  0  0
   10.3031  -15.6606   23.9025 C   0  0  0  0  0  0  0  0  0  0  0  0
   10.6395  -16.7058   22.8774 C   0  0  1  0  0  0  0  0  0  0  0  0
   10.0191  -16.3149   21.6704 O   0  0  0  0  0  0  0  0  0  0  0  0
   12.1193  -16.7753   22.5828 C   0  0  2  0  0  0  0  0  0  0  0  0
   12.4254  -17.7920   21.5959 N   0  0  0  0  0  0  0  0  0  0  0  0
   12.9309  -16.9773   23.7843 C   0  0  0  0  0  0  0  0  0  0  0  0
   13.1512  -16.0086   24.5528 O   0  0  0  0  0  0  0  0  0  0  0  0
   13.4763  -18.2005   24.1217 O   0  0  0  0  0  0  0  0  0  0  0  0
  2  1  1  6
  3  4  1  0
  3  2  1  0
  5  4  1  0
  5  6  2  0
  7  2  1  0
  7  8  2  0
  9  5  1  0
 10  7  1  0
 11 10  1  0
 11 15  1  0
 11 12  1  1
 13 17  1  0
 13 12  1  0
 14 13  2  0
 15 22  1  0
 16 15  2  0
 19 18  1  1
 19 20  1  0
 19 21  1  0
 21 23  1  0
 21 22  1  6
 23 24  2  0
 23 25  1  0
M  END
$$$$
