EDT.pdb
     RDKit          3D

 25 24  0  0  1  0  0  0  0  0999 V2000
    9.2986  -15.3897   19.4903 N   0  0  0  0  0  0  0  0  0  0  0  0
    7.9715  -15.5763   19.9402 C   0  0  1  0  0  0  0  0  0  0  0  0
    7.0930  -16.5038   19.1876 C   0  0  0  0  0  0  0  0  0  0  0  0
    7.5263  -16.9293   17.8402 C   0  0  0  0  0  0  0  0  0  0  0  0
    6.6665  -17.8984   17.1894 C   0  0  0  0  0  0  0  0  0  0  0  0
    5.6706  -18.4244   17.7094 O   0  0  0  0  0  0  0  0  0  0  0  0
    7.9811  -15.9259   21.4150 C   0  0  0  0  0  0  0  0  0  0  0  0
    6.8904  -16.0476   22.0393 O   0  0  0  0  0  0  0  0  0  0  0  0
    6.9566  -18.2928   15.8678 O   0  0  0  0  0  0  0  0  0  0  0  0
    9.1742  -16.1276   22.1445 N   0  0  0  0  0  0  0  0  0  0  0  0
    9.1619  -16.4348   23.5658 C   0  0  1  0  0  0  0  0  0  0  0  0
   10.4908  -17.0556   23.9245 C   0  0  0  0  0  0  0  0  0  0  0  0
   10.7120  -18.3721   23.2987 C   0  0  0  0  0  0  0  0  0  0  0  0
   11.6326  -18.5677   22.4744 O   0  0  0  0  0  0  0  0  0  0  0  0
    9.0713  -15.1531   24.3187 C   0  0  0  0  0  0  0  0  0  0  0  0
    9.8810  -14.2197   24.0892 O   0  0  0  0  0  0  0  0  0  0  0  0
    9.8358  -19.4047   23.6725 O   0  0  0  0  0  0  0  0  0  0  0  0
    6.5736  -11.6832   26.5880 C   0  0  0  0  0  0  0  0  0  0  0  0
    6.6478  -13.0246   25.9161 C   0  0  1  0  0  0  0  0  0  0  0  0
    6.4201  -12.8096   24.5390 O   0  0  0  0  0  0  0  0  0  0  0  0
    8.0183  -13.6511   26.0198 C   0  0  2  0  0  0  0  0  0  0  0  0
    8.0870  -14.9171   25.3170 N   0  0  0  0  0  0  0  0  0  0  0  0
    8.4660  -13.8169   27.4037 C   0  0  0  0  0  0  0  0  0  0  0  0
    8.6659  -14.9715   27.8558 O   0  0  0  0  0  0  0  0  0  0  0  0
    8.6837  -12.7492   28.2525 O   0  0  0  0  0  0  0  0  0  0  0  0
  2  1  1  6
  3  4  1  0
  3  2  1  0
  5  4  1  0
  5  6  2  0
  7  2  1  0
  7  8  2  0
  9  5  1  0
 10  7  1  0
 11 10  1  0
 11 15  1  0
 11 12  1  1
 13 17  1  0
 13 12  1  0
 14 13  2  0
 15 22  1  0
 16 15  2  0
 19 18  1  1
 19 20  1  0
 19 21  1  0
 21 23  1  0
 21 22  1  1
 23 24  2  0
 23 25  1  0
M  END
$$$$
