EDT.pdb
     RDKit          3D

 25 24  0  0  1  0  0  0  0  0999 V2000
   12.8586  -17.0143   15.8531 N   0  0  0  0  0  0  0  0  0  0  0  0
   13.7141  -17.3393   16.9305 C   0  0  1  0  0  0  0  0  0  0  0  0
   14.7763  -16.3754   17.3062 C   0  0  0  0  0  0  0  0  0  0  0  0
   14.3953  -14.9586   17.4849 C   0  0  0  0  0  0  0  0  0  0  0  0
   15.4893  -14.0551   17.7829 C   0  0  0  0  0  0  0  0  0  0  0  0
   15.8479  -13.7285   18.9246 O   0  0  0  0  0  0  0  0  0  0  0  0
   12.8836  -17.7194   18.1401 C   0  0  0  0  0  0  0  0  0  0  0  0
   11.6383  -17.5112   18.1381 O   0  0  0  0  0  0  0  0  0  0  0  0
   16.2194  -13.4891   16.7184 O   0  0  0  0  0  0  0  0  0  0  0  0
   13.4430  -18.3083   19.2962 N   0  0  0  0  0  0  0  0  0  0  0  0
   12.6140  -18.7911   20.3890 C   0  0  1  0  0  0  0  0  0  0  0  0
   13.4056  -19.8190   21.1614 C   0  0  0  0  0  0  0  0  0  0  0  0
   12.6390  -20.4556   22.2482 C   0  0  0  0  0  0  0  0  0  0  0  0
   11.4345  -20.7664   22.1155 O   0  0  0  0  0  0  0  0  0  0  0  0
   12.3631  -17.6562   21.3200 C   0  0  0  0  0  0  0  0  0  0  0  0
   13.2180  -16.7458   21.4611 O   0  0  0  0  0  0  0  0  0  0  0  0
   13.3274  -20.6991   23.4484 O   0  0  0  0  0  0  0  0  0  0  0  0
    9.1781  -14.6735   23.5600 C   0  0  0  0  0  0  0  0  0  0  0  0
    9.4573  -15.9368   22.7967 C   0  0  1  0  0  0  0  0  0  0  0  0
    9.2167  -15.6570   21.4335 O   0  0  0  0  0  0  0  0  0  0  0  0
   10.9039  -16.3619   22.8865 C   0  0  2  0  0  0  0  0  0  0  0  0
   11.1705  -17.5400   22.0850 N   0  0  0  0  0  0  0  0  0  0  0  0
   11.3504  -16.5768   24.2641 C   0  0  0  0  0  0  0  0  0  0  0  0
   11.3584  -15.6134   25.0698 O   0  0  0  0  0  0  0  0  0  0  0  0
   11.7707  -17.8068   24.7309 O   0  0  0  0  0  0  0  0  0  0  0  0
  2  1  1  6
  3  4  1  0
  3  2  1  0
  5  4  1  0
  5  6  2  0
  7  2  1  0
  7  8  2  0
  9  5  1  0
 10  7  1  0
 11 10  1  0
 11 15  1  0
 11 12  1  1
 13 17  1  0
 13 12  1  0
 14 13  2  0
 15 22  1  0
 16 15  2  0
 19 18  1  1
 19 20  1  0
 19 21  1  0
 21 23  1  0
 21 22  1  6
 23 24  2  0
 23 25  1  0
M  END
$$$$
