EDT.pdb
     RDKit          3D

 25 24  0  0  1  0  0  0  0  0999 V2000
   11.9168  -17.6844   17.8033 N   0  0  0  0  0  0  0  0  0  0  0  0
   10.5643  -17.3828   18.0828 C   0  0  1  0  0  0  0  0  0  0  0  0
    9.5146  -17.9699   17.2158 C   0  0  0  0  0  0  0  0  0  0  0  0
    9.6131  -19.4067   16.8837 C   0  0  0  0  0  0  0  0  0  0  0  0
    8.5393  -19.9282   16.0609 C   0  0  0  0  0  0  0  0  0  0  0  0
    7.6024  -19.2536   15.6071 O   0  0  0  0  0  0  0  0  0  0  0  0
   10.2734  -17.6665   19.5430 C   0  0  0  0  0  0  0  0  0  0  0  0
    9.1210  -17.4450   20.0089 O   0  0  0  0  0  0  0  0  0  0  0  0
    8.5306  -21.2992   15.7344 O   0  0  0  0  0  0  0  0  0  0  0  0
   11.2467  -18.1777   20.4305 N   0  0  0  0  0  0  0  0  0  0  0  0
   10.9058  -18.6115   21.7760 C   0  0  1  0  0  0  0  0  0  0  0  0
   12.0438  -19.4535   22.3013 C   0  0  0  0  0  0  0  0  0  0  0  0
   11.9464  -20.8749   21.9220 C   0  0  0  0  0  0  0  0  0  0  0  0
   12.9571  -21.6059   21.8264 O   0  0  0  0  0  0  0  0  0  0  0  0
   10.8270  -17.4068   22.6479 C   0  0  0  0  0  0  0  0  0  0  0  0
   11.7010  -16.5067   22.5730 O   0  0  0  0  0  0  0  0  0  0  0  0
   10.6578  -21.3751   21.6710 O   0  0  0  0  0  0  0  0  0  0  0  0
    7.3749  -15.3403   23.3892 C   0  0  0  0  0  0  0  0  0  0  0  0
    8.8234  -14.9562   23.4931 C   0  0  1  0  0  0  0  0  0  0  0  0
    8.8776  -13.7410   24.2107 O   0  0  0  0  0  0  0  0  0  0  0  0
    9.6318  -15.9499   24.2933 C   0  0  2  0  0  0  0  0  0  0  0  0
    9.7834  -17.2100   23.5930 N   0  0  0  0  0  0  0  0  0  0  0  0
    9.0887  -16.1791   25.6333 C   0  0  0  0  0  0  0  0  0  0  0  0
    8.6005  -17.3001   25.9203 O   0  0  0  0  0  0  0  0  0  0  0  0
    9.0858  -15.2079   26.6154 O   0  0  0  0  0  0  0  0  0  0  0  0
  2  1  1  6
  3  4  1  0
  3  2  1  0
  5  4  1  0
  5  6  2  0
  7  2  1  0
  7  8  2  0
  9  5  1  0
 10  7  1  0
 11 10  1  0
 11 15  1  0
 11 12  1  1
 13 17  1  0
 13 12  1  0
 14 13  2  0
 15 22  1  0
 16 15  2  0
 19 18  1  1
 19 20  1  0
 19 21  1  0
 21 23  1  0
 21 22  1  6
 23 24  2  0
 23 25  1  0
M  END
$$$$
