EDT.pdb
     RDKit          3D

 25 24  0  0  1  0  0  0  0  0999 V2000
    5.9555  -22.0664   19.4085 N   0  0  0  0  0  0  0  0  0  0  0  0
    6.9862  -21.1809   19.7981 C   0  0  1  0  0  0  0  0  0  0  0  0
    7.5307  -20.2409   18.7889 C   0  0  0  0  0  0  0  0  0  0  0  0
    6.5728  -19.5243   17.9210 C   0  0  0  0  0  0  0  0  0  0  0  0
    7.1644  -18.5897   16.9836 C   0  0  0  0  0  0  0  0  0  0  0  0
    6.8950  -18.5328   15.7741 O   0  0  0  0  0  0  0  0  0  0  0  0
    6.5690  -20.4381   21.0517 C   0  0  0  0  0  0  0  0  0  0  0  0
    5.9933  -19.3184   20.9567 O   0  0  0  0  0  0  0  0  0  0  0  0
    8.1195  -17.6641   17.4499 O   0  0  0  0  0  0  0  0  0  0  0  0
    6.7957  -20.9449   22.3510 N   0  0  0  0  0  0  0  0  0  0  0  0
    6.3488  -20.2364   23.5397 C   0  0  1  0  0  0  0  0  0  0  0  0
    6.0350  -21.2581   24.6062 C   0  0  0  0  0  0  0  0  0  0  0  0
    4.7777  -21.9900   24.3667 C   0  0  0  0  0  0  0  0  0  0  0  0
    3.8501  -21.5067   23.6803 O   0  0  0  0  0  0  0  0  0  0  0  0
    7.4850  -19.4202   24.0502 C   0  0  0  0  0  0  0  0  0  0  0  0
    8.6635  -19.8507   23.9767 O   0  0  0  0  0  0  0  0  0  0  0  0
    4.6674  -23.2640   24.9485 O   0  0  0  0  0  0  0  0  0  0  0  0
    7.0167  -15.3667   25.6532 C   0  0  0  0  0  0  0  0  0  0  0  0
    8.2029  -15.8683   24.8799 C   0  0  1  0  0  0  0  0  0  0  0  0
    9.3420  -15.2182   25.4039 O   0  0  0  0  0  0  0  0  0  0  0  0
    8.4399  -17.3473   25.0746 C   0  0  2  0  0  0  0  0  0  0  0  0
    7.3064  -18.1374   24.6363 N   0  0  0  0  0  0  0  0  0  0  0  0
    8.7924  -17.6914   26.4532 C   0  0  0  0  0  0  0  0  0  0  0  0
    7.9366  -18.2363   27.1936 O   0  0  0  0  0  0  0  0  0  0  0  0
   10.0403  -17.4430   26.9905 O   0  0  0  0  0  0  0  0  0  0  0  0
  2  1  1  6
  3  4  1  0
  3  2  1  0
  5  4  1  0
  5  6  2  0
  7  2  1  0
  7  8  2  0
  9  5  1  0
 10  7  1  0
 11 10  1  0
 11 15  1  0
 11 12  1  1
 13 17  1  0
 13 12  1  0
 14 13  2  0
 15 22  1  0
 16 15  2  0
 19 18  1  1
 19 20  1  0
 19 21  1  0
 21 23  1  0
 21 22  1  1
 23 24  2  0
 23 25  1  0
M  END
$$$$
