EDT.pdb
     RDKit          3D

 25 24  0  0  1  0  0  0  0  0999 V2000
   11.0862  -17.7355   15.2000 N   0  0  0  0  0  0  0  0  0  0  0  0
   11.3713  -18.5678   16.3065 C   0  0  1  0  0  0  0  0  0  0  0  0
   12.7716  -18.6512   16.7869 C   0  0  0  0  0  0  0  0  0  0  0  0
   13.4806  -17.3879   17.0796 C   0  0  0  0  0  0  0  0  0  0  0  0
   14.8491  -17.5359   17.5349 C   0  0  0  0  0  0  0  0  0  0  0  0
   15.8252  -17.7312   16.7947 O   0  0  0  0  0  0  0  0  0  0  0  0
   10.4325  -18.2321   17.4481 C   0  0  0  0  0  0  0  0  0  0  0  0
    9.3526  -17.6210   17.2148 O   0  0  0  0  0  0  0  0  0  0  0  0
   15.1241  -17.4566   18.9150 O   0  0  0  0  0  0  0  0  0  0  0  0
   10.7090  -18.5754   18.7905 N   0  0  0  0  0  0  0  0  0  0  0  0
    9.7119  -18.4339   19.8396 C   0  0  1  0  0  0  0  0  0  0  0  0
   10.0380  -19.4210   20.9347 C   0  0  0  0  0  0  0  0  0  0  0  0
    9.0064  -19.4944   21.9855 C   0  0  0  0  0  0  0  0  0  0  0  0
    7.9470  -18.8321   21.9214 O   0  0  0  0  0  0  0  0  0  0  0  0
    9.8499  -17.0752   20.4332 C   0  0  0  0  0  0  0  0  0  0  0  0
   10.9333  -16.7158   20.9593 O   0  0  0  0  0  0  0  0  0  0  0  0
    9.2688  -20.3480   23.0701 O   0  0  0  0  0  0  0  0  0  0  0  0
    8.1636  -13.4637   19.0357 C   0  0  0  0  0  0  0  0  0  0  0  0
    7.9375  -13.8297   20.4749 C   0  0  1  0  0  0  0  0  0  0  0  0
    6.6980  -14.5036   20.5394 O   0  0  0  0  0  0  0  0  0  0  0  0
    8.9690  -14.8023   20.9958 C   0  0  2  0  0  0  0  0  0  0  0  0
    8.7892  -16.1286   20.4390 N   0  0  0  0  0  0  0  0  0  0  0  0
    9.0026  -14.8688   22.4579 C   0  0  0  0  0  0  0  0  0  0  0  0
    8.7538  -15.9566   23.0342 O   0  0  0  0  0  0  0  0  0  0  0  0
    9.2991  -13.7767   23.2497 O   0  0  0  0  0  0  0  0  0  0  0  0
  2  1  1  6
  3  4  1  0
  3  2  1  0
  5  4  1  0
  5  6  2  0
  7  2  1  0
  7  8  2  0
  9  5  1  0
 10  7  1  0
 11 10  1  0
 11 15  1  0
 11 12  1  1
 13 17  1  0
 13 12  1  0
 14 13  2  0
 15 22  1  0
 16 15  2  0
 19 18  1  6
 19 20  1  0
 19 21  1  0
 21 23  1  0
 21 22  1  6
 23 24  2  0
 23 25  1  0
M  END
$$$$
