EDT.pdb
     RDKit          3D

 25 24  0  0  1  0  0  0  0  0999 V2000
   10.3236  -16.0077   19.3762 N   0  0  0  0  0  0  0  0  0  0  0  0
    8.9860  -16.0681   19.8296 C   0  0  1  0  0  0  0  0  0  0  0  0
    8.0574  -17.0172   19.1698 C   0  0  0  0  0  0  0  0  0  0  0  0
    8.5027  -17.6665   17.9190 C   0  0  0  0  0  0  0  0  0  0  0  0
    7.5648  -18.6095   17.3418 C   0  0  0  0  0  0  0  0  0  0  0  0
    6.4805  -18.9323   17.8506 O   0  0  0  0  0  0  0  0  0  0  0  0
    8.9689  -16.2597   21.3330 C   0  0  0  0  0  0  0  0  0  0  0  0
    7.8669  -16.3357   21.9444 O   0  0  0  0  0  0  0  0  0  0  0  0
    7.8788  -19.2219   16.1118 O   0  0  0  0  0  0  0  0  0  0  0  0
   10.1489  -16.3602   22.1037 N   0  0  0  0  0  0  0  0  0  0  0  0
   10.1127  -16.6550   23.5272 C   0  0  1  0  0  0  0  0  0  0  0  0
   11.5083  -17.0289   23.9658 C   0  0  0  0  0  0  0  0  0  0  0  0
   12.0304  -18.2353   23.2979 C   0  0  0  0  0  0  0  0  0  0  0  0
   13.1291  -18.2384   22.6997 O   0  0  0  0  0  0  0  0  0  0  0  0
    9.7567  -15.4044   24.2531 C   0  0  0  0  0  0  0  0  0  0  0  0
   10.3420  -14.3242   23.9879 O   0  0  0  0  0  0  0  0  0  0  0  0
   11.2324  -19.3897   23.3642 O   0  0  0  0  0  0  0  0  0  0  0  0
    6.5441  -12.3935   26.0751 C   0  0  0  0  0  0  0  0  0  0  0  0
    6.9634  -13.7037   25.4717 C   0  0  1  0  0  0  0  0  0  0  0  0
    6.9988  -13.5207   24.0717 O   0  0  0  0  0  0  0  0  0  0  0  0
    8.3616  -14.1080   25.8753 C   0  0  2  0  0  0  0  0  0  0  0  0
    8.7581  -15.3612   25.2641 N   0  0  0  0  0  0  0  0  0  0  0  0
    8.5387  -14.1758   27.3269 C   0  0  0  0  0  0  0  0  0  0  0  0
    8.7882  -15.2808   27.8693 O   0  0  0  0  0  0  0  0  0  0  0  0
    8.4438  -13.0668   28.1447 O   0  0  0  0  0  0  0  0  0  0  0  0
  2  1  1  6
  3  4  1  0
  3  2  1  0
  5  4  1  0
  5  6  2  0
  7  2  1  0
  7  8  2  0
  9  5  1  0
 10  7  1  0
 11 10  1  0
 11 15  1  0
 11 12  1  1
 13 17  1  0
 13 12  1  0
 14 13  2  0
 15 22  1  0
 16 15  2  0
 19 18  1  1
 19 20  1  0
 19 21  1  0
 21 23  1  0
 21 22  1  6
 23 24  2  0
 23 25  1  0
M  END
$$$$
