EDT.pdb
     RDKit          3D

 25 24  0  0  1  0  0  0  0  0999 V2000
   11.8960  -17.3747   17.8318 N   0  0  0  0  0  0  0  0  0  0  0  0
   10.6317  -16.7504   17.7319 C   0  0  1  0  0  0  0  0  0  0  0  0
    9.7621  -17.0934   16.5809 C   0  0  0  0  0  0  0  0  0  0  0  0
    9.9284  -18.4234   15.9584 C   0  0  0  0  0  0  0  0  0  0  0  0
    9.0052  -18.7241   14.8817 C   0  0  0  0  0  0  0  0  0  0  0  0
    8.0713  -17.9906   14.5232 O   0  0  0  0  0  0  0  0  0  0  0  0
    9.8808  -16.9150   19.0382 C   0  0  0  0  0  0  0  0  0  0  0  0
    8.7226  -16.4281   19.1632 O   0  0  0  0  0  0  0  0  0  0  0  0
    9.1533  -19.9314   14.1697 O   0  0  0  0  0  0  0  0  0  0  0  0
   10.4215  -17.6008   20.1489 N   0  0  0  0  0  0  0  0  0  0  0  0
    9.6250  -17.8997   21.3282 C   0  0  1  0  0  0  0  0  0  0  0  0
   10.1900  -19.1413   21.9754 C   0  0  0  0  0  0  0  0  0  0  0  0
    9.9118  -20.3762   21.2195 C   0  0  0  0  0  0  0  0  0  0  0  0
    8.7473  -20.8008   21.0493 O   0  0  0  0  0  0  0  0  0  0  0  0
    9.8033  -16.7893   22.3044 C   0  0  0  0  0  0  0  0  0  0  0  0
   10.9323  -16.2632   22.4730 O   0  0  0  0  0  0  0  0  0  0  0  0
   11.0216  -21.0597   20.6951 O   0  0  0  0  0  0  0  0  0  0  0  0
    7.8890  -13.4554   22.4211 C   0  0  0  0  0  0  0  0  0  0  0  0
    7.8467  -14.0949   23.7797 C   0  0  1  0  0  0  0  0  0  0  0  0
    6.6170  -14.7831   23.8737 O   0  0  0  0  0  0  0  0  0  0  0  0
    8.9238  -15.1375   23.9647 C   0  0  2  0  0  0  0  0  0  0  0  0
    8.7324  -16.2727   23.0837 N   0  0  0  0  0  0  0  0  0  0  0  0
    9.0471  -15.5898   25.3516 C   0  0  0  0  0  0  0  0  0  0  0  0
    8.8568  -16.8002   25.6274 O   0  0  0  0  0  0  0  0  0  0  0  0
    9.3677  -14.7380   26.3904 O   0  0  0  0  0  0  0  0  0  0  0  0
  2  1  1  1
  3  4  1  0
  3  2  1  0
  5  4  1  0
  5  6  2  0
  7  2  1  0
  7  8  2  0
  9  5  1  0
 10  7  1  0
 11 10  1  0
 11 15  1  0
 11 12  1  1
 13 17  1  0
 13 12  1  0
 14 13  2  0
 15 22  1  0
 16 15  2  0
 19 18  1  6
 19 20  1  0
 19 21  1  0
 21 23  1  0
 21 22  1  6
 23 24  2  0
 23 25  1  0
M  END
$$$$
