EDT.pdb
     RDKit          3D

 25 24  0  0  1  0  0  0  0  0999 V2000
    8.5746  -20.2001   18.1040 N   0  0  0  0  0  0  0  0  0  0  0  0
    9.2647  -18.9692   18.1860 C   0  0  1  0  0  0  0  0  0  0  0  0
    8.6953  -17.7908   17.4891 C   0  0  0  0  0  0  0  0  0  0  0  0
    8.5674  -17.8503   16.0179 C   0  0  0  0  0  0  0  0  0  0  0  0
    7.9230  -16.7056   15.4046 C   0  0  0  0  0  0  0  0  0  0  0  0
    7.5479  -15.6924   16.0142 O   0  0  0  0  0  0  0  0  0  0  0  0
    9.5519  -18.6452   19.6385 C   0  0  0  0  0  0  0  0  0  0  0  0
    8.7705  -19.0570   20.5408 O   0  0  0  0  0  0  0  0  0  0  0  0
    7.6915  -16.7134   14.0143 O   0  0  0  0  0  0  0  0  0  0  0  0
   10.6743  -17.8893   20.0451 N   0  0  0  0  0  0  0  0  0  0  0  0
   10.9363  -17.5973   21.4454 C   0  0  1  0  0  0  0  0  0  0  0  0
   12.4157  -17.3404   21.6035 C   0  0  0  0  0  0  0  0  0  0  0  0
   12.7989  -16.9354   22.9685 C   0  0  0  0  0  0  0  0  0  0  0  0
   12.0817  -17.1905   23.9613 O   0  0  0  0  0  0  0  0  0  0  0  0
   10.2417  -16.3270   21.7941 C   0  0  0  0  0  0  0  0  0  0  0  0
   10.5798  -15.2450   21.2512 O   0  0  0  0  0  0  0  0  0  0  0  0
   14.0149  -16.2451   23.1049 O   0  0  0  0  0  0  0  0  0  0  0  0
    7.0770  -14.9920   20.9997 C   0  0  0  0  0  0  0  0  0  0  0  0
    7.1142  -14.9693   22.5013 C   0  0  1  0  0  0  0  0  0  0  0  0
    6.4850  -16.1524   22.9476 O   0  0  0  0  0  0  0  0  0  0  0  0
    8.5214  -15.0130   23.0481 C   0  0  2  0  0  0  0  0  0  0  0  0
    9.1813  -16.2661   22.7391 N   0  0  0  0  0  0  0  0  0  0  0  0
    8.5820  -14.7519   24.4874 C   0  0  0  0  0  0  0  0  0  0  0  0
    9.0874  -15.6108   25.2518 O   0  0  0  0  0  0  0  0  0  0  0  0
    8.1033  -13.5885   25.0573 O   0  0  0  0  0  0  0  0  0  0  0  0
  2  1  1  1
  3  4  1  0
  3  2  1  0
  5  4  1  0
  5  6  2  0
  7  2  1  0
  7  8  2  0
  9  5  1  0
 10  7  1  0
 11 10  1  0
 11 15  1  0
 11 12  1  6
 13 17  1  0
 13 12  1  0
 14 13  2  0
 15 22  1  0
 16 15  2  0
 19 18  1  6
 19 20  1  0
 19 21  1  0
 21 23  1  0
 21 22  1  1
 23 24  2  0
 23 25  1  0
M  END
$$$$
