SMP.pdb
     RDKit          3D

 22 22  0  0  1  0  0  0  0  0999 V2000
   10.5349  -18.2761   21.9619 O   0  0  0  0  0  0  0  0  0  0  0  0
    9.2812  -17.8631   21.5084 C   0  0  0  0  0  0  0  0  0  0  0  0
    9.3477  -16.3910   21.2719 C   0  0  2  0  0  0  0  0  0  0  0  0
   10.3131  -16.0655   20.2653 N   0  0  0  0  0  0  0  0  0  0  0  0
    9.5553  -15.6319   22.5272 C   0  0  0  0  0  0  0  0  0  0  0  0
   10.6603  -15.1275   22.8433 O   0  0  0  0  0  0  0  0  0  0  0  0
    5.2574  -11.0503   26.2803 C   0  0  0  0  0  0  0  0  0  0  0  0
    5.6625  -12.7930   26.4589 S   0  0  0  0  0  0  0  0  0  0  0  0
    6.9097  -13.2299   25.2263 C   0  0  0  0  0  0  0  0  0  0  0  0
    7.3350  -14.6596   25.3812 C   0  0  0  0  0  0  0  0  0  0  0  0
    8.6950  -14.8898   24.7692 C   0  0  2  0  0  0  0  0  0  0  0  0
    8.4777  -15.4513   23.4335 N   0  0  0  0  0  0  0  0  0  0  0  0
    9.3749  -15.8915   25.6383 C   0  0  0  0  0  0  0  0  0  0  0  0
    9.5998  -17.0344   25.1448 O   0  0  0  0  0  0  0  0  0  0  0  0
    9.7509  -15.5710   26.9595 N   0  0  0  0  0  0  0  0  0  0  0  0
    9.1739  -14.5297   27.7626 C   0  0  0  0  0  0  0  0  0  0  0  0
   10.4196  -13.9134   28.4160 C   0  0  0  0  0  0  0  0  0  0  0  0
   11.4185  -15.0452   28.4608 C   0  0  0  0  0  0  0  0  0  0  0  0
   10.7609  -16.2121   27.7697 C   0  0  1  0  0  0  0  0  0  0  0  0
   10.1152  -17.1174   28.7321 C   0  0  0  0  0  0  0  0  0  0  0  0
    8.7394  -17.1701   28.8261 O   0  0  0  0  0  0  0  0  0  0  0  0
   10.7968  -17.8543   29.4811 O   0  0  0  0  0  0  0  0  0  0  0  0
  1  2  1  0
  3  5  1  0
  3  2  1  0
  3  4  1  6
  5  6  2  0
  8  7  1  0
  8  9  1  0
  9 10  1  0
 11 10  1  1
 11 13  1  0
 12  5  1  0
 12 11  1  0
 13 15  1  0
 14 13  2  0
 15 16  1  0
 15 19  1  0
 17 16  1  0
 18 17  1  0
 18 19  1  0
 19 20  1  1
 20 21  1  0
 22 20  2  0
M  END
$$$$
