SMP.pdb
     RDKit          3D

 22 22  0  0  1  0  0  0  0  0999 V2000
    7.5580  -17.5687   20.0691 O   0  0  0  0  0  0  0  0  0  0  0  0
    6.5187  -16.6382   20.1142 C   0  0  0  0  0  0  0  0  0  0  0  0
    7.1292  -15.2765   20.0953 C   0  0  2  0  0  0  0  0  0  0  0  0
    7.9476  -15.0856   18.9355 N   0  0  0  0  0  0  0  0  0  0  0  0
    7.8451  -14.9671   21.3551 C   0  0  0  0  0  0  0  0  0  0  0  0
    9.0942  -15.0287   21.4614 O   0  0  0  0  0  0  0  0  0  0  0  0
    6.4325  -11.2674   27.1503 C   0  0  0  0  0  0  0  0  0  0  0  0
    7.8298  -12.2121   26.5273 S   0  0  0  0  0  0  0  0  0  0  0  0
    7.2839  -13.8999   26.1827 C   0  0  0  0  0  0  0  0  0  0  0  0
    6.7176  -14.0053   24.7981 C   0  0  0  0  0  0  0  0  0  0  0  0
    7.7657  -14.4726   23.8181 C   0  0  2  0  0  0  0  0  0  0  0  0
    7.1147  -14.5831   22.5101 N   0  0  0  0  0  0  0  0  0  0  0  0
    8.1985  -15.8193   24.2870 C   0  0  0  0  0  0  0  0  0  0  0  0
    7.3973  -16.7827   24.1125 O   0  0  0  0  0  0  0  0  0  0  0  0
    9.4547  -16.0060   24.9007 N   0  0  0  0  0  0  0  0  0  0  0  0
   10.3746  -14.9615   25.2545 C   0  0  0  0  0  0  0  0  0  0  0  0
   11.7164  -15.5661   24.8157 C   0  0  0  0  0  0  0  0  0  0  0  0
   11.5050  -17.0583   24.9121 C   0  0  0  0  0  0  0  0  0  0  0  0
   10.0629  -17.2527   25.3048 C   0  0  1  0  0  0  0  0  0  0  0  0
    9.9157  -17.4213   26.7583 C   0  0  0  0  0  0  0  0  0  0  0  0
    9.4304  -16.3891   27.5351 O   0  0  0  0  0  0  0  0  0  0  0  0
   10.2259  -18.4985   27.3169 O   0  0  0  0  0  0  0  0  0  0  0  0
  1  2  1  0
  3  5  1  0
  3  2  1  0
  3  4  1  6
  5  6  2  0
  8  7  1  0
  8  9  1  0
  9 10  1  0
 11 10  1  1
 11 13  1  0
 12  5  1  0
 12 11  1  0
 13 15  1  0
 14 13  2  0
 15 16  1  0
 15 19  1  0
 17 16  1  0
 18 17  1  0
 18 19  1  0
 19 20  1  1
 20 21  1  0
 22 20  2  0
M  END
$$$$
