SMP.pdb
     RDKit          3D

 22 22  0  0  1  0  0  0  0  0999 V2000
    7.2983  -20.2825   22.8085 O   0  0  0  0  0  0  0  0  0  0  0  0
    6.4612  -20.5101   23.9019 C   0  0  0  0  0  0  0  0  0  0  0  0
    5.2814  -19.6065   23.7643 C   0  0  2  0  0  0  0  0  0  0  0  0
    4.3333  -20.1228   22.8232 N   0  0  0  0  0  0  0  0  0  0  0  0
    5.6780  -18.2104   23.4660 C   0  0  0  0  0  0  0  0  0  0  0  0
    5.6092  -17.7139   22.3153 O   0  0  0  0  0  0  0  0  0  0  0  0
    6.5861  -11.5651   26.8949 C   0  0  0  0  0  0  0  0  0  0  0  0
    7.5247  -13.0974   26.9585 S   0  0  0  0  0  0  0  0  0  0  0  0
    7.3704  -13.9409   25.3678 C   0  0  0  0  0  0  0  0  0  0  0  0
    6.8805  -15.3459   25.5542 C   0  0  0  0  0  0  0  0  0  0  0  0
    6.6538  -16.0217   24.2241 C   0  0  2  0  0  0  0  0  0  0  0  0
    6.1626  -17.3732   24.5050 N   0  0  0  0  0  0  0  0  0  0  0  0
    7.9879  -16.0918   23.5637 C   0  0  0  0  0  0  0  0  0  0  0  0
    8.7174  -17.0911   23.8276 O   0  0  0  0  0  0  0  0  0  0  0  0
    8.4148  -15.0794   22.6790 N   0  0  0  0  0  0  0  0  0  0  0  0
    7.8846  -13.7463   22.6173 C   0  0  0  0  0  0  0  0  0  0  0  0
    7.7873  -13.5194   21.1016 C   0  0  0  0  0  0  0  0  0  0  0  0
    8.8597  -14.4091   20.5194 C   0  0  0  0  0  0  0  0  0  0  0  0
    9.4566  -15.1611   21.6813 C   0  0  1  0  0  0  0  0  0  0  0  0
   10.6709  -14.5028   22.1858 C   0  0  0  0  0  0  0  0  0  0  0  0
   11.8567  -14.5944   21.4860 O   0  0  0  0  0  0  0  0  0  0  0  0
   10.6534  -13.8495   23.2544 O   0  0  0  0  0  0  0  0  0  0  0  0
  1  2  1  0
  3  5  1  0
  3  2  1  0
  3  4  1  6
  5  6  2  0
  8  7  1  0
  8  9  1  0
  9 10  1  0
 11 10  1  1
 11 13  1  0
 12  5  1  0
 12 11  1  0
 13 15  1  0
 14 13  2  0
 15 16  1  0
 15 19  1  0
 17 16  1  0
 18 17  1  0
 18 19  1  0
 19 20  1  1
 20 21  1  0
 22 20  2  0
M  END
$$$$
