SMP.pdb
     RDKit          3D

 22 22  0  0  1  0  0  0  0  0999 V2000
    7.5226  -18.9067   20.4735 O   0  0  0  0  0  0  0  0  0  0  0  0
    6.3867  -18.0959   20.4594 C   0  0  0  0  0  0  0  0  0  0  0  0
    6.8270  -16.7054   20.1430 C   0  0  2  0  0  0  0  0  0  0  0  0
    7.4363  -16.6308   18.8490 N   0  0  0  0  0  0  0  0  0  0  0  0
    7.6820  -16.1333   21.2093 C   0  0  0  0  0  0  0  0  0  0  0  0
    8.9360  -16.1658   21.1676 O   0  0  0  0  0  0  0  0  0  0  0  0
    7.6606  -11.7866   27.7777 C   0  0  0  0  0  0  0  0  0  0  0  0
    6.6623  -12.6539   26.5594 S   0  0  0  0  0  0  0  0  0  0  0  0
    7.7543  -13.6275   25.4987 C   0  0  0  0  0  0  0  0  0  0  0  0
    7.0062  -14.1704   24.3178 C   0  0  0  0  0  0  0  0  0  0  0  0
    7.9034  -15.0204   23.4521 C   0  0  2  0  0  0  0  0  0  0  0  0
    7.0871  -15.5164   22.3410 N   0  0  0  0  0  0  0  0  0  0  0  0
    8.3450  -16.1583   24.3071 C   0  0  0  0  0  0  0  0  0  0  0  0
    7.5273  -17.1075   24.4824 O   0  0  0  0  0  0  0  0  0  0  0  0
    9.6271  -16.1705   24.8951 N   0  0  0  0  0  0  0  0  0  0  0  0
   10.5295  -15.0550   24.9536 C   0  0  0  0  0  0  0  0  0  0  0  0
   11.8711  -15.7212   24.6151 C   0  0  0  0  0  0  0  0  0  0  0  0
   11.7051  -17.1516   25.0702 C   0  0  0  0  0  0  0  0  0  0  0  0
   10.2839  -17.2741   25.5570 C   0  0  1  0  0  0  0  0  0  0  0  0
   10.1934  -17.0956   27.0139 C   0  0  0  0  0  0  0  0  0  0  0  0
   10.5505  -18.1205   27.8662 O   0  0  0  0  0  0  0  0  0  0  0  0
    9.7929  -16.0164   27.5074 O   0  0  0  0  0  0  0  0  0  0  0  0
  1  2  1  0
  3  5  1  0
  3  2  1  0
  3  4  1  6
  5  6  2  0
  8  7  1  0
  8  9  1  0
  9 10  1  0
 11 10  1  1
 11 13  1  0
 12  5  1  0
 12 11  1  0
 13 15  1  0
 14 13  2  0
 15 16  1  0
 15 19  1  0
 17 16  1  0
 18 17  1  0
 18 19  1  0
 19 20  1  1
 20 21  1  0
 22 20  2  0
M  END
$$$$
