SMP.pdb
     RDKit          3D

 22 22  0  0  1  0  0  0  0  0999 V2000
    7.4022  -20.4277   23.5351 O   0  0  0  0  0  0  0  0  0  0  0  0
    6.2080  -20.7244   22.8764 C   0  0  0  0  0  0  0  0  0  0  0  0
    5.1464  -19.8428   23.4448 C   0  0  2  0  0  0  0  0  0  0  0  0
    3.8495  -20.2017   22.9543 N   0  0  0  0  0  0  0  0  0  0  0  0
    5.4508  -18.4056   23.2523 C   0  0  0  0  0  0  0  0  0  0  0  0
    5.2322  -17.8016   22.1740 O   0  0  0  0  0  0  0  0  0  0  0  0
    7.2998  -11.6622   26.7784 C   0  0  0  0  0  0  0  0  0  0  0  0
    7.1150  -13.4382   26.9904 S   0  0  0  0  0  0  0  0  0  0  0  0
    7.0533  -14.2155   25.3602 C   0  0  0  0  0  0  0  0  0  0  0  0
    6.6543  -15.6569   25.4711 C   0  0  0  0  0  0  0  0  0  0  0  0
    6.4789  -16.2771   24.1068 C   0  0  2  0  0  0  0  0  0  0  0  0
    6.0163  -17.6519   24.3140 N   0  0  0  0  0  0  0  0  0  0  0  0
    7.8305  -16.2838   23.4792 C   0  0  0  0  0  0  0  0  0  0  0  0
    8.5549  -17.3041   23.6654 O   0  0  0  0  0  0  0  0  0  0  0  0
    8.2789  -15.1912   22.7078 N   0  0  0  0  0  0  0  0  0  0  0  0
    7.7800  -13.8474   22.7944 C   0  0  0  0  0  0  0  0  0  0  0  0
    7.6842  -13.4544   21.3129 C   0  0  0  0  0  0  0  0  0  0  0  0
    8.7338  -14.2999   20.6318 C   0  0  0  0  0  0  0  0  0  0  0  0
    9.3158  -15.1877   21.7017 C   0  0  1  0  0  0  0  0  0  0  0  0
   10.5466  -14.6165   22.2687 C   0  0  0  0  0  0  0  0  0  0  0  0
   11.7210  -14.6307   21.5442 O   0  0  0  0  0  0  0  0  0  0  0  0
   10.5537  -14.1088   23.4137 O   0  0  0  0  0  0  0  0  0  0  0  0
  1  2  1  0
  3  5  1  0
  3  2  1  0
  3  4  1  6
  5  6  2  0
  8  7  1  0
  8  9  1  0
  9 10  1  0
 11 10  1  1
 11 13  1  0
 12  5  1  0
 12 11  1  0
 13 15  1  0
 14 13  2  0
 15 16  1  0
 15 19  1  0
 17 16  1  0
 18 17  1  0
 18 19  1  0
 19 20  1  1
 20 21  1  0
 22 20  2  0
M  END
$$$$
