SMP.pdb
     RDKit          3D

 22 22  0  0  1  0  0  0  0  0999 V2000
    8.3787  -19.1945   24.0614 O   0  0  0  0  0  0  0  0  0  0  0  0
    7.8137  -19.3650   25.3261 C   0  0  0  0  0  0  0  0  0  0  0  0
    6.3797  -18.9603   25.2396 C   0  0  2  0  0  0  0  0  0  0  0  0
    5.5604  -20.0341   24.7634 N   0  0  0  0  0  0  0  0  0  0  0  0
    6.1965  -17.7143   24.4590 C   0  0  0  0  0  0  0  0  0  0  0  0
    5.7624  -17.7060   23.2814 O   0  0  0  0  0  0  0  0  0  0  0  0
    9.9857  -13.5321   28.1528 C   0  0  0  0  0  0  0  0  0  0  0  0
    8.5152  -13.1235   27.2022 S   0  0  0  0  0  0  0  0  0  0  0  0
    8.1742  -14.4724   26.0491 C   0  0  0  0  0  0  0  0  0  0  0  0
    7.0301  -14.1243   25.1441 C   0  0  0  0  0  0  0  0  0  0  0  0
    6.7103  -15.2664   24.2112 C   0  0  2  0  0  0  0  0  0  0  0  0
    6.5187  -16.4596   25.0397 N   0  0  0  0  0  0  0  0  0  0  0  0
    7.9084  -15.4373   23.3415 C   0  0  0  0  0  0  0  0  0  0  0  0
    8.6810  -16.4058   23.5972 O   0  0  0  0  0  0  0  0  0  0  0  0
    8.1651  -14.5498   22.2756 N   0  0  0  0  0  0  0  0  0  0  0  0
    7.7748  -13.1687   22.2266 C   0  0  0  0  0  0  0  0  0  0  0  0
    7.2740  -13.0374   20.7808 C   0  0  0  0  0  0  0  0  0  0  0  0
    8.0426  -14.0918   20.0203 C   0  0  0  0  0  0  0  0  0  0  0  0
    8.8669  -14.8295   21.0440 C   0  0  1  0  0  0  0  0  0  0  0  0
   10.2339  -14.2936   21.1265 C   0  0  0  0  0  0  0  0  0  0  0  0
   11.1756  -14.6343   20.1772 O   0  0  0  0  0  0  0  0  0  0  0  0
   10.5687  -13.5219   22.0545 O   0  0  0  0  0  0  0  0  0  0  0  0
  1  2  1  0
  3  5  1  0
  3  2  1  0
  3  4  1  6
  5  6  2  0
  8  7  1  0
  8  9  1  0
  9 10  1  0
 11 10  1  1
 11 13  1  0
 12  5  1  0
 12 11  1  0
 13 15  1  0
 14 13  2  0
 15 16  1  0
 15 19  1  0
 17 16  1  0
 18 17  1  0
 18 19  1  0
 19 20  1  1
 20 21  1  0
 22 20  2  0
M  END
$$$$
