SMP.pdb
     RDKit          3D

 22 22  0  0  1  0  0  0  0  0999 V2000
    7.6665  -20.5202   23.7299 O   0  0  0  0  0  0  0  0  0  0  0  0
    6.7933  -20.5074   24.8187 C   0  0  0  0  0  0  0  0  0  0  0  0
    5.5813  -19.7343   24.4177 C   0  0  2  0  0  0  0  0  0  0  0  0
    4.8030  -20.4462   23.4488 N   0  0  0  0  0  0  0  0  0  0  0  0
    5.9148  -18.3583   23.9812 C   0  0  0  0  0  0  0  0  0  0  0  0
    6.0153  -18.0325   22.7733 O   0  0  0  0  0  0  0  0  0  0  0  0
    5.8599  -11.7654   26.9348 C   0  0  0  0  0  0  0  0  0  0  0  0
    7.3205  -12.8115   27.0084 S   0  0  0  0  0  0  0  0  0  0  0  0
    7.3612  -13.8585   25.5361 C   0  0  0  0  0  0  0  0  0  0  0  0
    6.7419  -15.1956   25.8150 C   0  0  0  0  0  0  0  0  0  0  0  0
    6.6860  -16.0383   24.5645 C   0  0  2  0  0  0  0  0  0  0  0  0
    6.1379  -17.3422   24.9470 N   0  0  0  0  0  0  0  0  0  0  0  0
    8.0960  -16.1929   24.1073 C   0  0  0  0  0  0  0  0  0  0  0  0
    8.7911  -17.0964   24.6558 O   0  0  0  0  0  0  0  0  0  0  0  0
    8.6288  -15.3606   23.1007 N   0  0  0  0  0  0  0  0  0  0  0  0
    8.1278  -14.0650   22.7367 C   0  0  0  0  0  0  0  0  0  0  0  0
    8.1945  -14.1245   21.2035 C   0  0  0  0  0  0  0  0  0  0  0  0
    9.3091  -15.1014   20.9141 C   0  0  0  0  0  0  0  0  0  0  0  0
    9.7688  -15.6211   22.2522 C   0  0  1  0  0  0  0  0  0  0  0  0
   10.9327  -14.8741   22.7522 C   0  0  0  0  0  0  0  0  0  0  0  0
   12.1828  -15.0823   22.2064 O   0  0  0  0  0  0  0  0  0  0  0  0
   10.8132  -14.0389   23.6780 O   0  0  0  0  0  0  0  0  0  0  0  0
  1  2  1  0
  3  5  1  0
  3  2  1  0
  3  4  1  6
  5  6  2  0
  8  7  1  0
  8  9  1  0
  9 10  1  0
 11 10  1  1
 11 13  1  0
 12  5  1  0
 12 11  1  0
 13 15  1  0
 14 13  2  0
 15 16  1  0
 15 19  1  0
 17 16  1  0
 18 17  1  0
 18 19  1  0
 19 20  1  1
 20 21  1  0
 22 20  2  0
M  END
$$$$
