SMP.pdb
     RDKit          3D

 22 22  0  0  1  0  0  0  0  0999 V2000
   10.4906  -18.6722   21.9460 O   0  0  0  0  0  0  0  0  0  0  0  0
    9.3913  -18.0763   21.3259 C   0  0  0  0  0  0  0  0  0  0  0  0
    9.7249  -16.6399   21.0960 C   0  0  2  0  0  0  0  0  0  0  0  0
   10.8684  -16.4976   20.2455 N   0  0  0  0  0  0  0  0  0  0  0  0
    9.8615  -15.8875   22.3650 C   0  0  0  0  0  0  0  0  0  0  0  0
   10.9739  -15.5822   22.8595 O   0  0  0  0  0  0  0  0  0  0  0  0
    5.9760  -11.6734   27.7088 C   0  0  0  0  0  0  0  0  0  0  0  0
    5.8077  -12.9230   26.4270 S   0  0  0  0  0  0  0  0  0  0  0  0
    7.4434  -13.5905   26.0466 C   0  0  0  0  0  0  0  0  0  0  0  0
    7.4249  -14.3402   24.7479 C   0  0  0  0  0  0  0  0  0  0  0  0
    8.8047  -14.8335   24.3874 C   0  0  2  0  0  0  0  0  0  0  0  0
    8.7025  -15.4815   23.0772 N   0  0  0  0  0  0  0  0  0  0  0  0
    9.1683  -15.8387   25.4257 C   0  0  0  0  0  0  0  0  0  0  0  0
    9.0326  -17.0605   25.1273 O   0  0  0  0  0  0  0  0  0  0  0  0
    9.6454  -15.4366   26.6908 N   0  0  0  0  0  0  0  0  0  0  0  0
    9.3539  -14.1863   27.3343 C   0  0  0  0  0  0  0  0  0  0  0  0
   10.7275  -13.8004   27.9024 C   0  0  0  0  0  0  0  0  0  0  0  0
   11.4303  -15.1202   28.1139 C   0  0  0  0  0  0  0  0  0  0  0  0
   10.4962  -16.1810   27.5905 C   0  0  1  0  0  0  0  0  0  0  0  0
    9.6807  -16.7631   28.6669 C   0  0  0  0  0  0  0  0  0  0  0  0
   10.2607  -17.5723   29.6224 O   0  0  0  0  0  0  0  0  0  0  0  0
    8.4507  -16.5374   28.7376 O   0  0  0  0  0  0  0  0  0  0  0  0
  1  2  1  0
  3  5  1  0
  3  2  1  0
  3  4  1  1
  5  6  2  0
  8  7  1  0
  8  9  1  0
  9 10  1  0
 11 10  1  1
 11 13  1  0
 12  5  1  0
 12 11  1  0
 13 15  1  0
 14 13  2  0
 15 16  1  0
 15 19  1  0
 17 16  1  0
 18 17  1  0
 18 19  1  0
 19 20  1  1
 20 21  1  0
 22 20  2  0
M  END
$$$$
