SMP.pdb
     RDKit          3D

 22 22  0  0  1  0  0  0  0  0999 V2000
    7.2638  -18.2642   20.3318 O   0  0  0  0  0  0  0  0  0  0  0  0
    6.2930  -17.3342   19.9569 C   0  0  0  0  0  0  0  0  0  0  0  0
    6.9756  -16.0216   19.7603 C   0  0  2  0  0  0  0  0  0  0  0  0
    7.7432  -16.0065   18.5513 N   0  0  0  0  0  0  0  0  0  0  0  0
    7.7704  -15.6217   20.9451 C   0  0  0  0  0  0  0  0  0  0  0  0
    9.0154  -15.7670   21.0106 O   0  0  0  0  0  0  0  0  0  0  0  0
    7.4492  -11.8141   27.8444 C   0  0  0  0  0  0  0  0  0  0  0  0
    6.5267  -12.4531   26.4394 S   0  0  0  0  0  0  0  0  0  0  0  0
    7.6516  -13.3952   25.3846 C   0  0  0  0  0  0  0  0  0  0  0  0
    6.9634  -13.8300   24.1250 C   0  0  0  0  0  0  0  0  0  0  0  0
    7.8810  -14.6661   23.2671 C   0  0  2  0  0  0  0  0  0  0  0  0
    7.1248  -15.0482   22.0717 N   0  0  0  0  0  0  0  0  0  0  0  0
    8.2084  -15.8773   24.0713 C   0  0  0  0  0  0  0  0  0  0  0  0
    7.3274  -16.7818   24.1483 O   0  0  0  0  0  0  0  0  0  0  0  0
    9.4551  -16.0042   24.7190 N   0  0  0  0  0  0  0  0  0  0  0  0
   10.4189  -14.9533   24.8883 C   0  0  0  0  0  0  0  0  0  0  0  0
   11.7337  -15.6827   24.5757 C   0  0  0  0  0  0  0  0  0  0  0  0
   11.4581  -17.1234   24.9353 C   0  0  0  0  0  0  0  0  0  0  0  0
   10.0086  -17.1833   25.3443 C   0  0  1  0  0  0  0  0  0  0  0  0
    9.8532  -17.0829   26.8032 C   0  0  0  0  0  0  0  0  0  0  0  0
   10.0849  -18.1805   27.6070 O   0  0  0  0  0  0  0  0  0  0  0  0
    9.5096  -16.0058   27.3422 O   0  0  0  0  0  0  0  0  0  0  0  0
  1  2  1  0
  3  5  1  0
  3  2  1  0
  3  4  1  6
  5  6  2  0
  8  7  1  0
  8  9  1  0
  9 10  1  0
 11 10  1  1
 11 13  1  0
 12  5  1  0
 12 11  1  0
 13 15  1  0
 14 13  2  0
 15 16  1  0
 15 19  1  0
 17 16  1  0
 18 17  1  0
 18 19  1  0
 19 20  1  1
 20 21  1  0
 22 20  2  0
M  END
$$$$
