SMP.pdb
     RDKit          3D

 22 22  0  0  1  0  0  0  0  0999 V2000
    6.9444  -20.8952   23.9694 O   0  0  0  0  0  0  0  0  0  0  0  0
    5.6043  -20.5800   24.1993 C   0  0  0  0  0  0  0  0  0  0  0  0
    5.2066  -19.5411   23.2043 C   0  0  2  0  0  0  0  0  0  0  0  0
    5.0384  -20.1041   21.8982 N   0  0  0  0  0  0  0  0  0  0  0  0
    6.1270  -18.3799   23.2101 C   0  0  0  0  0  0  0  0  0  0  0  0
    7.0286  -18.2212   22.3516 O   0  0  0  0  0  0  0  0  0  0  0  0
    7.8299  -11.5434   26.7477 C   0  0  0  0  0  0  0  0  0  0  0  0
    6.7139  -12.9508   26.6660 S   0  0  0  0  0  0  0  0  0  0  0  0
    7.4078  -14.1790   25.5366 C   0  0  0  0  0  0  0  0  0  0  0  0
    6.4536  -15.3183   25.3356 C   0  0  0  0  0  0  0  0  0  0  0  0
    7.0060  -16.3208   24.3524 C   0  0  2  0  0  0  0  0  0  0  0  0
    6.0105  -17.3876   24.2185 N   0  0  0  0  0  0  0  0  0  0  0  0
    8.2511  -16.8606   24.9684 C   0  0  0  0  0  0  0  0  0  0  0  0
    8.1233  -17.7578   25.8511 O   0  0  0  0  0  0  0  0  0  0  0  0
    9.5203  -16.3853   24.5775 N   0  0  0  0  0  0  0  0  0  0  0  0
    9.7762  -15.1398   23.9100 C   0  0  0  0  0  0  0  0  0  0  0  0
   10.8133  -15.5577   22.8573 C   0  0  0  0  0  0  0  0  0  0  0  0
   11.5057  -16.7535   23.4668 C   0  0  0  0  0  0  0  0  0  0  0  0
   10.8006  -17.0264   24.7706 C   0  0  1  0  0  0  0  0  0  0  0  0
   11.4966  -16.3992   25.9041 C   0  0  0  0  0  0  0  0  0  0  0  0
   12.6175  -16.9915   26.4491 O   0  0  0  0  0  0  0  0  0  0  0  0
   11.0885  -15.3214   26.3945 O   0  0  0  0  0  0  0  0  0  0  0  0
  1  2  1  0
  3  5  1  0
  3  2  1  0
  3  4  1  6
  5  6  2  0
  8  7  1  0
  8  9  1  0
  9 10  1  0
 11 10  1  1
 11 13  1  0
 12  5  1  0
 12 11  1  0
 13 15  1  0
 14 13  2  0
 15 16  1  0
 15 19  1  0
 17 16  1  0
 18 17  1  0
 18 19  1  0
 19 20  1  1
 20 21  1  0
 22 20  2  0
M  END
$$$$
