SMP.pdb
     RDKit          3D

 22 22  0  0  1  0  0  0  0  0999 V2000
    7.8336  -19.9798   23.2053 O   0  0  0  0  0  0  0  0  0  0  0  0
    7.3873  -19.6985   24.4974 C   0  0  0  0  0  0  0  0  0  0  0  0
    6.0172  -19.1172   24.3865 C   0  0  2  0  0  0  0  0  0  0  0  0
    5.1396  -19.9808   23.6549 N   0  0  0  0  0  0  0  0  0  0  0  0
    6.0373  -17.7368   23.8486 C   0  0  0  0  0  0  0  0  0  0  0  0
    5.5223  -17.4278   22.7465 O   0  0  0  0  0  0  0  0  0  0  0  0
    6.8847  -11.2421   26.5124 C   0  0  0  0  0  0  0  0  0  0  0  0
    7.1255  -12.8909   27.1880 S   0  0  0  0  0  0  0  0  0  0  0  0
    6.4837  -14.1019   26.0102 C   0  0  0  0  0  0  0  0  0  0  0  0
    7.5500  -14.5228   25.0434 C   0  0  0  0  0  0  0  0  0  0  0  0
    6.9824  -15.4107   23.9633 C   0  0  2  0  0  0  0  0  0  0  0  0
    6.6599  -16.6967   24.5871 N   0  0  0  0  0  0  0  0  0  0  0  0
    8.0709  -15.5895   22.9612 C   0  0  0  0  0  0  0  0  0  0  0  0
    8.7220  -16.6736   22.9948 O   0  0  0  0  0  0  0  0  0  0  0  0
    8.3587  -14.5848   22.0140 N   0  0  0  0  0  0  0  0  0  0  0  0
    7.9633  -13.2077   22.1112 C   0  0  0  0  0  0  0  0  0  0  0  0
    7.5107  -12.9111   20.6739 C   0  0  0  0  0  0  0  0  0  0  0  0
    8.3098  -13.8698   19.8236 C   0  0  0  0  0  0  0  0  0  0  0  0
    9.1030  -14.7197   20.7829 C   0  0  1  0  0  0  0  0  0  0  0  0
   10.4636  -14.1952   20.9730 C   0  0  0  0  0  0  0  0  0  0  0  0
   10.8323  -13.6309   22.1771 O   0  0  0  0  0  0  0  0  0  0  0  0
   11.3101  -14.2500   20.0514 O   0  0  0  0  0  0  0  0  0  0  0  0
  1  2  1  0
  3  5  1  0
  3  2  1  0
  3  4  1  6
  5  6  2  0
  8  7  1  0
  8  9  1  0
  9 10  1  0
 11 10  1  1
 11 13  1  0
 12  5  1  0
 12 11  1  0
 13 15  1  0
 14 13  2  0
 15 16  1  0
 15 19  1  0
 17 16  1  0
 18 17  1  0
 18 19  1  0
 19 20  1  1
 20 21  1  0
 22 20  2  0
M  END
$$$$
