SMP.pdb
     RDKit          3D

 22 22  0  0  1  0  0  0  0  0999 V2000
    7.8379  -18.6476   20.3141 O   0  0  0  0  0  0  0  0  0  0  0  0
    6.8063  -17.7172   20.1803 C   0  0  0  0  0  0  0  0  0  0  0  0
    7.4292  -16.3804   19.9514 C   0  0  2  0  0  0  0  0  0  0  0  0
    8.2559  -16.3813   18.7818 N   0  0  0  0  0  0  0  0  0  0  0  0
    8.1407  -15.8821   21.1517 C   0  0  0  0  0  0  0  0  0  0  0  0
    9.3916  -15.8909   21.2546 O   0  0  0  0  0  0  0  0  0  0  0  0
    7.4014  -11.4387   27.5278 C   0  0  0  0  0  0  0  0  0  0  0  0
    6.5047  -12.5167   26.4022 S   0  0  0  0  0  0  0  0  0  0  0  0
    7.6946  -13.5287   25.4937 C   0  0  0  0  0  0  0  0  0  0  0  0
    7.0846  -14.0684   24.2345 C   0  0  0  0  0  0  0  0  0  0  0  0
    8.0775  -14.9064   23.4672 C   0  0  2  0  0  0  0  0  0  0  0  0
    7.4038  -15.3678   22.2506 N   0  0  0  0  0  0  0  0  0  0  0  0
    8.4008  -16.0685   24.3423 C   0  0  0  0  0  0  0  0  0  0  0  0
    7.5320  -16.9826   24.4422 O   0  0  0  0  0  0  0  0  0  0  0  0
    9.6303  -16.1405   25.0300 N   0  0  0  0  0  0  0  0  0  0  0  0
   10.5319  -15.0438   25.2455 C   0  0  0  0  0  0  0  0  0  0  0  0
   11.8925  -15.6996   24.9678 C   0  0  0  0  0  0  0  0  0  0  0  0
   11.6807  -17.1578   25.2987 C   0  0  0  0  0  0  0  0  0  0  0  0
   10.2237  -17.2986   25.6578 C   0  0  1  0  0  0  0  0  0  0  0  0
   10.0153  -17.2283   27.1119 C   0  0  0  0  0  0  0  0  0  0  0  0
    9.4557  -16.1038   27.6833 O   0  0  0  0  0  0  0  0  0  0  0  0
   10.3397  -18.1819   27.8563 O   0  0  0  0  0  0  0  0  0  0  0  0
  1  2  1  0
  3  5  1  0
  3  2  1  0
  3  4  1  6
  5  6  2  0
  8  7  1  0
  8  9  1  0
  9 10  1  0
 11 10  1  1
 11 13  1  0
 12  5  1  0
 12 11  1  0
 13 15  1  0
 14 13  2  0
 15 16  1  0
 15 19  1  0
 17 16  1  0
 18 17  1  0
 18 19  1  0
 19 20  1  1
 20 21  1  0
 22 20  2  0
M  END
$$$$
