SMP.pdb
     RDKit          3D

 22 22  0  0  1  0  0  0  0  0999 V2000
    6.5205  -21.4321   24.8903 O   0  0  0  0  0  0  0  0  0  0  0  0
    6.7343  -20.0873   25.1962 C   0  0  0  0  0  0  0  0  0  0  0  0
    5.6515  -19.2964   24.5409 C   0  0  2  0  0  0  0  0  0  0  0  0
    4.9643  -20.0698   23.5505 N   0  0  0  0  0  0  0  0  0  0  0  0
    6.1451  -18.0031   24.0125 C   0  0  0  0  0  0  0  0  0  0  0  0
    6.3102  -17.7864   22.7873 O   0  0  0  0  0  0  0  0  0  0  0  0
    7.5012  -11.6280   26.5821 C   0  0  0  0  0  0  0  0  0  0  0  0
    6.3317  -12.8854   27.1152 S   0  0  0  0  0  0  0  0  0  0  0  0
    6.1874  -14.1338   25.8167 C   0  0  0  0  0  0  0  0  0  0  0  0
    7.4595  -14.9171   25.6859 C   0  0  0  0  0  0  0  0  0  0  0  0
    7.3869  -15.8789   24.5254 C   0  0  2  0  0  0  0  0  0  0  0  0
    6.4553  -16.9441   24.9054 N   0  0  0  0  0  0  0  0  0  0  0  0
    8.7595  -16.4364   24.3644 C   0  0  0  0  0  0  0  0  0  0  0  0
    9.0492  -17.4735   25.0282 O   0  0  0  0  0  0  0  0  0  0  0  0
    9.6951  -15.8263   23.5028 N   0  0  0  0  0  0  0  0  0  0  0  0
    9.6328  -14.4730   23.0264 C   0  0  0  0  0  0  0  0  0  0  0  0
   10.0193  -14.6442   21.5500 C   0  0  0  0  0  0  0  0  0  0  0  0
   10.8848  -15.8816   21.5298 C   0  0  0  0  0  0  0  0  0  0  0  0
   10.8900  -16.4124   22.9405 C   0  0  1  0  0  0  0  0  0  0  0  0
   12.0650  -15.9444   23.6907 C   0  0  0  0  0  0  0  0  0  0  0  0
   11.9134  -15.0899   24.7635 O   0  0  0  0  0  0  0  0  0  0  0  0
   13.2201  -16.3099   23.3728 O   0  0  0  0  0  0  0  0  0  0  0  0
  1  2  1  0
  3  5  1  0
  3  2  1  0
  3  4  1  6
  5  6  2  0
  8  7  1  0
  8  9  1  0
  9 10  1  0
 11 10  1  1
 11 13  1  0
 12  5  1  0
 12 11  1  0
 13 15  1  0
 14 13  2  0
 15 16  1  0
 15 19  1  0
 17 16  1  0
 18 17  1  0
 18 19  1  0
 19 20  1  1
 20 21  1  0
 22 20  2  0
M  END
$$$$
