SMP.pdb
     RDKit          3D

 22 22  0  0  1  0  0  0  0  0999 V2000
    7.6679  -20.1841   22.9657 O   0  0  0  0  0  0  0  0  0  0  0  0
    6.8810  -20.5054   24.0727 C   0  0  0  0  0  0  0  0  0  0  0  0
    5.6143  -19.7227   23.9701 C   0  0  2  0  0  0  0  0  0  0  0  0
    4.6761  -20.3575   23.0938 N   0  0  0  0  0  0  0  0  0  0  0  0
    5.8598  -18.3060   23.6124 C   0  0  0  0  0  0  0  0  0  0  0  0
    5.6771  -17.8540   22.4559 O   0  0  0  0  0  0  0  0  0  0  0  0
    6.4006  -11.6042   26.8519 C   0  0  0  0  0  0  0  0  0  0  0  0
    7.5727  -12.9674   26.8266 S   0  0  0  0  0  0  0  0  0  0  0  0
    7.3790  -13.8727   25.2747 C   0  0  0  0  0  0  0  0  0  0  0  0
    7.0101  -15.3030   25.5339 C   0  0  0  0  0  0  0  0  0  0  0  0
    6.7187  -16.0298   24.2439 C   0  0  2  0  0  0  0  0  0  0  0  0
    6.3239  -17.3957   24.5979 N   0  0  0  0  0  0  0  0  0  0  0  0
    8.0000  -16.0510   23.4832 C   0  0  0  0  0  0  0  0  0  0  0  0
    8.7777  -17.0296   23.6781 O   0  0  0  0  0  0  0  0  0  0  0  0
    8.3270  -15.0166   22.5817 N   0  0  0  0  0  0  0  0  0  0  0  0
    7.7661  -13.6947   22.5886 C   0  0  0  0  0  0  0  0  0  0  0  0
    7.5320  -13.4475   21.0911 C   0  0  0  0  0  0  0  0  0  0  0  0
    8.5675  -14.3048   20.4030 C   0  0  0  0  0  0  0  0  0  0  0  0
    9.2790  -15.0606   21.4958 C   0  0  1  0  0  0  0  0  0  0  0  0
   10.5190  -14.3833   21.9035 C   0  0  0  0  0  0  0  0  0  0  0  0
   10.6276  -13.8227   23.1597 O   0  0  0  0  0  0  0  0  0  0  0  0
   11.4956  -14.3022   21.1234 O   0  0  0  0  0  0  0  0  0  0  0  0
  1  2  1  0
  3  5  1  0
  3  2  1  0
  3  4  1  6
  5  6  2  0
  8  7  1  0
  8  9  1  0
  9 10  1  0
 11 10  1  1
 11 13  1  0
 12  5  1  0
 12 11  1  0
 13 15  1  0
 14 13  2  0
 15 16  1  0
 15 19  1  0
 17 16  1  0
 18 17  1  0
 18 19  1  0
 19 20  1  1
 20 21  1  0
 22 20  2  0
M  END
$$$$
