KIH.pdb
     RDKit          3D

 28 28  0  0  1  0  0  0  0  0999 V2000
   27.4052  -22.2075  -16.6768 N   0  0  0  0  0  0  0  0  0  0  0  0
   26.6233  -21.1039  -16.2099 C   0  0  1  0  0  0  0  0  0  0  0  0
   25.8506  -20.4374  -17.3270 C   0  0  0  0  0  0  0  0  0  0  0  0
   26.7229  -19.9421  -18.4260 C   0  0  0  0  0  0  0  0  0  0  0  0
   27.8954  -19.1412  -17.9887 C   0  0  0  0  0  0  0  0  0  0  0  0
   28.7103  -18.5819  -19.1291 C   0  0  0  0  0  0  0  0  0  0  0  0
   29.8694  -17.9183  -18.5104 N   0  0  0  0  0  0  0  0  0  0  0  0
   25.6860  -21.4856  -15.1217 C   0  0  0  0  0  0  0  0  0  0  0  0
   24.9716  -22.5161  -15.3028 O   0  0  0  0  0  0  0  0  0  0  0  0
   26.9736  -20.9797   -9.8214 C   0  0  0  0  0  0  0  0  0  0  0  0
   26.4166  -21.5283  -11.1613 C   0  0  0  0  0  0  0  0  0  0  0  0
   25.2139  -20.7482  -11.5226 C   0  0  2  0  0  0  0  0  0  0  0  0
   24.1096  -20.9371  -10.4828 C   0  0  0  0  0  0  0  0  0  0  0  0
   24.6191  -21.1114  -12.8475 C   0  0  2  0  0  0  0  0  0  0  0  0
   25.5642  -20.7561  -13.9161 N   0  0  0  0  0  0  0  0  0  0  0  0
   23.3868  -20.3315  -13.0744 C   0  0  0  0  0  0  0  0  0  0  0  0
   23.4518  -19.0633  -12.9509 O   0  0  0  0  0  0  0  0  0  0  0  0
   22.1223  -20.8606  -13.4268 N   0  0  0  0  0  0  0  0  0  0  0  0
   20.9842  -19.9536  -13.5532 C   0  0  1  0  0  0  0  0  0  0  0  0
   20.2645  -20.1953  -14.8672 C   0  0  0  0  0  0  0  0  0  0  0  0
   21.1106  -19.7976  -16.0182 C   0  0  0  0  0  0  0  0  0  0  0  0
   22.0780  -18.8310  -16.0583 C   0  0  0  0  0  0  0  0  0  0  0  0
   22.5740  -18.8240  -17.2969 N   0  0  0  0  0  0  0  0  0  0  0  0
   21.9275  -19.7644  -18.0045 C   0  0  0  0  0  0  0  0  0  0  0  0
   21.0168  -20.3775  -17.2270 N   0  0  0  0  0  0  0  0  0  0  0  0
   19.9839  -20.1373  -12.4844 C   0  0  0  0  0  0  0  0  0  0  0  0
   18.9364  -19.2457  -12.3833 O   0  0  0  0  0  0  0  0  0  0  0  0
   20.0462  -21.0807  -11.6539 O   0  0  0  0  0  0  0  0  0  0  0  0
  2  1  1  6
  2  3  1  0
  3  4  1  0
  4  5  1  0
  5  6  1  0
  7  6  1  0
  8  2  1  0
  9  8  2  0
 10 11  1  0
 11 12  1  0
 12 14  1  0
 12 13  1  1
 14 15  1  6
 15  8  1  0
 16 14  1  0
 16 18  1  0
 17 16  2  0
 19 18  1  0
 19 26  1  0
 19 20  1  6
 20 21  1  0
 21 25  1  0
 22 21  2  0
 22 23  1  0
 23 24  1  0
 25 24  2  0
 26 27  1  0
 28 26  2  0
M  END
$$$$
