KIH.pdb
     RDKit          3D

 28 28  0  0  1  0  0  0  0  0999 V2000
   20.8728  -20.3400  -10.9450 N   0  0  0  0  0  0  0  0  0  0  0  0
   21.6762  -21.1186  -11.8368 C   0  0  1  0  0  0  0  0  0  0  0  0
   20.9055  -21.5625  -13.0609 C   0  0  0  0  0  0  0  0  0  0  0  0
   19.4746  -21.8547  -12.7760 C   0  0  0  0  0  0  0  0  0  0  0  0
   18.7146  -22.4480  -13.9064 C   0  0  0  0  0  0  0  0  0  0  0  0
   17.2667  -22.7281  -13.5863 C   0  0  0  0  0  0  0  0  0  0  0  0
   16.6971  -23.3442  -14.7957 N   0  0  0  0  0  0  0  0  0  0  0  0
   22.9112  -20.4099  -12.2621 C   0  0  0  0  0  0  0  0  0  0  0  0
   22.9330  -19.1496  -12.1346 O   0  0  0  0  0  0  0  0  0  0  0  0
   27.3551  -21.5763  -10.1336 C   0  0  0  0  0  0  0  0  0  0  0  0
   26.1698  -20.8831  -10.8554 C   0  0  0  0  0  0  0  0  0  0  0  0
   26.4074  -20.9473  -12.3131 C   0  0  2  0  0  0  0  0  0  0  0  0
   27.6656  -20.1676  -12.6946 C   0  0  0  0  0  0  0  0  0  0  0  0
   25.2929  -20.3917  -13.1440 C   0  0  2  0  0  0  0  0  0  0  0  0
   24.0400  -21.0764  -12.7933 N   0  0  0  0  0  0  0  0  0  0  0  0
   25.5525  -20.6565  -14.5725 C   0  0  0  0  0  0  0  0  0  0  0  0
   25.0997  -21.7403  -15.0706 O   0  0  0  0  0  0  0  0  0  0  0  0
   26.2605  -19.8098  -15.4587 N   0  0  0  0  0  0  0  0  0  0  0  0
   25.6544  -19.4595  -16.7408 C   0  0  1  0  0  0  0  0  0  0  0  0
   24.3777  -18.6698  -16.5189 C   0  0  0  0  0  0  0  0  0  0  0  0
   23.7396  -18.3162  -17.8100 C   0  0  0  0  0  0  0  0  0  0  0  0
   23.6690  -19.0706  -18.9491 C   0  0  0  0  0  0  0  0  0  0  0  0
   23.0038  -18.3514  -19.8549 N   0  0  0  0  0  0  0  0  0  0  0  0
   22.6718  -17.1805  -19.2877 C   0  0  0  0  0  0  0  0  0  0  0  0
   23.1203  -17.1421  -18.0200 N   0  0  0  0  0  0  0  0  0  0  0  0
   26.5308  -18.6179  -17.5777 C   0  0  0  0  0  0  0  0  0  0  0  0
   26.7454  -18.9712  -18.8936 O   0  0  0  0  0  0  0  0  0  0  0  0
   27.0957  -17.5828  -17.1384 O   0  0  0  0  0  0  0  0  0  0  0  0
  2  1  1  6
  2  3  1  0
  3  4  1  0
  4  5  1  0
  5  6  1  0
  7  6  1  0
  8  2  1  0
  9  8  2  0
 10 11  1  0
 11 12  1  0
 12 14  1  0
 12 13  1  1
 14 15  1  1
 15  8  1  0
 16 14  1  0
 16 18  1  0
 17 16  2  0
 19 18  1  0
 19 26  1  0
 19 20  1  1
 20 21  1  0
 21 25  1  0
 22 21  2  0
 22 23  1  0
 23 24  1  0
 25 24  2  0
 26 27  1  0
 28 26  2  0
M  END
$$$$
