KIH.pdb
     RDKit          3D

 28 28  0  0  1  0  0  0  0  0999 V2000
   23.8357  -15.5317  -17.4378 N   0  0  0  0  0  0  0  0  0  0  0  0
   23.5698  -14.1486  -17.6900 C   0  0  1  0  0  0  0  0  0  0  0  0
   22.0926  -13.8731  -17.8660 C   0  0  0  0  0  0  0  0  0  0  0  0
   21.2286  -14.8008  -17.0869 C   0  0  0  0  0  0  0  0  0  0  0  0
   19.7728  -14.6871  -17.3610 C   0  0  0  0  0  0  0  0  0  0  0  0
   18.9155  -15.5474  -16.4652 C   0  0  0  0  0  0  0  0  0  0  0  0
   17.5271  -15.3288  -16.9028 N   0  0  0  0  0  0  0  0  0  0  0  0
   24.1146  -13.2584  -16.6321 C   0  0  0  0  0  0  0  0  0  0  0  0
   23.9864  -13.6361  -15.4296 O   0  0  0  0  0  0  0  0  0  0  0  0
   29.0492  -11.8562  -16.8476 C   0  0  0  0  0  0  0  0  0  0  0  0
   27.6310  -12.2216  -16.3357 C   0  0  0  0  0  0  0  0  0  0  0  0
   26.8325  -10.9809  -16.2440 C   0  0  2  0  0  0  0  0  0  0  0  0
   27.4102  -10.0381  -15.1886 C   0  0  0  0  0  0  0  0  0  0  0  0
   25.3962  -11.1981  -15.8818 C   0  0  2  0  0  0  0  0  0  0  0  0
   24.7577  -12.0302  -16.9120 N   0  0  0  0  0  0  0  0  0  0  0  0
   24.6842   -9.9055  -15.8583 C   0  0  0  0  0  0  0  0  0  0  0  0
   24.9930   -9.0705  -14.9444 O   0  0  0  0  0  0  0  0  0  0  0  0
   23.6813   -9.4932  -16.7679 N   0  0  0  0  0  0  0  0  0  0  0  0
   23.0941   -8.1638  -16.6213 C   0  0  1  0  0  0  0  0  0  0  0  0
   22.7447   -7.5918  -17.9828 C   0  0  0  0  0  0  0  0  0  0  0  0
   22.1667   -6.2320  -17.8562 C   0  0  0  0  0  0  0  0  0  0  0  0
   22.2726   -5.3666  -16.8020 C   0  0  0  0  0  0  0  0  0  0  0  0
   21.5950   -4.2649  -17.1296 N   0  0  0  0  0  0  0  0  0  0  0  0
   21.0830   -4.4466  -18.3576 C   0  0  0  0  0  0  0  0  0  0  0  0
   21.4279   -5.6609  -18.8227 N   0  0  0  0  0  0  0  0  0  0  0  0
   21.8459   -8.1725  -15.8347 C   0  0  0  0  0  0  0  0  0  0  0  0
   21.3521   -6.9819  -15.3438 O   0  0  0  0  0  0  0  0  0  0  0  0
   21.2072   -9.2289  -15.5903 O   0  0  0  0  0  0  0  0  0  0  0  0
  2  1  1  1
  2  3  1  0
  3  4  1  0
  4  5  1  0
  5  6  1  0
  7  6  1  0
  8  2  1  0
  9  8  2  0
 10 11  1  0
 11 12  1  0
 12 14  1  0
 12 13  1  1
 14 15  1  6
 15  8  1  0
 16 14  1  0
 16 18  1  0
 17 16  2  0
 19 18  1  0
 19 26  1  0
 19 20  1  6
 20 21  1  0
 21 25  1  0
 22 21  2  0
 22 23  1  0
 23 24  1  0
 25 24  2  0
 26 27  1  0
 28 26  2  0
M  END
$$$$
