KIH.pdb
     RDKit          3D

 28 28  0  0  1  0  0  0  0  0999 V2000
   28.7291  -21.9264  -15.7600 N   0  0  0  0  0  0  0  0  0  0  0  0
   27.8743  -20.8772  -15.2959 C   0  0  1  0  0  0  0  0  0  0  0  0
   27.3425  -20.0289  -16.4302 C   0  0  0  0  0  0  0  0  0  0  0  0
   28.3381  -19.8133  -17.5148 C   0  0  0  0  0  0  0  0  0  0  0  0
   28.5110  -18.4005  -17.9408 C   0  0  0  0  0  0  0  0  0  0  0  0
   29.4857  -18.2227  -19.0793 C   0  0  0  0  0  0  0  0  0  0  0  0
   29.5754  -16.7720  -19.3119 N   0  0  0  0  0  0  0  0  0  0  0  0
   26.7373  -21.3819  -14.4829 C   0  0  0  0  0  0  0  0  0  0  0  0
   26.1686  -22.4448  -14.8730 O   0  0  0  0  0  0  0  0  0  0  0  0
   26.5541  -20.2730   -9.0172 C   0  0  0  0  0  0  0  0  0  0  0  0
   26.4861  -21.1013  -10.3271 C   0  0  0  0  0  0  0  0  0  0  0  0
   25.3052  -20.6599  -11.0992 C   0  0  2  0  0  0  0  0  0  0  0  0
   24.0117  -21.0130  -10.3655 C   0  0  0  0  0  0  0  0  0  0  0  0
   25.2003  -21.2654  -12.4644 C   0  0  2  0  0  0  0  0  0  0  0  0
   26.2758  -20.7333  -13.3138 N   0  0  0  0  0  0  0  0  0  0  0  0
   23.9186  -20.8802  -13.0864 C   0  0  0  0  0  0  0  0  0  0  0  0
   23.7168  -19.6424  -13.3204 O   0  0  0  0  0  0  0  0  0  0  0  0
   22.8781  -21.7640  -13.4599 N   0  0  0  0  0  0  0  0  0  0  0  0
   21.6484  -21.2134  -14.0243 C   0  0  1  0  0  0  0  0  0  0  0  0
   20.8626  -22.3023  -14.7314 C   0  0  0  0  0  0  0  0  0  0  0  0
   19.6360  -21.7520  -15.3573 C   0  0  0  0  0  0  0  0  0  0  0  0
   19.1623  -20.4699  -15.2975 C   0  0  0  0  0  0  0  0  0  0  0  0
   18.0328  -20.4358  -16.0071 N   0  0  0  0  0  0  0  0  0  0  0  0
   17.8149  -21.6684  -16.4933 C   0  0  0  0  0  0  0  0  0  0  0  0
   18.7993  -22.4967  -16.1001 N   0  0  0  0  0  0  0  0  0  0  0  0
   20.7523  -20.6444  -12.9996 C   0  0  0  0  0  0  0  0  0  0  0  0
   19.9812  -19.5454  -13.3160 O   0  0  0  0  0  0  0  0  0  0  0  0
   20.6609  -21.1230  -11.8394 O   0  0  0  0  0  0  0  0  0  0  0  0
  2  1  1  6
  2  3  1  0
  3  4  1  0
  4  5  1  0
  5  6  1  0
  7  6  1  0
  8  2  1  0
  9  8  2  0
 10 11  1  0
 11 12  1  0
 12 14  1  0
 12 13  1  1
 14 15  1  6
 15  8  1  0
 16 14  1  0
 16 18  1  0
 17 16  2  0
 19 18  1  0
 19 26  1  0
 19 20  1  1
 20 21  1  0
 21 25  1  0
 22 21  2  0
 22 23  1  0
 23 24  1  0
 25 24  2  0
 26 27  1  0
 28 26  2  0
M  END
$$$$
