KIH.pdb
     RDKit          3D

 28 28  0  0  1  0  0  0  0  0999 V2000
   14.4734  -15.5116  -12.8599 N   0  0  0  0  0  0  0  0  0  0  0  0
   14.2078  -14.1563  -13.2339 C   0  0  1  0  0  0  0  0  0  0  0  0
   12.8539  -13.6846  -12.7506 C   0  0  0  0  0  0  0  0  0  0  0  0
   12.2183  -14.6232  -11.7867 C   0  0  0  0  0  0  0  0  0  0  0  0
   10.7943  -14.3375  -11.4736 C   0  0  0  0  0  0  0  0  0  0  0  0
   10.1526  -15.3608  -10.5688 C   0  0  0  0  0  0  0  0  0  0  0  0
    8.7464  -14.9496  -10.4267 N   0  0  0  0  0  0  0  0  0  0  0  0
   15.2556  -13.2153  -12.7597 C   0  0  0  0  0  0  0  0  0  0  0  0
   15.9139  -13.5472  -11.7292 O   0  0  0  0  0  0  0  0  0  0  0  0
   18.7952  -11.3100  -16.2402 C   0  0  0  0  0  0  0  0  0  0  0  0
   18.0538  -11.8682  -14.9971 C   0  0  0  0  0  0  0  0  0  0  0  0
   17.4131  -10.7400  -14.2885 C   0  0  2  0  0  0  0  0  0  0  0  0
   18.4512   -9.6979  -13.8729 C   0  0  0  0  0  0  0  0  0  0  0  0
   16.6793  -11.1313  -13.0437 C   0  0  2  0  0  0  0  0  0  0  0  0
   15.5397  -11.9879  -13.4027 N   0  0  0  0  0  0  0  0  0  0  0  0
   16.1338   -9.9288  -12.3844 C   0  0  0  0  0  0  0  0  0  0  0  0
   15.2421   -9.2603  -13.0054 O   0  0  0  0  0  0  0  0  0  0  0  0
   16.5047   -9.4409  -11.1086 N   0  0  0  0  0  0  0  0  0  0  0  0
   15.8105   -8.2760  -10.5656 C   0  0  1  0  0  0  0  0  0  0  0  0
   16.0232   -8.1909   -9.0655 C   0  0  0  0  0  0  0  0  0  0  0  0
   15.3642   -6.9878   -8.5020 C   0  0  0  0  0  0  0  0  0  0  0  0
   14.6883   -6.0056   -9.1729 C   0  0  0  0  0  0  0  0  0  0  0  0
   14.2677   -5.1266   -8.2616 N   0  0  0  0  0  0  0  0  0  0  0  0
   14.6748   -5.5566   -7.0564 C   0  0  0  0  0  0  0  0  0  0  0  0
   15.3560   -6.7092   -7.1873 N   0  0  0  0  0  0  0  0  0  0  0  0
   16.2961   -7.0037  -11.1332 C   0  0  0  0  0  0  0  0  0  0  0  0
   15.3808   -6.0483  -11.5229 O   0  0  0  0  0  0  0  0  0  0  0  0
   17.5203   -6.7508  -11.2784 O   0  0  0  0  0  0  0  0  0  0  0  0
  2  1  1  1
  2  3  1  0
  3  4  1  0
  4  5  1  0
  5  6  1  0
  7  6  1  0
  8  2  1  0
  9  8  2  0
 10 11  1  0
 11 12  1  0
 12 14  1  0
 12 13  1  1
 14 15  1  6
 15  8  1  0
 16 14  1  0
 16 18  1  0
 17 16  2  0
 19 18  1  0
 19 26  1  0
 19 20  1  1
 20 21  1  0
 21 25  1  0
 22 21  2  0
 22 23  1  0
 23 24  1  0
 25 24  2  0
 26 27  1  0
 28 26  2  0
M  END
$$$$
