KIH.pdb
     RDKit          3D

 28 28  0  0  1  0  0  0  0  0999 V2000
   27.9468  -21.2678  -15.4281 N   0  0  0  0  0  0  0  0  0  0  0  0
   27.3965  -20.3108  -14.5179 C   0  0  1  0  0  0  0  0  0  0  0  0
   26.8949  -19.0712  -15.2257 C   0  0  0  0  0  0  0  0  0  0  0  0
   27.9736  -18.3194  -15.9221 C   0  0  0  0  0  0  0  0  0  0  0  0
   28.1097  -18.6097  -17.3728 C   0  0  0  0  0  0  0  0  0  0  0  0
   29.2371  -17.8609  -18.0405 C   0  0  0  0  0  0  0  0  0  0  0  0
   29.3339  -18.4076  -19.4038 N   0  0  0  0  0  0  0  0  0  0  0  0
   26.3057  -20.8764  -13.6820 C   0  0  0  0  0  0  0  0  0  0  0  0
   25.6848  -21.8826  -14.1372 O   0  0  0  0  0  0  0  0  0  0  0  0
   26.7757  -20.2983   -8.3466 C   0  0  0  0  0  0  0  0  0  0  0  0
   26.4216  -21.0758   -9.6415 C   0  0  0  0  0  0  0  0  0  0  0  0
   25.1318  -20.5673  -10.1547 C   0  0  2  0  0  0  0  0  0  0  0  0
   23.9631  -21.1379   -9.3516 C   0  0  0  0  0  0  0  0  0  0  0  0
   24.8659  -20.8998  -11.5900 C   0  0  2  0  0  0  0  0  0  0  0  0
   25.9424  -20.3442  -12.4230 N   0  0  0  0  0  0  0  0  0  0  0  0
   23.6045  -20.2691  -12.0252 C   0  0  0  0  0  0  0  0  0  0  0  0
   23.6791  -19.1922  -12.7052 O   0  0  0  0  0  0  0  0  0  0  0  0
   22.3005  -20.7529  -11.7628 N   0  0  0  0  0  0  0  0  0  0  0  0
   21.2486  -20.5284  -12.7511 C   0  0  1  0  0  0  0  0  0  0  0  0
   21.5800  -21.2521  -14.0432 C   0  0  0  0  0  0  0  0  0  0  0  0
   21.8180  -20.2897  -15.1460 C   0  0  0  0  0  0  0  0  0  0  0  0
   21.6826  -18.9285  -15.1201 C   0  0  0  0  0  0  0  0  0  0  0  0
   22.0022  -18.4796  -16.3352 N   0  0  0  0  0  0  0  0  0  0  0  0
   22.3272  -19.5393  -17.0932 C   0  0  0  0  0  0  0  0  0  0  0  0
   22.2184  -20.6694  -16.3715 N   0  0  0  0  0  0  0  0  0  0  0  0
   19.9330  -21.0310  -12.3118 C   0  0  0  0  0  0  0  0  0  0  0  0
   18.7930  -20.3554  -12.6943 O   0  0  0  0  0  0  0  0  0  0  0  0
   19.8054  -22.0586  -11.5966 O   0  0  0  0  0  0  0  0  0  0  0  0
  2  1  1  6
  2  3  1  0
  3  4  1  0
  4  5  1  0
  5  6  1  0
  7  6  1  0
  8  2  1  0
  9  8  2  0
 10 11  1  0
 11 12  1  0
 12 14  1  0
 12 13  1  1
 14 15  1  6
 15  8  1  0
 16 14  1  0
 16 18  1  0
 17 16  2  0
 19 18  1  0
 19 26  1  0
 19 20  1  6
 20 21  1  0
 21 25  1  0
 22 21  2  0
 22 23  1  0
 23 24  1  0
 25 24  2  0
 26 27  1  0
 28 26  2  0
M  END
$$$$
