KIH.pdb
     RDKit          3D

 28 28  0  0  1  0  0  0  0  0999 V2000
   12.3983  -14.9012    2.6049 N   0  0  0  0  0  0  0  0  0  0  0  0
   13.1480  -14.1753    3.5838 C   0  0  1  0  0  0  0  0  0  0  0  0
   12.3171  -13.8304    4.8003 C   0  0  0  0  0  0  0  0  0  0  0  0
   11.1084  -13.0266    4.4732 C   0  0  0  0  0  0  0  0  0  0  0  0
   10.2534  -12.6716    5.6352 C   0  0  0  0  0  0  0  0  0  0  0  0
    9.0726  -11.8018    5.2793 C   0  0  0  0  0  0  0  0  0  0  0  0
    8.3460  -11.5714    6.5385 N   0  0  0  0  0  0  0  0  0  0  0  0
   14.3760  -14.8936    4.0132 C   0  0  0  0  0  0  0  0  0  0  0  0
   14.5350  -16.0783    3.5934 O   0  0  0  0  0  0  0  0  0  0  0  0
   18.9386  -11.7135    4.8459 C   0  0  0  0  0  0  0  0  0  0  0  0
   18.0583  -12.8548    4.2721 C   0  0  0  0  0  0  0  0  0  0  0  0
   17.6396  -13.7291    5.3883 C   0  0  2  0  0  0  0  0  0  0  0  0
   18.8513  -14.3828    6.0521 C   0  0  0  0  0  0  0  0  0  0  0  0
   16.7206  -14.8411    4.9883 C   0  0  2  0  0  0  0  0  0  0  0  0
   15.3539  -14.3157    4.8561 N   0  0  0  0  0  0  0  0  0  0  0  0
   16.6938  -15.8732    6.0430 C   0  0  0  0  0  0  0  0  0  0  0  0
   16.1720  -15.5656    7.1659 O   0  0  0  0  0  0  0  0  0  0  0  0
   17.1926  -17.1926    5.9266 N   0  0  0  0  0  0  0  0  0  0  0  0
   17.0047  -18.1223    7.0375 C   0  0  1  0  0  0  0  0  0  0  0  0
   17.1186  -19.5542    6.5479 C   0  0  0  0  0  0  0  0  0  0  0  0
   16.8342  -20.5146    7.6414 C   0  0  0  0  0  0  0  0  0  0  0  0
   16.6434  -20.2467    8.9694 C   0  0  0  0  0  0  0  0  0  0  0  0
   16.4172  -21.4132    9.5761 N   0  0  0  0  0  0  0  0  0  0  0  0
   16.4674  -22.3785    8.6440 C   0  0  0  0  0  0  0  0  0  0  0  0
   16.7249  -21.8387    7.4389 N   0  0  0  0  0  0  0  0  0  0  0  0
   18.0158  -17.9580    8.0993 C   0  0  0  0  0  0  0  0  0  0  0  0
   17.6134  -17.9691    9.4185 O   0  0  0  0  0  0  0  0  0  0  0  0
   19.2400  -17.8068    7.8505 O   0  0  0  0  0  0  0  0  0  0  0  0
  2  1  1  6
  2  3  1  0
  3  4  1  0
  4  5  1  0
  5  6  1  0
  7  6  1  0
  8  2  1  0
  9  8  2  0
 10 11  1  0
 11 12  1  0
 12 14  1  0
 12 13  1  6
 14 15  1  1
 15  8  1  0
 16 14  1  0
 16 18  1  0
 17 16  2  0
 19 18  1  0
 19 26  1  0
 19 20  1  6
 20 21  1  0
 21 25  1  0
 22 21  2  0
 22 23  1  0
 23 24  1  0
 25 24  2  0
 26 27  1  0
 28 26  2  0
M  END
$$$$
