KIH.pdb
     RDKit          3D

 28 28  0  0  1  0  0  0  0  0999 V2000
   19.9903  -32.7745   -4.5323 N   0  0  0  0  0  0  0  0  0  0  0  0
   19.0198  -32.3892   -3.5541 C   0  0  1  0  0  0  0  0  0  0  0  0
   18.5550  -33.5609   -2.7174 C   0  0  0  0  0  0  0  0  0  0  0  0
   17.8474  -34.6015   -3.5114 C   0  0  0  0  0  0  0  0  0  0  0  0
   16.3923  -34.3694   -3.7012 C   0  0  0  0  0  0  0  0  0  0  0  0
   15.6718  -35.5232   -4.3548 C   0  0  0  0  0  0  0  0  0  0  0  0
   14.2560  -35.1267   -4.4274 N   0  0  0  0  0  0  0  0  0  0  0  0
   19.5066  -31.3070   -2.6595 C   0  0  0  0  0  0  0  0  0  0  0  0
   20.7603  -31.1613   -2.5499 O   0  0  0  0  0  0  0  0  0  0  0  0
   18.6979  -26.5092   -3.7693 C   0  0  0  0  0  0  0  0  0  0  0  0
   19.2058  -27.8636   -3.2088 C   0  0  0  0  0  0  0  0  0  0  0  0
   18.6710  -28.0342   -1.8412 C   0  0  2  0  0  0  0  0  0  0  0  0
   19.1059  -26.8800   -0.9385 C   0  0  0  0  0  0  0  0  0  0  0  0
   19.1075  -29.2949   -1.1619 C   0  0  2  0  0  0  0  0  0  0  0  0
   18.6400  -30.4511   -1.9405 N   0  0  0  0  0  0  0  0  0  0  0  0
   18.4865  -29.3854    0.1739 C   0  0  0  0  0  0  0  0  0  0  0  0
   17.2766  -28.9996    0.2970 O   0  0  0  0  0  0  0  0  0  0  0  0
   19.1096  -29.8712    1.3481 N   0  0  0  0  0  0  0  0  0  0  0  0
   18.3502  -29.8959    2.5957 C   0  0  1  0  0  0  0  0  0  0  0  0
   18.9435  -30.9151    3.5508 C   0  0  0  0  0  0  0  0  0  0  0  0
   18.0672  -31.1117    4.7308 C   0  0  0  0  0  0  0  0  0  0  0  0
   16.7410  -31.4472    4.7485 C   0  0  0  0  0  0  0  0  0  0  0  0
   16.3705  -31.5135    6.0286 N   0  0  0  0  0  0  0  0  0  0  0  0
   17.4433  -31.2254    6.7830 C   0  0  0  0  0  0  0  0  0  0  0  0
   18.5038  -30.9738    5.9944 N   0  0  0  0  0  0  0  0  0  0  0  0
   18.3639  -28.5997    3.3003 C   0  0  0  0  0  0  0  0  0  0  0  0
   17.5151  -28.4069    4.3703 O   0  0  0  0  0  0  0  0  0  0  0  0
   19.1234  -27.6544    2.9639 O   0  0  0  0  0  0  0  0  0  0  0  0
  2  1  1  6
  2  3  1  0
  3  4  1  0
  4  5  1  0
  5  6  1  0
  7  6  1  0
  8  2  1  0
  9  8  2  0
 10 11  1  0
 11 12  1  0
 12 14  1  0
 12 13  1  1
 14 15  1  6
 15  8  1  0
 16 14  1  0
 16 18  1  0
 17 16  2  0
 19 18  1  0
 19 26  1  0
 19 20  1  1
 20 21  1  0
 21 25  1  0
 22 21  2  0
 22 23  1  0
 23 24  1  0
 25 24  2  0
 26 27  1  0
 28 26  2  0
M  END
$$$$
