KIH.pdb
     RDKit          3D

 28 28  0  0  1  0  0  0  0  0999 V2000
   20.3518  -13.5468  -17.9041 N   0  0  0  0  0  0  0  0  0  0  0  0
   19.7394  -12.2689  -17.7064 C   0  0  1  0  0  0  0  0  0  0  0  0
   18.7372  -12.2843  -16.5731 C   0  0  0  0  0  0  0  0  0  0  0  0
   17.6289  -13.2539  -16.7867 C   0  0  0  0  0  0  0  0  0  0  0  0
   17.2386  -14.0401  -15.5880 C   0  0  0  0  0  0  0  0  0  0  0  0
   16.0187  -14.9037  -15.7968 C   0  0  0  0  0  0  0  0  0  0  0  0
   15.6858  -15.4595  -14.4751 N   0  0  0  0  0  0  0  0  0  0  0  0
   20.7320  -11.1881  -17.4718 C   0  0  0  0  0  0  0  0  0  0  0  0
   21.8342  -11.5147  -16.9391 O   0  0  0  0  0  0  0  0  0  0  0  0
   21.8533   -7.3648  -21.0945 C   0  0  0  0  0  0  0  0  0  0  0  0
   22.0089   -8.4049  -19.9541 C   0  0  0  0  0  0  0  0  0  0  0  0
   21.4801   -7.8139  -18.7064 C   0  0  2  0  0  0  0  0  0  0  0  0
   22.3182   -6.6102  -18.2761 C   0  0  0  0  0  0  0  0  0  0  0  0
   21.4547   -8.7543  -17.5419 C   0  0  2  0  0  0  0  0  0  0  0  0
   20.4970   -9.8360  -17.8141 N   0  0  0  0  0  0  0  0  0  0  0  0
   20.9849   -8.0456  -16.3354 C   0  0  0  0  0  0  0  0  0  0  0  0
   19.7838   -7.6156  -16.3255 O   0  0  0  0  0  0  0  0  0  0  0  0
   21.7466   -7.7979  -15.1685 N   0  0  0  0  0  0  0  0  0  0  0  0
   21.1260   -7.0850  -14.0547 C   0  0  1  0  0  0  0  0  0  0  0  0
   20.2638   -5.9495  -14.5743 C   0  0  0  0  0  0  0  0  0  0  0  0
   21.0987   -4.8041  -15.0104 C   0  0  0  0  0  0  0  0  0  0  0  0
   22.4527   -4.7740  -15.2034 C   0  0  0  0  0  0  0  0  0  0  0  0
   22.7657   -3.5372  -15.5940 N   0  0  0  0  0  0  0  0  0  0  0  0
   21.6309   -2.8209  -15.6407 C   0  0  0  0  0  0  0  0  0  0  0  0
   20.5878   -3.5910  -15.2819 N   0  0  0  0  0  0  0  0  0  0  0  0
   20.2449   -7.9462  -13.2431 C   0  0  0  0  0  0  0  0  0  0  0  0
   20.1468   -9.2873  -13.5502 O   0  0  0  0  0  0  0  0  0  0  0  0
   19.5732   -7.5056  -12.2745 O   0  0  0  0  0  0  0  0  0  0  0  0
  2  1  1  1
  2  3  1  0
  3  4  1  0
  4  5  1  0
  5  6  1  0
  7  6  1  0
  8  2  1  0
  9  8  2  0
 10 11  1  0
 11 12  1  0
 12 14  1  0
 12 13  1  1
 14 15  1  6
 15  8  1  0
 16 14  1  0
 16 18  1  0
 17 16  2  0
 19 18  1  0
 19 26  1  0
 19 20  1  6
 20 21  1  0
 21 25  1  0
 22 21  2  0
 22 23  1  0
 23 24  1  0
 25 24  2  0
 26 27  1  0
 28 26  2  0
M  END
$$$$
