KIH.pdb
     RDKit          3D

 28 28  0  0  1  0  0  0  0  0999 V2000
   16.1718  -14.5112  -14.4893 N   0  0  0  0  0  0  0  0  0  0  0  0
   15.6707  -13.1766  -14.6115 C   0  0  1  0  0  0  0  0  0  0  0  0
   14.2387  -13.0579  -14.1377 C   0  0  0  0  0  0  0  0  0  0  0  0
   13.3629  -14.1479  -14.6463 C   0  0  0  0  0  0  0  0  0  0  0  0
   12.4325  -14.7291  -13.6444 C   0  0  0  0  0  0  0  0  0  0  0  0
   11.4818  -15.7516  -14.2174 C   0  0  0  0  0  0  0  0  0  0  0  0
   10.7340  -16.2950  -13.0718 N   0  0  0  0  0  0  0  0  0  0  0  0
   16.5108  -12.1814  -13.8957 C   0  0  0  0  0  0  0  0  0  0  0  0
   17.1807  -12.5917  -12.9018 O   0  0  0  0  0  0  0  0  0  0  0  0
   19.8239   -8.7176  -16.3811 C   0  0  0  0  0  0  0  0  0  0  0  0
   19.1756   -9.7144  -15.3848 C   0  0  0  0  0  0  0  0  0  0  0  0
   18.1407   -8.9962  -14.6110 C   0  0  2  0  0  0  0  0  0  0  0  0
   18.7473   -7.8125  -13.8579 C   0  0  0  0  0  0  0  0  0  0  0  0
   17.4401   -9.8377  -13.5901 C   0  0  2  0  0  0  0  0  0  0  0  0
   16.5886  -10.8211  -14.2751 N   0  0  0  0  0  0  0  0  0  0  0  0
   16.5565   -8.9918  -12.7642 C   0  0  0  0  0  0  0  0  0  0  0  0
   15.6007   -8.3798  -13.3471 O   0  0  0  0  0  0  0  0  0  0  0  0
   16.6639   -8.7950  -11.3668 N   0  0  0  0  0  0  0  0  0  0  0  0
   15.7544   -7.8591  -10.7105 C   0  0  1  0  0  0  0  0  0  0  0  0
   15.7717   -8.0770   -9.2087 C   0  0  0  0  0  0  0  0  0  0  0  0
   14.8741   -7.1173   -8.5215 C   0  0  0  0  0  0  0  0  0  0  0  0
   14.0084   -6.2211   -9.0863 C   0  0  0  0  0  0  0  0  0  0  0  0
   13.4112   -5.5696   -8.0868 N   0  0  0  0  0  0  0  0  0  0  0  0
   13.8973   -6.0528   -6.9321 C   0  0  0  0  0  0  0  0  0  0  0  0
   14.8053   -7.0130   -7.1834 N   0  0  0  0  0  0  0  0  0  0  0  0
   16.1231   -6.4485  -10.9361 C   0  0  0  0  0  0  0  0  0  0  0  0
   15.1272   -5.5201  -11.1563 O   0  0  0  0  0  0  0  0  0  0  0  0
   17.3178   -6.0529  -10.9365 O   0  0  0  0  0  0  0  0  0  0  0  0
  2  1  1  1
  2  3  1  0
  3  4  1  0
  4  5  1  0
  5  6  1  0
  7  6  1  0
  8  2  1  0
  9  8  2  0
 10 11  1  0
 11 12  1  0
 12 14  1  0
 12 13  1  1
 14 15  1  6
 15  8  1  0
 16 14  1  0
 16 18  1  0
 17 16  2  0
 19 18  1  0
 19 26  1  0
 19 20  1  1
 20 21  1  0
 21 25  1  0
 22 21  2  0
 22 23  1  0
 23 24  1  0
 25 24  2  0
 26 27  1  0
 28 26  2  0
M  END
$$$$
