KIH.pdb
     RDKit          3D

 28 28  0  0  1  0  0  0  0  0999 V2000
   26.9567  -21.8060  -18.1558 N   0  0  0  0  0  0  0  0  0  0  0  0
   27.1582  -22.1781  -16.7890 C   0  0  1  0  0  0  0  0  0  0  0  0
   28.6206  -22.1612  -16.4014 C   0  0  0  0  0  0  0  0  0  0  0  0
   29.4136  -23.2300  -17.0670 C   0  0  0  0  0  0  0  0  0  0  0  0
   28.8502  -24.5997  -16.9493 C   0  0  0  0  0  0  0  0  0  0  0  0
   29.7094  -25.6678  -17.5804 C   0  0  0  0  0  0  0  0  0  0  0  0
   30.8473  -25.8632  -16.6673 N   0  0  0  0  0  0  0  0  0  0  0  0
   26.3881  -21.3278  -15.8443 C   0  0  0  0  0  0  0  0  0  0  0  0
   26.5249  -20.0723  -15.9462 O   0  0  0  0  0  0  0  0  0  0  0  0
   22.5204  -22.4134  -16.2289 C   0  0  0  0  0  0  0  0  0  0  0  0
   22.5432  -21.1730  -15.2975 C   0  0  0  0  0  0  0  0  0  0  0  0
   23.2654  -21.5315  -14.0583 C   0  0  2  0  0  0  0  0  0  0  0  0
   22.5472  -20.9752  -12.8291 C   0  0  0  0  0  0  0  0  0  0  0  0
   24.6724  -21.0237  -13.9966 C   0  0  2  0  0  0  0  0  0  0  0  0
   25.5259  -21.8570  -14.8559 N   0  0  0  0  0  0  0  0  0  0  0  0
   25.1880  -21.1421  -12.6188 C   0  0  0  0  0  0  0  0  0  0  0  0
   25.2006  -22.3003  -12.0837 O   0  0  0  0  0  0  0  0  0  0  0  0
   25.6829  -20.0813  -11.8233 N   0  0  0  0  0  0  0  0  0  0  0  0
   26.0683  -20.3519  -10.4405 C   0  0  1  0  0  0  0  0  0  0  0  0
   26.6753  -19.1107   -9.8129 C   0  0  0  0  0  0  0  0  0  0  0  0
   27.0562  -19.3601   -8.4016 C   0  0  0  0  0  0  0  0  0  0  0  0
   26.9855  -20.5356   -7.7052 C   0  0  0  0  0  0  0  0  0  0  0  0
   27.4323  -20.2885   -6.4726 N   0  0  0  0  0  0  0  0  0  0  0  0
   27.7709  -18.9906   -6.4100 C   0  0  0  0  0  0  0  0  0  0  0  0
   27.5440  -18.4002   -7.5973 N   0  0  0  0  0  0  0  0  0  0  0  0
   24.9244  -20.7371   -9.5920 C   0  0  0  0  0  0  0  0  0  0  0  0
   25.1046  -21.6923   -8.6135 O   0  0  0  0  0  0  0  0  0  0  0  0
   23.7816  -20.2270   -9.7242 O   0  0  0  0  0  0  0  0  0  0  0  0
  2  1  1  6
  2  3  1  0
  3  4  1  0
  4  5  1  0
  5  6  1  0
  7  6  1  0
  8  2  1  0
  9  8  2  0
 10 11  1  0
 11 12  1  0
 12 14  1  0
 12 13  1  1
 14 15  1  6
 15  8  1  0
 16 14  1  0
 16 18  1  0
 17 16  2  0
 19 18  1  0
 19 26  1  0
 19 20  1  1
 20 21  1  0
 21 25  1  0
 22 21  2  0
 22 23  1  0
 23 24  1  0
 25 24  2  0
 26 27  1  0
 28 26  2  0
M  END
$$$$
