KIH.pdb
     RDKit          3D

 28 28  0  0  1  0  0  0  0  0999 V2000
   28.4772  -22.5657  -15.7205 N   0  0  0  0  0  0  0  0  0  0  0  0
   27.8060  -21.3687  -15.3156 C   0  0  1  0  0  0  0  0  0  0  0  0
   27.2900  -20.5753  -16.4960 C   0  0  0  0  0  0  0  0  0  0  0  0
   28.3526  -20.2348  -17.4803 C   0  0  0  0  0  0  0  0  0  0  0  0
   28.5153  -18.7840  -17.7566 C   0  0  0  0  0  0  0  0  0  0  0  0
   29.5364  -18.4784  -18.8250 C   0  0  0  0  0  0  0  0  0  0  0  0
   29.5106  -17.0174  -19.0026 N   0  0  0  0  0  0  0  0  0  0  0  0
   26.6889  -21.6299  -14.3710 C   0  0  0  0  0  0  0  0  0  0  0  0
   25.8330  -22.5014  -14.7074 O   0  0  0  0  0  0  0  0  0  0  0  0
   27.3512  -20.5060   -8.9503 C   0  0  0  0  0  0  0  0  0  0  0  0
   27.0029  -21.2763  -10.2511 C   0  0  0  0  0  0  0  0  0  0  0  0
   25.8027  -20.6585  -10.8537 C   0  0  2  0  0  0  0  0  0  0  0  0
   24.5793  -20.8600   -9.9597 C   0  0  0  0  0  0  0  0  0  0  0  0
   25.4407  -21.2018  -12.2009 C   0  0  2  0  0  0  0  0  0  0  0  0
   26.5484  -20.9555  -13.1357 N   0  0  0  0  0  0  0  0  0  0  0  0
   24.2575  -20.4929  -12.7260 C   0  0  0  0  0  0  0  0  0  0  0  0
   24.3409  -19.2299  -12.8862 O   0  0  0  0  0  0  0  0  0  0  0  0
   23.0228  -21.0871  -13.0801 N   0  0  0  0  0  0  0  0  0  0  0  0
   21.9422  -20.2369  -13.5733 C   0  0  1  0  0  0  0  0  0  0  0  0
   21.5616  -20.6394  -14.9861 C   0  0  0  0  0  0  0  0  0  0  0  0
   20.4559  -19.7954  -15.5001 C   0  0  0  0  0  0  0  0  0  0  0  0
   20.2557  -18.4567  -15.3016 C   0  0  0  0  0  0  0  0  0  0  0  0
   19.1374  -18.1271  -15.9503 N   0  0  0  0  0  0  0  0  0  0  0  0
   18.6587  -19.2368  -16.5354 C   0  0  0  0  0  0  0  0  0  0  0  0
   19.4640  -20.2803  -16.2666 N   0  0  0  0  0  0  0  0  0  0  0  0
   20.7154  -20.3403  -12.7604 C   0  0  0  0  0  0  0  0  0  0  0  0
   19.7976  -19.3112  -12.7940 O   0  0  0  0  0  0  0  0  0  0  0  0
   20.4685  -21.3358  -12.0312 O   0  0  0  0  0  0  0  0  0  0  0  0
  2  1  1  6
  2  3  1  0
  3  4  1  0
  4  5  1  0
  5  6  1  0
  7  6  1  0
  8  2  1  0
  9  8  2  0
 10 11  1  0
 11 12  1  0
 12 14  1  0
 12 13  1  1
 14 15  1  6
 15  8  1  0
 16 14  1  0
 16 18  1  0
 17 16  2  0
 19 18  1  0
 19 26  1  0
 19 20  1  6
 20 21  1  0
 21 25  1  0
 22 21  2  0
 22 23  1  0
 23 24  1  0
 25 24  2  0
 26 27  1  0
 28 26  2  0
M  END
$$$$
