KIH.pdb
     RDKit          3D

 28 28  0  0  1  0  0  0  0  0999 V2000
   21.2446  -15.7055  -15.7681 N   0  0  0  0  0  0  0  0  0  0  0  0
   21.2421  -14.4616  -16.4751 C   0  0  1  0  0  0  0  0  0  0  0  0
   19.8727  -14.1144  -17.0167 C   0  0  0  0  0  0  0  0  0  0  0  0
   19.4333  -15.0164  -18.1156 C   0  0  0  0  0  0  0  0  0  0  0  0
   19.3029  -16.4485  -17.7422 C   0  0  0  0  0  0  0  0  0  0  0  0
   18.8251  -17.3306  -18.8697 C   0  0  0  0  0  0  0  0  0  0  0  0
   18.7842  -18.6972  -18.3243 N   0  0  0  0  0  0  0  0  0  0  0  0
   21.7467  -13.3330  -15.6505 C   0  0  0  0  0  0  0  0  0  0  0  0
   21.2771  -13.2108  -14.4801 O   0  0  0  0  0  0  0  0  0  0  0  0
   26.9945  -12.0758  -15.6873 C   0  0  0  0  0  0  0  0  0  0  0  0
   25.5354  -12.3431  -15.2329 C   0  0  0  0  0  0  0  0  0  0  0  0
   24.7145  -11.1628  -15.5768 C   0  0  2  0  0  0  0  0  0  0  0  0
   25.1810   -9.9305  -14.8020 C   0  0  0  0  0  0  0  0  0  0  0  0
   23.2546  -11.3220  -15.2861 C   0  0  2  0  0  0  0  0  0  0  0  0
   22.7119  -12.4089  -16.1141 N   0  0  0  0  0  0  0  0  0  0  0  0
   22.5328  -10.0882  -15.6536 C   0  0  0  0  0  0  0  0  0  0  0  0
   22.5846   -9.7061  -16.8697 O   0  0  0  0  0  0  0  0  0  0  0  0
   21.7724   -9.2784  -14.7764 N   0  0  0  0  0  0  0  0  0  0  0  0
   21.1090   -8.0893  -15.3051 C   0  0  1  0  0  0  0  0  0  0  0  0
   19.7888   -7.8643  -14.5912 C   0  0  0  0  0  0  0  0  0  0  0  0
   19.0835   -6.6799  -15.1379 C   0  0  0  0  0  0  0  0  0  0  0  0
   19.4742   -5.8676  -16.1671 C   0  0  0  0  0  0  0  0  0  0  0  0
   18.5318   -4.9339  -16.3090 N   0  0  0  0  0  0  0  0  0  0  0  0
   17.5818   -5.1648  -15.3886 C   0  0  0  0  0  0  0  0  0  0  0  0
   17.9080   -6.2436  -14.6541 N   0  0  0  0  0  0  0  0  0  0  0  0
   21.9035   -6.8600  -15.1197 C   0  0  0  0  0  0  0  0  0  0  0  0
   21.9479   -5.9284  -16.1359 O   0  0  0  0  0  0  0  0  0  0  0  0
   22.5479   -6.6232  -14.0651 O   0  0  0  0  0  0  0  0  0  0  0  0
  2  1  1  1
  2  3  1  0
  3  4  1  0
  4  5  1  0
  5  6  1  0
  7  6  1  0
  8  2  1  0
  9  8  2  0
 10 11  1  0
 11 12  1  0
 12 14  1  0
 12 13  1  1
 14 15  1  6
 15  8  1  0
 16 14  1  0
 16 18  1  0
 17 16  2  0
 19 18  1  0
 19 26  1  0
 19 20  1  1
 20 21  1  0
 21 25  1  0
 22 21  2  0
 22 23  1  0
 23 24  1  0
 25 24  2  0
 26 27  1  0
 28 26  2  0
M  END
$$$$
