KIH.pdb
     RDKit          3D

 28 28  0  0  1  0  0  0  0  0999 V2000
   21.4536  -17.2328  -17.9945 N   0  0  0  0  0  0  0  0  0  0  0  0
   20.3719  -18.1405  -18.2252 C   0  0  1  0  0  0  0  0  0  0  0  0
   20.8052  -19.5860  -18.1161 C   0  0  0  0  0  0  0  0  0  0  0  0
   22.0860  -19.8665  -18.8195 C   0  0  0  0  0  0  0  0  0  0  0  0
   22.5097  -21.2905  -18.8149 C   0  0  0  0  0  0  0  0  0  0  0  0
   23.8932  -21.5161  -19.3738 C   0  0  0  0  0  0  0  0  0  0  0  0
   24.1251  -22.9681  -19.3054 N   0  0  0  0  0  0  0  0  0  0  0  0
   19.2200  -17.9014  -17.3173 C   0  0  0  0  0  0  0  0  0  0  0  0
   18.2354  -18.6941  -17.4038 O   0  0  0  0  0  0  0  0  0  0  0  0
   19.7875  -16.8209  -12.1692 C   0  0  0  0  0  0  0  0  0  0  0  0
   19.1601  -17.3532  -13.4844 C   0  0  0  0  0  0  0  0  0  0  0  0
   18.4571  -16.2375  -14.1526 C   0  0  2  0  0  0  0  0  0  0  0  0
   17.2069  -15.8353  -13.3705 C   0  0  0  0  0  0  0  0  0  0  0  0
   18.0082  -16.5401  -15.5483 C   0  0  2  0  0  0  0  0  0  0  0  0
   19.1825  -16.8433  -16.3794 N   0  0  0  0  0  0  0  0  0  0  0  0
   17.3520  -15.3540  -16.1321 C   0  0  0  0  0  0  0  0  0  0  0  0
   16.1679  -15.0767  -15.7466 O   0  0  0  0  0  0  0  0  0  0  0  0
   17.9190  -14.4775  -17.0879 N   0  0  0  0  0  0  0  0  0  0  0  0
   17.0950  -13.4084  -17.6463 C   0  0  1  0  0  0  0  0  0  0  0  0
   17.8679  -12.1024  -17.6581 C   0  0  0  0  0  0  0  0  0  0  0  0
   18.0866  -11.6012  -16.2797 C   0  0  0  0  0  0  0  0  0  0  0  0
   17.4193  -11.9549  -15.1390 C   0  0  0  0  0  0  0  0  0  0  0  0
   17.9529  -11.2516  -14.1386 N   0  0  0  0  0  0  0  0  0  0  0  0
   18.9268  -10.4818  -14.6504 C   0  0  0  0  0  0  0  0  0  0  0  0
   19.0231  -10.6861  -15.9765 N   0  0  0  0  0  0  0  0  0  0  0  0
   16.6858  -13.6688  -19.0396 C   0  0  0  0  0  0  0  0  0  0  0  0
   15.9504  -12.7163  -19.7138 O   0  0  0  0  0  0  0  0  0  0  0  0
   16.9815  -14.7320  -19.6444 O   0  0  0  0  0  0  0  0  0  0  0  0
  2  1  1  1
  2  3  1  0
  3  4  1  0
  4  5  1  0
  5  6  1  0
  7  6  1  0
  8  2  1  0
  9  8  2  0
 10 11  1  0
 11 12  1  0
 12 14  1  0
 12 13  1  1
 14 15  1  6
 15  8  1  0
 16 14  1  0
 16 18  1  0
 17 16  2  0
 19 18  1  0
 19 26  1  0
 19 20  1  6
 20 21  1  0
 21 25  1  0
 22 21  2  0
 22 23  1  0
 23 24  1  0
 25 24  2  0
 26 27  1  0
 28 26  2  0
M  END
$$$$
