KIH.pdb
     RDKit          3D

 28 28  0  0  1  0  0  0  0  0999 V2000
   25.6396  -25.9744  -16.0119 N   0  0  0  0  0  0  0  0  0  0  0  0
   25.4141  -24.5640  -16.0968 C   0  0  1  0  0  0  0  0  0  0  0  0
   24.6172  -24.1853  -17.3259 C   0  0  0  0  0  0  0  0  0  0  0  0
   25.4408  -24.1376  -18.5642 C   0  0  0  0  0  0  0  0  0  0  0  0
   26.9060  -24.2633  -18.3526 C   0  0  0  0  0  0  0  0  0  0  0  0
   27.7111  -24.2229  -19.6284 C   0  0  0  0  0  0  0  0  0  0  0  0
   29.1239  -24.2214  -19.2151 N   0  0  0  0  0  0  0  0  0  0  0  0
   24.7451  -24.0171  -14.8878 C   0  0  0  0  0  0  0  0  0  0  0  0
   24.0716  -24.8233  -14.1795 O   0  0  0  0  0  0  0  0  0  0  0  0
   27.5410  -21.0020  -11.6074 C   0  0  0  0  0  0  0  0  0  0  0  0
   26.4990  -22.0254  -12.1304 C   0  0  0  0  0  0  0  0  0  0  0  0
   25.2963  -21.2861  -12.5690 C   0  0  2  0  0  0  0  0  0  0  0  0
   24.5972  -20.6287  -11.3792 C   0  0  0  0  0  0  0  0  0  0  0  0
   24.2684  -22.1324  -13.2534 C   0  0  2  0  0  0  0  0  0  0  0  0
   24.8304  -22.6578  -14.5063 N   0  0  0  0  0  0  0  0  0  0  0  0
   23.0969  -21.3084  -13.6095 C   0  0  0  0  0  0  0  0  0  0  0  0
   23.2841  -20.3026  -14.3717 O   0  0  0  0  0  0  0  0  0  0  0  0
   21.7649  -21.5319  -13.1863 N   0  0  0  0  0  0  0  0  0  0  0  0
   20.7226  -20.5965  -13.6014 C   0  0  1  0  0  0  0  0  0  0  0  0
   19.4036  -20.9549  -12.9419 C   0  0  0  0  0  0  0  0  0  0  0  0
   18.2976  -20.1260  -13.4793 C   0  0  0  0  0  0  0  0  0  0  0  0
   18.3731  -19.1115  -14.3941 C   0  0  0  0  0  0  0  0  0  0  0  0
   17.1326  -18.6551  -14.5764 N   0  0  0  0  0  0  0  0  0  0  0  0
   16.3111  -19.3714  -13.7923 C   0  0  0  0  0  0  0  0  0  0  0  0
   17.0169  -20.2877  -13.1053 N   0  0  0  0  0  0  0  0  0  0  0  0
   21.0194  -19.2024  -13.2207 C   0  0  0  0  0  0  0  0  0  0  0  0
   20.8915  -18.2056  -14.1654 O   0  0  0  0  0  0  0  0  0  0  0  0
   21.3875  -18.8812  -12.0610 O   0  0  0  0  0  0  0  0  0  0  0  0
  2  1  1  1
  2  3  1  0
  3  4  1  0
  4  5  1  0
  5  6  1  0
  7  6  1  0
  8  2  1  0
  9  8  2  0
 10 11  1  0
 11 12  1  0
 12 14  1  0
 12 13  1  1
 14 15  1  6
 15  8  1  0
 16 14  1  0
 16 18  1  0
 17 16  2  0
 19 18  1  0
 19 26  1  0
 19 20  1  1
 20 21  1  0
 21 25  1  0
 22 21  2  0
 22 23  1  0
 23 24  1  0
 25 24  2  0
 26 27  1  0
 28 26  2  0
M  END
$$$$
