INP.pdb
     RDKit          3D

 24 24  0  0  1  0  0  0  0  0999 V2000
   26.8382  -18.5768   -7.1441 C   0  0  0  0  0  0  0  0  0  0  0  0
   26.8085  -20.0482   -7.2807 C   0  0  0  0  0  0  0  0  0  0  0  0
   26.2827  -20.6475   -8.5208 C   0  0  2  0  0  0  0  0  0  0  0  0
   27.1399  -20.2609   -9.7346 C   0  0  0  0  0  0  0  0  0  0  0  0
   24.8543  -20.4860   -8.8690 C   0  0  2  0  0  0  0  0  0  0  0  0
   24.0955  -21.1162   -7.7475 N   0  0  0  0  0  0  0  0  0  0  0  0
   24.3845  -21.0637  -10.1336 C   0  0  0  0  0  0  0  0  0  0  0  0
   24.3150  -22.2809  -10.3135 O   0  0  0  0  0  0  0  0  0  0  0  0
   20.9763  -21.4944  -14.4701 N   0  0  0  0  0  0  0  0  0  0  0  0
   21.6648  -20.2979  -14.1282 C   0  0  0  0  0  0  0  0  0  0  0  0
   21.7523  -19.4368  -15.0316 O   0  0  0  0  0  0  0  0  0  0  0  0
   22.2119  -20.1405  -12.7980 C   0  0  0  0  0  0  0  0  0  0  0  0
   23.5560  -20.7352  -12.5227 C   0  0  2  0  0  0  0  0  0  0  0  0
   23.9930  -20.2213  -11.1927 N   0  0  0  0  0  0  0  0  0  0  0  0
   24.6448  -20.3644  -13.4198 C   0  0  0  0  0  0  0  0  0  0  0  0
   25.1018  -19.1526  -13.2105 O   0  0  0  0  0  0  0  0  0  0  0  0
   25.2904  -21.0599  -14.4538 N   0  0  0  0  0  0  0  0  0  0  0  0
   25.0742  -22.3548  -15.0185 C   0  0  0  0  0  0  0  0  0  0  0  0
   26.3178  -22.7740  -15.7677 C   0  0  0  0  0  0  0  0  0  0  0  0
   27.3313  -21.6908  -15.5043 C   0  0  0  0  0  0  0  0  0  0  0  0
   26.4363  -20.5074  -15.2259 C   0  0  1  0  0  0  0  0  0  0  0  0
   25.9859  -19.9710  -16.5251 C   0  0  0  0  0  0  0  0  0  0  0  0
   24.7941  -20.0236  -16.8657 O   0  0  0  0  0  0  0  0  0  0  0  0
   26.9089  -19.4011  -17.3720 O   0  0  0  0  0  0  0  0  0  0  0  0
  1  2  1  0
  3  5  1  0
  3  2  1  0
  3  4  1  6
  5  6  1  1
  7  5  1  0
  7  8  2  0
 10 12  1  0
 10  9  1  0
 11 10  2  0
 13 12  1  6
 13 14  1  0
 14  7  1  0
 15 17  1  0
 15 13  1  0
 16 15  2  0
 17 18  1  0
 18 19  1  0
 19 20  1  0
 21 17  1  0
 21 22  1  6
 21 20  1  0
 22 24  1  0
 23 22  2  0
M  END
$$$$
