INP.pdb
     RDKit          3D

 24 24  0  0  1  0  0  0  0  0999 V2000
   28.5005  -22.0961  -17.3336 C   0  0  0  0  0  0  0  0  0  0  0  0
   28.4750  -20.8181  -16.5914 C   0  0  0  0  0  0  0  0  0  0  0  0
   27.1772  -20.2150  -16.2373 C   0  0  2  0  0  0  0  0  0  0  0  0
   27.1662  -18.7064  -16.5235 C   0  0  0  0  0  0  0  0  0  0  0  0
   26.5934  -20.4555  -14.8997 C   0  0  2  0  0  0  0  0  0  0  0  0
   26.5413  -21.9404  -14.7474 N   0  0  0  0  0  0  0  0  0  0  0  0
   25.2594  -19.9103  -14.6227 C   0  0  0  0  0  0  0  0  0  0  0  0
   25.0213  -18.7021  -14.6703 O   0  0  0  0  0  0  0  0  0  0  0  0
   20.0474  -19.0075  -15.5179 N   0  0  0  0  0  0  0  0  0  0  0  0
   20.6099  -20.2868  -15.2546 C   0  0  0  0  0  0  0  0  0  0  0  0
   19.7973  -21.2008  -14.9913 O   0  0  0  0  0  0  0  0  0  0  0  0
   22.0454  -20.4626  -15.3021 C   0  0  0  0  0  0  0  0  0  0  0  0
   22.8101  -20.2966  -14.0278 C   0  0  2  0  0  0  0  0  0  0  0  0
   24.1981  -20.7749  -14.2901 N   0  0  0  0  0  0  0  0  0  0  0  0
   22.3747  -21.0871  -12.8820 C   0  0  0  0  0  0  0  0  0  0  0  0
   22.6763  -22.3599  -12.9828 O   0  0  0  0  0  0  0  0  0  0  0  0
   21.7019  -20.7398  -11.7002 N   0  0  0  0  0  0  0  0  0  0  0  0
   21.1650  -19.5010  -11.2318 C   0  0  0  0  0  0  0  0  0  0  0  0
   20.9687  -19.5890   -9.7361 C   0  0  0  0  0  0  0  0  0  0  0  0
   21.5421  -20.9224   -9.3321 C   0  0  0  0  0  0  0  0  0  0  0  0
   21.3972  -21.7087  -10.6126 C   0  0  1  0  0  0  0  0  0  0  0  0
   19.9986  -22.1726  -10.6974 C   0  0  0  0  0  0  0  0  0  0  0  0
   19.2136  -21.7029  -11.5354 O   0  0  0  0  0  0  0  0  0  0  0  0
   19.5609  -23.1464   -9.8291 O   0  0  0  0  0  0  0  0  0  0  0  0
  1  2  1  0
  3  5  1  0
  3  2  1  0
  3  4  1  1
  5  6  1  6
  7  5  1  0
  7  8  2  0
 10 12  1  0
 10  9  1  0
 11 10  2  0
 13 12  1  6
 13 14  1  0
 14  7  1  0
 15 17  1  0
 15 13  1  0
 16 15  2  0
 17 18  1  0
 18 19  1  0
 19 20  1  0
 21 17  1  0
 21 22  1  6
 21 20  1  0
 22 24  1  0
 23 22  2  0
M  END
$$$$
