INP.pdb
     RDKit          3D

 24 24  0  0  1  0  0  0  0  0999 V2000
   17.7257  -15.3758  -17.9971 C   0  0  0  0  0  0  0  0  0  0  0  0
   17.8484  -14.4210  -16.8755 C   0  0  0  0  0  0  0  0  0  0  0  0
   18.9177  -13.4065  -16.9051 C   0  0  2  0  0  0  0  0  0  0  0  0
   20.2789  -14.0197  -16.5462 C   0  0  0  0  0  0  0  0  0  0  0  0
   18.7504  -12.1380  -16.1631 C   0  0  2  0  0  0  0  0  0  0  0  0
   17.6127  -11.4336  -16.8268 N   0  0  0  0  0  0  0  0  0  0  0  0
   19.8947  -11.2212  -16.1003 C   0  0  0  0  0  0  0  0  0  0  0  0
   20.9203  -11.4936  -15.4739 O   0  0  0  0  0  0  0  0  0  0  0  0
   22.4078   -7.1874  -19.7251 N   0  0  0  0  0  0  0  0  0  0  0  0
   22.4635   -7.9368  -18.5177 C   0  0  0  0  0  0  0  0  0  0  0  0
   23.4462   -7.7128  -17.7766 O   0  0  0  0  0  0  0  0  0  0  0  0
   21.4168   -8.8892  -18.2160 C   0  0  0  0  0  0  0  0  0  0  0  0
   20.9857   -9.0222  -16.7903 C   0  0  2  0  0  0  0  0  0  0  0  0
   19.8452   -9.9830  -16.7703 N   0  0  0  0  0  0  0  0  0  0  0  0
   20.4538   -7.8291  -16.1413 C   0  0  0  0  0  0  0  0  0  0  0  0
   19.1752   -7.6403  -16.3663 O   0  0  0  0  0  0  0  0  0  0  0  0
   21.0514   -6.8565  -15.3248 N   0  0  0  0  0  0  0  0  0  0  0  0
   22.3880   -6.6980  -14.8445 C   0  0  0  0  0  0  0  0  0  0  0  0
   22.3720   -5.7631  -13.6573 C   0  0  0  0  0  0  0  0  0  0  0  0
   20.9174   -5.4757  -13.3903 C   0  0  0  0  0  0  0  0  0  0  0  0
   20.3152   -5.6944  -14.7572 C   0  0  1  0  0  0  0  0  0  0  0  0
   20.5592   -4.4764  -15.5543 C   0  0  0  0  0  0  0  0  0  0  0  0
   21.3561   -4.4775  -16.5051 O   0  0  0  0  0  0  0  0  0  0  0  0
   19.8867   -3.3192  -15.2342 O   0  0  0  0  0  0  0  0  0  0  0  0
  1  2  1  0
  3  5  1  0
  3  2  1  0
  3  4  1  1
  5  6  1  6
  7  5  1  0
  7  8  2  0
 10 12  1  0
 10  9  1  0
 11 10  2  0
 13 12  1  6
 13 14  1  0
 14  7  1  0
 15 17  1  0
 15 13  1  0
 16 15  2  0
 17 18  1  0
 18 19  1  0
 19 20  1  0
 21 17  1  0
 21 22  1  6
 21 20  1  0
 22 24  1  0
 23 22  2  0
M  END
$$$$
