INP.pdb
     RDKit          3D

 24 24  0  0  1  0  0  0  0  0999 V2000
   28.2401  -20.0658   -4.5741 C   0  0  0  0  0  0  0  0  0  0  0  0
   27.0243  -20.2236   -5.3996 C   0  0  0  0  0  0  0  0  0  0  0  0
   27.0821  -19.9047   -6.8378 C   0  0  2  0  0  0  0  0  0  0  0  0
   27.6804  -18.5109   -7.0768 C   0  0  0  0  0  0  0  0  0  0  0  0
   25.8735  -20.0601   -7.6761 C   0  0  2  0  0  0  0  0  0  0  0  0
   25.4339  -21.4747   -7.4856 N   0  0  0  0  0  0  0  0  0  0  0  0
   25.9955  -19.7985   -9.1149 C   0  0  0  0  0  0  0  0  0  0  0  0
   26.1284  -18.6594   -9.5660 O   0  0  0  0  0  0  0  0  0  0  0  0
   26.4907  -20.8808  -14.3156 N   0  0  0  0  0  0  0  0  0  0  0  0
   27.2597  -21.7091  -13.4525 C   0  0  0  0  0  0  0  0  0  0  0  0
   28.0624  -22.4894  -14.0110 O   0  0  0  0  0  0  0  0  0  0  0  0
   27.0820  -21.6124  -12.0198 C   0  0  0  0  0  0  0  0  0  0  0  0
   26.0352  -20.6744  -11.5094 C   0  0  2  0  0  0  0  0  0  0  0  0
   25.9638  -20.8672  -10.0322 N   0  0  0  0  0  0  0  0  0  0  0  0
   24.6659  -20.8950  -11.9610 C   0  0  0  0  0  0  0  0  0  0  0  0
   24.0448  -21.8407  -11.2970 O   0  0  0  0  0  0  0  0  0  0  0  0
   23.8959  -20.2852  -12.9635 N   0  0  0  0  0  0  0  0  0  0  0  0
   24.2332  -19.3681  -14.0064 C   0  0  0  0  0  0  0  0  0  0  0  0
   22.9702  -18.6947  -14.4911 C   0  0  0  0  0  0  0  0  0  0  0  0
   21.8763  -19.1855  -13.5788 C   0  0  0  0  0  0  0  0  0  0  0  0
   22.4353  -20.5148  -13.1323 C   0  0  1  0  0  0  0  0  0  0  0  0
   22.1770  -21.4931  -14.2069 C   0  0  0  0  0  0  0  0  0  0  0  0
   23.0937  -21.9143  -14.9288 O   0  0  0  0  0  0  0  0  0  0  0  0
   20.8929  -21.9453  -14.4080 O   0  0  0  0  0  0  0  0  0  0  0  0
  1  2  1  0
  3  5  1  0
  3  2  1  0
  3  4  1  1
  5  6  1  6
  7  5  1  0
  7  8  2  0
 10 12  1  0
 10  9  1  0
 11 10  2  0
 13 12  1  6
 13 14  1  0
 14  7  1  0
 15 17  1  0
 15 13  1  0
 16 15  2  0
 17 18  1  0
 18 19  1  0
 19 20  1  0
 21 17  1  0
 21 22  1  6
 21 20  1  0
 22 24  1  0
 23 22  2  0
M  END
$$$$
