INP.pdb
     RDKit          3D

 24 24  0  0  1  0  0  0  0  0999 V2000
    9.4163  -10.0228   -7.4532 C   0  0  0  0  0  0  0  0  0  0  0  0
    9.9295  -10.4909   -8.7579 C   0  0  0  0  0  0  0  0  0  0  0  0
   11.3693  -10.3731   -9.0514 C   0  0  2  0  0  0  0  0  0  0  0  0
   11.8831   -8.9547   -8.7653 C   0  0  0  0  0  0  0  0  0  0  0  0
   11.8934  -10.8200  -10.3604 C   0  0  2  0  0  0  0  0  0  0  0  0
   11.5658  -12.2747  -10.4467 N   0  0  0  0  0  0  0  0  0  0  0  0
   13.3269  -10.6476  -10.6231 C   0  0  0  0  0  0  0  0  0  0  0  0
   14.1138  -11.5959  -10.6179 O   0  0  0  0  0  0  0  0  0  0  0  0
   17.0651  -10.1259  -14.4111 N   0  0  0  0  0  0  0  0  0  0  0  0
   16.8976   -9.8739  -13.0215 C   0  0  0  0  0  0  0  0  0  0  0  0
   17.9313   -9.5578  -12.3917 O   0  0  0  0  0  0  0  0  0  0  0  0
   15.5848   -9.9917  -12.4246 C   0  0  0  0  0  0  0  0  0  0  0  0
   15.2752   -9.1250  -11.2460 C   0  0  2  0  0  0  0  0  0  0  0  0
   13.8461   -9.3664  -10.8941 N   0  0  0  0  0  0  0  0  0  0  0  0
   15.3517   -7.6817  -11.4422 C   0  0  0  0  0  0  0  0  0  0  0  0
   14.4335   -7.2177  -12.2562 O   0  0  0  0  0  0  0  0  0  0  0  0
   16.2163   -6.7059  -10.9226 N   0  0  0  0  0  0  0  0  0  0  0  0
   17.2663   -6.7729   -9.9555 C   0  0  0  0  0  0  0  0  0  0  0  0
   17.5474   -5.3793   -9.4434 C   0  0  0  0  0  0  0  0  0  0  0  0
   16.5069   -4.4973  -10.0832 C   0  0  0  0  0  0  0  0  0  0  0  0
   16.1859   -5.2766  -11.3357 C   0  0  1  0  0  0  0  0  0  0  0  0
   17.2444   -4.9917  -12.3241 C   0  0  0  0  0  0  0  0  0  0  0  0
   18.0609   -5.8621  -12.6628 O   0  0  0  0  0  0  0  0  0  0  0  0
   17.3230   -3.7350  -12.8796 O   0  0  0  0  0  0  0  0  0  0  0  0
  1  2  1  0
  3  5  1  0
  3  2  1  0
  3  4  1  6
  5  6  1  1
  7  5  1  0
  7  8  2  0
 10 12  1  0
 10  9  1  0
 11 10  2  0
 13 12  1  6
 13 14  1  0
 14  7  1  0
 15 17  1  0
 15 13  1  0
 16 15  2  0
 17 18  1  0
 18 19  1  0
 19 20  1  0
 21 17  1  0
 21 22  1  6
 21 20  1  0
 22 24  1  0
 23 22  2  0
M  END
$$$$
