INP.pdb
     RDKit          3D

 24 24  0  0  1  0  0  0  0  0999 V2000
   17.2481  -15.0715  -17.4826 C   0  0  0  0  0  0  0  0  0  0  0  0
   18.0724  -14.2114  -16.6078 C   0  0  0  0  0  0  0  0  0  0  0  0
   18.1095  -12.7581  -16.8523 C   0  0  2  0  0  0  0  0  0  0  0  0
   18.5345  -12.4454  -18.2943 C   0  0  0  0  0  0  0  0  0  0  0  0
   18.8536  -11.8743  -15.9287 C   0  0  2  0  0  0  0  0  0  0  0  0
   18.1581  -11.9952  -14.6124 N   0  0  0  0  0  0  0  0  0  0  0  0
   18.9588  -10.4515  -16.2726 C   0  0  0  0  0  0  0  0  0  0  0  0
   19.5667  -10.0607  -17.2707 O   0  0  0  0  0  0  0  0  0  0  0  0
   18.0953   -5.1864  -15.7487 N   0  0  0  0  0  0  0  0  0  0  0  0
   16.9837   -5.9868  -15.3662 C   0  0  0  0  0  0  0  0  0  0  0  0
   15.9319   -5.3694  -15.0876 O   0  0  0  0  0  0  0  0  0  0  0  0
   17.1191   -7.4266  -15.3193 C   0  0  0  0  0  0  0  0  0  0  0  0
   18.4304   -8.0167  -15.7297 C   0  0  2  0  0  0  0  0  0  0  0  0
   18.3530   -9.4799  -15.4519 N   0  0  0  0  0  0  0  0  0  0  0  0
   19.6150   -7.5806  -14.9988 C   0  0  0  0  0  0  0  0  0  0  0  0
   19.6822   -8.0634  -13.7809 O   0  0  0  0  0  0  0  0  0  0  0  0
   20.6884   -6.7501  -15.3562 N   0  0  0  0  0  0  0  0  0  0  0  0
   20.9890   -6.0358  -16.5570 C   0  0  0  0  0  0  0  0  0  0  0  0
   22.4597   -5.6889  -16.5629 C   0  0  0  0  0  0  0  0  0  0  0  0
   23.0358   -6.3546  -15.3403 C   0  0  0  0  0  0  0  0  0  0  0  0
   21.8224   -6.4347  -14.4457 C   0  0  1  0  0  0  0  0  0  0  0  0
   21.6409   -5.1114  -13.8176 C   0  0  0  0  0  0  0  0  0  0  0  0
   20.7061   -4.3650  -14.1463 O   0  0  0  0  0  0  0  0  0  0  0  0
   22.5272   -4.7017  -12.8479 O   0  0  0  0  0  0  0  0  0  0  0  0
  1  2  1  0
  3  5  1  0
  3  2  1  0
  3  4  1  6
  5  6  1  1
  7  5  1  0
  7  8  2  0
 10 12  1  0
 10  9  1  0
 11 10  2  0
 13 12  1  1
 13 14  1  0
 14  7  1  0
 15 17  1  0
 15 13  1  0
 16 15  2  0
 17 18  1  0
 18 19  1  0
 19 20  1  0
 21 17  1  0
 21 22  1  6
 21 20  1  0
 22 24  1  0
 23 22  2  0
M  END
$$$$
