INP.pdb
     RDKit          3D

 24 24  0  0  1  0  0  0  0  0999 V2000
   28.5417  -12.6184  -16.1157 C   0  0  0  0  0  0  0  0  0  0  0  0
   27.1522  -12.9349  -15.7234 C   0  0  0  0  0  0  0  0  0  0  0  0
   26.0830  -11.9598  -16.0049 C   0  0  2  0  0  0  0  0  0  0  0  0
   26.3694  -10.6084  -15.3345 C   0  0  0  0  0  0  0  0  0  0  0  0
   24.6701  -12.3260  -15.7657 C   0  0  2  0  0  0  0  0  0  0  0  0
   24.4614  -13.6122  -16.4958 N   0  0  0  0  0  0  0  0  0  0  0  0
   23.6324  -11.3770  -16.1853 C   0  0  0  0  0  0  0  0  0  0  0  0
   23.3975  -11.1436  -17.3723 O   0  0  0  0  0  0  0  0  0  0  0  0
   19.3855  -10.0352  -17.1204 N   0  0  0  0  0  0  0  0  0  0  0  0
   19.3249  -10.3713  -15.7399 C   0  0  0  0  0  0  0  0  0  0  0  0
   18.2062  -10.7304  -15.3102 O   0  0  0  0  0  0  0  0  0  0  0  0
   20.5192  -10.2841  -14.9276 C   0  0  0  0  0  0  0  0  0  0  0  0
   21.7620   -9.7566  -15.5705 C   0  0  2  0  0  0  0  0  0  0  0  0
   22.8644  -10.6976  -15.2193 N   0  0  0  0  0  0  0  0  0  0  0  0
   22.2474   -8.4584  -15.1160 C   0  0  0  0  0  0  0  0  0  0  0  0
   22.9352   -8.5213  -14.0007 O   0  0  0  0  0  0  0  0  0  0  0  0
   22.1188   -7.1664  -15.6490 N   0  0  0  0  0  0  0  0  0  0  0  0
   21.5205   -6.6816  -16.8528 C   0  0  0  0  0  0  0  0  0  0  0  0
   22.0624   -5.3016  -17.1454 C   0  0  0  0  0  0  0  0  0  0  0  0
   23.1165   -5.0522  -16.0981 C   0  0  0  0  0  0  0  0  0  0  0  0
   22.6396   -5.9446  -14.9778 C   0  0  1  0  0  0  0  0  0  0  0  0
   21.5590   -5.2331  -14.2674 C   0  0  0  0  0  0  0  0  0  0  0  0
   20.3748   -5.5867  -14.3759 O   0  0  0  0  0  0  0  0  0  0  0  0
   21.8754   -4.1577  -13.4692 O   0  0  0  0  0  0  0  0  0  0  0  0
  1  2  1  0
  3  5  1  0
  3  2  1  0
  3  4  1  1
  5  6  1  6
  7  5  1  0
  7  8  2  0
 10 12  1  0
 10  9  1  0
 11 10  2  0
 13 12  1  1
 13 14  1  0
 14  7  1  0
 15 17  1  0
 15 13  1  0
 16 15  2  0
 17 18  1  0
 18 19  1  0
 19 20  1  0
 21 17  1  0
 21 22  1  6
 21 20  1  0
 22 24  1  0
 23 22  2  0
M  END
$$$$
