INP.pdb
     RDKit          3D

 24 24  0  0  1  0  0  0  0  0999 V2000
   22.4962  -25.1638  -18.8023 C   0  0  0  0  0  0  0  0  0  0  0  0
   21.2253  -24.9081  -18.0923 C   0  0  0  0  0  0  0  0  0  0  0  0
   21.2435  -24.6964  -16.6335 C   0  0  2  0  0  0  0  0  0  0  0  0
   21.9030  -25.8771  -15.9064 C   0  0  0  0  0  0  0  0  0  0  0  0
   19.9968  -24.3311  -15.9264 C   0  0  2  0  0  0  0  0  0  0  0  0
   19.5671  -23.0296  -16.5199 N   0  0  0  0  0  0  0  0  0  0  0  0
   20.0509  -24.1841  -14.4673 C   0  0  0  0  0  0  0  0  0  0  0  0
   20.4870  -25.0731  -13.7337 O   0  0  0  0  0  0  0  0  0  0  0  0
   21.9378  -21.2988  -12.5394 N   0  0  0  0  0  0  0  0  0  0  0  0
   20.7450  -20.6192  -12.1682 C   0  0  0  0  0  0  0  0  0  0  0  0
   20.8670  -19.4047  -11.8939 O   0  0  0  0  0  0  0  0  0  0  0  0
   19.4916  -21.3410  -12.1269 C   0  0  0  0  0  0  0  0  0  0  0  0
   19.5274  -22.8142  -12.3812 C   0  0  2  0  0  0  0  0  0  0  0  0
   19.5965  -22.9971  -13.8597 N   0  0  0  0  0  0  0  0  0  0  0  0
   18.3561  -23.5873  -11.9840 C   0  0  0  0  0  0  0  0  0  0  0  0
   17.3806  -23.5415  -12.8600 O   0  0  0  0  0  0  0  0  0  0  0  0
   18.0838  -24.3672  -10.8494 N   0  0  0  0  0  0  0  0  0  0  0  0
   18.8685  -24.6945   -9.7007 C   0  0  0  0  0  0  0  0  0  0  0  0
   18.2720  -25.9121   -9.0334 C   0  0  0  0  0  0  0  0  0  0  0  0
   17.1514  -26.3581   -9.9363 C   0  0  0  0  0  0  0  0  0  0  0  0
   16.7882  -25.0629  -10.6216 C   0  0  1  0  0  0  0  0  0  0  0  0
   15.9321  -24.2925   -9.6985 C   0  0  0  0  0  0  0  0  0  0  0  0
   14.8090  -24.7025   -9.3677 O   0  0  0  0  0  0  0  0  0  0  0  0
   16.3928  -23.0969   -9.1962 O   0  0  0  0  0  0  0  0  0  0  0  0
  1  2  1  0
  3  5  1  0
  3  2  1  0
  3  4  1  1
  5  6  1  6
  7  5  1  0
  7  8  2  0
 10 12  1  0
 10  9  1  0
 11 10  2  0
 13 12  1  6
 13 14  1  0
 14  7  1  0
 15 17  1  0
 15 13  1  0
 16 15  2  0
 17 18  1  0
 18 19  1  0
 19 20  1  0
 21 17  1  0
 21 22  1  1
 21 20  1  0
 22 24  1  0
 23 22  2  0
M  END
$$$$
