INP.pdb
     RDKit          3D

 24 24  0  0  1  0  0  0  0  0999 V2000
   29.1149  -20.4123  -15.3953 C   0  0  0  0  0  0  0  0  0  0  0  0
   28.2276  -21.1362  -14.4608 C   0  0  0  0  0  0  0  0  0  0  0  0
   27.8421  -20.4964  -13.1898 C   0  0  2  0  0  0  0  0  0  0  0  0
   29.0204  -20.4545  -12.2061 C   0  0  0  0  0  0  0  0  0  0  0  0
   26.6320  -20.9530  -12.4723 C   0  0  2  0  0  0  0  0  0  0  0  0
   25.5146  -20.8329  -13.4562 N   0  0  0  0  0  0  0  0  0  0  0  0
   26.2514  -20.2450  -11.2446 C   0  0  0  0  0  0  0  0  0  0  0  0
   25.9391  -19.0528  -11.2443 O   0  0  0  0  0  0  0  0  0  0  0  0
   23.5070  -19.6836  -10.2634 N   0  0  0  0  0  0  0  0  0  0  0  0
   23.3538  -20.4836   -9.0976 C   0  0  0  0  0  0  0  0  0  0  0  0
   22.1819  -20.8095   -8.8049 O   0  0  0  0  0  0  0  0  0  0  0  0
   24.5206  -20.8679   -8.3332 C   0  0  0  0  0  0  0  0  0  0  0  0
   25.8373  -20.2798   -8.7287 C   0  0  2  0  0  0  0  0  0  0  0  0
   26.2331  -20.9276  -10.0124 N   0  0  0  0  0  0  0  0  0  0  0  0
   26.9702  -20.5276   -7.8439 C   0  0  0  0  0  0  0  0  0  0  0  0
   27.6120  -21.6382   -8.1187 O   0  0  0  0  0  0  0  0  0  0  0  0
   27.4978  -19.8016   -6.7649 N   0  0  0  0  0  0  0  0  0  0  0  0
   27.1885  -18.5106   -6.2358 C   0  0  0  0  0  0  0  0  0  0  0  0
   28.3461  -18.0422   -5.3847 C   0  0  0  0  0  0  0  0  0  0  0  0
   29.4153  -19.0914   -5.5459 C   0  0  0  0  0  0  0  0  0  0  0  0
   28.5892  -20.3075   -5.8889 C   0  0  1  0  0  0  0  0  0  0  0  0
   28.0444  -20.8489   -4.6285 C   0  0  0  0  0  0  0  0  0  0  0  0
   26.8238  -20.8612   -4.4068 O   0  0  0  0  0  0  0  0  0  0  0  0
   28.9105  -21.3501   -3.6837 O   0  0  0  0  0  0  0  0  0  0  0  0
  1  2  1  0
  3  5  1  0
  3  2  1  0
  3  4  1  1
  5  6  1  6
  7  5  1  0
  7  8  2  0
 10 12  1  0
 10  9  1  0
 11 10  2  0
 13 12  1  1
 13 14  1  0
 14  7  1  0
 15 17  1  0
 15 13  1  0
 16 15  2  0
 17 18  1  0
 18 19  1  0
 19 20  1  0
 21 17  1  0
 21 22  1  1
 21 20  1  0
 22 24  1  0
 23 22  2  0
M  END
$$$$
