INP.pdb
     RDKit          3D

 24 24  0  0  1  0  0  0  0  0999 V2000
   18.2897  -14.6947  -17.7409 C   0  0  0  0  0  0  0  0  0  0  0  0
   18.8259  -13.3485  -18.0318 C   0  0  0  0  0  0  0  0  0  0  0  0
   18.7494  -12.3019  -16.9965 C   0  0  2  0  0  0  0  0  0  0  0  0
   17.3131  -12.1306  -16.4811 C   0  0  0  0  0  0  0  0  0  0  0  0
   19.3308  -10.9665  -17.2543 C   0  0  2  0  0  0  0  0  0  0  0  0
   20.7954  -11.1963  -17.4356 N   0  0  0  0  0  0  0  0  0  0  0  0
   19.1437   -9.9261  -16.2363 C   0  0  0  0  0  0  0  0  0  0  0  0
   18.0255   -9.5508  -15.8792 O   0  0  0  0  0  0  0  0  0  0  0  0
   20.6101   -7.4663  -11.3643 N   0  0  0  0  0  0  0  0  0  0  0  0
   21.3301   -7.3996  -12.5889 C   0  0  0  0  0  0  0  0  0  0  0  0
   22.0962   -6.4198  -12.7234 O   0  0  0  0  0  0  0  0  0  0  0  0
   21.1472   -8.4326  -13.5854 C   0  0  0  0  0  0  0  0  0  0  0  0
   20.1539   -8.1816  -14.6747 C   0  0  2  0  0  0  0  0  0  0  0  0
   20.2625   -9.3209  -15.6310 N   0  0  0  0  0  0  0  0  0  0  0  0
   20.3613   -7.0014  -15.5063 C   0  0  0  0  0  0  0  0  0  0  0  0
   21.2613   -7.1773  -16.4444 O   0  0  0  0  0  0  0  0  0  0  0  0
   19.7782   -5.7249  -15.4905 N   0  0  0  0  0  0  0  0  0  0  0  0
   18.7712   -5.1415  -14.6612 C   0  0  0  0  0  0  0  0  0  0  0  0
   18.2074   -3.9262  -15.3603 C   0  0  0  0  0  0  0  0  0  0  0  0
   18.8634   -3.9008  -16.7164 C   0  0  0  0  0  0  0  0  0  0  0  0
   20.1502   -4.6394  -16.4381 C   0  0  1  0  0  0  0  0  0  0  0  0
   21.0855   -3.6876  -15.8073 C   0  0  0  0  0  0  0  0  0  0  0  0
   21.3734   -3.7692  -14.6033 O   0  0  0  0  0  0  0  0  0  0  0  0
   21.6481   -2.6923  -16.5733 O   0  0  0  0  0  0  0  0  0  0  0  0
  1  2  1  0
  3  5  1  0
  3  2  1  0
  3  4  1  6
  5  6  1  1
  7  5  1  0
  7  8  2  0
 10 12  1  0
 10  9  1  0
 11 10  2  0
 13 12  1  1
 13 14  1  0
 14  7  1  0
 15 17  1  0
 15 13  1  0
 16 15  2  0
 17 18  1  0
 18 19  1  0
 19 20  1  0
 21 17  1  0
 21 22  1  1
 21 20  1  0
 22 24  1  0
 23 22  2  0
M  END
$$$$
