INP.pdb
     RDKit          3D

 24 24  0  0  1  0  0  0  0  0999 V2000
   20.0809  -15.2499  -17.0768 C   0  0  0  0  0  0  0  0  0  0  0  0
   19.5306  -14.1111  -16.3122 C   0  0  0  0  0  0  0  0  0  0  0  0
   19.6151  -12.7529  -16.8792 C   0  0  2  0  0  0  0  0  0  0  0  0
   21.0668  -12.3737  -17.2057 C   0  0  0  0  0  0  0  0  0  0  0  0
   18.9673  -11.6213  -16.1810 C   0  0  2  0  0  0  0  0  0  0  0  0
   17.5452  -12.0337  -15.9850 N   0  0  0  0  0  0  0  0  0  0  0  0
   18.9869  -10.3073  -16.8342 C   0  0  0  0  0  0  0  0  0  0  0  0
   18.7531  -10.1683  -18.0362 O   0  0  0  0  0  0  0  0  0  0  0  0
   18.6866   -5.1748  -17.6433 N   0  0  0  0  0  0  0  0  0  0  0  0
   17.7069   -6.1959  -17.7842 C   0  0  0  0  0  0  0  0  0  0  0  0
   16.6554   -5.8705  -18.3789 O   0  0  0  0  0  0  0  0  0  0  0  0
   17.9651   -7.5159  -17.2508 C   0  0  0  0  0  0  0  0  0  0  0  0
   19.3215   -7.7841  -16.6812 C   0  0  2  0  0  0  0  0  0  0  0  0
   19.2787   -9.1505  -16.0852 N   0  0  0  0  0  0  0  0  0  0  0  0
   19.7623   -6.9328  -15.5819 C   0  0  0  0  0  0  0  0  0  0  0  0
   19.1057   -7.1423  -14.4657 O   0  0  0  0  0  0  0  0  0  0  0  0
   20.7532   -5.9424  -15.4977 N   0  0  0  0  0  0  0  0  0  0  0  0
   21.6744   -5.4242  -16.4595 C   0  0  0  0  0  0  0  0  0  0  0  0
   22.7964   -4.7214  -15.7309 C   0  0  0  0  0  0  0  0  0  0  0  0
   22.5411   -4.9657  -14.2663 C   0  0  0  0  0  0  0  0  0  0  0  0
   21.0463   -5.1763  -14.2561 C   0  0  1  0  0  0  0  0  0  0  0  0
   20.4064   -3.8467  -14.2945 C   0  0  0  0  0  0  0  0  0  0  0  0
   19.8134   -3.4461  -15.3078 O   0  0  0  0  0  0  0  0  0  0  0  0
   20.4701   -3.0391  -13.1820 O   0  0  0  0  0  0  0  0  0  0  0  0
  1  2  1  0
  3  5  1  0
  3  2  1  0
  3  4  1  1
  5  6  1  6
  7  5  1  0
  7  8  2  0
 10 12  1  0
 10  9  1  0
 11 10  2  0
 13 12  1  1
 13 14  1  0
 14  7  1  0
 15 17  1  0
 15 13  1  0
 16 15  2  0
 17 18  1  0
 18 19  1  0
 19 20  1  0
 21 17  1  0
 21 22  1  6
 21 20  1  0
 22 24  1  0
 23 22  2  0
M  END
$$$$
