INP.pdb
     RDKit          3D

 24 24  0  0  1  0  0  0  0  0999 V2000
   18.1326  -15.2172  -17.2559 C   0  0  0  0  0  0  0  0  0  0  0  0
   18.0208  -14.0050  -16.4177 C   0  0  0  0  0  0  0  0  0  0  0  0
   18.8375  -12.8224  -16.7463 C   0  0  2  0  0  0  0  0  0  0  0  0
   20.3284  -13.1797  -16.8307 C   0  0  0  0  0  0  0  0  0  0  0  0
   18.6840  -11.5793  -15.9597 C   0  0  2  0  0  0  0  0  0  0  0  0
   17.2768  -11.1333  -16.1872 N   0  0  0  0  0  0  0  0  0  0  0  0
   19.5834  -10.4593  -16.2600 C   0  0  0  0  0  0  0  0  0  0  0  0
   20.7541  -10.4362  -15.8756 O   0  0  0  0  0  0  0  0  0  0  0  0
   21.0857   -5.8012  -18.4487 N   0  0  0  0  0  0  0  0  0  0  0  0
   20.1838   -6.5473  -19.2563 C   0  0  0  0  0  0  0  0  0  0  0  0
   19.9932   -6.1119  -20.4136 O   0  0  0  0  0  0  0  0  0  0  0  0
   19.5520   -7.7327  -18.7184 C   0  0  0  0  0  0  0  0  0  0  0  0
   19.9758   -8.1925  -17.3601 C   0  0  2  0  0  0  0  0  0  0  0  0
   19.1187   -9.3622  -17.0116 N   0  0  0  0  0  0  0  0  0  0  0  0
   19.7770   -7.2661  -16.2512 C   0  0  0  0  0  0  0  0  0  0  0  0
   18.5274   -7.1821  -15.8607 O   0  0  0  0  0  0  0  0  0  0  0  0
   20.6685   -6.4578  -15.5288 N   0  0  0  0  0  0  0  0  0  0  0  0
   22.0740   -6.2318  -15.6544 C   0  0  0  0  0  0  0  0  0  0  0  0
   22.5911   -5.6454  -14.3612 C   0  0  0  0  0  0  0  0  0  0  0  0
   21.4173   -5.6543  -13.4168 C   0  0  0  0  0  0  0  0  0  0  0  0
   20.2582   -5.6021  -14.3826 C   0  0  1  0  0  0  0  0  0  0  0  0
   20.0916   -4.1983  -14.8070 C   0  0  0  0  0  0  0  0  0  0  0  0
   20.3938   -3.8313  -15.9528 O   0  0  0  0  0  0  0  0  0  0  0  0
   19.5897   -3.2817  -13.9114 O   0  0  0  0  0  0  0  0  0  0  0  0
  1  2  1  0
  3  5  1  0
  3  2  1  0
  3  4  1  1
  5  6  1  6
  7  5  1  0
  7  8  2  0
 10 12  1  0
 10  9  1  0
 11 10  2  0
 13 12  1  6
 13 14  1  0
 14  7  1  0
 15 17  1  0
 15 13  1  0
 16 15  2  0
 17 18  1  0
 18 19  1  0
 19 20  1  0
 21 17  1  0
 21 22  1  6
 21 20  1  0
 22 24  1  0
 23 22  2  0
M  END
$$$$
