INP.pdb
     RDKit          3D

 24 24  0  0  1  0  0  0  0  0999 V2000
   21.7467  -11.9365  -18.7591 C   0  0  0  0  0  0  0  0  0  0  0  0
   21.0039  -11.9364  -17.4812 C   0  0  0  0  0  0  0  0  0  0  0  0
   20.3876  -10.6848  -17.0048 C   0  0  2  0  0  0  0  0  0  0  0  0
   21.3967   -9.5275  -17.0127 C   0  0  0  0  0  0  0  0  0  0  0  0
   19.6470  -10.6690  -15.7246 C   0  0  2  0  0  0  0  0  0  0  0  0
   18.6760  -11.8007  -15.8104 N   0  0  0  0  0  0  0  0  0  0  0  0
   18.9125   -9.4492  -15.3693 C   0  0  0  0  0  0  0  0  0  0  0  0
   18.0082   -8.9985  -16.0749 O   0  0  0  0  0  0  0  0  0  0  0  0
   16.6210   -9.0103  -12.3380 N   0  0  0  0  0  0  0  0  0  0  0  0
   17.5131   -8.1873  -11.5968 C   0  0  0  0  0  0  0  0  0  0  0  0
   17.3296   -8.1527  -10.3598 O   0  0  0  0  0  0  0  0  0  0  0  0
   18.5534   -7.4551  -12.2861 C   0  0  0  0  0  0  0  0  0  0  0  0
   18.5540   -7.4867  -13.7811 C   0  0  2  0  0  0  0  0  0  0  0  0
   19.2311   -8.7518  -14.1875 N   0  0  0  0  0  0  0  0  0  0  0  0
   19.3089   -6.4453  -14.4690 C   0  0  0  0  0  0  0  0  0  0  0  0
   20.6069   -6.6317  -14.4305 O   0  0  0  0  0  0  0  0  0  0  0  0
   18.9062   -5.2929  -15.1616 N   0  0  0  0  0  0  0  0  0  0  0  0
   17.6162   -4.7843  -15.5073 C   0  0  0  0  0  0  0  0  0  0  0  0
   17.7715   -3.7805  -16.6262 C   0  0  0  0  0  0  0  0  0  0  0  0
   19.2294   -3.8205  -17.0040 C   0  0  0  0  0  0  0  0  0  0  0  0
   19.8579   -4.2916  -15.7148 C   0  0  1  0  0  0  0  0  0  0  0  0
   19.9727   -3.1238  -14.8195 C   0  0  0  0  0  0  0  0  0  0  0  0
   19.2664   -3.0177  -13.8051 O   0  0  0  0  0  0  0  0  0  0  0  0
   20.8829   -2.1359  -15.1186 O   0  0  0  0  0  0  0  0  0  0  0  0
  1  2  1  0
  3  5  1  0
  3  2  1  0
  3  4  1  1
  5  6  1  6
  7  5  1  0
  7  8  2  0
 10 12  1  0
 10  9  1  0
 11 10  2  0
 13 12  1  1
 13 14  1  0
 14  7  1  0
 15 17  1  0
 15 13  1  0
 16 15  2  0
 17 18  1  0
 18 19  1  0
 19 20  1  0
 21 17  1  0
 21 22  1  1
 21 20  1  0
 22 24  1  0
 23 22  2  0
M  END
$$$$
