PQM.pdb
     RDKit          3D

 25 25  0  0  1  0  0  0  0  0999 V2000
   18.4418  -71.1459    7.1794 N   0  0  0  0  0  0  0  0  0  0  0  0
   17.0046  -71.2082    7.2152 C   0  0  0  0  0  0  0  0  0  0  0  0
   16.6126  -71.7808    8.5549 C   0  0  0  0  0  0  0  0  0  0  0  0
   17.9537  -72.1812    9.1595 C   0  0  0  0  0  0  0  0  0  0  0  0
   18.8462  -71.1204    8.5477 C   0  0  1  0  0  0  0  0  0  0  0  0
   20.2819  -71.3788    8.7529 C   0  0  0  0  0  0  0  0  0  0  0  0
   21.0141  -70.4029    9.0323 O   0  0  0  0  0  0  0  0  0  0  0  0
   23.7187  -70.1779    7.5354 N   0  0  0  0  0  0  0  0  0  0  0  0
   23.8425  -71.3252    6.7127 C   0  0  0  0  0  0  0  0  0  0  0  0
   24.8709  -72.0275    6.8176 O   0  0  0  0  0  0  0  0  0  0  0  0
   22.7888  -71.6690    5.7687 C   0  0  0  0  0  0  0  0  0  0  0  0
   21.5594  -72.2744    6.3415 C   0  0  0  0  0  0  0  0  0  0  0  0
   21.7131  -73.1076    7.5565 C   0  0  2  0  0  0  0  0  0  0  0  0
   20.8288  -72.6829    8.6407 N   0  0  0  0  0  0  0  0  0  0  0  0
   23.1065  -73.2543    8.0316 C   0  0  0  0  0  0  0  0  0  0  0  0
   23.5739  -72.3869    8.7978 O   0  0  0  0  0  0  0  0  0  0  0  0
   23.6660  -79.5425    9.3860 C   0  0  0  0  0  0  0  0  0  0  0  0
   24.1620  -77.8635    9.8673 S   0  0  0  0  0  0  0  0  0  0  0  0
   22.6952  -76.8357   10.2088 C   0  0  0  0  0  0  0  0  0  0  0  0
   22.7192  -75.6074    9.3382 C   0  0  0  0  0  0  0  0  0  0  0  0
   24.0051  -75.5084    8.5529 C   0  0  2  0  0  0  0  0  0  0  0  0
   23.9327  -74.3432    7.6494 N   0  0  0  0  0  0  0  0  0  0  0  0
   24.1929  -76.6912    7.6946 C   0  0  0  0  0  0  0  0  0  0  0  0
   23.7172  -77.8447    7.9457 O   0  0  0  0  0  0  0  0  0  0  0  0
   24.9465  -76.5574    6.5118 O   0  0  0  0  0  0  0  0  0  0  0  0
  1  5  1  0
  2  1  1  0
  2  3  1  0
  3  4  1  0
  5  6  1  6
  5  4  1  0
  6  7  2  0
  8  9  1  0
  9 11  1  0
 10  9  2  0
 11 12  1  0
 13 12  1  6
 14  6  1  0
 14 13  1  0
 15 16  2  0
 15 13  1  0
 18 17  1  0
 19 20  1  0
 19 18  1  0
 21 20  1  6
 21 22  1  0
 22 15  1  0
 23 25  1  0
 23 21  1  0
 24 23  2  0
M  END
$$$$
