PQM.pdb
     RDKit          3D

 25 25  0  0  1  0  0  0  0  0999 V2000
   20.5127  -11.1500  -16.8490 N   0  0  0  0  0  0  0  0  0  0  0  0
   20.5237  -12.3470  -17.6477 C   0  0  0  0  0  0  0  0  0  0  0  0
   19.1168  -12.5682  -18.1455 C   0  0  0  0  0  0  0  0  0  0  0  0
   18.3221  -11.4965  -17.4079 C   0  0  0  0  0  0  0  0  0  0  0  0
   19.3765  -10.4136  -17.3000 C   0  0  1  0  0  0  0  0  0  0  0  0
   18.9863   -9.3083  -16.4076 C   0  0  0  0  0  0  0  0  0  0  0  0
   18.1637   -8.4718  -16.8437 O   0  0  0  0  0  0  0  0  0  0  0  0
   17.9366   -9.4790  -10.3214 N   0  0  0  0  0  0  0  0  0  0  0  0
   18.0660   -8.0817  -10.5194 C   0  0  0  0  0  0  0  0  0  0  0  0
   17.7056   -7.3125   -9.6027 O   0  0  0  0  0  0  0  0  0  0  0  0
   18.6077   -7.5640  -11.7676 C   0  0  0  0  0  0  0  0  0  0  0  0
   19.0024   -8.5711  -12.7854 C   0  0  0  0  0  0  0  0  0  0  0  0
   19.1773   -8.0990  -14.1784 C   0  0  2  0  0  0  0  0  0  0  0  0
   19.5165   -9.1842  -15.0977 N   0  0  0  0  0  0  0  0  0  0  0  0
   20.1091   -6.9601  -14.3313 C   0  0  0  0  0  0  0  0  0  0  0  0
   19.8638   -5.8980  -13.7233 O   0  0  0  0  0  0  0  0  0  0  0  0
   26.8233   -3.9833  -17.3798 C   0  0  0  0  0  0  0  0  0  0  0  0
   25.7661   -5.4338  -17.1055 S   0  0  0  0  0  0  0  0  0  0  0  0
   24.2766   -4.9711  -16.1611 C   0  0  0  0  0  0  0  0  0  0  0  0
   23.3830   -6.1720  -15.9974 C   0  0  0  0  0  0  0  0  0  0  0  0
   22.1334   -5.8326  -15.2208 C   0  0  2  0  0  0  0  0  0  0  0  0
   21.2713   -7.0284  -15.1433 N   0  0  0  0  0  0  0  0  0  0  0  0
   21.3473   -4.7951  -15.9111 C   0  0  0  0  0  0  0  0  0  0  0  0
   21.3249   -3.5675  -15.5756 O   0  0  0  0  0  0  0  0  0  0  0  0
   20.5608   -5.1661  -17.0196 O   0  0  0  0  0  0  0  0  0  0  0  0
  1  5  1  0
  2  1  1  0
  2  3  1  0
  3  4  1  0
  5  6  1  1
  5  4  1  0
  6  7  2  0
  8  9  1  0
  9 11  1  0
 10  9  2  0
 11 12  1  0
 13 12  1  1
 14  6  1  0
 14 13  1  0
 15 16  2  0
 15 13  1  0
 18 17  1  0
 19 20  1  0
 19 18  1  0
 21 20  1  6
 21 22  1  0
 22 15  1  0
 23 25  1  0
 23 21  1  0
 24 23  2  0
M  END
$$$$
