PQM.pdb
     RDKit          3D

 25 25  0  0  1  0  0  0  0  0999 V2000
   25.7499  -17.2964  -14.6872 N   0  0  0  0  0  0  0  0  0  0  0  0
   25.9529  -15.8899  -14.9134 C   0  0  0  0  0  0  0  0  0  0  0  0
   27.2396  -15.7401  -15.6868 C   0  0  0  0  0  0  0  0  0  0  0  0
   27.7947  -17.1599  -15.7025 C   0  0  0  0  0  0  0  0  0  0  0  0
   26.5011  -17.9490  -15.7101 C   0  0  1  0  0  0  0  0  0  0  0  0
   26.6976  -19.3909  -15.4816 C   0  0  0  0  0  0  0  0  0  0  0  0
   27.1581  -20.0716  -16.4257 O   0  0  0  0  0  0  0  0  0  0  0  0
   29.7692  -22.6874  -15.4215 N   0  0  0  0  0  0  0  0  0  0  0  0
   30.0759  -22.7606  -14.0398 C   0  0  0  0  0  0  0  0  0  0  0  0
   30.7742  -23.7137  -13.6326 O   0  0  0  0  0  0  0  0  0  0  0  0
   29.5828  -21.7427  -13.1233 C   0  0  0  0  0  0  0  0  0  0  0  0
   28.6477  -20.7382  -13.6914 C   0  0  0  0  0  0  0  0  0  0  0  0
   27.1983  -21.0309  -13.6033 C   0  0  2  0  0  0  0  0  0  0  0  0
   26.3804  -19.9997  -14.2402 N   0  0  0  0  0  0  0  0  0  0  0  0
   26.7113  -21.3301  -12.2387 C   0  0  0  0  0  0  0  0  0  0  0  0
   26.1422  -22.4212  -12.0303 O   0  0  0  0  0  0  0  0  0  0  0  0
   28.7495  -18.7105   -6.7887 C   0  0  0  0  0  0  0  0  0  0  0  0
   27.1964  -19.3740   -6.1220 S   0  0  0  0  0  0  0  0  0  0  0  0
   26.2040  -20.1359   -7.4483 C   0  0  0  0  0  0  0  0  0  0  0  0
   26.8698  -19.9067   -8.7792 C   0  0  0  0  0  0  0  0  0  0  0  0
   26.2927  -20.8011   -9.8502 C   0  0  2  0  0  0  0  0  0  0  0  0
   26.8657  -20.4239  -11.1573 N   0  0  0  0  0  0  0  0  0  0  0  0
   24.8354  -20.6168   -9.9644 C   0  0  0  0  0  0  0  0  0  0  0  0
   23.9948  -20.9621   -9.0731 O   0  0  0  0  0  0  0  0  0  0  0  0
   24.3171  -20.0201  -11.1307 O   0  0  0  0  0  0  0  0  0  0  0  0
  1  5  1  0
  2  1  1  0
  2  3  1  0
  3  4  1  0
  5  6  1  1
  5  4  1  0
  6  7  2  0
  8  9  1  0
  9 11  1  0
 10  9  2  0
 11 12  1  0
 13 12  1  1
 14  6  1  0
 14 13  1  0
 15 16  2  0
 15 13  1  0
 18 17  1  0
 19 20  1  0
 19 18  1  0
 21 20  1  1
 21 22  1  0
 22 15  1  0
 23 25  1  0
 23 21  1  0
 24 23  2  0
M  END
$$$$
