PQM.pdb
     RDKit          3D

 25 25  0  0  1  0  0  0  0  0999 V2000
   17.3559  -12.5317  -15.6388 N   0  0  0  0  0  0  0  0  0  0  0  0
   16.7917  -13.7913  -16.0458 C   0  0  0  0  0  0  0  0  0  0  0  0
   16.7301  -13.7904  -17.5532 C   0  0  0  0  0  0  0  0  0  0  0  0
   17.1411  -12.3662  -17.9098 C   0  0  0  0  0  0  0  0  0  0  0  0
   18.0958  -12.0738  -16.7699 C   0  0  1  0  0  0  0  0  0  0  0  0
   18.4931  -10.6574  -16.6925 C   0  0  0  0  0  0  0  0  0  0  0  0
   19.4923  -10.2968  -17.3545 O   0  0  0  0  0  0  0  0  0  0  0  0
   14.6518   -5.8169  -15.0301 N   0  0  0  0  0  0  0  0  0  0  0  0
   15.8874   -5.1894  -15.3269 C   0  0  0  0  0  0  0  0  0  0  0  0
   15.9249   -3.9416  -15.3858 O   0  0  0  0  0  0  0  0  0  0  0  0
   17.0811   -5.9905  -15.5569 C   0  0  0  0  0  0  0  0  0  0  0  0
   16.8906   -7.4627  -15.6047 C   0  0  0  0  0  0  0  0  0  0  0  0
   18.0926   -8.2978  -15.8321 C   0  0  2  0  0  0  0  0  0  0  0  0
   17.7774   -9.7240  -15.8994 N   0  0  0  0  0  0  0  0  0  0  0  0
   19.2078   -8.0420  -14.8942 C   0  0  0  0  0  0  0  0  0  0  0  0
   19.3834   -8.8291  -13.9416 O   0  0  0  0  0  0  0  0  0  0  0  0
   26.1859   -9.6844  -14.4689 C   0  0  0  0  0  0  0  0  0  0  0  0
   24.4910   -9.6137  -15.1164 S   0  0  0  0  0  0  0  0  0  0  0  0
   23.5954   -8.1902  -14.4121 C   0  0  0  0  0  0  0  0  0  0  0  0
   22.1867   -8.1604  -14.9432 C   0  0  0  0  0  0  0  0  0  0  0  0
   21.4011   -7.0057  -14.3694 C   0  0  2  0  0  0  0  0  0  0  0  0
   20.0857   -6.9358  -15.0357 N   0  0  0  0  0  0  0  0  0  0  0  0
   22.0741   -5.7228  -14.6384 C   0  0  0  0  0  0  0  0  0  0  0  0
   21.7875   -4.9499  -15.6082 O   0  0  0  0  0  0  0  0  0  0  0  0
   23.1069   -5.3054  -13.7759 O   0  0  0  0  0  0  0  0  0  0  0  0
  1  5  1  0
  2  1  1  0
  2  3  1  0
  3  4  1  0
  5  6  1  1
  5  4  1  0
  6  7  2  0
  8  9  1  0
  9 11  1  0
 10  9  2  0
 11 12  1  0
 13 12  1  1
 14  6  1  0
 14 13  1  0
 15 16  2  0
 15 13  1  0
 18 17  1  0
 19 20  1  0
 19 18  1  0
 21 20  1  6
 21 22  1  0
 22 15  1  0
 23 25  1  0
 23 21  1  0
 24 23  2  0
M  END
$$$$
