PQM.pdb
     RDKit          3D

 25 25  0  0  1  0  0  0  0  0999 V2000
   27.4752  -19.5219  -16.9328 N   0  0  0  0  0  0  0  0  0  0  0  0
   28.3568  -19.1909  -18.0208 C   0  0  0  0  0  0  0  0  0  0  0  0
   28.8045  -17.7643  -17.8188 C   0  0  0  0  0  0  0  0  0  0  0  0
   27.9568  -17.3056  -16.6376 C   0  0  0  0  0  0  0  0  0  0  0  0
   27.8202  -18.6146  -15.8866 C   0  0  1  0  0  0  0  0  0  0  0  0
   26.8344  -18.5582  -14.7934 C   0  0  0  0  0  0  0  0  0  0  0  0
   27.0298  -17.7286  -13.8767 O   0  0  0  0  0  0  0  0  0  0  0  0
   20.8310  -18.8286  -15.9082 N   0  0  0  0  0  0  0  0  0  0  0  0
   21.8750  -17.9150  -16.1979 C   0  0  0  0  0  0  0  0  0  0  0  0
   21.6606  -17.0068  -17.0292 O   0  0  0  0  0  0  0  0  0  0  0  0
   23.1657  -18.0410  -15.5362 C   0  0  0  0  0  0  0  0  0  0  0  0
   23.2833  -19.1127  -14.5147 C   0  0  0  0  0  0  0  0  0  0  0  0
   24.5880  -19.2595  -13.8289 C   0  0  2  0  0  0  0  0  0  0  0  0
   25.6990  -19.4082  -14.7678 N   0  0  0  0  0  0  0  0  0  0  0  0
   24.6238  -20.3120  -12.7898 C   0  0  0  0  0  0  0  0  0  0  0  0
   24.6514  -21.5076  -13.1472 O   0  0  0  0  0  0  0  0  0  0  0  0
   27.3005  -18.5913   -7.7176 C   0  0  0  0  0  0  0  0  0  0  0  0
   26.9911  -20.3537   -7.4091 S   0  0  0  0  0  0  0  0  0  0  0  0
   26.3064  -21.1537   -8.8976 C   0  0  0  0  0  0  0  0  0  0  0  0
   24.8736  -20.7326   -9.0897 C   0  0  0  0  0  0  0  0  0  0  0  0
   24.3603  -21.1166  -10.4568 C   0  0  2  0  0  0  0  0  0  0  0  0
   24.6276  -20.0147  -11.4020 N   0  0  0  0  0  0  0  0  0  0  0  0
   22.8993  -21.3063  -10.4390 C   0  0  0  0  0  0  0  0  0  0  0  0
   22.0566  -20.4382  -10.8343 O   0  0  0  0  0  0  0  0  0  0  0  0
   22.3798  -22.5235   -9.9557 O   0  0  0  0  0  0  0  0  0  0  0  0
  1  5  1  0
  2  1  1  0
  2  3  1  0
  3  4  1  0
  5  6  1  1
  5  4  1  0
  6  7  2  0
  8  9  1  0
  9 11  1  0
 10  9  2  0
 11 12  1  0
 13 12  1  6
 14  6  1  0
 14 13  1  0
 15 16  2  0
 15 13  1  0
 18 17  1  0
 19 20  1  0
 19 18  1  0
 21 20  1  1
 21 22  1  0
 22 15  1  0
 23 25  1  0
 23 21  1  0
 24 23  2  0
M  END
$$$$
