PQM.pdb
     RDKit          3D

 25 25  0  0  1  0  0  0  0  0999 V2000
   27.4344  -20.9966  -15.9404 N   0  0  0  0  0  0  0  0  0  0  0  0
   28.7631  -21.1996  -16.4542 C   0  0  0  0  0  0  0  0  0  0  0  0
   29.4024  -19.8405  -16.5974 C   0  0  0  0  0  0  0  0  0  0  0  0
   28.2524  -18.8890  -16.2869 C   0  0  0  0  0  0  0  0  0  0  0  0
   27.4781  -19.7272  -15.2898 C   0  0  1  0  0  0  0  0  0  0  0  0
   26.1517  -19.1725  -14.9691 C   0  0  0  0  0  0  0  0  0  0  0  0
   26.1061  -18.1712  -14.2193 O   0  0  0  0  0  0  0  0  0  0  0  0
   21.6072  -17.6540  -18.6123 N   0  0  0  0  0  0  0  0  0  0  0  0
   22.5421  -18.7026  -18.7996 C   0  0  0  0  0  0  0  0  0  0  0  0
   22.7633  -19.1053  -19.9618 O   0  0  0  0  0  0  0  0  0  0  0  0
   23.2241  -19.2912  -17.6559 C   0  0  0  0  0  0  0  0  0  0  0  0
   22.9071  -18.7106  -16.3261 C   0  0  0  0  0  0  0  0  0  0  0  0
   23.6169  -19.2695  -15.1524 C   0  0  2  0  0  0  0  0  0  0  0  0
   24.9597  -19.7430  -15.4849 N   0  0  0  0  0  0  0  0  0  0  0  0
   22.8592  -20.2973  -14.4051 C   0  0  0  0  0  0  0  0  0  0  0  0
   23.2825  -21.4714  -14.4024 O   0  0  0  0  0  0  0  0  0  0  0  0
   26.0933  -20.7936  -10.8650 C   0  0  0  0  0  0  0  0  0  0  0  0
   24.6842  -20.9378   -9.7291 S   0  0  0  0  0  0  0  0  0  0  0  0
   23.1666  -21.3697  -10.6429 C   0  0  0  0  0  0  0  0  0  0  0  0
   22.7594  -20.2209  -11.5270 C   0  0  0  0  0  0  0  0  0  0  0  0
   21.5227  -20.5486  -12.3289 C   0  0  2  0  0  0  0  0  0  0  0  0
   21.6690  -19.9997  -13.6914 N   0  0  0  0  0  0  0  0  0  0  0  0
   20.3300  -19.9086  -11.7468 C   0  0  0  0  0  0  0  0  0  0  0  0
   19.8073  -18.8323  -12.1809 O   0  0  0  0  0  0  0  0  0  0  0  0
   19.7117  -20.5126  -10.6343 O   0  0  0  0  0  0  0  0  0  0  0  0
  1  5  1  0
  2  1  1  0
  2  3  1  0
  3  4  1  0
  5  6  1  6
  5  4  1  0
  6  7  2  0
  8  9  1  0
  9 11  1  0
 10  9  2  0
 11 12  1  0
 13 12  1  6
 14  6  1  0
 14 13  1  0
 15 16  2  0
 15 13  1  0
 18 17  1  0
 19 20  1  0
 19 18  1  0
 21 20  1  1
 21 22  1  0
 22 15  1  0
 23 25  1  0
 23 21  1  0
 24 23  2  0
M  END
$$$$
