PQM.pdb
     RDKit          3D

 25 25  0  0  1  0  0  0  0  0999 V2000
   17.0295   -9.2521  -18.0336 N   0  0  0  0  0  0  0  0  0  0  0  0
   16.2663  -10.3527  -18.5595 C   0  0  0  0  0  0  0  0  0  0  0  0
   15.2305  -10.7167  -17.5246 C   0  0  0  0  0  0  0  0  0  0  0  0
   15.6142   -9.8417  -16.3366 C   0  0  0  0  0  0  0  0  0  0  0  0
   16.1785   -8.6392  -17.0658 C   0  0  1  0  0  0  0  0  0  0  0  0
   16.8695   -7.6904  -16.1757 C   0  0  0  0  0  0  0  0  0  0  0  0
   16.1871   -7.1123  -15.3001 O   0  0  0  0  0  0  0  0  0  0  0  0
   22.1684   -8.7720  -13.3530 N   0  0  0  0  0  0  0  0  0  0  0  0
   21.9707   -7.4070  -13.0267 C   0  0  0  0  0  0  0  0  0  0  0  0
   22.7152   -6.8836  -12.1702 O   0  0  0  0  0  0  0  0  0  0  0  0
   20.9198   -6.6405  -13.6806 C   0  0  0  0  0  0  0  0  0  0  0  0
   20.0739   -7.3756  -14.6553 C   0  0  0  0  0  0  0  0  0  0  0  0
   19.0205   -6.6073  -15.3581 C   0  0  2  0  0  0  0  0  0  0  0  0
   18.2591   -7.4315  -16.2955 N   0  0  0  0  0  0  0  0  0  0  0  0
   19.4919   -5.3625  -16.0041 C   0  0  0  0  0  0  0  0  0  0  0  0
   20.0132   -5.4339  -17.1358 O   0  0  0  0  0  0  0  0  0  0  0  0
   16.7295    0.2810  -15.3832 C   0  0  0  0  0  0  0  0  0  0  0  0
   17.9048    0.6728  -16.7105 S   0  0  0  0  0  0  0  0  0  0  0  0
   19.2282   -0.5793  -16.7843 C   0  0  0  0  0  0  0  0  0  0  0  0
   18.7918   -1.8258  -16.0612 C   0  0  0  0  0  0  0  0  0  0  0  0
   19.8409   -2.9089  -16.1388 C   0  0  2  0  0  0  0  0  0  0  0  0
   19.3745   -4.0902  -15.3862 N   0  0  0  0  0  0  0  0  0  0  0  0
   21.0961   -2.4760  -15.5003 C   0  0  0  0  0  0  0  0  0  0  0  0
   21.4375   -2.7727  -14.3106 O   0  0  0  0  0  0  0  0  0  0  0  0
   21.9928   -1.6793  -16.2395 O   0  0  0  0  0  0  0  0  0  0  0  0
  1  5  1  0
  2  1  1  0
  2  3  1  0
  3  4  1  0
  5  6  1  1
  5  4  1  0
  6  7  2  0
  8  9  1  0
  9 11  1  0
 10  9  2  0
 11 12  1  0
 13 12  1  6
 14  6  1  0
 14 13  1  0
 15 16  2  0
 15 13  1  0
 18 17  1  0
 19 20  1  0
 19 18  1  0
 21 20  1  1
 21 22  1  0
 22 15  1  0
 23 25  1  0
 23 21  1  0
 24 23  2  0
M  END
$$$$
