PQM.pdb
     RDKit          3D

 25 25  0  0  1  0  0  0  0  0999 V2000
   27.3192  -21.0012  -15.0913 N   0  0  0  0  0  0  0  0  0  0  0  0
   27.8464  -20.8457  -16.4212 C   0  0  0  0  0  0  0  0  0  0  0  0
   28.0620  -19.3700  -16.6497 C   0  0  0  0  0  0  0  0  0  0  0  0
   27.4455  -18.7393  -15.4061 C   0  0  0  0  0  0  0  0  0  0  0  0
   27.7286  -19.8275  -14.3903 C   0  0  1  0  0  0  0  0  0  0  0  0
   27.0328  -19.6222  -13.1083 C   0  0  0  0  0  0  0  0  0  0  0  0
   27.2489  -18.5530  -12.4943 O   0  0  0  0  0  0  0  0  0  0  0  0
   21.1691  -21.4471  -12.6019 N   0  0  0  0  0  0  0  0  0  0  0  0
   21.7131  -20.2517  -13.1347 C   0  0  0  0  0  0  0  0  0  0  0  0
   20.9872  -19.5347  -13.8563 O   0  0  0  0  0  0  0  0  0  0  0  0
   23.0891  -19.8768  -12.8420 C   0  0  0  0  0  0  0  0  0  0  0  0
   23.8107  -20.7247  -11.8589 C   0  0  0  0  0  0  0  0  0  0  0  0
   25.1919  -20.3271  -11.5012 C   0  0  2  0  0  0  0  0  0  0  0  0
   26.1463  -20.5935  -12.5765 N   0  0  0  0  0  0  0  0  0  0  0  0
   25.6759  -20.8695  -10.2126 C   0  0  0  0  0  0  0  0  0  0  0  0
   25.8102  -22.1047  -10.0938 O   0  0  0  0  0  0  0  0  0  0  0  0
   29.6189  -18.2623   -5.8969 C   0  0  0  0  0  0  0  0  0  0  0  0
   28.6355  -19.2638   -4.7451 S   0  0  0  0  0  0  0  0  0  0  0  0
   27.5115  -20.3715   -5.6585 C   0  0  0  0  0  0  0  0  0  0  0  0
   27.1991  -19.7812   -7.0080 C   0  0  0  0  0  0  0  0  0  0  0  0
   26.3075  -20.6906   -7.8190 C   0  0  2  0  0  0  0  0  0  0  0  0
   25.9929  -20.0393   -9.1058 N   0  0  0  0  0  0  0  0  0  0  0  0
   25.0200  -20.9135   -7.1381 C   0  0  0  0  0  0  0  0  0  0  0  0
   23.9301  -20.3370   -7.4542 O   0  0  0  0  0  0  0  0  0  0  0  0
   24.9706  -21.8220   -6.0624 O   0  0  0  0  0  0  0  0  0  0  0  0
  1  5  1  0
  2  1  1  0
  2  3  1  0
  3  4  1  0
  5  6  1  1
  5  4  1  0
  6  7  2  0
  8  9  1  0
  9 11  1  0
 10  9  2  0
 11 12  1  0
 13 12  1  6
 14  6  1  0
 14 13  1  0
 15 16  2  0
 15 13  1  0
 18 17  1  0
 19 20  1  0
 19 18  1  0
 21 20  1  1
 21 22  1  0
 22 15  1  0
 23 25  1  0
 23 21  1  0
 24 23  2  0
M  END
$$$$
