PQM.pdb
     RDKit          3D

 25 25  0  0  1  0  0  0  0  0999 V2000
   27.4883  -20.9684  -15.6478 N   0  0  0  0  0  0  0  0  0  0  0  0
   28.0445  -20.7362  -16.9545 C   0  0  0  0  0  0  0  0  0  0  0  0
   28.5046  -19.3000  -16.9986 C   0  0  0  0  0  0  0  0  0  0  0  0
   27.9920  -18.7376  -15.6775 C   0  0  0  0  0  0  0  0  0  0  0  0
   28.0820  -19.9771  -14.8104 C   0  0  1  0  0  0  0  0  0  0  0  0
   27.4200  -19.8223  -13.5035 C   0  0  0  0  0  0  0  0  0  0  0  0
   27.9032  -18.9913  -12.7019 O   0  0  0  0  0  0  0  0  0  0  0  0
   21.1997  -20.6023  -13.2283 N   0  0  0  0  0  0  0  0  0  0  0  0
   21.5044  -20.2605  -11.8870 C   0  0  0  0  0  0  0  0  0  0  0  0
   20.5618  -20.1031  -11.0817 O   0  0  0  0  0  0  0  0  0  0  0  0
   22.8888  -20.0983  -11.4671 C   0  0  0  0  0  0  0  0  0  0  0  0
   23.9277  -20.3763  -12.4916 C   0  0  0  0  0  0  0  0  0  0  0  0
   25.3433  -20.2117  -12.0880 C   0  0  2  0  0  0  0  0  0  0  0  0
   26.2745  -20.5819  -13.1528 N   0  0  0  0  0  0  0  0  0  0  0  0
   25.7019  -20.8712  -10.8131 C   0  0  0  0  0  0  0  0  0  0  0  0
   25.8887  -22.1053  -10.8075 O   0  0  0  0  0  0  0  0  0  0  0  0
   28.1495  -17.9304   -5.5856 C   0  0  0  0  0  0  0  0  0  0  0  0
   28.3510  -19.6734   -5.1187 S   0  0  0  0  0  0  0  0  0  0  0  0
   27.3011  -20.7406   -6.1596 C   0  0  0  0  0  0  0  0  0  0  0  0
   27.0500  -20.0719   -7.4852 C   0  0  0  0  0  0  0  0  0  0  0  0
   26.1733  -20.9182   -8.3768 C   0  0  2  0  0  0  0  0  0  0  0  0
   25.8414  -20.1548   -9.5959 N   0  0  0  0  0  0  0  0  0  0  0  0
   24.8928  -21.2295   -7.7176 C   0  0  0  0  0  0  0  0  0  0  0  0
   23.7691  -20.7415   -8.0626 O   0  0  0  0  0  0  0  0  0  0  0  0
   24.8906  -22.1256   -6.6304 O   0  0  0  0  0  0  0  0  0  0  0  0
  1  5  1  0
  2  1  1  0
  2  3  1  0
  3  4  1  0
  5  6  1  1
  5  4  1  0
  6  7  2  0
  8  9  1  0
  9 11  1  0
 10  9  2  0
 11 12  1  0
 13 12  1  6
 14  6  1  0
 14 13  1  0
 15 16  2  0
 15 13  1  0
 18 17  1  0
 19 20  1  0
 19 18  1  0
 21 20  1  1
 21 22  1  0
 22 15  1  0
 23 25  1  0
 23 21  1  0
 24 23  2  0
M  END
$$$$
