PQM.pdb
     RDKit          3D

 25 25  0  0  1  0  0  0  0  0999 V2000
   27.4608  -22.4013  -15.7380 N   0  0  0  0  0  0  0  0  0  0  0  0
   27.9622  -22.6361  -17.0663 C   0  0  0  0  0  0  0  0  0  0  0  0
   28.3745  -21.3003  -17.6338 C   0  0  0  0  0  0  0  0  0  0  0  0
   27.8918  -20.3165  -16.5739 C   0  0  0  0  0  0  0  0  0  0  0  0
   28.0523  -21.1681  -15.3308 C   0  0  1  0  0  0  0  0  0  0  0  0
   27.4329  -20.5731  -14.1339 C   0  0  0  0  0  0  0  0  0  0  0  0
   27.8834  -19.4774  -13.7300 O   0  0  0  0  0  0  0  0  0  0  0  0
   21.3187  -20.6719  -13.5892 N   0  0  0  0  0  0  0  0  0  0  0  0
   21.6736  -20.0945  -12.3445 C   0  0  0  0  0  0  0  0  0  0  0  0
   20.7649  -19.6442  -11.6141 O   0  0  0  0  0  0  0  0  0  0  0  0
   23.0693  -20.0318  -11.9355 C   0  0  0  0  0  0  0  0  0  0  0  0
   24.0612  -20.6110  -12.8772 C   0  0  0  0  0  0  0  0  0  0  0  0
   25.4898  -20.5346  -12.4935 C   0  0  2  0  0  0  0  0  0  0  0  0
   26.3629  -21.2087  -13.4533 N   0  0  0  0  0  0  0  0  0  0  0  0
   25.7811  -20.9708  -11.1101 C   0  0  0  0  0  0  0  0  0  0  0  0
   25.7455  -22.1899  -10.8451 O   0  0  0  0  0  0  0  0  0  0  0  0
   28.9619  -19.5569   -4.0218 C   0  0  0  0  0  0  0  0  0  0  0  0
   28.4455  -18.8906   -5.6299 S   0  0  0  0  0  0  0  0  0  0  0  0
   27.4437  -20.1139   -6.5379 C   0  0  0  0  0  0  0  0  0  0  0  0
   27.1568  -19.6082   -7.9269 C   0  0  0  0  0  0  0  0  0  0  0  0
   26.3384  -20.5983   -8.7204 C   0  0  2  0  0  0  0  0  0  0  0  0
   26.0992  -20.0562  -10.0724 N   0  0  0  0  0  0  0  0  0  0  0  0
   25.0123  -20.7978   -8.1100 C   0  0  0  0  0  0  0  0  0  0  0  0
   23.9384  -20.2597   -8.5311 O   0  0  0  0  0  0  0  0  0  0  0  0
   24.9041  -21.6371   -6.9835 O   0  0  0  0  0  0  0  0  0  0  0  0
  1  5  1  0
  2  1  1  0
  2  3  1  0
  3  4  1  0
  5  6  1  1
  5  4  1  0
  6  7  2  0
  8  9  1  0
  9 11  1  0
 10  9  2  0
 11 12  1  0
 13 12  1  6
 14  6  1  0
 14 13  1  0
 15 16  2  0
 15 13  1  0
 18 17  1  0
 19 20  1  0
 19 18  1  0
 21 20  1  1
 21 22  1  0
 22 15  1  0
 23 25  1  0
 23 21  1  0
 24 23  2  0
M  END
$$$$
