PQM.pdb
     RDKit          3D

 25 25  0  0  1  0  0  0  0  0999 V2000
   16.2201  -10.8536  -12.6805 N   0  0  0  0  0  0  0  0  0  0  0  0
   15.5168  -11.9597  -13.2743 C   0  0  0  0  0  0  0  0  0  0  0  0
   14.4224  -11.3846  -14.1391 C   0  0  0  0  0  0  0  0  0  0  0  0
   14.4859   -9.8947  -13.8225 C   0  0  0  0  0  0  0  0  0  0  0  0
   15.9683   -9.7467  -13.5453 C   0  0  1  0  0  0  0  0  0  0  0  0
   16.3243   -8.4402  -12.9652 C   0  0  0  0  0  0  0  0  0  0  0  0
   16.3160   -7.4453  -13.7246 O   0  0  0  0  0  0  0  0  0  0  0  0
   15.0020   -6.6357   -7.1553 N   0  0  0  0  0  0  0  0  0  0  0  0
   14.2148   -6.6650   -8.3334 C   0  0  0  0  0  0  0  0  0  0  0  0
   12.9709   -6.6174   -8.2220 O   0  0  0  0  0  0  0  0  0  0  0  0
   14.8513   -6.7493   -9.6399 C   0  0  0  0  0  0  0  0  0  0  0  0
   16.3326   -6.8570   -9.6482 C   0  0  0  0  0  0  0  0  0  0  0  0
   16.9958   -7.0243  -10.9621 C   0  0  2  0  0  0  0  0  0  0  0  0
   16.6665   -8.3003  -11.5957 N   0  0  0  0  0  0  0  0  0  0  0  0
   18.4577   -6.7976  -10.9485 C   0  0  0  0  0  0  0  0  0  0  0  0
   19.1586   -7.4481  -10.1464 O   0  0  0  0  0  0  0  0  0  0  0  0
   23.7137  -10.1100  -13.7332 C   0  0  0  0  0  0  0  0  0  0  0  0
   22.1295   -9.3244  -14.1454 S   0  0  0  0  0  0  0  0  0  0  0  0
   22.0206   -7.6683  -13.3905 C   0  0  0  0  0  0  0  0  0  0  0  0
   20.6138   -7.4152  -12.9171 C   0  0  0  0  0  0  0  0  0  0  0  0
   20.5065   -6.1084  -12.1682 C   0  0  2  0  0  0  0  0  0  0  0  0
   19.0942   -5.8683  -11.8122 N   0  0  0  0  0  0  0  0  0  0  0  0
   20.9214   -4.9773  -13.0164 C   0  0  0  0  0  0  0  0  0  0  0  0
   22.1276   -4.6054  -13.1797 O   0  0  0  0  0  0  0  0  0  0  0  0
   19.9316   -4.2452  -13.7015 O   0  0  0  0  0  0  0  0  0  0  0  0
  1  5  1  0
  2  1  1  0
  2  3  1  0
  3  4  1  0
  5  6  1  1
  5  4  1  0
  6  7  2  0
  8  9  1  0
  9 11  1  0
 10  9  2  0
 11 12  1  0
 13 12  1  1
 14  6  1  0
 14 13  1  0
 15 16  2  0
 15 13  1  0
 18 17  1  0
 19 20  1  0
 19 18  1  0
 21 20  1  6
 21 22  1  0
 22 15  1  0
 23 25  1  0
 23 21  1  0
 24 23  2  0
M  END
$$$$
