PQM.pdb
     RDKit          3D

 25 25  0  0  1  0  0  0  0  0999 V2000
   18.3262  -12.3634  -14.9852 N   0  0  0  0  0  0  0  0  0  0  0  0
   17.9209  -13.5676  -15.6606 C   0  0  0  0  0  0  0  0  0  0  0  0
   17.0482  -13.1599  -16.8218 C   0  0  0  0  0  0  0  0  0  0  0  0
   16.8772  -11.6599  -16.6089 C   0  0  0  0  0  0  0  0  0  0  0  0
   18.2085  -11.3315  -15.9639 C   0  0  1  0  0  0  0  0  0  0  0  0
   18.2650   -9.9687  -15.4074 C   0  0  0  0  0  0  0  0  0  0  0  0
   18.3629   -9.0155  -16.2126 O   0  0  0  0  0  0  0  0  0  0  0  0
   16.3146   -8.5357   -9.5591 N   0  0  0  0  0  0  0  0  0  0  0  0
   15.5112   -8.5844  -10.7256 C   0  0  0  0  0  0  0  0  0  0  0  0
   14.2757   -8.7194  -10.5949 O   0  0  0  0  0  0  0  0  0  0  0  0
   16.1221   -8.4788  -12.0429 C   0  0  0  0  0  0  0  0  0  0  0  0
   17.6021   -8.3585  -12.0778 C   0  0  0  0  0  0  0  0  0  0  0  0
   18.2574   -8.4000  -13.4055 C   0  0  2  0  0  0  0  0  0  0  0  0
   18.2113   -9.7306  -14.0100 N   0  0  0  0  0  0  0  0  0  0  0  0
   19.6303   -7.8494  -13.4333 C   0  0  0  0  0  0  0  0  0  0  0  0
   20.5721   -8.5647  -13.0344 O   0  0  0  0  0  0  0  0  0  0  0  0
   25.1334   -4.5825  -17.6479 C   0  0  0  0  0  0  0  0  0  0  0  0
   23.4200   -5.1339  -17.4092 S   0  0  0  0  0  0  0  0  0  0  0  0
   23.0908   -5.4560  -15.6450 C   0  0  0  0  0  0  0  0  0  0  0  0
   21.6694   -5.9202  -15.4679 C   0  0  0  0  0  0  0  0  0  0  0  0
   21.3344   -6.1403  -14.0121 C   0  0  2  0  0  0  0  0  0  0  0  0
   19.9178   -6.5386  -13.8956 N   0  0  0  0  0  0  0  0  0  0  0  0
   21.4823   -4.8934  -13.2412 C   0  0  0  0  0  0  0  0  0  0  0  0
   20.5260   -4.0992  -12.9678 O   0  0  0  0  0  0  0  0  0  0  0  0
   22.7600   -4.5384  -12.7653 O   0  0  0  0  0  0  0  0  0  0  0  0
  1  5  1  0
  2  1  1  0
  2  3  1  0
  3  4  1  0
  5  6  1  1
  5  4  1  0
  6  7  2  0
  8  9  1  0
  9 11  1  0
 10  9  2  0
 11 12  1  0
 13 12  1  1
 14  6  1  0
 14 13  1  0
 15 16  2  0
 15 13  1  0
 18 17  1  0
 19 20  1  0
 19 18  1  0
 21 20  1  6
 21 22  1  0
 22 15  1  0
 23 25  1  0
 23 21  1  0
 24 23  2  0
M  END
$$$$
