PQM.pdb
     RDKit          3D

 25 25  0  0  1  0  0  0  0  0999 V2000
   36.5504  -26.0163  -19.2054 N   0  0  0  0  0  0  0  0  0  0  0  0
   35.6749  -24.9047  -19.4672 C   0  0  0  0  0  0  0  0  0  0  0  0
   34.4330  -25.1047  -18.6342 C   0  0  0  0  0  0  0  0  0  0  0  0
   34.6393  -26.4950  -18.0438 C   0  0  0  0  0  0  0  0  0  0  0  0
   36.1502  -26.5111  -17.9282 C   0  0  1  0  0  0  0  0  0  0  0  0
   36.6948  -27.8407  -17.6033 C   0  0  0  0  0  0  0  0  0  0  0  0
   37.8599  -28.0997  -17.9805 O   0  0  0  0  0  0  0  0  0  0  0  0
   37.5074  -31.0550  -13.1943 N   0  0  0  0  0  0  0  0  0  0  0  0
   38.2572  -31.8162  -14.1254 C   0  0  0  0  0  0  0  0  0  0  0  0
   38.7877  -32.8795  -13.7383 O   0  0  0  0  0  0  0  0  0  0  0  0
   38.4005  -31.3601  -15.5005 C   0  0  0  0  0  0  0  0  0  0  0  0
   37.7493  -30.0692  -15.8404 C   0  0  0  0  0  0  0  0  0  0  0  0
   36.4355  -30.1280  -16.5219 C   0  0  2  0  0  0  0  0  0  0  0  0
   35.9366  -28.8034  -16.8887 N   0  0  0  0  0  0  0  0  0  0  0  0
   35.4024  -30.9066  -15.8039 C   0  0  0  0  0  0  0  0  0  0  0  0
   34.7062  -30.3299  -14.9435 O   0  0  0  0  0  0  0  0  0  0  0  0
   28.9799  -32.3809  -18.6083 C   0  0  0  0  0  0  0  0  0  0  0  0
   30.5974  -31.6073  -18.3221 S   0  0  0  0  0  0  0  0  0  0  0  0
   31.5464  -32.5478  -17.0814 C   0  0  0  0  0  0  0  0  0  0  0  0
   32.9356  -31.9791  -16.9634 C   0  0  0  0  0  0  0  0  0  0  0  0
   33.7822  -32.7764  -16.0003 C   0  0  2  0  0  0  0  0  0  0  0  0
   35.1729  -32.2844  -16.0556 N   0  0  0  0  0  0  0  0  0  0  0  0
   33.8264  -34.1975  -16.3866 C   0  0  0  0  0  0  0  0  0  0  0  0
   34.4829  -34.6534  -17.3772 O   0  0  0  0  0  0  0  0  0  0  0  0
   33.1000  -35.1308  -15.6209 O   0  0  0  0  0  0  0  0  0  0  0  0
  1  5  1  0
  2  1  1  0
  2  3  1  0
  3  4  1  0
  5  6  1  6
  5  4  1  0
  6  7  2  0
  8  9  1  0
  9 11  1  0
 10  9  2  0
 11 12  1  0
 13 12  1  1
 14  6  1  0
 14 13  1  0
 15 16  2  0
 15 13  1  0
 18 17  1  0
 19 20  1  0
 19 18  1  0
 21 20  1  6
 21 22  1  0
 22 15  1  0
 23 25  1  0
 23 21  1  0
 24 23  2  0
M  END
$$$$
