MDS.pdb
     RDKit          3D

 23 22  0  0  1  0  0  0  0  0999 V2000
    7.0093  -11.5759   19.9056 C   0  0  0  0  0  0  0  0  0  0  0  0
    7.7292  -13.0051   20.7618 S   0  0  0  0  0  0  0  0  0  0  0  0
    7.0127  -14.5632   20.0790 C   0  0  0  0  0  0  0  0  0  0  0  0
    7.5359  -15.6558   20.9695 C   0  0  0  0  0  0  0  0  0  0  0  0
    8.9935  -15.7056   20.9664 C   0  0  2  0  0  0  0  0  0  0  0  0
    9.5942  -15.7120   19.6436 N   0  0  0  0  0  0  0  0  0  0  0  0
    9.7281  -16.5872   21.8416 C   0  0  0  0  0  0  0  0  0  0  0  0
    9.0384  -17.1105   22.7909 O   0  0  0  0  0  0  0  0  0  0  0  0
   11.0962  -16.8976   21.7330 N   0  0  0  0  0  0  0  0  0  0  0  0
   11.8017  -17.7599   22.7054 C   0  0  1  0  0  0  0  0  0  0  0  0
   13.1363  -18.0185   22.1222 C   0  0  0  0  0  0  0  0  0  0  0  0
   13.1876  -18.5956   20.7839 C   0  0  0  0  0  0  0  0  0  0  0  0
   12.5798  -19.6773   20.5782 O   0  0  0  0  0  0  0  0  0  0  0  0
   11.7595  -17.0844   24.0150 C   0  0  0  0  0  0  0  0  0  0  0  0
   12.4932  -16.0640   24.2610 O   0  0  0  0  0  0  0  0  0  0  0  0
   13.8634  -18.0328   19.7125 O   0  0  0  0  0  0  0  0  0  0  0  0
    8.7217  -16.9381   26.3561 O   0  0  0  0  0  0  0  0  0  0  0  0
    9.7911  -16.1028   26.7093 C   0  0  0  0  0  0  0  0  0  0  0  0
   11.0581  -16.8822   26.4255 C   0  0  2  0  0  0  0  0  0  0  0  0
   10.9301  -17.4767   25.0988 N   0  0  0  0  0  0  0  0  0  0  0  0
   11.2596  -17.9512   27.4357 C   0  0  0  0  0  0  0  0  0  0  0  0
   11.1910  -19.1404   27.0814 O   0  0  0  0  0  0  0  0  0  0  0  0
   11.5229  -17.6221   28.7648 O   0  0  0  0  0  0  0  0  0  0  0  0
  1  2  1  0
  2  3  1  0
  4  3  1  0
  5  7  1  0
  5  4  1  0
  5  6  1  6
  7  9  1  0
  7  8  2  0
  9 10  1  0
 10 14  1  0
 10 11  1  6
 12 13  2  0
 12 11  1  0
 14 20  1  0
 14 15  2  0
 16 12  1  0
 17 18  1  0
 19 18  1  1
 19 21  1  0
 20 19  1  0
 21 23  1  0
 22 21  2  0
M  END
$$$$
