MDS.pdb
     RDKit          3D

 23 22  0  0  1  0  0  0  0  0999 V2000
    6.1236  -12.0085   26.9599 C   0  0  0  0  0  0  0  0  0  0  0  0
    7.0957  -11.2072   25.6533 S   0  0  0  0  0  0  0  0  0  0  0  0
    6.8849  -12.1298   24.0685 C   0  0  0  0  0  0  0  0  0  0  0  0
    7.6203  -13.4254   24.2710 C   0  0  0  0  0  0  0  0  0  0  0  0
    7.6587  -14.2228   23.0504 C   0  0  2  0  0  0  0  0  0  0  0  0
    6.3727  -14.3834   22.3938 N   0  0  0  0  0  0  0  0  0  0  0  0
    8.4075  -15.4538   22.9672 C   0  0  0  0  0  0  0  0  0  0  0  0
    7.6952  -16.5190   22.8739 O   0  0  0  0  0  0  0  0  0  0  0  0
    9.8102  -15.5632   22.9847 N   0  0  0  0  0  0  0  0  0  0  0  0
   10.5111  -16.8586   23.1173 C   0  0  1  0  0  0  0  0  0  0  0  0
   11.7973  -16.6967   22.4049 C   0  0  0  0  0  0  0  0  0  0  0  0
   12.7176  -17.8281   22.4080 C   0  0  0  0  0  0  0  0  0  0  0  0
   12.2409  -18.9828   22.5531 O   0  0  0  0  0  0  0  0  0  0  0  0
   10.5742  -17.1880   24.5528 C   0  0  0  0  0  0  0  0  0  0  0  0
   10.9858  -16.3339   25.4137 O   0  0  0  0  0  0  0  0  0  0  0  0
   14.0917  -17.7216   22.2607 O   0  0  0  0  0  0  0  0  0  0  0  0
    8.0353  -18.6770   26.9275 O   0  0  0  0  0  0  0  0  0  0  0  0
    9.1397  -19.5399   26.9678 C   0  0  0  0  0  0  0  0  0  0  0  0
   10.3397  -18.7239   26.5351 C   0  0  2  0  0  0  0  0  0  0  0  0
   10.1964  -18.4378   25.1111 N   0  0  0  0  0  0  0  0  0  0  0  0
   11.6009  -19.4707   26.7710 C   0  0  0  0  0  0  0  0  0  0  0  0
   12.3416  -19.7289   25.8073 O   0  0  0  0  0  0  0  0  0  0  0  0
   11.9476  -19.8758   28.0594 O   0  0  0  0  0  0  0  0  0  0  0  0
  1  2  1  0
  2  3  1  0
  4  3  1  0
  5  7  1  0
  5  4  1  0
  5  6  1  1
  7  9  1  0
  7  8  2  0
  9 10  1  0
 10 14  1  0
 10 11  1  1
 12 13  2  0
 12 11  1  0
 14 20  1  0
 14 15  2  0
 16 12  1  0
 17 18  1  0
 19 18  1  6
 19 21  1  0
 20 19  1  0
 21 23  1  0
 22 21  2  0
M  END
$$$$
