MDS.pdb
     RDKit          3D

 23 22  0  0  1  0  0  0  0  0999 V2000
    7.5122  -11.1224   26.1515 C   0  0  0  0  0  0  0  0  0  0  0  0
    6.1330  -12.0949   26.8195 S   0  0  0  0  0  0  0  0  0  0  0  0
    5.8744  -13.5993   25.7816 C   0  0  0  0  0  0  0  0  0  0  0  0
    7.2078  -14.2937   25.7628 C   0  0  0  0  0  0  0  0  0  0  0  0
    7.1825  -15.4922   24.9321 C   0  0  2  0  0  0  0  0  0  0  0  0
    6.0711  -16.3888   25.1998 N   0  0  0  0  0  0  0  0  0  0  0  0
    8.3754  -16.2586   24.6631 C   0  0  0  0  0  0  0  0  0  0  0  0
    8.3921  -17.4373   25.1744 O   0  0  0  0  0  0  0  0  0  0  0  0
    9.4807  -15.8188   23.9116 N   0  0  0  0  0  0  0  0  0  0  0  0
   10.7034  -16.6315   23.7342 C   0  0  1  0  0  0  0  0  0  0  0  0
   11.3515  -16.1235   22.5054 C   0  0  0  0  0  0  0  0  0  0  0  0
   12.5829  -16.7744   22.0733 C   0  0  0  0  0  0  0  0  0  0  0  0
   13.5561  -16.7959   22.8697 O   0  0  0  0  0  0  0  0  0  0  0  0
   11.4786  -16.5520   24.9855 C   0  0  0  0  0  0  0  0  0  0  0  0
   11.6465  -15.4378   25.5943 O   0  0  0  0  0  0  0  0  0  0  0  0
   12.7596  -17.3769   20.8376 O   0  0  0  0  0  0  0  0  0  0  0  0
   11.3213  -16.8377   29.0558 O   0  0  0  0  0  0  0  0  0  0  0  0
   11.3225  -16.6516   27.6661 C   0  0  0  0  0  0  0  0  0  0  0  0
   12.0774  -17.8239   27.0753 C   0  0  2  0  0  0  0  0  0  0  0  0
   12.0941  -17.6603   25.6252 N   0  0  0  0  0  0  0  0  0  0  0  0
   11.4202  -19.1080   27.4265 C   0  0  0  0  0  0  0  0  0  0  0  0
   10.5836  -19.5937   26.6467 O   0  0  0  0  0  0  0  0  0  0  0  0
   11.7403  -19.7589   28.6173 O   0  0  0  0  0  0  0  0  0  0  0  0
  1  2  1  0
  2  3  1  0
  4  3  1  0
  5  7  1  0
  5  4  1  0
  5  6  1  1
  7  9  1  0
  7  8  2  0
  9 10  1  0
 10 14  1  0
 10 11  1  6
 12 13  2  0
 12 11  1  0
 14 20  1  0
 14 15  2  0
 16 12  1  0
 17 18  1  0
 19 18  1  1
 19 21  1  0
 20 19  1  0
 21 23  1  0
 22 21  2  0
M  END
$$$$
