MDS.pdb
     RDKit          3D

 23 22  0  0  1  0  0  0  0  0999 V2000
    6.2941  -11.3357   27.1748 C   0  0  0  0  0  0  0  0  0  0  0  0
    7.2515  -12.4628   26.1225 S   0  0  0  0  0  0  0  0  0  0  0  0
    6.3273  -12.7862   24.5577 C   0  0  0  0  0  0  0  0  0  0  0  0
    7.2717  -13.5881   23.7059 C   0  0  0  0  0  0  0  0  0  0  0  0
    7.3865  -14.9648   24.1733 C   0  0  2  0  0  0  0  0  0  0  0  0
    6.9263  -15.1803   25.5344 N   0  0  0  0  0  0  0  0  0  0  0  0
    8.5657  -15.7587   23.9241 C   0  0  0  0  0  0  0  0  0  0  0  0
    8.9637  -15.7736   22.7025 O   0  0  0  0  0  0  0  0  0  0  0  0
    9.2794  -16.4926   24.8894 N   0  0  0  0  0  0  0  0  0  0  0  0
   10.4337  -17.3523   24.5501 C   0  0  1  0  0  0  0  0  0  0  0  0
   11.3322  -16.5154   23.7253 C   0  0  0  0  0  0  0  0  0  0  0  0
   11.6127  -16.9632   22.3661 C   0  0  0  0  0  0  0  0  0  0  0  0
   12.0598  -16.1239   21.5430 O   0  0  0  0  0  0  0  0  0  0  0  0
   10.9804  -17.8851   25.8112 C   0  0  0  0  0  0  0  0  0  0  0  0
   11.3649  -17.1053   26.7515 O   0  0  0  0  0  0  0  0  0  0  0  0
   11.4210  -18.2586   21.9119 O   0  0  0  0  0  0  0  0  0  0  0  0
   10.7474  -21.7585   26.6400 O   0  0  0  0  0  0  0  0  0  0  0  0
   10.8441  -20.9597   27.7882 C   0  0  0  0  0  0  0  0  0  0  0  0
   11.6372  -19.7318   27.3929 C   0  0  2  0  0  0  0  0  0  0  0  0
   11.1293  -19.2661   26.1064 N   0  0  0  0  0  0  0  0  0  0  0  0
   13.0824  -20.0503   27.2748 C   0  0  0  0  0  0  0  0  0  0  0  0
   13.6221  -20.0113   26.1561 O   0  0  0  0  0  0  0  0  0  0  0  0
   13.8227  -20.3883   28.4070 O   0  0  0  0  0  0  0  0  0  0  0  0
  1  2  1  0
  2  3  1  0
  4  3  1  0
  5  7  1  0
  5  4  1  0
  5  6  1  1
  7  9  1  0
  7  8  2  0
  9 10  1  0
 10 14  1  0
 10 11  1  1
 12 13  2  0
 12 11  1  0
 14 20  1  0
 14 15  2  0
 16 12  1  0
 17 18  1  0
 19 18  1  6
 19 21  1  0
 20 19  1  0
 21 23  1  0
 22 21  2  0
M  END
$$$$
