MDS.pdb
     RDKit          3D

 23 22  0  0  1  0  0  0  0  0999 V2000
    7.2776  -11.8754   20.5229 C   0  0  0  0  0  0  0  0  0  0  0  0
    7.9607  -13.5050   20.9377 S   0  0  0  0  0  0  0  0  0  0  0  0
    7.0870  -14.8096   19.9671 C   0  0  0  0  0  0  0  0  0  0  0  0
    7.6339  -16.1115   20.4833 C   0  0  0  0  0  0  0  0  0  0  0  0
    9.0842  -16.1820   20.3461 C   0  0  2  0  0  0  0  0  0  0  0  0
    9.5626  -16.1544   18.9746 N   0  0  0  0  0  0  0  0  0  0  0  0
    9.8796  -17.1019   21.1232 C   0  0  0  0  0  0  0  0  0  0  0  0
    9.3201  -17.5331   22.1965 O   0  0  0  0  0  0  0  0  0  0  0  0
   11.1776  -17.5389   20.8005 N   0  0  0  0  0  0  0  0  0  0  0  0
   11.9388  -18.4828   21.6470 C   0  0  1  0  0  0  0  0  0  0  0  0
   13.2084  -18.7342   20.9308 C   0  0  0  0  0  0  0  0  0  0  0  0
   13.1243  -19.2108   19.5551 C   0  0  0  0  0  0  0  0  0  0  0  0
   12.4763  -20.2646   19.3286 O   0  0  0  0  0  0  0  0  0  0  0  0
   12.0325  -17.8973   22.9967 C   0  0  0  0  0  0  0  0  0  0  0  0
   12.6743  -16.8091   23.2066 O   0  0  0  0  0  0  0  0  0  0  0  0
   13.7117  -18.5802   18.4695 O   0  0  0  0  0  0  0  0  0  0  0  0
    9.3800  -18.1069   25.7220 O   0  0  0  0  0  0  0  0  0  0  0  0
   10.4399  -17.2217   25.9653 C   0  0  0  0  0  0  0  0  0  0  0  0
   11.6992  -17.9177   25.4931 C   0  0  2  0  0  0  0  0  0  0  0  0
   11.4408  -18.4549   24.1609 N   0  0  0  0  0  0  0  0  0  0  0  0
   12.0714  -19.0210   26.4141 C   0  0  0  0  0  0  0  0  0  0  0  0
   12.0429  -20.1921   25.9995 O   0  0  0  0  0  0  0  0  0  0  0  0
   12.4485  -18.7435   27.7275 O   0  0  0  0  0  0  0  0  0  0  0  0
  1  2  1  0
  2  3  1  0
  4  3  1  0
  5  7  1  0
  5  4  1  0
  5  6  1  6
  7  9  1  0
  7  8  2  0
  9 10  1  0
 10 14  1  0
 10 11  1  6
 12 13  2  0
 12 11  1  0
 14 20  1  0
 14 15  2  0
 16 12  1  0
 17 18  1  0
 19 18  1  1
 19 21  1  0
 20 19  1  0
 21 23  1  0
 22 21  2  0
M  END
$$$$
