MDS.pdb
     RDKit          3D

 23 22  0  0  1  0  0  0  0  0999 V2000
    6.8864  -12.2211   20.1449 C   0  0  0  0  0  0  0  0  0  0  0  0
    8.1824  -12.4998   18.9051 S   0  0  0  0  0  0  0  0  0  0  0  0
    7.5790  -13.6952   17.6345 C   0  0  0  0  0  0  0  0  0  0  0  0
    7.9377  -15.0518   18.1743 C   0  0  0  0  0  0  0  0  0  0  0  0
    9.3631  -15.3290   18.0388 C   0  0  2  0  0  0  0  0  0  0  0  0
    9.7879  -15.6604   16.6896 N   0  0  0  0  0  0  0  0  0  0  0  0
   10.0744  -16.1481   18.9906 C   0  0  0  0  0  0  0  0  0  0  0  0
    9.6058  -16.1241   20.1868 O   0  0  0  0  0  0  0  0  0  0  0  0
   11.2048  -16.9376   18.7101 N   0  0  0  0  0  0  0  0  0  0  0  0
   11.7525  -17.9218   19.6683 C   0  0  1  0  0  0  0  0  0  0  0  0
   12.7820  -18.6801   18.9246 C   0  0  0  0  0  0  0  0  0  0  0  0
   12.3240  -19.6378   17.9247 C   0  0  0  0  0  0  0  0  0  0  0  0
   11.1464  -20.0709   18.0106 O   0  0  0  0  0  0  0  0  0  0  0  0
   12.1948  -17.1827   20.8647 C   0  0  0  0  0  0  0  0  0  0  0  0
   13.0202  -16.2076   20.7766 O   0  0  0  0  0  0  0  0  0  0  0  0
   13.0995  -20.1090   16.8770 O   0  0  0  0  0  0  0  0  0  0  0  0
   10.0266  -16.1243   23.8362 O   0  0  0  0  0  0  0  0  0  0  0  0
   11.1614  -16.7271   24.3972 C   0  0  0  0  0  0  0  0  0  0  0  0
   12.2391  -16.6891   23.3341 C   0  0  2  0  0  0  0  0  0  0  0  0
   11.7659  -17.4611   22.1894 N   0  0  0  0  0  0  0  0  0  0  0  0
   13.5055  -17.2736   23.8428 C   0  0  0  0  0  0  0  0  0  0  0  0
   13.9294  -18.3293   23.3429 O   0  0  0  0  0  0  0  0  0  0  0  0
   14.2086  -16.6432   24.8686 O   0  0  0  0  0  0  0  0  0  0  0  0
  1  2  1  0
  2  3  1  0
  4  3  1  0
  5  7  1  0
  5  4  1  0
  5  6  1  6
  7  9  1  0
  7  8  2  0
  9 10  1  0
 10 14  1  0
 10 11  1  6
 12 13  2  0
 12 11  1  0
 14 20  1  0
 14 15  2  0
 16 12  1  0
 17 18  1  0
 19 18  1  1
 19 21  1  0
 20 19  1  0
 21 23  1  0
 22 21  2  0
M  END
$$$$
