MDS.pdb
     RDKit          3D

 23 22  0  0  1  0  0  0  0  0999 V2000
    6.3954  -10.8054   18.2851 C   0  0  0  0  0  0  0  0  0  0  0  0
    6.8686  -12.4702   18.8319 S   0  0  0  0  0  0  0  0  0  0  0  0
    8.6918  -12.5364   19.1127 C   0  0  0  0  0  0  0  0  0  0  0  0
    8.9576  -13.9261   19.6212 C   0  0  0  0  0  0  0  0  0  0  0  0
   10.3647  -14.1220   19.9513 C   0  0  2  0  0  0  0  0  0  0  0  0
   11.2935  -13.4588   19.0523 N   0  0  0  0  0  0  0  0  0  0  0  0
   10.8866  -15.4136   20.3283 C   0  0  0  0  0  0  0  0  0  0  0  0
   10.0707  -16.1608   20.9819 O   0  0  0  0  0  0  0  0  0  0  0  0
   12.1793  -15.8907   20.0438 N   0  0  0  0  0  0  0  0  0  0  0  0
   12.6920  -17.1759   20.5658 C   0  0  1  0  0  0  0  0  0  0  0  0
   13.8947  -17.4872   19.7628 C   0  0  0  0  0  0  0  0  0  0  0  0
   13.6992  -17.8244   18.3575 C   0  0  0  0  0  0  0  0  0  0  0  0
   12.8120  -18.6665   18.0652 O   0  0  0  0  0  0  0  0  0  0  0  0
   12.8750  -17.0263   22.0208 C   0  0  0  0  0  0  0  0  0  0  0  0
   13.7985  -16.2808   22.5019 O   0  0  0  0  0  0  0  0  0  0  0  0
   14.4267  -17.2786   17.3116 O   0  0  0  0  0  0  0  0  0  0  0  0
    9.9723  -17.7200   24.5766 O   0  0  0  0  0  0  0  0  0  0  0  0
   11.0138  -16.8913   25.0176 C   0  0  0  0  0  0  0  0  0  0  0  0
   12.2910  -17.4568   24.4328 C   0  0  2  0  0  0  0  0  0  0  0  0
   12.0750  -17.6657   23.0046 N   0  0  0  0  0  0  0  0  0  0  0  0
   12.6443  -18.7456   25.0793 C   0  0  0  0  0  0  0  0  0  0  0  0
   12.6199  -19.7888   24.4045 O   0  0  0  0  0  0  0  0  0  0  0  0
   12.9991  -18.7820   26.4272 O   0  0  0  0  0  0  0  0  0  0  0  0
  1  2  1  0
  2  3  1  0
  4  3  1  0
  5  7  1  0
  5  4  1  0
  5  6  1  6
  7  9  1  0
  7  8  2  0
  9 10  1  0
 10 14  1  0
 10 11  1  6
 12 13  2  0
 12 11  1  0
 14 20  1  0
 14 15  2  0
 16 12  1  0
 17 18  1  0
 19 18  1  1
 19 21  1  0
 20 19  1  0
 21 23  1  0
 22 21  2  0
M  END
$$$$
