MDS.pdb
     RDKit          3D

 23 22  0  0  1  0  0  0  0  0999 V2000
    5.7430  -10.9331   26.9834 C   0  0  0  0  0  0  0  0  0  0  0  0
    6.7258  -12.4583   26.9360 S   0  0  0  0  0  0  0  0  0  0  0  0
    6.4722  -13.3101   25.3182 C   0  0  0  0  0  0  0  0  0  0  0  0
    7.8499  -13.7090   24.8675 C   0  0  0  0  0  0  0  0  0  0  0  0
    7.9046  -15.1109   24.4690 C   0  0  2  0  0  0  0  0  0  0  0  0
    6.9460  -15.9682   25.1449 N   0  0  0  0  0  0  0  0  0  0  0  0
    9.1572  -15.8094   24.3079 C   0  0  0  0  0  0  0  0  0  0  0  0
   10.0985  -15.1215   23.7678 O   0  0  0  0  0  0  0  0  0  0  0  0
    9.4072  -17.1421   24.6835 N   0  0  0  0  0  0  0  0  0  0  0  0
   10.7185  -17.7972   24.4875 C   0  0  1  0  0  0  0  0  0  0  0  0
   10.9132  -18.6719   25.6644 C   0  0  0  0  0  0  0  0  0  0  0  0
   11.2249  -18.0315   26.9370 C   0  0  0  0  0  0  0  0  0  0  0  0
   12.0085  -17.0478   26.9324 O   0  0  0  0  0  0  0  0  0  0  0  0
   10.7011  -18.4451   23.1635 C   0  0  0  0  0  0  0  0  0  0  0  0
   10.1651  -19.5957   22.9931 O   0  0  0  0  0  0  0  0  0  0  0  0
   10.7149  -18.4319   28.1621 O   0  0  0  0  0  0  0  0  0  0  0  0
   11.6115  -16.4605   19.7759 O   0  0  0  0  0  0  0  0  0  0  0  0
   10.7515  -17.5611   19.6532 C   0  0  0  0  0  0  0  0  0  0  0  0
   11.1896  -18.5682   20.6958 C   0  0  2  0  0  0  0  0  0  0  0  0
   11.2524  -17.8819   21.9823 N   0  0  0  0  0  0  0  0  0  0  0  0
   12.5230  -19.1294   20.3624 C   0  0  0  0  0  0  0  0  0  0  0  0
   13.4720  -18.9411   21.1422 O   0  0  0  0  0  0  0  0  0  0  0  0
   12.7051  -19.8590   19.1881 O   0  0  0  0  0  0  0  0  0  0  0  0
  1  2  1  0
  2  3  1  0
  4  3  1  0
  5  7  1  0
  5  4  1  0
  5  6  1  1
  7  9  1  0
  7  8  2  0
  9 10  1  0
 10 14  1  0
 10 11  1  1
 12 13  2  0
 12 11  1  0
 14 20  1  0
 14 15  2  0
 16 12  1  0
 17 18  1  0
 19 18  1  6
 19 21  1  0
 20 19  1  0
 21 23  1  0
 22 21  2  0
M  END
$$$$
