MDS.pdb
     RDKit          3D

 23 22  0  0  1  0  0  0  0  0999 V2000
    7.3381  -11.9530   20.9878 C   0  0  0  0  0  0  0  0  0  0  0  0
    7.8666  -12.3224   19.2911 S   0  0  0  0  0  0  0  0  0  0  0  0
    7.6479  -14.1234   18.9512 C   0  0  0  0  0  0  0  0  0  0  0  0
    8.0598  -14.8128   20.2222 C   0  0  0  0  0  0  0  0  0  0  0  0
    8.7801  -16.0529   19.9568 C   0  0  2  0  0  0  0  0  0  0  0  0
    8.1049  -16.9596   19.0443 N   0  0  0  0  0  0  0  0  0  0  0  0
    9.4178  -16.8047   21.0109 C   0  0  0  0  0  0  0  0  0  0  0  0
    8.6890  -17.7177   21.5459 O   0  0  0  0  0  0  0  0  0  0  0  0
   10.7310  -16.6109   21.4776 N   0  0  0  0  0  0  0  0  0  0  0  0
   11.2891  -17.3511   22.6298 C   0  0  1  0  0  0  0  0  0  0  0  0
   12.7586  -17.2228   22.5189 C   0  0  0  0  0  0  0  0  0  0  0  0
   13.4051  -17.8412   21.3672 C   0  0  0  0  0  0  0  0  0  0  0  0
   14.1212  -17.1189   20.6274 O   0  0  0  0  0  0  0  0  0  0  0  0
   10.6579  -16.8193   23.8511 C   0  0  0  0  0  0  0  0  0  0  0  0
   10.9129  -15.6365   24.2707 O   0  0  0  0  0  0  0  0  0  0  0  0
   13.2867  -19.1795   21.0264 O   0  0  0  0  0  0  0  0  0  0  0  0
    7.3432  -18.2183   25.4798 O   0  0  0  0  0  0  0  0  0  0  0  0
    7.7920  -16.9812   25.9638 C   0  0  0  0  0  0  0  0  0  0  0  0
    9.3051  -17.0422   25.9639 C   0  0  2  0  0  0  0  0  0  0  0  0
    9.7333  -17.5337   24.6581 N   0  0  0  0  0  0  0  0  0  0  0  0
    9.7982  -17.9528   27.0277 C   0  0  0  0  0  0  0  0  0  0  0  0
   10.4220  -18.9784   26.7063 O   0  0  0  0  0  0  0  0  0  0  0  0
    9.5631  -17.6582   28.3701 O   0  0  0  0  0  0  0  0  0  0  0  0
  1  2  1  0
  2  3  1  0
  4  3  1  0
  5  7  1  0
  5  4  1  0
  5  6  1  1
  7  9  1  0
  7  8  2  0
  9 10  1  0
 10 14  1  0
 10 11  1  1
 12 13  2  0
 12 11  1  0
 14 20  1  0
 14 15  2  0
 16 12  1  0
 17 18  1  0
 19 18  1  6
 19 21  1  0
 20 19  1  0
 21 23  1  0
 22 21  2  0
M  END
$$$$
