MDS.pdb
     RDKit          3D

 23 22  0  0  1  0  0  0  0  0999 V2000
    7.9322  -11.5578   20.7186 C   0  0  0  0  0  0  0  0  0  0  0  0
    8.0346  -13.1840   19.9190 S   0  0  0  0  0  0  0  0  0  0  0  0
    6.5924  -14.2176   20.4278 C   0  0  0  0  0  0  0  0  0  0  0  0
    6.9503  -14.7424   21.7905 C   0  0  0  0  0  0  0  0  0  0  0  0
    8.2240  -15.4528   21.7798 C   0  0  2  0  0  0  0  0  0  0  0  0
    8.3680  -16.4174   20.7030 N   0  0  0  0  0  0  0  0  0  0  0  0
    8.8150  -15.9764   22.9879 C   0  0  0  0  0  0  0  0  0  0  0  0
    8.0021  -16.1243   23.9718 O   0  0  0  0  0  0  0  0  0  0  0  0
   10.1693  -16.3189   23.1566 N   0  0  0  0  0  0  0  0  0  0  0  0
   10.7195  -16.8014   24.4417 C   0  0  1  0  0  0  0  0  0  0  0  0
   12.0165  -17.4328   24.1142 C   0  0  0  0  0  0  0  0  0  0  0  0
   12.0041  -18.5587   23.1874 C   0  0  0  0  0  0  0  0  0  0  0  0
   11.1640  -19.4755   23.3756 O   0  0  0  0  0  0  0  0  0  0  0  0
   10.7436  -15.6601   25.3745 C   0  0  0  0  0  0  0  0  0  0  0  0
   11.2997  -14.5516   25.0550 O   0  0  0  0  0  0  0  0  0  0  0  0
   12.8585  -18.6922   22.1042 O   0  0  0  0  0  0  0  0  0  0  0  0
    8.1171  -14.3742   27.5139 O   0  0  0  0  0  0  0  0  0  0  0  0
    9.2969  -13.6192   27.5771 C   0  0  0  0  0  0  0  0  0  0  0  0
   10.4395  -14.6108   27.6438 C   0  0  2  0  0  0  0  0  0  0  0  0
   10.1715  -15.6681   26.6741 N   0  0  0  0  0  0  0  0  0  0  0  0
   10.5541  -15.1959   29.0034 C   0  0  0  0  0  0  0  0  0  0  0  0
   10.4207  -16.4228   29.1483 O   0  0  0  0  0  0  0  0  0  0  0  0
   10.8088  -14.3764   30.1023 O   0  0  0  0  0  0  0  0  0  0  0  0
  1  2  1  0
  2  3  1  0
  4  3  1  0
  5  7  1  0
  5  4  1  0
  5  6  1  6
  7  9  1  0
  7  8  2  0
  9 10  1  0
 10 14  1  0
 10 11  1  6
 12 13  2  0
 12 11  1  0
 14 20  1  0
 14 15  2  0
 16 12  1  0
 17 18  1  0
 19 18  1  1
 19 21  1  0
 20 19  1  0
 21 23  1  0
 22 21  2  0
M  END
$$$$
