MDS.pdb
     RDKit          3D

 23 22  0  0  1  0  0  0  0  0999 V2000
    8.8024  -12.4620   20.7176 C   0  0  0  0  0  0  0  0  0  0  0  0
    7.6361  -12.2481   19.3434 S   0  0  0  0  0  0  0  0  0  0  0  0
    8.0333  -13.4494   17.9995 C   0  0  0  0  0  0  0  0  0  0  0  0
    8.2450  -14.7625   18.7005 C   0  0  0  0  0  0  0  0  0  0  0  0
    9.6573  -15.0144   18.9638 C   0  0  2  0  0  0  0  0  0  0  0  0
   10.5176  -14.9031   17.7984 N   0  0  0  0  0  0  0  0  0  0  0  0
   10.0944  -16.1129   19.7914 C   0  0  0  0  0  0  0  0  0  0  0  0
    9.2186  -16.5491   20.6243 O   0  0  0  0  0  0  0  0  0  0  0  0
   11.3664  -16.7131   19.7530 N   0  0  0  0  0  0  0  0  0  0  0  0
   11.7584  -17.8182   20.6542 C   0  0  1  0  0  0  0  0  0  0  0  0
   13.0375  -18.3381   20.1233 C   0  0  0  0  0  0  0  0  0  0  0  0
   13.6417  -19.4736   20.8106 C   0  0  0  0  0  0  0  0  0  0  0  0
   12.8814  -20.3583   21.2808 O   0  0  0  0  0  0  0  0  0  0  0  0
   11.7663  -17.2911   22.0308 C   0  0  0  0  0  0  0  0  0  0  0  0
   12.3932  -16.2144   22.3272 O   0  0  0  0  0  0  0  0  0  0  0  0
   15.0055  -19.6499   20.9842 O   0  0  0  0  0  0  0  0  0  0  0  0
    9.7774  -16.4908   26.1816 O   0  0  0  0  0  0  0  0  0  0  0  0
    9.7093  -17.0888   24.9152 C   0  0  0  0  0  0  0  0  0  0  0  0
   11.1384  -17.3179   24.4698 C   0  0  2  0  0  0  0  0  0  0  0  0
   11.1023  -17.8965   23.1304 N   0  0  0  0  0  0  0  0  0  0  0  0
   11.8397  -18.2425   25.3956 C   0  0  0  0  0  0  0  0  0  0  0  0
   12.0625  -19.4100   25.0327 O   0  0  0  0  0  0  0  0  0  0  0  0
   12.2429  -17.8035   26.6561 O   0  0  0  0  0  0  0  0  0  0  0  0
  1  2  1  0
  2  3  1  0
  4  3  1  0
  5  7  1  0
  5  4  1  0
  5  6  1  6
  7  9  1  0
  7  8  2  0
  9 10  1  0
 10 14  1  0
 10 11  1  6
 12 13  2  0
 12 11  1  0
 14 20  1  0
 14 15  2  0
 16 12  1  0
 17 18  1  0
 19 18  1  1
 19 21  1  0
 20 19  1  0
 21 23  1  0
 22 21  2  0
M  END
$$$$
