MDS.pdb
     RDKit          3D

 23 22  0  0  1  0  0  0  0  0999 V2000
    7.2695  -12.4399   21.9357 C   0  0  0  0  0  0  0  0  0  0  0  0
    7.4185  -12.2363   20.1383 S   0  0  0  0  0  0  0  0  0  0  0  0
    7.6642  -13.8850   19.3453 C   0  0  0  0  0  0  0  0  0  0  0  0
    8.5560  -14.6425   20.2893 C   0  0  0  0  0  0  0  0  0  0  0  0
    8.7256  -16.0312   19.8772 C   0  0  2  0  0  0  0  0  0  0  0  0
    7.4929  -16.7065   19.5096 N   0  0  0  0  0  0  0  0  0  0  0  0
    9.5857  -16.9402   20.5962 C   0  0  0  0  0  0  0  0  0  0  0  0
    9.0116  -18.0048   21.0298 O   0  0  0  0  0  0  0  0  0  0  0  0
   10.9562  -16.7459   20.8487 N   0  0  0  0  0  0  0  0  0  0  0  0
   11.7484  -17.6505   21.7095 C   0  0  1  0  0  0  0  0  0  0  0  0
   13.1623  -17.4283   21.3359 C   0  0  0  0  0  0  0  0  0  0  0  0
   14.1796  -18.1681   22.0738 C   0  0  0  0  0  0  0  0  0  0  0  0
   13.9255  -19.3519   22.4139 O   0  0  0  0  0  0  0  0  0  0  0  0
   11.3720  -17.3794   23.1088 C   0  0  0  0  0  0  0  0  0  0  0  0
   11.5804  -16.2347   23.6439 O   0  0  0  0  0  0  0  0  0  0  0  0
   15.4175  -17.6564   22.4300 O   0  0  0  0  0  0  0  0  0  0  0  0
    8.2251  -18.0119   24.7033 O   0  0  0  0  0  0  0  0  0  0  0  0
    9.0797  -18.5371   25.6829 C   0  0  0  0  0  0  0  0  0  0  0  0
   10.4655  -18.0116   25.3720 C   0  0  2  0  0  0  0  0  0  0  0  0
   10.7589  -18.3217   23.9764 N   0  0  0  0  0  0  0  0  0  0  0  0
   11.4813  -18.6453   26.2497 C   0  0  0  0  0  0  0  0  0  0  0  0
   12.4072  -19.2945   25.7345 O   0  0  0  0  0  0  0  0  0  0  0  0
   11.3953  -18.5116   27.6350 O   0  0  0  0  0  0  0  0  0  0  0  0
  1  2  1  0
  2  3  1  0
  4  3  1  0
  5  7  1  0
  5  4  1  0
  5  6  1  1
  7  9  1  0
  7  8  2  0
  9 10  1  0
 10 14  1  0
 10 11  1  1
 12 13  2  0
 12 11  1  0
 14 20  1  0
 14 15  2  0
 16 12  1  0
 17 18  1  0
 19 18  1  1
 19 21  1  0
 20 19  1  0
 21 23  1  0
 22 21  2  0
M  END
$$$$
