TCA.pdb
     RDKit          3D

 19 18  0  0  1  0  0  0  0  0999 V2000
   18.0292  -10.4002  -19.0107 C   0  0  0  0  0  0  0  0  0  0  0  0
   18.2059  -11.8887  -18.8999 C   0  0  1  0  0  0  0  0  0  0  0  0
   17.8664  -12.5180  -20.0710 O   0  0  0  0  0  0  0  0  0  0  0  0
   19.6243  -12.2528  -18.4570 C   0  0  2  0  0  0  0  0  0  0  0  0
   19.6667  -13.7258  -18.3992 N   0  0  0  0  0  0  0  0  0  0  0  0
   19.9782  -11.6859  -17.1509 C   0  0  0  0  0  0  0  0  0  0  0  0
   19.4535  -12.1398  -16.1049 O   0  0  0  0  0  0  0  0  0  0  0  0
   20.9133  -10.6260  -17.0751 N   0  0  0  0  0  0  0  0  0  0  0  0
   21.2065   -9.9377  -15.8257 C   0  0  1  0  0  0  0  0  0  0  0  0
   22.5585  -10.4066  -15.3473 C   0  0  0  0  0  0  0  0  0  0  0  0
   23.0677   -9.4944  -13.8733 S   0  0  0  0  0  0  0  0  0  0  0  0
   21.1763   -8.4864  -16.0906 C   0  0  0  0  0  0  0  0  0  0  0  0
   21.7913   -7.9710  -17.0868 O   0  0  0  0  0  0  0  0  0  0  0  0
   19.0242   -5.6657  -15.3740 C   0  0  0  0  0  0  0  0  0  0  0  0
   20.4631   -6.1277  -15.5234 C   0  0  2  0  0  0  0  0  0  0  0  0
   20.4727   -7.5558  -15.2738 N   0  0  0  0  0  0  0  0  0  0  0  0
   21.3344   -5.3939  -14.5731 C   0  0  0  0  0  0  0  0  0  0  0  0
   21.6475   -5.9936  -13.5125 O   0  0  0  0  0  0  0  0  0  0  0  0
   21.8116   -4.1285  -14.7715 O   0  0  0  0  0  0  0  0  0  0  0  0
  2  1  1  6
  2  3  1  0
  4  2  1  0
  4  5  1  1
  6  4  1  0
  7  6  2  0
  8  6  1  0
  9  8  1  0
  9 12  1  0
  9 10  1  6
 11 10  1  0
 12 16  1  0
 13 12  2  0
 15 14  1  1
 15 17  1  0
 16 15  1  0
 17 18  2  0
 17 19  1  0
M  END
$$$$
