TCA.pdb
     RDKit          3D

 19 18  0  0  1  0  0  0  0  0999 V2000
   22.2842  -13.4268  -19.6606 C   0  0  0  0  0  0  0  0  0  0  0  0
   21.5056  -12.2376  -19.1718 C   0  0  1  0  0  0  0  0  0  0  0  0
   20.2959  -12.6172  -18.6471 O   0  0  0  0  0  0  0  0  0  0  0  0
   22.3164  -11.4096  -18.1730 C   0  0  2  0  0  0  0  0  0  0  0  0
   22.5691  -12.2952  -17.0212 N   0  0  0  0  0  0  0  0  0  0  0  0
   21.6157  -10.1977  -17.7338 C   0  0  0  0  0  0  0  0  0  0  0  0
   21.2894   -9.3212  -18.5710 O   0  0  0  0  0  0  0  0  0  0  0  0
   21.3090  -10.0210  -16.3633 N   0  0  0  0  0  0  0  0  0  0  0  0
   20.5115   -8.9005  -15.8848 C   0  0  1  0  0  0  0  0  0  0  0  0
   19.4765   -9.4452  -14.9314 C   0  0  0  0  0  0  0  0  0  0  0  0
   18.3298  -10.5448  -15.7916 S   0  0  0  0  0  0  0  0  0  0  0  0
   21.4241   -7.9402  -15.2349 C   0  0  0  0  0  0  0  0  0  0  0  0
   22.2518   -8.3046  -14.3303 O   0  0  0  0  0  0  0  0  0  0  0  0
   22.3859   -4.3704  -15.7937 C   0  0  0  0  0  0  0  0  0  0  0  0
   22.3620   -5.6131  -14.9211 C   0  0  2  0  0  0  0  0  0  0  0  0
   21.4585   -6.5530  -15.5553 N   0  0  0  0  0  0  0  0  0  0  0  0
   21.9220   -5.2625  -13.5484 C   0  0  0  0  0  0  0  0  0  0  0  0
   20.7175   -5.4886  -13.2643 O   0  0  0  0  0  0  0  0  0  0  0  0
   22.7273   -4.7184  -12.5872 O   0  0  0  0  0  0  0  0  0  0  0  0
  2  1  1  1
  2  3  1  0
  4  2  1  0
  4  5  1  1
  6  4  1  0
  7  6  2  0
  8  6  1  0
  9  8  1  0
  9 12  1  0
  9 10  1  1
 11 10  1  0
 12 16  1  0
 13 12  2  0
 15 14  1  6
 15 17  1  0
 16 15  1  0
 17 18  2  0
 17 19  1  0
M  END
$$$$
