TCA.pdb
     RDKit          3D

 19 18  0  0  1  0  0  0  0  0999 V2000
   22.4747   -9.4181  -19.1567 C   0  0  0  0  0  0  0  0  0  0  0  0
   21.5261  -10.5351  -19.4907 C   0  0  1  0  0  0  0  0  0  0  0  0
   22.1058  -11.4414  -20.3423 O   0  0  0  0  0  0  0  0  0  0  0  0
   20.9922  -11.2130  -18.2273 C   0  0  2  0  0  0  0  0  0  0  0  0
   20.0983  -12.2905  -18.6908 N   0  0  0  0  0  0  0  0  0  0  0  0
   20.2604  -10.2920  -17.3506 C   0  0  0  0  0  0  0  0  0  0  0  0
   19.1964   -9.7572  -17.7476 O   0  0  0  0  0  0  0  0  0  0  0  0
   20.7582  -10.0092  -16.0561 N   0  0  0  0  0  0  0  0  0  0  0  0
   20.1102   -9.0557  -15.1665 C   0  0  1  0  0  0  0  0  0  0  0  0
   19.7097   -9.7935  -13.9126 C   0  0  0  0  0  0  0  0  0  0  0  0
   19.1780   -8.6363  -12.6312 S   0  0  0  0  0  0  0  0  0  0  0  0
   21.0676   -7.9661  -14.8960 C   0  0  0  0  0  0  0  0  0  0  0  0
   22.2706   -8.2022  -14.5310 O   0  0  0  0  0  0  0  0  0  0  0  0
   21.1459   -4.3088  -15.5901 C   0  0  0  0  0  0  0  0  0  0  0  0
   21.7100   -5.5206  -14.8692 C   0  0  2  0  0  0  0  0  0  0  0  0
   20.7377   -6.5859  -15.0166 N   0  0  0  0  0  0  0  0  0  0  0  0
   21.9610   -5.1936  -13.4441 C   0  0  0  0  0  0  0  0  0  0  0  0
   21.0394   -5.4605  -12.6306 O   0  0  0  0  0  0  0  0  0  0  0  0
   23.1104   -4.6301  -12.9649 O   0  0  0  0  0  0  0  0  0  0  0  0
  2  1  1  1
  2  3  1  0
  4  2  1  0
  4  5  1  6
  6  4  1  0
  7  6  2  0
  8  6  1  0
  9  8  1  0
  9 12  1  0
  9 10  1  1
 11 10  1  0
 12 16  1  0
 13 12  2  0
 15 14  1  6
 15 17  1  0
 16 15  1  0
 17 18  2  0
 17 19  1  0
M  END
$$$$
