TCA.pdb
     RDKit          3D

 19 18  0  0  1  0  0  0  0  0999 V2000
   21.0717  -11.4084  -18.3915 C   0  0  0  0  0  0  0  0  0  0  0  0
   19.8355  -12.1754  -18.0138 C   0  0  1  0  0  0  0  0  0  0  0  0
   19.9970  -13.5195  -18.2373 O   0  0  0  0  0  0  0  0  0  0  0  0
   19.4203  -11.8919  -16.5689 C   0  0  2  0  0  0  0  0  0  0  0  0
   18.3038  -12.8108  -16.2789 N   0  0  0  0  0  0  0  0  0  0  0  0
   18.9986  -10.5026  -16.3577 C   0  0  0  0  0  0  0  0  0  0  0  0
   17.9206  -10.0903  -16.8512 O   0  0  0  0  0  0  0  0  0  0  0  0
   19.8115   -9.6297  -15.5956 N   0  0  0  0  0  0  0  0  0  0  0  0
   19.4681   -8.2293  -15.3921 C   0  0  1  0  0  0  0  0  0  0  0  0
   18.2553   -8.1774  -14.4958 C   0  0  0  0  0  0  0  0  0  0  0  0
   18.6225   -8.8968  -12.8798 S   0  0  0  0  0  0  0  0  0  0  0  0
   20.6384   -7.5586  -14.7937 C   0  0  0  0  0  0  0  0  0  0  0  0
   21.3323   -8.1109  -13.8719 O   0  0  0  0  0  0  0  0  0  0  0  0
   22.5472   -4.3964  -15.4146 C   0  0  0  0  0  0  0  0  0  0  0  0
   22.1575   -5.5565  -14.5153 C   0  0  2  0  0  0  0  0  0  0  0  0
   21.0843   -6.2642  -15.1858 N   0  0  0  0  0  0  0  0  0  0  0  0
   21.7404   -5.0508  -13.1845 C   0  0  0  0  0  0  0  0  0  0  0  0
   20.5052   -4.9064  -12.9948 O   0  0  0  0  0  0  0  0  0  0  0  0
   22.5972   -4.7365  -12.1669 O   0  0  0  0  0  0  0  0  0  0  0  0
  2  1  1  1
  2  3  1  0
  4  2  1  0
  4  5  1  6
  6  4  1  0
  7  6  2  0
  8  6  1  0
  9  8  1  0
  9 12  1  0
  9 10  1  1
 11 10  1  0
 12 16  1  0
 13 12  2  0
 15 14  1  6
 15 17  1  0
 16 15  1  0
 17 18  2  0
 17 19  1  0
M  END
$$$$
