TCA.pdb
     RDKit          3D

 19 18  0  0  1  0  0  0  0  0999 V2000
   18.6366   -7.8376  -18.7868 C   0  0  0  0  0  0  0  0  0  0  0  0
   18.1566   -9.2417  -18.5476 C   0  0  1  0  0  0  0  0  0  0  0  0
   17.7388   -9.8297  -19.7148 O   0  0  0  0  0  0  0  0  0  0  0  0
   19.2213  -10.0850  -17.8433 C   0  0  2  0  0  0  0  0  0  0  0  0
   18.6366  -11.4299  -17.6866 N   0  0  0  0  0  0  0  0  0  0  0  0
   19.6037   -9.5451  -16.5338 C   0  0  0  0  0  0  0  0  0  0  0  0
   18.7750   -9.5350  -15.5910 O   0  0  0  0  0  0  0  0  0  0  0  0
   20.9099   -9.0362  -16.3377 N   0  0  0  0  0  0  0  0  0  0  0  0
   21.3517   -8.5055  -15.0557 C   0  0  1  0  0  0  0  0  0  0  0  0
   22.6633   -9.1668  -14.7103 C   0  0  0  0  0  0  0  0  0  0  0  0
   22.6095   -9.8641  -13.0445 S   0  0  0  0  0  0  0  0  0  0  0  0
   21.4787   -7.0417  -15.1912 C   0  0  0  0  0  0  0  0  0  0  0  0
   22.2325   -6.5107  -16.0778 O   0  0  0  0  0  0  0  0  0  0  0  0
   19.6411   -4.0932  -13.8293 C   0  0  0  0  0  0  0  0  0  0  0  0
   20.8398   -4.6795  -14.5543 C   0  0  2  0  0  0  0  0  0  0  0  0
   20.7851   -6.1154  -14.3612 N   0  0  0  0  0  0  0  0  0  0  0  0
   22.0941   -4.0963  -14.0181 C   0  0  0  0  0  0  0  0  0  0  0  0
   22.6305   -4.6971  -13.0518 O   0  0  0  0  0  0  0  0  0  0  0  0
   22.6954   -2.9665  -14.4980 O   0  0  0  0  0  0  0  0  0  0  0  0
  2  1  1  6
  2  3  1  0
  4  2  1  0
  4  5  1  1
  6  4  1  0
  7  6  2  0
  8  6  1  0
  9  8  1  0
  9 12  1  0
  9 10  1  6
 11 10  1  0
 12 16  1  0
 13 12  2  0
 15 14  1  1
 15 17  1  0
 16 15  1  0
 17 18  2  0
 17 19  1  0
M  END
$$$$
