TCA.pdb
     RDKit          3D

 19 18  0  0  1  0  0  0  0  0999 V2000
   20.4594  -10.6706  -20.2084 C   0  0  0  0  0  0  0  0  0  0  0  0
   20.1523  -12.0410  -19.6728 C   0  0  1  0  0  0  0  0  0  0  0  0
   20.5100  -13.0164  -20.5691 O   0  0  0  0  0  0  0  0  0  0  0  0
   20.8031  -12.2670  -18.3068 C   0  0  2  0  0  0  0  0  0  0  0  0
   20.5027  -13.6633  -17.9393 N   0  0  0  0  0  0  0  0  0  0  0  0
   20.2985  -11.3537  -17.2754 C   0  0  0  0  0  0  0  0  0  0  0  0
   19.1565  -11.5283  -16.7845 O   0  0  0  0  0  0  0  0  0  0  0  0
   21.1040  -10.2759  -16.8361 N   0  0  0  0  0  0  0  0  0  0  0  0
   20.6583   -9.3408  -15.8126 C   0  0  1  0  0  0  0  0  0  0  0  0
   20.7421  -10.0422  -14.4792 C   0  0  0  0  0  0  0  0  0  0  0  0
   22.4363  -10.5690  -14.1385 S   0  0  0  0  0  0  0  0  0  0  0  0
   21.5281   -8.1506  -15.8773 C   0  0  0  0  0  0  0  0  0  0  0  0
   22.7755   -8.2422  -16.1455 O   0  0  0  0  0  0  0  0  0  0  0  0
   21.0450   -4.5291  -16.2899 C   0  0  0  0  0  0  0  0  0  0  0  0
   21.9089   -5.6542  -15.7478 C   0  0  2  0  0  0  0  0  0  0  0  0
   21.0594   -6.8251  -15.6504 N   0  0  0  0  0  0  0  0  0  0  0  0
   22.4763   -5.2711  -14.4316 C   0  0  0  0  0  0  0  0  0  0  0  0
   21.8756   -5.6945  -13.4107 O   0  0  0  0  0  0  0  0  0  0  0  0
   23.5917   -4.5003  -14.2588 O   0  0  0  0  0  0  0  0  0  0  0  0
  2  1  1  6
  2  3  1  0
  4  2  1  0
  4  5  1  1
  6  4  1  0
  7  6  2  0
  8  6  1  0
  9  8  1  0
  9 12  1  0
  9 10  1  1
 11 10  1  0
 12 16  1  0
 13 12  2  0
 15 14  1  1
 15 17  1  0
 16 15  1  0
 17 18  2  0
 17 19  1  0
M  END
$$$$
