TCA.pdb
     RDKit          3D

 19 18  0  0  1  0  0  0  0  0999 V2000
   21.4137  -10.0844  -19.6823 C   0  0  0  0  0  0  0  0  0  0  0  0
   20.9088   -9.0193  -18.7496 C   0  0  1  0  0  0  0  0  0  0  0  0
   19.5786   -8.7605  -18.9646 O   0  0  0  0  0  0  0  0  0  0  0  0
   21.1822   -9.3794  -17.2881 C   0  0  2  0  0  0  0  0  0  0  0  0
   20.3796  -10.5849  -17.0094 N   0  0  0  0  0  0  0  0  0  0  0  0
   20.8191   -8.3049  -16.3574 C   0  0  0  0  0  0  0  0  0  0  0  0
   19.6816   -8.2897  -15.8268 O   0  0  0  0  0  0  0  0  0  0  0  0
   21.7559   -7.2864  -16.0601 N   0  0  0  0  0  0  0  0  0  0  0  0
   21.4270   -6.1552  -15.2042 C   0  0  1  0  0  0  0  0  0  0  0  0
   22.5138   -6.0322  -14.1646 C   0  0  0  0  0  0  0  0  0  0  0  0
   22.4138   -4.4386  -13.3194 S   0  0  0  0  0  0  0  0  0  0  0  0
   21.3273   -4.9557  -16.0577 C   0  0  0  0  0  0  0  0  0  0  0  0
   22.2968   -4.5756  -16.8005 O   0  0  0  0  0  0  0  0  0  0  0  0
   18.6341   -2.6063  -17.1230 C   0  0  0  0  0  0  0  0  0  0  0  0
   20.1040   -2.9018  -16.8818 C   0  0  2  0  0  0  0  0  0  0  0  0
   20.1643   -4.1364  -16.1240 N   0  0  0  0  0  0  0  0  0  0  0  0
   20.7370   -1.7744  -16.1544 C   0  0  0  0  0  0  0  0  0  0  0  0
   20.8915   -1.9158  -14.9140 O   0  0  0  0  0  0  0  0  0  0  0  0
   21.1567   -0.6103  -16.7350 O   0  0  0  0  0  0  0  0  0  0  0  0
  2  1  1  6
  2  3  1  0
  4  2  1  0
  4  5  1  1
  6  4  1  0
  7  6  2  0
  8  6  1  0
  9  8  1  0
  9 12  1  0
  9 10  1  1
 11 10  1  0
 12 16  1  0
 13 12  2  0
 15 14  1  1
 15 17  1  0
 16 15  1  0
 17 18  2  0
 17 19  1  0
M  END
$$$$
