TCA.pdb
     RDKit          3D

 19 18  0  0  1  0  0  0  0  0999 V2000
   21.0650   -7.5664  -20.4705 C   0  0  0  0  0  0  0  0  0  0  0  0
   20.8709   -8.9863  -20.0174 C   0  0  1  0  0  0  0  0  0  0  0  0
   21.2151   -9.8745  -21.0049 O   0  0  0  0  0  0  0  0  0  0  0  0
   21.6290   -9.2683  -18.7188 C   0  0  2  0  0  0  0  0  0  0  0  0
   21.4024  -10.6940  -18.4170 N   0  0  0  0  0  0  0  0  0  0  0  0
   21.1735   -8.4367  -17.5992 C   0  0  0  0  0  0  0  0  0  0  0  0
   20.0105   -8.5726  -17.1468 O   0  0  0  0  0  0  0  0  0  0  0  0
   22.0500   -7.4813  -17.0314 N   0  0  0  0  0  0  0  0  0  0  0  0
   21.6010   -6.5018  -16.0518 C   0  0  1  0  0  0  0  0  0  0  0  0
   22.5377   -6.5683  -14.8706 C   0  0  0  0  0  0  0  0  0  0  0  0
   22.3014   -5.1435  -13.7853 S   0  0  0  0  0  0  0  0  0  0  0  0
   21.6078   -5.1766  -16.7007 C   0  0  0  0  0  0  0  0  0  0  0  0
   22.6673   -4.6906  -17.2276 O   0  0  0  0  0  0  0  0  0  0  0  0
   19.0392   -2.5588  -17.4900 C   0  0  0  0  0  0  0  0  0  0  0  0
   20.4835   -3.0098  -17.3596 C   0  0  2  0  0  0  0  0  0  0  0  0
   20.4563   -4.3438  -16.7925 N   0  0  0  0  0  0  0  0  0  0  0  0
   21.2378   -2.0604  -16.5049 C   0  0  0  0  0  0  0  0  0  0  0  0
   21.3031   -2.3311  -15.2781 O   0  0  0  0  0  0  0  0  0  0  0  0
   21.8567   -0.9283  -16.9563 O   0  0  0  0  0  0  0  0  0  0  0  0
  2  1  1  6
  2  3  1  0
  4  2  1  0
  4  5  1  1
  6  4  1  0
  7  6  2  0
  8  6  1  0
  9  8  1  0
  9 12  1  0
  9 10  1  1
 11 10  1  0
 12 16  1  0
 13 12  2  0
 15 14  1  1
 15 17  1  0
 16 15  1  0
 17 18  2  0
 17 19  1  0
M  END
$$$$
