TCA.pdb
     RDKit          3D

 19 18  0  0  1  0  0  0  0  0999 V2000
   20.0052  -11.8451  -18.4305 C   0  0  0  0  0  0  0  0  0  0  0  0
   19.5512  -10.6058  -17.7113 C   0  0  1  0  0  0  0  0  0  0  0  0
   18.6809   -9.8755  -18.4807 O   0  0  0  0  0  0  0  0  0  0  0  0
   18.9490  -10.9401  -16.3452 C   0  0  2  0  0  0  0  0  0  0  0  0
   17.7426  -11.7433  -16.6183 N   0  0  0  0  0  0  0  0  0  0  0  0
   18.5955   -9.7462  -15.5691 C   0  0  0  0  0  0  0  0  0  0  0  0
   17.5427   -9.1147  -15.8304 O   0  0  0  0  0  0  0  0  0  0  0  0
   19.4457   -9.3098  -14.5249 N   0  0  0  0  0  0  0  0  0  0  0  0
   19.1990   -8.0793  -13.7863 C   0  0  1  0  0  0  0  0  0  0  0  0
   19.0611   -8.4374  -12.3269 C   0  0  0  0  0  0  0  0  0  0  0  0
   17.4342   -9.1487  -11.9934 S   0  0  0  0  0  0  0  0  0  0  0  0
   20.3310   -7.1665  -14.0366 C   0  0  0  0  0  0  0  0  0  0  0  0
   21.5450   -7.5498  -13.9124 O   0  0  0  0  0  0  0  0  0  0  0  0
   20.7015   -3.6339  -15.2501 C   0  0  0  0  0  0  0  0  0  0  0  0
   21.2826   -4.9104  -14.6678 C   0  0  2  0  0  0  0  0  0  0  0  0
   20.1686   -5.8074  -14.4300 N   0  0  0  0  0  0  0  0  0  0  0  0
   22.0259   -4.6081  -13.4200 C   0  0  0  0  0  0  0  0  0  0  0  0
   21.3950   -4.7363  -12.3393 O   0  0  0  0  0  0  0  0  0  0  0  0
   23.3313   -4.2058  -13.3689 O   0  0  0  0  0  0  0  0  0  0  0  0
  2  1  1  6
  2  3  1  0
  4  2  1  0
  4  5  1  6
  6  4  1  0
  7  6  2  0
  8  6  1  0
  9  8  1  0
  9 12  1  0
  9 10  1  1
 11 10  1  0
 12 16  1  0
 13 12  2  0
 15 14  1  1
 15 17  1  0
 16 15  1  0
 17 18  2  0
 17 19  1  0
M  END
$$$$
