TCA.pdb
     RDKit          3D

 19 18  0  0  1  0  0  0  0  0999 V2000
   29.1613   -7.1689  -18.9163 C   0  0  0  0  0  0  0  0  0  0  0  0
   30.5226   -7.8037  -18.9720 C   0  0  1  0  0  0  0  0  0  0  0  0
   31.5035   -6.9069  -18.6311 O   0  0  0  0  0  0  0  0  0  0  0  0
   30.5884   -9.0641  -18.1073 C   0  0  2  0  0  0  0  0  0  0  0  0
   31.9685   -9.5693  -18.2294 N   0  0  0  0  0  0  0  0  0  0  0  0
   29.6340  -10.0960  -18.5278 C   0  0  0  0  0  0  0  0  0  0  0  0
   29.9117  -10.8566  -19.4869 O   0  0  0  0  0  0  0  0  0  0  0  0
   28.3997  -10.2305  -17.8481 N   0  0  0  0  0  0  0  0  0  0  0  0
   27.4412  -11.2755  -18.1794 C   0  0  1  0  0  0  0  0  0  0  0  0
   26.8369  -11.7727  -16.8892 C   0  0  0  0  0  0  0  0  0  0  0  0
   28.0068  -12.8207  -15.9965 S   0  0  0  0  0  0  0  0  0  0  0  0
   26.4321  -10.6935  -19.0851 C   0  0  0  0  0  0  0  0  0  0  0  0
   25.9532   -9.5226  -18.8958 O   0  0  0  0  0  0  0  0  0  0  0  0
   24.9387  -11.6329  -22.3827 C   0  0  0  0  0  0  0  0  0  0  0  0
   24.9241  -10.8015  -21.1120 C   0  0  2  0  0  0  0  0  0  0  0  0
   25.9170  -11.3749  -20.2246 N   0  0  0  0  0  0  0  0  0  0  0  0
   23.5686  -10.8168  -20.5094 C   0  0  0  0  0  0  0  0  0  0  0  0
   23.3955  -11.5779  -19.5229 O   0  0  0  0  0  0  0  0  0  0  0  0
   22.5120  -10.0694  -20.9492 O   0  0  0  0  0  0  0  0  0  0  0  0
  2  1  1  1
  2  3  1  0
  4  2  1  0
  4  5  1  6
  6  4  1  0
  7  6  2  0
  8  6  1  0
  9  8  1  0
  9 12  1  0
  9 10  1  1
 11 10  1  0
 12 16  1  0
 13 12  2  0
 15 14  1  6
 15 17  1  0
 16 15  1  0
 17 18  2  0
 17 19  1  0
M  END
$$$$
