TCA.pdb
     RDKit          3D

 19 18  0  0  1  0  0  0  0  0999 V2000
   19.3036   -8.6821  -18.5663 C   0  0  0  0  0  0  0  0  0  0  0  0
   19.2712   -9.9810  -17.8107 C   0  0  1  0  0  0  0  0  0  0  0  0
   19.3606  -11.0534  -18.6620 O   0  0  0  0  0  0  0  0  0  0  0  0
   20.3548  -10.0283  -16.7317 C   0  0  2  0  0  0  0  0  0  0  0  0
   20.2325  -11.3506  -16.0903 N   0  0  0  0  0  0  0  0  0  0  0  0
   20.2103   -8.9660  -15.7301 C   0  0  0  0  0  0  0  0  0  0  0  0
   19.3001   -9.0332  -14.8684 O   0  0  0  0  0  0  0  0  0  0  0  0
   21.1010   -7.8660  -15.7390 N   0  0  0  0  0  0  0  0  0  0  0  0
   20.9985   -6.7765  -14.7782 C   0  0  1  0  0  0  0  0  0  0  0  0
   22.3970   -6.4089  -14.3471 C   0  0  0  0  0  0  0  0  0  0  0  0
   22.3779   -4.9360  -13.3010 S   0  0  0  0  0  0  0  0  0  0  0  0
   20.3006   -5.6559  -15.4373 C   0  0  0  0  0  0  0  0  0  0  0  0
   20.7509   -5.1184  -16.5072 O   0  0  0  0  0  0  0  0  0  0  0  0
   16.9903   -3.9716  -15.0967 C   0  0  0  0  0  0  0  0  0  0  0  0
   18.4351   -3.9537  -15.5643 C   0  0  2  0  0  0  0  0  0  0  0  0
   19.0897   -5.0900  -14.9459 N   0  0  0  0  0  0  0  0  0  0  0  0
   19.0769   -2.6712  -15.1846 C   0  0  0  0  0  0  0  0  0  0  0  0
   18.6323   -1.6305  -15.7339 O   0  0  0  0  0  0  0  0  0  0  0  0
   20.1038   -2.5485  -14.2908 O   0  0  0  0  0  0  0  0  0  0  0  0
  2  1  1  6
  2  3  1  0
  4  2  1  0
  4  5  1  1
  6  4  1  0
  7  6  2  0
  8  6  1  0
  9  8  1  0
  9 12  1  0
  9 10  1  6
 11 10  1  0
 12 16  1  0
 13 12  2  0
 15 14  1  1
 15 17  1  0
 16 15  1  0
 17 18  2  0
 17 19  1  0
M  END
$$$$
