TCA.pdb
     RDKit          3D

 19 18  0  0  1  0  0  0  0  0999 V2000
   17.3426  -10.3732  -20.2007 C   0  0  0  0  0  0  0  0  0  0  0  0
   17.8520   -9.8012  -18.9074 C   0  0  1  0  0  0  0  0  0  0  0  0
   16.8476   -9.1795  -18.2093 O   0  0  0  0  0  0  0  0  0  0  0  0
   18.5491  -10.8671  -18.0598 C   0  0  2  0  0  0  0  0  0  0  0  0
   17.5182  -11.8731  -17.7432 N   0  0  0  0  0  0  0  0  0  0  0  0
   19.1243  -10.3273  -16.8227 C   0  0  0  0  0  0  0  0  0  0  0  0
   18.4669  -10.3656  -15.7541 O   0  0  0  0  0  0  0  0  0  0  0  0
   20.4226   -9.7637  -16.8390 N   0  0  0  0  0  0  0  0  0  0  0  0
   21.0693   -9.2698  -15.6314 C   0  0  1  0  0  0  0  0  0  0  0  0
   22.3867   -9.9911  -15.4860 C   0  0  0  0  0  0  0  0  0  0  0  0
   23.3914   -9.2337  -14.1895 S   0  0  0  0  0  0  0  0  0  0  0  0
   21.2399   -7.8110  -15.7736 C   0  0  0  0  0  0  0  0  0  0  0  0
   21.8180   -7.2970  -16.7923 O   0  0  0  0  0  0  0  0  0  0  0  0
   19.7774   -4.7637  -14.3293 C   0  0  0  0  0  0  0  0  0  0  0  0
   21.0001   -5.4424  -14.9214 C   0  0  2  0  0  0  0  0  0  0  0  0
   20.7833   -6.8713  -14.8058 N   0  0  0  0  0  0  0  0  0  0  0  0
   22.2221   -5.0080  -14.2011 C   0  0  0  0  0  0  0  0  0  0  0  0
   22.5154   -5.6372  -13.1520 O   0  0  0  0  0  0  0  0  0  0  0  0
   23.0373   -3.9847  -14.5967 O   0  0  0  0  0  0  0  0  0  0  0  0
  2  1  1  6
  2  3  1  0
  4  2  1  0
  4  5  1  1
  6  4  1  0
  7  6  2  0
  8  6  1  0
  9  8  1  0
  9 12  1  0
  9 10  1  6
 11 10  1  0
 12 16  1  0
 13 12  2  0
 15 14  1  1
 15 17  1  0
 16 15  1  0
 17 18  2  0
 17 19  1  0
M  END
$$$$
