TCA.pdb
     RDKit          3D

 19 18  0  0  1  0  0  0  0  0999 V2000
   17.1632  -13.3294  -15.6896 C   0  0  0  0  0  0  0  0  0  0  0  0
   18.4315  -13.0742  -16.4548 C   0  0  1  0  0  0  0  0  0  0  0  0
   18.5995  -13.9939  -17.4591 O   0  0  0  0  0  0  0  0  0  0  0  0
   18.4841  -11.6419  -16.9897 C   0  0  2  0  0  0  0  0  0  0  0  0
   19.5600  -11.6238  -17.9982 N   0  0  0  0  0  0  0  0  0  0  0  0
   18.7566  -10.6507  -15.9430 C   0  0  0  0  0  0  0  0  0  0  0  0
   18.0669  -10.6372  -14.8943 O   0  0  0  0  0  0  0  0  0  0  0  0
   19.7998   -9.7105  -16.1199 N   0  0  0  0  0  0  0  0  0  0  0  0
   20.0248   -8.6160  -15.1861 C   0  0  1  0  0  0  0  0  0  0  0  0
   21.5154   -8.4555  -15.0145 C   0  0  0  0  0  0  0  0  0  0  0  0
   22.0834   -9.3054  -13.5249 S   0  0  0  0  0  0  0  0  0  0  0  0
   19.3898   -7.4068  -15.7445 C   0  0  0  0  0  0  0  0  0  0  0  0
   19.5678   -7.0536  -16.9610 O   0  0  0  0  0  0  0  0  0  0  0  0
   16.7394   -5.0272  -14.6415 C   0  0  0  0  0  0  0  0  0  0  0  0
   17.9163   -5.3620  -15.5409 C   0  0  2  0  0  0  0  0  0  0  0  0
   18.5414   -6.5480  -14.9890 N   0  0  0  0  0  0  0  0  0  0  0  0
   18.8565   -4.2158  -15.5965 C   0  0  0  0  0  0  0  0  0  0  0  0
   18.4613   -3.1876  -16.2041 O   0  0  0  0  0  0  0  0  0  0  0  0
   20.1046   -4.2042  -15.0393 O   0  0  0  0  0  0  0  0  0  0  0  0
  2  1  1  6
  2  3  1  0
  4  2  1  0
  4  5  1  6
  6  4  1  0
  7  6  2  0
  8  6  1  0
  9  8  1  0
  9 12  1  0
  9 10  1  6
 11 10  1  0
 12 16  1  0
 13 12  2  0
 15 14  1  1
 15 17  1  0
 16 15  1  0
 17 18  2  0
 17 19  1  0
M  END
$$$$
