EPQ.pdb
     RDKit          3D

 26 26  0  0  1  0  0  0  0  0999 V2000
   19.0470  -10.6742  -15.3221 N   0  0  0  0  0  0  0  0  0  0  0  0
   19.2373   -9.2524  -15.0824 C   0  0  1  0  0  0  0  0  0  0  0  0
   18.2180   -8.5309  -15.9106 C   0  0  0  0  0  0  0  0  0  0  0  0
   18.4036   -8.6190  -17.3827 C   0  0  0  0  0  0  0  0  0  0  0  0
   17.3645   -7.8639  -18.1053 C   0  0  0  0  0  0  0  0  0  0  0  0
   17.3896   -6.6661  -18.4102 O   0  0  0  0  0  0  0  0  0  0  0  0
   19.1298   -8.9696  -13.6300 C   0  0  0  0  0  0  0  0  0  0  0  0
   18.5041   -9.8268  -12.9483 O   0  0  0  0  0  0  0  0  0  0  0  0
   16.2280   -8.5963  -18.4826 O   0  0  0  0  0  0  0  0  0  0  0  0
   19.6750   -7.8306  -13.0069 N   0  0  0  0  0  0  0  0  0  0  0  0
   20.4422   -6.7634  -13.6232 C   0  0  0  0  0  0  0  0  0  0  0  0
   20.8882   -5.8473  -12.5214 C   0  0  0  0  0  0  0  0  0  0  0  0
   20.8158   -6.7290  -11.2862 C   0  0  0  0  0  0  0  0  0  0  0  0
   19.5568   -7.5193  -11.5930 C   0  0  1  0  0  0  0  0  0  0  0  0
   18.4102   -6.6081  -11.3304 C   0  0  0  0  0  0  0  0  0  0  0  0
   18.0647   -5.6851  -12.0841 O   0  0  0  0  0  0  0  0  0  0  0  0
   12.2371   -8.0916   -7.6141 N   0  0  0  0  0  0  0  0  0  0  0  0
   13.3942   -8.2924   -8.4290 C   0  0  0  0  0  0  0  0  0  0  0  0
   13.7625   -9.4284   -8.7990 O   0  0  0  0  0  0  0  0  0  0  0  0
   14.1891   -7.0847   -8.8500 C   0  0  0  0  0  0  0  0  0  0  0  0
   15.5714   -7.5155   -9.2200 C   0  0  0  0  0  0  0  0  0  0  0  0
   16.2872   -6.4320   -9.9920 C   0  0  2  0  0  0  0  0  0  0  0  0
   17.6723   -6.8225  -10.1327 N   0  0  0  0  0  0  0  0  0  0  0  0
   16.2516   -5.1332   -9.2427 C   0  0  0  0  0  0  0  0  0  0  0  0
   15.2047   -4.4203   -9.2059 O   0  0  0  0  0  0  0  0  0  0  0  0
   17.3557   -4.6497   -8.5566 O   0  0  0  0  0  0  0  0  0  0  0  0
  2  3  1  0
  2  1  1  1
  4  5  1  0
  4  3  1  0
  5  9  1  0
  6  5  2  0
  7  2  1  0
  8  7  2  0
 10  7  1  0
 11 10  1  0
 12 13  1  0
 12 11  1  0
 13 14  1  0
 14 15  1  6
 14 10  1  0
 15 23  1  0
 16 15  2  0
 17 18  1  0
 18 19  2  0
 18 20  1  0
 20 21  1  0
 22 21  1  1
 22 24  1  0
 23 22  1  0
 24 25  2  0
 24 26  1  0
M  END
$$$$
