EPQ.pdb
     RDKit          3D

 26 26  0  0  1  0  0  0  0  0999 V2000
   27.5199  -22.1707  -16.2893 N   0  0  0  0  0  0  0  0  0  0  0  0
   27.2140  -21.1902  -15.2597 C   0  0  1  0  0  0  0  0  0  0  0  0
   27.0050  -19.8793  -15.9550 C   0  0  0  0  0  0  0  0  0  0  0  0
   28.1909  -19.3274  -16.6609 C   0  0  0  0  0  0  0  0  0  0  0  0
   27.8964  -18.0191  -17.2722 C   0  0  0  0  0  0  0  0  0  0  0  0
   27.8070  -16.9297  -16.6949 O   0  0  0  0  0  0  0  0  0  0  0  0
   26.0388  -21.6387  -14.4731 C   0  0  0  0  0  0  0  0  0  0  0  0
   25.2593  -22.4394  -15.0582 O   0  0  0  0  0  0  0  0  0  0  0  0
   27.6978  -18.0248  -18.6618 O   0  0  0  0  0  0  0  0  0  0  0  0
   25.7690  -21.2244  -13.1546 N   0  0  0  0  0  0  0  0  0  0  0  0
   26.5567  -20.3292  -12.3268 C   0  0  0  0  0  0  0  0  0  0  0  0
   25.9099  -20.2962  -10.9730 C   0  0  0  0  0  0  0  0  0  0  0  0
   25.1103  -21.5875  -10.9388 C   0  0  0  0  0  0  0  0  0  0  0  0
   24.6158  -21.6361  -12.3730 C   0  0  1  0  0  0  0  0  0  0  0  0
   23.5091  -20.6467  -12.4733 C   0  0  0  0  0  0  0  0  0  0  0  0
   23.6739  -19.4187  -12.5393 O   0  0  0  0  0  0  0  0  0  0  0  0
   21.5243  -18.2909  -15.5988 N   0  0  0  0  0  0  0  0  0  0  0  0
   20.1648  -18.7216  -15.6984 C   0  0  0  0  0  0  0  0  0  0  0  0
   19.2767  -18.0160  -16.2241 O   0  0  0  0  0  0  0  0  0  0  0  0
   19.8027  -20.0751  -15.1467 C   0  0  0  0  0  0  0  0  0  0  0  0
   21.0170  -20.6918  -14.5316 C   0  0  0  0  0  0  0  0  0  0  0  0
   21.0704  -20.4167  -13.0471 C   0  0  2  0  0  0  0  0  0  0  0  0
   22.1815  -21.1583  -12.4935 N   0  0  0  0  0  0  0  0  0  0  0  0
   19.8192  -20.8950  -12.3723 C   0  0  0  0  0  0  0  0  0  0  0  0
   18.9474  -20.0814  -11.9439 O   0  0  0  0  0  0  0  0  0  0  0  0
   19.5548  -22.2434  -12.1840 O   0  0  0  0  0  0  0  0  0  0  0  0
  2  3  1  0
  2  1  1  6
  4  5  1  0
  4  3  1  0
  5  9  1  0
  6  5  2  0
  7  2  1  0
  8  7  2  0
 10  7  1  0
 11 10  1  0
 12 13  1  0
 12 11  1  0
 13 14  1  0
 14 15  1  1
 14 10  1  0
 15 23  1  0
 16 15  2  0
 17 18  1  0
 18 19  2  0
 18 20  1  0
 20 21  1  0
 22 21  1  6
 22 24  1  0
 23 22  1  0
 24 25  2  0
 24 26  1  0
M  END
$$$$
