EPQ.pdb
     RDKit          3D

 26 26  0  0  1  0  0  0  0  0999 V2000
   12.7049  -18.8362    3.1485 N   0  0  0  0  0  0  0  0  0  0  0  0
   13.9763  -19.3948    2.7164 C   0  0  1  0  0  0  0  0  0  0  0  0
   15.0130  -18.9221    3.6897 C   0  0  0  0  0  0  0  0  0  0  0  0
   15.3661  -17.4807    3.6066 C   0  0  0  0  0  0  0  0  0  0  0  0
   16.2618  -17.0788    4.7058 C   0  0  0  0  0  0  0  0  0  0  0  0
   16.9730  -17.8176    5.3960 O   0  0  0  0  0  0  0  0  0  0  0  0
   13.8721  -20.8723    2.6311 C   0  0  0  0  0  0  0  0  0  0  0  0
   13.0952  -21.4170    3.4623 O   0  0  0  0  0  0  0  0  0  0  0  0
   16.3023  -15.7047    4.9895 O   0  0  0  0  0  0  0  0  0  0  0  0
   14.5758  -21.6589    1.6991 N   0  0  0  0  0  0  0  0  0  0  0  0
   15.5890  -21.2232    0.7554 C   0  0  0  0  0  0  0  0  0  0  0  0
   15.9474  -22.4118   -0.0877 C   0  0  0  0  0  0  0  0  0  0  0  0
   14.7358  -23.3172    0.0558 C   0  0  0  0  0  0  0  0  0  0  0  0
   14.4017  -23.0898    1.5188 C   0  0  1  0  0  0  0  0  0  0  0  0
   15.3995  -23.8629    2.3064 C   0  0  0  0  0  0  0  0  0  0  0  0
   16.4686  -23.3964    2.7293 O   0  0  0  0  0  0  0  0  0  0  0  0
   12.5911  -26.1707    6.4719 N   0  0  0  0  0  0  0  0  0  0  0  0
   13.6814  -27.0528    6.7484 C   0  0  0  0  0  0  0  0  0  0  0  0
   13.8059  -27.6386    7.8458 O   0  0  0  0  0  0  0  0  0  0  0  0
   14.7098  -27.2759    5.6713 C   0  0  0  0  0  0  0  0  0  0  0  0
   14.3192  -26.4993    4.4557 C   0  0  0  0  0  0  0  0  0  0  0  0
   15.5311  -25.8902    3.7904 C   0  0  2  0  0  0  0  0  0  0  0  0
   15.0928  -25.2244    2.5840 N   0  0  0  0  0  0  0  0  0  0  0  0
   16.5120  -26.9540    3.3957 C   0  0  0  0  0  0  0  0  0  0  0  0
   16.4995  -27.4670    2.2372 O   0  0  0  0  0  0  0  0  0  0  0  0
   17.4764  -27.4270    4.2731 O   0  0  0  0  0  0  0  0  0  0  0  0
  2  3  1  0
  2  1  1  1
  4  5  1  0
  4  3  1  0
  5  9  1  0
  6  5  2  0
  7  2  1  0
  8  7  2  0
 10  7  1  0
 11 10  1  0
 12 13  1  0
 12 11  1  0
 13 14  1  0
 14 15  1  1
 14 10  1  0
 15 23  1  0
 16 15  2  0
 17 18  1  0
 18 19  2  0
 18 20  1  0
 20 21  1  0
 22 21  1  6
 22 24  1  0
 23 22  1  0
 24 25  2  0
 24 26  1  0
M  END
$$$$
