EPQ.pdb
     RDKit          3D

 26 26  0  0  1  0  0  0  0  0999 V2000
   19.9256  -13.4679  -17.0705 N   0  0  0  0  0  0  0  0  0  0  0  0
   21.0182  -12.6229  -17.5259 C   0  0  1  0  0  0  0  0  0  0  0  0
   20.6060  -12.0537  -18.8494 C   0  0  0  0  0  0  0  0  0  0  0  0
   20.4697  -13.0336  -19.9587 C   0  0  0  0  0  0  0  0  0  0  0  0
   19.8604  -12.4191  -21.1516 C   0  0  0  0  0  0  0  0  0  0  0  0
   18.6729  -12.1137  -21.3089 O   0  0  0  0  0  0  0  0  0  0  0  0
   21.3145  -11.5907  -16.5023 C   0  0  0  0  0  0  0  0  0  0  0  0
   20.3706  -11.3129  -15.7131 O   0  0  0  0  0  0  0  0  0  0  0  0
   20.7347  -12.1574  -22.2181 O   0  0  0  0  0  0  0  0  0  0  0  0
   22.5549  -10.9355  -16.3807 N   0  0  0  0  0  0  0  0  0  0  0  0
   23.7394  -11.1183  -17.1996 C   0  0  0  0  0  0  0  0  0  0  0  0
   24.8263  -10.2763  -16.5982 C   0  0  0  0  0  0  0  0  0  0  0  0
   24.3638  -10.0854  -15.1636 C   0  0  0  0  0  0  0  0  0  0  0  0
   22.8697   -9.9296  -15.3810 C   0  0  1  0  0  0  0  0  0  0  0  0
   22.6594   -8.5542  -15.9079 C   0  0  0  0  0  0  0  0  0  0  0  0
   22.9789   -8.1870  -17.0492 O   0  0  0  0  0  0  0  0  0  0  0  0
   17.5787   -6.1226  -16.2028 N   0  0  0  0  0  0  0  0  0  0  0  0
   17.9732   -6.9387  -15.0975 C   0  0  0  0  0  0  0  0  0  0  0  0
   17.1433   -7.5288  -14.3722 O   0  0  0  0  0  0  0  0  0  0  0  0
   19.4435   -7.0847  -14.8070 C   0  0  0  0  0  0  0  0  0  0  0  0
   20.2185   -6.2723  -15.7932 C   0  0  0  0  0  0  0  0  0  0  0  0
   21.6916   -6.2758  -15.4582 C   0  0  2  0  0  0  0  0  0  0  0  0
   22.0513   -7.6105  -15.0336 N   0  0  0  0  0  0  0  0  0  0  0  0
   21.9809   -5.3405  -14.3220 C   0  0  0  0  0  0  0  0  0  0  0  0
   22.3236   -5.7728  -13.1814 O   0  0  0  0  0  0  0  0  0  0  0  0
   21.8885   -3.9636  -14.4614 O   0  0  0  0  0  0  0  0  0  0  0  0
  2  3  1  0
  2  1  1  1
  4  5  1  0
  4  3  1  0
  5  9  1  0
  6  5  2  0
  7  2  1  0
  8  7  2  0
 10  7  1  0
 11 10  1  0
 12 13  1  0
 12 11  1  0
 13 14  1  0
 14 15  1  6
 14 10  1  0
 15 23  1  0
 16 15  2  0
 17 18  1  0
 18 19  2  0
 18 20  1  0
 20 21  1  0
 22 21  1  1
 22 24  1  0
 23 22  1  0
 24 25  2  0
 24 26  1  0
M  END
$$$$
