EPQ.pdb
     RDKit          3D

 26 26  0  0  1  0  0  0  0  0999 V2000
   28.9047  -23.3535  -17.2072 N   0  0  0  0  0  0  0  0  0  0  0  0
   28.3829  -22.0012  -17.3253 C   0  0  1  0  0  0  0  0  0  0  0  0
   27.7860  -21.8827  -18.6947 C   0  0  0  0  0  0  0  0  0  0  0  0
   28.6671  -21.2869  -19.7329 C   0  0  0  0  0  0  0  0  0  0  0  0
   28.8465  -19.8390  -19.5246 C   0  0  0  0  0  0  0  0  0  0  0  0
   29.8989  -19.2494  -19.2545 O   0  0  0  0  0  0  0  0  0  0  0  0
   27.4153  -21.7395  -16.2315 C   0  0  0  0  0  0  0  0  0  0  0  0
   26.9306  -22.7602  -15.6710 O   0  0  0  0  0  0  0  0  0  0  0  0
   27.6883  -19.0557  -19.6494 O   0  0  0  0  0  0  0  0  0  0  0  0
   27.0316  -20.4517  -15.8108 N   0  0  0  0  0  0  0  0  0  0  0  0
   27.4790  -19.1755  -16.3385 C   0  0  0  0  0  0  0  0  0  0  0  0
   26.8686  -18.1051  -15.4819 C   0  0  0  0  0  0  0  0  0  0  0  0
   26.5492  -18.8356  -14.1886 C   0  0  0  0  0  0  0  0  0  0  0  0
   26.0893  -20.1724  -14.7411 C   0  0  1  0  0  0  0  0  0  0  0  0
   24.7140  -19.9624  -15.2684 C   0  0  0  0  0  0  0  0  0  0  0  0
   24.4586  -19.4467  -16.3676 O   0  0  0  0  0  0  0  0  0  0  0  0
   17.9552  -21.6479  -12.9845 N   0  0  0  0  0  0  0  0  0  0  0  0
   19.2517  -22.1188  -13.3596 C   0  0  0  0  0  0  0  0  0  0  0  0
   19.7555  -23.1524  -12.8687 O   0  0  0  0  0  0  0  0  0  0  0  0
   20.0280  -21.3332  -14.3832 C   0  0  0  0  0  0  0  0  0  0  0  0
   21.4616  -21.2711  -13.9657 C   0  0  0  0  0  0  0  0  0  0  0  0
   22.2639  -20.4099  -14.9128 C   0  0  2  0  0  0  0  0  0  0  0  0
   23.6324  -20.3858  -14.4464 N   0  0  0  0  0  0  0  0  0  0  0  0
   21.7544  -18.9992  -14.9099 C   0  0  0  0  0  0  0  0  0  0  0  0
   22.1967  -18.1389  -14.0916 O   0  0  0  0  0  0  0  0  0  0  0  0
   20.7797  -18.5678  -15.7972 O   0  0  0  0  0  0  0  0  0  0  0  0
  2  3  1  0
  2  1  1  1
  4  5  1  0
  4  3  1  0
  5  9  1  0
  6  5  2  0
  7  2  1  0
  8  7  2  0
 10  7  1  0
 11 10  1  0
 12 13  1  0
 12 11  1  0
 13 14  1  0
 14 15  1  6
 14 10  1  0
 15 23  1  0
 16 15  2  0
 17 18  1  0
 18 19  2  0
 18 20  1  0
 20 21  1  0
 22 21  1  1
 22 24  1  0
 23 22  1  0
 24 25  2  0
 24 26  1  0
M  END
$$$$
