EPQ.pdb
     RDKit          3D

 26 26  0  0  1  0  0  0  0  0999 V2000
   18.6006  -12.8473  -16.1003 N   0  0  0  0  0  0  0  0  0  0  0  0
   18.8094  -11.4838  -16.5613 C   0  0  1  0  0  0  0  0  0  0  0  0
   17.4543  -10.9000  -16.8225 C   0  0  0  0  0  0  0  0  0  0  0  0
   17.4345   -9.4672  -17.2174 C   0  0  0  0  0  0  0  0  0  0  0  0
   16.0585   -8.9825  -17.4264 C   0  0  0  0  0  0  0  0  0  0  0  0
   15.2385   -9.3997  -18.2520 O   0  0  0  0  0  0  0  0  0  0  0  0
   19.5969  -10.7293  -15.5556 C   0  0  0  0  0  0  0  0  0  0  0  0
   19.2786  -10.9232  -14.3505 O   0  0  0  0  0  0  0  0  0  0  0  0
   15.6469   -7.9327  -16.5905 O   0  0  0  0  0  0  0  0  0  0  0  0
   20.6419   -9.8421  -15.8776 N   0  0  0  0  0  0  0  0  0  0  0  0
   21.1530   -9.5140  -17.1961 C   0  0  0  0  0  0  0  0  0  0  0  0
   22.3358   -8.6117  -16.9990 C   0  0  0  0  0  0  0  0  0  0  0  0
   22.7670   -8.9110  -15.5733 C   0  0  0  0  0  0  0  0  0  0  0  0
   21.4113   -9.0776  -14.9114 C   0  0  1  0  0  0  0  0  0  0  0  0
   20.8556   -7.7089  -14.7337 C   0  0  0  0  0  0  0  0  0  0  0  0
   20.2728   -7.0707  -15.6240 O   0  0  0  0  0  0  0  0  0  0  0  0
   16.6224   -6.7358  -10.1812 N   0  0  0  0  0  0  0  0  0  0  0  0
   18.0458   -6.7102  -10.3101 C   0  0  0  0  0  0  0  0  0  0  0  0
   18.8061   -6.6534   -9.3192 O   0  0  0  0  0  0  0  0  0  0  0  0
   18.6381   -6.7538  -11.6939 C   0  0  0  0  0  0  0  0  0  0  0  0
   19.8710   -5.9097  -11.7235 C   0  0  0  0  0  0  0  0  0  0  0  0
   20.4336   -5.8230  -13.1228 C   0  0  2  0  0  0  0  0  0  0  0  0
   21.0111   -7.1067  -13.4539 N   0  0  0  0  0  0  0  0  0  0  0  0
   21.5259   -4.7976  -13.1943 C   0  0  0  0  0  0  0  0  0  0  0  0
   22.7449   -5.1217  -13.0742 O   0  0  0  0  0  0  0  0  0  0  0  0
   21.2586   -3.4514  -13.3941 O   0  0  0  0  0  0  0  0  0  0  0  0
  2  3  1  0
  2  1  1  1
  4  5  1  0
  4  3  1  0
  5  9  1  0
  6  5  2  0
  7  2  1  0
  8  7  2  0
 10  7  1  0
 11 10  1  0
 12 13  1  0
 12 11  1  0
 13 14  1  0
 14 15  1  6
 14 10  1  0
 15 23  1  0
 16 15  2  0
 17 18  1  0
 18 19  2  0
 18 20  1  0
 20 21  1  0
 22 21  1  1
 22 24  1  0
 23 22  1  0
 24 25  2  0
 24 26  1  0
M  END
$$$$
