EPQ.pdb
     RDKit          3D

 26 26  0  0  1  0  0  0  0  0999 V2000
   19.3548  -12.5360  -16.3948 N   0  0  0  0  0  0  0  0  0  0  0  0
   19.6092  -11.2588  -17.0422 C   0  0  1  0  0  0  0  0  0  0  0  0
   18.2796  -10.7124  -17.4653 C   0  0  0  0  0  0  0  0  0  0  0  0
   17.6041  -11.4426  -18.5697 C   0  0  0  0  0  0  0  0  0  0  0  0
   16.2927  -10.8501  -18.8875 C   0  0  0  0  0  0  0  0  0  0  0  0
   15.1797  -11.3407  -18.6667 O   0  0  0  0  0  0  0  0  0  0  0  0
   20.3505  -10.3664  -16.1173 C   0  0  0  0  0  0  0  0  0  0  0  0
   20.0938  -10.5111  -14.8908 O   0  0  0  0  0  0  0  0  0  0  0  0
   16.3251   -9.5915  -19.5083 O   0  0  0  0  0  0  0  0  0  0  0  0
   21.2899   -9.4044  -16.5351 N   0  0  0  0  0  0  0  0  0  0  0  0
   21.6392   -9.0371  -17.8954 C   0  0  0  0  0  0  0  0  0  0  0  0
   22.7671   -8.0508  -17.8106 C   0  0  0  0  0  0  0  0  0  0  0  0
   23.3615   -8.3203  -16.4386 C   0  0  0  0  0  0  0  0  0  0  0  0
   22.0958   -8.5872  -15.6446 C   0  0  1  0  0  0  0  0  0  0  0  0
   21.4628   -7.2633  -15.3989 C   0  0  0  0  0  0  0  0  0  0  0  0
   20.7486   -6.6674  -16.2201 O   0  0  0  0  0  0  0  0  0  0  0  0
   20.2494   -5.9358   -9.6589 N   0  0  0  0  0  0  0  0  0  0  0  0
   19.3988   -6.6603  -10.5504 C   0  0  0  0  0  0  0  0  0  0  0  0
   18.5055   -7.4336  -10.1417 O   0  0  0  0  0  0  0  0  0  0  0  0
   19.5958   -6.4769  -12.0319 C   0  0  0  0  0  0  0  0  0  0  0  0
   20.7295   -5.5303  -12.2596 C   0  0  0  0  0  0  0  0  0  0  0  0
   21.0586   -5.4243  -13.7302 C   0  0  2  0  0  0  0  0  0  0  0  0
   21.7019   -6.6544  -14.1352 N   0  0  0  0  0  0  0  0  0  0  0  0
   22.0204   -4.3010  -13.9804 C   0  0  0  0  0  0  0  0  0  0  0  0
   23.2467   -4.5204  -14.2116 O   0  0  0  0  0  0  0  0  0  0  0  0
   21.6187   -2.9735  -13.9715 O   0  0  0  0  0  0  0  0  0  0  0  0
  2  3  1  0
  2  1  1  1
  4  5  1  0
  4  3  1  0
  5  9  1  0
  6  5  2  0
  7  2  1  0
  8  7  2  0
 10  7  1  0
 11 10  1  0
 12 13  1  0
 12 11  1  0
 13 14  1  0
 14 15  1  6
 14 10  1  0
 15 23  1  0
 16 15  2  0
 17 18  1  0
 18 19  2  0
 18 20  1  0
 20 21  1  0
 22 21  1  1
 22 24  1  0
 23 22  1  0
 24 25  2  0
 24 26  1  0
M  END
$$$$
