EPQ.pdb
     RDKit          3D

 26 26  0  0  1  0  0  0  0  0999 V2000
   18.2191  -26.0829  -11.6105 N   0  0  0  0  0  0  0  0  0  0  0  0
   18.2971  -25.0413  -10.5986 C   0  0  1  0  0  0  0  0  0  0  0  0
   17.8150  -23.7751  -11.2389 C   0  0  0  0  0  0  0  0  0  0  0  0
   18.6871  -23.2197  -12.3066 C   0  0  0  0  0  0  0  0  0  0  0  0
   18.0583  -23.3366  -13.6343 C   0  0  0  0  0  0  0  0  0  0  0  0
   16.8897  -23.0653  -13.9323 O   0  0  0  0  0  0  0  0  0  0  0  0
   17.5099  -25.4403   -9.4060 C   0  0  0  0  0  0  0  0  0  0  0  0
   16.4981  -26.1591   -9.6310 O   0  0  0  0  0  0  0  0  0  0  0  0
   18.8878  -23.8085  -14.6638 O   0  0  0  0  0  0  0  0  0  0  0  0
   17.8325  -25.0650   -8.0878 N   0  0  0  0  0  0  0  0  0  0  0  0
   18.8653  -24.1410   -7.6555 C   0  0  0  0  0  0  0  0  0  0  0  0
   18.8822  -24.1683   -6.1551 C   0  0  0  0  0  0  0  0  0  0  0  0
   18.2366  -25.5034   -5.8250 C   0  0  0  0  0  0  0  0  0  0  0  0
   17.1622  -25.5550   -6.8958 C   0  0  1  0  0  0  0  0  0  0  0  0
   16.0833  -24.6285   -6.4584 C   0  0  0  0  0  0  0  0  0  0  0  0
   16.0734  -23.4095   -6.6892 O   0  0  0  0  0  0  0  0  0  0  0  0
   10.6728  -27.1127   -4.6360 N   0  0  0  0  0  0  0  0  0  0  0  0
   10.2951  -25.7397   -4.7608 C   0  0  0  0  0  0  0  0  0  0  0  0
    9.1069  -25.3620   -4.6686 O   0  0  0  0  0  0  0  0  0  0  0  0
   11.3762  -24.7220   -5.0121 C   0  0  0  0  0  0  0  0  0  0  0  0
   12.6808  -25.4296   -5.1870 C   0  0  0  0  0  0  0  0  0  0  0  0
   13.8049  -24.4447   -5.4073 C   0  0  2  0  0  0  0  0  0  0  0  0
   14.9997  -25.1930   -5.7290 N   0  0  0  0  0  0  0  0  0  0  0  0
   14.0780  -23.6612   -4.1578 C   0  0  0  0  0  0  0  0  0  0  0  0
   13.4008  -22.6319   -3.8623 O   0  0  0  0  0  0  0  0  0  0  0  0
   15.0794  -24.0213   -3.2683 O   0  0  0  0  0  0  0  0  0  0  0  0
  2  3  1  0
  2  1  1  6
  4  5  1  0
  4  3  1  0
  5  9  1  0
  6  5  2  0
  7  2  1  0
  8  7  2  0
 10  7  1  0
 11 10  1  0
 12 13  1  0
 12 11  1  0
 13 14  1  0
 14 15  1  1
 14 10  1  0
 15 23  1  0
 16 15  2  0
 17 18  1  0
 18 19  2  0
 18 20  1  0
 20 21  1  0
 22 21  1  1
 22 24  1  0
 23 22  1  0
 24 25  2  0
 24 26  1  0
M  END
$$$$
