EPQ.pdb
     RDKit          3D

 26 26  0  0  1  0  0  0  0  0999 V2000
   30.7353  -21.6949  -19.9883 N   0  0  0  0  0  0  0  0  0  0  0  0
   30.9270  -22.0975  -18.6040 C   0  0  1  0  0  0  0  0  0  0  0  0
   29.9856  -21.2756  -17.7771 C   0  0  0  0  0  0  0  0  0  0  0  0
   28.5799  -21.2265  -18.2574 C   0  0  0  0  0  0  0  0  0  0  0  0
   27.7089  -20.5096  -17.3091 C   0  0  0  0  0  0  0  0  0  0  0  0
   27.9623  -20.2243  -16.1333 O   0  0  0  0  0  0  0  0  0  0  0  0
   30.7112  -23.5594  -18.4722 C   0  0  0  0  0  0  0  0  0  0  0  0
   29.8925  -24.0693  -19.2851 O   0  0  0  0  0  0  0  0  0  0  0  0
   26.4581  -20.1132  -17.8081 O   0  0  0  0  0  0  0  0  0  0  0  0
   31.3560  -24.3677  -17.5164 N   0  0  0  0  0  0  0  0  0  0  0  0
   32.2416  -23.9433  -16.4474 C   0  0  0  0  0  0  0  0  0  0  0  0
   32.7545  -25.1855  -15.7796 C   0  0  0  0  0  0  0  0  0  0  0  0
   32.5652  -26.2544  -16.8425 C   0  0  0  0  0  0  0  0  0  0  0  0
   31.2390  -25.8133  -17.4346 C   0  0  1  0  0  0  0  0  0  0  0  0
   30.1861  -26.2201  -16.4654 C   0  0  0  0  0  0  0  0  0  0  0  0
   30.1095  -25.8005  -15.3003 O   0  0  0  0  0  0  0  0  0  0  0  0
   24.6481  -25.5677  -17.2867 N   0  0  0  0  0  0  0  0  0  0  0  0
   25.1251  -26.5620  -18.1963 C   0  0  0  0  0  0  0  0  0  0  0  0
   24.5634  -26.7933  -19.2889 O   0  0  0  0  0  0  0  0  0  0  0  0
   26.3486  -27.3518  -17.8130 C   0  0  0  0  0  0  0  0  0  0  0  0
   26.8741  -26.8364  -16.5124 C   0  0  0  0  0  0  0  0  0  0  0  0
   28.1116  -27.5935  -16.0910 C   0  0  2  0  0  0  0  0  0  0  0  0
   29.2111  -27.1517  -16.9197 N   0  0  0  0  0  0  0  0  0  0  0  0
   27.9349  -29.0664  -16.3118 C   0  0  0  0  0  0  0  0  0  0  0  0
   28.4308  -29.6469  -17.3230 O   0  0  0  0  0  0  0  0  0  0  0  0
   27.2243  -29.8626  -15.4260 O   0  0  0  0  0  0  0  0  0  0  0  0
  2  3  1  0
  2  1  1  6
  4  5  1  0
  4  3  1  0
  5  9  1  0
  6  5  2  0
  7  2  1  0
  8  7  2  0
 10  7  1  0
 11 10  1  0
 12 13  1  0
 12 11  1  0
 13 14  1  0
 14 15  1  1
 14 10  1  0
 15 23  1  0
 16 15  2  0
 17 18  1  0
 18 19  2  0
 18 20  1  0
 20 21  1  0
 22 21  1  6
 22 24  1  0
 23 22  1  0
 24 25  2  0
 24 26  1  0
M  END
$$$$
