EPQ.pdb
     RDKit          3D

 26 26  0  0  1  0  0  0  0  0999 V2000
   18.7557  -12.8884  -16.5339 N   0  0  0  0  0  0  0  0  0  0  0  0
   20.0155  -12.2972  -16.9562 C   0  0  1  0  0  0  0  0  0  0  0  0
   19.7683  -11.6473  -18.2836 C   0  0  0  0  0  0  0  0  0  0  0  0
   19.4726  -12.5717  -19.4093 C   0  0  0  0  0  0  0  0  0  0  0  0
   19.2338  -11.8370  -20.6644 C   0  0  0  0  0  0  0  0  0  0  0  0
   19.9896  -11.7620  -21.6397 O   0  0  0  0  0  0  0  0  0  0  0  0
   20.5021  -11.3573  -15.9166 C   0  0  0  0  0  0  0  0  0  0  0  0
   19.6254  -10.9073  -15.1292 O   0  0  0  0  0  0  0  0  0  0  0  0
   18.0113  -11.1523  -20.7484 O   0  0  0  0  0  0  0  0  0  0  0  0
   21.8468  -10.9631  -15.7785 N   0  0  0  0  0  0  0  0  0  0  0  0
   22.9884  -11.4158  -16.5524 C   0  0  0  0  0  0  0  0  0  0  0  0
   24.2095  -10.7882  -15.9465 C   0  0  0  0  0  0  0  0  0  0  0  0
   23.7613  -10.4491  -14.5350 C   0  0  0  0  0  0  0  0  0  0  0  0
   22.3361  -10.0022  -14.8051 C   0  0  1  0  0  0  0  0  0  0  0  0
   22.4237   -8.6354  -15.3863 C   0  0  0  0  0  0  0  0  0  0  0  0
   22.7308   -8.3956  -16.5643 O   0  0  0  0  0  0  0  0  0  0  0  0
   18.7316   -6.4837  -16.9833 N   0  0  0  0  0  0  0  0  0  0  0  0
   18.7014   -5.1954  -16.3647 C   0  0  0  0  0  0  0  0  0  0  0  0
   18.0653   -4.2350  -16.8506 O   0  0  0  0  0  0  0  0  0  0  0  0
   19.4670   -5.0011  -15.0826 C   0  0  0  0  0  0  0  0  0  0  0  0
   20.0965   -6.2981  -14.6892 C   0  0  0  0  0  0  0  0  0  0  0  0
   21.5746   -6.2986  -15.0013 C   0  0  2  0  0  0  0  0  0  0  0  0
   22.1335   -7.5431  -14.5217 N   0  0  0  0  0  0  0  0  0  0  0  0
   22.2697   -5.1787  -14.2854 C   0  0  0  0  0  0  0  0  0  0  0  0
   22.6375   -5.2939  -13.0784 O   0  0  0  0  0  0  0  0  0  0  0  0
   22.5433   -3.9681  -14.9045 O   0  0  0  0  0  0  0  0  0  0  0  0
  2  3  1  0
  2  1  1  1
  4  5  1  0
  4  3  1  0
  5  9  1  0
  6  5  2  0
  7  2  1  0
  8  7  2  0
 10  7  1  0
 11 10  1  0
 12 13  1  0
 12 11  1  0
 13 14  1  0
 14 15  1  6
 14 10  1  0
 15 23  1  0
 16 15  2  0
 17 18  1  0
 18 19  2  0
 18 20  1  0
 20 21  1  0
 22 21  1  1
 22 24  1  0
 23 22  1  0
 24 25  2  0
 24 26  1  0
M  END
$$$$
