EPQ.pdb
     RDKit          3D

 26 26  0  0  1  0  0  0  0  0999 V2000
   14.5441   -9.3006  -14.4570 N   0  0  0  0  0  0  0  0  0  0  0  0
   15.3929   -9.4961  -13.2924 C   0  0  1  0  0  0  0  0  0  0  0  0
   16.3446  -10.6039  -13.6281 C   0  0  0  0  0  0  0  0  0  0  0  0
   15.7463  -11.9610  -13.7252 C   0  0  0  0  0  0  0  0  0  0  0  0
   16.7644  -12.9803  -14.0352 C   0  0  0  0  0  0  0  0  0  0  0  0
   17.3906  -13.6779  -13.2293 O   0  0  0  0  0  0  0  0  0  0  0  0
   16.0659   -8.2211  -12.9423 C   0  0  0  0  0  0  0  0  0  0  0  0
   16.2457   -7.4151  -13.8958 O   0  0  0  0  0  0  0  0  0  0  0  0
   17.0442  -13.1699  -15.3977 O   0  0  0  0  0  0  0  0  0  0  0  0
   16.4946   -7.8877  -11.6432 N   0  0  0  0  0  0  0  0  0  0  0  0
   16.3078   -8.6520  -10.4233 C   0  0  0  0  0  0  0  0  0  0  0  0
   16.8440   -7.8206   -9.2949 C   0  0  0  0  0  0  0  0  0  0  0  0
   16.8096   -6.4094   -9.8568 C   0  0  0  0  0  0  0  0  0  0  0  0
   17.2229   -6.6809  -11.2918 C   0  0  1  0  0  0  0  0  0  0  0  0
   18.6917   -6.9180  -11.2720 C   0  0  0  0  0  0  0  0  0  0  0  0
   19.2263   -7.9541  -10.8474 O   0  0  0  0  0  0  0  0  0  0  0  0
   19.8027   -8.6335  -15.7562 N   0  0  0  0  0  0  0  0  0  0  0  0
   21.1796   -8.2680  -15.6382 C   0  0  0  0  0  0  0  0  0  0  0  0
   22.0514   -8.6802  -16.4339 O   0  0  0  0  0  0  0  0  0  0  0  0
   21.5813   -7.3535  -14.5113 C   0  0  0  0  0  0  0  0  0  0  0  0
   20.3662   -6.9916  -13.7203 C   0  0  0  0  0  0  0  0  0  0  0  0
   20.7321   -6.1444  -12.5241 C   0  0  2  0  0  0  0  0  0  0  0  0
   19.5233   -5.8793  -11.7762 N   0  0  0  0  0  0  0  0  0  0  0  0
   21.2994   -4.8261  -12.9596 C   0  0  0  0  0  0  0  0  0  0  0  0
   22.5379   -4.6821  -13.1852 O   0  0  0  0  0  0  0  0  0  0  0  0
   20.5023   -3.7050  -13.1363 O   0  0  0  0  0  0  0  0  0  0  0  0
  2  3  1  0
  2  1  1  6
  4  5  1  0
  4  3  1  0
  5  9  1  0
  6  5  2  0
  7  2  1  0
  8  7  2  0
 10  7  1  0
 11 10  1  0
 12 13  1  0
 12 11  1  0
 13 14  1  0
 14 15  1  1
 14 10  1  0
 15 23  1  0
 16 15  2  0
 17 18  1  0
 18 19  2  0
 18 20  1  0
 20 21  1  0
 22 21  1  6
 22 24  1  0
 23 22  1  0
 24 25  2  0
 24 26  1  0
M  END
$$$$
