VRQ.pdb
     RDKit          3D

 28 27  0  0  1  0  0  0  0  0999 V2000
   24.1122  -20.0691  -17.6706 C   0  0  0  0  0  0  0  0  0  0  0  0
   25.0805  -18.8904  -17.5938 C   0  0  2  0  0  0  0  0  0  0  0  0
   25.0027  -18.0989  -18.8745 C   0  0  0  0  0  0  0  0  0  0  0  0
   26.4981  -19.4449  -17.4584 C   0  0  2  0  0  0  0  0  0  0  0  0
   26.7892  -20.3475  -18.5531 N   0  0  0  0  0  0  0  0  0  0  0  0
   26.6275  -20.1256  -16.1639 C   0  0  0  0  0  0  0  0  0  0  0  0
   25.7943  -21.0509  -15.8989 O   0  0  0  0  0  0  0  0  0  0  0  0
   31.6213  -23.8109  -11.3887 N   0  0  0  0  0  0  0  0  0  0  0  0
   32.1752  -22.5005  -11.3603 C   0  0  0  0  0  0  0  0  0  0  0  0
   33.1936  -22.2766  -10.6025 N   0  0  0  0  0  0  0  0  0  0  0  0
   31.6262  -21.4387  -12.1508 N   0  0  0  0  0  0  0  0  0  0  0  0
   30.5960  -20.6352  -11.5274 C   0  0  0  0  0  0  0  0  0  0  0  0
   29.2186  -20.9880  -12.0466 C   0  0  0  0  0  0  0  0  0  0  0  0
   29.0622  -20.2269  -13.3699 C   0  0  0  0  0  0  0  0  0  0  0  0
   27.7026  -20.4874  -13.9817 C   0  0  2  0  0  0  0  0  0  0  0  0
   27.6266  -19.7838  -15.2377 N   0  0  0  0  0  0  0  0  0  0  0  0
   26.6127  -20.0673  -13.0665 C   0  0  0  0  0  0  0  0  0  0  0  0
   26.3437  -18.8302  -12.9461 O   0  0  0  0  0  0  0  0  0  0  0  0
   33.6671  -21.3607  -10.5993 N   0  0  0  0  0  0  0  0  0  0  0  0
   21.4112  -19.9483  -13.6158 C   0  0  0  0  0  0  0  0  0  0  0  0
   21.2190  -20.2028  -12.2244 O   0  0  0  0  0  0  0  0  0  0  0  0
   20.1151  -19.8670  -11.6995 C   0  0  0  0  0  0  0  0  0  0  0  0
   22.2939  -20.8458  -11.4548 C   0  0  0  0  0  0  0  0  0  0  0  0
   23.5732  -21.0331  -12.1589 C   0  0  1  0  0  0  0  0  0  0  0  0
   24.8187  -20.6299  -11.4494 N   0  0  0  0  0  0  0  0  0  0  0  0
   25.9195  -21.0667  -12.3665 C   0  0  0  0  0  0  0  0  0  0  0  0
   25.0338  -21.3243  -10.1852 O   0  0  0  0  0  0  0  0  0  0  0  0
   24.3698  -20.9559   -9.0260 O   0  0  0  0  0  0  0  0  0  0  0  0
  2  1  1  6
  2  3  1  0
  4  5  1  6
  4  2  1  0
  6  4  1  0
  6  7  2  0
  9 11  1  0
  9  8  1  0
 10  9  2  0
 12 11  1  0
 12 13  1  0
 13 14  1  0
 15 14  1  1
 15 17  1  0
 15 16  1  0
 16  6  1  0
 17 25  1  0
 18 17  2  0
 19 20  1  0
 20 22  1  0
 20 21  2  0
 22 23  1  0
 24 23  1  6
 24 26  1  0
 25 24  1  0
 26 28  2  0
 26 27  1  0
M  END
$$$$
