VRQ.pdb
     RDKit          3D

 28 27  0  0  1  0  0  0  0  0999 V2000
   25.4986  -26.6645  -17.6658 C   0  0  0  0  0  0  0  0  0  0  0  0
   24.5944  -26.0173  -16.6186 C   0  0  2  0  0  0  0  0  0  0  0  0
   23.1626  -26.0904  -17.0848 C   0  0  0  0  0  0  0  0  0  0  0  0
   24.9839  -24.5448  -16.4956 C   0  0  2  0  0  0  0  0  0  0  0  0
   26.3283  -24.4247  -15.9702 N   0  0  0  0  0  0  0  0  0  0  0  0
   24.0153  -23.8610  -15.6296 C   0  0  0  0  0  0  0  0  0  0  0  0
   23.9870  -24.1925  -14.4007 O   0  0  0  0  0  0  0  0  0  0  0  0
   20.0979  -16.8696  -14.8642 N   0  0  0  0  0  0  0  0  0  0  0  0
   19.7948  -17.5020  -13.6260 C   0  0  0  0  0  0  0  0  0  0  0  0
   18.7408  -17.1299  -12.9840 N   0  0  0  0  0  0  0  0  0  0  0  0
   20.6318  -18.5332  -13.0877 N   0  0  0  0  0  0  0  0  0  0  0  0
   21.5399  -19.1770  -14.0131 C   0  0  0  0  0  0  0  0  0  0  0  0
   20.8246  -20.1756  -14.8977 C   0  0  0  0  0  0  0  0  0  0  0  0
   21.9180  -20.8500  -15.7371 C   0  0  0  0  0  0  0  0  0  0  0  0
   22.2093  -22.2425  -15.2205 C   0  0  2  0  0  0  0  0  0  0  0  0
   23.1430  -22.8748  -16.1186 N   0  0  0  0  0  0  0  0  0  0  0  0
   20.9642  -23.0399  -15.0950 C   0  0  0  0  0  0  0  0  0  0  0  0
   20.3998  -23.4815  -16.1456 O   0  0  0  0  0  0  0  0  0  0  0  0
   18.4345  -17.6183  -12.1292 N   0  0  0  0  0  0  0  0  0  0  0  0
   19.7562  -26.6326  -10.3152 C   0  0  0  0  0  0  0  0  0  0  0  0
   18.4732  -26.6334  -10.9408 O   0  0  0  0  0  0  0  0  0  0  0  0
   17.5875  -27.4224  -10.4935 C   0  0  0  0  0  0  0  0  0  0  0  0
   18.2209  -25.7235  -12.0675 C   0  0  0  0  0  0  0  0  0  0  0  0
   19.3527  -24.8803  -12.4863 C   0  0  1  0  0  0  0  0  0  0  0  0
   19.1724  -24.0315  -13.6965 N   0  0  0  0  0  0  0  0  0  0  0  0
   20.4596  -23.2736  -13.8065 C   0  0  0  0  0  0  0  0  0  0  0  0
   18.1151  -23.0349  -13.5711 O   0  0  0  0  0  0  0  0  0  0  0  0
   16.7879  -23.3402  -13.8273 O   0  0  0  0  0  0  0  0  0  0  0  0
  2  1  1  6
  2  3  1  0
  4  5  1  1
  4  2  1  0
  6  4  1  0
  6  7  2  0
  9 11  1  0
  9  8  1  0
 10  9  2  0
 12 11  1  0
 12 13  1  0
 13 14  1  0
 15 14  1  6
 15 17  1  0
 15 16  1  0
 16  6  1  0
 17 25  1  0
 18 17  2  0
 19 20  1  0
 20 22  1  0
 20 21  2  0
 22 23  1  0
 24 23  1  6
 24 26  1  0
 25 24  1  0
 26 28  2  0
 26 27  1  0
M  END
$$$$
