VRQ.pdb
     RDKit          3D

 28 27  0  0  1  0  0  0  0  0999 V2000
   27.4941  -19.0749  -13.1118 C   0  0  0  0  0  0  0  0  0  0  0  0
   27.4994  -20.4574  -12.4627 C   0  0  2  0  0  0  0  0  0  0  0  0
   27.7810  -21.4995  -13.5151 C   0  0  0  0  0  0  0  0  0  0  0  0
   26.1082  -20.7206  -11.8878 C   0  0  2  0  0  0  0  0  0  0  0  0
   26.0714  -22.0146  -11.2383 N   0  0  0  0  0  0  0  0  0  0  0  0
   25.1178  -20.6438  -12.9689 C   0  0  0  0  0  0  0  0  0  0  0  0
   24.9699  -19.5228  -13.5540 O   0  0  0  0  0  0  0  0  0  0  0  0
   25.3038  -24.9121  -17.6167 N   0  0  0  0  0  0  0  0  0  0  0  0
   25.8320  -25.6097  -16.4946 C   0  0  0  0  0  0  0  0  0  0  0  0
   27.0366  -26.0638  -16.5606 N   0  0  0  0  0  0  0  0  0  0  0  0
   25.0563  -25.8132  -15.3069 N   0  0  0  0  0  0  0  0  0  0  0  0
   23.6887  -25.3398  -15.3395 C   0  0  0  0  0  0  0  0  0  0  0  0
   23.4840  -24.1532  -14.4223 C   0  0  0  0  0  0  0  0  0  0  0  0
   23.5894  -22.9101  -15.3159 C   0  0  0  0  0  0  0  0  0  0  0  0
   23.4680  -21.6455  -14.4932 C   0  0  2  0  0  0  0  0  0  0  0  0
   24.3513  -21.7542  -13.3591 N   0  0  0  0  0  0  0  0  0  0  0  0
   22.0668  -21.4193  -14.0601 C   0  0  0  0  0  0  0  0  0  0  0  0
   21.6486  -21.9710  -12.9934 O   0  0  0  0  0  0  0  0  0  0  0  0
   27.4708  -26.5475  -15.7602 N   0  0  0  0  0  0  0  0  0  0  0  0
   16.2437  -17.1592  -15.8859 C   0  0  0  0  0  0  0  0  0  0  0  0
   17.5696  -17.6747  -16.0039 O   0  0  0  0  0  0  0  0  0  0  0  0
   18.3140  -17.2132  -16.9204 C   0  0  0  0  0  0  0  0  0  0  0  0
   18.0265  -18.7086  -15.0640 C   0  0  0  0  0  0  0  0  0  0  0  0
   19.3894  -19.2226  -15.2774 C   0  0  1  0  0  0  0  0  0  0  0  0
   19.8870  -20.2716  -14.3451 N   0  0  0  0  0  0  0  0  0  0  0  0
   21.2566  -20.5963  -14.8574 C   0  0  0  0  0  0  0  0  0  0  0  0
   19.1246  -21.5140  -14.3870 O   0  0  0  0  0  0  0  0  0  0  0  0
   18.2474  -21.8686  -13.3745 O   0  0  0  0  0  0  0  0  0  0  0  0
  2  1  1  6
  2  3  1  0
  4  5  1  6
  4  2  1  0
  6  4  1  0
  6  7  2  0
  9 11  1  0
  9  8  1  0
 10  9  2  0
 12 11  1  0
 12 13  1  0
 13 14  1  0
 15 14  1  1
 15 17  1  0
 15 16  1  0
 16  6  1  0
 17 25  1  0
 18 17  2  0
 19 20  1  0
 20 22  1  0
 20 21  2  0
 22 23  1  0
 24 23  1  1
 24 26  1  0
 25 24  1  0
 26 28  2  0
 26 27  1  0
M  END
$$$$
