VRQ.pdb
     RDKit          3D

 28 27  0  0  1  0  0  0  0  0999 V2000
   21.4600  -17.9037  -12.8774 C   0  0  0  0  0  0  0  0  0  0  0  0
   20.2291  -17.6512  -13.7459 C   0  0  2  0  0  0  0  0  0  0  0  0
   19.0718  -17.2551  -12.8646 C   0  0  0  0  0  0  0  0  0  0  0  0
   19.8679  -18.9566  -14.4534 C   0  0  2  0  0  0  0  0  0  0  0  0
   18.6119  -19.4697  -13.9468 N   0  0  0  0  0  0  0  0  0  0  0  0
   20.9524  -19.9269  -14.2574 C   0  0  0  0  0  0  0  0  0  0  0  0
   20.8977  -20.6711  -13.2260 O   0  0  0  0  0  0  0  0  0  0  0  0
   26.1838  -24.9661  -16.1851 N   0  0  0  0  0  0  0  0  0  0  0  0
   25.1131  -25.7196  -16.7424 C   0  0  0  0  0  0  0  0  0  0  0  0
   25.0714  -26.9892  -16.5230 N   0  0  0  0  0  0  0  0  0  0  0  0
   24.0929  -25.0979  -17.5337 N   0  0  0  0  0  0  0  0  0  0  0  0
   24.0311  -23.6523  -17.4883 C   0  0  0  0  0  0  0  0  0  0  0  0
   23.6958  -23.1487  -16.1007 C   0  0  0  0  0  0  0  0  0  0  0  0
   23.4345  -21.6442  -16.2531 C   0  0  0  0  0  0  0  0  0  0  0  0
   23.0467  -21.0295  -14.9255 C   0  0  2  0  0  0  0  0  0  0  0  0
   22.0200  -20.0457  -15.1624 N   0  0  0  0  0  0  0  0  0  0  0  0
   24.2216  -20.4245  -14.2505 C   0  0  0  0  0  0  0  0  0  0  0  0
   24.5111  -19.2072  -14.4779 O   0  0  0  0  0  0  0  0  0  0  0  0
   24.3225  -27.5764  -16.9196 N   0  0  0  0  0  0  0  0  0  0  0  0
   23.8242  -20.7273  -11.4257 C   0  0  0  0  0  0  0  0  0  0  0  0
   24.6219  -20.7050  -10.2422 O   0  0  0  0  0  0  0  0  0  0  0  0
   24.1001  -20.2634   -9.1746 C   0  0  0  0  0  0  0  0  0  0  0  0
   26.0064  -21.1962  -10.2976 C   0  0  0  0  0  0  0  0  0  0  0  0
   26.5167  -21.5487  -11.6327 C   0  0  2  0  0  0  0  0  0  0  0  0
   26.1935  -20.6323  -12.7610 N   0  0  0  0  0  0  0  0  0  0  0  0
   24.9693  -21.2332  -13.3808 C   0  0  0  0  0  0  0  0  0  0  0  0
   27.2100  -20.5948  -13.8059 O   0  0  0  0  0  0  0  0  0  0  0  0
   28.1900  -19.6156  -13.8383 O   0  0  0  0  0  0  0  0  0  0  0  0
  2  1  1  1
  2  3  1  0
  4  5  1  1
  4  2  1  0
  6  4  1  0
  6  7  2  0
  9 11  1  0
  9  8  1  0
 10  9  2  0
 12 11  1  0
 12 13  1  0
 13 14  1  0
 15 14  1  6
 15 17  1  0
 15 16  1  0
 16  6  1  0
 17 25  1  0
 18 17  2  0
 19 20  1  0
 20 22  1  0
 20 21  2  0
 22 23  1  0
 24 23  1  1
 24 26  1  0
 25 24  1  0
 26 28  2  0
 26 27  1  0
M  END
$$$$
