VRQ.pdb
     RDKit          3D

 28 27  0  0  1  0  0  0  0  0999 V2000
   17.9466  -26.6631   -3.6800 C   0  0  0  0  0  0  0  0  0  0  0  0
   17.1146  -26.7207   -4.9596 C   0  0  2  0  0  0  0  0  0  0  0  0
   17.8257  -27.5766   -5.9767 C   0  0  0  0  0  0  0  0  0  0  0  0
   17.0020  -25.3036   -5.5203 C   0  0  2  0  0  0  0  0  0  0  0  0
   18.3113  -24.8049   -5.8871 N   0  0  0  0  0  0  0  0  0  0  0  0
   16.3688  -24.4378   -4.5177 C   0  0  0  0  0  0  0  0  0  0  0  0
   17.0536  -23.4665   -4.0612 O   0  0  0  0  0  0  0  0  0  0  0  0
   12.0889  -19.1279   -3.7198 N   0  0  0  0  0  0  0  0  0  0  0  0
   10.9762  -19.5003   -2.9147 C   0  0  0  0  0  0  0  0  0  0  0  0
   10.4772  -18.6270   -2.1086 N   0  0  0  0  0  0  0  0  0  0  0  0
   10.4084  -20.8142   -2.9847 N   0  0  0  0  0  0  0  0  0  0  0  0
   11.1736  -21.8114   -3.7027 C   0  0  0  0  0  0  0  0  0  0  0  0
   12.4606  -22.1554   -2.9839 C   0  0  0  0  0  0  0  0  0  0  0  0
   13.1266  -23.2557   -3.8211 C   0  0  0  0  0  0  0  0  0  0  0  0
   14.4351  -23.6884   -3.1956 C   0  0  2  0  0  0  0  0  0  0  0  0
   15.0571  -24.6555   -4.0652 N   0  0  0  0  0  0  0  0  0  0  0  0
   14.2219  -24.2487   -1.8382 C   0  0  0  0  0  0  0  0  0  0  0  0
   13.9048  -25.4740   -1.7138 O   0  0  0  0  0  0  0  0  0  0  0  0
    9.6963  -18.8648   -1.4787 N   0  0  0  0  0  0  0  0  0  0  0  0
   16.0606  -20.8444    2.9617 C   0  0  0  0  0  0  0  0  0  0  0  0
   16.7209  -22.1099    2.9486 O   0  0  0  0  0  0  0  0  0  0  0  0
   17.8108  -22.2250    3.5858 C   0  0  0  0  0  0  0  0  0  0  0  0
   16.1184  -23.2290    2.2100 C   0  0  0  0  0  0  0  0  0  0  0  0
   14.8457  -22.9449    1.5267 C   0  0  2  0  0  0  0  0  0  0  0  0
   14.2937  -23.9957    0.6277 N   0  0  0  0  0  0  0  0  0  0  0  0
   14.3818  -23.3904   -0.7396 C   0  0  0  0  0  0  0  0  0  0  0  0
   12.8849  -24.2942    0.8576 O   0  0  0  0  0  0  0  0  0  0  0  0
   12.4812  -25.4008    1.5875 O   0  0  0  0  0  0  0  0  0  0  0  0
  2  1  1  1
  2  3  1  0
  4  5  1  1
  4  2  1  0
  6  4  1  0
  6  7  2  0
  9 11  1  0
  9  8  1  0
 10  9  2  0
 12 11  1  0
 12 13  1  0
 13 14  1  0
 15 14  1  6
 15 17  1  0
 15 16  1  0
 16  6  1  0
 17 25  1  0
 18 17  2  0
 19 20  1  0
 20 22  1  0
 20 21  2  0
 22 23  1  0
 24 23  1  6
 24 26  1  0
 25 24  1  0
 26 28  2  0
 26 27  1  0
M  END
$$$$
