VRQ.pdb
     RDKit          3D

 28 27  0  0  1  0  0  0  0  0999 V2000
   26.9879  -22.4126  -17.5353 C   0  0  0  0  0  0  0  0  0  0  0  0
   26.6489  -21.0210  -18.0660 C   0  0  2  0  0  0  0  0  0  0  0  0
   27.9134  -20.3450  -18.5318 C   0  0  0  0  0  0  0  0  0  0  0  0
   26.0624  -20.2015  -16.9172 C   0  0  2  0  0  0  0  0  0  0  0  0
   26.4375  -18.8092  -17.0531 N   0  0  0  0  0  0  0  0  0  0  0  0
   26.5347  -20.7537  -15.6414 C   0  0  0  0  0  0  0  0  0  0  0  0
   26.1341  -21.9183  -15.3192 O   0  0  0  0  0  0  0  0  0  0  0  0
   31.9348  -23.9675  -11.1110 N   0  0  0  0  0  0  0  0  0  0  0  0
   32.4097  -22.6262  -11.1300 C   0  0  0  0  0  0  0  0  0  0  0  0
   33.1124  -22.2055  -10.1347 N   0  0  0  0  0  0  0  0  0  0  0  0
   32.1231  -21.7464  -12.2243 N   0  0  0  0  0  0  0  0  0  0  0  0
   31.1186  -20.7305  -11.9905 C   0  0  0  0  0  0  0  0  0  0  0  0
   29.7257  -21.2386  -12.2953 C   0  0  0  0  0  0  0  0  0  0  0  0
   29.0109  -20.0910  -13.0213 C   0  0  0  0  0  0  0  0  0  0  0  0
   27.6204  -20.5092  -13.4482 C   0  0  2  0  0  0  0  0  0  0  0  0
   27.3971  -20.0401  -14.7930 N   0  0  0  0  0  0  0  0  0  0  0  0
   26.5916  -19.9795  -12.5193 C   0  0  0  0  0  0  0  0  0  0  0  0
   26.4258  -18.7221  -12.4262 O   0  0  0  0  0  0  0  0  0  0  0  0
   33.4477  -21.2315  -10.0901 N   0  0  0  0  0  0  0  0  0  0  0  0
   21.1037  -22.0326  -12.4715 C   0  0  0  0  0  0  0  0  0  0  0  0
   21.3300  -20.6357  -12.6592 O   0  0  0  0  0  0  0  0  0  0  0  0
   20.4573  -19.9654  -13.2887 C   0  0  0  0  0  0  0  0  0  0  0  0
   22.5517  -20.0247  -12.1161 C   0  0  0  0  0  0  0  0  0  0  0  0
   23.5035  -20.9425  -11.4688 C   0  0  2  0  0  0  0  0  0  0  0  0
   24.7505  -20.3589  -10.9017 N   0  0  0  0  0  0  0  0  0  0  0  0
   25.8388  -20.9017  -11.7762 C   0  0  0  0  0  0  0  0  0  0  0  0
   25.0505  -20.8022   -9.5451 O   0  0  0  0  0  0  0  0  0  0  0  0
   24.4877  -20.1926   -8.4352 O   0  0  0  0  0  0  0  0  0  0  0  0
  2  1  1  1
  2  3  1  0
  4  5  1  6
  4  2  1  0
  6  4  1  0
  6  7  2  0
  9 11  1  0
  9  8  1  0
 10  9  2  0
 12 11  1  0
 12 13  1  0
 13 14  1  0
 15 14  1  1
 15 17  1  0
 15 16  1  0
 16  6  1  0
 17 25  1  0
 18 17  2  0
 19 20  1  0
 20 22  1  0
 20 21  2  0
 22 23  1  0
 24 23  1  6
 24 26  1  0
 25 24  1  0
 26 28  2  0
 26 27  1  0
M  END
$$$$
