VRQ.pdb
     RDKit          3D

 28 27  0  0  1  0  0  0  0  0999 V2000
   13.3763  -10.2702   -9.3615 C   0  0  0  0  0  0  0  0  0  0  0  0
   13.4806  -10.6617  -10.8342 C   0  0  2  0  0  0  0  0  0  0  0  0
   12.6181  -11.8717  -11.0891 C   0  0  0  0  0  0  0  0  0  0  0  0
   14.9325  -11.0378  -11.1269 C   0  0  2  0  0  0  0  0  0  0  0  0
   15.3206  -12.1881  -10.3371 N   0  0  0  0  0  0  0  0  0  0  0  0
   15.7958   -9.8851  -10.8408 C   0  0  0  0  0  0  0  0  0  0  0  0
   16.2750   -9.7852   -9.6656 O   0  0  0  0  0  0  0  0  0  0  0  0
   22.1691   -7.9037  -12.7695 N   0  0  0  0  0  0  0  0  0  0  0  0
   21.8824   -8.8919  -13.7524 C   0  0  0  0  0  0  0  0  0  0  0  0
   22.7471   -9.8247  -13.9611 N   0  0  0  0  0  0  0  0  0  0  0  0
   20.6629   -8.8674  -14.5047 N   0  0  0  0  0  0  0  0  0  0  0  0
   19.6581   -7.9177  -14.0757 C   0  0  0  0  0  0  0  0  0  0  0  0
   18.8218   -8.4620  -12.9375 C   0  0  0  0  0  0  0  0  0  0  0  0
   17.7461   -7.4022  -12.6642 C   0  0  0  0  0  0  0  0  0  0  0  0
   16.9111   -7.7826  -11.4605 C   0  0  2  0  0  0  0  0  0  0  0  0
   16.0945   -8.9169  -11.8135 N   0  0  0  0  0  0  0  0  0  0  0  0
   16.0763   -6.6437  -11.0046 C   0  0  0  0  0  0  0  0  0  0  0  0
   14.9511   -6.4360  -11.5595 O   0  0  0  0  0  0  0  0  0  0  0  0
   22.6181  -10.5148  -14.7163 N   0  0  0  0  0  0  0  0  0  0  0  0
   12.3613   -6.4760   -7.5408 C   0  0  0  0  0  0  0  0  0  0  0  0
   12.5403   -5.0668   -7.4003 O   0  0  0  0  0  0  0  0  0  0  0  0
   11.6939   -4.4195   -6.7136 C   0  0  0  0  0  0  0  0  0  0  0  0
   13.6925   -4.4195   -8.0442 C   0  0  0  0  0  0  0  0  0  0  0  0
   14.6199   -5.3102   -8.7611 C   0  0  1  0  0  0  0  0  0  0  0  0
   15.7285   -4.6803   -9.5301 N   0  0  0  0  0  0  0  0  0  0  0  0
   16.5727   -5.8373   -9.9689 C   0  0  0  0  0  0  0  0  0  0  0  0
   16.5916   -3.8185   -8.7306 O   0  0  0  0  0  0  0  0  0  0  0  0
   16.2167   -2.5317   -8.3788 O   0  0  0  0  0  0  0  0  0  0  0  0
  2  1  1  1
  2  3  1  0
  4  5  1  1
  4  2  1  0
  6  4  1  0
  6  7  2  0
  9 11  1  0
  9  8  1  0
 10  9  2  0
 12 11  1  0
 12 13  1  0
 13 14  1  0
 15 14  1  6
 15 17  1  0
 15 16  1  0
 16  6  1  0
 17 25  1  0
 18 17  2  0
 19 20  1  0
 20 22  1  0
 20 21  2  0
 22 23  1  0
 24 23  1  6
 24 26  1  0
 25 24  1  0
 26 28  2  0
 26 27  1  0
M  END
$$$$
