VRQ.pdb
     RDKit          3D

 28 27  0  0  1  0  0  0  0  0999 V2000
   25.6637  -20.3386  -15.9544 C   0  0  0  0  0  0  0  0  0  0  0  0
   26.3173  -20.4729  -14.5805 C   0  0  2  0  0  0  0  0  0  0  0  0
   27.6902  -21.0750  -14.7399 C   0  0  0  0  0  0  0  0  0  0  0  0
   25.4701  -21.4271  -13.7397 C   0  0  2  0  0  0  0  0  0  0  0  0
   25.3672  -22.7147  -14.3948 N   0  0  0  0  0  0  0  0  0  0  0  0
   24.1435  -20.8345  -13.5284 C   0  0  0  0  0  0  0  0  0  0  0  0
   24.0889  -19.7067  -12.9405 O   0  0  0  0  0  0  0  0  0  0  0  0
   17.2322  -19.9306  -15.8690 N   0  0  0  0  0  0  0  0  0  0  0  0
   17.1897  -18.5246  -15.6541 C   0  0  0  0  0  0  0  0  0  0  0  0
   16.0415  -17.9548  -15.5187 N   0  0  0  0  0  0  0  0  0  0  0  0
   18.3879  -17.7414  -15.5865 N   0  0  0  0  0  0  0  0  0  0  0  0
   19.6374  -18.4587  -15.7272 C   0  0  0  0  0  0  0  0  0  0  0  0
   19.9456  -19.2939  -14.5030 C   0  0  0  0  0  0  0  0  0  0  0  0
   21.2844  -19.9852  -14.7938 C   0  0  0  0  0  0  0  0  0  0  0  0
   21.6872  -20.8812  -13.6424 C   0  0  2  0  0  0  0  0  0  0  0  0
   22.9655  -21.4718  -13.9513 N   0  0  0  0  0  0  0  0  0  0  0  0
   20.6628  -21.9248  -13.3904 C   0  0  0  0  0  0  0  0  0  0  0  0
   20.5151  -22.8674  -14.2312 O   0  0  0  0  0  0  0  0  0  0  0  0
   15.9653  -16.9542  -15.2817 N   0  0  0  0  0  0  0  0  0  0  0  0
   19.5121  -23.7687   -7.7807 C   0  0  0  0  0  0  0  0  0  0  0  0
   19.7188  -24.8266   -8.7164 O   0  0  0  0  0  0  0  0  0  0  0  0
   20.1029  -25.9515   -8.2757 C   0  0  0  0  0  0  0  0  0  0  0  0
   19.4753  -24.5820  -10.1454 C   0  0  0  0  0  0  0  0  0  0  0  0
   19.0680  -23.2149  -10.5093 C   0  0  2  0  0  0  0  0  0  0  0  0
   18.8944  -22.9067  -11.9557 N   0  0  0  0  0  0  0  0  0  0  0  0
   19.8937  -21.8229  -12.2210 C   0  0  0  0  0  0  0  0  0  0  0  0
   17.5871  -22.3554  -12.2930 O   0  0  0  0  0  0  0  0  0  0  0  0
   17.1978  -21.0911  -11.8804 O   0  0  0  0  0  0  0  0  0  0  0  0
  2  1  1  6
  2  3  1  0
  4  5  1  6
  4  2  1  0
  6  4  1  0
  6  7  2  0
  9 11  1  0
  9  8  1  0
 10  9  2  0
 12 11  1  0
 12 13  1  0
 13 14  1  0
 15 14  1  6
 15 17  1  0
 15 16  1  0
 16  6  1  0
 17 25  1  0
 18 17  2  0
 19 20  1  0
 20 22  1  0
 20 21  2  0
 22 23  1  0
 24 23  1  6
 24 26  1  0
 25 24  1  0
 26 28  2  0
 26 27  1  0
M  END
$$$$
