VRQ.pdb
     RDKit          3D

 28 27  0  0  1  0  0  0  0  0999 V2000
   26.5588  -21.4513  -11.2032 C   0  0  0  0  0  0  0  0  0  0  0  0
   25.9944  -20.3052  -10.3659 C   0  0  2  0  0  0  0  0  0  0  0  0
   26.2606  -20.5774   -8.9072 C   0  0  0  0  0  0  0  0  0  0  0  0
   24.4816  -20.2597  -10.5768 C   0  0  2  0  0  0  0  0  0  0  0  0
   23.8579  -21.4233   -9.9812 N   0  0  0  0  0  0  0  0  0  0  0  0
   24.1977  -20.1865  -12.0155 C   0  0  0  0  0  0  0  0  0  0  0  0
   24.5950  -19.1522  -12.6424 O   0  0  0  0  0  0  0  0  0  0  0  0
   26.8686  -23.6703  -17.1262 N   0  0  0  0  0  0  0  0  0  0  0  0
   27.7187  -22.9055  -16.2792 C   0  0  0  0  0  0  0  0  0  0  0  0
   28.8217  -22.4463  -16.7631 N   0  0  0  0  0  0  0  0  0  0  0  0
   27.3728  -22.6407  -14.9140 N   0  0  0  0  0  0  0  0  0  0  0  0
   25.9875  -22.8453  -14.5471 C   0  0  0  0  0  0  0  0  0  0  0  0
   25.0510  -22.0382  -15.4205 C   0  0  0  0  0  0  0  0  0  0  0  0
   23.6459  -22.2598  -14.8445 C   0  0  0  0  0  0  0  0  0  0  0  0
   23.1777  -21.0370  -14.0854 C   0  0  2  0  0  0  0  0  0  0  0  0
   23.5143  -21.2087  -12.6942 N   0  0  0  0  0  0  0  0  0  0  0  0
   21.7200  -20.8220  -14.2605 C   0  0  0  0  0  0  0  0  0  0  0  0
   20.9020  -21.5333  -13.5954 O   0  0  0  0  0  0  0  0  0  0  0  0
   29.4654  -21.8835  -16.1869 N   0  0  0  0  0  0  0  0  0  0  0  0
   19.7635  -15.2425  -15.8855 C   0  0  0  0  0  0  0  0  0  0  0  0
   18.5137  -15.9217  -15.7662 O   0  0  0  0  0  0  0  0  0  0  0  0
   17.4487  -15.2396  -15.8540 C   0  0  0  0  0  0  0  0  0  0  0  0
   18.5020  -17.3764  -15.5546 C   0  0  0  0  0  0  0  0  0  0  0  0
   19.8170  -18.0202  -15.4011 C   0  0  1  0  0  0  0  0  0  0  0  0
   19.8455  -19.4948  -15.1958 N   0  0  0  0  0  0  0  0  0  0  0  0
   21.3048  -19.8312  -15.1634 C   0  0  0  0  0  0  0  0  0  0  0  0
   19.2694  -20.2591  -16.2961 O   0  0  0  0  0  0  0  0  0  0  0  0
   17.9752  -20.7518  -16.2457 O   0  0  0  0  0  0  0  0  0  0  0  0
  2  1  1  6
  2  3  1  0
  4  5  1  6
  4  2  1  0
  6  4  1  0
  6  7  2  0
  9 11  1  0
  9  8  1  0
 10  9  2  0
 12 11  1  0
 12 13  1  0
 13 14  1  0
 15 14  1  6
 15 17  1  0
 15 16  1  0
 16  6  1  0
 17 25  1  0
 18 17  2  0
 19 20  1  0
 20 22  1  0
 20 21  2  0
 22 23  1  0
 24 23  1  1
 24 26  1  0
 25 24  1  0
 26 28  2  0
 26 27  1  0
M  END
$$$$
