VRQ.pdb
     RDKit          3D

 28 27  0  0  1  0  0  0  0  0999 V2000
   27.1614  -22.6402  -16.2215 C   0  0  0  0  0  0  0  0  0  0  0  0
   27.2319  -21.6878  -17.4135 C   0  0  2  0  0  0  0  0  0  0  0  0
   28.5993  -21.0549  -17.4638 C   0  0  0  0  0  0  0  0  0  0  0  0
   26.1991  -20.5814  -17.2026 C   0  0  2  0  0  0  0  0  0  0  0  0
   26.8551  -19.3539  -16.8019 N   0  0  0  0  0  0  0  0  0  0  0  0
   25.2277  -21.0158  -16.1909 C   0  0  0  0  0  0  0  0  0  0  0  0
   24.5268  -22.0462  -16.4512 O   0  0  0  0  0  0  0  0  0  0  0  0
   24.8970  -20.8071   -7.6150 N   0  0  0  0  0  0  0  0  0  0  0  0
   23.5255  -21.0573   -7.9003 C   0  0  0  0  0  0  0  0  0  0  0  0
   22.7129  -21.2384   -6.9162 N   0  0  0  0  0  0  0  0  0  0  0  0
   23.0390  -21.1105   -9.2472 N   0  0  0  0  0  0  0  0  0  0  0  0
   24.0092  -20.8713  -10.2945 C   0  0  0  0  0  0  0  0  0  0  0  0
   23.4025  -21.0426  -11.6707 C   0  0  0  0  0  0  0  0  0  0  0  0
   24.5086  -20.6662  -12.6657 C   0  0  0  0  0  0  0  0  0  0  0  0
   23.9905  -20.7123  -14.0871 C   0  0  2  0  0  0  0  0  0  0  0  0
   25.0619  -20.3338  -14.9742 N   0  0  0  0  0  0  0  0  0  0  0  0
   22.8146  -19.8238  -14.2590 C   0  0  0  0  0  0  0  0  0  0  0  0
   22.8916  -18.6107  -13.8852 O   0  0  0  0  0  0  0  0  0  0  0  0
   21.7192  -21.4616   -7.0769 N   0  0  0  0  0  0  0  0  0  0  0  0
   19.9049  -19.1641  -19.2666 C   0  0  0  0  0  0  0  0  0  0  0  0
   19.6763  -20.4317  -18.6512 O   0  0  0  0  0  0  0  0  0  0  0  0
   19.3316  -21.4036  -19.3885 C   0  0  0  0  0  0  0  0  0  0  0  0
   19.8531  -20.5692  -17.1984 C   0  0  0  0  0  0  0  0  0  0  0  0
   20.3073  -19.3651  -16.4833 C   0  0  1  0  0  0  0  0  0  0  0  0
   20.4783  -19.4604  -15.0072 N   0  0  0  0  0  0  0  0  0  0  0  0
   21.6563  -20.3693  -14.8336 C   0  0  0  0  0  0  0  0  0  0  0  0
   19.3606  -20.0963  -14.3194 O   0  0  0  0  0  0  0  0  0  0  0  0
   19.3803  -21.4391  -13.9779 O   0  0  0  0  0  0  0  0  0  0  0  0
  2  1  1  1
  2  3  1  0
  4  5  1  1
  4  2  1  0
  6  4  1  0
  6  7  2  0
  9 11  1  0
  9  8  1  0
 10  9  2  0
 12 11  1  0
 12 13  1  0
 13 14  1  0
 15 14  1  1
 15 17  1  0
 15 16  1  0
 16  6  1  0
 17 25  1  0
 18 17  2  0
 19 20  1  0
 20 22  1  0
 20 21  2  0
 22 23  1  0
 24 23  1  6
 24 26  1  0
 25 24  1  0
 26 28  2  0
 26 27  1  0
M  END
$$$$
