VRQ.pdb
     RDKit          3D

 28 27  0  0  1  0  0  0  0  0999 V2000
   23.1858  -19.3972   -9.5365 C   0  0  0  0  0  0  0  0  0  0  0  0
   23.9104  -20.7264   -9.3337 C   0  0  2  0  0  0  0  0  0  0  0  0
   23.9331  -21.0608   -7.8638 C   0  0  0  0  0  0  0  0  0  0  0  0
   25.3530  -20.5616   -9.8101 C   0  0  2  0  0  0  0  0  0  0  0  0
   26.0380  -19.5752   -9.0006 N   0  0  0  0  0  0  0  0  0  0  0  0
   25.3512  -20.1738  -11.2263 C   0  0  0  0  0  0  0  0  0  0  0  0
   25.4052  -18.9310  -11.4968 O   0  0  0  0  0  0  0  0  0  0  0  0
   28.5672  -18.1354  -17.3817 N   0  0  0  0  0  0  0  0  0  0  0  0
   28.1267  -19.4673  -17.6204 C   0  0  0  0  0  0  0  0  0  0  0  0
   27.9636  -19.8550  -18.8389 N   0  0  0  0  0  0  0  0  0  0  0  0
   27.8647  -20.3735  -16.5416 N   0  0  0  0  0  0  0  0  0  0  0  0
   27.9325  -19.8231  -15.2045 C   0  0  0  0  0  0  0  0  0  0  0  0
   27.7554  -20.8926  -14.1481 C   0  0  0  0  0  0  0  0  0  0  0  0
   26.3566  -21.4806  -14.3779 C   0  0  0  0  0  0  0  0  0  0  0  0
   25.3093  -20.6819  -13.6322 C   0  0  2  0  0  0  0  0  0  0  0  0
   25.2927  -21.1231  -12.2599 N   0  0  0  0  0  0  0  0  0  0  0  0
   23.9726  -20.8326  -14.2586 C   0  0  0  0  0  0  0  0  0  0  0  0
   23.3237  -21.9128  -14.0876 O   0  0  0  0  0  0  0  0  0  0  0  0
   27.6292  -20.8054  -19.0578 N   0  0  0  0  0  0  0  0  0  0  0  0
   18.8602  -17.6769  -14.9300 C   0  0  0  0  0  0  0  0  0  0  0  0
   19.7752  -17.6810  -13.8344 O   0  0  0  0  0  0  0  0  0  0  0  0
   19.3605  -17.2837  -12.7042 C   0  0  0  0  0  0  0  0  0  0  0  0
   21.1527  -18.1476  -14.0483 C   0  0  0  0  0  0  0  0  0  0  0  0
   21.4914  -18.5626  -15.4196 C   0  0  2  0  0  0  0  0  0  0  0  0
   22.1065  -19.9061  -15.6037 N   0  0  0  0  0  0  0  0  0  0  0  0
   23.4790  -19.7628  -15.0211 C   0  0  0  0  0  0  0  0  0  0  0  0
   22.2877  -20.2904  -16.9988 O   0  0  0  0  0  0  0  0  0  0  0  0
   21.3070  -20.9699  -17.7036 O   0  0  0  0  0  0  0  0  0  0  0  0
  2  1  1  1
  2  3  1  0
  4  5  1  1
  4  2  1  0
  6  4  1  0
  6  7  2  0
  9 11  1  0
  9  8  1  0
 10  9  2  0
 12 11  1  0
 12 13  1  0
 13 14  1  0
 15 14  1  6
 15 17  1  0
 15 16  1  0
 16  6  1  0
 17 25  1  0
 18 17  2  0
 19 20  1  0
 20 22  1  0
 20 21  2  0
 22 23  1  0
 24 23  1  1
 24 26  1  0
 25 24  1  0
 26 28  2  0
 26 27  1  0
M  END
$$$$
