VRQ.pdb
     RDKit          3D

 28 27  0  0  1  0  0  0  0  0999 V2000
   16.4682  -24.2467   -7.8215 C   0  0  0  0  0  0  0  0  0  0  0  0
   16.6747  -25.7269   -7.5060 C   0  0  2  0  0  0  0  0  0  0  0  0
   16.1033  -26.0291   -6.1440 C   0  0  0  0  0  0  0  0  0  0  0  0
   18.1774  -26.0018   -7.4671 C   0  0  2  0  0  0  0  0  0  0  0  0
   18.7961  -25.2512   -6.3940 N   0  0  0  0  0  0  0  0  0  0  0  0
   18.7654  -25.6493   -8.7655 C   0  0  0  0  0  0  0  0  0  0  0  0
   19.4319  -24.5670   -8.8361 O   0  0  0  0  0  0  0  0  0  0  0  0
   21.5751  -30.7491  -12.9207 N   0  0  0  0  0  0  0  0  0  0  0  0
   21.5327  -30.1904  -14.2287 C   0  0  0  0  0  0  0  0  0  0  0  0
   21.6246  -30.9820  -15.2418 N   0  0  0  0  0  0  0  0  0  0  0  0
   21.3913  -28.7794  -14.4355 N   0  0  0  0  0  0  0  0  0  0  0  0
   21.2797  -27.9602  -13.2472 C   0  0  0  0  0  0  0  0  0  0  0  0
   20.0835  -27.0351  -13.3141 C   0  0  0  0  0  0  0  0  0  0  0  0
   19.2690  -27.3111  -12.0431 C   0  0  0  0  0  0  0  0  0  0  0  0
   19.2791  -26.1064  -11.1268 C   0  0  2  0  0  0  0  0  0  0  0  0
   18.6102  -26.4622   -9.9004 N   0  0  0  0  0  0  0  0  0  0  0  0
   18.6304  -24.9372  -11.7701 C   0  0  0  0  0  0  0  0  0  0  0  0
   17.3680  -24.8051  -11.6921 O   0  0  0  0  0  0  0  0  0  0  0  0
   21.5938  -30.6213  -16.2073 N   0  0  0  0  0  0  0  0  0  0  0  0
   21.4773  -19.6888  -12.9644 C   0  0  0  0  0  0  0  0  0  0  0  0
   20.4295  -19.5645  -13.9258 O   0  0  0  0  0  0  0  0  0  0  0  0
   20.2535  -18.4380  -14.4798 C   0  0  0  0  0  0  0  0  0  0  0  0
   19.6016  -20.7368  -14.2442 C   0  0  0  0  0  0  0  0  0  0  0  0
   19.9240  -21.9755  -13.5169 C   0  0  1  0  0  0  0  0  0  0  0  0
   18.7890  -22.8165  -13.0460 N   0  0  0  0  0  0  0  0  0  0  0  0
   19.4498  -24.0185  -12.4440 C   0  0  0  0  0  0  0  0  0  0  0  0
   17.9305  -23.3096  -14.1168 O   0  0  0  0  0  0  0  0  0  0  0  0
   18.3049  -24.3718  -14.9241 O   0  0  0  0  0  0  0  0  0  0  0  0
  2  1  1  1
  2  3  1  0
  4  5  1  1
  4  2  1  0
  6  4  1  0
  6  7  2  0
  9 11  1  0
  9  8  1  0
 10  9  2  0
 12 11  1  0
 12 13  1  0
 13 14  1  0
 15 14  1  6
 15 17  1  0
 15 16  1  0
 16  6  1  0
 17 25  1  0
 18 17  2  0
 19 20  1  0
 20 22  1  0
 20 21  2  0
 22 23  1  0
 24 23  1  1
 24 26  1  0
 25 24  1  0
 26 28  2  0
 26 27  1  0
M  END
$$$$
