VRQ.pdb
     RDKit          3D

 28 27  0  0  1  0  0  0  0  0999 V2000
   24.2987  -13.7129  -17.6386 C   0  0  0  0  0  0  0  0  0  0  0  0
   24.6781  -14.5498  -18.8587 C   0  0  2  0  0  0  0  0  0  0  0  0
   23.5779  -15.5404  -19.1434 C   0  0  0  0  0  0  0  0  0  0  0  0
   25.9503  -15.3286  -18.5268 C   0  0  2  0  0  0  0  0  0  0  0  0
   26.5746  -15.8090  -19.7422 N   0  0  0  0  0  0  0  0  0  0  0  0
   25.6137  -16.4415  -17.6302 C   0  0  0  0  0  0  0  0  0  0  0  0
   25.0145  -17.4446  -18.1356 O   0  0  0  0  0  0  0  0  0  0  0  0
   25.7641  -21.5799  -11.5604 N   0  0  0  0  0  0  0  0  0  0  0  0
   26.1421  -21.7664  -12.9195 C   0  0  0  0  0  0  0  0  0  0  0  0
   25.7784  -22.8480  -13.5190 N   0  0  0  0  0  0  0  0  0  0  0  0
   26.9109  -20.7834  -13.6241 N   0  0  0  0  0  0  0  0  0  0  0  0
   27.1063  -19.5147  -12.9549 C   0  0  0  0  0  0  0  0  0  0  0  0
   25.9410  -18.5757  -13.1817 C   0  0  0  0  0  0  0  0  0  0  0  0
   26.4307  -17.5392  -14.2020 C   0  0  0  0  0  0  0  0  0  0  0  0
   25.5368  -17.5239  -15.4232 C   0  0  2  0  0  0  0  0  0  0  0  0
   25.9320  -16.4204  -16.2624 N   0  0  0  0  0  0  0  0  0  0  0  0
   24.1069  -17.4195  -15.0406 C   0  0  0  0  0  0  0  0  0  0  0  0
   23.6757  -16.3349  -14.5357 O   0  0  0  0  0  0  0  0  0  0  0  0
   25.9979  -23.0083  -14.5136 N   0  0  0  0  0  0  0  0  0  0  0  0
   19.6345  -17.6077  -18.3850 C   0  0  0  0  0  0  0  0  0  0  0  0
   18.9118  -17.6980  -17.1573 O   0  0  0  0  0  0  0  0  0  0  0  0
   17.6613  -17.4912  -17.1801 C   0  0  0  0  0  0  0  0  0  0  0  0
   19.6326  -18.0314  -15.9202 C   0  0  0  0  0  0  0  0  0  0  0  0
   21.0974  -18.1291  -16.0292 C   0  0  1  0  0  0  0  0  0  0  0  0
   21.8634  -18.4468  -14.7924 N   0  0  0  0  0  0  0  0  0  0  0  0
   23.2850  -18.5365  -15.2558 C   0  0  0  0  0  0  0  0  0  0  0  0
   21.5368  -19.7420  -14.2074 O   0  0  0  0  0  0  0  0  0  0  0  0
   20.5233  -19.8883  -13.2737 O   0  0  0  0  0  0  0  0  0  0  0  0
  2  1  1  1
  2  3  1  0
  4  5  1  6
  4  2  1  0
  6  4  1  0
  6  7  2  0
  9 11  1  0
  9  8  1  0
 10  9  2  0
 12 11  1  0
 12 13  1  0
 13 14  1  0
 15 14  1  1
 15 17  1  0
 15 16  1  0
 16  6  1  0
 17 25  1  0
 18 17  2  0
 19 20  1  0
 20 22  1  0
 20 21  2  0
 22 23  1  0
 24 23  1  1
 24 26  1  0
 25 24  1  0
 26 28  2  0
 26 27  1  0
M  END
$$$$
