VRQ.pdb
     RDKit          3D

 28 27  0  0  1  0  0  0  0  0999 V2000
   25.6379  -18.7441  -18.2324 C   0  0  0  0  0  0  0  0  0  0  0  0
   24.6423  -18.2172  -19.2639 C   0  0  2  0  0  0  0  0  0  0  0  0
   25.2756  -17.0857  -20.0331 C   0  0  0  0  0  0  0  0  0  0  0  0
   23.4269  -17.6684  -18.5177 C   0  0  2  0  0  0  0  0  0  0  0  0
   23.8102  -16.5344  -17.7023 N   0  0  0  0  0  0  0  0  0  0  0  0
   22.8432  -18.7364  -17.6965 C   0  0  0  0  0  0  0  0  0  0  0  0
   22.6098  -19.8531  -18.2613 O   0  0  0  0  0  0  0  0  0  0  0  0
   26.2972  -21.6424  -11.9000 N   0  0  0  0  0  0  0  0  0  0  0  0
   24.8893  -21.6665  -12.1048 C   0  0  0  0  0  0  0  0  0  0  0  0
   24.3196  -22.7971  -12.3471 N   0  0  0  0  0  0  0  0  0  0  0  0
   24.1040  -20.4691  -12.0468 N   0  0  0  0  0  0  0  0  0  0  0  0
   22.6680  -20.6406  -11.9843 C   0  0  0  0  0  0  0  0  0  0  0  0
   22.0627  -20.8077  -13.3616 C   0  0  0  0  0  0  0  0  0  0  0  0
   22.5690  -19.6184  -14.1886 C   0  0  0  0  0  0  0  0  0  0  0  0
   21.9750  -19.6407  -15.5806 C   0  0  2  0  0  0  0  0  0  0  0  0
   22.5456  -18.5535  -16.3360 N   0  0  0  0  0  0  0  0  0  0  0  0
   20.4952  -19.5412  -15.5344 C   0  0  0  0  0  0  0  0  0  0  0  0
   19.9565  -18.4586  -15.1406 O   0  0  0  0  0  0  0  0  0  0  0  0
   23.3197  -22.8506  -12.5932 N   0  0  0  0  0  0  0  0  0  0  0  0
   16.8617  -24.2570  -17.5735 C   0  0  0  0  0  0  0  0  0  0  0  0
   15.8820  -23.3185  -17.1297 O   0  0  0  0  0  0  0  0  0  0  0  0
   14.6585  -23.6350  -17.2296 C   0  0  0  0  0  0  0  0  0  0  0  0
   16.3194  -22.0313  -16.5704 C   0  0  0  0  0  0  0  0  0  0  0  0
   17.7741  -21.8241  -16.4797 C   0  0  1  0  0  0  0  0  0  0  0  0
   18.2551  -20.5428  -15.8929 N   0  0  0  0  0  0  0  0  0  0  0  0
   19.7478  -20.6603  -15.9324 C   0  0  0  0  0  0  0  0  0  0  0  0
   17.8919  -20.3571  -14.4928 O   0  0  0  0  0  0  0  0  0  0  0  0
   16.7911  -19.6042  -14.1163 O   0  0  0  0  0  0  0  0  0  0  0  0
  2  1  1  1
  2  3  1  0
  4  5  1  1
  4  2  1  0
  6  4  1  0
  6  7  2  0
  9 11  1  0
  9  8  1  0
 10  9  2  0
 12 11  1  0
 12 13  1  0
 13 14  1  0
 15 14  1  1
 15 17  1  0
 15 16  1  0
 16  6  1  0
 17 25  1  0
 18 17  2  0
 19 20  1  0
 20 22  1  0
 20 21  2  0
 22 23  1  0
 24 23  1  6
 24 26  1  0
 25 24  1  0
 26 28  2  0
 26 27  1  0
M  END
$$$$
