VRQ.pdb
     RDKit          3D

 28 27  0  0  1  0  0  0  0  0999 V2000
   22.1517  -18.3450  -16.4797 C   0  0  0  0  0  0  0  0  0  0  0  0
   23.3863  -17.6598  -17.0621 C   0  0  2  0  0  0  0  0  0  0  0  0
   22.9572  -16.6884  -18.1322 C   0  0  0  0  0  0  0  0  0  0  0  0
   24.2650  -18.7292  -17.7099 C   0  0  2  0  0  0  0  0  0  0  0  0
   23.5314  -19.4154  -18.7533 N   0  0  0  0  0  0  0  0  0  0  0  0
   24.7194  -19.6694  -16.6777 C   0  0  0  0  0  0  0  0  0  0  0  0
   23.8572  -20.4668  -16.1865 O   0  0  0  0  0  0  0  0  0  0  0  0
   30.7047  -24.8829  -15.6817 N   0  0  0  0  0  0  0  0  0  0  0  0
   30.1576  -24.3927  -16.9004 C   0  0  0  0  0  0  0  0  0  0  0  0
   29.5616  -25.2214  -17.6875 N   0  0  0  0  0  0  0  0  0  0  0  0
   30.2572  -23.0097  -17.2626 N   0  0  0  0  0  0  0  0  0  0  0  0
   29.7861  -22.0506  -16.2860 C   0  0  0  0  0  0  0  0  0  0  0  0
   28.2749  -21.9668  -16.2660 C   0  0  0  0  0  0  0  0  0  0  0  0
   27.9308  -20.8443  -15.2778 C   0  0  0  0  0  0  0  0  0  0  0  0
   26.4336  -20.6355  -15.2024 C   0  0  2  0  0  0  0  0  0  0  0  0
   26.0517  -19.7043  -16.2345 N   0  0  0  0  0  0  0  0  0  0  0  0
   26.0267  -20.1452  -13.8623 C   0  0  0  0  0  0  0  0  0  0  0  0
   26.3892  -18.9852  -13.4879 O   0  0  0  0  0  0  0  0  0  0  0  0
   29.2785  -24.9456  -18.6399 N   0  0  0  0  0  0  0  0  0  0  0  0
   20.5921  -21.1265  -11.6217 C   0  0  0  0  0  0  0  0  0  0  0  0
   21.1778  -20.4367  -10.5177 O   0  0  0  0  0  0  0  0  0  0  0  0
   20.4203  -20.0651   -9.5715 C   0  0  0  0  0  0  0  0  0  0  0  0
   22.6267  -20.1884  -10.5104 C   0  0  0  0  0  0  0  0  0  0  0  0
   23.3500  -20.5327  -11.7456 C   0  0  1  0  0  0  0  0  0  0  0  0
   24.8379  -20.4839  -11.7124 N   0  0  0  0  0  0  0  0  0  0  0  0
   25.2506  -20.9945  -13.0588 C   0  0  0  0  0  0  0  0  0  0  0  0
   25.4399  -21.3769  -10.7292 O   0  0  0  0  0  0  0  0  0  0  0  0
   25.6924  -20.9697   -9.4289 O   0  0  0  0  0  0  0  0  0  0  0  0
  2  1  1  6
  2  3  1  0
  4  5  1  6
  4  2  1  0
  6  4  1  0
  6  7  2  0
  9 11  1  0
  9  8  1  0
 10  9  2  0
 12 11  1  0
 12 13  1  0
 13 14  1  0
 15 14  1  1
 15 17  1  0
 15 16  1  0
 16  6  1  0
 17 25  1  0
 18 17  2  0
 19 20  1  0
 20 22  1  0
 20 21  2  0
 22 23  1  0
 24 23  1  6
 24 26  1  0
 25 24  1  0
 26 28  2  0
 26 27  1  0
M  END
$$$$
