VRQ.pdb
     RDKit          3D

 28 27  0  0  1  0  0  0  0  0999 V2000
   24.2692  -20.1886  -17.1670 C   0  0  0  0  0  0  0  0  0  0  0  0
   25.2859  -20.1833  -16.0272 C   0  0  2  0  0  0  0  0  0  0  0  0
   26.6375  -20.5793  -16.5650 C   0  0  0  0  0  0  0  0  0  0  0  0
   24.8549  -21.2273  -14.9979 C   0  0  2  0  0  0  0  0  0  0  0  0
   24.7761  -22.5355  -15.6144 N   0  0  0  0  0  0  0  0  0  0  0  0
   23.5611  -20.8342  -14.4258 C   0  0  0  0  0  0  0  0  0  0  0  0
   23.5053  -19.7263  -13.8011 O   0  0  0  0  0  0  0  0  0  0  0  0
   17.7472  -17.8076  -13.7790 N   0  0  0  0  0  0  0  0  0  0  0  0
   18.6895  -16.7585  -13.5884 C   0  0  0  0  0  0  0  0  0  0  0  0
   18.2688  -15.5401  -13.6035 N   0  0  0  0  0  0  0  0  0  0  0  0
   20.0812  -17.0309  -13.3824 N   0  0  0  0  0  0  0  0  0  0  0  0
   20.4740  -18.4242  -13.3844 C   0  0  0  0  0  0  0  0  0  0  0  0
   20.8870  -18.8884  -14.7647 C   0  0  0  0  0  0  0  0  0  0  0  0
   20.4203  -20.3463  -14.8732 C   0  0  0  0  0  0  0  0  0  0  0  0
   21.1884  -21.2288  -13.9130 C   0  0  2  0  0  0  0  0  0  0  0  0
   22.4149  -21.6363  -14.5516 N   0  0  0  0  0  0  0  0  0  0  0  0
   20.3822  -22.4054  -13.5034 C   0  0  0  0  0  0  0  0  0  0  0  0
   20.2563  -23.3833  -14.3065 O   0  0  0  0  0  0  0  0  0  0  0  0
   18.9253  -14.7467  -13.5521 N   0  0  0  0  0  0  0  0  0  0  0  0
   19.5087  -23.6222   -7.5057 C   0  0  0  0  0  0  0  0  0  0  0  0
   18.7541  -24.6801   -8.0966 O   0  0  0  0  0  0  0  0  0  0  0  0
   18.2363  -25.5483   -7.3317 C   0  0  0  0  0  0  0  0  0  0  0  0
   18.5978  -24.7241   -9.5577 C   0  0  0  0  0  0  0  0  0  0  0  0
   19.2403  -23.6352  -10.3119 C   0  0  1  0  0  0  0  0  0  0  0  0
   19.0622  -23.6189  -11.7902 N   0  0  0  0  0  0  0  0  0  0  0  0
   19.7879  -22.3853  -12.2322 C   0  0  0  0  0  0  0  0  0  0  0  0
   17.6777  -23.4605  -12.2201 O   0  0  0  0  0  0  0  0  0  0  0  0
   17.0208  -22.2431  -12.1376 O   0  0  0  0  0  0  0  0  0  0  0  0
  2  1  1  6
  2  3  1  0
  4  5  1  6
  4  2  1  0
  6  4  1  0
  6  7  2  0
  9 11  1  0
  9  8  1  0
 10  9  2  0
 12 11  1  0
 12 13  1  0
 13 14  1  0
 15 14  1  6
 15 17  1  0
 15 16  1  0
 16  6  1  0
 17 25  1  0
 18 17  2  0
 19 20  1  0
 20 22  1  0
 20 21  2  0
 22 23  1  0
 24 23  1  6
 24 26  1  0
 25 24  1  0
 26 28  2  0
 26 27  1  0
M  END
$$$$
