CYP.pdb
     RDKit          3D

 26 27  0  0  1  0  0  0  0  0999 V2000
    4.5830  -21.0340   22.9698 N   0  0  0  0  0  0  0  0  0  0  0  0
    5.6933  -20.6501   23.8269 C   0  0  1  0  0  0  0  0  0  0  0  0
    6.8971  -21.4478   23.3258 C   0  0  0  0  0  0  0  0  0  0  0  0
    8.3275  -21.1844   24.4308 S   0  0  0  0  0  0  0  0  0  0  0  0
    5.9678  -19.1844   23.7194 C   0  0  0  0  0  0  0  0  0  0  0  0
    5.8072  -18.6929   22.5657 O   0  0  0  0  0  0  0  0  0  0  0  0
    7.5647  -10.8340   26.6613 O   0  0  0  0  0  0  0  0  0  0  0  0
    7.2836  -12.1967   26.4909 C   0  0  0  0  0  0  0  0  0  0  0  0
    5.9971  -12.6829   26.5448 C   0  0  0  0  0  0  0  0  0  0  0  0
    5.7601  -14.0356   26.3717 C   0  0  0  0  0  0  0  0  0  0  0  0
    6.7600  -14.9565   26.1416 C   0  0  0  0  0  0  0  0  0  0  0  0
    6.5544  -16.3877   25.9948 C   0  0  0  0  0  0  0  0  0  0  0  0
    6.6980  -16.9827   24.6189 C   0  0  2  0  0  0  0  0  0  0  0  0
    6.3732  -18.4030   24.8100 N   0  0  0  0  0  0  0  0  0  0  0  0
    8.0430  -16.8605   24.0215 C   0  0  0  0  0  0  0  0  0  0  0  0
    8.8299  -17.8554   24.2702 O   0  0  0  0  0  0  0  0  0  0  0  0
    8.0607  -14.4336   26.0913 C   0  0  0  0  0  0  0  0  0  0  0  0
    8.3016  -13.0952   26.2622 C   0  0  0  0  0  0  0  0  0  0  0  0
    8.4833  -15.7845   23.2364 N   0  0  0  0  0  0  0  0  0  0  0  0
    7.9086  -14.4552   23.2259 C   0  0  0  0  0  0  0  0  0  0  0  0
    7.8764  -14.0773   21.7424 C   0  0  0  0  0  0  0  0  0  0  0  0
    8.7778  -15.0877   21.0852 C   0  0  0  0  0  0  0  0  0  0  0  0
    9.5336  -15.6753   22.2561 C   0  0  1  0  0  0  0  0  0  0  0  0
   10.6972  -14.9015   22.6163 C   0  0  0  0  0  0  0  0  0  0  0  0
   11.7457  -14.8959   21.6696 O   0  0  0  0  0  0  0  0  0  0  0  0
   10.9231  -14.2364   23.6322 O   0  0  0  0  0  0  0  0  0  0  0  0
  2  5  1  0
  2  1  1  6
  3  2  1  0
  4  3  1  0
  5  6  2  0
  7  8  1  0
  8  9  2  0
  8 18  1  0
  9 10  1  0
 10 11  2  0
 11 12  1  0
 13 12  1  1
 14 13  1  0
 14  5  1  0
 15 16  2  0
 15 13  1  0
 17 11  1  0
 18 17  2  0
 19 15  1  0
 20 19  1  0
 21 22  1  0
 21 20  1  0
 22 23  1  0
 23 19  1  0
 23 24  1  1
 24 25  1  0
 26 24  2  0
M  END
$$$$
