CYP.pdb
     RDKit          3D

 26 27  0  0  1  0  0  0  0  0999 V2000
    2.3693  -19.3254   21.8965 N   0  0  0  0  0  0  0  0  0  0  0  0
    3.7625  -19.5614   22.2404 C   0  0  1  0  0  0  0  0  0  0  0  0
    4.3884  -20.2108   21.0064 C   0  0  0  0  0  0  0  0  0  0  0  0
    6.2094  -20.2047   21.1505 S   0  0  0  0  0  0  0  0  0  0  0  0
    4.4594  -18.2762   22.5536 C   0  0  0  0  0  0  0  0  0  0  0  0
    4.1072  -17.2899   21.8455 O   0  0  0  0  0  0  0  0  0  0  0  0
    8.1418  -11.9372   27.5172 O   0  0  0  0  0  0  0  0  0  0  0  0
    7.6767  -13.1461   26.9813 C   0  0  0  0  0  0  0  0  0  0  0  0
    8.5348  -14.1724   26.6576 C   0  0  0  0  0  0  0  0  0  0  0  0
    8.0368  -15.3513   26.1302 C   0  0  0  0  0  0  0  0  0  0  0  0
    6.6954  -15.5714   25.9007 C   0  0  0  0  0  0  0  0  0  0  0  0
    6.1396  -16.7786   25.3124 C   0  0  0  0  0  0  0  0  0  0  0  0
    6.0794  -16.8669   23.8102 C   0  0  2  0  0  0  0  0  0  0  0  0
    5.4322  -18.1615   23.5559 N   0  0  0  0  0  0  0  0  0  0  0  0
    7.3885  -16.8276   23.1280 C   0  0  0  0  0  0  0  0  0  0  0  0
    7.9232  -17.9879   22.9318 O   0  0  0  0  0  0  0  0  0  0  0  0
    5.8439  -14.5094   26.2399 C   0  0  0  0  0  0  0  0  0  0  0  0
    6.3311  -13.3397   26.7622 C   0  0  0  0  0  0  0  0  0  0  0  0
    8.0412  -15.6621   22.6996 N   0  0  0  0  0  0  0  0  0  0  0  0
    7.6630  -14.3069   23.0428 C   0  0  0  0  0  0  0  0  0  0  0  0
    7.8103  -13.5368   21.7275 C   0  0  0  0  0  0  0  0  0  0  0  0
    8.6125  -14.4587   20.8488 C   0  0  0  0  0  0  0  0  0  0  0  0
    9.1757  -15.4572   21.8353 C   0  0  1  0  0  0  0  0  0  0  0  0
   10.4022  -15.0074   22.4485 C   0  0  0  0  0  0  0  0  0  0  0  0
   11.5264  -14.9457   21.5953 O   0  0  0  0  0  0  0  0  0  0  0  0
   10.6260  -14.6642   23.6136 O   0  0  0  0  0  0  0  0  0  0  0  0
  2  5  1  0
  2  1  1  6
  3  2  1  0
  4  3  1  0
  5  6  2  0
  7  8  1  0
  8  9  2  0
  8 18  1  0
  9 10  1  0
 10 11  2  0
 11 12  1  0
 13 12  1  1
 14 13  1  0
 14  5  1  0
 15 16  2  0
 15 13  1  0
 17 11  1  0
 18 17  2  0
 19 15  1  0
 20 19  1  0
 21 22  1  0
 21 20  1  0
 22 23  1  0
 23 19  1  0
 23 24  1  1
 24 25  1  0
 26 24  2  0
M  END
$$$$
