CYP.pdb
     RDKit          3D

 26 27  0  0  1  0  0  0  0  0999 V2000
    4.1171  -20.4203   22.0757 N   0  0  0  0  0  0  0  0  0  0  0  0
    5.1341  -20.2268   23.0970 C   0  0  1  0  0  0  0  0  0  0  0  0
    6.3446  -21.0369   22.6334 C   0  0  0  0  0  0  0  0  0  0  0  0
    6.4649  -20.9970   20.8111 S   0  0  0  0  0  0  0  0  0  0  0  0
    5.4992  -18.7821   23.2189 C   0  0  0  0  0  0  0  0  0  0  0  0
    5.1722  -18.0623   22.2323 O   0  0  0  0  0  0  0  0  0  0  0  0
    7.3441  -10.9944   27.0775 O   0  0  0  0  0  0  0  0  0  0  0  0
    7.2013  -12.3549   26.7714 C   0  0  0  0  0  0  0  0  0  0  0  0
    8.2904  -13.1604   26.5276 C   0  0  0  0  0  0  0  0  0  0  0  0
    8.1082  -14.4995   26.2283 C   0  0  0  0  0  0  0  0  0  0  0  0
    6.8683  -15.0977   26.1563 C   0  0  0  0  0  0  0  0  0  0  0  0
    6.6355  -16.4890   25.8065 C   0  0  0  0  0  0  0  0  0  0  0  0
    6.5887  -16.8497   24.3451 C   0  0  2  0  0  0  0  0  0  0  0  0
    6.1549  -18.2537   24.3391 N   0  0  0  0  0  0  0  0  0  0  0  0
    7.8743  -16.7278   23.6289 C   0  0  0  0  0  0  0  0  0  0  0  0
    8.5849  -17.8075   23.6201 O   0  0  0  0  0  0  0  0  0  0  0  0
    5.7766  -14.2539   26.4095 C   0  0  0  0  0  0  0  0  0  0  0  0
    5.9506  -12.9272   26.7061 C   0  0  0  0  0  0  0  0  0  0  0  0
    8.3348  -15.5681   22.9877 N   0  0  0  0  0  0  0  0  0  0  0  0
    7.8649  -14.2212   23.2374 C   0  0  0  0  0  0  0  0  0  0  0  0
    7.7486  -13.6045   21.8407 C   0  0  0  0  0  0  0  0  0  0  0  0
    8.5169  -14.5492   20.9558 C   0  0  0  0  0  0  0  0  0  0  0  0
    9.3124  -15.3670   21.9485 C   0  0  1  0  0  0  0  0  0  0  0  0
   10.5562  -14.7381   22.3227 C   0  0  0  0  0  0  0  0  0  0  0  0
   10.6964  -14.4263   23.6935 O   0  0  0  0  0  0  0  0  0  0  0  0
   11.5274  -14.4264   21.6263 O   0  0  0  0  0  0  0  0  0  0  0  0
  2  5  1  0
  2  1  1  6
  3  2  1  0
  4  3  1  0
  5  6  2  0
  7  8  1  0
  8  9  2  0
  8 18  1  0
  9 10  1  0
 10 11  2  0
 11 12  1  0
 13 12  1  1
 14 13  1  0
 14  5  1  0
 15 16  2  0
 15 13  1  0
 17 11  1  0
 18 17  2  0
 19 15  1  0
 20 19  1  0
 21 22  1  0
 21 20  1  0
 22 23  1  0
 23 19  1  0
 23 24  1  1
 24 25  1  0
 26 24  2  0
M  END
$$$$
