CYP.pdb
     RDKit          3D

 26 27  0  0  1  0  0  0  0  0999 V2000
    8.6671  -16.7953   17.7269 N   0  0  0  0  0  0  0  0  0  0  0  0
    7.8693  -17.2240   18.8647 C   0  0  1  0  0  0  0  0  0  0  0  0
    8.0716  -18.7358   18.9651 C   0  0  0  0  0  0  0  0  0  0  0  0
    7.1627  -19.3954   20.4057 S   0  0  0  0  0  0  0  0  0  0  0  0
    8.3325  -16.5593   20.1213 C   0  0  0  0  0  0  0  0  0  0  0  0
    9.5852  -16.4227   20.2242 O   0  0  0  0  0  0  0  0  0  0  0  0
    7.1991  -12.2226   27.9554 O   0  0  0  0  0  0  0  0  0  0  0  0
    7.1229  -12.7920   26.6767 C   0  0  0  0  0  0  0  0  0  0  0  0
    7.3492  -12.0507   25.5393 C   0  0  0  0  0  0  0  0  0  0  0  0
    7.2643  -12.6493   24.2942 C   0  0  0  0  0  0  0  0  0  0  0  0
    6.9582  -13.9813   24.1133 C   0  0  0  0  0  0  0  0  0  0  0  0
    6.8211  -14.6350   22.8225 C   0  0  0  0  0  0  0  0  0  0  0  0
    7.9758  -15.4651   22.3270 C   0  0  2  0  0  0  0  0  0  0  0  0
    7.4526  -16.1162   21.1180 N   0  0  0  0  0  0  0  0  0  0  0  0
    8.4583  -16.4929   23.2711 C   0  0  0  0  0  0  0  0  0  0  0  0
    7.7933  -17.6009   23.2397 O   0  0  0  0  0  0  0  0  0  0  0  0
    6.7328  -14.7127   25.2889 C   0  0  0  0  0  0  0  0  0  0  0  0
    6.8153  -14.1255   26.5245 C   0  0  0  0  0  0  0  0  0  0  0  0
    9.5444  -16.3399   24.1457 N   0  0  0  0  0  0  0  0  0  0  0  0
   10.2587  -15.1057   24.3984 C   0  0  0  0  0  0  0  0  0  0  0  0
   11.7303  -15.5281   24.4253 C   0  0  0  0  0  0  0  0  0  0  0  0
   11.6809  -17.0274   24.5494 C   0  0  0  0  0  0  0  0  0  0  0  0
   10.2521  -17.2822   24.9748 C   0  0  1  0  0  0  0  0  0  0  0  0
   10.0660  -17.1781   26.4021 C   0  0  0  0  0  0  0  0  0  0  0  0
    9.8814  -18.4002   27.0862 O   0  0  0  0  0  0  0  0  0  0  0  0
   10.0425  -16.1785   27.1272 O   0  0  0  0  0  0  0  0  0  0  0  0
  2  5  1  0
  2  1  1  6
  3  2  1  0
  4  3  1  0
  5  6  2  0
  7  8  1  0
  8  9  2  0
  8 18  1  0
  9 10  1  0
 10 11  2  0
 11 12  1  0
 13 12  1  1
 14 13  1  0
 14  5  1  0
 15 16  2  0
 15 13  1  0
 17 11  1  0
 18 17  2  0
 19 15  1  0
 20 19  1  0
 21 22  1  0
 21 20  1  0
 22 23  1  0
 23 19  1  0
 23 24  1  1
 24 25  1  0
 26 24  2  0
M  END
$$$$
