CYP.pdb
     RDKit          3D

 26 27  0  0  1  0  0  0  0  0999 V2000
    9.1019  -17.2271   18.1218 N   0  0  0  0  0  0  0  0  0  0  0  0
    8.5592  -17.8061   19.3405 C   0  0  1  0  0  0  0  0  0  0  0  0
    9.2324  -19.1708   19.4849 C   0  0  0  0  0  0  0  0  0  0  0  0
    8.7081  -19.9665   21.0433 S   0  0  0  0  0  0  0  0  0  0  0  0
    8.8754  -16.9496   20.5244 C   0  0  0  0  0  0  0  0  0  0  0  0
   10.0793  -16.5721   20.6058 O   0  0  0  0  0  0  0  0  0  0  0  0
    7.2085  -11.8006   27.6666 O   0  0  0  0  0  0  0  0  0  0  0  0
    7.1699  -12.5789   26.5013 C   0  0  0  0  0  0  0  0  0  0  0  0
    6.6368  -13.8478   26.4954 C   0  0  0  0  0  0  0  0  0  0  0  0
    6.6172  -14.5853   25.3242 C   0  0  0  0  0  0  0  0  0  0  0  0
    7.1123  -14.1170   24.1258 C   0  0  0  0  0  0  0  0  0  0  0  0
    7.1453  -14.8757   22.8866 C   0  0  0  0  0  0  0  0  0  0  0  0
    8.3108  -15.8016   22.6582 C   0  0  2  0  0  0  0  0  0  0  0  0
    7.9165  -16.5855   21.4794 N   0  0  0  0  0  0  0  0  0  0  0  0
    8.6137  -16.7146   23.7787 C   0  0  0  0  0  0  0  0  0  0  0  0
    7.8947  -17.7885   23.8016 O   0  0  0  0  0  0  0  0  0  0  0  0
    7.6491  -12.8214   24.1606 C   0  0  0  0  0  0  0  0  0  0  0  0
    7.6715  -12.0865   25.3172 C   0  0  0  0  0  0  0  0  0  0  0  0
    9.5914  -16.4923   24.7599 N   0  0  0  0  0  0  0  0  0  0  0  0
   10.2638  -15.2350   25.0133 C   0  0  0  0  0  0  0  0  0  0  0  0
   11.7253  -15.6345   25.2345 C   0  0  0  0  0  0  0  0  0  0  0  0
   11.6720  -17.1236   25.4473 C   0  0  0  0  0  0  0  0  0  0  0  0
   10.2056  -17.3711   25.7224 C   0  0  1  0  0  0  0  0  0  0  0  0
    9.8564  -17.1807   27.1097 C   0  0  0  0  0  0  0  0  0  0  0  0
    9.0791  -16.0358   27.3938 O   0  0  0  0  0  0  0  0  0  0  0  0
   10.1329  -17.8682   28.0978 O   0  0  0  0  0  0  0  0  0  0  0  0
  2  5  1  0
  2  1  1  6
  3  2  1  0
  4  3  1  0
  5  6  2  0
  7  8  1  0
  8  9  2  0
  8 18  1  0
  9 10  1  0
 10 11  2  0
 11 12  1  0
 13 12  1  1
 14 13  1  0
 14  5  1  0
 15 16  2  0
 15 13  1  0
 17 11  1  0
 18 17  2  0
 19 15  1  0
 20 19  1  0
 21 22  1  0
 21 20  1  0
 22 23  1  0
 23 19  1  0
 23 24  1  1
 24 25  1  0
 26 24  2  0
M  END
$$$$
