CYP.pdb
     RDKit          3D

 26 27  0  0  1  0  0  0  0  0999 V2000
   12.3643  -16.5205   20.1560 N   0  0  0  0  0  0  0  0  0  0  0  0
   11.4443  -17.2200   21.0387 C   0  0  1  0  0  0  0  0  0  0  0  0
   12.1981  -18.4580   21.5242 C   0  0  0  0  0  0  0  0  0  0  0  0
   11.0958  -19.5066   22.5351 S   0  0  0  0  0  0  0  0  0  0  0  0
   11.0646  -16.3610   22.2020 C   0  0  0  0  0  0  0  0  0  0  0  0
   12.0072  -15.6750   22.6910 O   0  0  0  0  0  0  0  0  0  0  0  0
    5.4743  -11.7777   27.5437 O   0  0  0  0  0  0  0  0  0  0  0  0
    6.1309  -12.5397   26.5673 C   0  0  0  0  0  0  0  0  0  0  0  0
    6.8583  -11.9515   25.5578 C   0  0  0  0  0  0  0  0  0  0  0  0
    7.4924  -12.7383   24.6119 C   0  0  0  0  0  0  0  0  0  0  0  0
    7.4414  -14.1160   24.6153 C   0  0  0  0  0  0  0  0  0  0  0  0
    8.0601  -14.9733   23.6181 C   0  0  0  0  0  0  0  0  0  0  0  0
    9.4626  -15.4568   23.8770 C   0  0  2  0  0  0  0  0  0  0  0  0
    9.7634  -16.3115   22.7201 N   0  0  0  0  0  0  0  0  0  0  0  0
    9.6376  -16.2321   25.1216 C   0  0  0  0  0  0  0  0  0  0  0  0
    9.6885  -17.5123   24.9503 O   0  0  0  0  0  0  0  0  0  0  0  0
    6.6938  -14.6887   25.6551 C   0  0  0  0  0  0  0  0  0  0  0  0
    6.0636  -13.9148   26.5943 C   0  0  0  0  0  0  0  0  0  0  0  0
    9.7522  -15.6815   26.4067 N   0  0  0  0  0  0  0  0  0  0  0  0
    9.3324  -14.3514   26.7968 C   0  0  0  0  0  0  0  0  0  0  0  0
   10.4691  -13.8522   27.6932 C   0  0  0  0  0  0  0  0  0  0  0  0
   11.2533  -15.0947   28.0199 C   0  0  0  0  0  0  0  0  0  0  0  0
   10.3016  -16.2042   27.6319 C   0  0  1  0  0  0  0  0  0  0  0  0
    9.3725  -16.5383   28.6843 C   0  0  0  0  0  0  0  0  0  0  0  0
    9.9424  -17.0995   29.8488 O   0  0  0  0  0  0  0  0  0  0  0  0
    8.1449  -16.4095   28.7279 O   0  0  0  0  0  0  0  0  0  0  0  0
  2  5  1  0
  2  1  1  6
  3  2  1  0
  4  3  1  0
  5  6  2  0
  7  8  1  0
  8  9  2  0
  8 18  1  0
  9 10  1  0
 10 11  2  0
 11 12  1  0
 13 12  1  6
 14 13  1  0
 14  5  1  0
 15 16  2  0
 15 13  1  0
 17 11  1  0
 18 17  2  0
 19 15  1  0
 20 19  1  0
 21 22  1  0
 21 20  1  0
 22 23  1  0
 23 19  1  0
 23 24  1  1
 24 25  1  0
 26 24  2  0
M  END
$$$$
