CYP.pdb
     RDKit          3D

 26 27  0  0  1  0  0  0  0  0999 V2000
    8.2886  -17.1997   17.8341 N   0  0  0  0  0  0  0  0  0  0  0  0
    7.4330  -17.4082   18.9913 C   0  0  1  0  0  0  0  0  0  0  0  0
    7.4112  -18.9191   19.2222 C   0  0  0  0  0  0  0  0  0  0  0  0
    9.1108  -19.5392   19.4741 S   0  0  0  0  0  0  0  0  0  0  0  0
    7.9845  -16.7128   20.1944 C   0  0  0  0  0  0  0  0  0  0  0  0
    9.2312  -16.5043   20.1676 O   0  0  0  0  0  0  0  0  0  0  0  0
    7.3772  -12.0538   27.8994 O   0  0  0  0  0  0  0  0  0  0  0  0
    7.2188  -12.7004   26.6658 C   0  0  0  0  0  0  0  0  0  0  0  0
    7.4819  -12.0627   25.4748 C   0  0  0  0  0  0  0  0  0  0  0  0
    7.3131  -12.7353   24.2769 C   0  0  0  0  0  0  0  0  0  0  0  0
    6.8853  -14.0434   24.1964 C   0  0  0  0  0  0  0  0  0  0  0  0
    6.6585  -14.7693   22.9579 C   0  0  0  0  0  0  0  0  0  0  0  0
    7.7891  -15.6004   22.4112 C   0  0  2  0  0  0  0  0  0  0  0  0
    7.1881  -16.3164   21.2773 N   0  0  0  0  0  0  0  0  0  0  0  0
    8.3655  -16.5744   23.3598 C   0  0  0  0  0  0  0  0  0  0  0  0
    7.7015  -17.6788   23.4602 O   0  0  0  0  0  0  0  0  0  0  0  0
    6.6250  -14.6689   25.4248 C   0  0  0  0  0  0  0  0  0  0  0  0
    6.7900  -14.0080   26.6141 C   0  0  0  0  0  0  0  0  0  0  0  0
    9.5344  -16.3766   24.1098 N   0  0  0  0  0  0  0  0  0  0  0  0
   10.2118  -15.1109   24.3012 C   0  0  0  0  0  0  0  0  0  0  0  0
   11.6958  -15.4593   24.1563 C   0  0  0  0  0  0  0  0  0  0  0  0
   11.7336  -16.9604   24.2606 C   0  0  0  0  0  0  0  0  0  0  0  0
   10.3759  -17.2912   24.8390 C   0  0  1  0  0  0  0  0  0  0  0  0
   10.3468  -17.2120   26.2796 C   0  0  0  0  0  0  0  0  0  0  0  0
    9.4194  -16.2957   26.8238 O   0  0  0  0  0  0  0  0  0  0  0  0
   11.0116  -17.8256   27.1204 O   0  0  0  0  0  0  0  0  0  0  0  0
  2  5  1  0
  2  1  1  6
  3  2  1  0
  4  3  1  0
  5  6  2  0
  7  8  1  0
  8  9  2  0
  8 18  1  0
  9 10  1  0
 10 11  2  0
 11 12  1  0
 13 12  1  1
 14 13  1  0
 14  5  1  0
 15 16  2  0
 15 13  1  0
 17 11  1  0
 18 17  2  0
 19 15  1  0
 20 19  1  0
 21 22  1  0
 21 20  1  0
 22 23  1  0
 23 19  1  0
 23 24  1  1
 24 25  1  0
 26 24  2  0
M  END
$$$$
