CYP.pdb
     RDKit          3D

 26 27  0  0  1  0  0  0  0  0999 V2000
    5.0640  -20.5517   24.3096 N   0  0  0  0  0  0  0  0  0  0  0  0
    6.0786  -19.7183   24.9346 C   0  0  1  0  0  0  0  0  0  0  0  0
    7.4201  -20.3417   24.5495 C   0  0  0  0  0  0  0  0  0  0  0  0
    7.9060  -19.7986   22.8746 S   0  0  0  0  0  0  0  0  0  0  0  0
    6.0010  -18.3136   24.4282 C   0  0  0  0  0  0  0  0  0  0  0  0
    5.3442  -18.1660   23.3581 O   0  0  0  0  0  0  0  0  0  0  0  0
   10.9209  -14.8868   29.3077 O   0  0  0  0  0  0  0  0  0  0  0  0
    9.8926  -14.8705   28.3551 C   0  0  0  0  0  0  0  0  0  0  0  0
    9.6391  -13.7603   27.5822 C   0  0  0  0  0  0  0  0  0  0  0  0
    8.6142  -13.7832   26.6521 C   0  0  0  0  0  0  0  0  0  0  0  0
    7.8055  -14.8800   26.4429 C   0  0  0  0  0  0  0  0  0  0  0  0
    6.6961  -14.9281   25.5053 C   0  0  0  0  0  0  0  0  0  0  0  0
    6.7559  -15.9433   24.3945 C   0  0  2  0  0  0  0  0  0  0  0  0
    6.6070  -17.2329   25.0831 N   0  0  0  0  0  0  0  0  0  0  0  0
    8.0092  -15.9432   23.6134 C   0  0  0  0  0  0  0  0  0  0  0  0
    8.8080  -16.9222   23.8859 O   0  0  0  0  0  0  0  0  0  0  0  0
    8.0862  -15.9970   27.2436 C   0  0  0  0  0  0  0  0  0  0  0  0
    9.0995  -15.9802   28.1664 C   0  0  0  0  0  0  0  0  0  0  0  0
    8.3546  -14.9931   22.6408 N   0  0  0  0  0  0  0  0  0  0  0  0
    8.0224  -13.5841   22.6803 C   0  0  0  0  0  0  0  0  0  0  0  0
    7.6007  -13.2624   21.2439 C   0  0  0  0  0  0  0  0  0  0  0  0
    8.0873  -14.4413   20.4444 C   0  0  0  0  0  0  0  0  0  0  0  0
    9.0602  -15.1096   21.3900 C   0  0  1  0  0  0  0  0  0  0  0  0
   10.3855  -14.5426   21.3225 C   0  0  0  0  0  0  0  0  0  0  0  0
   10.8285  -13.8812   22.4895 O   0  0  0  0  0  0  0  0  0  0  0  0
   11.2019  -14.5445   20.3957 O   0  0  0  0  0  0  0  0  0  0  0  0
  2  5  1  0
  2  1  1  6
  3  2  1  0
  4  3  1  0
  5  6  2  0
  7  8  1  0
  8  9  2  0
  8 18  1  0
  9 10  1  0
 10 11  2  0
 11 12  1  0
 13 12  1  1
 14 13  1  0
 14  5  1  0
 15 16  2  0
 15 13  1  0
 17 11  1  0
 18 17  2  0
 19 15  1  0
 20 19  1  0
 21 22  1  0
 21 20  1  0
 22 23  1  0
 23 19  1  0
 23 24  1  1
 24 25  1  0
 26 24  2  0
M  END
$$$$
