CYP.pdb
     RDKit          3D

 26 27  0  0  1  0  0  0  0  0999 V2000
    9.4999  -17.0690   18.0493 N   0  0  0  0  0  0  0  0  0  0  0  0
    8.3310  -17.0310   18.9136 C   0  0  1  0  0  0  0  0  0  0  0  0
    7.8781  -18.4835   19.0603 C   0  0  0  0  0  0  0  0  0  0  0  0
    9.2509  -19.5069   19.6965 S   0  0  0  0  0  0  0  0  0  0  0  0
    8.6763  -16.4630   20.2528 C   0  0  0  0  0  0  0  0  0  0  0  0
    9.9068  -16.4848   20.5423 O   0  0  0  0  0  0  0  0  0  0  0  0
    7.4199  -11.8589   27.8426 O   0  0  0  0  0  0  0  0  0  0  0  0
    7.2824  -12.5501   26.6309 C   0  0  0  0  0  0  0  0  0  0  0  0
    6.8037  -13.8396   26.5831 C   0  0  0  0  0  0  0  0  0  0  0  0
    6.6826  -14.4888   25.3666 C   0  0  0  0  0  0  0  0  0  0  0  0
    7.0208  -13.9099   24.1620 C   0  0  0  0  0  0  0  0  0  0  0  0
    6.9453  -14.5726   22.8707 C   0  0  0  0  0  0  0  0  0  0  0  0
    8.1246  -15.4010   22.4339 C   0  0  2  0  0  0  0  0  0  0  0  0
    7.7157  -15.9420   21.1302 N   0  0  0  0  0  0  0  0  0  0  0  0
    8.4787  -16.5122   23.3398 C   0  0  0  0  0  0  0  0  0  0  0  0
    7.8402  -17.6124   23.1101 O   0  0  0  0  0  0  0  0  0  0  0  0
    7.5054  -12.5957   24.2401 C   0  0  0  0  0  0  0  0  0  0  0  0
    7.6277  -11.9478   25.4417 C   0  0  0  0  0  0  0  0  0  0  0  0
    9.4243  -16.4413   24.3737 N   0  0  0  0  0  0  0  0  0  0  0  0
   10.0469  -15.2307   24.8679 C   0  0  0  0  0  0  0  0  0  0  0  0
   11.5155  -15.6204   25.0576 C   0  0  0  0  0  0  0  0  0  0  0  0
   11.5081  -17.1245   24.9990 C   0  0  0  0  0  0  0  0  0  0  0  0
   10.0448  -17.4604   25.1815 C   0  0  1  0  0  0  0  0  0  0  0  0
    9.6560  -17.5328   26.5693 C   0  0  0  0  0  0  0  0  0  0  0  0
    8.7263  -16.5585   26.9962 O   0  0  0  0  0  0  0  0  0  0  0  0
   10.0115  -18.3204   27.4517 O   0  0  0  0  0  0  0  0  0  0  0  0
  2  5  1  0
  2  1  1  6
  3  2  1  0
  4  3  1  0
  5  6  2  0
  7  8  1  0
  8  9  2  0
  8 18  1  0
  9 10  1  0
 10 11  2  0
 11 12  1  0
 13 12  1  1
 14 13  1  0
 14  5  1  0
 15 16  2  0
 15 13  1  0
 17 11  1  0
 18 17  2  0
 19 15  1  0
 20 19  1  0
 21 22  1  0
 21 20  1  0
 22 23  1  0
 23 19  1  0
 23 24  1  1
 24 25  1  0
 26 24  2  0
M  END
$$$$
