CYP.pdb
     RDKit          3D

 26 27  0  0  1  0  0  0  0  0999 V2000
    7.7804  -12.7646   18.1095 N   0  0  0  0  0  0  0  0  0  0  0  0
    6.9478  -13.4098   19.1121 C   0  0  1  0  0  0  0  0  0  0  0  0
    6.6142  -14.7901   18.5463 C   0  0  0  0  0  0  0  0  0  0  0  0
    8.1259  -15.8112   18.4526 S   0  0  0  0  0  0  0  0  0  0  0  0
    7.6833  -13.5495   20.4063 C   0  0  0  0  0  0  0  0  0  0  0  0
    8.9358  -13.3960   20.3294 O   0  0  0  0  0  0  0  0  0  0  0  0
    8.7004  -14.4365   29.3022 O   0  0  0  0  0  0  0  0  0  0  0  0
    8.3051  -14.1925   27.9796 C   0  0  0  0  0  0  0  0  0  0  0  0
    8.5851  -13.0021   27.3481 C   0  0  0  0  0  0  0  0  0  0  0  0
    8.1775  -12.7989   26.0409 C   0  0  0  0  0  0  0  0  0  0  0  0
    7.4879  -13.7407   25.3074 C   0  0  0  0  0  0  0  0  0  0  0  0
    7.0094  -13.5489   23.9486 C   0  0  0  0  0  0  0  0  0  0  0  0
    7.8355  -14.1157   22.8242 C   0  0  2  0  0  0  0  0  0  0  0  0
    7.0422  -13.8293   21.6208 N   0  0  0  0  0  0  0  0  0  0  0  0
    8.0965  -15.5667   22.9090 C   0  0  0  0  0  0  0  0  0  0  0  0
    7.1365  -16.3086   22.4632 O   0  0  0  0  0  0  0  0  0  0  0  0
    7.2165  -14.9441   25.9753 C   0  0  0  0  0  0  0  0  0  0  0  0
    7.6172  -15.1509   27.2695 C   0  0  0  0  0  0  0  0  0  0  0  0
    9.2693  -16.1482   23.4133 N   0  0  0  0  0  0  0  0  0  0  0  0
   10.3898  -15.4309   23.9854 C   0  0  0  0  0  0  0  0  0  0  0  0
   11.6176  -16.1370   23.4035 C   0  0  0  0  0  0  0  0  0  0  0  0
   11.0720  -17.4232   22.8435 C   0  0  0  0  0  0  0  0  0  0  0  0
    9.7078  -17.5186   23.4894 C   0  0  1  0  0  0  0  0  0  0  0  0
    9.7488  -18.1287   24.7965 C   0  0  0  0  0  0  0  0  0  0  0  0
    9.5353  -17.2558   25.8865 O   0  0  0  0  0  0  0  0  0  0  0  0
    9.9431  -19.3059   25.1157 O   0  0  0  0  0  0  0  0  0  0  0  0
  2  5  1  0
  2  1  1  6
  3  2  1  0
  4  3  1  0
  5  6  2  0
  7  8  1  0
  8  9  2  0
  8 18  1  0
  9 10  1  0
 10 11  2  0
 11 12  1  0
 13 12  1  1
 14 13  1  0
 14  5  1  0
 15 16  2  0
 15 13  1  0
 17 11  1  0
 18 17  2  0
 19 15  1  0
 20 19  1  0
 21 22  1  0
 21 20  1  0
 22 23  1  0
 23 19  1  0
 23 24  1  1
 24 25  1  0
 26 24  2  0
M  END
$$$$
