CYP.pdb
     RDKit          3D

 26 27  0  0  1  0  0  0  0  0999 V2000
    5.3139  -18.9480   18.1491 N   0  0  0  0  0  0  0  0  0  0  0  0
    6.0638  -19.0741   19.3887 C   0  0  1  0  0  0  0  0  0  0  0  0
    7.3388  -19.8346   19.0249 C   0  0  0  0  0  0  0  0  0  0  0  0
    7.0483  -21.6346   19.1358 S   0  0  0  0  0  0  0  0  0  0  0  0
    6.4086  -17.7287   19.9424 C   0  0  0  0  0  0  0  0  0  0  0  0
    6.5464  -16.8144   19.0803 O   0  0  0  0  0  0  0  0  0  0  0  0
    8.4463  -11.8872   26.5099 O   0  0  0  0  0  0  0  0  0  0  0  0
    7.9666  -12.9273   25.7018 C   0  0  0  0  0  0  0  0  0  0  0  0
    6.6293  -13.0539   25.4024 C   0  0  0  0  0  0  0  0  0  0  0  0
    6.1945  -14.0952   24.6008 C   0  0  0  0  0  0  0  0  0  0  0  0
    7.0402  -15.0435   24.0660 C   0  0  0  0  0  0  0  0  0  0  0  0
    6.6166  -16.1721   23.2542 C   0  0  0  0  0  0  0  0  0  0  0  0
    6.9533  -16.1501   21.7865 C   0  0  2  0  0  0  0  0  0  0  0  0
    6.5693  -17.4874   21.3135 N   0  0  0  0  0  0  0  0  0  0  0  0
    8.3759  -15.9063   21.4744 C   0  0  0  0  0  0  0  0  0  0  0  0
    9.1057  -16.9726   21.4422 O   0  0  0  0  0  0  0  0  0  0  0  0
    8.3972  -14.8902   24.3869 C   0  0  0  0  0  0  0  0  0  0  0  0
    8.8336  -13.8614   25.1803 C   0  0  0  0  0  0  0  0  0  0  0  0
    8.9425  -14.6487   21.2184 N   0  0  0  0  0  0  0  0  0  0  0  0
    8.3650  -13.3716   21.5827 C   0  0  0  0  0  0  0  0  0  0  0  0
    8.6051  -12.4920   20.3526 C   0  0  0  0  0  0  0  0  0  0  0  0
    9.6244  -13.2537   19.5484 C   0  0  0  0  0  0  0  0  0  0  0  0
   10.1556  -14.2591   20.5455 C   0  0  1  0  0  0  0  0  0  0  0  0
   11.2231  -13.7297   21.3595 C   0  0  0  0  0  0  0  0  0  0  0  0
   12.4455  -13.4972   20.6906 O   0  0  0  0  0  0  0  0  0  0  0  0
   11.2366  -13.4449   22.5613 O   0  0  0  0  0  0  0  0  0  0  0  0
  2  5  1  0
  2  1  1  6
  3  2  1  0
  4  3  1  0
  5  6  2  0
  7  8  1  0
  8  9  2  0
  8 18  1  0
  9 10  1  0
 10 11  2  0
 11 12  1  0
 13 12  1  1
 14 13  1  0
 14  5  1  0
 15 16  2  0
 15 13  1  0
 17 11  1  0
 18 17  2  0
 19 15  1  0
 20 19  1  0
 21 22  1  0
 21 20  1  0
 22 23  1  0
 23 19  1  0
 23 24  1  1
 24 25  1  0
 26 24  2  0
M  END
$$$$
