CYP.pdb
     RDKit          3D

 26 27  0  0  1  0  0  0  0  0999 V2000
    3.1963  -19.8486   22.1056 N   0  0  0  0  0  0  0  0  0  0  0  0
    4.5472  -19.8832   22.6429 C   0  0  1  0  0  0  0  0  0  0  0  0
    5.3881  -20.6187   21.5996 C   0  0  0  0  0  0  0  0  0  0  0  0
    7.1482  -20.6019   22.0880 S   0  0  0  0  0  0  0  0  0  0  0  0
    5.0759  -18.4995   22.8458 C   0  0  0  0  0  0  0  0  0  0  0  0
    4.8705  -17.7020   21.8865 O   0  0  0  0  0  0  0  0  0  0  0  0
    7.8331  -11.2003   27.1276 O   0  0  0  0  0  0  0  0  0  0  0  0
    7.4937  -12.5078   26.7532 C   0  0  0  0  0  0  0  0  0  0  0  0
    8.4529  -13.4695   26.5307 C   0  0  0  0  0  0  0  0  0  0  0  0
    8.0776  -14.7498   26.1619 C   0  0  0  0  0  0  0  0  0  0  0  0
    6.7646  -15.1366   25.9978 C   0  0  0  0  0  0  0  0  0  0  0  0
    6.3341  -16.4583   25.5736 C   0  0  0  0  0  0  0  0  0  0  0  0
    6.3410  -16.7618   24.0985 C   0  0  2  0  0  0  0  0  0  0  0  0
    5.7503  -18.1044   24.0090 N   0  0  0  0  0  0  0  0  0  0  0  0
    7.6759  -16.7673   23.4669 C   0  0  0  0  0  0  0  0  0  0  0  0
    8.2439  -17.9278   23.4296 O   0  0  0  0  0  0  0  0  0  0  0  0
    5.8083  -14.1371   26.2312 C   0  0  0  0  0  0  0  0  0  0  0  0
    6.1738  -12.8676   26.5963 C   0  0  0  0  0  0  0  0  0  0  0  0
    8.3196  -15.6428   22.9293 N   0  0  0  0  0  0  0  0  0  0  0  0
    7.9409  -14.2634   23.1559 C   0  0  0  0  0  0  0  0  0  0  0  0
    8.0701  -13.6124   21.7760 C   0  0  0  0  0  0  0  0  0  0  0  0
    8.8649  -14.6065   20.9726 C   0  0  0  0  0  0  0  0  0  0  0  0
    9.4431  -15.5125   22.0366 C   0  0  1  0  0  0  0  0  0  0  0  0
   10.6752  -15.0074   22.5929 C   0  0  0  0  0  0  0  0  0  0  0  0
   11.7826  -14.9940   21.7159 O   0  0  0  0  0  0  0  0  0  0  0  0
   10.9165  -14.5805   23.7264 O   0  0  0  0  0  0  0  0  0  0  0  0
  2  5  1  0
  2  1  1  6
  3  2  1  0
  4  3  1  0
  5  6  2  0
  7  8  1  0
  8  9  2  0
  8 18  1  0
  9 10  1  0
 10 11  2  0
 11 12  1  0
 13 12  1  1
 14 13  1  0
 14  5  1  0
 15 16  2  0
 15 13  1  0
 17 11  1  0
 18 17  2  0
 19 15  1  0
 20 19  1  0
 21 22  1  0
 21 20  1  0
 22 23  1  0
 23 19  1  0
 23 24  1  1
 24 25  1  0
 26 24  2  0
M  END
$$$$
