IQI.pdb
     RDKit          3D

 26 25  0  0  1  0  0  0  0  0999 V2000
   28.7007  -12.6122  -16.3432 C   0  0  0  0  0  0  0  0  0  0  0  0
   27.2916  -12.8351  -15.8950 C   0  0  0  0  0  0  0  0  0  0  0  0
   26.3484  -11.7429  -16.3598 C   0  0  2  0  0  0  0  0  0  0  0  0
   26.7760  -10.3883  -15.9140 C   0  0  0  0  0  0  0  0  0  0  0  0
   24.9640  -12.1504  -15.9406 C   0  0  2  0  0  0  0  0  0  0  0  0
   24.7674  -13.4948  -16.5172 N   0  0  0  0  0  0  0  0  0  0  0  0
   23.8886  -11.2879  -16.4508 C   0  0  0  0  0  0  0  0  0  0  0  0
   23.2299  -11.6317  -17.4865 O   0  0  0  0  0  0  0  0  0  0  0  0
   18.6614  -10.8133  -15.8392 N   0  0  0  0  0  0  0  0  0  0  0  0
   18.7436   -9.6713  -16.6958 C   0  0  0  0  0  0  0  0  0  0  0  0
   17.6690   -9.1561  -17.0676 O   0  0  0  0  0  0  0  0  0  0  0  0
   20.0782   -9.1308  -17.1184 C   0  0  0  0  0  0  0  0  0  0  0  0
   21.1382  -10.0632  -16.5663 C   0  0  0  0  0  0  0  0  0  0  0  0
   22.4077   -9.2512  -16.3659 C   0  0  2  0  0  0  0  0  0  0  0  0
   23.4916  -10.0574  -15.8815 N   0  0  0  0  0  0  0  0  0  0  0  0
   22.1562   -8.0613  -15.5097 C   0  0  0  0  0  0  0  0  0  0  0  0
   22.0362   -8.2622  -14.2914 O   0  0  0  0  0  0  0  0  0  0  0  0
   24.8460   -3.5183  -16.9276 C   0  0  0  0  0  0  0  0  0  0  0  0
   24.1331   -4.6365  -16.2681 C   0  0  0  0  0  0  0  0  0  0  0  0
   22.7520   -4.4531  -15.8034 C   0  0  2  0  0  0  0  0  0  0  0  0
   22.7441   -3.1810  -14.9395 C   0  0  0  0  0  0  0  0  0  0  0  0
   21.9562   -5.5330  -15.2252 C   0  0  2  0  0  0  0  0  0  0  0  0
   22.0544   -6.7603  -16.0280 N   0  0  0  0  0  0  0  0  0  0  0  0
   20.6175   -5.3239  -14.7006 C   0  0  0  0  0  0  0  0  0  0  0  0
   19.5291   -5.3438  -15.3088 O   0  0  0  0  0  0  0  0  0  0  0  0
   20.4426   -5.0500  -13.3104 O   0  0  0  0  0  0  0  0  0  0  0  0
  2  1  1  0
  3  2  1  0
  3  5  1  0
  3  4  1  1
  5  6  1  6
  7  5  1  0
  7  8  2  0
  9 10  1  0
 10 12  1  0
 11 10  2  0
 12 13  1  0
 14 13  1  1
 14 15  1  0
 15  7  1  0
 16 14  1  0
 17 16  2  0
 19 18  1  0
 20 19  1  0
 20 22  1  0
 20 21  1  1
 22 23  1  6
 22 24  1  0
 23 16  1  0
 24 26  1  0
 25 24  2  0
M  END
$$$$
