IQI.pdb
     RDKit          3D

 26 25  0  0  1  0  0  0  0  0999 V2000
   30.9736  -21.0343  -15.0141 C   0  0  0  0  0  0  0  0  0  0  0  0
   30.3986  -20.0861  -16.0174 C   0  0  0  0  0  0  0  0  0  0  0  0
   28.9096  -19.8686  -15.8330 C   0  0  2  0  0  0  0  0  0  0  0  0
   28.5669  -19.3749  -14.4708 C   0  0  0  0  0  0  0  0  0  0  0  0
   28.2254  -21.1410  -16.2466 C   0  0  2  0  0  0  0  0  0  0  0  0
   28.6737  -21.3864  -17.6312 N   0  0  0  0  0  0  0  0  0  0  0  0
   26.7572  -21.0722  -16.2618 C   0  0  0  0  0  0  0  0  0  0  0  0
   26.1444  -20.7183  -17.3221 O   0  0  0  0  0  0  0  0  0  0  0  0
   22.6064  -23.4890  -18.2320 N   0  0  0  0  0  0  0  0  0  0  0  0
   21.7908  -22.5990  -17.4656 C   0  0  0  0  0  0  0  0  0  0  0  0
   20.5724  -22.5638  -17.7350 O   0  0  0  0  0  0  0  0  0  0  0  0
   22.3962  -21.7506  -16.3859 C   0  0  0  0  0  0  0  0  0  0  0  0
   23.8796  -22.0599  -16.3472 C   0  0  0  0  0  0  0  0  0  0  0  0
   24.4843  -21.2757  -15.1936 C   0  0  2  0  0  0  0  0  0  0  0  0
   25.9158  -21.3738  -15.1678 N   0  0  0  0  0  0  0  0  0  0  0  0
   23.8637  -21.6599  -13.8976 C   0  0  0  0  0  0  0  0  0  0  0  0
   23.8682  -22.8665  -13.6095 O   0  0  0  0  0  0  0  0  0  0  0  0
   25.8398  -20.2886   -9.4780 C   0  0  0  0  0  0  0  0  0  0  0  0
   24.9970  -20.9151  -10.5224 C   0  0  0  0  0  0  0  0  0  0  0  0
   23.5737  -20.5669  -10.6226 C   0  0  2  0  0  0  0  0  0  0  0  0
   22.9627  -20.8103   -9.2326 C   0  0  0  0  0  0  0  0  0  0  0  0
   22.7138  -21.0344  -11.7069 C   0  0  2  0  0  0  0  0  0  0  0  0
   23.2922  -20.7230  -13.0218 N   0  0  0  0  0  0  0  0  0  0  0  0
   21.2704  -20.8694  -11.6873 C   0  0  0  0  0  0  0  0  0  0  0  0
   20.4437  -21.3262  -10.8731 O   0  0  0  0  0  0  0  0  0  0  0  0
   20.6378  -20.0960  -12.7071 O   0  0  0  0  0  0  0  0  0  0  0  0
  2  1  1  0
  3  2  1  0
  3  5  1  0
  3  4  1  1
  5  6  1  6
  7  5  1  0
  7  8  2  0
  9 10  1  0
 10 12  1  0
 11 10  2  0
 12 13  1  0
 14 13  1  6
 14 15  1  0
 15  7  1  0
 16 14  1  0
 17 16  2  0
 19 18  1  0
 20 19  1  0
 20 22  1  0
 20 21  1  1
 22 23  1  6
 22 24  1  0
 23 16  1  0
 24 26  1  0
 25 24  2  0
M  END
$$$$
