IQI.pdb
     RDKit          3D

 26 25  0  0  1  0  0  0  0  0999 V2000
   15.9093  -16.9489  -17.5610 C   0  0  0  0  0  0  0  0  0  0  0  0
   16.1253  -15.9912  -16.4330 C   0  0  0  0  0  0  0  0  0  0  0  0
   16.4680  -14.5929  -16.9081 C   0  0  2  0  0  0  0  0  0  0  0  0
   17.6387  -14.5709  -17.8278 C   0  0  0  0  0  0  0  0  0  0  0  0
   16.5967  -13.7321  -15.6830 C   0  0  2  0  0  0  0  0  0  0  0  0
   15.3139  -13.8846  -14.9691 N   0  0  0  0  0  0  0  0  0  0  0  0
   16.7847  -12.2999  -15.9554 C   0  0  0  0  0  0  0  0  0  0  0  0
   16.8537  -11.8811  -17.1574 O   0  0  0  0  0  0  0  0  0  0  0  0
   13.5552   -8.4274  -13.7082 N   0  0  0  0  0  0  0  0  0  0  0  0
   13.4928   -9.0383  -14.9996 C   0  0  0  0  0  0  0  0  0  0  0  0
   12.3596   -9.2528  -15.4772 O   0  0  0  0  0  0  0  0  0  0  0  0
   14.7514   -9.3989  -15.7330 C   0  0  0  0  0  0  0  0  0  0  0  0
   15.9166   -9.0521  -14.8275 C   0  0  0  0  0  0  0  0  0  0  0  0
   17.1031   -9.8999  -15.2575 C   0  0  2  0  0  0  0  0  0  0  0  0
   16.9015  -11.2919  -14.9725 N   0  0  0  0  0  0  0  0  0  0  0  0
   18.3728   -9.3792  -14.6840 C   0  0  0  0  0  0  0  0  0  0  0  0
   18.6925   -9.7951  -13.5598 O   0  0  0  0  0  0  0  0  0  0  0  0
   23.0268  -10.6769  -14.9542 C   0  0  0  0  0  0  0  0  0  0  0  0
   21.7866   -9.9482  -14.6012 C   0  0  0  0  0  0  0  0  0  0  0  0
   21.5909   -8.5676  -15.0622 C   0  0  2  0  0  0  0  0  0  0  0  0
   22.8715   -7.7974  -14.6998 C   0  0  0  0  0  0  0  0  0  0  0  0
   20.3764   -7.8023  -14.7920 C   0  0  2  0  0  0  0  0  0  0  0  0
   19.1910   -8.4599  -15.3599 N   0  0  0  0  0  0  0  0  0  0  0  0
   20.3182   -6.3562  -14.9200 C   0  0  0  0  0  0  0  0  0  0  0  0
   20.8619   -5.4872  -14.2099 O   0  0  0  0  0  0  0  0  0  0  0  0
   19.5520   -5.7746  -15.9751 O   0  0  0  0  0  0  0  0  0  0  0  0
  2  1  1  0
  3  2  1  0
  3  5  1  0
  3  4  1  1
  5  6  1  1
  7  5  1  0
  7  8  2  0
  9 10  1  0
 10 12  1  0
 11 10  2  0
 12 13  1  0
 14 13  1  1
 14 15  1  0
 15  7  1  0
 16 14  1  0
 17 16  2  0
 19 18  1  0
 20 19  1  0
 20 22  1  0
 20 21  1  1
 22 23  1  6
 22 24  1  0
 23 16  1  0
 24 26  1  0
 25 24  2  0
M  END
$$$$
