IQI.pdb
     RDKit          3D

 26 25  0  0  1  0  0  0  0  0999 V2000
   27.9600  -18.3060  -17.8722 C   0  0  0  0  0  0  0  0  0  0  0  0
   28.1821  -19.1865  -16.6841 C   0  0  0  0  0  0  0  0  0  0  0  0
   27.3843  -18.7482  -15.4717 C   0  0  2  0  0  0  0  0  0  0  0  0
   27.5764  -17.3073  -15.1495 C   0  0  0  0  0  0  0  0  0  0  0  0
   27.7131  -19.7048  -14.3603 C   0  0  2  0  0  0  0  0  0  0  0  0
   27.4512  -21.0464  -14.9173 N   0  0  0  0  0  0  0  0  0  0  0  0
   26.8840  -19.5556  -13.1558 C   0  0  0  0  0  0  0  0  0  0  0  0
   27.1036  -18.5987  -12.3426 O   0  0  0  0  0  0  0  0  0  0  0  0
   21.1327  -21.7256  -12.4280 N   0  0  0  0  0  0  0  0  0  0  0  0
   21.7102  -20.8558  -13.4051 C   0  0  0  0  0  0  0  0  0  0  0  0
   21.0180  -20.5806  -14.4068 O   0  0  0  0  0  0  0  0  0  0  0  0
   23.0940  -20.3078  -13.2138 C   0  0  0  0  0  0  0  0  0  0  0  0
   23.5807  -20.7746  -11.8562 C   0  0  0  0  0  0  0  0  0  0  0  0
   24.9749  -20.2061  -11.6456 C   0  0  2  0  0  0  0  0  0  0  0  0
   25.8164  -20.4059  -12.7907 N   0  0  0  0  0  0  0  0  0  0  0  0
   25.5849  -20.7266  -10.3929 C   0  0  0  0  0  0  0  0  0  0  0  0
   26.2610  -21.7625  -10.4866 O   0  0  0  0  0  0  0  0  0  0  0  0
   28.9268  -18.6893   -6.9326 C   0  0  0  0  0  0  0  0  0  0  0  0
   28.0347  -19.6258   -7.6542 C   0  0  0  0  0  0  0  0  0  0  0  0
   26.7103  -19.9463   -7.1061 C   0  0  2  0  0  0  0  0  0  0  0  0
   26.9416  -20.4870   -5.6853 C   0  0  0  0  0  0  0  0  0  0  0  0
   25.7063  -20.7088   -7.8438 C   0  0  2  0  0  0  0  0  0  0  0  0
   25.4204  -20.0964   -9.1490 N   0  0  0  0  0  0  0  0  0  0  0  0
   24.5118  -21.2445   -7.2135 C   0  0  0  0  0  0  0  0  0  0  0  0
   23.3374  -20.8324   -7.2899 O   0  0  0  0  0  0  0  0  0  0  0  0
   24.6159  -22.3956   -6.3754 O   0  0  0  0  0  0  0  0  0  0  0  0
  2  1  1  0
  3  2  1  0
  3  5  1  0
  3  4  1  1
  5  6  1  6
  7  5  1  0
  7  8  2  0
  9 10  1  0
 10 12  1  0
 11 10  2  0
 12 13  1  0
 14 13  1  6
 14 15  1  0
 15  7  1  0
 16 14  1  0
 17 16  2  0
 19 18  1  0
 20 19  1  0
 20 22  1  0
 20 21  1  1
 22 23  1  6
 22 24  1  0
 23 16  1  0
 24 26  1  0
 25 24  2  0
M  END
$$$$
