IQI.pdb
     RDKit          3D

 26 25  0  0  1  0  0  0  0  0999 V2000
   21.5385  -17.2602  -21.7332 C   0  0  0  0  0  0  0  0  0  0  0  0
   21.3270  -16.7709  -20.3360 C   0  0  0  0  0  0  0  0  0  0  0  0
   21.6979  -15.3111  -20.1631 C   0  0  2  0  0  0  0  0  0  0  0  0
   23.0776  -15.0105  -20.6353 C   0  0  0  0  0  0  0  0  0  0  0  0
   21.4163  -14.9531  -18.7310 C   0  0  2  0  0  0  0  0  0  0  0  0
   20.0697  -15.4918  -18.4574 N   0  0  0  0  0  0  0  0  0  0  0  0
   21.3810  -13.5100  -18.4540 C   0  0  0  0  0  0  0  0  0  0  0  0
   22.4445  -12.8139  -18.5504 O   0  0  0  0  0  0  0  0  0  0  0  0
   16.4256   -9.7692  -16.9596 N   0  0  0  0  0  0  0  0  0  0  0  0
   17.5173   -8.8530  -17.0753 C   0  0  0  0  0  0  0  0  0  0  0  0
   17.2680   -7.6414  -16.9071 O   0  0  0  0  0  0  0  0  0  0  0  0
   18.8986   -9.3498  -17.3870 C   0  0  0  0  0  0  0  0  0  0  0  0
   18.8145  -10.8563  -17.5317 C   0  0  0  0  0  0  0  0  0  0  0  0
   20.2200  -11.3738  -17.7925 C   0  0  2  0  0  0  0  0  0  0  0  0
   20.2320  -12.7809  -18.0741 N   0  0  0  0  0  0  0  0  0  0  0  0
   21.1429  -11.0067  -16.6853 C   0  0  0  0  0  0  0  0  0  0  0  0
   21.2212  -11.7995  -15.7343 O   0  0  0  0  0  0  0  0  0  0  0  0
   26.4888  -10.6888  -15.0094 C   0  0  0  0  0  0  0  0  0  0  0  0
   25.1973  -10.0019  -14.7774 C   0  0  0  0  0  0  0  0  0  0  0  0
   24.1349  -10.0767  -15.7886 C   0  0  2  0  0  0  0  0  0  0  0  0
   24.7963   -9.7775  -17.1442 C   0  0  0  0  0  0  0  0  0  0  0  0
   22.8406   -9.4174  -15.6343 C   0  0  2  0  0  0  0  0  0  0  0  0
   21.9020   -9.8255  -16.6892 N   0  0  0  0  0  0  0  0  0  0  0  0
   22.7150   -8.0089  -15.3004 C   0  0  0  0  0  0  0  0  0  0  0  0
   23.2784   -7.3694  -14.3902 O   0  0  0  0  0  0  0  0  0  0  0  0
   21.8449   -7.1792  -16.0704 O   0  0  0  0  0  0  0  0  0  0  0  0
  2  1  1  0
  3  2  1  0
  3  5  1  0
  3  4  1  1
  5  6  1  6
  7  5  1  0
  7  8  2  0
  9 10  1  0
 10 12  1  0
 11 10  2  0
 12 13  1  0
 14 13  1  1
 14 15  1  0
 15  7  1  0
 16 14  1  0
 17 16  2  0
 19 18  1  0
 20 19  1  0
 20 22  1  0
 20 21  1  6
 22 23  1  6
 22 24  1  0
 23 16  1  0
 24 26  1  0
 25 24  2  0
M  END
$$$$
