IQI.pdb
     RDKit          3D

 26 25  0  0  1  0  0  0  0  0999 V2000
   13.4250  -13.0631  -15.6127 C   0  0  0  0  0  0  0  0  0  0  0  0
   14.5988  -12.6572  -14.7799 C   0  0  0  0  0  0  0  0  0  0  0  0
   14.7058  -11.1545  -14.6098 C   0  0  2  0  0  0  0  0  0  0  0  0
   14.6479  -10.4253  -15.9066 C   0  0  0  0  0  0  0  0  0  0  0  0
   15.9306  -10.8927  -13.7793 C   0  0  2  0  0  0  0  0  0  0  0  0
   15.7800  -11.7533  -12.5897 N   0  0  0  0  0  0  0  0  0  0  0  0
   16.0694   -9.5069  -13.3090 C   0  0  0  0  0  0  0  0  0  0  0  0
   16.2015   -8.5568  -14.1485 O   0  0  0  0  0  0  0  0  0  0  0  0
   14.8488   -7.1083   -7.5732 N   0  0  0  0  0  0  0  0  0  0  0  0
   13.9565   -6.7455   -8.6300 C   0  0  0  0  0  0  0  0  0  0  0  0
   12.8511   -6.2642   -8.3060 O   0  0  0  0  0  0  0  0  0  0  0  0
   14.3533   -6.9440  -10.0636 C   0  0  0  0  0  0  0  0  0  0  0  0
   15.7307   -7.5768  -10.0671 C   0  0  0  0  0  0  0  0  0  0  0  0
   16.1602   -7.7386  -11.5165 C   0  0  2  0  0  0  0  0  0  0  0  0
   16.0705   -9.1019  -11.9556 N   0  0  0  0  0  0  0  0  0  0  0  0
   17.5081   -7.1536  -11.7471 C   0  0  0  0  0  0  0  0  0  0  0  0
   18.4842   -7.8697  -11.4758 O   0  0  0  0  0  0  0  0  0  0  0  0
   21.9668   -6.9542  -14.5178 C   0  0  0  0  0  0  0  0  0  0  0  0
   21.2161   -5.9664  -13.7089 C   0  0  0  0  0  0  0  0  0  0  0  0
   19.8004   -6.1996  -13.3953 C   0  0  2  0  0  0  0  0  0  0  0  0
   19.1205   -6.6112  -14.7117 C   0  0  0  0  0  0  0  0  0  0  0  0
   18.9944   -5.2675  -12.6110 C   0  0  2  0  0  0  0  0  0  0  0  0
   17.6973   -5.8553  -12.2471 N   0  0  0  0  0  0  0  0  0  0  0  0
   18.8862   -3.8568  -12.9417 C   0  0  0  0  0  0  0  0  0  0  0  0
   17.8974   -3.2293  -13.3703 O   0  0  0  0  0  0  0  0  0  0  0  0
   20.0242   -3.0091  -12.7848 O   0  0  0  0  0  0  0  0  0  0  0  0
  2  1  1  0
  3  2  1  0
  3  5  1  0
  3  4  1  6
  5  6  1  1
  7  5  1  0
  7  8  2  0
  9 10  1  0
 10 12  1  0
 11 10  2  0
 12 13  1  0
 14 13  1  1
 14 15  1  0
 15  7  1  0
 16 14  1  0
 17 16  2  0
 19 18  1  0
 20 19  1  0
 20 22  1  0
 20 21  1  6
 22 23  1  6
 22 24  1  0
 23 16  1  0
 24 26  1  0
 25 24  2  0
M  END
$$$$
