IQI.pdb
     RDKit          3D

 26 25  0  0  1  0  0  0  0  0999 V2000
   27.2558  -15.6577  -19.4126 C   0  0  0  0  0  0  0  0  0  0  0  0
   27.9235  -16.5493  -18.4148 C   0  0  0  0  0  0  0  0  0  0  0  0
   26.9374  -17.2424  -17.4951 C   0  0  2  0  0  0  0  0  0  0  0  0
   25.9894  -16.2923  -16.8507 C   0  0  0  0  0  0  0  0  0  0  0  0
   27.7405  -18.0901  -16.5490 C   0  0  2  0  0  0  0  0  0  0  0  0
   28.5007  -19.0152  -17.4120 N   0  0  0  0  0  0  0  0  0  0  0  0
   26.9401  -18.9044  -15.6233 C   0  0  0  0  0  0  0  0  0  0  0  0
   26.2045  -19.8445  -16.0706 O   0  0  0  0  0  0  0  0  0  0  0  0
   27.4118  -21.6338  -11.1029 N   0  0  0  0  0  0  0  0  0  0  0  0
   26.0653  -21.3646  -10.7039 C   0  0  0  0  0  0  0  0  0  0  0  0
   25.4645  -22.2605  -10.0757 O   0  0  0  0  0  0  0  0  0  0  0  0
   25.4204  -20.0513  -11.0376 C   0  0  0  0  0  0  0  0  0  0  0  0
   26.4071  -19.2642  -11.8770 C   0  0  0  0  0  0  0  0  0  0  0  0
   26.0632  -19.5033  -13.3384 C   0  0  2  0  0  0  0  0  0  0  0  0
   26.9023  -18.7433  -14.2203 N   0  0  0  0  0  0  0  0  0  0  0  0
   24.6155  -19.2777  -13.5947 C   0  0  0  0  0  0  0  0  0  0  0  0
   24.2162  -18.1036  -13.5603 O   0  0  0  0  0  0  0  0  0  0  0  0
   20.2742  -19.9138  -17.4087 C   0  0  0  0  0  0  0  0  0  0  0  0
   20.5435  -19.9719  -15.9535 C   0  0  0  0  0  0  0  0  0  0  0  0
   21.9110  -20.2013  -15.4695 C   0  0  2  0  0  0  0  0  0  0  0  0
   22.4263  -21.4595  -16.1877 C   0  0  0  0  0  0  0  0  0  0  0  0
   22.2701  -20.1726  -14.0538 C   0  0  2  0  0  0  0  0  0  0  0  0
   23.7199  -20.3245  -13.8654 N   0  0  0  0  0  0  0  0  0  0  0  0
   21.5061  -20.8771  -13.0384 C   0  0  0  0  0  0  0  0  0  0  0  0
   21.8072  -21.9141  -12.4146 O   0  0  0  0  0  0  0  0  0  0  0  0
   20.2258  -20.3784  -12.6505 O   0  0  0  0  0  0  0  0  0  0  0  0
  2  1  1  0
  3  2  1  0
  3  5  1  0
  3  4  1  1
  5  6  1  6
  7  5  1  0
  7  8  2  0
  9 10  1  0
 10 12  1  0
 11 10  2  0
 12 13  1  0
 14 13  1  1
 14 15  1  0
 15  7  1  0
 16 14  1  0
 17 16  2  0
 19 18  1  0
 20 19  1  0
 20 22  1  0
 20 21  1  1
 22 23  1  6
 22 24  1  0
 23 16  1  0
 24 26  1  0
 25 24  2  0
M  END
$$$$
