IQI.pdb
     RDKit          3D

 26 25  0  0  1  0  0  0  0  0999 V2000
   23.4289  -20.7596  -10.0606 C   0  0  0  0  0  0  0  0  0  0  0  0
   23.6048  -21.1075  -11.5043 C   0  0  0  0  0  0  0  0  0  0  0  0
   24.9492  -21.7452  -11.7946 C   0  0  2  0  0  0  0  0  0  0  0  0
   25.6112  -22.2704  -10.5687 C   0  0  0  0  0  0  0  0  0  0  0  0
   25.7499  -20.7440  -12.5788 C   0  0  2  0  0  0  0  0  0  0  0  0
   25.9372  -19.6003  -11.6649 N   0  0  0  0  0  0  0  0  0  0  0  0
   25.0865  -20.2397  -13.7897 C   0  0  0  0  0  0  0  0  0  0  0  0
   25.5089  -20.5855  -14.9417 O   0  0  0  0  0  0  0  0  0  0  0  0
   20.3694  -20.3705  -15.8926 N   0  0  0  0  0  0  0  0  0  0  0  0
   20.5273  -19.1733  -16.6584 C   0  0  0  0  0  0  0  0  0  0  0  0
   19.9486  -19.1200  -17.7633 O   0  0  0  0  0  0  0  0  0  0  0  0
   21.3599  -18.0394  -16.1359 C   0  0  0  0  0  0  0  0  0  0  0  0
   21.9186  -18.4704  -14.7944 C   0  0  0  0  0  0  0  0  0  0  0  0
   23.3805  -18.8340  -14.9989 C   0  0  2  0  0  0  0  0  0  0  0  0
   23.9740  -19.3691  -13.8069 N   0  0  0  0  0  0  0  0  0  0  0  0
   24.1485  -17.6864  -15.5517 C   0  0  0  0  0  0  0  0  0  0  0  0
   24.4238  -16.7658  -14.7671 O   0  0  0  0  0  0  0  0  0  0  0  0
   28.9257  -17.9799  -16.5947 C   0  0  0  0  0  0  0  0  0  0  0  0
   27.5464  -17.4733  -16.4083 C   0  0  0  0  0  0  0  0  0  0  0  0
   26.7892  -16.9671  -17.5604 C   0  0  2  0  0  0  0  0  0  0  0  0
   27.6760  -15.9101  -18.2393 C   0  0  0  0  0  0  0  0  0  0  0  0
   25.3890  -16.5595  -17.4763 C   0  0  2  0  0  0  0  0  0  0  0  0
   24.5558  -17.6211  -16.8938 N   0  0  0  0  0  0  0  0  0  0  0  0
   24.7125  -15.8573  -18.5534 C   0  0  0  0  0  0  0  0  0  0  0  0
   23.7219  -16.2182  -19.2193 O   0  0  0  0  0  0  0  0  0  0  0  0
   25.1895  -14.5762  -18.9654 O   0  0  0  0  0  0  0  0  0  0  0  0
  2  1  1  0
  3  2  1  0
  3  5  1  0
  3  4  1  1
  5  6  1  1
  7  5  1  0
  7  8  2  0
  9 10  1  0
 10 12  1  0
 11 10  2  0
 12 13  1  0
 14 13  1  1
 14 15  1  0
 15  7  1  0
 16 14  1  0
 17 16  2  0
 19 18  1  0
 20 19  1  0
 20 22  1  0
 20 21  1  1
 22 23  1  6
 22 24  1  0
 23 16  1  0
 24 26  1  0
 25 24  2  0
M  END
$$$$
