IQI.pdb
     RDKit          3D

 26 25  0  0  1  0  0  0  0  0999 V2000
   19.3211  -14.8293  -21.8487 C   0  0  0  0  0  0  0  0  0  0  0  0
   19.4672  -14.4391  -20.4125 C   0  0  0  0  0  0  0  0  0  0  0  0
   19.4031  -12.9390  -20.2027 C   0  0  2  0  0  0  0  0  0  0  0  0
   20.3249  -12.1942  -21.1040 C   0  0  0  0  0  0  0  0  0  0  0  0
   19.6018  -12.6921  -18.7337 C   0  0  2  0  0  0  0  0  0  0  0  0
   18.5932  -13.5349  -18.0620 N   0  0  0  0  0  0  0  0  0  0  0  0
   19.3740  -11.3039  -18.3076 C   0  0  0  0  0  0  0  0  0  0  0  0
   20.2094  -10.3934  -18.6207 O   0  0  0  0  0  0  0  0  0  0  0  0
   14.0011   -8.4724  -16.5983 N   0  0  0  0  0  0  0  0  0  0  0  0
   14.9753   -7.4449  -16.3983 C   0  0  0  0  0  0  0  0  0  0  0  0
   14.5603   -6.3265  -16.0303 O   0  0  0  0  0  0  0  0  0  0  0  0
   16.4322   -7.7219  -16.6275 C   0  0  0  0  0  0  0  0  0  0  0  0
   16.5634   -9.1921  -16.9724 C   0  0  0  0  0  0  0  0  0  0  0  0
   18.0401   -9.4869  -17.1817 C   0  0  2  0  0  0  0  0  0  0  0  0
   18.2691  -10.8547  -17.5503 N   0  0  0  0  0  0  0  0  0  0  0  0
   18.8443   -9.0729  -16.0009 C   0  0  0  0  0  0  0  0  0  0  0  0
   18.6858   -9.7254  -14.9578 O   0  0  0  0  0  0  0  0  0  0  0  0
   23.4941  -10.0787  -14.9540 C   0  0  0  0  0  0  0  0  0  0  0  0
   22.1108   -9.5513  -14.9989 C   0  0  0  0  0  0  0  0  0  0  0  0
   21.8726   -8.1069  -14.8812 C   0  0  2  0  0  0  0  0  0  0  0  0
   22.7290   -7.6147  -13.7027 C   0  0  0  0  0  0  0  0  0  0  0  0
   20.5365   -7.5165  -14.8933 C   0  0  2  0  0  0  0  0  0  0  0  0
   19.7477   -7.9987  -16.0360 N   0  0  0  0  0  0  0  0  0  0  0  0
   20.3001   -6.1101  -14.6154 C   0  0  0  0  0  0  0  0  0  0  0  0
   20.2049   -5.1611  -15.4188 O   0  0  0  0  0  0  0  0  0  0  0  0
   20.1490   -5.6769  -13.2635 O   0  0  0  0  0  0  0  0  0  0  0  0
  2  1  1  0
  3  2  1  0
  3  5  1  0
  3  4  1  6
  5  6  1  1
  7  5  1  0
  7  8  2  0
  9 10  1  0
 10 12  1  0
 11 10  2  0
 12 13  1  0
 14 13  1  1
 14 15  1  0
 15  7  1  0
 16 14  1  0
 17 16  2  0
 19 18  1  0
 20 19  1  0
 20 22  1  0
 20 21  1  1
 22 23  1  6
 22 24  1  0
 23 16  1  0
 24 26  1  0
 25 24  2  0
M  END
$$$$
