IQI.pdb
     RDKit          3D

 26 25  0  0  1  0  0  0  0  0999 V2000
   28.1953  -18.4334  -17.7749 C   0  0  0  0  0  0  0  0  0  0  0  0
   28.2989  -19.3927  -16.6324 C   0  0  0  0  0  0  0  0  0  0  0  0
   27.6035  -18.8924  -15.3815 C   0  0  2  0  0  0  0  0  0  0  0  0
   27.9976  -17.5019  -15.0238 C   0  0  0  0  0  0  0  0  0  0  0  0
   27.8328  -19.9212  -14.3103 C   0  0  2  0  0  0  0  0  0  0  0  0
   27.4367  -21.2059  -14.9195 N   0  0  0  0  0  0  0  0  0  0  0  0
   27.0222  -19.7371  -13.0980 C   0  0  0  0  0  0  0  0  0  0  0  0
   27.2749  -18.7762  -12.2994 O   0  0  0  0  0  0  0  0  0  0  0  0
   21.2522  -21.8160  -12.2236 N   0  0  0  0  0  0  0  0  0  0  0  0
   21.6386  -20.5967  -12.8628 C   0  0  0  0  0  0  0  0  0  0  0  0
   20.7555  -19.9725  -13.4864 O   0  0  0  0  0  0  0  0  0  0  0  0
   23.0541  -20.1061  -12.7747 C   0  0  0  0  0  0  0  0  0  0  0  0
   23.7404  -20.9017  -11.6823 C   0  0  0  0  0  0  0  0  0  0  0  0
   25.1500  -20.3532  -11.5284 C   0  0  2  0  0  0  0  0  0  0  0  0
   25.9387  -20.5565  -12.7099 N   0  0  0  0  0  0  0  0  0  0  0  0
   25.8062  -20.8900  -10.3063 C   0  0  0  0  0  0  0  0  0  0  0  0
   26.4255  -21.9583  -10.4256 O   0  0  0  0  0  0  0  0  0  0  0  0
   29.3018  -19.7921   -5.6370 C   0  0  0  0  0  0  0  0  0  0  0  0
   28.1047  -20.5428   -6.0805 C   0  0  0  0  0  0  0  0  0  0  0  0
   27.3551  -20.0961   -7.2619 C   0  0  2  0  0  0  0  0  0  0  0  0
   27.0928  -18.5927   -7.0735 C   0  0  0  0  0  0  0  0  0  0  0  0
   26.1933  -20.8105   -7.7851 C   0  0  2  0  0  0  0  0  0  0  0  0
   25.7443  -20.2403   -9.0632 N   0  0  0  0  0  0  0  0  0  0  0  0
   25.0816  -21.2187   -6.9434 C   0  0  0  0  0  0  0  0  0  0  0  0
   25.1019  -21.9035   -5.9015 O   0  0  0  0  0  0  0  0  0  0  0  0
   23.7545  -20.8245   -7.2924 O   0  0  0  0  0  0  0  0  0  0  0  0
  2  1  1  0
  3  2  1  0
  3  5  1  0
  3  4  1  1
  5  6  1  6
  7  5  1  0
  7  8  2  0
  9 10  1  0
 10 12  1  0
 11 10  2  0
 12 13  1  0
 14 13  1  6
 14 15  1  0
 15  7  1  0
 16 14  1  0
 17 16  2  0
 19 18  1  0
 20 19  1  0
 20 22  1  0
 20 21  1  1
 22 23  1  6
 22 24  1  0
 23 16  1  0
 24 26  1  0
 25 24  2  0
M  END
$$$$
