IQI.pdb
     RDKit          3D

 26 25  0  0  1  0  0  0  0  0999 V2000
   16.4708  -28.9464   -4.8770 C   0  0  0  0  0  0  0  0  0  0  0  0
   16.0257  -27.5188   -4.8927 C   0  0  0  0  0  0  0  0  0  0  0  0
   16.3236  -26.7972   -3.5931 C   0  0  2  0  0  0  0  0  0  0  0  0
   15.7848  -27.5126   -2.4037 C   0  0  0  0  0  0  0  0  0  0  0  0
   15.8513  -25.3802   -3.7594 C   0  0  2  0  0  0  0  0  0  0  0  0
   16.6561  -24.8342   -4.8696 N   0  0  0  0  0  0  0  0  0  0  0  0
   16.0691  -24.5186   -2.5886 C   0  0  0  0  0  0  0  0  0  0  0  0
   17.1236  -23.8072   -2.5052 O   0  0  0  0  0  0  0  0  0  0  0  0
   12.1281  -20.9076    0.3184 N   0  0  0  0  0  0  0  0  0  0  0  0
   13.2929  -20.7429    1.1314 C   0  0  0  0  0  0  0  0  0  0  0  0
   13.2708  -19.8325    1.9853 O   0  0  0  0  0  0  0  0  0  0  0  0
   14.4823  -21.6394    0.9484 C   0  0  0  0  0  0  0  0  0  0  0  0
   14.1542  -22.6005   -0.1769 C   0  0  0  0  0  0  0  0  0  0  0  0
   15.3724  -23.4823   -0.4001 C   0  0  2  0  0  0  0  0  0  0  0  0
   15.1851  -24.3924   -1.4938 N   0  0  0  0  0  0  0  0  0  0  0  0
   15.7733  -24.1741    0.8540 C   0  0  0  0  0  0  0  0  0  0  0  0
   15.2794  -25.2934    1.0596 O   0  0  0  0  0  0  0  0  0  0  0  0
   20.9418  -24.4369    1.9424 C   0  0  0  0  0  0  0  0  0  0  0  0
   19.4780  -24.6563    1.8900 C   0  0  0  0  0  0  0  0  0  0  0  0
   18.6363  -24.2622    3.0272 C   0  0  2  0  0  0  0  0  0  0  0  0
   19.2042  -24.9786    4.2636 C   0  0  0  0  0  0  0  0  0  0  0  0
   17.1764  -24.2844    2.9829 C   0  0  2  0  0  0  0  0  0  0  0  0
   16.6663  -23.6113    1.7798 N   0  0  0  0  0  0  0  0  0  0  0  0
   16.3541  -24.0210    4.1514 C   0  0  0  0  0  0  0  0  0  0  0  0
   15.9746  -22.9243    4.6077 O   0  0  0  0  0  0  0  0  0  0  0  0
   15.8804  -25.1144    4.9379 O   0  0  0  0  0  0  0  0  0  0  0  0
  2  1  1  0
  3  2  1  0
  3  5  1  0
  3  4  1  1
  5  6  1  6
  7  5  1  0
  7  8  2  0
  9 10  1  0
 10 12  1  0
 11 10  2  0
 12 13  1  0
 14 13  1  1
 14 15  1  0
 15  7  1  0
 16 14  1  0
 17 16  2  0
 19 18  1  0
 20 19  1  0
 20 22  1  0
 20 21  1  1
 22 23  1  6
 22 24  1  0
 23 16  1  0
 24 26  1  0
 25 24  2  0
M  END
$$$$
