NEE.pdb
     RDKit          3D

 27 26  0  0  1  0  0  0  0  0999 V2000
   27.7574  -11.5231  -17.4774 N   0  0  0  0  0  0  0  0  0  0  0  0
   27.3680  -10.7559  -16.3521 C   0  0  0  0  0  0  0  0  0  0  0  0
   28.2010  -10.7018  -15.3986 O   0  0  0  0  0  0  0  0  0  0  0  0
   26.1158  -10.0308  -16.1871 C   0  0  0  0  0  0  0  0  0  0  0  0
   25.0933  -10.2269  -17.2443 C   0  0  2  0  0  0  0  0  0  0  0  0
   25.4875   -9.8558  -18.5706 N   0  0  0  0  0  0  0  0  0  0  0  0
   23.7821   -9.6467  -16.9334 C   0  0  0  0  0  0  0  0  0  0  0  0
   23.4567   -8.5397  -17.4696 O   0  0  0  0  0  0  0  0  0  0  0  0
   22.8830  -10.2906  -16.0567 N   0  0  0  0  0  0  0  0  0  0  0  0
   21.5549   -9.6882  -15.8743 C   0  0  1  0  0  0  0  0  0  0  0  0
   20.5949  -10.7877  -15.4451 C   0  0  0  0  0  0  0  0  0  0  0  0
   19.1896  -10.2887  -15.3011 C   0  0  0  0  0  0  0  0  0  0  0  0
   18.2577  -11.4251  -14.9941 C   0  0  0  0  0  0  0  0  0  0  0  0
   17.7282  -11.5350  -13.8784 O   0  0  0  0  0  0  0  0  0  0  0  0
   21.6289   -8.5537  -14.9433 C   0  0  0  0  0  0  0  0  0  0  0  0
   22.7213   -8.4165  -14.2929 O   0  0  0  0  0  0  0  0  0  0  0  0
   17.9850  -12.3680  -15.9768 O   0  0  0  0  0  0  0  0  0  0  0  0
   20.6368   -7.5991  -14.6900 N   0  0  0  0  0  0  0  0  0  0  0  0
   20.9154   -6.2893  -14.2147 C   0  0  1  0  0  0  0  0  0  0  0  0
   22.1114   -5.6320  -14.8306 C   0  0  0  0  0  0  0  0  0  0  0  0
   22.4693   -4.2842  -14.2707 C   0  0  0  0  0  0  0  0  0  0  0  0
   22.2717   -3.1797  -15.1942 C   0  0  0  0  0  0  0  0  0  0  0  0
   21.9673   -3.3200  -16.4018 O   0  0  0  0  0  0  0  0  0  0  0  0
   19.7260   -5.4139  -14.0916 C   0  0  0  0  0  0  0  0  0  0  0  0
   18.8103   -5.4787  -14.9455 O   0  0  0  0  0  0  0  0  0  0  0  0
   22.4259   -1.8725  -14.7277 O   0  0  0  0  0  0  0  0  0  0  0  0
   19.5572   -4.5020  -13.0625 O   0  0  0  0  0  0  0  0  0  0  0  0
  2  1  1  0
  3  2  2  0
  4  5  1  0
  4  2  1  0
  5  6  1  6
  7  5  1  0
  7  8  2  0
  9  7  1  0
 10  9  1  0
 10 11  1  1
 11 12  1  0
 12 13  1  0
 13 17  1  0
 14 13  2  0
 15 10  1  0
 16 15  2  0
 18 15  1  0
 19 20  1  6
 19 18  1  0
 20 21  1  0
 21 22  1  0
 22 26  1  0
 23 22  2  0
 24 19  1  0
 25 24  2  0
 27 24  1  0
M  END
$$$$
