NEE.pdb
     RDKit          3D

 27 26  0  0  1  0  0  0  0  0999 V2000
   13.6706  -11.3769  -15.5774 N   0  0  0  0  0  0  0  0  0  0  0  0
   13.8528  -10.2816  -14.6977 C   0  0  0  0  0  0  0  0  0  0  0  0
   12.8351   -9.5545  -14.4941 O   0  0  0  0  0  0  0  0  0  0  0  0
   15.0841   -9.9145  -14.0121 C   0  0  0  0  0  0  0  0  0  0  0  0
   16.2497  -10.8085  -14.2211 C   0  0  2  0  0  0  0  0  0  0  0  0
   16.1551  -12.1076  -13.6247 N   0  0  0  0  0  0  0  0  0  0  0  0
   17.5445  -10.2022  -13.8916 C   0  0  0  0  0  0  0  0  0  0  0  0
   17.8929  -10.1217  -12.6705 O   0  0  0  0  0  0  0  0  0  0  0  0
   18.4029   -9.7106  -14.8980 N   0  0  0  0  0  0  0  0  0  0  0  0
   19.7142   -9.1907  -14.4856 C   0  0  1  0  0  0  0  0  0  0  0  0
   20.7018   -9.4596  -15.6113 C   0  0  0  0  0  0  0  0  0  0  0  0
   22.0600   -8.8985  -15.3196 C   0  0  0  0  0  0  0  0  0  0  0  0
   22.9762   -9.1056  -16.4908 C   0  0  0  0  0  0  0  0  0  0  0  0
   23.2173   -8.1847  -17.2852 O   0  0  0  0  0  0  0  0  0  0  0  0
   19.6080   -7.7766  -14.1003 C   0  0  0  0  0  0  0  0  0  0  0  0
   18.5832   -7.1419  -14.5267 O   0  0  0  0  0  0  0  0  0  0  0  0
   23.5627  -10.3493  -16.6865 O   0  0  0  0  0  0  0  0  0  0  0  0
   20.5029   -7.0436  -13.3118 N   0  0  0  0  0  0  0  0  0  0  0  0
   20.3022   -5.6807  -12.9631 C   0  0  1  0  0  0  0  0  0  0  0  0
   19.1471   -5.4242  -12.0457 C   0  0  0  0  0  0  0  0  0  0  0  0
   19.3662   -5.8020  -10.6078 C   0  0  0  0  0  0  0  0  0  0  0  0
   18.2668   -5.4556   -9.7229 C   0  0  0  0  0  0  0  0  0  0  0  0
   17.7127   -6.2638   -8.9417 O   0  0  0  0  0  0  0  0  0  0  0  0
   21.5413   -4.9465  -12.6144 C   0  0  0  0  0  0  0  0  0  0  0  0
   21.4987   -3.7111  -12.4051 O   0  0  0  0  0  0  0  0  0  0  0  0
   17.7820   -4.1459   -9.7276 O   0  0  0  0  0  0  0  0  0  0  0  0
   22.7798   -5.5568  -12.5018 O   0  0  0  0  0  0  0  0  0  0  0  0
  2  1  1  0
  3  2  2  0
  4  5  1  0
  4  2  1  0
  5  6  1  1
  7  5  1  0
  7  8  2  0
  9  7  1  0
 10  9  1  0
 10 11  1  6
 11 12  1  0
 12 13  1  0
 13 17  1  0
 14 13  2  0
 15 10  1  0
 16 15  2  0
 18 15  1  0
 19 20  1  1
 19 18  1  0
 20 21  1  0
 21 22  1  0
 22 26  1  0
 23 22  2  0
 24 19  1  0
 25 24  2  0
 27 24  1  0
M  END
$$$$
