NEE.pdb
     RDKit          3D

 27 26  0  0  1  0  0  0  0  0999 V2000
   36.1494  -34.5176   -2.1877 N   0  0  0  0  0  0  0  0  0  0  0  0
   34.8777  -35.1186   -2.0196 C   0  0  0  0  0  0  0  0  0  0  0  0
   34.8667  -36.3818   -1.9194 O   0  0  0  0  0  0  0  0  0  0  0  0
   33.5953  -34.4318   -1.9515 C   0  0  0  0  0  0  0  0  0  0  0  0
   32.4071  -35.2752   -1.6711 C   0  0  2  0  0  0  0  0  0  0  0  0
   32.1430  -36.3165   -2.6188 N   0  0  0  0  0  0  0  0  0  0  0  0
   31.1777  -34.5198   -1.4052 C   0  0  0  0  0  0  0  0  0  0  0  0
   31.2103  -33.5702   -0.5591 O   0  0  0  0  0  0  0  0  0  0  0  0
   29.9695  -34.8265   -2.0668 N   0  0  0  0  0  0  0  0  0  0  0  0
   28.7818  -34.0301   -1.7272 C   0  0  1  0  0  0  0  0  0  0  0  0
   27.8643  -34.0133   -2.9408 C   0  0  0  0  0  0  0  0  0  0  0  0
   26.6595  -33.1486   -2.7283 C   0  0  0  0  0  0  0  0  0  0  0  0
   25.7954  -33.1413   -3.9560 C   0  0  0  0  0  0  0  0  0  0  0  0
   26.1306  -32.5128   -4.9708 O   0  0  0  0  0  0  0  0  0  0  0  0
   28.1531  -34.5425   -0.5018 C   0  0  0  0  0  0  0  0  0  0  0  0
   28.0722  -35.8134   -0.3875 O   0  0  0  0  0  0  0  0  0  0  0  0
   24.6012  -33.8506   -3.9538 O   0  0  0  0  0  0  0  0  0  0  0  0
   27.6348  -33.7939    0.5616 N   0  0  0  0  0  0  0  0  0  0  0  0
   27.0314  -34.3779    1.7078 C   0  0  1  0  0  0  0  0  0  0  0  0
   27.8942  -34.4121    2.9309 C   0  0  0  0  0  0  0  0  0  0  0  0
   27.3050  -35.1184    4.1192 C   0  0  0  0  0  0  0  0  0  0  0  0
   28.0921  -35.0042    5.3355 C   0  0  0  0  0  0  0  0  0  0  0  0
   28.4697  -35.9822    6.0221 O   0  0  0  0  0  0  0  0  0  0  0  0
   25.6332  -33.9512    1.9514 C   0  0  0  0  0  0  0  0  0  0  0  0
   25.3402  -32.7323    1.9409 O   0  0  0  0  0  0  0  0  0  0  0  0
   28.4613  -33.7345    5.7850 O   0  0  0  0  0  0  0  0  0  0  0  0
   24.5996  -34.8402    2.1973 O   0  0  0  0  0  0  0  0  0  0  0  0
  2  1  1  0
  3  2  2  0
  4  5  1  0
  4  2  1  0
  5  6  1  6
  7  5  1  0
  7  8  2  0
  9  7  1  0
 10  9  1  0
 10 11  1  6
 11 12  1  0
 12 13  1  0
 13 17  1  0
 14 13  2  0
 15 10  1  0
 16 15  2  0
 18 15  1  0
 19 20  1  1
 19 18  1  0
 20 21  1  0
 21 22  1  0
 22 26  1  0
 23 22  2  0
 24 19  1  0
 25 24  2  0
 27 24  1  0
M  END
$$$$
