NEE.pdb
     RDKit          3D

 27 26  0  0  1  0  0  0  0  0999 V2000
   16.7960  -12.9553  -16.4190 N   0  0  0  0  0  0  0  0  0  0  0  0
   17.3819  -12.7601  -15.1441 C   0  0  0  0  0  0  0  0  0  0  0  0
   17.5442  -13.8009  -14.4396 O   0  0  0  0  0  0  0  0  0  0  0  0
   17.8113  -11.4919  -14.5712 C   0  0  0  0  0  0  0  0  0  0  0  0
   17.6364  -10.2886  -15.4214 C   0  0  2  0  0  0  0  0  0  0  0  0
   18.3404  -10.2980  -16.6690 N   0  0  0  0  0  0  0  0  0  0  0  0
   17.8701   -9.0174  -14.7270 C   0  0  0  0  0  0  0  0  0  0  0  0
   17.1791   -8.7448  -13.6941 O   0  0  0  0  0  0  0  0  0  0  0  0
   18.8406   -8.0995  -15.1819 N   0  0  0  0  0  0  0  0  0  0  0  0
   19.0124   -6.8526  -14.4230 C   0  0  1  0  0  0  0  0  0  0  0  0
   20.4695   -6.4298  -14.5370 C   0  0  0  0  0  0  0  0  0  0  0  0
   20.7474   -5.1517  -13.8063 C   0  0  0  0  0  0  0  0  0  0  0  0
   22.1876   -4.7585  -13.9654 C   0  0  0  0  0  0  0  0  0  0  0  0
   23.0664   -5.2380  -13.2339 O   0  0  0  0  0  0  0  0  0  0  0  0
   18.0517   -5.8379  -14.8781 C   0  0  0  0  0  0  0  0  0  0  0  0
   17.8773   -5.7395  -16.1409 O   0  0  0  0  0  0  0  0  0  0  0  0
   22.5401   -3.8428  -14.9483 O   0  0  0  0  0  0  0  0  0  0  0  0
   17.2990   -4.9663  -14.0821 N   0  0  0  0  0  0  0  0  0  0  0  0
   16.4615   -3.9488  -14.6135 C   0  0  1  0  0  0  0  0  0  0  0  0
   15.0260   -4.0262  -14.1952 C   0  0  0  0  0  0  0  0  0  0  0  0
   14.1378   -2.9356  -14.7245 C   0  0  0  0  0  0  0  0  0  0  0  0
   12.7623   -3.0047  -14.2608 C   0  0  0  0  0  0  0  0  0  0  0  0
   12.3273   -3.8845  -13.4816 O   0  0  0  0  0  0  0  0  0  0  0  0
   17.0442   -2.5870  -14.5685 C   0  0  0  0  0  0  0  0  0  0  0  0
   17.5933   -2.1758  -13.5191 O   0  0  0  0  0  0  0  0  0  0  0  0
   11.8519   -2.0405  -14.6989 O   0  0  0  0  0  0  0  0  0  0  0  0
   17.0196   -1.7143  -15.6441 O   0  0  0  0  0  0  0  0  0  0  0  0
  2  1  1  0
  3  2  2  0
  4  5  1  0
  4  2  1  0
  5  6  1  6
  7  5  1  0
  7  8  2  0
  9  7  1  0
 10  9  1  0
 10 11  1  6
 11 12  1  0
 12 13  1  0
 13 17  1  0
 14 13  2  0
 15 10  1  0
 16 15  2  0
 18 15  1  0
 19 20  1  1
 19 18  1  0
 20 21  1  0
 21 22  1  0
 22 26  1  0
 23 22  2  0
 24 19  1  0
 25 24  2  0
 27 24  1  0
M  END
$$$$
