NEE.pdb
     RDKit          3D

 27 26  0  0  1  0  0  0  0  0999 V2000
   17.9316  -15.7054  -17.1834 N   0  0  0  0  0  0  0  0  0  0  0  0
   18.7644  -14.5892  -16.9243 C   0  0  0  0  0  0  0  0  0  0  0  0
   19.9057  -14.8461  -16.4370 O   0  0  0  0  0  0  0  0  0  0  0  0
   18.4389  -13.1897  -17.1616 C   0  0  0  0  0  0  0  0  0  0  0  0
   18.3643  -12.3156  -15.9650 C   0  0  2  0  0  0  0  0  0  0  0  0
   17.5231  -12.7813  -14.9031 N   0  0  0  0  0  0  0  0  0  0  0  0
   18.0626  -10.9103  -16.2598 C   0  0  0  0  0  0  0  0  0  0  0  0
   18.6696  -10.3396  -17.2214 O   0  0  0  0  0  0  0  0  0  0  0  0
   17.1184  -10.1868  -15.5006 N   0  0  0  0  0  0  0  0  0  0  0  0
   16.8559   -8.7923  -15.8835 C   0  0  1  0  0  0  0  0  0  0  0  0
   15.3930   -8.4921  -15.5923 C   0  0  0  0  0  0  0  0  0  0  0  0
   15.0320   -7.0728  -15.9082 C   0  0  0  0  0  0  0  0  0  0  0  0
   13.5868   -6.8160  -15.5927 C   0  0  0  0  0  0  0  0  0  0  0  0
   12.6904   -7.1514  -16.3808 O   0  0  0  0  0  0  0  0  0  0  0  0
   17.8025   -7.8891  -15.2143 C   0  0  0  0  0  0  0  0  0  0  0  0
   17.9952   -8.0840  -13.9654 O   0  0  0  0  0  0  0  0  0  0  0  0
   13.2499   -6.1924  -14.3982 O   0  0  0  0  0  0  0  0  0  0  0  0
   18.5241   -6.8381  -15.7926 N   0  0  0  0  0  0  0  0  0  0  0  0
   19.3930   -5.9883  -15.0564 C   0  0  1  0  0  0  0  0  0  0  0  0
   20.7997   -5.9253  -15.5652 C   0  0  0  0  0  0  0  0  0  0  0  0
   21.7605   -5.1411  -14.7165 C   0  0  0  0  0  0  0  0  0  0  0  0
   23.1147   -5.0843  -15.2407 C   0  0  0  0  0  0  0  0  0  0  0  0
   23.8596   -4.0803  -15.1542 O   0  0  0  0  0  0  0  0  0  0  0  0
   18.8085   -4.6752  -14.6955 C   0  0  0  0  0  0  0  0  0  0  0  0
   18.9541   -4.2231  -13.5353 O   0  0  0  0  0  0  0  0  0  0  0  0
   23.6379   -6.2076  -15.8848 O   0  0  0  0  0  0  0  0  0  0  0  0
   18.0905   -3.8930  -15.5854 O   0  0  0  0  0  0  0  0  0  0  0  0
  2  1  1  0
  3  2  2  0
  4  5  1  0
  4  2  1  0
  5  6  1  1
  7  5  1  0
  7  8  2  0
  9  7  1  0
 10  9  1  0
 10 11  1  1
 11 12  1  0
 12 13  1  0
 13 17  1  0
 14 13  2  0
 15 10  1  0
 16 15  2  0
 18 15  1  0
 19 20  1  6
 19 18  1  0
 20 21  1  0
 21 22  1  0
 22 26  1  0
 23 22  2  0
 24 19  1  0
 25 24  2  0
 27 24  1  0
M  END
$$$$
