NEE.pdb
     RDKit          3D

 27 26  0  0  1  0  0  0  0  0999 V2000
   18.7057  -14.4149  -15.3405 N   0  0  0  0  0  0  0  0  0  0  0  0
   19.2232  -13.9303  -16.5668 C   0  0  0  0  0  0  0  0  0  0  0  0
   19.8065  -14.7823  -17.3016 O   0  0  0  0  0  0  0  0  0  0  0  0
   19.1501  -12.5618  -17.0595 C   0  0  0  0  0  0  0  0  0  0  0  0
   18.4755  -11.5765  -16.1787 C   0  0  2  0  0  0  0  0  0  0  0  0
   17.1787  -11.9522  -15.6999 N   0  0  0  0  0  0  0  0  0  0  0  0
   18.4318  -10.2127  -16.7179 C   0  0  0  0  0  0  0  0  0  0  0  0
   19.5025   -9.6961  -17.1714 O   0  0  0  0  0  0  0  0  0  0  0  0
   17.2319   -9.4703  -16.7418 N   0  0  0  0  0  0  0  0  0  0  0  0
   17.2874   -8.0960  -17.2597 C   0  0  1  0  0  0  0  0  0  0  0  0
   15.8688   -7.6642  -17.6003 C   0  0  0  0  0  0  0  0  0  0  0  0
   15.8112   -6.2548  -18.1049 C   0  0  0  0  0  0  0  0  0  0  0  0
   16.2483   -6.1926  -19.5399 C   0  0  0  0  0  0  0  0  0  0  0  0
   17.4379   -6.0125  -19.8392 O   0  0  0  0  0  0  0  0  0  0  0  0
   17.9742   -7.2147  -16.3051 C   0  0  0  0  0  0  0  0  0  0  0  0
   17.7957   -7.4646  -15.0639 O   0  0  0  0  0  0  0  0  0  0  0  0
   15.3038   -6.3395  -20.5476 O   0  0  0  0  0  0  0  0  0  0  0  0
   18.8092   -6.1310  -16.6017 N   0  0  0  0  0  0  0  0  0  0  0  0
   19.5086   -5.3892  -15.6119 C   0  0  1  0  0  0  0  0  0  0  0  0
   20.2697   -6.2141  -14.6210 C   0  0  0  0  0  0  0  0  0  0  0  0
   21.4821   -6.9189  -15.1608 C   0  0  0  0  0  0  0  0  0  0  0  0
   22.2067   -7.7047  -14.1762 C   0  0  0  0  0  0  0  0  0  0  0  0
   22.0092   -7.6372  -12.9405 O   0  0  0  0  0  0  0  0  0  0  0  0
   20.2465   -4.2138  -16.1316 C   0  0  0  0  0  0  0  0  0  0  0  0
   20.7950   -3.4167  -15.3343 O   0  0  0  0  0  0  0  0  0  0  0  0
   23.1887   -8.5966  -14.6128 O   0  0  0  0  0  0  0  0  0  0  0  0
   20.3721   -3.9320  -17.4821 O   0  0  0  0  0  0  0  0  0  0  0  0
  2  1  1  0
  3  2  2  0
  4  5  1  0
  4  2  1  0
  5  6  1  6
  7  5  1  0
  7  8  2  0
  9  7  1  0
 10  9  1  0
 10 11  1  1
 11 12  1  0
 12 13  1  0
 13 17  1  0
 14 13  2  0
 15 10  1  0
 16 15  2  0
 18 15  1  0
 19 20  1  6
 19 18  1  0
 20 21  1  0
 21 22  1  0
 22 26  1  0
 23 22  2  0
 24 19  1  0
 25 24  2  0
 27 24  1  0
M  END
$$$$
