NEE.pdb
     RDKit          3D

 27 26  0  0  1  0  0  0  0  0999 V2000
   22.1446  -14.6833  -18.3696 N   0  0  0  0  0  0  0  0  0  0  0  0
   21.3244  -13.9687  -19.2769 C   0  0  0  0  0  0  0  0  0  0  0  0
   21.5698  -14.1444  -20.5078 O   0  0  0  0  0  0  0  0  0  0  0  0
   20.2377  -13.0614  -18.9352 C   0  0  0  0  0  0  0  0  0  0  0  0
   19.9376  -12.9027  -17.4908 C   0  0  2  0  0  0  0  0  0  0  0  0
   19.3356  -14.0337  -16.8502 N   0  0  0  0  0  0  0  0  0  0  0  0
   19.1896  -11.6851  -17.1582 C   0  0  0  0  0  0  0  0  0  0  0  0
   19.1560  -10.7340  -18.0026 O   0  0  0  0  0  0  0  0  0  0  0  0
   18.5124  -11.5522  -15.9272 N   0  0  0  0  0  0  0  0  0  0  0  0
   17.8491  -10.2712  -15.6456 C   0  0  1  0  0  0  0  0  0  0  0  0
   16.8391  -10.4998  -14.5309 C   0  0  0  0  0  0  0  0  0  0  0  0
   15.6252  -11.2365  -15.0085 C   0  0  0  0  0  0  0  0  0  0  0  0
   14.6436  -11.4143  -13.8864 C   0  0  0  0  0  0  0  0  0  0  0  0
   13.4709  -11.7493  -14.1091 O   0  0  0  0  0  0  0  0  0  0  0  0
   18.8448   -9.2304  -15.3543 C   0  0  0  0  0  0  0  0  0  0  0  0
   20.0392   -9.6271  -15.1286 O   0  0  0  0  0  0  0  0  0  0  0  0
   15.0573  -11.1997  -12.5779 O   0  0  0  0  0  0  0  0  0  0  0  0
   18.6341   -7.8475  -15.3006 N   0  0  0  0  0  0  0  0  0  0  0  0
   19.6822   -6.8928  -15.3962 C   0  0  1  0  0  0  0  0  0  0  0  0
   20.7622   -7.2326  -16.3759 C   0  0  0  0  0  0  0  0  0  0  0  0
   21.9246   -6.2810  -16.4138 C   0  0  0  0  0  0  0  0  0  0  0  0
   22.9203   -6.5909  -17.4260 C   0  0  0  0  0  0  0  0  0  0  0  0
   22.6548   -7.1026  -18.5388 O   0  0  0  0  0  0  0  0  0  0  0  0
   19.2275   -5.4831  -15.4444 C   0  0  0  0  0  0  0  0  0  0  0  0
   18.2116   -5.1758  -16.1118 O   0  0  0  0  0  0  0  0  0  0  0  0
   24.2626   -6.3093  -17.1624 O   0  0  0  0  0  0  0  0  0  0  0  0
   19.8729   -4.4536  -14.7791 O   0  0  0  0  0  0  0  0  0  0  0  0
  2  1  1  0
  3  2  2  0
  4  5  1  0
  4  2  1  0
  5  6  1  6
  7  5  1  0
  7  8  2  0
  9  7  1  0
 10  9  1  0
 10 11  1  1
 11 12  1  0
 12 13  1  0
 13 17  1  0
 14 13  2  0
 15 10  1  0
 16 15  2  0
 18 15  1  0
 19 20  1  6
 19 18  1  0
 20 21  1  0
 21 22  1  0
 22 26  1  0
 23 22  2  0
 24 19  1  0
 25 24  2  0
 27 24  1  0
M  END
$$$$
