NEE.pdb
     RDKit          3D

 27 26  0  0  1  0  0  0  0  0999 V2000
   31.4094  -21.0112  -10.5972 N   0  0  0  0  0  0  0  0  0  0  0  0
   30.0138  -21.1939  -10.7567 C   0  0  0  0  0  0  0  0  0  0  0  0
   29.5188  -22.2204  -10.2023 O   0  0  0  0  0  0  0  0  0  0  0  0
   29.1026  -20.3251  -11.4886 C   0  0  0  0  0  0  0  0  0  0  0  0
   28.1507  -20.9914  -12.4113 C   0  0  2  0  0  0  0  0  0  0  0  0
   28.7289  -21.9016  -13.3544 N   0  0  0  0  0  0  0  0  0  0  0  0
   27.2339  -20.0761  -13.1000 C   0  0  0  0  0  0  0  0  0  0  0  0
   26.5695  -19.2376  -12.4112 O   0  0  0  0  0  0  0  0  0  0  0  0
   27.0777  -20.1099  -14.5021 N   0  0  0  0  0  0  0  0  0  0  0  0
   26.1060  -19.1866  -15.1051 C   0  0  1  0  0  0  0  0  0  0  0  0
   26.5904  -18.8434  -16.5060 C   0  0  0  0  0  0  0  0  0  0  0  0
   27.7859  -17.9408  -16.4869 C   0  0  0  0  0  0  0  0  0  0  0  0
   28.2835  -17.6989  -17.8827 C   0  0  0  0  0  0  0  0  0  0  0  0
   29.2826  -16.9955  -18.0929 O   0  0  0  0  0  0  0  0  0  0  0  0
   24.7541  -19.7607  -15.0573 C   0  0  0  0  0  0  0  0  0  0  0  0
   24.6746  -21.0356  -15.0012 O   0  0  0  0  0  0  0  0  0  0  0  0
   27.6129  -18.2730  -18.9549 O   0  0  0  0  0  0  0  0  0  0  0  0
   23.5382  -19.0669  -15.0611 N   0  0  0  0  0  0  0  0  0  0  0  0
   22.2718  -19.7087  -15.0032 C   0  0  1  0  0  0  0  0  0  0  0  0
   21.4038  -19.2965  -13.8551 C   0  0  0  0  0  0  0  0  0  0  0  0
   20.0922  -20.0213  -13.7423 C   0  0  0  0  0  0  0  0  0  0  0  0
   19.2293  -19.5371  -12.6780 C   0  0  0  0  0  0  0  0  0  0  0  0
   19.5061  -18.5651  -11.9370 O   0  0  0  0  0  0  0  0  0  0  0  0
   21.5694  -19.8014  -16.3048 C   0  0  0  0  0  0  0  0  0  0  0  0
   21.8935  -19.0397  -17.2464 O   0  0  0  0  0  0  0  0  0  0  0  0
   18.0113  -20.1810  -12.4495 O   0  0  0  0  0  0  0  0  0  0  0  0
   20.5474  -20.7029  -16.5540 O   0  0  0  0  0  0  0  0  0  0  0  0
  2  1  1  0
  3  2  2  0
  4  5  1  0
  4  2  1  0
  5  6  1  6
  7  5  1  0
  7  8  2  0
  9  7  1  0
 10  9  1  0
 10 11  1  6
 11 12  1  0
 12 13  1  0
 13 17  1  0
 14 13  2  0
 15 10  1  0
 16 15  2  0
 18 15  1  0
 19 20  1  1
 19 18  1  0
 20 21  1  0
 21 22  1  0
 22 26  1  0
 23 22  2  0
 24 19  1  0
 25 24  2  0
 27 24  1  0
M  END
$$$$
