NEE.pdb
     RDKit          3D

 27 26  0  0  1  0  0  0  0  0999 V2000
   31.6228  -22.6177   -9.9004 N   0  0  0  0  0  0  0  0  0  0  0  0
   30.6983  -21.6845   -9.3701 C   0  0  0  0  0  0  0  0  0  0  0  0
   30.9140  -21.2992   -8.1823 O   0  0  0  0  0  0  0  0  0  0  0  0
   29.5362  -21.1310  -10.0513 C   0  0  0  0  0  0  0  0  0  0  0  0
   29.2798  -21.6222  -11.4277 C   0  0  2  0  0  0  0  0  0  0  0  0
   30.4392  -21.8259  -12.2440 N   0  0  0  0  0  0  0  0  0  0  0  0
   28.2776  -20.8490  -12.1696 C   0  0  0  0  0  0  0  0  0  0  0  0
   27.1574  -20.6046  -11.6180 O   0  0  0  0  0  0  0  0  0  0  0  0
   28.5332  -20.3756  -13.4742 N   0  0  0  0  0  0  0  0  0  0  0  0
   27.4383  -19.6988  -14.1837 C   0  0  1  0  0  0  0  0  0  0  0  0
   28.0236  -19.0189  -15.4125 C   0  0  0  0  0  0  0  0  0  0  0  0
   26.9901  -18.2582  -16.1855 C   0  0  0  0  0  0  0  0  0  0  0  0
   27.6194  -17.5566  -17.3541 C   0  0  0  0  0  0  0  0  0  0  0  0
   26.9483  -17.2392  -18.3471 O   0  0  0  0  0  0  0  0  0  0  0  0
   26.3534  -20.6459  -14.4767 C   0  0  0  0  0  0  0  0  0  0  0  0
   26.4013  -21.7750  -13.8786 O   0  0  0  0  0  0  0  0  0  0  0  0
   28.9756  -17.2587  -17.3212 O   0  0  0  0  0  0  0  0  0  0  0  0
   25.2661  -20.4493  -15.3363 N   0  0  0  0  0  0  0  0  0  0  0  0
   23.9723  -20.9851  -15.0952 C   0  0  1  0  0  0  0  0  0  0  0  0
   23.4986  -20.8859  -13.6784 C   0  0  0  0  0  0  0  0  0  0  0  0
   22.1227  -21.4304  -13.4163 C   0  0  0  0  0  0  0  0  0  0  0  0
   21.3556  -20.6761  -12.4393 C   0  0  0  0  0  0  0  0  0  0  0  0
   21.7997  -19.6883  -11.8087 O   0  0  0  0  0  0  0  0  0  0  0  0
   22.9570  -20.6211  -16.1116 C   0  0  0  0  0  0  0  0  0  0  0  0
   22.0229  -21.4148  -16.3750 O   0  0  0  0  0  0  0  0  0  0  0  0
   20.0397  -21.0592  -12.1711 O   0  0  0  0  0  0  0  0  0  0  0  0
   22.9756  -19.4244  -16.8092 O   0  0  0  0  0  0  0  0  0  0  0  0
  2  1  1  0
  3  2  2  0
  4  5  1  0
  4  2  1  0
  5  6  1  6
  7  5  1  0
  7  8  2  0
  9  7  1  0
 10  9  1  0
 10 11  1  6
 11 12  1  0
 12 13  1  0
 13 17  1  0
 14 13  2  0
 15 10  1  0
 16 15  2  0
 18 15  1  0
 19 20  1  1
 19 18  1  0
 20 21  1  0
 21 22  1  0
 22 26  1  0
 23 22  2  0
 24 19  1  0
 25 24  2  0
 27 24  1  0
M  END
$$$$
