NEE.pdb
     RDKit          3D

 27 26  0  0  1  0  0  0  0  0999 V2000
   13.8269  -12.6268  -11.7550 N   0  0  0  0  0  0  0  0  0  0  0  0
   13.5320  -11.6597  -10.7628 C   0  0  0  0  0  0  0  0  0  0  0  0
   12.3394  -11.6461  -10.3343 O   0  0  0  0  0  0  0  0  0  0  0  0
   14.4574  -10.6899  -10.1937 C   0  0  0  0  0  0  0  0  0  0  0  0
   15.8505  -10.7267  -10.7030 C   0  0  2  0  0  0  0  0  0  0  0  0
   16.5599  -11.9534  -10.4929 N   0  0  0  0  0  0  0  0  0  0  0  0
   16.6800   -9.5928  -10.2800 C   0  0  0  0  0  0  0  0  0  0  0  0
   17.1717   -9.5945   -9.1065 O   0  0  0  0  0  0  0  0  0  0  0  0
   16.9394   -8.5090  -11.1457 N   0  0  0  0  0  0  0  0  0  0  0  0
   17.6674   -7.3551  -10.5991 C   0  0  1  0  0  0  0  0  0  0  0  0
   18.8689   -7.0903  -11.4941 C   0  0  0  0  0  0  0  0  0  0  0  0
   19.6292   -5.8692  -11.0754 C   0  0  0  0  0  0  0  0  0  0  0  0
   20.8020   -5.6433  -11.9851 C   0  0  0  0  0  0  0  0  0  0  0  0
   21.9489   -5.5170  -11.5312 O   0  0  0  0  0  0  0  0  0  0  0  0
   16.7653   -6.2055  -10.4433 C   0  0  0  0  0  0  0  0  0  0  0  0
   15.5189   -6.4267  -10.6237 O   0  0  0  0  0  0  0  0  0  0  0  0
   20.5977   -5.5751  -13.3572 O   0  0  0  0  0  0  0  0  0  0  0  0
   17.1167   -4.8912  -10.1135 N   0  0  0  0  0  0  0  0  0  0  0  0
   16.1729   -3.9060   -9.7161 C   0  0  1  0  0  0  0  0  0  0  0  0
   15.2018   -4.3455   -8.6647 C   0  0  0  0  0  0  0  0  0  0  0  0
   14.2808   -3.2770   -8.1470 C   0  0  0  0  0  0  0  0  0  0  0  0
   13.3630   -3.7258   -7.1134 C   0  0  0  0  0  0  0  0  0  0  0  0
   13.6608   -3.8122   -5.8992 O   0  0  0  0  0  0  0  0  0  0  0  0
   16.7466   -2.5568   -9.5000 C   0  0  0  0  0  0  0  0  0  0  0  0
   15.9888   -1.5820   -9.2828 O   0  0  0  0  0  0  0  0  0  0  0  0
   12.0636   -4.0885   -7.4742 O   0  0  0  0  0  0  0  0  0  0  0  0
   18.1072   -2.2972   -9.5237 O   0  0  0  0  0  0  0  0  0  0  0  0
  2  1  1  0
  3  2  2  0
  4  5  1  0
  4  2  1  0
  5  6  1  1
  7  5  1  0
  7  8  2  0
  9  7  1  0
 10  9  1  0
 10 11  1  6
 11 12  1  0
 12 13  1  0
 13 17  1  0
 14 13  2  0
 15 10  1  0
 16 15  2  0
 18 15  1  0
 19 20  1  1
 19 18  1  0
 20 21  1  0
 21 22  1  0
 22 26  1  0
 23 22  2  0
 24 19  1  0
 25 24  2  0
 27 24  1  0
M  END
$$$$
