NEE.pdb
     RDKit          3D

 27 26  0  0  1  0  0  0  0  0999 V2000
   27.1797  -14.1347  -17.0670 N   0  0  0  0  0  0  0  0  0  0  0  0
   26.9680  -12.7341  -17.0656 C   0  0  0  0  0  0  0  0  0  0  0  0
   27.9757  -12.0180  -16.7867 O   0  0  0  0  0  0  0  0  0  0  0  0
   25.7172  -12.0449  -17.3510 C   0  0  0  0  0  0  0  0  0  0  0  0
   25.0670  -11.3542  -16.2100 C   0  0  2  0  0  0  0  0  0  0  0  0
   25.1003  -12.0497  -14.9581 N   0  0  0  0  0  0  0  0  0  0  0  0
   23.7039  -10.8852  -16.4834 C   0  0  0  0  0  0  0  0  0  0  0  0
   23.5098  -10.0961  -17.4624 O   0  0  0  0  0  0  0  0  0  0  0  0
   22.6133  -11.2915  -15.6853 N   0  0  0  0  0  0  0  0  0  0  0  0
   21.2970  -10.7055  -15.9752 C   0  0  1  0  0  0  0  0  0  0  0  0
   20.2609  -11.8172  -15.9008 C   0  0  0  0  0  0  0  0  0  0  0  0
   18.8657  -11.3048  -16.0889 C   0  0  0  0  0  0  0  0  0  0  0  0
   17.8799  -12.4362  -16.0404 C   0  0  0  0  0  0  0  0  0  0  0  0
   16.6688  -12.2377  -16.2170 O   0  0  0  0  0  0  0  0  0  0  0  0
   21.0312   -9.5712  -15.0796 C   0  0  0  0  0  0  0  0  0  0  0  0
   21.6522   -9.5658  -13.9619 O   0  0  0  0  0  0  0  0  0  0  0  0
   18.3331  -13.7257  -15.7936 O   0  0  0  0  0  0  0  0  0  0  0  0
   20.1753   -8.4886  -15.3143 N   0  0  0  0  0  0  0  0  0  0  0  0
   19.9262   -7.4674  -14.3582 C   0  0  1  0  0  0  0  0  0  0  0  0
   21.1431   -6.7430  -13.8722 C   0  0  0  0  0  0  0  0  0  0  0  0
   21.5921   -5.5885  -14.7231 C   0  0  0  0  0  0  0  0  0  0  0  0
   22.5908   -4.7369  -14.0991 C   0  0  0  0  0  0  0  0  0  0  0  0
   22.9683   -4.8526  -12.9098 O   0  0  0  0  0  0  0  0  0  0  0  0
   18.7749   -6.5915  -14.6799 C   0  0  0  0  0  0  0  0  0  0  0  0
   18.3379   -5.7912  -13.8194 O   0  0  0  0  0  0  0  0  0  0  0  0
   23.1789   -3.7199  -14.8542 O   0  0  0  0  0  0  0  0  0  0  0  0
   18.1323   -6.6017  -15.9071 O   0  0  0  0  0  0  0  0  0  0  0  0
  2  1  1  0
  3  2  2  0
  4  5  1  0
  4  2  1  0
  5  6  1  1
  7  5  1  0
  7  8  2  0
  9  7  1  0
 10  9  1  0
 10 11  1  1
 11 12  1  0
 12 13  1  0
 13 17  1  0
 14 13  2  0
 15 10  1  0
 16 15  2  0
 18 15  1  0
 19 20  1  6
 19 18  1  0
 20 21  1  0
 21 22  1  0
 22 26  1  0
 23 22  2  0
 24 19  1  0
 25 24  2  0
 27 24  1  0
M  END
$$$$
