NEE.pdb
     RDKit          3D

 27 26  0  0  1  0  0  0  0  0999 V2000
   17.3182  -12.5800  -16.3195 N   0  0  0  0  0  0  0  0  0  0  0  0
   16.9743  -11.3295  -16.8893 C   0  0  0  0  0  0  0  0  0  0  0  0
   16.1818  -11.3659  -17.8775 O   0  0  0  0  0  0  0  0  0  0  0  0
   17.4389  -10.0199  -16.4535 C   0  0  0  0  0  0  0  0  0  0  0  0
   18.3989  -10.0010  -15.3223 C   0  0  2  0  0  0  0  0  0  0  0  0
   17.9062  -10.5093  -14.0768 N   0  0  0  0  0  0  0  0  0  0  0  0
   19.0559   -8.7069  -15.1073 C   0  0  0  0  0  0  0  0  0  0  0  0
   18.5992   -7.9265  -14.2121 O   0  0  0  0  0  0  0  0  0  0  0  0
   20.1767   -8.3162  -15.8706 N   0  0  0  0  0  0  0  0  0  0  0  0
   20.7178   -6.9674  -15.6515 C   0  0  1  0  0  0  0  0  0  0  0  0
   22.2335   -7.0460  -15.7570 C   0  0  0  0  0  0  0  0  0  0  0  0
   22.8870   -5.7170  -15.5307 C   0  0  0  0  0  0  0  0  0  0  0  0
   24.3803   -5.8666  -15.4886 C   0  0  0  0  0  0  0  0  0  0  0  0
   24.9363   -6.4789  -14.5649 O   0  0  0  0  0  0  0  0  0  0  0  0
   20.0970   -6.0086  -16.5761 C   0  0  0  0  0  0  0  0  0  0  0  0
   19.5270   -6.4973  -17.6110 O   0  0  0  0  0  0  0  0  0  0  0  0
   25.1504   -5.3095  -16.5014 O   0  0  0  0  0  0  0  0  0  0  0  0
   20.0543   -4.6151  -16.4492 N   0  0  0  0  0  0  0  0  0  0  0  0
   19.0921   -3.7996  -17.1037 C   0  0  1  0  0  0  0  0  0  0  0  0
   17.6945   -4.3365  -17.0950 C   0  0  0  0  0  0  0  0  0  0  0  0
   16.6626   -3.4662  -17.7555 C   0  0  0  0  0  0  0  0  0  0  0  0
   15.2946   -3.7494  -17.3552 C   0  0  0  0  0  0  0  0  0  0  0  0
   14.9824   -4.5237  -16.4206 O   0  0  0  0  0  0  0  0  0  0  0  0
   19.1991   -2.3541  -16.7950 C   0  0  0  0  0  0  0  0  0  0  0  0
   19.6761   -1.9824  -15.6968 O   0  0  0  0  0  0  0  0  0  0  0  0
   14.2475   -3.1308  -18.0417 O   0  0  0  0  0  0  0  0  0  0  0  0
   18.7935   -1.3587  -17.6690 O   0  0  0  0  0  0  0  0  0  0  0  0
  2  1  1  0
  3  2  2  0
  4  5  1  0
  4  2  1  0
  5  6  1  1
  7  5  1  0
  7  8  2  0
  9  7  1  0
 10  9  1  0
 10 11  1  6
 11 12  1  0
 12 13  1  0
 13 17  1  0
 14 13  2  0
 15 10  1  0
 16 15  2  0
 18 15  1  0
 19 20  1  1
 19 18  1  0
 20 21  1  0
 21 22  1  0
 22 26  1  0
 23 22  2  0
 24 19  1  0
 25 24  2  0
 27 24  1  0
M  END
$$$$
