NEE.pdb
     RDKit          3D

 27 26  0  0  1  0  0  0  0  0999 V2000
   26.5104  -15.3365  -15.2511 N   0  0  0  0  0  0  0  0  0  0  0  0
   26.5943  -13.9225  -15.2672 C   0  0  0  0  0  0  0  0  0  0  0  0
   27.6459  -13.4205  -14.7692 O   0  0  0  0  0  0  0  0  0  0  0  0
   25.5989  -12.9999  -15.7953 C   0  0  0  0  0  0  0  0  0  0  0  0
   24.3166  -13.5960  -16.2446 C   0  0  2  0  0  0  0  0  0  0  0  0
   24.4199  -14.6258  -17.2351 N   0  0  0  0  0  0  0  0  0  0  0  0
   23.3022  -12.6160  -16.6487 C   0  0  0  0  0  0  0  0  0  0  0  0
   23.1216  -12.3933  -17.8883 O   0  0  0  0  0  0  0  0  0  0  0  0
   22.5297  -11.9218  -15.6933 N   0  0  0  0  0  0  0  0  0  0  0  0
   21.5432  -10.9500  -16.1858 C   0  0  1  0  0  0  0  0  0  0  0  0
   20.3085  -11.0442  -15.3018 C   0  0  0  0  0  0  0  0  0  0  0  0
   19.2353  -10.0879  -15.7236 C   0  0  0  0  0  0  0  0  0  0  0  0
   18.0393  -10.2108  -14.8242 C   0  0  0  0  0  0  0  0  0  0  0  0
   17.4115  -11.2763  -14.7364 O   0  0  0  0  0  0  0  0  0  0  0  0
   22.1355   -9.6069  -16.2547 C   0  0  0  0  0  0  0  0  0  0  0  0
   23.1916   -9.4101  -15.5612 O   0  0  0  0  0  0  0  0  0  0  0  0
   17.6307   -9.1124  -14.0789 O   0  0  0  0  0  0  0  0  0  0  0  0
   21.6757   -8.5152  -17.0007 N   0  0  0  0  0  0  0  0  0  0  0  0
   22.3622   -7.2732  -17.0732 C   0  0  1  0  0  0  0  0  0  0  0  0
   22.6606   -6.6352  -15.7520 C   0  0  0  0  0  0  0  0  0  0  0  0
   21.4622   -6.1810  -14.9673 C   0  0  0  0  0  0  0  0  0  0  0  0
   21.7774   -5.6101  -13.6686 C   0  0  0  0  0  0  0  0  0  0  0  0
   22.1248   -6.2841  -12.6708 O   0  0  0  0  0  0  0  0  0  0  0  0
   23.4869   -7.2478  -18.0380 C   0  0  0  0  0  0  0  0  0  0  0  0
   23.7360   -8.2594  -18.7355 O   0  0  0  0  0  0  0  0  0  0  0  0
   21.6940   -4.2262  -13.5002 O   0  0  0  0  0  0  0  0  0  0  0  0
   24.3041   -6.1446  -18.2231 O   0  0  0  0  0  0  0  0  0  0  0  0
  2  1  1  0
  3  2  2  0
  4  5  1  0
  4  2  1  0
  5  6  1  6
  7  5  1  0
  7  8  2  0
  9  7  1  0
 10  9  1  0
 10 11  1  1
 11 12  1  0
 12 13  1  0
 13 17  1  0
 14 13  2  0
 15 10  1  0
 16 15  2  0
 18 15  1  0
 19 20  1  1
 19 18  1  0
 20 21  1  0
 21 22  1  0
 22 26  1  0
 23 22  2  0
 24 19  1  0
 25 24  2  0
 27 24  1  0
M  END
$$$$
