GYM.pdb
     RDKit          3D

 25 25  0  0  1  0  0  0  0  0999 V2000
   11.2751  -18.0903   20.5137 N   0  0  0  0  0  0  0  0  0  0  0  0
    9.9581  -18.0912   21.1409 C   0  0  0  0  0  0  0  0  0  0  0  0
    9.8030  -16.8421   21.9441 C   0  0  0  0  0  0  0  0  0  0  0  0
   10.8009  -16.0831   22.0827 O   0  0  0  0  0  0  0  0  0  0  0  0
    7.7391  -12.8648   17.4175 O   0  0  0  0  0  0  0  0  0  0  0  0
    7.6523  -13.2399   18.7688 C   0  0  0  0  0  0  0  0  0  0  0  0
    8.2637  -12.5009   19.7503 C   0  0  0  0  0  0  0  0  0  0  0  0
    8.1723  -12.8769   21.0682 C   0  0  0  0  0  0  0  0  0  0  0  0
    7.4780  -13.9937   21.4848 C   0  0  0  0  0  0  0  0  0  0  0  0
    7.4123  -14.4029   22.8834 C   0  0  0  0  0  0  0  0  0  0  0  0
    8.4717  -15.2734   23.4226 C   0  0  2  0  0  0  0  0  0  0  0  0
    8.5855  -16.4754   22.5552 N   0  0  0  0  0  0  0  0  0  0  0  0
    8.3664  -15.7759   24.7789 C   0  0  0  0  0  0  0  0  0  0  0  0
    8.0530  -15.0195   25.7708 O   0  0  0  0  0  0  0  0  0  0  0  0
    6.8689  -14.7269   20.4912 C   0  0  0  0  0  0  0  0  0  0  0  0
    6.9513  -14.3612   19.1547 C   0  0  0  0  0  0  0  0  0  0  0  0
    5.3008  -20.8419   23.3224 C   0  0  0  0  0  0  0  0  0  0  0  0
    6.1521  -20.7354   24.9368 S   0  0  0  0  0  0  0  0  0  0  0  0
    6.8055  -19.0502   25.1476 C   0  0  0  0  0  0  0  0  0  0  0  0
    7.6195  -18.9451   26.3911 C   0  0  0  0  0  0  0  0  0  0  0  0
    8.3875  -17.6415   26.4764 C   0  0  2  0  0  0  0  0  0  0  0  0
    8.5905  -17.1276   25.1291 N   0  0  0  0  0  0  0  0  0  0  0  0
    9.6145  -17.7458   27.2702 C   0  0  0  0  0  0  0  0  0  0  0  0
   10.7202  -17.5395   26.7212 O   0  0  0  0  0  0  0  0  0  0  0  0
    9.6370  -18.0631   28.6139 O   0  0  0  0  0  0  0  0  0  0  0  0
  1  2  1  0
  3 12  1  0
  3  2  1  0
  4  3  2  0
  6  5  1  0
  7  6  2  0
  8  7  1  0
  9  8  2  0
  9 15  1  0
 10  9  1  0
 11 10  1  6
 11 12  1  0
 13 14  2  0
 13 11  1  0
 15 16  2  0
 16  6  1  0
 18 17  1  0
 19 18  1  0
 20 19  1  0
 21 20  1  6
 21 22  1  0
 22 13  1  0
 23 21  1  0
 24 23  2  0
 25 23  1  0
M  END
$$$$
