GYM.pdb
     RDKit          3D

 25 25  0  0  1  0  0  0  0  0999 V2000
    3.7640  -19.7355   20.4510 N   0  0  0  0  0  0  0  0  0  0  0  0
    5.1794  -19.8810   20.7726 C   0  0  0  0  0  0  0  0  0  0  0  0
    5.4159  -19.3766   22.1579 C   0  0  0  0  0  0  0  0  0  0  0  0
    4.4744  -18.7893   22.7578 O   0  0  0  0  0  0  0  0  0  0  0  0
    9.0760  -19.3103   30.3547 O   0  0  0  0  0  0  0  0  0  0  0  0
    8.7101  -19.5356   29.0170 C   0  0  0  0  0  0  0  0  0  0  0  0
    9.5502  -19.1980   27.9857 C   0  0  0  0  0  0  0  0  0  0  0  0
    9.1822  -19.4227   26.6817 C   0  0  0  0  0  0  0  0  0  0  0  0
    7.9747  -19.9883   26.3282 C   0  0  0  0  0  0  0  0  0  0  0  0
    7.5791  -20.1946   24.9393 C   0  0  0  0  0  0  0  0  0  0  0  0
    6.8310  -19.1319   24.2452 C   0  0  2  0  0  0  0  0  0  0  0  0
    6.6499  -19.5297   22.8242 N   0  0  0  0  0  0  0  0  0  0  0  0
    7.3645  -17.7838   24.2111 C   0  0  0  0  0  0  0  0  0  0  0  0
    8.2449  -17.4136   23.3496 O   0  0  0  0  0  0  0  0  0  0  0  0
    7.1405  -20.3227   27.3713 C   0  0  0  0  0  0  0  0  0  0  0  0
    7.4966  -20.1025   28.6946 C   0  0  0  0  0  0  0  0  0  0  0  0
    6.7321  -10.3600   26.9753 C   0  0  0  0  0  0  0  0  0  0  0  0
    6.1710  -12.0955   27.0997 S   0  0  0  0  0  0  0  0  0  0  0  0
    7.1378  -13.1112   25.9400 C   0  0  0  0  0  0  0  0  0  0  0  0
    6.7623  -14.5490   26.0489 C   0  0  0  0  0  0  0  0  0  0  0  0
    7.5484  -15.4301   25.0991 C   0  0  2  0  0  0  0  0  0  0  0  0
    6.9661  -16.7649   25.1070 N   0  0  0  0  0  0  0  0  0  0  0  0
    8.9918  -15.4036   25.3489 C   0  0  0  0  0  0  0  0  0  0  0  0
    9.7076  -14.5870   24.7265 O   0  0  0  0  0  0  0  0  0  0  0  0
    9.6332  -16.2361   26.2446 O   0  0  0  0  0  0  0  0  0  0  0  0
  1  2  1  0
  3 12  1  0
  3  2  1  0
  4  3  2  0
  6  5  1  0
  7  6  2  0
  8  7  1  0
  9  8  2  0
  9 15  1  0
 10  9  1  0
 11 10  1  6
 11 12  1  0
 13 14  2  0
 13 11  1  0
 15 16  2  0
 16  6  1  0
 18 17  1  0
 19 18  1  0
 20 19  1  0
 21 20  1  1
 21 22  1  0
 22 13  1  0
 23 21  1  0
 24 23  2  0
 25 23  1  0
M  END
$$$$
