GYM.pdb
     RDKit          3D

 25 25  0  0  1  0  0  0  0  0999 V2000
    9.0088  -20.6935   21.3633 N   0  0  0  0  0  0  0  0  0  0  0  0
    8.2615  -19.8074   22.2489 C   0  0  0  0  0  0  0  0  0  0  0  0
    8.8075  -18.4234   22.1231 C   0  0  0  0  0  0  0  0  0  0  0  0
    9.8005  -18.2300   21.3696 O   0  0  0  0  0  0  0  0  0  0  0  0
    6.3492  -12.3702   27.4771 O   0  0  0  0  0  0  0  0  0  0  0  0
    6.6389  -13.0267   26.2691 C   0  0  0  0  0  0  0  0  0  0  0  0
    6.2808  -14.3365   26.0705 C   0  0  0  0  0  0  0  0  0  0  0  0
    6.5691  -14.9684   24.8856 C   0  0  0  0  0  0  0  0  0  0  0  0
    7.2212  -14.3464   23.8412 C   0  0  0  0  0  0  0  0  0  0  0  0
    7.5511  -15.0346   22.5980 C   0  0  0  0  0  0  0  0  0  0  0  0
    8.7203  -15.9305   22.5670 C   0  0  2  0  0  0  0  0  0  0  0  0
    8.2585  -17.3221   22.8129 N   0  0  0  0  0  0  0  0  0  0  0  0
    9.8169  -15.7113   23.4903 C   0  0  0  0  0  0  0  0  0  0  0  0
   10.2981  -14.5413   23.7220 O   0  0  0  0  0  0  0  0  0  0  0  0
    7.5753  -13.0326   24.0522 C   0  0  0  0  0  0  0  0  0  0  0  0
    7.2917  -12.3790   25.2434 C   0  0  0  0  0  0  0  0  0  0  0  0
   10.5953  -12.4275   27.7793 C   0  0  0  0  0  0  0  0  0  0  0  0
   10.4361  -14.0554   28.5959 S   0  0  0  0  0  0  0  0  0  0  0  0
   11.2822  -15.3075   27.5822 C   0  0  0  0  0  0  0  0  0  0  0  0
   10.5405  -15.5579   26.3144 C   0  0  0  0  0  0  0  0  0  0  0  0
   11.2718  -16.5100   25.3897 C   0  0  2  0  0  0  0  0  0  0  0  0
   10.4454  -16.7504   24.2149 N   0  0  0  0  0  0  0  0  0  0  0  0
   11.7292  -17.7291   26.0614 C   0  0  0  0  0  0  0  0  0  0  0  0
   12.5794  -17.6440   26.9759 O   0  0  0  0  0  0  0  0  0  0  0  0
   11.2767  -18.9958   25.7489 O   0  0  0  0  0  0  0  0  0  0  0  0
  1  2  1  0
  3 12  1  0
  3  2  1  0
  4  3  2  0
  6  5  1  0
  7  6  2  0
  8  7  1  0
  9  8  2  0
  9 15  1  0
 10  9  1  0
 11 10  1  1
 11 12  1  0
 13 14  2  0
 13 11  1  0
 15 16  2  0
 16  6  1  0
 18 17  1  0
 19 18  1  0
 20 19  1  0
 21 20  1  1
 21 22  1  0
 22 13  1  0
 23 21  1  0
 24 23  2  0
 25 23  1  0
M  END
$$$$
