GYM.pdb
     RDKit          3D

 25 25  0  0  1  0  0  0  0  0999 V2000
    7.5660  -13.0666   18.0956 N   0  0  0  0  0  0  0  0  0  0  0  0
    8.9147  -13.3506   18.5734 C   0  0  0  0  0  0  0  0  0  0  0  0
    8.8424  -14.3999   19.6332 C   0  0  0  0  0  0  0  0  0  0  0  0
    7.7081  -14.7769   20.0361 O   0  0  0  0  0  0  0  0  0  0  0  0
   10.3596  -19.8121   15.7548 O   0  0  0  0  0  0  0  0  0  0  0  0
   10.4850  -19.1492   16.9872 C   0  0  0  0  0  0  0  0  0  0  0  0
   11.2447  -18.0126   17.1067 C   0  0  0  0  0  0  0  0  0  0  0  0
   11.3604  -17.3727   18.3165 C   0  0  0  0  0  0  0  0  0  0  0  0
   10.7372  -17.8166   19.4643 C   0  0  0  0  0  0  0  0  0  0  0  0
   10.8908  -17.1483   20.7518 C   0  0  0  0  0  0  0  0  0  0  0  0
    9.9027  -16.1305   21.1498 C   0  0  2  0  0  0  0  0  0  0  0  0
    9.9913  -14.9875   20.2033 N   0  0  0  0  0  0  0  0  0  0  0  0
    9.9669  -15.5482   22.4764 C   0  0  0  0  0  0  0  0  0  0  0  0
   11.0117  -14.9358   22.9094 O   0  0  0  0  0  0  0  0  0  0  0  0
    9.9778  -18.9576   19.3319 C   0  0  0  0  0  0  0  0  0  0  0  0
    9.8503  -19.6166   18.1170 C   0  0  0  0  0  0  0  0  0  0  0  0
    6.4146  -11.2698   27.8368 C   0  0  0  0  0  0  0  0  0  0  0  0
    6.2578  -12.2926   26.3296 S   0  0  0  0  0  0  0  0  0  0  0  0
    7.7311  -13.3500   26.1800 C   0  0  0  0  0  0  0  0  0  0  0  0
    7.7566  -14.0467   24.8632 C   0  0  0  0  0  0  0  0  0  0  0  0
    8.9546  -14.9621   24.7112 C   0  0  2  0  0  0  0  0  0  0  0  0
    8.8979  -15.5953   23.4010 N   0  0  0  0  0  0  0  0  0  0  0  0
    9.1082  -15.9010   25.8254 C   0  0  0  0  0  0  0  0  0  0  0  0
    8.6989  -17.0769   25.6981 O   0  0  0  0  0  0  0  0  0  0  0  0
    9.6871  -15.5715   27.0349 O   0  0  0  0  0  0  0  0  0  0  0  0
  1  2  1  0
  3 12  1  0
  3  2  1  0
  4  3  2  0
  6  5  1  0
  7  6  2  0
  8  7  1  0
  9  8  2  0
  9 15  1  0
 10  9  1  0
 11 10  1  6
 11 12  1  0
 13 14  2  0
 13 11  1  0
 15 16  2  0
 16  6  1  0
 18 17  1  0
 19 18  1  0
 20 19  1  0
 21 20  1  1
 21 22  1  0
 22 13  1  0
 23 21  1  0
 24 23  2  0
 25 23  1  0
M  END
$$$$
