GYM.pdb
     RDKit          3D

 25 25  0  0  1  0  0  0  0  0999 V2000
   16.8153  -25.3268   13.4980 N   0  0  0  0  0  0  0  0  0  0  0  0
   15.9963  -25.8161   14.6015 C   0  0  0  0  0  0  0  0  0  0  0  0
   15.8180  -24.7175   15.5969 C   0  0  0  0  0  0  0  0  0  0  0  0
   16.5484  -23.6931   15.5058 O   0  0  0  0  0  0  0  0  0  0  0  0
   12.1050  -19.9664   12.9224 O   0  0  0  0  0  0  0  0  0  0  0  0
   12.4259  -20.7420   14.0491 C   0  0  0  0  0  0  0  0  0  0  0  0
   12.2181  -22.0984   14.0586 C   0  0  0  0  0  0  0  0  0  0  0  0
   12.5355  -22.8469   15.1657 C   0  0  0  0  0  0  0  0  0  0  0  0
   13.0709  -22.3010   16.3138 C   0  0  0  0  0  0  0  0  0  0  0  0
   13.3759  -23.0989   17.4963 C   0  0  0  0  0  0  0  0  0  0  0  0
   14.7204  -23.6856   17.6339 C   0  0  2  0  0  0  0  0  0  0  0  0
   14.8658  -24.7779   16.6360 N   0  0  0  0  0  0  0  0  0  0  0  0
   15.1279  -24.2560   18.9034 C   0  0  0  0  0  0  0  0  0  0  0  0
   14.9761  -25.5034   19.1778 O   0  0  0  0  0  0  0  0  0  0  0  0
   13.2748  -20.9394   16.2923 C   0  0  0  0  0  0  0  0  0  0  0  0
   12.9597  -20.1682   15.1821 C   0  0  0  0  0  0  0  0  0  0  0  0
   18.6848  -21.3565   24.1908 C   0  0  0  0  0  0  0  0  0  0  0  0
   19.3253  -22.9538   23.5739 S   0  0  0  0  0  0  0  0  0  0  0  0
   17.9328  -23.9440   22.9480 C   0  0  0  0  0  0  0  0  0  0  0  0
   17.3557  -23.3349   21.7168 C   0  0  0  0  0  0  0  0  0  0  0  0
   16.1452  -24.0897   21.2055 C   0  0  2  0  0  0  0  0  0  0  0  0
   15.7269  -23.5033   19.9398 N   0  0  0  0  0  0  0  0  0  0  0  0
   15.0736  -24.2018   22.1983 C   0  0  0  0  0  0  0  0  0  0  0  0
   14.2170  -23.2931   22.2822 O   0  0  0  0  0  0  0  0  0  0  0  0
   14.9392  -25.2654   23.0686 O   0  0  0  0  0  0  0  0  0  0  0  0
  1  2  1  0
  3 12  1  0
  3  2  1  0
  4  3  2  0
  6  5  1  0
  7  6  2  0
  8  7  1  0
  9  8  2  0
  9 15  1  0
 10  9  1  0
 11 10  1  1
 11 12  1  0
 13 14  2  0
 13 11  1  0
 15 16  2  0
 16  6  1  0
 18 17  1  0
 19 18  1  0
 20 19  1  0
 21 20  1  1
 21 22  1  0
 22 13  1  0
 23 21  1  0
 24 23  2  0
 25 23  1  0
M  END
$$$$
