GYM.pdb
     RDKit          3D

 25 25  0  0  1  0  0  0  0  0999 V2000
   11.5457  -17.3249   18.7519 N   0  0  0  0  0  0  0  0  0  0  0  0
   10.4811  -17.7966   19.6304 C   0  0  0  0  0  0  0  0  0  0  0  0
   10.2682  -16.7934   20.7157 C   0  0  0  0  0  0  0  0  0  0  0  0
   11.1262  -15.8827   20.8757 O   0  0  0  0  0  0  0  0  0  0  0  0
    5.7632  -11.9357   26.8350 O   0  0  0  0  0  0  0  0  0  0  0  0
    6.2134  -12.8020   25.8246 C   0  0  0  0  0  0  0  0  0  0  0  0
    6.8143  -12.3166   24.6903 C   0  0  0  0  0  0  0  0  0  0  0  0
    7.2506  -13.1727   23.7089 C   0  0  0  0  0  0  0  0  0  0  0  0
    7.1183  -14.5432   23.7937 C   0  0  0  0  0  0  0  0  0  0  0  0
    7.5564  -15.4431   22.7324 C   0  0  0  0  0  0  0  0  0  0  0  0
    8.9736  -15.8416   22.6746 C   0  0  2  0  0  0  0  0  0  0  0  0
    9.1462  -16.8220   21.5704 N   0  0  0  0  0  0  0  0  0  0  0  0
    9.5974  -16.4446   23.8367 C   0  0  0  0  0  0  0  0  0  0  0  0
    9.8675  -17.7006   23.8989 O   0  0  0  0  0  0  0  0  0  0  0  0
    6.5141  -15.0183   24.9361 C   0  0  0  0  0  0  0  0  0  0  0  0
    6.0674  -14.1672   25.9375 C   0  0  0  0  0  0  0  0  0  0  0  0
    9.7940  -13.4414   29.4876 C   0  0  0  0  0  0  0  0  0  0  0  0
   11.0445  -14.7041   29.9164 S   0  0  0  0  0  0  0  0  0  0  0  0
   11.1760  -15.8920   28.5443 C   0  0  0  0  0  0  0  0  0  0  0  0
   10.5574  -15.3452   27.3039 C   0  0  0  0  0  0  0  0  0  0  0  0
   10.5867  -16.3320   26.1542 C   0  0  2  0  0  0  0  0  0  0  0  0
    9.9661  -15.7147   24.9904 N   0  0  0  0  0  0  0  0  0  0  0  0
   10.0340  -17.6427   26.5048 C   0  0  0  0  0  0  0  0  0  0  0  0
   10.8048  -18.5516   26.8874 O   0  0  0  0  0  0  0  0  0  0  0  0
    8.6899  -17.9529   26.4416 O   0  0  0  0  0  0  0  0  0  0  0  0
  1  2  1  0
  3 12  1  0
  3  2  1  0
  4  3  2  0
  6  5  1  0
  7  6  2  0
  8  7  1  0
  9  8  2  0
  9 15  1  0
 10  9  1  0
 11 10  1  1
 11 12  1  0
 13 14  2  0
 13 11  1  0
 15 16  2  0
 16  6  1  0
 18 17  1  0
 19 18  1  0
 20 19  1  0
 21 20  1  1
 21 22  1  0
 22 13  1  0
 23 21  1  0
 24 23  2  0
 25 23  1  0
M  END
$$$$
