GYM.pdb
     RDKit          3D

 25 25  0  0  1  0  0  0  0  0999 V2000
    9.1686  -16.9428   17.9980 N   0  0  0  0  0  0  0  0  0  0  0  0
    8.2177  -17.1728   19.0800 C   0  0  0  0  0  0  0  0  0  0  0  0
    8.5955  -16.3208   20.2465 C   0  0  0  0  0  0  0  0  0  0  0  0
    9.8066  -16.0014   20.3964 O   0  0  0  0  0  0  0  0  0  0  0  0
    7.0738  -11.8329   27.9883 O   0  0  0  0  0  0  0  0  0  0  0  0
    7.0484  -12.4394   26.7212 C   0  0  0  0  0  0  0  0  0  0  0  0
    7.5549  -11.7988   25.6183 C   0  0  0  0  0  0  0  0  0  0  0  0
    7.5249  -12.4011   24.3844 C   0  0  0  0  0  0  0  0  0  0  0  0
    6.9974  -13.6583   24.1743 C   0  0  0  0  0  0  0  0  0  0  0  0
    6.9413  -14.2776   22.8547 C   0  0  0  0  0  0  0  0  0  0  0  0
    8.0632  -15.1262   22.4165 C   0  0  2  0  0  0  0  0  0  0  0  0
    7.6534  -15.8580   21.1890 N   0  0  0  0  0  0  0  0  0  0  0  0
    8.5954  -16.1325   23.3149 C   0  0  0  0  0  0  0  0  0  0  0  0
    8.0555  -17.2925   23.4463 O   0  0  0  0  0  0  0  0  0  0  0  0
    6.4924  -14.2910   25.2881 C   0  0  0  0  0  0  0  0  0  0  0  0
    6.5148  -13.6967   26.5423 C   0  0  0  0  0  0  0  0  0  0  0  0
   14.3574  -17.9132   21.4686 C   0  0  0  0  0  0  0  0  0  0  0  0
   13.9649  -17.4015   23.1793 S   0  0  0  0  0  0  0  0  0  0  0  0
   12.1579  -17.4002   23.3932 C   0  0  0  0  0  0  0  0  0  0  0  0
   11.7861  -17.0375   24.7898 C   0  0  0  0  0  0  0  0  0  0  0  0
   10.2863  -16.9620   24.9927 C   0  0  2  0  0  0  0  0  0  0  0  0
    9.7451  -15.9346   24.1139 N   0  0  0  0  0  0  0  0  0  0  0  0
    9.9012  -16.8132   26.3984 C   0  0  0  0  0  0  0  0  0  0  0  0
    9.4234  -15.7255   26.7922 O   0  0  0  0  0  0  0  0  0  0  0  0
   10.0312  -17.8132   27.3418 O   0  0  0  0  0  0  0  0  0  0  0  0
  1  2  1  0
  3 12  1  0
  3  2  1  0
  4  3  2  0
  6  5  1  0
  7  6  2  0
  8  7  1  0
  9  8  2  0
  9 15  1  0
 10  9  1  0
 11 10  1  1
 11 12  1  0
 13 14  2  0
 13 11  1  0
 15 16  2  0
 16  6  1  0
 18 17  1  0
 19 18  1  0
 20 19  1  0
 21 20  1  1
 21 22  1  0
 22 13  1  0
 23 21  1  0
 24 23  2  0
 25 23  1  0
M  END
$$$$
