GYM.pdb
     RDKit          3D

 25 25  0  0  1  0  0  0  0  0999 V2000
    5.4666  -20.6955   20.3190 N   0  0  0  0  0  0  0  0  0  0  0  0
    6.6525  -20.9410   21.1322 C   0  0  0  0  0  0  0  0  0  0  0  0
    6.5532  -20.1398   22.3882 C   0  0  0  0  0  0  0  0  0  0  0  0
    5.4438  -19.6202   22.6892 O   0  0  0  0  0  0  0  0  0  0  0  0
    5.8713  -24.6030   27.8084 O   0  0  0  0  0  0  0  0  0  0  0  0
    6.4614  -23.4494   27.2651 C   0  0  0  0  0  0  0  0  0  0  0  0
    5.7469  -22.2860   27.1261 C   0  0  0  0  0  0  0  0  0  0  0  0
    6.3338  -21.1642   26.5936 C   0  0  0  0  0  0  0  0  0  0  0  0
    7.6472  -21.1306   26.1732 C   0  0  0  0  0  0  0  0  0  0  0  0
    8.2533  -19.9437   25.5800 C   0  0  0  0  0  0  0  0  0  0  0  0
    7.5127  -19.2082   24.5401 C   0  0  2  0  0  0  0  0  0  0  0  0
    7.6496  -19.9395   23.2530 N   0  0  0  0  0  0  0  0  0  0  0  0
    7.8617  -17.8311   24.2489 C   0  0  0  0  0  0  0  0  0  0  0  0
    8.8896  -17.5162   23.5428 O   0  0  0  0  0  0  0  0  0  0  0  0
    8.3537  -22.3035   26.3178 C   0  0  0  0  0  0  0  0  0  0  0  0
    7.7760  -23.4462   26.8538 C   0  0  0  0  0  0  0  0  0  0  0  0
    6.6605  -10.5042   27.1059 C   0  0  0  0  0  0  0  0  0  0  0  0
    5.9547  -12.1566   26.7692 S   0  0  0  0  0  0  0  0  0  0  0  0
    7.2102  -13.1734   25.9319 C   0  0  0  0  0  0  0  0  0  0  0  0
    6.6775  -14.5295   25.6202 C   0  0  0  0  0  0  0  0  0  0  0  0
    7.6862  -15.4001   24.8983 C   0  0  2  0  0  0  0  0  0  0  0  0
    7.1099  -16.7233   24.7042 N   0  0  0  0  0  0  0  0  0  0  0  0
    9.0042  -15.4074   25.5379 C   0  0  0  0  0  0  0  0  0  0  0  0
    9.8244  -14.5024   25.2644 O   0  0  0  0  0  0  0  0  0  0  0  0
    9.4147  -16.3656   26.4435 O   0  0  0  0  0  0  0  0  0  0  0  0
  1  2  1  0
  3 12  1  0
  3  2  1  0
  4  3  2  0
  6  5  1  0
  7  6  2  0
  8  7  1  0
  9  8  2  0
  9 15  1  0
 10  9  1  0
 11 10  1  1
 11 12  1  0
 13 14  2  0
 13 11  1  0
 15 16  2  0
 16  6  1  0
 18 17  1  0
 19 18  1  0
 20 19  1  0
 21 20  1  1
 21 22  1  0
 22 13  1  0
 23 21  1  0
 24 23  2  0
 25 23  1  0
M  END
$$$$
