GYM.pdb
     RDKit          3D

 25 25  0  0  1  0  0  0  0  0999 V2000
    4.8767  -21.2993   23.5895 N   0  0  0  0  0  0  0  0  0  0  0  0
    6.0666  -20.8516   24.3049 C   0  0  0  0  0  0  0  0  0  0  0  0
    6.1802  -19.3685   24.1759 C   0  0  0  0  0  0  0  0  0  0  0  0
    5.5888  -18.7964   23.2197 O   0  0  0  0  0  0  0  0  0  0  0  0
    6.9176  -10.9012   27.0772 O   0  0  0  0  0  0  0  0  0  0  0  0
    6.9813  -12.2908   26.8801 C   0  0  0  0  0  0  0  0  0  0  0  0
    5.8433  -13.0576   26.8653 C   0  0  0  0  0  0  0  0  0  0  0  0
    5.9173  -14.4154   26.6718 C   0  0  0  0  0  0  0  0  0  0  0  0
    7.1091  -15.0840   26.4839 C   0  0  0  0  0  0  0  0  0  0  0  0
    7.1808  -16.5306   26.3103 C   0  0  0  0  0  0  0  0  0  0  0  0
    6.9824  -17.0986   24.9654 C   0  0  2  0  0  0  0  0  0  0  0  0
    6.9224  -18.5796   25.0798 N   0  0  0  0  0  0  0  0  0  0  0  0
    7.9500  -16.8239   23.9206 C   0  0  0  0  0  0  0  0  0  0  0  0
    8.9060  -17.6363   23.6370 O   0  0  0  0  0  0  0  0  0  0  0  0
    8.2438  -14.3042   26.5007 C   0  0  0  0  0  0  0  0  0  0  0  0
    8.1869  -12.9310   26.6951 C   0  0  0  0  0  0  0  0  0  0  0  0
    7.0956  -11.8007   19.9710 C   0  0  0  0  0  0  0  0  0  0  0  0
    8.6641  -12.3775   19.2300 S   0  0  0  0  0  0  0  0  0  0  0  0
    9.1231  -13.9673   19.9871 C   0  0  0  0  0  0  0  0  0  0  0  0
    8.3546  -14.2025   21.2417 C   0  0  0  0  0  0  0  0  0  0  0  0
    8.7518  -15.4897   21.9358 C   0  0  2  0  0  0  0  0  0  0  0  0
    7.9272  -15.6553   23.1247 N   0  0  0  0  0  0  0  0  0  0  0  0
   10.1920  -15.5896   22.1856 C   0  0  0  0  0  0  0  0  0  0  0  0
   10.9697  -15.7846   21.2245 O   0  0  0  0  0  0  0  0  0  0  0  0
   10.7653  -15.4807   23.4371 O   0  0  0  0  0  0  0  0  0  0  0  0
  1  2  1  0
  3 12  1  0
  3  2  1  0
  4  3  2  0
  6  5  1  0
  7  6  2  0
  8  7  1  0
  9  8  2  0
  9 15  1  0
 10  9  1  0
 11 10  1  1
 11 12  1  0
 13 14  2  0
 13 11  1  0
 15 16  2  0
 16  6  1  0
 18 17  1  0
 19 18  1  0
 20 19  1  0
 21 20  1  1
 21 22  1  0
 22 13  1  0
 23 21  1  0
 24 23  2  0
 25 23  1  0
M  END
$$$$
