GYM.pdb
     RDKit          3D

 25 25  0  0  1  0  0  0  0  0999 V2000
   11.8753  -17.9135   19.3800 N   0  0  0  0  0  0  0  0  0  0  0  0
   10.9184  -18.3211   20.4027 C   0  0  0  0  0  0  0  0  0  0  0  0
   10.7722  -17.2171   21.3973 C   0  0  0  0  0  0  0  0  0  0  0  0
   11.6104  -16.2745   21.3837 O   0  0  0  0  0  0  0  0  0  0  0  0
    6.9208  -12.6011   18.6697 O   0  0  0  0  0  0  0  0  0  0  0  0
    7.2648  -13.3143   19.8304 C   0  0  0  0  0  0  0  0  0  0  0  0
    8.1958  -12.8261   20.7126 C   0  0  0  0  0  0  0  0  0  0  0  0
    8.5244  -13.5317   21.8441 C   0  0  0  0  0  0  0  0  0  0  0  0
    7.9563  -14.7476   22.1633 C   0  0  0  0  0  0  0  0  0  0  0  0
    8.3342  -15.5050   23.3514 C   0  0  0  0  0  0  0  0  0  0  0  0
    9.6653  -16.1344   23.4028 C   0  0  2  0  0  0  0  0  0  0  0  0
    9.7346  -17.1844   22.3525 N   0  0  0  0  0  0  0  0  0  0  0  0
   10.1106  -16.7726   24.6265 C   0  0  0  0  0  0  0  0  0  0  0  0
   10.0193  -18.0418   24.8135 O   0  0  0  0  0  0  0  0  0  0  0  0
    7.0238  -15.2270   21.2708 C   0  0  0  0  0  0  0  0  0  0  0  0
    6.6801  -14.5269   20.1226 C   0  0  0  0  0  0  0  0  0  0  0  0
    9.1539  -12.5403   28.2523 C   0  0  0  0  0  0  0  0  0  0  0  0
   10.3143  -13.5117   29.2780 S   0  0  0  0  0  0  0  0  0  0  0  0
   10.2219  -15.2586   28.7771 C   0  0  0  0  0  0  0  0  0  0  0  0
   11.4153  -15.6474   27.9742 C   0  0  0  0  0  0  0  0  0  0  0  0
   11.1026  -16.7148   26.9449 C   0  0  2  0  0  0  0  0  0  0  0  0
   10.6837  -16.0670   25.7098 N   0  0  0  0  0  0  0  0  0  0  0  0
   10.1701  -17.7330   27.4349 C   0  0  0  0  0  0  0  0  0  0  0  0
   10.5554  -18.5544   28.2971 O   0  0  0  0  0  0  0  0  0  0  0  0
    8.8644  -17.8526   27.0019 O   0  0  0  0  0  0  0  0  0  0  0  0
  1  2  1  0
  3 12  1  0
  3  2  1  0
  4  3  2  0
  6  5  1  0
  7  6  2  0
  8  7  1  0
  9  8  2  0
  9 15  1  0
 10  9  1  0
 11 10  1  1
 11 12  1  0
 13 14  2  0
 13 11  1  0
 15 16  2  0
 16  6  1  0
 18 17  1  0
 19 18  1  0
 20 19  1  0
 21 20  1  1
 21 22  1  0
 22 13  1  0
 23 21  1  0
 24 23  2  0
 25 23  1  0
M  END
$$$$
