GYM.pdb
     RDKit          3D

 25 25  0  0  1  0  0  0  0  0999 V2000
    2.6535  -19.2358   21.0933 N   0  0  0  0  0  0  0  0  0  0  0  0
    4.0391  -18.7910   20.9926 C   0  0  0  0  0  0  0  0  0  0  0  0
    4.5538  -18.4948   22.3625 C   0  0  0  0  0  0  0  0  0  0  0  0
    3.8747  -17.7448   23.1158 O   0  0  0  0  0  0  0  0  0  0  0  0
    9.4610  -19.3898   29.8436 O   0  0  0  0  0  0  0  0  0  0  0  0
    8.8514  -19.5139   28.5838 C   0  0  0  0  0  0  0  0  0  0  0  0
    9.5942  -19.4809   27.4304 C   0  0  0  0  0  0  0  0  0  0  0  0
    8.9878  -19.6032   26.2041 C   0  0  0  0  0  0  0  0  0  0  0  0
    7.6262  -19.7634   26.0516 C   0  0  0  0  0  0  0  0  0  0  0  0
    6.9870  -19.8611   24.7440 C   0  0  0  0  0  0  0  0  0  0  0  0
    6.2838  -18.6844   24.2038 C   0  0  2  0  0  0  0  0  0  0  0  0
    5.7694  -19.0193   22.8497 N   0  0  0  0  0  0  0  0  0  0  0  0
    6.9949  -17.4293   24.0549 C   0  0  0  0  0  0  0  0  0  0  0  0
    7.7452  -17.1796   23.0405 O   0  0  0  0  0  0  0  0  0  0  0  0
    6.8915  -19.7951   27.2157 C   0  0  0  0  0  0  0  0  0  0  0  0
    7.4884  -19.6729   28.4629 C   0  0  0  0  0  0  0  0  0  0  0  0
    5.3849  -12.0953   27.2006 C   0  0  0  0  0  0  0  0  0  0  0  0
    7.1034  -11.5813   26.8472 S   0  0  0  0  0  0  0  0  0  0  0  0
    7.8799  -12.8252   25.7698 C   0  0  0  0  0  0  0  0  0  0  0  0
    7.1249  -14.1092   25.8066 C   0  0  0  0  0  0  0  0  0  0  0  0
    7.7120  -15.1572   24.8829 C   0  0  2  0  0  0  0  0  0  0  0  0
    6.9244  -16.3769   24.9967 N   0  0  0  0  0  0  0  0  0  0  0  0
    9.1515  -15.3524   25.0731 C   0  0  0  0  0  0  0  0  0  0  0  0
    9.9525  -14.8562   24.2492 O   0  0  0  0  0  0  0  0  0  0  0  0
    9.6997  -16.0622   26.1231 O   0  0  0  0  0  0  0  0  0  0  0  0
  1  2  1  0
  3 12  1  0
  3  2  1  0
  4  3  2  0
  6  5  1  0
  7  6  2  0
  8  7  1  0
  9  8  2  0
  9 15  1  0
 10  9  1  0
 11 10  1  6
 11 12  1  0
 13 14  2  0
 13 11  1  0
 15 16  2  0
 16  6  1  0
 18 17  1  0
 19 18  1  0
 20 19  1  0
 21 20  1  1
 21 22  1  0
 22 13  1  0
 23 21  1  0
 24 23  2  0
 25 23  1  0
M  END
$$$$
