MNY.pdb
     RDKit          3D

 29 29  0  0  1  0  0  0  0  0999 V2000
   28.1843  -29.3433  -16.6516 C   0  0  0  0  0  0  0  0  0  0  0  0
   28.1898  -27.6498  -16.0130 S   0  0  0  0  0  0  0  0  0  0  0  0
   26.9126  -26.6368  -16.7743 C   0  0  0  0  0  0  0  0  0  0  0  0
   26.8377  -25.2424  -16.2023 C   0  0  0  0  0  0  0  0  0  0  0  0
   25.7933  -24.4423  -16.9092 C   0  0  2  0  0  0  0  0  0  0  0  0
   26.0359  -24.4467  -18.3323 N   0  0  0  0  0  0  0  0  0  0  0  0
   25.6946  -23.0499  -16.4025 C   0  0  0  0  0  0  0  0  0  0  0  0
   25.4428  -22.8412  -15.1892 O   0  0  0  0  0  0  0  0  0  0  0  0
   28.8118  -20.1607  -18.8567 N   0  0  0  0  0  0  0  0  0  0  0  0
   28.0458  -20.0055  -17.6775 C   0  0  0  0  0  0  0  0  0  0  0  0
   28.5996  -20.1341  -16.5652 O   0  0  0  0  0  0  0  0  0  0  0  0
   26.6048  -19.6947  -17.7485 C   0  0  0  0  0  0  0  0  0  0  0  0
   25.7872  -20.5446  -16.8060 C   0  0  2  0  0  0  0  0  0  0  0  0
   25.8744  -21.9169  -17.2384 N   0  0  0  0  0  0  0  0  0  0  0  0
   24.3575  -20.0815  -16.7890 C   0  0  0  0  0  0  0  0  0  0  0  0
   23.8870  -19.5320  -17.8092 O   0  0  0  0  0  0  0  0  0  0  0  0
   18.8079  -25.2188  -14.9851 O   0  0  0  0  0  0  0  0  0  0  0  0
   19.4456  -24.0506  -15.4250 C   0  0  0  0  0  0  0  0  0  0  0  0
   20.7328  -24.1163  -15.9018 C   0  0  0  0  0  0  0  0  0  0  0  0
   21.3636  -22.9718  -16.3349 C   0  0  0  0  0  0  0  0  0  0  0  0
   20.7313  -21.7313  -16.3056 C   0  0  0  0  0  0  0  0  0  0  0  0
   21.4636  -20.5353  -16.7766 C   0  0  0  0  0  0  0  0  0  0  0  0
   22.1343  -19.8124  -15.6360 C   0  0  2  0  0  0  0  0  0  0  0  0
   23.5309  -20.2494  -15.6532 N   0  0  0  0  0  0  0  0  0  0  0  0
   21.5086  -20.0890  -14.3281 C   0  0  0  0  0  0  0  0  0  0  0  0
   20.2456  -19.6122  -14.0246 O   0  0  0  0  0  0  0  0  0  0  0  0
   19.4418  -21.6794  -15.8254 C   0  0  0  0  0  0  0  0  0  0  0  0
   18.8187  -22.8399  -15.3926 C   0  0  0  0  0  0  0  0  0  0  0  0
   22.1096  -20.7638  -13.4612 O   0  0  0  0  0  0  0  0  0  0  0  0
  2  1  1  0
  3  2  1  0
  4  5  1  0
  4  3  1  0
  5  6  1  6
  7  8  2  0
  7  5  1  0
  9 10  1  0
 10 12  1  0
 11 10  2  0
 13 12  1  6
 13 14  1  0
 14  7  1  0
 15 24  1  0
 15 13  1  0
 16 15  2  0
 18 17  1  0
 19 18  2  0
 20 19  1  0
 21 27  1  0
 21 20  2  0
 22 21  1  0
 23 22  1  6
 23 24  1  0
 25 23  1  0
 26 25  1  0
 27 28  2  0
 28 18  1  0
 29 25  2  0
M  END
$$$$
