MNY.pdb
     RDKit          3D

 29 29  0  0  1  0  0  0  0  0999 V2000
   20.4220  -20.8599  -16.4058 C   0  0  0  0  0  0  0  0  0  0  0  0
   20.3587  -19.0513  -16.4313 S   0  0  0  0  0  0  0  0  0  0  0  0
   19.1892  -18.4336  -17.6510 C   0  0  0  0  0  0  0  0  0  0  0  0
   19.1387  -16.9270  -17.7192 C   0  0  0  0  0  0  0  0  0  0  0  0
   18.5505  -16.3659  -16.4663 C   0  0  2  0  0  0  0  0  0  0  0  0
   17.2345  -16.9146  -16.2404 N   0  0  0  0  0  0  0  0  0  0  0  0
   18.5021  -14.8817  -16.4681 C   0  0  0  0  0  0  0  0  0  0  0  0
   17.4223  -14.2905  -16.7209 O   0  0  0  0  0  0  0  0  0  0  0  0
   16.1336  -12.0061  -15.3857 N   0  0  0  0  0  0  0  0  0  0  0  0
   17.4051  -11.6646  -15.9036 C   0  0  0  0  0  0  0  0  0  0  0  0
   17.4789  -10.9663  -16.9367 O   0  0  0  0  0  0  0  0  0  0  0  0
   18.6397  -12.1237  -15.2381 C   0  0  0  0  0  0  0  0  0  0  0  0
   19.6643  -12.6376  -16.2206 C   0  0  2  0  0  0  0  0  0  0  0  0
   19.6395  -14.0785  -16.1926 N   0  0  0  0  0  0  0  0  0  0  0  0
   21.0317  -12.1216  -15.8701 C   0  0  0  0  0  0  0  0  0  0  0  0
   21.9538  -12.9413  -15.6657 O   0  0  0  0  0  0  0  0  0  0  0  0
   28.9323   -9.2013  -15.7128 O   0  0  0  0  0  0  0  0  0  0  0  0
   27.6111   -9.6376  -15.8828 C   0  0  0  0  0  0  0  0  0  0  0  0
   26.7709   -8.9514  -16.7263 C   0  0  0  0  0  0  0  0  0  0  0  0
   25.4724   -9.3758  -16.8966 C   0  0  0  0  0  0  0  0  0  0  0  0
   24.9745  -10.4941  -16.2327 C   0  0  0  0  0  0  0  0  0  0  0  0
   23.5676  -10.8967  -16.4495 C   0  0  0  0  0  0  0  0  0  0  0  0
   22.6426  -10.2285  -15.4638 C   0  0  2  0  0  0  0  0  0  0  0  0
   21.3040  -10.7373  -15.7652 N   0  0  0  0  0  0  0  0  0  0  0  0
   22.6797   -8.7550  -15.5431 C   0  0  0  0  0  0  0  0  0  0  0  0
   21.7445   -8.0552  -16.2850 O   0  0  0  0  0  0  0  0  0  0  0  0
   25.8266  -11.1726  -15.3902 C   0  0  0  0  0  0  0  0  0  0  0  0
   27.1319  -10.7339  -15.2283 C   0  0  0  0  0  0  0  0  0  0  0  0
   23.5619   -8.1038  -14.9385 O   0  0  0  0  0  0  0  0  0  0  0  0
  2  1  1  0
  3  2  1  0
  4  5  1  0
  4  3  1  0
  5  6  1  6
  7  8  2  0
  7  5  1  0
  9 10  1  0
 10 12  1  0
 11 10  2  0
 13 12  1  1
 13 14  1  0
 14  7  1  0
 15 24  1  0
 15 13  1  0
 16 15  2  0
 18 17  1  0
 19 18  2  0
 20 19  1  0
 21 27  1  0
 21 20  2  0
 22 21  1  0
 23 22  1  6
 23 24  1  0
 25 23  1  0
 26 25  1  0
 27 28  2  0
 28 18  1  0
 29 25  2  0
M  END
$$$$
