MNY.pdb
     RDKit          3D

 29 29  0  0  1  0  0  0  0  0999 V2000
   34.5579  -26.0567  -27.3160 C   0  0  0  0  0  0  0  0  0  0  0  0
   35.3463  -26.5263  -25.7560 S   0  0  0  0  0  0  0  0  0  0  0  0
   34.2319  -26.3463  -24.3551 C   0  0  0  0  0  0  0  0  0  0  0  0
   33.5777  -27.6422  -23.9432 C   0  0  0  0  0  0  0  0  0  0  0  0
   32.4029  -27.3777  -23.0598 C   0  0  2  0  0  0  0  0  0  0  0  0
   32.7945  -27.4416  -21.6718 N   0  0  0  0  0  0  0  0  0  0  0  0
   31.2669  -28.2973  -23.3228 C   0  0  0  0  0  0  0  0  0  0  0  0
   30.8453  -28.4525  -24.4964 O   0  0  0  0  0  0  0  0  0  0  0  0
   27.9461  -32.1992  -23.0343 N   0  0  0  0  0  0  0  0  0  0  0  0
   29.2475  -32.2344  -23.5878 C   0  0  0  0  0  0  0  0  0  0  0  0
   29.5768  -33.1917  -24.3198 O   0  0  0  0  0  0  0  0  0  0  0  0
   30.2158  -31.1559  -23.3100 C   0  0  0  0  0  0  0  0  0  0  0  0
   29.6105  -30.0363  -22.4980 C   0  0  2  0  0  0  0  0  0  0  0  0
   30.6184  -29.0266  -22.2921 N   0  0  0  0  0  0  0  0  0  0  0  0
   29.1024  -30.5575  -21.1831 C   0  0  0  0  0  0  0  0  0  0  0  0
   29.9003  -30.6667  -20.2263 O   0  0  0  0  0  0  0  0  0  0  0  0
   27.2582  -33.4299  -13.6287 O   0  0  0  0  0  0  0  0  0  0  0  0
   27.5001  -32.8529  -14.8830 C   0  0  0  0  0  0  0  0  0  0  0  0
   28.6666  -33.1398  -15.5505 C   0  0  0  0  0  0  0  0  0  0  0  0
   28.9090  -32.5756  -16.7827 C   0  0  0  0  0  0  0  0  0  0  0  0
   27.9980  -31.7109  -17.3842 C   0  0  0  0  0  0  0  0  0  0  0  0
   28.3180  -31.1288  -18.7060 C   0  0  0  0  0  0  0  0  0  0  0  0
   27.2529  -31.4489  -19.7242 C   0  0  2  0  0  0  0  0  0  0  0  0
   27.7495  -30.9275  -20.9981 N   0  0  0  0  0  0  0  0  0  0  0  0
   25.9388  -30.8660  -19.3892 C   0  0  0  0  0  0  0  0  0  0  0  0
   25.0327  -31.5519  -18.5996 O   0  0  0  0  0  0  0  0  0  0  0  0
   26.8333  -31.4316  -16.7047 C   0  0  0  0  0  0  0  0  0  0  0  0
   26.6022  -32.0070  -15.4645 C   0  0  0  0  0  0  0  0  0  0  0  0
   25.6140  -29.7338  -19.8141 O   0  0  0  0  0  0  0  0  0  0  0  0
  2  1  1  0
  3  2  1  0
  4  5  1  0
  4  3  1  0
  5  6  1  1
  7  8  2  0
  7  5  1  0
  9 10  1  0
 10 12  1  0
 11 10  2  0
 13 12  1  6
 13 14  1  0
 14  7  1  0
 15 24  1  0
 15 13  1  0
 16 15  2  0
 18 17  1  0
 19 18  2  0
 20 19  1  0
 21 27  1  0
 21 20  2  0
 22 21  1  0
 23 22  1  1
 23 24  1  0
 25 23  1  0
 26 25  1  0
 27 28  2  0
 28 18  1  0
 29 25  2  0
M  END
$$$$
