MNY.pdb
     RDKit          3D

 29 29  0  0  1  0  0  0  0  0999 V2000
   20.0243  -33.9289  -16.6500 C   0  0  0  0  0  0  0  0  0  0  0  0
   21.2266  -32.6339  -16.2588 S   0  0  0  0  0  0  0  0  0  0  0  0
   22.8942  -33.2884  -16.0928 C   0  0  0  0  0  0  0  0  0  0  0  0
   23.1511  -33.9332  -14.7529 C   0  0  0  0  0  0  0  0  0  0  0  0
   23.7930  -32.9606  -13.8187 C   0  0  2  0  0  0  0  0  0  0  0  0
   25.1987  -32.8290  -14.1197 N   0  0  0  0  0  0  0  0  0  0  0  0
   23.5980  -33.3201  -12.3910 C   0  0  0  0  0  0  0  0  0  0  0  0
   22.5615  -33.9355  -12.0359 O   0  0  0  0  0  0  0  0  0  0  0  0
   25.0538  -34.9371   -7.8560 N   0  0  0  0  0  0  0  0  0  0  0  0
   25.9817  -33.9247   -8.1958 C   0  0  0  0  0  0  0  0  0  0  0  0
   27.0565  -33.8412   -7.5647 O   0  0  0  0  0  0  0  0  0  0  0  0
   25.6933  -32.9702   -9.2838 C   0  0  0  0  0  0  0  0  0  0  0  0
   24.3863  -33.2688   -9.9778 C   0  0  2  0  0  0  0  0  0  0  0  0
   24.5448  -32.9963  -11.3843 N   0  0  0  0  0  0  0  0  0  0  0  0
   23.2806  -32.4341   -9.3950 C   0  0  0  0  0  0  0  0  0  0  0  0
   23.5718  -31.3703   -8.8055 O   0  0  0  0  0  0  0  0  0  0  0  0
   22.1333  -27.3003  -12.8943 O   0  0  0  0  0  0  0  0  0  0  0  0
   21.5853  -28.3836  -12.1938 C   0  0  0  0  0  0  0  0  0  0  0  0
   21.3295  -28.2651  -10.8488 C   0  0  0  0  0  0  0  0  0  0  0  0
   20.7913  -29.3262  -10.1562 C   0  0  0  0  0  0  0  0  0  0  0  0
   20.4931  -30.5338  -10.7824 C   0  0  0  0  0  0  0  0  0  0  0  0
   19.9240  -31.6412   -9.9836 C   0  0  0  0  0  0  0  0  0  0  0  0
   20.8488  -32.0484   -8.8644 C   0  0  2  0  0  0  0  0  0  0  0  0
   21.9225  -32.8176   -9.4944 N   0  0  0  0  0  0  0  0  0  0  0  0
   20.1749  -32.8394   -7.8161 C   0  0  0  0  0  0  0  0  0  0  0  0
   20.5579  -34.1413   -7.5455 O   0  0  0  0  0  0  0  0  0  0  0  0
   20.7543  -30.6395  -12.1303 C   0  0  0  0  0  0  0  0  0  0  0  0
   21.2964  -29.5627  -12.8153 C   0  0  0  0  0  0  0  0  0  0  0  0
   19.2381  -32.3477   -7.1463 O   0  0  0  0  0  0  0  0  0  0  0  0
  2  1  1  0
  3  2  1  0
  4  5  1  0
  4  3  1  0
  5  6  1  6
  7  8  2  0
  7  5  1  0
  9 10  1  0
 10 12  1  0
 11 10  2  0
 13 12  1  1
 13 14  1  0
 14  7  1  0
 15 24  1  0
 15 13  1  0
 16 15  2  0
 18 17  1  0
 19 18  2  0
 20 19  1  0
 21 27  1  0
 21 20  2  0
 22 21  1  0
 23 22  1  6
 23 24  1  0
 25 23  1  0
 26 25  1  0
 27 28  2  0
 28 18  1  0
 29 25  2  0
M  END
$$$$
