MNY.pdb
     RDKit          3D

 29 29  0  0  1  0  0  0  0  0999 V2000
   14.1460  -12.7099  -11.6111 C   0  0  0  0  0  0  0  0  0  0  0  0
   14.1771  -12.6115   -9.8041 S   0  0  0  0  0  0  0  0  0  0  0  0
   13.5632  -11.0306   -9.2032 C   0  0  0  0  0  0  0  0  0  0  0  0
   14.2603   -9.8452   -9.8243 C   0  0  0  0  0  0  0  0  0  0  0  0
   13.5678   -8.5759   -9.4503 C   0  0  2  0  0  0  0  0  0  0  0  0
   12.2072   -8.5859   -9.9326 N   0  0  0  0  0  0  0  0  0  0  0  0
   14.2822   -7.3670   -9.9335 C   0  0  0  0  0  0  0  0  0  0  0  0
   14.2810   -7.0865  -11.1585 O   0  0  0  0  0  0  0  0  0  0  0  0
   17.3141   -3.1137  -10.0035 N   0  0  0  0  0  0  0  0  0  0  0  0
   16.7574   -3.2411   -8.7092 C   0  0  0  0  0  0  0  0  0  0  0  0
   16.9665   -2.3480   -7.8612 O   0  0  0  0  0  0  0  0  0  0  0  0
   15.9357   -4.4139   -8.3527 C   0  0  0  0  0  0  0  0  0  0  0  0
   15.8360   -5.4099   -9.4828 C   0  0  2  0  0  0  0  0  0  0  0  0
   14.9822   -6.4923   -9.0620 N   0  0  0  0  0  0  0  0  0  0  0  0
   17.2001   -5.9208   -9.8533 C   0  0  0  0  0  0  0  0  0  0  0  0
   17.8756   -6.5232   -8.9903 O   0  0  0  0  0  0  0  0  0  0  0  0
   22.9492  -10.3828  -14.5787 O   0  0  0  0  0  0  0  0  0  0  0  0
   21.8684   -9.7345  -13.9654 C   0  0  0  0  0  0  0  0  0  0  0  0
   21.0558   -8.9136  -14.7098 C   0  0  0  0  0  0  0  0  0  0  0  0
   19.9929   -8.2745  -14.1121 C   0  0  0  0  0  0  0  0  0  0  0  0
   19.7095   -8.4346  -12.7581 C   0  0  0  0  0  0  0  0  0  0  0  0
   18.5584   -7.7149  -12.1703 C   0  0  0  0  0  0  0  0  0  0  0  0
   18.9771   -6.3947  -11.5742 C   0  0  2  0  0  0  0  0  0  0  0  0
   17.7399   -5.7393  -11.1483 N   0  0  0  0  0  0  0  0  0  0  0  0
   19.7283   -5.5456  -12.5194 C   0  0  0  0  0  0  0  0  0  0  0  0
   21.1026   -5.6532  -12.6404 O   0  0  0  0  0  0  0  0  0  0  0  0
   20.5316   -9.2598  -12.0235 C   0  0  0  0  0  0  0  0  0  0  0  0
   21.5984   -9.8971  -12.6385 C   0  0  0  0  0  0  0  0  0  0  0  0
   19.1360   -4.7059  -13.2350 O   0  0  0  0  0  0  0  0  0  0  0  0
  2  1  1  0
  3  2  1  0
  4  5  1  0
  4  3  1  0
  5  6  1  6
  7  8  2  0
  7  5  1  0
  9 10  1  0
 10 12  1  0
 11 10  2  0
 13 12  1  1
 13 14  1  0
 14  7  1  0
 15 24  1  0
 15 13  1  0
 16 15  2  0
 18 17  1  0
 19 18  2  0
 20 19  1  0
 21 27  1  0
 21 20  2  0
 22 21  1  0
 23 22  1  6
 23 24  1  0
 25 23  1  0
 26 25  1  0
 27 28  2  0
 28 18  1  0
 29 25  2  0
M  END
$$$$
