MNY.pdb
     RDKit          3D

 29 29  0  0  1  0  0  0  0  0999 V2000
   31.0481  -20.5570  -21.4102 C   0  0  0  0  0  0  0  0  0  0  0  0
   31.2070  -18.7724  -21.1540 S   0  0  0  0  0  0  0  0  0  0  0  0
   30.1266  -18.1795  -19.8432 C   0  0  0  0  0  0  0  0  0  0  0  0
   28.7172  -18.7084  -19.9472 C   0  0  0  0  0  0  0  0  0  0  0  0
   27.8545  -18.1114  -18.8842 C   0  0  2  0  0  0  0  0  0  0  0  0
   28.3694  -18.4411  -17.5764 N   0  0  0  0  0  0  0  0  0  0  0  0
   26.4316  -18.5202  -19.0013 C   0  0  0  0  0  0  0  0  0  0  0  0
   25.8668  -18.5081  -20.1238 O   0  0  0  0  0  0  0  0  0  0  0  0
   22.1802  -21.2437  -18.4332 N   0  0  0  0  0  0  0  0  0  0  0  0
   23.4459  -21.8024  -18.7288 C   0  0  0  0  0  0  0  0  0  0  0  0
   23.5166  -22.9847  -19.1260 O   0  0  0  0  0  0  0  0  0  0  0  0
   24.6782  -21.0055  -18.5728 C   0  0  0  0  0  0  0  0  0  0  0  0
   24.4128  -19.6527  -17.9574 C   0  0  2  0  0  0  0  0  0  0  0  0
   25.6597  -18.9333  -17.8841 N   0  0  0  0  0  0  0  0  0  0  0  0
   23.8065  -19.8081  -16.5910 C   0  0  0  0  0  0  0  0  0  0  0  0
   24.5314  -19.6453  -15.5851 O   0  0  0  0  0  0  0  0  0  0  0  0
   17.4708  -15.6101  -12.6451 O   0  0  0  0  0  0  0  0  0  0  0  0
   18.5504  -16.2330  -13.2863 C   0  0  0  0  0  0  0  0  0  0  0  0
   18.5017  -16.4534  -14.6419 C   0  0  0  0  0  0  0  0  0  0  0  0
   19.5594  -17.0649  -15.2764 C   0  0  0  0  0  0  0  0  0  0  0  0
   20.6940  -17.4737  -14.5800 C   0  0  0  0  0  0  0  0  0  0  0  0
   21.7951  -18.1334  -15.3154 C   0  0  0  0  0  0  0  0  0  0  0  0
   21.6661  -19.6351  -15.2745 C   0  0  2  0  0  0  0  0  0  0  0  0
   22.4413  -20.1329  -16.4116 N   0  0  0  0  0  0  0  0  0  0  0  0
   20.2661  -20.0975  -15.3445 C   0  0  0  0  0  0  0  0  0  0  0  0
   19.6206  -20.2415  -16.5599 O   0  0  0  0  0  0  0  0  0  0  0  0
   20.7300  -17.2471  -13.2222 C   0  0  0  0  0  0  0  0  0  0  0  0
   19.6576  -16.6302  -12.5962 C   0  0  0  0  0  0  0  0  0  0  0  0
   19.6296  -20.3704  -14.3012 O   0  0  0  0  0  0  0  0  0  0  0  0
  2  1  1  0
  3  2  1  0
  4  5  1  0
  4  3  1  0
  5  6  1  1
  7  8  2  0
  7  5  1  0
  9 10  1  0
 10 12  1  0
 11 10  2  0
 13 12  1  1
 13 14  1  0
 14  7  1  0
 15 24  1  0
 15 13  1  0
 16 15  2  0
 18 17  1  0
 19 18  2  0
 20 19  1  0
 21 27  1  0
 21 20  2  0
 22 21  1  0
 23 22  1  6
 23 24  1  0
 25 23  1  0
 26 25  1  0
 27 28  2  0
 28 18  1  0
 29 25  2  0
M  END
$$$$
