MNY.pdb
     RDKit          3D

 29 29  0  0  1  0  0  0  0  0999 V2000
   25.6369  -20.8815   -8.5254 C   0  0  0  0  0  0  0  0  0  0  0  0
   26.5579  -21.9660   -9.6442 S   0  0  0  0  0  0  0  0  0  0  0  0
   25.9956  -21.8144  -11.3465 C   0  0  0  0  0  0  0  0  0  0  0  0
   25.4247  -20.4549  -11.6671 C   0  0  0  0  0  0  0  0  0  0  0  0
   24.9070  -20.4218  -13.0677 C   0  0  2  0  0  0  0  0  0  0  0  0
   25.6286  -21.3624  -13.8915 N   0  0  0  0  0  0  0  0  0  0  0  0
   24.9536  -19.0635  -13.6661 C   0  0  0  0  0  0  0  0  0  0  0  0
   24.3238  -18.1193  -13.1265 O   0  0  0  0  0  0  0  0  0  0  0  0
   26.1946  -15.0196  -16.6988 N   0  0  0  0  0  0  0  0  0  0  0  0
   27.2819  -15.9212  -16.6185 C   0  0  0  0  0  0  0  0  0  0  0  0
   28.4140  -15.5517  -16.9958 O   0  0  0  0  0  0  0  0  0  0  0  0
   27.0924  -17.2882  -16.0957 C   0  0  0  0  0  0  0  0  0  0  0  0
   25.7160  -17.4931  -15.5102 C   0  0  2  0  0  0  0  0  0  0  0  0
   25.6903  -18.7709  -14.8436 N   0  0  0  0  0  0  0  0  0  0  0  0
   24.6728  -17.4351  -16.5905 C   0  0  0  0  0  0  0  0  0  0  0  0
   24.8181  -18.1433  -17.6110 O   0  0  0  0  0  0  0  0  0  0  0  0
   18.5087  -18.7129  -12.7868 O   0  0  0  0  0  0  0  0  0  0  0  0
   19.3620  -18.5684  -13.8894 C   0  0  0  0  0  0  0  0  0  0  0  0
   18.8597  -18.1085  -15.0830 C   0  0  0  0  0  0  0  0  0  0  0  0
   19.6936  -17.9649  -16.1690 C   0  0  0  0  0  0  0  0  0  0  0  0
   21.0494  -18.2748  -16.0972 C   0  0  0  0  0  0  0  0  0  0  0  0
   21.8938  -18.1081  -17.3004 C   0  0  0  0  0  0  0  0  0  0  0  0
   22.4123  -16.6974  -17.4213 C   0  0  2  0  0  0  0  0  0  0  0  0
   23.5334  -16.6031  -16.4854 N   0  0  0  0  0  0  0  0  0  0  0  0
   21.3876  -15.6771  -17.1251 C   0  0  0  0  0  0  0  0  0  0  0  0
   20.2691  -15.5333  -17.9271 O   0  0  0  0  0  0  0  0  0  0  0  0
   21.5399  -18.7349  -14.8955 C   0  0  0  0  0  0  0  0  0  0  0  0
   20.6886  -18.8745  -13.8100 C   0  0  0  0  0  0  0  0  0  0  0  0
   21.5087  -14.9164  -16.1379 O   0  0  0  0  0  0  0  0  0  0  0  0
  2  1  1  0
  3  2  1  0
  4  5  1  0
  4  3  1  0
  5  6  1  6
  7  8  2  0
  7  5  1  0
  9 10  1  0
 10 12  1  0
 11 10  2  0
 13 12  1  6
 13 14  1  0
 14  7  1  0
 15 24  1  0
 15 13  1  0
 16 15  2  0
 18 17  1  0
 19 18  2  0
 20 19  1  0
 21 27  1  0
 21 20  2  0
 22 21  1  0
 23 22  1  1
 23 24  1  0
 25 23  1  0
 26 25  1  0
 27 28  2  0
 28 18  1  0
 29 25  2  0
M  END
$$$$
