MNY.pdb
     RDKit          3D

 29 29  0  0  1  0  0  0  0  0999 V2000
   25.2938  -10.7540  -22.1713 C   0  0  0  0  0  0  0  0  0  0  0  0
   23.9090  -11.7098  -22.8382 S   0  0  0  0  0  0  0  0  0  0  0  0
   22.8558  -12.3702  -21.5375 C   0  0  0  0  0  0  0  0  0  0  0  0
   21.9989  -11.3205  -20.8736 C   0  0  0  0  0  0  0  0  0  0  0  0
   22.4202  -11.1218  -19.4546 C   0  0  2  0  0  0  0  0  0  0  0  0
   22.3893  -12.3767  -18.7418 N   0  0  0  0  0  0  0  0  0  0  0  0
   21.6026  -10.1024  -18.7492 C   0  0  0  0  0  0  0  0  0  0  0  0
   21.5062   -8.9413  -19.2201 O   0  0  0  0  0  0  0  0  0  0  0  0
   18.0100   -9.4269  -18.6157 N   0  0  0  0  0  0  0  0  0  0  0  0
   17.7852  -10.0549  -17.3680 C   0  0  0  0  0  0  0  0  0  0  0  0
   16.6701  -10.5656  -17.1307 O   0  0  0  0  0  0  0  0  0  0  0  0
   18.8506  -10.1120  -16.3484 C   0  0  0  0  0  0  0  0  0  0  0  0
   20.1174   -9.4280  -16.8031 C   0  0  2  0  0  0  0  0  0  0  0  0
   20.9085  -10.3794  -17.5424 N   0  0  0  0  0  0  0  0  0  0  0  0
   20.8831   -8.9032  -15.6210 C   0  0  0  0  0  0  0  0  0  0  0  0
   21.5766   -9.6971  -14.9482 O   0  0  0  0  0  0  0  0  0  0  0  0
   24.7095   -3.8312  -18.8252 O   0  0  0  0  0  0  0  0  0  0  0  0
   24.3156   -4.6615  -17.7668 C   0  0  0  0  0  0  0  0  0  0  0  0
   24.0636   -5.9917  -18.0027 C   0  0  0  0  0  0  0  0  0  0  0  0
   23.6764   -6.8114  -16.9666 C   0  0  0  0  0  0  0  0  0  0  0  0
   23.5295   -6.3303  -15.6680 C   0  0  0  0  0  0  0  0  0  0  0  0
   23.1024   -7.2577  -14.5975 C   0  0  0  0  0  0  0  0  0  0  0  0
   21.6777   -6.9988  -14.1769 C   0  0  2  0  0  0  0  0  0  0  0  0
   20.8410   -7.5389  -15.2492 N   0  0  0  0  0  0  0  0  0  0  0  0
   21.3922   -5.5683  -13.9514 C   0  0  0  0  0  0  0  0  0  0  0  0
   20.4866   -4.8862  -14.7448 O   0  0  0  0  0  0  0  0  0  0  0  0
   23.7849   -4.9956  -15.4452 C   0  0  0  0  0  0  0  0  0  0  0  0
   24.1741   -4.1818  -16.4980 C   0  0  0  0  0  0  0  0  0  0  0  0
   21.9657   -4.9382  -13.0336 O   0  0  0  0  0  0  0  0  0  0  0  0
  2  1  1  0
  3  2  1  0
  4  5  1  0
  4  3  1  0
  5  6  1  1
  7  8  2  0
  7  5  1  0
  9 10  1  0
 10 12  1  0
 11 10  2  0
 13 12  1  1
 13 14  1  0
 14  7  1  0
 15 24  1  0
 15 13  1  0
 16 15  2  0
 18 17  1  0
 19 18  2  0
 20 19  1  0
 21 27  1  0
 21 20  2  0
 22 21  1  0
 23 22  1  6
 23 24  1  0
 25 23  1  0
 26 25  1  0
 27 28  2  0
 28 18  1  0
 29 25  2  0
M  END
$$$$
