MNY.pdb
     RDKit          3D

 29 29  0  0  1  0  0  0  0  0999 V2000
   22.0736  -16.1954  -21.4521 C   0  0  0  0  0  0  0  0  0  0  0  0
   23.8351  -15.9364  -21.7774 S   0  0  0  0  0  0  0  0  0  0  0  0
   24.4999  -14.5550  -20.8357 C   0  0  0  0  0  0  0  0  0  0  0  0
   23.6056  -13.3396  -20.8481 C   0  0  0  0  0  0  0  0  0  0  0  0
   24.2212  -12.2291  -20.0618 C   0  0  2  0  0  0  0  0  0  0  0  0
   24.3996  -12.6276  -18.6858 N   0  0  0  0  0  0  0  0  0  0  0  0
   23.4419  -10.9674  -20.1411 C   0  0  0  0  0  0  0  0  0  0  0  0
   23.1862  -10.4584  -21.2613 O   0  0  0  0  0  0  0  0  0  0  0  0
   19.6333  -11.3666  -17.6417 N   0  0  0  0  0  0  0  0  0  0  0  0
   20.0423  -10.3181  -18.4989 C   0  0  0  0  0  0  0  0  0  0  0  0
   19.5834  -10.2605  -19.6593 O   0  0  0  0  0  0  0  0  0  0  0  0
   21.0019   -9.2963  -18.0375 C   0  0  0  0  0  0  0  0  0  0  0  0
   22.1446   -9.1035  -19.0051 C   0  0  2  0  0  0  0  0  0  0  0  0
   22.9601  -10.2919  -18.9895 N   0  0  0  0  0  0  0  0  0  0  0  0
   22.9553   -7.8963  -18.6251 C   0  0  0  0  0  0  0  0  0  0  0  0
   23.8343   -8.0108  -17.7428 O   0  0  0  0  0  0  0  0  0  0  0  0
   26.3666   -0.6864  -15.7174 O   0  0  0  0  0  0  0  0  0  0  0  0
   25.6538   -1.8090  -16.1608 C   0  0  0  0  0  0  0  0  0  0  0  0
   25.7778   -3.0022  -15.4904 C   0  0  0  0  0  0  0  0  0  0  0  0
   25.0799   -4.1077  -15.9218 C   0  0  0  0  0  0  0  0  0  0  0  0
   24.2400   -4.0564  -17.0315 C   0  0  0  0  0  0  0  0  0  0  0  0
   23.5226   -5.2798  -17.4524 C   0  0  0  0  0  0  0  0  0  0  0  0
   23.6046   -5.4837  -18.9442 C   0  0  2  0  0  0  0  0  0  0  0  0
   22.7521   -6.6368  -19.2363 N   0  0  0  0  0  0  0  0  0  0  0  0
   24.9828   -5.7089  -19.4223 C   0  0  0  0  0  0  0  0  0  0  0  0
   25.9104   -4.6823  -19.4393 O   0  0  0  0  0  0  0  0  0  0  0  0
   24.1249   -2.8549  -17.6943 C   0  0  0  0  0  0  0  0  0  0  0  0
   24.8335   -1.7496  -17.2487 C   0  0  0  0  0  0  0  0  0  0  0  0
   25.3439   -6.8384  -19.8247 O   0  0  0  0  0  0  0  0  0  0  0  0
  2  1  1  0
  3  2  1  0
  4  5  1  0
  4  3  1  0
  5  6  1  1
  7  8  2  0
  7  5  1  0
  9 10  1  0
 10 12  1  0
 11 10  2  0
 13 12  1  1
 13 14  1  0
 14  7  1  0
 15 24  1  0
 15 13  1  0
 16 15  2  0
 18 17  1  0
 19 18  2  0
 20 19  1  0
 21 27  1  0
 21 20  2  0
 22 21  1  0
 23 22  1  1
 23 24  1  0
 25 23  1  0
 26 25  1  0
 27 28  2  0
 28 18  1  0
 29 25  2  0
M  END
$$$$
