MNY.pdb
     RDKit          3D

 29 29  0  0  1  0  0  0  0  0999 V2000
   22.4062  -16.7186  -22.6883 C   0  0  0  0  0  0  0  0  0  0  0  0
   23.4397  -18.0786  -22.0901 S   0  0  0  0  0  0  0  0  0  0  0  0
   22.4875  -19.2955  -21.1683 C   0  0  0  0  0  0  0  0  0  0  0  0
   23.3167  -20.4599  -20.6850 C   0  0  0  0  0  0  0  0  0  0  0  0
   23.6753  -20.2852  -19.2458 C   0  0  2  0  0  0  0  0  0  0  0  0
   24.3991  -19.0507  -19.0555 N   0  0  0  0  0  0  0  0  0  0  0  0
   24.4487  -21.4307  -18.7026 C   0  0  0  0  0  0  0  0  0  0  0  0
   23.9315  -22.5755  -18.6681 O   0  0  0  0  0  0  0  0  0  0  0  0
   28.3368  -24.2405  -16.6299 N   0  0  0  0  0  0  0  0  0  0  0  0
   28.8850  -23.0883  -17.2409 C   0  0  0  0  0  0  0  0  0  0  0  0
   30.1253  -22.9800  -17.3437 O   0  0  0  0  0  0  0  0  0  0  0  0
   28.0096  -22.0174  -17.7555 C   0  0  0  0  0  0  0  0  0  0  0  0
   26.5450  -22.3510  -17.6042 C   0  0  2  0  0  0  0  0  0  0  0  0
   25.7726  -21.2949  -18.2091 N   0  0  0  0  0  0  0  0  0  0  0  0
   26.1898  -22.5059  -16.1521 C   0  0  0  0  0  0  0  0  0  0  0  0
   27.0619  -22.9188  -15.3565 O   0  0  0  0  0  0  0  0  0  0  0  0
   24.8412  -20.7170   -8.0047 O   0  0  0  0  0  0  0  0  0  0  0  0
   24.9974  -20.8279   -9.3933 C   0  0  0  0  0  0  0  0  0  0  0  0
   26.1031  -21.4636   -9.9051 C   0  0  0  0  0  0  0  0  0  0  0  0
   26.2612  -21.5751  -11.2682 C   0  0  0  0  0  0  0  0  0  0  0  0
   25.3242  -21.0574  -12.1589 C   0  0  0  0  0  0  0  0  0  0  0  0
   25.5532  -21.2006  -13.6134 C   0  0  0  0  0  0  0  0  0  0  0  0
   24.5934  -22.1864  -14.2302 C   0  0  2  0  0  0  0  0  0  0  0  0
   24.8991  -22.1983  -15.6613 N   0  0  0  0  0  0  0  0  0  0  0  0
   23.1780  -21.8411  -13.9935 C   0  0  0  0  0  0  0  0  0  0  0  0
   22.2029  -22.8213  -13.9358 O   0  0  0  0  0  0  0  0  0  0  0  0
   24.2211  -20.4227  -11.6330 C   0  0  0  0  0  0  0  0  0  0  0  0
   24.0746  -20.3178  -10.2582 C   0  0  0  0  0  0  0  0  0  0  0  0
   22.8274  -20.6489  -13.8394 O   0  0  0  0  0  0  0  0  0  0  0  0
  2  1  1  0
  3  2  1  0
  4  5  1  0
  4  3  1  0
  5  6  1  6
  7  8  2  0
  7  5  1  0
  9 10  1  0
 10 12  1  0
 11 10  2  0
 13 12  1  1
 13 14  1  0
 14  7  1  0
 15 24  1  0
 15 13  1  0
 16 15  2  0
 18 17  1  0
 19 18  2  0
 20 19  1  0
 21 27  1  0
 21 20  2  0
 22 21  1  0
 23 22  1  1
 23 24  1  0
 25 23  1  0
 26 25  1  0
 27 28  2  0
 28 18  1  0
 29 25  2  0
M  END
$$$$
