MNY.pdb
     RDKit          3D

 29 29  0  0  1  0  0  0  0  0999 V2000
   28.2225  -17.7602  -19.8248 C   0  0  0  0  0  0  0  0  0  0  0  0
   27.2662  -16.9613  -21.1374 S   0  0  0  0  0  0  0  0  0  0  0  0
   26.1717  -18.1178  -21.9750 C   0  0  0  0  0  0  0  0  0  0  0  0
   24.9328  -18.4489  -21.1797 C   0  0  0  0  0  0  0  0  0  0  0  0
   25.1829  -19.6171  -20.2835 C   0  0  2  0  0  0  0  0  0  0  0  0
   25.5791  -20.7684  -21.0590 N   0  0  0  0  0  0  0  0  0  0  0  0
   24.0157  -19.9443  -19.4257 C   0  0  0  0  0  0  0  0  0  0  0  0
   23.0820  -20.6512  -19.8814 O   0  0  0  0  0  0  0  0  0  0  0  0
   21.6963  -18.9858  -13.9567 N   0  0  0  0  0  0  0  0  0  0  0  0
   22.1438  -19.9927  -14.8440 C   0  0  0  0  0  0  0  0  0  0  0  0
   21.6034  -21.1186  -14.8165 O   0  0  0  0  0  0  0  0  0  0  0  0
   23.2384  -19.7270  -15.7975 C   0  0  0  0  0  0  0  0  0  0  0  0
   22.7614  -19.7140  -17.2298 C   0  0  2  0  0  0  0  0  0  0  0  0
   23.8985  -19.4886  -18.0865 N   0  0  0  0  0  0  0  0  0  0  0  0
   21.7253  -18.6434  -17.4276 C   0  0  0  0  0  0  0  0  0  0  0  0
   22.0975  -17.4912  -17.7402 O   0  0  0  0  0  0  0  0  0  0  0  0
   15.2655  -14.0729  -20.6157 O   0  0  0  0  0  0  0  0  0  0  0  0
   16.3101  -14.9212  -20.2233 C   0  0  0  0  0  0  0  0  0  0  0  0
   16.0332  -16.2153  -19.8531 C   0  0  0  0  0  0  0  0  0  0  0  0
   17.0557  -17.0525  -19.4669 C   0  0  0  0  0  0  0  0  0  0  0  0
   18.3808  -16.6253  -19.4384 C   0  0  0  0  0  0  0  0  0  0  0  0
   19.4354  -17.5684  -19.0060 C   0  0  0  0  0  0  0  0  0  0  0  0
   19.3260  -17.8847  -17.5358 C   0  0  2  0  0  0  0  0  0  0  0  0
   20.3434  -18.9024  -17.2702 N   0  0  0  0  0  0  0  0  0  0  0  0
   17.9848  -18.3614  -17.1449 C   0  0  0  0  0  0  0  0  0  0  0  0
   16.9854  -17.4727  -16.7898 O   0  0  0  0  0  0  0  0  0  0  0  0
   18.6445  -15.3262  -19.8115 C   0  0  0  0  0  0  0  0  0  0  0  0
   17.6050  -14.4942  -20.1983 C   0  0  0  0  0  0  0  0  0  0  0  0
   17.7213  -19.5854  -17.1260 O   0  0  0  0  0  0  0  0  0  0  0  0
  2  1  1  0
  3  2  1  0
  4  5  1  0
  4  3  1  0
  5  6  1  6
  7  8  2  0
  7  5  1  0
  9 10  1  0
 10 12  1  0
 11 10  2  0
 13 12  1  1
 13 14  1  0
 14  7  1  0
 15 24  1  0
 15 13  1  0
 16 15  2  0
 18 17  1  0
 19 18  2  0
 20 19  1  0
 21 27  1  0
 21 20  2  0
 22 21  1  0
 23 22  1  6
 23 24  1  0
 25 23  1  0
 26 25  1  0
 27 28  2  0
 28 18  1  0
 29 25  2  0
M  END
$$$$
