MNY.pdb
     RDKit          3D

 29 29  0  0  1  0  0  0  0  0999 V2000
   13.4824  -26.0982   -0.8762 C   0  0  0  0  0  0  0  0  0  0  0  0
   13.3465  -24.8467   -2.1766 S   0  0  0  0  0  0  0  0  0  0  0  0
   14.3981  -23.4225   -1.8558 C   0  0  0  0  0  0  0  0  0  0  0  0
   14.2298  -22.8578   -0.4666 C   0  0  0  0  0  0  0  0  0  0  0  0
   15.1347  -21.6870   -0.2645 C   0  0  2  0  0  0  0  0  0  0  0  0
   16.4916  -22.0358   -0.6128 N   0  0  0  0  0  0  0  0  0  0  0  0
   15.0749  -21.1456    1.1170 C   0  0  0  0  0  0  0  0  0  0  0  0
   14.0908  -20.4514    1.4757 O   0  0  0  0  0  0  0  0  0  0  0  0
   14.6759  -23.2986    3.4713 N   0  0  0  0  0  0  0  0  0  0  0  0
   15.8244  -23.2140    4.2930 C   0  0  0  0  0  0  0  0  0  0  0  0
   16.1478  -24.1935    4.9975 O   0  0  0  0  0  0  0  0  0  0  0  0
   16.6404  -21.9848    4.3260 C   0  0  0  0  0  0  0  0  0  0  0  0
   16.0824  -20.9013    3.4350 C   0  0  2  0  0  0  0  0  0  0  0  0
   16.0964  -21.3780    2.0748 N   0  0  0  0  0  0  0  0  0  0  0  0
   16.8950  -19.6438    3.5670 C   0  0  0  0  0  0  0  0  0  0  0  0
   17.9599  -19.5406    2.9193 O   0  0  0  0  0  0  0  0  0  0  0  0
   19.5537  -11.4385    4.7422 O   0  0  0  0  0  0  0  0  0  0  0  0
   18.8780  -12.6412    4.4932 C   0  0  0  0  0  0  0  0  0  0  0  0
   17.8976  -13.0628    5.3589 C   0  0  0  0  0  0  0  0  0  0  0  0
   17.2310  -14.2433    5.1188 C   0  0  0  0  0  0  0  0  0  0  0  0
   17.5216  -15.0362    4.0115 C   0  0  0  0  0  0  0  0  0  0  0  0
   16.7774  -16.2989    3.8111 C   0  0  0  0  0  0  0  0  0  0  0  0
   17.3452  -17.4151    4.6507 C   0  0  2  0  0  0  0  0  0  0  0  0
   16.4897  -18.5760    4.4019 N   0  0  0  0  0  0  0  0  0  0  0  0
   17.3920  -17.0901    6.0898 C   0  0  0  0  0  0  0  0  0  0  0  0
   18.5023  -16.4833    6.6500 O   0  0  0  0  0  0  0  0  0  0  0  0
   18.5063  -14.6024    3.1521 C   0  0  0  0  0  0  0  0  0  0  0  0
   19.1693  -13.4115    3.4062 C   0  0  0  0  0  0  0  0  0  0  0  0
   16.4242  -17.3577    6.8380 O   0  0  0  0  0  0  0  0  0  0  0  0
  2  1  1  0
  3  2  1  0
  4  5  1  0
  4  3  1  0
  5  6  1  1
  7  8  2  0
  7  5  1  0
  9 10  1  0
 10 12  1  0
 11 10  2  0
 13 12  1  1
 13 14  1  0
 14  7  1  0
 15 24  1  0
 15 13  1  0
 16 15  2  0
 18 17  1  0
 19 18  2  0
 20 19  1  0
 21 27  1  0
 21 20  2  0
 22 21  1  0
 23 22  1  6
 23 24  1  0
 25 23  1  0
 26 25  1  0
 27 28  2  0
 28 18  1  0
 29 25  2  0
M  END
$$$$
