MNY.pdb
     RDKit          3D

 29 29  0  0  1  0  0  0  0  0999 V2000
   19.6830  -24.2350    4.8519 C   0  0  0  0  0  0  0  0  0  0  0  0
   18.1939  -25.0716    4.2532 S   0  0  0  0  0  0  0  0  0  0  0  0
   16.7119  -24.0878    4.5229 C   0  0  0  0  0  0  0  0  0  0  0  0
   16.9723  -22.6015    4.5106 C   0  0  0  0  0  0  0  0  0  0  0  0
   15.7244  -21.8489    4.8373 C   0  0  2  0  0  0  0  0  0  0  0  0
   14.6560  -22.2392    3.9483 N   0  0  0  0  0  0  0  0  0  0  0  0
   15.9157  -20.3766    4.8057 C   0  0  0  0  0  0  0  0  0  0  0  0
   14.9939  -19.6340    4.3836 O   0  0  0  0  0  0  0  0  0  0  0  0
   17.0202  -15.6408    6.1212 N   0  0  0  0  0  0  0  0  0  0  0  0
   16.1296  -16.5177    6.7841 C   0  0  0  0  0  0  0  0  0  0  0  0
   15.2929  -16.0511    7.5858 O   0  0  0  0  0  0  0  0  0  0  0  0
   16.1796  -17.9721    6.5389 C   0  0  0  0  0  0  0  0  0  0  0  0
   17.2543  -18.3507    5.5486 C   0  0  2  0  0  0  0  0  0  0  0  0
   17.1144  -19.7513    5.2379 N   0  0  0  0  0  0  0  0  0  0  0  0
   18.6157  -18.0648    6.1175 C   0  0  0  0  0  0  0  0  0  0  0  0
   19.0623  -16.8980    6.0614 O   0  0  0  0  0  0  0  0  0  0  0  0
   20.7392  -13.4974    9.7639 O   0  0  0  0  0  0  0  0  0  0  0  0
   20.8681  -14.8329    9.3581 C   0  0  0  0  0  0  0  0  0  0  0  0
   21.9784  -15.2246    8.6494 C   0  0  0  0  0  0  0  0  0  0  0  0
   22.1098  -16.5351    8.2485 C   0  0  0  0  0  0  0  0  0  0  0  0
   21.1406  -17.4913    8.5415 C   0  0  0  0  0  0  0  0  0  0  0  0
   21.3335  -18.8823    8.0765 C   0  0  0  0  0  0  0  0  0  0  0  0
   20.8665  -19.0600    6.6539 C   0  0  2  0  0  0  0  0  0  0  0  0
   19.4044  -19.0769    6.7134 N   0  0  0  0  0  0  0  0  0  0  0  0
   21.3855  -20.2899    6.0241 C   0  0  0  0  0  0  0  0  0  0  0  0
   20.5287  -21.2350    5.4880 O   0  0  0  0  0  0  0  0  0  0  0  0
   20.0330  -17.0856    9.2520 C   0  0  0  0  0  0  0  0  0  0  0  0
   19.9138  -15.7626    9.6495 C   0  0  0  0  0  0  0  0  0  0  0  0
   22.6174  -20.5057    5.9611 O   0  0  0  0  0  0  0  0  0  0  0  0
  2  1  1  0
  3  2  1  0
  4  5  1  0
  4  3  1  0
  5  6  1  6
  7  8  2  0
  7  5  1  0
  9 10  1  0
 10 12  1  0
 11 10  2  0
 13 12  1  1
 13 14  1  0
 14  7  1  0
 15 24  1  0
 15 13  1  0
 16 15  2  0
 18 17  1  0
 19 18  2  0
 20 19  1  0
 21 27  1  0
 21 20  2  0
 22 21  1  0
 23 22  1  1
 23 24  1  0
 25 23  1  0
 26 25  1  0
 27 28  2  0
 28 18  1  0
 29 25  2  0
M  END
$$$$
