MNY.pdb
     RDKit          3D

 29 29  0  0  1  0  0  0  0  0999 V2000
   22.8798  -22.9814  -20.7101 C   0  0  0  0  0  0  0  0  0  0  0  0
   21.9992  -23.4974  -19.2154 S   0  0  0  0  0  0  0  0  0  0  0  0
   21.4276  -22.0915  -18.2490 C   0  0  0  0  0  0  0  0  0  0  0  0
   22.3350  -20.8901  -18.3500 C   0  0  0  0  0  0  0  0  0  0  0  0
   23.5011  -21.0361  -17.4284 C   0  0  2  0  0  0  0  0  0  0  0  0
   23.0487  -21.1655  -16.0637 N   0  0  0  0  0  0  0  0  0  0  0  0
   24.4739  -19.9206  -17.5504 C   0  0  0  0  0  0  0  0  0  0  0  0
   24.2466  -18.9756  -18.3470 O   0  0  0  0  0  0  0  0  0  0  0  0
   23.3104  -16.8736  -15.9804 N   0  0  0  0  0  0  0  0  0  0  0  0
   24.7014  -16.8859  -16.2382 C   0  0  0  0  0  0  0  0  0  0  0  0
   25.1778  -16.0852  -17.0703 O   0  0  0  0  0  0  0  0  0  0  0  0
   25.5911  -17.8316  -15.5369 C   0  0  0  0  0  0  0  0  0  0  0  0
   26.4107  -18.6648  -16.4925 C   0  0  2  0  0  0  0  0  0  0  0  0
   25.6747  -19.8665  -16.7956 N   0  0  0  0  0  0  0  0  0  0  0  0
   27.7456  -18.9965  -15.8865 C   0  0  0  0  0  0  0  0  0  0  0  0
   28.5887  -19.6089  -16.5779 O   0  0  0  0  0  0  0  0  0  0  0  0
   23.3938  -21.6216   -9.0703 O   0  0  0  0  0  0  0  0  0  0  0  0
   24.0756  -20.9695  -10.1070 C   0  0  0  0  0  0  0  0  0  0  0  0
   23.4373  -20.7391  -11.3019 C   0  0  0  0  0  0  0  0  0  0  0  0
   24.1026  -20.0991  -12.3233 C   0  0  0  0  0  0  0  0  0  0  0  0
   25.4204  -19.6710  -12.1838 C   0  0  0  0  0  0  0  0  0  0  0  0
   26.0855  -18.9963  -13.3200 C   0  0  0  0  0  0  0  0  0  0  0  0
   27.5461  -19.3617  -13.4024 C   0  0  2  0  0  0  0  0  0  0  0  0
   28.0739  -18.6361  -14.5585 N   0  0  0  0  0  0  0  0  0  0  0  0
   27.7721  -20.8138  -13.5398 C   0  0  0  0  0  0  0  0  0  0  0  0
   27.0668  -21.5628  -14.4651 O   0  0  0  0  0  0  0  0  0  0  0  0
   26.0484  -19.9083  -10.9815 C   0  0  0  0  0  0  0  0  0  0  0  0
   25.3663  -20.5538   -9.9615 C   0  0  0  0  0  0  0  0  0  0  0  0
   28.6104  -21.4019  -12.8190 O   0  0  0  0  0  0  0  0  0  0  0  0
  2  1  1  0
  3  2  1  0
  4  5  1  0
  4  3  1  0
  5  6  1  1
  7  8  2  0
  7  5  1  0
  9 10  1  0
 10 12  1  0
 11 10  2  0
 13 12  1  1
 13 14  1  0
 14  7  1  0
 15 24  1  0
 15 13  1  0
 16 15  2  0
 18 17  1  0
 19 18  2  0
 20 19  1  0
 21 27  1  0
 21 20  2  0
 22 21  1  0
 23 22  1  6
 23 24  1  0
 25 23  1  0
 26 25  1  0
 27 28  2  0
 28 18  1  0
 29 25  2  0
M  END
$$$$
