MNY.pdb
     RDKit          3D

 29 29  0  0  1  0  0  0  0  0999 V2000
   24.1436  -19.1226  -21.3376 C   0  0  0  0  0  0  0  0  0  0  0  0
   23.7931  -18.5285  -23.0110 S   0  0  0  0  0  0  0  0  0  0  0  0
   23.4374  -16.7651  -23.0408 C   0  0  0  0  0  0  0  0  0  0  0  0
   24.4391  -15.9416  -22.2691 C   0  0  0  0  0  0  0  0  0  0  0  0
   23.8076  -15.3599  -21.0471 C   0  0  2  0  0  0  0  0  0  0  0  0
   22.3917  -15.6408  -21.0320 N   0  0  0  0  0  0  0  0  0  0  0  0
   24.0500  -13.9009  -20.9133 C   0  0  0  0  0  0  0  0  0  0  0  0
   24.8742  -13.3308  -21.6716 O   0  0  0  0  0  0  0  0  0  0  0  0
   24.5965   -8.8544  -21.2233 N   0  0  0  0  0  0  0  0  0  0  0  0
   23.3743   -9.5450  -21.0480 C   0  0  0  0  0  0  0  0  0  0  0  0
   22.3310   -8.8969  -20.8201 O   0  0  0  0  0  0  0  0  0  0  0  0
   23.3203  -11.0175  -21.1311 C   0  0  0  0  0  0  0  0  0  0  0  0
   23.5536  -11.6768  -19.7932 C   0  0  2  0  0  0  0  0  0  0  0  0
   23.3827  -13.0994  -19.9506 N   0  0  0  0  0  0  0  0  0  0  0  0
   22.5968  -11.1358  -18.7681 C   0  0  0  0  0  0  0  0  0  0  0  0
   21.3954  -11.4790  -18.8208 O   0  0  0  0  0  0  0  0  0  0  0  0
   19.6526   -7.6810  -11.2182 O   0  0  0  0  0  0  0  0  0  0  0  0
   20.4579   -8.0783  -12.2945 C   0  0  0  0  0  0  0  0  0  0  0  0
   20.6619   -9.4159  -12.5345 C   0  0  0  0  0  0  0  0  0  0  0  0
   21.4520   -9.8112  -13.5903 C   0  0  0  0  0  0  0  0  0  0  0  0
   22.0605   -8.8870  -14.4359 C   0  0  0  0  0  0  0  0  0  0  0  0
   22.9055   -9.3723  -15.5489 C   0  0  0  0  0  0  0  0  0  0  0  0
   22.0819   -9.6892  -16.7715 C   0  0  2  0  0  0  0  0  0  0  0  0
   23.0167  -10.2507  -17.7475 N   0  0  0  0  0  0  0  0  0  0  0  0
   21.3863   -8.5094  -17.3220 C   0  0  0  0  0  0  0  0  0  0  0  0
   20.0437   -8.2887  -17.0697 O   0  0  0  0  0  0  0  0  0  0  0  0
   21.8481   -7.5499  -14.1843 C   0  0  0  0  0  0  0  0  0  0  0  0
   21.0500   -7.1661  -13.1175 C   0  0  0  0  0  0  0  0  0  0  0  0
   21.9984   -7.6794  -18.0322 O   0  0  0  0  0  0  0  0  0  0  0  0
  2  1  1  0
  3  2  1  0
  4  5  1  0
  4  3  1  0
  5  6  1  6
  7  8  2  0
  7  5  1  0
  9 10  1  0
 10 12  1  0
 11 10  2  0
 13 12  1  6
 13 14  1  0
 14  7  1  0
 15 24  1  0
 15 13  1  0
 16 15  2  0
 18 17  1  0
 19 18  2  0
 20 19  1  0
 21 27  1  0
 21 20  2  0
 22 21  1  0
 23 22  1  1
 23 24  1  0
 25 23  1  0
 26 25  1  0
 27 28  2  0
 28 18  1  0
 29 25  2  0
M  END
$$$$
