MNY.pdb
     RDKit          3D

 29 29  0  0  1  0  0  0  0  0999 V2000
   26.8334  -16.3531  -15.4944 C   0  0  0  0  0  0  0  0  0  0  0  0
   28.2137  -16.9355  -16.5100 S   0  0  0  0  0  0  0  0  0  0  0  0
   28.0832  -18.6903  -16.8848 C   0  0  0  0  0  0  0  0  0  0  0  0
   26.8312  -19.3264  -16.3326 C   0  0  0  0  0  0  0  0  0  0  0  0
   27.1677  -20.2645  -15.2203 C   0  0  2  0  0  0  0  0  0  0  0  0
   28.0352  -21.3158  -15.6959 N   0  0  0  0  0  0  0  0  0  0  0  0
   25.9634  -20.8389  -14.5682 C   0  0  0  0  0  0  0  0  0  0  0  0
   25.2965  -21.7273  -15.1558 O   0  0  0  0  0  0  0  0  0  0  0  0
   26.3021  -22.2778  -10.8145 N   0  0  0  0  0  0  0  0  0  0  0  0
   25.7740  -20.9812  -10.6112 C   0  0  0  0  0  0  0  0  0  0  0  0
   26.4388  -20.1424   -9.9670 O   0  0  0  0  0  0  0  0  0  0  0  0
   24.4508  -20.6117  -11.1502 C   0  0  0  0  0  0  0  0  0  0  0  0
   24.3293  -20.9065  -12.6258 C   0  0  2  0  0  0  0  0  0  0  0  0
   25.5174  -20.4260  -13.2855 N   0  0  0  0  0  0  0  0  0  0  0  0
   23.1025  -20.2489  -13.1926 C   0  0  0  0  0  0  0  0  0  0  0  0
   23.1606  -19.0451  -13.5264 O   0  0  0  0  0  0  0  0  0  0  0  0
   16.9334  -17.7347  -18.4259 O   0  0  0  0  0  0  0  0  0  0  0  0
   17.9885  -18.2648  -17.6706 C   0  0  0  0  0  0  0  0  0  0  0  0
   18.2514  -19.6127  -17.7209 C   0  0  0  0  0  0  0  0  0  0  0  0
   19.2866  -20.1383  -16.9810 C   0  0  0  0  0  0  0  0  0  0  0  0
   20.0882  -19.3377  -16.1711 C   0  0  0  0  0  0  0  0  0  0  0  0
   21.1805  -19.9614  -15.3925 C   0  0  0  0  0  0  0  0  0  0  0  0
   20.7222  -20.3505  -14.0098 C   0  0  2  0  0  0  0  0  0  0  0  0
   21.8863  -20.9524  -13.3585 N   0  0  0  0  0  0  0  0  0  0  0  0
   19.5793  -21.2847  -14.0208 C   0  0  0  0  0  0  0  0  0  0  0  0
   18.2767  -20.8215  -13.9617 O   0  0  0  0  0  0  0  0  0  0  0  0
   19.8140  -17.9888  -16.1296 C   0  0  0  0  0  0  0  0  0  0  0  0
   18.7684  -17.4731  -16.8800 C   0  0  0  0  0  0  0  0  0  0  0  0
   19.7645  -22.5215  -14.0840 O   0  0  0  0  0  0  0  0  0  0  0  0
  2  1  1  0
  3  2  1  0
  4  5  1  0
  4  3  1  0
  5  6  1  6
  7  8  2  0
  7  5  1  0
  9 10  1  0
 10 12  1  0
 11 10  2  0
 13 12  1  1
 13 14  1  0
 14  7  1  0
 15 24  1  0
 15 13  1  0
 16 15  2  0
 18 17  1  0
 19 18  2  0
 20 19  1  0
 21 27  1  0
 21 20  2  0
 22 21  1  0
 23 22  1  6
 23 24  1  0
 25 23  1  0
 26 25  1  0
 27 28  2  0
 28 18  1  0
 29 25  2  0
M  END
$$$$
