MNY.pdb
     RDKit          3D

 29 29  0  0  1  0  0  0  0  0999 V2000
   20.5168  -13.3142  -22.4706 C   0  0  0  0  0  0  0  0  0  0  0  0
   21.7147  -13.3342  -21.1139 S   0  0  0  0  0  0  0  0  0  0  0  0
   21.2455  -12.2190  -19.7823 C   0  0  0  0  0  0  0  0  0  0  0  0
   22.2741  -12.1393  -18.6811 C   0  0  0  0  0  0  0  0  0  0  0  0
   21.8582  -11.1445  -17.6476 C   0  0  2  0  0  0  0  0  0  0  0  0
   20.4650  -11.3211  -17.3135 N   0  0  0  0  0  0  0  0  0  0  0  0
   22.1205   -9.7423  -18.0606 C   0  0  0  0  0  0  0  0  0  0  0  0
   23.2973   -9.3674  -18.2928 O   0  0  0  0  0  0  0  0  0  0  0  0
   21.5879   -4.9968  -19.9651 N   0  0  0  0  0  0  0  0  0  0  0  0
   20.4804   -5.7952  -20.3358 C   0  0  0  0  0  0  0  0  0  0  0  0
   19.6949   -5.3836  -21.2156 O   0  0  0  0  0  0  0  0  0  0  0  0
   20.2451   -7.1040  -19.6958 C   0  0  0  0  0  0  0  0  0  0  0  0
   21.2745   -7.4187  -18.6372 C   0  0  2  0  0  0  0  0  0  0  0  0
   21.0858   -8.7822  -18.2096 N   0  0  0  0  0  0  0  0  0  0  0  0
   21.1391   -6.4731  -17.4768 C   0  0  0  0  0  0  0  0  0  0  0  0
   20.0399   -6.3937  -16.8858 O   0  0  0  0  0  0  0  0  0  0  0  0
   19.5937   -9.1832  -12.0671 O   0  0  0  0  0  0  0  0  0  0  0  0
   20.4148   -8.2671  -12.7389 C   0  0  0  0  0  0  0  0  0  0  0  0
   20.0969   -6.9303  -12.7246 C   0  0  0  0  0  0  0  0  0  0  0  0
   20.9001   -6.0265  -13.3829 C   0  0  0  0  0  0  0  0  0  0  0  0
   22.0410   -6.4279  -14.0733 C   0  0  0  0  0  0  0  0  0  0  0  0
   22.8601   -5.4113  -14.7690 C   0  0  0  0  0  0  0  0  0  0  0  0
   22.0969   -4.7622  -15.8959 C   0  0  2  0  0  0  0  0  0  0  0  0
   22.2185   -5.6720  -17.0356 N   0  0  0  0  0  0  0  0  0  0  0  0
   22.6002   -3.4168  -16.2357 C   0  0  0  0  0  0  0  0  0  0  0  0
   22.5490   -2.3817  -15.3189 O   0  0  0  0  0  0  0  0  0  0  0  0
   22.3481   -7.7702  -14.0801 C   0  0  0  0  0  0  0  0  0  0  0  0
   21.5303   -8.6692  -13.4127 C   0  0  0  0  0  0  0  0  0  0  0  0
   23.0861   -3.1821  -17.3657 O   0  0  0  0  0  0  0  0  0  0  0  0
  2  1  1  0
  3  2  1  0
  4  5  1  0
  4  3  1  0
  5  6  1  6
  7  8  2  0
  7  5  1  0
  9 10  1  0
 10 12  1  0
 11 10  2  0
 13 12  1  6
 13 14  1  0
 14  7  1  0
 15 24  1  0
 15 13  1  0
 16 15  2  0
 18 17  1  0
 19 18  2  0
 20 19  1  0
 21 27  1  0
 21 20  2  0
 22 21  1  0
 23 22  1  1
 23 24  1  0
 25 23  1  0
 26 25  1  0
 27 28  2  0
 28 18  1  0
 29 25  2  0
M  END
$$$$
