VDY.pdb
     RDKit          3D

 28 28  0  0  1  0  0  0  0  0999 V2000
    7.5237  -12.9198   17.7801 C   0  0  0  0  0  0  0  0  0  0  0  0
    7.7891  -14.1082   18.6467 C   0  0  1  0  0  0  0  0  0  0  0  0
    8.4156  -15.2454   17.8573 C   0  0  0  0  0  0  0  0  0  0  0  0
    8.7562  -13.7933   19.7955 C   0  0  2  0  0  0  0  0  0  0  0  0
    9.9923  -13.3988   19.1770 N   0  0  0  0  0  0  0  0  0  0  0  0
    8.9463  -15.0383   20.5895 C   0  0  0  0  0  0  0  0  0  0  0  0
    7.9950  -15.6420   21.1178 O   0  0  0  0  0  0  0  0  0  0  0  0
   10.2534  -15.5811   20.7674 N   0  0  0  0  0  0  0  0  0  0  0  0
   10.4757  -16.7265   21.6631 C   0  0  1  0  0  0  0  0  0  0  0  0
   11.8559  -17.2696   21.2619 C   0  0  0  0  0  0  0  0  0  0  0  0
   11.7149  -18.1715   20.1122 C   0  0  0  0  0  0  0  0  0  0  0  0
   12.5661  -18.2036   19.1788 O   0  0  0  0  0  0  0  0  0  0  0  0
   10.6199  -16.2200   23.0436 C   0  0  0  0  0  0  0  0  0  0  0  0
   11.3971  -15.2415   23.2164 O   0  0  0  0  0  0  0  0  0  0  0  0
   10.6351  -19.0374   19.9923 O   0  0  0  0  0  0  0  0  0  0  0  0
    6.2273  -11.3514   28.3072 O   0  0  0  0  0  0  0  0  0  0  0  0
    6.7171  -12.2661   27.3838 C   0  0  0  0  0  0  0  0  0  0  0  0
    5.9334  -13.2642   26.8439 C   0  0  0  0  0  0  0  0  0  0  0  0
    6.4274  -14.1563   25.9374 C   0  0  0  0  0  0  0  0  0  0  0  0
    7.7527  -14.0363   25.5653 C   0  0  0  0  0  0  0  0  0  0  0  0
    8.3924  -14.9519   24.5931 C   0  0  0  0  0  0  0  0  0  0  0  0
    9.3559  -15.9267   25.2045 C   0  0  2  0  0  0  0  0  0  0  0  0
    9.9643  -16.7388   24.1705 N   0  0  0  0  0  0  0  0  0  0  0  0
    8.7560  -16.8131   26.2223 C   0  0  0  0  0  0  0  0  0  0  0  0
    8.1012  -17.8254   25.8745 O   0  0  0  0  0  0  0  0  0  0  0  0
    8.5417  -13.0400   26.1023 C   0  0  0  0  0  0  0  0  0  0  0  0
    8.0423  -12.1385   27.0182 C   0  0  0  0  0  0  0  0  0  0  0  0
    8.8639  -16.6077   27.5954 O   0  0  0  0  0  0  0  0  0  0  0  0
  2  1  1  6
  2  4  1  0
  3  2  1  0
  4  5  1  6
  6  4  1  0
  7  6  2  0
  8  6  1  0
  9 13  1  0
  9  8  1  0
  9 10  1  6
 11 10  1  0
 12 11  2  0
 13 23  1  0
 14 13  2  0
 15 11  1  0
 17 18  2  0
 17 16  1  0
 19 18  1  0
 20 19  2  0
 22 21  1  6
 21 20  1  0
 22 24  1  0
 23 22  1  0
 24 25  2  0
 24 28  1  0
 26 20  1  0
 26 27  2  0
 27 17  1  0
M  END
$$$$
