VDY.pdb
     RDKit          3D

 28 28  0  0  1  0  0  0  0  0999 V2000
    8.6818  -12.8941   20.4542 C   0  0  0  0  0  0  0  0  0  0  0  0
    7.8518  -13.6973   19.5056 C   0  0  1  0  0  0  0  0  0  0  0  0
    7.5028  -12.9020   18.2588 C   0  0  0  0  0  0  0  0  0  0  0  0
    8.5702  -14.9648   19.0245 C   0  0  2  0  0  0  0  0  0  0  0  0
    7.6263  -15.6668   18.1985 N   0  0  0  0  0  0  0  0  0  0  0  0
    8.9181  -15.7776   20.2223 C   0  0  0  0  0  0  0  0  0  0  0  0
    8.0615  -16.4023   20.8740 O   0  0  0  0  0  0  0  0  0  0  0  0
   10.2727  -15.8617   20.6614 N   0  0  0  0  0  0  0  0  0  0  0  0
   10.6501  -16.7560   21.7665 C   0  0  1  0  0  0  0  0  0  0  0  0
   12.1817  -16.8466   21.6855 C   0  0  0  0  0  0  0  0  0  0  0  0
   12.5661  -17.6618   20.5266 C   0  0  0  0  0  0  0  0  0  0  0  0
   11.9580  -18.7286   20.2279 O   0  0  0  0  0  0  0  0  0  0  0  0
   10.3466  -16.0765   23.0430 C   0  0  0  0  0  0  0  0  0  0  0  0
   10.5201  -14.8276   23.0824 O   0  0  0  0  0  0  0  0  0  0  0  0
   13.6209  -17.3004   19.6980 O   0  0  0  0  0  0  0  0  0  0  0  0
    6.3305  -10.9381   27.9142 O   0  0  0  0  0  0  0  0  0  0  0  0
    6.7906  -12.0449   27.2125 C   0  0  0  0  0  0  0  0  0  0  0  0
    8.1333  -12.2894   27.0141 C   0  0  0  0  0  0  0  0  0  0  0  0
    8.5716  -13.3809   26.3227 C   0  0  0  0  0  0  0  0  0  0  0  0
    7.6252  -14.2513   25.8167 C   0  0  0  0  0  0  0  0  0  0  0  0
    7.9891  -15.4637   25.0483 C   0  0  0  0  0  0  0  0  0  0  0  0
    9.3539  -16.0051   25.3588 C   0  0  2  0  0  0  0  0  0  0  0  0
    9.8835  -16.7075   24.2076 N   0  0  0  0  0  0  0  0  0  0  0  0
    9.3969  -16.9019   26.5316 C   0  0  0  0  0  0  0  0  0  0  0  0
    9.1584  -18.1269   26.4019 O   0  0  0  0  0  0  0  0  0  0  0  0
    6.2806  -14.0117   26.0116 C   0  0  0  0  0  0  0  0  0  0  0  0
    5.8378  -12.9088   26.7105 C   0  0  0  0  0  0  0  0  0  0  0  0
    9.6946  -16.4795   27.8248 O   0  0  0  0  0  0  0  0  0  0  0  0
  2  1  1  1
  2  4  1  0
  3  2  1  0
  4  5  1  6
  6  4  1  0
  7  6  2  0
  8  6  1  0
  9 13  1  0
  9  8  1  0
  9 10  1  1
 11 10  1  0
 12 11  2  0
 13 23  1  0
 14 13  2  0
 15 11  1  0
 17 18  2  0
 17 16  1  0
 19 18  1  0
 20 19  2  0
 22 21  1  6
 21 20  1  0
 22 24  1  0
 23 22  1  0
 24 25  2  0
 24 28  1  0
 26 20  1  0
 26 27  2  0
 27 17  1  0
M  END
$$$$
