VDY.pdb
     RDKit          3D

 28 28  0  0  1  0  0  0  0  0999 V2000
    7.2365  -12.7194   18.6354 C   0  0  0  0  0  0  0  0  0  0  0  0
    7.2726  -13.8212   19.6447 C   0  0  1  0  0  0  0  0  0  0  0  0
    7.4324  -15.1793   18.9822 C   0  0  0  0  0  0  0  0  0  0  0  0
    8.4410  -13.6785   20.6287 C   0  0  2  0  0  0  0  0  0  0  0  0
    9.6221  -13.5279   19.8235 N   0  0  0  0  0  0  0  0  0  0  0  0
    8.5173  -14.9279   21.4347 C   0  0  0  0  0  0  0  0  0  0  0  0
    7.5515  -15.3544   22.0934 O   0  0  0  0  0  0  0  0  0  0  0  0
    9.7270  -15.6829   21.4720 N   0  0  0  0  0  0  0  0  0  0  0  0
    9.8668  -16.8336   22.3775 C   0  0  1  0  0  0  0  0  0  0  0  0
   11.1617  -17.5264   21.9260 C   0  0  0  0  0  0  0  0  0  0  0  0
   10.9875  -18.0601   20.5695 C   0  0  0  0  0  0  0  0  0  0  0  0
   11.7436  -17.7216   19.6153 O   0  0  0  0  0  0  0  0  0  0  0  0
   10.1266  -16.3273   23.7411 C   0  0  0  0  0  0  0  0  0  0  0  0
   10.4483  -15.1123   23.8492 O   0  0  0  0  0  0  0  0  0  0  0  0
    9.9793  -18.9664   20.2660 O   0  0  0  0  0  0  0  0  0  0  0  0
    6.7361  -10.8466   26.8764 O   0  0  0  0  0  0  0  0  0  0  0  0
    7.0687  -12.1781   26.6626 C   0  0  0  0  0  0  0  0  0  0  0  0
    7.7937  -12.9153   27.5753 C   0  0  0  0  0  0  0  0  0  0  0  0
    8.1136  -14.2228   27.3526 C   0  0  0  0  0  0  0  0  0  0  0  0
    7.6883  -14.8028   26.1727 C   0  0  0  0  0  0  0  0  0  0  0  0
    7.9827  -16.2124   25.8274 C   0  0  0  0  0  0  0  0  0  0  0  0
    9.3884  -16.6418   26.1305 C   0  0  2  0  0  0  0  0  0  0  0  0
   10.0441  -17.0871   24.9178 N   0  0  0  0  0  0  0  0  0  0  0  0
    9.4899  -17.7048   27.1509 C   0  0  0  0  0  0  0  0  0  0  0  0
    9.3468  -18.9089   26.8281 O   0  0  0  0  0  0  0  0  0  0  0  0
    6.9631  -14.0702   25.2558 C   0  0  0  0  0  0  0  0  0  0  0  0
    6.6397  -12.7489   25.4810 C   0  0  0  0  0  0  0  0  0  0  0  0
    9.7433  -17.4684   28.4996 O   0  0  0  0  0  0  0  0  0  0  0  0
  2  1  1  6
  2  4  1  0
  3  2  1  0
  4  5  1  6
  6  4  1  0
  7  6  2  0
  8  6  1  0
  9 13  1  0
  9  8  1  0
  9 10  1  6
 11 10  1  0
 12 11  2  0
 13 23  1  0
 14 13  2  0
 15 11  1  0
 17 18  2  0
 17 16  1  0
 19 18  1  0
 20 19  2  0
 22 21  1  6
 21 20  1  0
 22 24  1  0
 23 22  1  0
 24 25  2  0
 24 28  1  0
 26 20  1  0
 26 27  2  0
 27 17  1  0
M  END
$$$$
