VDY.pdb
     RDKit          3D

 28 28  0  0  1  0  0  0  0  0999 V2000
    8.2724  -13.0424   21.9848 C   0  0  0  0  0  0  0  0  0  0  0  0
    7.3726  -13.7312   21.0103 C   0  0  1  0  0  0  0  0  0  0  0  0
    6.8381  -12.7654   19.9659 C   0  0  0  0  0  0  0  0  0  0  0  0
    8.0865  -14.8503   20.2410 C   0  0  2  0  0  0  0  0  0  0  0  0
    7.1102  -15.3973   19.3390 N   0  0  0  0  0  0  0  0  0  0  0  0
    8.5193  -15.8799   21.2254 C   0  0  0  0  0  0  0  0  0  0  0  0
    7.7266  -16.7019   21.7201 O   0  0  0  0  0  0  0  0  0  0  0  0
    9.8841  -15.9502   21.6343 N   0  0  0  0  0  0  0  0  0  0  0  0
   10.3414  -17.0095   22.5467 C   0  0  1  0  0  0  0  0  0  0  0  0
   11.8451  -17.1437   22.2614 C   0  0  0  0  0  0  0  0  0  0  0  0
   12.0438  -17.8495   20.9895 C   0  0  0  0  0  0  0  0  0  0  0  0
   11.3028  -18.8096   20.6344 O   0  0  0  0  0  0  0  0  0  0  0  0
   10.2301  -16.5126   23.9338 C   0  0  0  0  0  0  0  0  0  0  0  0
   10.9414  -15.5183   24.2447 O   0  0  0  0  0  0  0  0  0  0  0  0
   13.0597  -17.4964   20.1101 O   0  0  0  0  0  0  0  0  0  0  0  0
    7.0335  -10.7591   26.2952 O   0  0  0  0  0  0  0  0  0  0  0  0
    7.3526  -12.1037   26.4347 C   0  0  0  0  0  0  0  0  0  0  0  0
    8.6205  -12.5326   26.7670 C   0  0  0  0  0  0  0  0  0  0  0  0
    8.9203  -13.8569   26.9008 C   0  0  0  0  0  0  0  0  0  0  0  0
    7.9090  -14.7752   26.6926 C   0  0  0  0  0  0  0  0  0  0  0  0
    8.1242  -16.2358   26.8075 C   0  0  0  0  0  0  0  0  0  0  0  0
    9.4682  -16.7015   26.3290 C   0  0  2  0  0  0  0  0  0  0  0  0
    9.4005  -17.0566   24.9261 N   0  0  0  0  0  0  0  0  0  0  0  0
   10.0190  -17.8424   27.0883 C   0  0  0  0  0  0  0  0  0  0  0  0
   10.0743  -18.9827   26.5677 O   0  0  0  0  0  0  0  0  0  0  0  0
    6.6388  -14.3521   26.3595 C   0  0  0  0  0  0  0  0  0  0  0  0
    6.3359  -13.0138   26.2245 C   0  0  0  0  0  0  0  0  0  0  0  0
   10.5035  -17.7504   28.3906 O   0  0  0  0  0  0  0  0  0  0  0  0
  2  1  1  1
  2  4  1  0
  3  2  1  0
  4  5  1  6
  6  4  1  0
  7  6  2  0
  8  6  1  0
  9 13  1  0
  9  8  1  0
  9 10  1  6
 11 10  1  0
 12 11  2  0
 13 23  1  0
 14 13  2  0
 15 11  1  0
 17 18  2  0
 17 16  1  0
 19 18  1  0
 20 19  2  0
 22 21  1  1
 21 20  1  0
 22 24  1  0
 23 22  1  0
 24 25  2  0
 24 28  1  0
 26 20  1  0
 26 27  2  0
 27 17  1  0
M  END
$$$$
