VDY.pdb
     RDKit          3D

 28 28  0  0  1  0  0  0  0  0999 V2000
    8.9808  -13.0096   20.7122 C   0  0  0  0  0  0  0  0  0  0  0  0
    7.8890  -13.7128   19.9725 C   0  0  1  0  0  0  0  0  0  0  0  0
    7.4201  -12.9076   18.7722 C   0  0  0  0  0  0  0  0  0  0  0  0
    8.3306  -15.0792   19.4323 C   0  0  2  0  0  0  0  0  0  0  0  0
    7.1686  -15.6559   18.8133 N   0  0  0  0  0  0  0  0  0  0  0  0
    8.7701  -15.9091   20.5876 C   0  0  0  0  0  0  0  0  0  0  0  0
    7.9619  -16.4817   21.3409 O   0  0  0  0  0  0  0  0  0  0  0  0
   10.1600  -16.0711   20.8647 N   0  0  0  0  0  0  0  0  0  0  0  0
   10.6079  -16.8460   22.0320 C   0  0  1  0  0  0  0  0  0  0  0  0
   12.0395  -17.2804   21.6822 C   0  0  0  0  0  0  0  0  0  0  0  0
   12.0033  -18.2640   20.5930 C   0  0  0  0  0  0  0  0  0  0  0  0
   11.3548  -19.3444   20.6886 O   0  0  0  0  0  0  0  0  0  0  0  0
   10.7278  -15.9290   23.1845 C   0  0  0  0  0  0  0  0  0  0  0  0
   11.0324  -14.7308   22.9337 O   0  0  0  0  0  0  0  0  0  0  0  0
   12.6825  -18.0558   19.3991 O   0  0  0  0  0  0  0  0  0  0  0  0
    5.7965  -11.1607   27.8477 O   0  0  0  0  0  0  0  0  0  0  0  0
    6.4277  -12.1265   27.0743 C   0  0  0  0  0  0  0  0  0  0  0  0
    5.7609  -13.2246   26.5727 C   0  0  0  0  0  0  0  0  0  0  0  0
    6.3934  -14.1660   25.8141 C   0  0  0  0  0  0  0  0  0  0  0  0
    7.7394  -13.9927   25.5546 C   0  0  0  0  0  0  0  0  0  0  0  0
    8.5243  -14.9541   24.7467 C   0  0  0  0  0  0  0  0  0  0  0  0
    9.7133  -15.5317   25.4574 C   0  0  2  0  0  0  0  0  0  0  0  0
   10.5306  -16.2842   24.5275 N   0  0  0  0  0  0  0  0  0  0  0  0
    9.3713  -16.3953   26.6058 C   0  0  0  0  0  0  0  0  0  0  0  0
    9.4965  -15.9686   27.7791 O   0  0  0  0  0  0  0  0  0  0  0  0
    8.4118  -12.8964   26.0539 C   0  0  0  0  0  0  0  0  0  0  0  0
    7.7726  -11.9451   26.8203 C   0  0  0  0  0  0  0  0  0  0  0  0
    8.8999  -17.7002   26.4860 O   0  0  0  0  0  0  0  0  0  0  0  0
  2  1  1  6
  2  4  1  0
  3  2  1  0
  4  5  1  1
  6  4  1  0
  7  6  2  0
  8  6  1  0
  9 13  1  0
  9  8  1  0
  9 10  1  6
 11 10  1  0
 12 11  2  0
 13 23  1  0
 14 13  2  0
 15 11  1  0
 17 18  2  0
 17 16  1  0
 19 18  1  0
 20 19  2  0
 22 21  1  6
 21 20  1  0
 22 24  1  0
 23 22  1  0
 24 25  2  0
 24 28  1  0
 26 20  1  0
 26 27  2  0
 27 17  1  0
M  END
$$$$
