VDY.pdb
     RDKit          3D

 28 28  0  0  1  0  0  0  0  0999 V2000
    8.2131  -13.0712   21.1867 C   0  0  0  0  0  0  0  0  0  0  0  0
    7.5036  -13.7851   20.0818 C   0  0  1  0  0  0  0  0  0  0  0  0
    7.1373  -12.8386   18.9510 C   0  0  0  0  0  0  0  0  0  0  0  0
    8.3569  -14.8969   19.4576 C   0  0  2  0  0  0  0  0  0  0  0  0
    7.4927  -15.5964   18.5465 N   0  0  0  0  0  0  0  0  0  0  0  0
    8.8015  -15.8033   20.5518 C   0  0  0  0  0  0  0  0  0  0  0  0
    8.0403  -16.6370   21.0755 O   0  0  0  0  0  0  0  0  0  0  0  0
   10.1412  -15.7360   21.0370 N   0  0  0  0  0  0  0  0  0  0  0  0
   10.6292  -16.7027   22.0324 C   0  0  1  0  0  0  0  0  0  0  0  0
   12.1602  -16.6230   21.9314 C   0  0  0  0  0  0  0  0  0  0  0  0
   12.7580  -17.7997   22.5743 C   0  0  0  0  0  0  0  0  0  0  0  0
   12.0547  -18.6735   23.1564 O   0  0  0  0  0  0  0  0  0  0  0  0
   10.2806  -16.2041   23.3790 C   0  0  0  0  0  0  0  0  0  0  0  0
   10.7832  -15.1013   23.7292 O   0  0  0  0  0  0  0  0  0  0  0  0
   14.1309  -18.0120   22.5752 O   0  0  0  0  0  0  0  0  0  0  0  0
    6.7605  -10.6650   27.1057 O   0  0  0  0  0  0  0  0  0  0  0  0
    7.0668  -11.9875   26.8116 C   0  0  0  0  0  0  0  0  0  0  0  0
    8.3407  -12.4989   26.9435 C   0  0  0  0  0  0  0  0  0  0  0  0
    8.6277  -13.8003   26.6510 C   0  0  0  0  0  0  0  0  0  0  0  0
    7.5969  -14.6091   26.2123 C   0  0  0  0  0  0  0  0  0  0  0  0
    7.7968  -16.0343   25.8635 C   0  0  0  0  0  0  0  0  0  0  0  0
    9.2315  -16.4249   25.6601 C   0  0  2  0  0  0  0  0  0  0  0  0
    9.4397  -16.8569   24.2930 N   0  0  0  0  0  0  0  0  0  0  0  0
    9.7069  -17.4812   26.5765 C   0  0  0  0  0  0  0  0  0  0  0  0
   10.0608  -17.1940   27.7456 O   0  0  0  0  0  0  0  0  0  0  0  0
    6.3205  -14.1030   26.0780 C   0  0  0  0  0  0  0  0  0  0  0  0
    6.0305  -12.7879   26.3737 C   0  0  0  0  0  0  0  0  0  0  0  0
    9.7968  -18.8279   26.2333 O   0  0  0  0  0  0  0  0  0  0  0  0
  2  1  1  1
  2  4  1  0
  3  2  1  0
  4  5  1  6
  6  4  1  0
  7  6  2  0
  8  6  1  0
  9 13  1  0
  9  8  1  0
  9 10  1  1
 11 10  1  0
 12 11  2  0
 13 23  1  0
 14 13  2  0
 15 11  1  0
 17 18  2  0
 17 16  1  0
 19 18  1  0
 20 19  2  0
 22 21  1  6
 21 20  1  0
 22 24  1  0
 23 22  1  0
 24 25  2  0
 24 28  1  0
 26 20  1  0
 26 27  2  0
 27 17  1  0
M  END
$$$$
