VDY.pdb
     RDKit          3D

 28 28  0  0  1  0  0  0  0  0999 V2000
    8.2363  -12.5390   18.4136 C   0  0  0  0  0  0  0  0  0  0  0  0
    8.5753  -13.5909   19.4198 C   0  0  1  0  0  0  0  0  0  0  0  0
    7.4290  -13.8253   20.3893 C   0  0  0  0  0  0  0  0  0  0  0  0
    8.8794  -14.9478   18.7715 C   0  0  2  0  0  0  0  0  0  0  0  0
    7.7093  -15.2967   18.0133 N   0  0  0  0  0  0  0  0  0  0  0  0
    9.1066  -15.9363   19.8614 C   0  0  0  0  0  0  0  0  0  0  0  0
    8.1712  -16.5413   20.4162 O   0  0  0  0  0  0  0  0  0  0  0  0
   10.4321  -16.2200   20.3055 N   0  0  0  0  0  0  0  0  0  0  0  0
   10.6652  -17.1011   21.4600 C   0  0  1  0  0  0  0  0  0  0  0  0
   12.1653  -17.4280   21.4010 C   0  0  0  0  0  0  0  0  0  0  0  0
   12.5132  -18.3432   22.4949 C   0  0  0  0  0  0  0  0  0  0  0  0
   11.6459  -19.0632   23.0661 O   0  0  0  0  0  0  0  0  0  0  0  0
   10.4649  -16.3163   22.6958 C   0  0  0  0  0  0  0  0  0  0  0  0
   11.1900  -15.2956   22.8498 O   0  0  0  0  0  0  0  0  0  0  0  0
   13.8172  -18.4636   22.9585 O   0  0  0  0  0  0  0  0  0  0  0  0
    6.4009  -11.0414   28.1748 O   0  0  0  0  0  0  0  0  0  0  0  0
    6.8333  -11.9952   27.2624 C   0  0  0  0  0  0  0  0  0  0  0  0
    8.1426  -12.0709   26.8358 C   0  0  0  0  0  0  0  0  0  0  0  0
    8.5540  -13.0132   25.9389 C   0  0  0  0  0  0  0  0  0  0  0  0
    7.6145  -13.9054   25.4586 C   0  0  0  0  0  0  0  0  0  0  0  0
    7.9504  -14.9648   24.4800 C   0  0  0  0  0  0  0  0  0  0  0  0
    9.2061  -15.7230   24.7974 C   0  0  2  0  0  0  0  0  0  0  0  0
    9.5371  -16.6153   23.7051 N   0  0  0  0  0  0  0  0  0  0  0  0
    9.1431  -16.5002   26.0518 C   0  0  0  0  0  0  0  0  0  0  0  0
    8.7011  -17.6745   26.0483 O   0  0  0  0  0  0  0  0  0  0  0  0
    6.3032  -13.8343   25.8814 C   0  0  0  0  0  0  0  0  0  0  0  0
    5.8877  -12.8822   26.7879 C   0  0  0  0  0  0  0  0  0  0  0  0
    9.5534  -16.0144   27.2907 O   0  0  0  0  0  0  0  0  0  0  0  0
  2  1  1  6
  2  4  1  0
  3  2  1  0
  4  5  1  1
  6  4  1  0
  7  6  2  0
  8  6  1  0
  9 13  1  0
  9  8  1  0
  9 10  1  6
 11 10  1  0
 12 11  2  0
 13 23  1  0
 14 13  2  0
 15 11  1  0
 17 18  2  0
 17 16  1  0
 19 18  1  0
 20 19  2  0
 22 21  1  6
 21 20  1  0
 22 24  1  0
 23 22  1  0
 24 25  2  0
 24 28  1  0
 26 20  1  0
 26 27  2  0
 27 17  1  0
M  END
$$$$
