VDY.pdb
     RDKit          3D

 28 28  0  0  1  0  0  0  0  0999 V2000
    7.2302  -12.7737   20.0800 C   0  0  0  0  0  0  0  0  0  0  0  0
    7.8854  -13.6918   19.0993 C   0  0  1  0  0  0  0  0  0  0  0  0
    8.1333  -13.0015   17.7686 C   0  0  0  0  0  0  0  0  0  0  0  0
    9.2498  -14.1958   19.5873 C   0  0  2  0  0  0  0  0  0  0  0  0
    9.7892  -14.9841   18.5132 N   0  0  0  0  0  0  0  0  0  0  0  0
    9.0226  -15.0428   20.7904 C   0  0  0  0  0  0  0  0  0  0  0  0
    8.4834  -14.6022   21.8218 O   0  0  0  0  0  0  0  0  0  0  0  0
    9.4269  -16.4108   20.7894 N   0  0  0  0  0  0  0  0  0  0  0  0
    9.2367  -17.2513   21.9814 C   0  0  1  0  0  0  0  0  0  0  0  0
    9.9467  -18.5709   21.6420 C   0  0  0  0  0  0  0  0  0  0  0  0
    9.8424  -19.4929   22.7797 C   0  0  0  0  0  0  0  0  0  0  0  0
   10.6792  -19.4844   23.7266 O   0  0  0  0  0  0  0  0  0  0  0  0
    9.9942  -16.6542   23.1008 C   0  0  0  0  0  0  0  0  0  0  0  0
   11.1821  -16.3013   22.8646 O   0  0  0  0  0  0  0  0  0  0  0  0
    8.8155  -20.4241   22.8723 O   0  0  0  0  0  0  0  0  0  0  0  0
    5.4678  -12.2703   27.5417 O   0  0  0  0  0  0  0  0  0  0  0  0
    6.6210  -12.8257   27.0023 C   0  0  0  0  0  0  0  0  0  0  0  0
    6.6222  -13.5106   25.8053 C   0  0  0  0  0  0  0  0  0  0  0  0
    7.7625  -14.0513   25.2866 C   0  0  0  0  0  0  0  0  0  0  0  0
    8.9364  -13.8953   25.9986 C   0  0  0  0  0  0  0  0  0  0  0  0
   10.2298  -14.4443   25.5309 C   0  0  0  0  0  0  0  0  0  0  0  0
   10.2896  -15.9435   25.5009 C   0  0  2  0  0  0  0  0  0  0  0  0
    9.4990  -16.4503   24.3977 N   0  0  0  0  0  0  0  0  0  0  0  0
    9.8435  -16.5921   26.7507 C   0  0  0  0  0  0  0  0  0  0  0  0
    8.8324  -17.3351   26.7533 O   0  0  0  0  0  0  0  0  0  0  0  0
    8.9412  -13.2115   27.1968 C   0  0  0  0  0  0  0  0  0  0  0  0
    7.7889  -12.6650   27.7207 C   0  0  0  0  0  0  0  0  0  0  0  0
   10.4826  -16.4398   27.9785 O   0  0  0  0  0  0  0  0  0  0  0  0
  2  1  1  1
  2  4  1  0
  3  2  1  0
  4  5  1  6
  6  4  1  0
  7  6  2  0
  8  6  1  0
  9 13  1  0
  9  8  1  0
  9 10  1  6
 11 10  1  0
 12 11  2  0
 13 23  1  0
 14 13  2  0
 15 11  1  0
 17 18  2  0
 17 16  1  0
 19 18  1  0
 20 19  2  0
 22 21  1  1
 21 20  1  0
 22 24  1  0
 23 22  1  0
 24 25  2  0
 24 28  1  0
 26 20  1  0
 26 27  2  0
 27 17  1  0
M  END
$$$$
