VDY.pdb
     RDKit          3D

 28 28  0  0  1  0  0  0  0  0999 V2000
    7.0749  -12.7814   20.9059 C   0  0  0  0  0  0  0  0  0  0  0  0
    8.1729  -12.9640   19.9085 C   0  0  1  0  0  0  0  0  0  0  0  0
    9.5356  -12.6911   20.5229 C   0  0  0  0  0  0  0  0  0  0  0  0
    8.2273  -14.3918   19.3495 C   0  0  2  0  0  0  0  0  0  0  0  0
    6.9832  -14.5954   18.6589 N   0  0  0  0  0  0  0  0  0  0  0  0
    8.3434  -15.3306   20.4991 C   0  0  0  0  0  0  0  0  0  0  0  0
    7.3564  -15.6905   21.1662 O   0  0  0  0  0  0  0  0  0  0  0  0
    9.6179  -15.8517   20.8717 N   0  0  0  0  0  0  0  0  0  0  0  0
    9.7282  -16.9193   21.8775 C   0  0  1  0  0  0  0  0  0  0  0  0
   11.0247  -17.6599   21.5154 C   0  0  0  0  0  0  0  0  0  0  0  0
   10.7753  -18.5669   20.3883 C   0  0  0  0  0  0  0  0  0  0  0  0
   11.5954  -18.6903   19.4348 O   0  0  0  0  0  0  0  0  0  0  0  0
    9.9662  -16.2969   23.1964 C   0  0  0  0  0  0  0  0  0  0  0  0
   10.8968  -15.4485   23.2697 O   0  0  0  0  0  0  0  0  0  0  0  0
    9.6215  -19.3371   20.3131 O   0  0  0  0  0  0  0  0  0  0  0  0
    5.8890  -10.9473   25.8283 O   0  0  0  0  0  0  0  0  0  0  0  0
    6.4597  -12.2036   25.9876 C   0  0  0  0  0  0  0  0  0  0  0  0
    5.7509  -13.3692   25.7851 C   0  0  0  0  0  0  0  0  0  0  0  0
    6.3241  -14.5970   25.9450 C   0  0  0  0  0  0  0  0  0  0  0  0
    7.6527  -14.6487   26.3208 C   0  0  0  0  0  0  0  0  0  0  0  0
    8.3726  -15.9263   26.5263 C   0  0  0  0  0  0  0  0  0  0  0  0
    9.6029  -16.0848   25.6815 C   0  0  2  0  0  0  0  0  0  0  0  0
    9.2427  -16.5740   24.3663 N   0  0  0  0  0  0  0  0  0  0  0  0
   10.6259  -16.9770   26.2636 C   0  0  0  0  0  0  0  0  0  0  0  0
   10.7579  -18.1509   25.8405 O   0  0  0  0  0  0  0  0  0  0  0  0
    8.3667  -13.4860   26.5252 C   0  0  0  0  0  0  0  0  0  0  0  0
    7.7876  -12.2453   26.3633 C   0  0  0  0  0  0  0  0  0  0  0  0
   11.4936  -16.6042   27.2871 O   0  0  0  0  0  0  0  0  0  0  0  0
  2  1  1  1
  2  4  1  0
  3  2  1  0
  4  5  1  1
  6  4  1  0
  7  6  2  0
  8  6  1  0
  9 13  1  0
  9  8  1  0
  9 10  1  6
 11 10  1  0
 12 11  2  0
 13 23  1  0
 14 13  2  0
 15 11  1  0
 17 18  2  0
 17 16  1  0
 19 18  1  0
 20 19  2  0
 22 21  1  1
 21 20  1  0
 22 24  1  0
 23 22  1  0
 24 25  2  0
 24 28  1  0
 26 20  1  0
 26 27  2  0
 27 17  1  0
M  END
$$$$
