VDY.pdb
     RDKit          3D

 28 28  0  0  1  0  0  0  0  0999 V2000
    7.2932  -12.1594   19.4235 C   0  0  0  0  0  0  0  0  0  0  0  0
    7.2958  -13.4415   20.1916 C   0  0  1  0  0  0  0  0  0  0  0  0
    7.3284  -14.6461   19.2660 C   0  0  0  0  0  0  0  0  0  0  0  0
    8.5144  -13.5709   21.1148 C   0  0  2  0  0  0  0  0  0  0  0  0
    9.6641  -13.6012   20.2527 N   0  0  0  0  0  0  0  0  0  0  0  0
    8.3904  -14.8530   21.8613 C   0  0  0  0  0  0  0  0  0  0  0  0
    7.3714  -15.1481   22.5118 O   0  0  0  0  0  0  0  0  0  0  0  0
    9.4614  -15.7952   21.8482 N   0  0  0  0  0  0  0  0  0  0  0  0
    9.4267  -16.9840   22.7138 C   0  0  1  0  0  0  0  0  0  0  0  0
   10.5961  -17.8527   22.2256 C   0  0  0  0  0  0  0  0  0  0  0  0
   10.2650  -18.4349   20.9192 C   0  0  0  0  0  0  0  0  0  0  0  0
    9.2433  -19.1589   20.7491 O   0  0  0  0  0  0  0  0  0  0  0  0
    9.7699  -16.5707   24.0904 C   0  0  0  0  0  0  0  0  0  0  0  0
   10.7872  -15.8384   24.2316 O   0  0  0  0  0  0  0  0  0  0  0  0
   11.0608  -18.2188   19.8012 O   0  0  0  0  0  0  0  0  0  0  0  0
    6.4845  -11.0708   25.6171 O   0  0  0  0  0  0  0  0  0  0  0  0
    6.9885  -12.2816   26.0745 C   0  0  0  0  0  0  0  0  0  0  0  0
    8.2013  -12.3803   26.7236 C   0  0  0  0  0  0  0  0  0  0  0  0
    8.6846  -13.5764   27.1678 C   0  0  0  0  0  0  0  0  0  0  0  0
    7.9199  -14.7064   26.9497 C   0  0  0  0  0  0  0  0  0  0  0  0
    8.3497  -16.0547   27.3858 C   0  0  0  0  0  0  0  0  0  0  0  0
    9.4903  -16.6252   26.5948 C   0  0  2  0  0  0  0  0  0  0  0  0
    9.0573  -16.9267   25.2455 N   0  0  0  0  0  0  0  0  0  0  0  0
   10.0932  -17.8357   27.1887 C   0  0  0  0  0  0  0  0  0  0  0  0
   10.5886  -17.7970   28.3409 O   0  0  0  0  0  0  0  0  0  0  0  0
    6.7060  -14.6139   26.3006 C   0  0  0  0  0  0  0  0  0  0  0  0
    6.2176  -13.4051   25.8519 C   0  0  0  0  0  0  0  0  0  0  0  0
   10.1579  -19.0694   26.5461 O   0  0  0  0  0  0  0  0  0  0  0  0
  2  1  1  6
  2  4  1  0
  3  2  1  0
  4  5  1  6
  6  4  1  0
  7  6  2  0
  8  6  1  0
  9 13  1  0
  9  8  1  0
  9 10  1  6
 11 10  1  0
 12 11  2  0
 13 23  1  0
 14 13  2  0
 15 11  1  0
 17 18  2  0
 17 16  1  0
 19 18  1  0
 20 19  2  0
 22 21  1  1
 21 20  1  0
 22 24  1  0
 23 22  1  0
 24 25  2  0
 24 28  1  0
 26 20  1  0
 26 27  2  0
 27 17  1  0
M  END
$$$$
