VDY.pdb
     RDKit          3D

 28 28  0  0  1  0  0  0  0  0999 V2000
    7.1592  -12.9572   17.8480 C   0  0  0  0  0  0  0  0  0  0  0  0
    7.6497  -14.1489   18.6051 C   0  0  1  0  0  0  0  0  0  0  0  0
    8.5627  -15.0141   17.7528 C   0  0  0  0  0  0  0  0  0  0  0  0
    8.4574  -13.7619   19.8508 C   0  0  2  0  0  0  0  0  0  0  0  0
    9.6107  -13.0507   19.3710 N   0  0  0  0  0  0  0  0  0  0  0  0
    8.8693  -15.0164   20.5385 C   0  0  0  0  0  0  0  0  0  0  0  0
    8.0460  -15.7896   21.0611 O   0  0  0  0  0  0  0  0  0  0  0  0
   10.2491  -15.3700   20.6165 N   0  0  0  0  0  0  0  0  0  0  0  0
   10.6873  -16.5098   21.4366 C   0  0  1  0  0  0  0  0  0  0  0  0
   12.1584  -16.7233   21.0482 C   0  0  0  0  0  0  0  0  0  0  0  0
   12.2836  -17.9474   20.2475 C   0  0  0  0  0  0  0  0  0  0  0  0
   11.3334  -18.3819   19.5367 O   0  0  0  0  0  0  0  0  0  0  0  0
   10.6940  -16.0915   22.8537 C   0  0  0  0  0  0  0  0  0  0  0  0
   11.4896  -15.1665   23.1741 O   0  0  0  0  0  0  0  0  0  0  0  0
   13.4564  -18.6919   20.2315 O   0  0  0  0  0  0  0  0  0  0  0  0
    5.8862  -11.6287   28.2968 O   0  0  0  0  0  0  0  0  0  0  0  0
    6.5876  -12.3839   27.3657 C   0  0  0  0  0  0  0  0  0  0  0  0
    7.9602  -12.5129   27.4007 C   0  0  0  0  0  0  0  0  0  0  0  0
    8.6367  -13.2582   26.4796 C   0  0  0  0  0  0  0  0  0  0  0  0
    7.9047  -13.8919   25.4938 C   0  0  0  0  0  0  0  0  0  0  0  0
    8.5365  -14.7217   24.4425 C   0  0  0  0  0  0  0  0  0  0  0  0
    9.3360  -15.8787   24.9665 C   0  0  2  0  0  0  0  0  0  0  0  0
    9.8899  -16.6392   23.8648 N   0  0  0  0  0  0  0  0  0  0  0  0
    8.5768  -16.7897   25.8468 C   0  0  0  0  0  0  0  0  0  0  0  0
    8.1132  -16.3772   26.9374 O   0  0  0  0  0  0  0  0  0  0  0  0
    6.5315  -13.7662   25.4535 C   0  0  0  0  0  0  0  0  0  0  0  0
    5.8478  -13.0132   26.3844 C   0  0  0  0  0  0  0  0  0  0  0  0
    8.3222  -18.1265   25.5509 O   0  0  0  0  0  0  0  0  0  0  0  0
  2  1  1  6
  2  4  1  0
  3  2  1  0
  4  5  1  6
  6  4  1  0
  7  6  2  0
  8  6  1  0
  9 13  1  0
  9  8  1  0
  9 10  1  6
 11 10  1  0
 12 11  2  0
 13 23  1  0
 14 13  2  0
 15 11  1  0
 17 18  2  0
 17 16  1  0
 19 18  1  0
 20 19  2  0
 22 21  1  6
 21 20  1  0
 22 24  1  0
 23 22  1  0
 24 25  2  0
 24 28  1  0
 26 20  1  0
 26 27  2  0
 27 17  1  0
M  END
$$$$
