VDY.pdb
     RDKit          3D

 28 28  0  0  1  0  0  0  0  0999 V2000
    7.0189  -12.8875   18.6948 C   0  0  0  0  0  0  0  0  0  0  0  0
    7.2321  -14.0161   19.6511 C   0  0  1  0  0  0  0  0  0  0  0  0
    7.7631  -15.2525   18.9452 C   0  0  0  0  0  0  0  0  0  0  0  0
    8.2486  -13.6728   20.7479 C   0  0  2  0  0  0  0  0  0  0  0  0
    9.4642  -13.3208   20.0665 N   0  0  0  0  0  0  0  0  0  0  0  0
    8.4532  -14.8896   21.5809 C   0  0  0  0  0  0  0  0  0  0  0  0
    7.5197  -15.4445   22.1886 O   0  0  0  0  0  0  0  0  0  0  0  0
    9.7542  -15.4615   21.7051 N   0  0  0  0  0  0  0  0  0  0  0  0
    9.9573  -16.7108   22.4544 C   0  0  1  0  0  0  0  0  0  0  0  0
   11.3786  -17.1594   22.0814 C   0  0  0  0  0  0  0  0  0  0  0  0
   11.6274  -18.5032   22.6174 C   0  0  0  0  0  0  0  0  0  0  0  0
   10.7279  -19.1643   23.2098 O   0  0  0  0  0  0  0  0  0  0  0  0
    9.9935  -16.3910   23.8965 C   0  0  0  0  0  0  0  0  0  0  0  0
   10.8735  -15.5723   24.2796 O   0  0  0  0  0  0  0  0  0  0  0  0
   12.8681  -19.1172   22.5003 O   0  0  0  0  0  0  0  0  0  0  0  0
    6.0288  -10.9779   25.9110 O   0  0  0  0  0  0  0  0  0  0  0  0
    6.5063  -12.2622   26.1384 C   0  0  0  0  0  0  0  0  0  0  0  0
    7.7533  -12.5035   26.6758 C   0  0  0  0  0  0  0  0  0  0  0  0
    8.2100  -13.7706   26.8940 C   0  0  0  0  0  0  0  0  0  0  0  0
    7.3823  -14.8251   26.5592 C   0  0  0  0  0  0  0  0  0  0  0  0
    7.7783  -16.2392   26.7497 C   0  0  0  0  0  0  0  0  0  0  0  0
    9.1630  -16.5627   26.2701 C   0  0  2  0  0  0  0  0  0  0  0  0
    9.1313  -16.9231   24.8672 N   0  0  0  0  0  0  0  0  0  0  0  0
    9.8301  -17.6401   27.0290 C   0  0  0  0  0  0  0  0  0  0  0  0
   10.0247  -18.7611   26.5000 O   0  0  0  0  0  0  0  0  0  0  0  0
    6.1340  -14.5899   26.0209 C   0  0  0  0  0  0  0  0  0  0  0  0
    5.6725  -13.3094   25.8006 C   0  0  0  0  0  0  0  0  0  0  0  0
   10.2807  -17.5058   28.3398 O   0  0  0  0  0  0  0  0  0  0  0  0
  2  1  1  6
  2  4  1  0
  3  2  1  0
  4  5  1  6
  6  4  1  0
  7  6  2  0
  8  6  1  0
  9 13  1  0
  9  8  1  0
  9 10  1  6
 11 10  1  0
 12 11  2  0
 13 23  1  0
 14 13  2  0
 15 11  1  0
 17 18  2  0
 17 16  1  0
 19 18  1  0
 20 19  2  0
 22 21  1  1
 21 20  1  0
 22 24  1  0
 23 22  1  0
 24 25  2  0
 24 28  1  0
 26 20  1  0
 26 27  2  0
 27 17  1  0
M  END
$$$$
