VDY.pdb
     RDKit          3D

 28 28  0  0  1  0  0  0  0  0999 V2000
    7.4502  -12.1931   19.4257 C   0  0  0  0  0  0  0  0  0  0  0  0
    7.4925  -13.4421   20.2455 C   0  0  1  0  0  0  0  0  0  0  0  0
    7.4199  -14.6844   19.3735 C   0  0  0  0  0  0  0  0  0  0  0  0
    8.7832  -13.5630   21.0660 C   0  0  2  0  0  0  0  0  0  0  0  0
    9.8539  -13.6507   20.1111 N   0  0  0  0  0  0  0  0  0  0  0  0
    8.7003  -14.8130   21.8703 C   0  0  0  0  0  0  0  0  0  0  0  0
    7.7128  -15.0849   22.5771 O   0  0  0  0  0  0  0  0  0  0  0  0
    9.7755  -15.7502   21.8493 N   0  0  0  0  0  0  0  0  0  0  0  0
    9.7353  -16.9587   22.6870 C   0  0  1  0  0  0  0  0  0  0  0  0
   10.9586  -17.7767   22.2455 C   0  0  0  0  0  0  0  0  0  0  0  0
   10.6868  -18.4079   20.9483 C   0  0  0  0  0  0  0  0  0  0  0  0
   11.6137  -18.7125   20.1452 O   0  0  0  0  0  0  0  0  0  0  0  0
    9.9891  -16.5653   24.0885 C   0  0  0  0  0  0  0  0  0  0  0  0
   10.9940  -15.8341   24.3050 O   0  0  0  0  0  0  0  0  0  0  0  0
    9.3929  -18.7026   20.5371 O   0  0  0  0  0  0  0  0  0  0  0  0
    5.9024  -11.3647   25.6024 O   0  0  0  0  0  0  0  0  0  0  0  0
    6.5199  -12.5316   26.0342 C   0  0  0  0  0  0  0  0  0  0  0  0
    7.7517  -12.5310   26.6543 C   0  0  0  0  0  0  0  0  0  0  0  0
    8.3470  -13.6849   27.0736 C   0  0  0  0  0  0  0  0  0  0  0  0
    7.6777  -14.8747   26.8601 C   0  0  0  0  0  0  0  0  0  0  0  0
    8.2326  -16.1848   27.2708 C   0  0  0  0  0  0  0  0  0  0  0  0
    9.4974  -16.5697   26.5606 C   0  0  2  0  0  0  0  0  0  0  0  0
    9.2050  -16.9389   25.1904 N   0  0  0  0  0  0  0  0  0  0  0  0
   10.2438  -17.6685   27.2064 C   0  0  0  0  0  0  0  0  0  0  0  0
   10.2970  -18.8007   26.6683 O   0  0  0  0  0  0  0  0  0  0  0  0
    6.4454  -14.8816   26.2400 C   0  0  0  0  0  0  0  0  0  0  0  0
    5.8438  -13.7155   25.8164 C   0  0  0  0  0  0  0  0  0  0  0  0
   10.9233  -17.5434   28.4156 O   0  0  0  0  0  0  0  0  0  0  0  0
  2  1  1  6
  2  4  1  0
  3  2  1  0
  4  5  1  6
  6  4  1  0
  7  6  2  0
  8  6  1  0
  9 13  1  0
  9  8  1  0
  9 10  1  6
 11 10  1  0
 12 11  2  0
 13 23  1  0
 14 13  2  0
 15 11  1  0
 17 18  2  0
 17 16  1  0
 19 18  1  0
 20 19  2  0
 22 21  1  1
 21 20  1  0
 22 24  1  0
 23 22  1  0
 24 25  2  0
 24 28  1  0
 26 20  1  0
 26 27  2  0
 27 17  1  0
M  END
$$$$
