YEH.pdb
     RDKit          3D

 32 33  0  0  1  0  0  0  0  0999 V2000
   31.6498  -16.0630  -19.7827 O   0  0  0  0  0  0  0  0  0  0  0  0
   30.7330  -16.4617  -18.8349 C   0  0  0  0  0  0  0  0  0  0  0  0
   29.8046  -15.5686  -18.3195 C   0  0  0  0  0  0  0  0  0  0  0  0
   28.8925  -15.9807  -17.3714 C   0  0  0  0  0  0  0  0  0  0  0  0
   28.8563  -17.2742  -16.8961 C   0  0  0  0  0  0  0  0  0  0  0  0
   27.8593  -17.6509  -15.8742 C   0  0  0  0  0  0  0  0  0  0  0  0
   27.0841  -18.8946  -16.1963 C   0  0  2  0  0  0  0  0  0  0  0  0
   26.3809  -18.6275  -17.4615 N   0  0  0  0  0  0  0  0  0  0  0  0
   26.0966  -19.1926  -15.1276 C   0  0  0  0  0  0  0  0  0  0  0  0
   25.5083  -18.2755  -14.4978 O   0  0  0  0  0  0  0  0  0  0  0  0
   29.7813  -18.1575  -17.4116 C   0  0  0  0  0  0  0  0  0  0  0  0
   30.7074  -17.7585  -18.3678 C   0  0  0  0  0  0  0  0  0  0  0  0
   25.7563  -20.5197  -14.7502 N   0  0  0  0  0  0  0  0  0  0  0  0
   24.8048  -20.8278  -13.6840 C   0  0  1  0  0  0  0  0  0  0  0  0
   24.1764  -22.1730  -13.9380 C   0  0  0  0  0  0  0  0  0  0  0  0
   25.1889  -23.2028  -14.3233 C   0  0  0  0  0  0  0  0  0  0  0  0
   24.6413  -24.5279  -14.6363 C   0  0  0  0  0  0  0  0  0  0  0  0
   23.4354  -24.8266  -14.7294 O   0  0  0  0  0  0  0  0  0  0  0  0
   25.5181  -20.8782  -12.3637 C   0  0  0  0  0  0  0  0  0  0  0  0
   26.7629  -20.8948  -12.3589 O   0  0  0  0  0  0  0  0  0  0  0  0
   25.5731  -25.5587  -14.8508 O   0  0  0  0  0  0  0  0  0  0  0  0
   24.8232  -20.9069  -11.1394 N   0  0  0  0  0  0  0  0  0  0  0  0
   25.5672  -21.0262   -9.8462 C   0  0  1  0  0  0  0  0  0  0  0  0
   26.2986  -19.7545   -9.6200 C   0  0  0  0  0  0  0  0  0  0  0  0
   26.8725  -19.5411   -8.2930 C   0  0  0  0  0  0  0  0  0  0  0  0
   26.9467  -20.2874   -7.1617 C   0  0  0  0  0  0  0  0  0  0  0  0
   27.6555  -19.5711   -6.2539 N   0  0  0  0  0  0  0  0  0  0  0  0
   28.0211  -18.4052   -6.7940 C   0  0  0  0  0  0  0  0  0  0  0  0
   27.5501  -18.3850   -8.0241 N   0  0  0  0  0  0  0  0  0  0  0  0
   24.4566  -21.1707   -8.8559 C   0  0  0  0  0  0  0  0  0  0  0  0
   24.6991  -21.5029   -7.5375 O   0  0  0  0  0  0  0  0  0  0  0  0
   23.2820  -20.9933   -9.2010 O   0  0  0  0  0  0  0  0  0  0  0  0
  2  1  1  0
  2  3  2  0
  4  3  1  0
  5  4  2  0
  6  5  1  0
  6  7  1  0
  7  8  1  6
  9  7  1  0
  9 10  2  0
 11 12  2  0
 11  5  1  0
 12  2  1  0
 13  9  1  0
 14 13  1  0
 14 15  1  6
 16 15  1  0
 16 17  1  0
 17 18  2  0
 19 14  1  0
 20 19  2  0
 21 17  1  0
 22 19  1  0
 23 24  1  1
 23 22  1  0
 25 24  1  0
 26 25  2  0
 27 28  1  0
 27 26  1  0
 28 29  2  0
 29 25  1  0
 30 23  1  0
 31 30  1  0
 32 30  2  0
M  END
$$$$
