YEH.pdb
     RDKit          3D

 32 33  0  0  1  0  0  0  0  0999 V2000
   28.4777  -20.3363   -4.5487 O   0  0  0  0  0  0  0  0  0  0  0  0
   27.9350  -20.1481   -5.8007 C   0  0  0  0  0  0  0  0  0  0  0  0
   27.0331  -21.0587   -6.3323 C   0  0  0  0  0  0  0  0  0  0  0  0
   26.4973  -20.8583   -7.5867 C   0  0  0  0  0  0  0  0  0  0  0  0
   26.8230  -19.7657   -8.3617 C   0  0  0  0  0  0  0  0  0  0  0  0
   26.2202  -19.6125   -9.7009 C   0  0  0  0  0  0  0  0  0  0  0  0
   26.3216  -20.8334  -10.5673 C   0  0  2  0  0  0  0  0  0  0  0  0
   27.7581  -21.1209  -10.7100 N   0  0  0  0  0  0  0  0  0  0  0  0
   25.7258  -20.5824  -11.9045 C   0  0  0  0  0  0  0  0  0  0  0  0
   26.1852  -19.7019  -12.6775 O   0  0  0  0  0  0  0  0  0  0  0  0
   27.7199  -18.8640   -7.8286 C   0  0  0  0  0  0  0  0  0  0  0  0
   28.2691  -19.0511   -6.5659 C   0  0  0  0  0  0  0  0  0  0  0  0
   24.6086  -21.3127  -12.3924 N   0  0  0  0  0  0  0  0  0  0  0  0
   24.0433  -21.1116  -13.7255 C   0  0  1  0  0  0  0  0  0  0  0  0
   24.5469  -22.1829  -14.6570 C   0  0  0  0  0  0  0  0  0  0  0  0
   26.0117  -22.0527  -14.9240 C   0  0  0  0  0  0  0  0  0  0  0  0
   26.5653  -23.0426  -15.8553 C   0  0  0  0  0  0  0  0  0  0  0  0
   27.3101  -23.9976  -15.5627 O   0  0  0  0  0  0  0  0  0  0  0  0
   22.5458  -21.2021  -13.6626 C   0  0  0  0  0  0  0  0  0  0  0  0
   22.0279  -21.9067  -12.7765 O   0  0  0  0  0  0  0  0  0  0  0  0
   26.2189  -22.8944  -17.2098 O   0  0  0  0  0  0  0  0  0  0  0  0
   21.7168  -20.5170  -14.5714 N   0  0  0  0  0  0  0  0  0  0  0  0
   20.2274  -20.5828  -14.4393 C   0  0  1  0  0  0  0  0  0  0  0  0
   19.6763  -19.2544  -14.8068 C   0  0  0  0  0  0  0  0  0  0  0  0
   19.7391  -18.2021  -13.7945 C   0  0  0  0  0  0  0  0  0  0  0  0
   19.9671  -18.1870  -12.4565 C   0  0  0  0  0  0  0  0  0  0  0  0
   19.9523  -16.8897  -12.0612 N   0  0  0  0  0  0  0  0  0  0  0  0
   19.7228  -16.1050  -13.1177 C   0  0  0  0  0  0  0  0  0  0  0  0
   19.5941  -16.8945  -14.1644 N   0  0  0  0  0  0  0  0  0  0  0  0
   19.8640  -21.6004  -15.4725 C   0  0  0  0  0  0  0  0  0  0  0  0
   18.6174  -22.1942  -15.4987 O   0  0  0  0  0  0  0  0  0  0  0  0
   20.6830  -21.9363  -16.3366 O   0  0  0  0  0  0  0  0  0  0  0  0
  2  1  1  0
  2  3  2  0
  4  3  1  0
  5  4  2  0
  6  5  1  0
  6  7  1  0
  7  8  1  6
  9  7  1  0
  9 10  2  0
 11 12  2  0
 11  5  1  0
 12  2  1  0
 13  9  1  0
 14 13  1  0
 14 15  1  6
 16 15  1  0
 16 17  1  0
 17 18  2  0
 19 14  1  0
 20 19  2  0
 21 17  1  0
 22 19  1  0
 23 24  1  6
 23 22  1  0
 25 24  1  0
 26 25  2  0
 27 28  1  0
 27 26  1  0
 28 29  2  0
 29 25  1  0
 30 23  1  0
 31 30  1  0
 32 30  2  0
M  END
$$$$
